=
 OpenBabel11052420353D

 34 38  0  0  1  0  0  0  0  0999 V2000
  191.2900  173.0150  143.4330 C   0  0  1  0  0  3  0  0  0  0  0  0
  192.9440  174.8730  146.4220 C   0  0  0  0  0  2  0  0  0  0  0  0
  190.5940  177.0520  147.6670 C   0  0  0  0  0  0  0  0  0  0  0  0
  193.8440  173.5730  144.5890 N   0  0  0  0  0  2  0  0  0  0  0  0
  190.0420  174.4110  141.8220 N   0  0  0  0  0  0  0  0  0  0  0  0
  190.0030  173.1780  142.6110 C   0  0  0  0  0  2  0  0  0  0  0  0
  192.4760  174.2670  141.5370 C   0  0  2  0  0  3  0  0  0  0  0  0
  192.7160  175.4670  142.2130 O   0  0  0  0  0  1  0  0  0  0  0  0
  191.5010  177.5240  148.6610 N   0  0  0  0  0  1  0  0  0  0  0  0
  191.1220  174.3330  140.8350 C   0  0  0  0  0  2  0  0  0  0  0  0
  193.7910  173.0160  143.2750 C   0  0  0  0  0  0  0  0  0  0  0  0
  192.5110  173.0640  142.4980 C   0  0  1  0  0  3  0  0  0  0  0  0
  194.8890  172.6960  142.6750 N   0  0  0  0  0  2  0  0  0  0  0  0
  191.8880  174.9230  147.5150 C   0  0  0  0  0  2  0  0  0  0  0  0
  189.6430  177.7940  147.3030 O   0  0  0  0  0  0  0  0  0  0  0  0
  190.7600  175.7490  147.0900 N   0  0  0  0  0  0  0  0  0  0  0  0
  189.8110  175.3020  146.0630 C   0  0  0  0  0  2  0  0  0  0  0  0
  192.6570  173.7610  145.4200 C   0  0  2  0  0  3  0  0  0  0  0  0
  190.1580  173.9420  145.4660 C   0  0  0  0  0  2  0  0  0  0  0  0
  191.3960  174.0400  144.5770 C   0  0  2  0  0  3  0  0  0  0  0  0
  188.7510  174.6250  141.1520 C   0  0  0  0  0  2  0  0  0  0  0  0
  186.3590  177.5630  141.3290 N   0  0  0  0  0  0  0  0  0  0  0  0
  188.1030  176.1510  143.1320 C   0  0  0  0  0  2  0  0  0  0  0  0
  186.0870  179.5320  145.2640 C   0  0  0  0  0  2  0  0  0  0  0  0
  185.0920  178.6200  143.0860 C   0  0  0  0  0  2  0  0  0  0  0  0
  186.4680  178.1220  142.6720 C   0  0  1  0  0  3  0  0  0  0  0  0
  185.1770  179.7920  144.0580 C   0  0  0  0  0  2  0  0  0  0  0  0
  186.9180  177.1550  144.9780 C   0  0  0  0  0  3  0  0  0  0  0  0
  187.0550  177.1030  143.6380 C   0  0  0  0  0  0  0  0  0  0  0  0
  186.0550  178.0910  145.7830 C   0  0  2  0  0  3  0  0  0  0  0  0
  187.9600  175.7930  141.6790 C   0  0  2  0  0  3  0  0  0  0  0  0
  187.1430  176.4610  140.8660 C   0  0  0  0  0  3  0  0  0  0  0  0
  184.6520  177.5330  145.9910 C   0  0  0  0  0  2  0  0  0  0  0  0
  183.9970  178.2510  146.9920 O   0  0  0  0  0  1  0  0  0  0  0  0
  1  6  1  6  0  0  0
  1 20  1  0  0  0  0
  2 14  1  0  0  0  0
  3  9  1  0  0  0  0
  4 18  1  0  0  0  0
  5  6  1  0  0  0  0
  7  8  1  1  0  0  0
  7 12  1  0  0  0  0
 10  7  1  0  0  0  0
 10  5  1  0  0  0  0
 11  4  1  0  0  0  0
 12 11  1  1  0  0  0
 12  1  1  0  0  0  0
 13 11  2  0  0  0  0
 15  3  2  0  0  0  0
 16 14  1  0  0  0  0
 16  3  1  0  0  0  0
 17 16  1  0  0  0  0
 18  2  1  1  0  0  0
 19 17  1  0  0  0  0
 20 18  1  0  0  0  0
 20 19  1  1  0  0  0
 21  5  1  0  0  0  0
 22 26  1  0  0  0  0
 23 29  1  0  0  0  0
 24 30  1  0  0  0  0
 25 27  1  0  0  0  0
 26 25  1  1  0  0  0
 26 29  1  0  0  0  0
 27 24  1  0  0  0  0
 28 30  1  0  0  0  0
 29 28  2  0  0  0  0
 30 33  1  6  0  0  0
 31 21  1  1  0  0  0
 31 23  1  0  0  0  0
 32 22  2  0  0  0  0
 32 31  1  0  0  0  0
 33 34  1  0  0  0  0
M  END
>  <MODEL>
1

>  <REMARK>
 VINA RESULT:      -8.1      0.000      0.000
  Name = 
  3 active torsions:
  status: ('A' for Active; 'I' for Inactive)
    1  A    between atoms: C_7  and  C_29
    2  A    between atoms: N_8  and  C_18
    3  A    between atoms: C_18  and  C_30
                            x       y       z     vdW  Elec       q    Type
                         _______ _______ _______ _____ _____    ______ ____

>  <TORSDO>
F 3

$$$$
=
 OpenBabel11052420353D

 34 38  0  0  1  0  0  0  0  0999 V2000
  192.2220  176.4770  144.4660 C   0  0  1  0  0  3  0  0  0  0  0  0
  192.9710  174.0770  141.4980 C   0  0  0  0  0  2  0  0  0  0  0  0
  190.0390  172.4340  140.7780 C   0  0  0  0  0  0  0  0  0  0  0  0
  194.3930  175.2520  143.0660 N   0  0  0  0  0  2  0  0  0  0  0  0
  190.9370  175.5300  146.3510 N   0  0  0  0  0  0  0  0  0  0  0  0
  191.0640  176.6790  145.4520 C   0  0  0  0  0  2  0  0  0  0  0  0
  193.3560  175.1150  146.3180 C   0  0  2  0  0  3  0  0  0  0  0  0
  193.2210  173.8480  145.7420 O   0  0  0  0  0  1  0  0  0  0  0  0
  190.6640  171.6930  139.7340 N   0  0  0  0  0  1  0  0  0  0  0  0
  192.1370  175.4190  147.1850 C   0  0  0  0  0  2  0  0  0  0  0  0
  194.6560  175.8960  144.3140 C   0  0  0  0  0  0  0  0  0  0  0  0
  193.5230  176.2050  145.2430 C   0  0  1  0  0  3  0  0  0  0  0  0
  195.8710  175.9880  144.7380 N   0  0  0  0  0  2  0  0  0  0  0  0
  191.7860  174.2020  140.5550 C   0  0  0  0  0  2  0  0  0  0  0  0
  189.0070  171.9640  141.3300 O   0  0  0  0  0  0  0  0  0  0  0  0
  190.5740  173.6980  141.1970 N   0  0  0  0  0  0  0  0  0  0  0  0
  189.9070  174.4270  142.2820 C   0  0  0  0  0  2  0  0  0  0  0  0
  193.0890  175.2930  142.4110 C   0  0  2  0  0  3  0  0  0  0  0  0
  190.6320  175.7040  142.6920 C   0  0  0  0  0  2  0  0  0  0  0  0
  191.9310  175.3790  143.4260 C   0  0  2  0  0  3  0  0  0  0  0  0
  189.7400  175.6730  147.1930 C   0  0  0  0  0  2  0  0  0  0  0  0
  187.0810  178.2860  146.5010 N   0  0  0  0  0  0  0  0  0  0  0  0
  188.0390  175.8720  145.2620 C   0  0  0  0  0  2  0  0  0  0  0  0
  184.6360  177.5750  142.9020 C   0  0  0  0  0  2  0  0  0  0  0  0
  185.9380  179.0680  144.5280 C   0  0  0  0  0  2  0  0  0  0  0  0
  186.3360  177.8380  145.3290 C   0  0  1  0  0  3  0  0  0  0  0  0
  184.6420  178.8500  143.7530 C   0  0  0  0  0  2  0  0  0  0  0  0
  186.9270  176.5400  143.2270 C   0  0  0  0  0  3  0  0  0  0  0  0
  187.1460  176.8310  144.5260 C   0  0  0  0  0  0  0  0  0  0  0  0
  185.9890  177.2280  142.2710 C   0  0  2  0  0  3  0  0  0  0  0  0
  188.6040  176.4170  146.5430 C   0  0  2  0  0  3  0  0  0  0  0  0
  188.1450  177.5390  147.0960 C   0  0  0  0  0  3  0  0  0  0  0  0
  186.6610  178.3950  141.5560 C   0  0  0  0  0  2  0  0  0  0  0  0
  188.0450  178.2180  141.5520 O   0  0  0  0  0  1  0  0  0  0  0  0
  1 12  1  0  0  0  0
  1  6  1  1  0  0  0
  3 16  1  0  0  0  0
  3 15  2  0  0  0  0
  4 11  1  0  0  0  0
  5 10  1  0  0  0  0
  5 21  1  0  0  0  0
  6  5  1  0  0  0  0
  7  8  1  6  0  0  0
  7 10  1  0  0  0  0
  9  3  1  0  0  0  0
 11 13  2  0  0  0  0
 12 11  1  6  0  0  0
 12  7  1  0  0  0  0
 14 16  1  0  0  0  0
 14  2  1  0  0  0  0
 16 17  1  0  0  0  0
 17 19  1  0  0  0  0
 18  2  1  1  0  0  0
 18  4  1  0  0  0  0
 18 20  1  0  0  0  0
 20 19  1  6  0  0  0
 20  1  1  0  0  0  0
 22 32  2  0  0  0  0
 23 31  1  0  0  0  0
 24 27  1  0  0  0  0
 26 25  1  6  0  0  0
 26 22  1  0  0  0  0
 27 25  1  0  0  0  0
 28 29  2  0  0  0  0
 29 23  1  0  0  0  0
 29 26  1  0  0  0  0
 30 33  1  1  0  0  0
 30 24  1  0  0  0  0
 30 28  1  0  0  0  0
 31 32  1  0  0  0  0
 31 21  1  6  0  0  0
 34 33  1  0  0  0  0
M  END
>  <MODEL>
2

>  <REMARK>
 VINA RESULT:      -7.8      2.406      4.985
  Name = 
  3 active torsions:
  status: ('A' for Active; 'I' for Inactive)
    1  A    between atoms: C_7  and  C_29
    2  A    between atoms: N_8  and  C_18
    3  A    between atoms: C_18  and  C_30
                            x       y       z     vdW  Elec       q    Type
                         _______ _______ _______ _____ _____    ______ ____

>  <TORSDO>
F 3

$$$$
=
 OpenBabel11052420353D

 34 38  0  0  1  0  0  0  0  0999 V2000
  188.6050  175.5540  144.1770 C   0  0  1  0  0  3  0  0  0  0  0  0
  188.7920  174.2640  140.5120 C   0  0  0  0  0  2  0  0  0  0  0  0
  191.2650  171.8770  140.4180 C   0  0  0  0  0  0  0  0  0  0  0  0
  187.8090  176.2350  141.5170 N   0  0  0  0  0  2  0  0  0  0  0  0
  190.7560  176.0770  145.2720 N   0  0  0  0  0  0  0  0  0  0  0  0
  189.4640  175.4080  145.4400 C   0  0  0  0  0  2  0  0  0  0  0  0
  189.7840  177.8020  143.8220 C   0  0  2  0  0  3  0  0  0  0  0  0
  190.5650  177.4430  142.7200 O   0  0  0  0  0  1  0  0  0  0  0  0
  191.0630  171.6670  139.0230 N   0  0  0  0  0  1  0  0  0  0  0  0
  190.5500  177.5180  145.1110 C   0  0  0  0  0  2  0  0  0  0  0  0
  187.6990  177.2240  142.5420 C   0  0  0  0  0  0  0  0  0  0  0  0
  188.4430  177.0440  143.8290 C   0  0  1  0  0  3  0  0  0  0  0  0
  187.1660  178.3670  142.2680 N   0  0  0  0  0  2  0  0  0  0  0  0
  188.9350  172.7540  140.6100 C   0  0  0  0  0  2  0  0  0  0  0  0
  192.3820  171.5910  140.9270 O   0  0  0  0  0  0  0  0  0  0  0  0
  190.2100  172.4080  141.2350 N   0  0  0  0  0  0  0  0  0  0  0  0
  190.4600  172.6190  142.6660 C   0  0  0  0  0  2  0  0  0  0  0  0
  188.1950  174.8520  141.7850 C   0  0  2  0  0  3  0  0  0  0  0  0
  189.2920  173.2750  143.3950 C   0  0  0  0  0  2  0  0  0  0  0  0
  189.1530  174.7410  142.9890 C   0  0  2  0  0  3  0  0  0  0  0  0
  191.6210  175.8090  146.4310 C   0  0  0  0  0  2  0  0  0  0  0  0
  195.3400  175.1440  146.1090 N   0  0  0  0  0  2  0  0  0  0  0  0
  192.8900  173.7870  145.4470 C   0  0  0  0  0  2  0  0  0  0  0  0
  196.4090  171.3420  144.1510 C   0  0  0  0  0  2  0  0  0  0  0  0
  196.7040  173.1650  145.9270 C   0  0  0  0  0  2  0  0  0  0  0  0
  195.4880  173.8930  145.3740 C   0  0  1  0  0  3  0  0  0  0  0  0
  197.3730  172.2890  144.8730 C   0  0  0  0  0  2  0  0  0  0  0  0
  194.1470  171.7400  145.2240 C   0  0  0  0  0  3  0  0  0  0  0  0
  194.2100  173.0690  145.4420 C   0  0  0  0  0  0  0  0  0  0  0  0
  195.2910  170.7790  145.0360 C   0  0  2  0  0  3  0  0  0  0  0  0
  192.9280  175.1430  146.0940 C   0  0  0  0  0  0  0  0  0  0  0  0
  194.0770  175.7490  146.3930 C   0  0  0  0  0  3  0  0  0  0  0  0
  195.7750  170.2050  146.3630 C   0  0  0  0  0  2  0  0  0  0  0  0
  194.7750  169.4190  146.9360 O   0  0  0  0  0  1  0  0  0  0  0  0
  1  6  1  1  0  0  0
  2 14  1  0  0  0  0
  3 15  2  0  0  0  0
  3 16  1  0  0  0  0
  4 18  1  0  0  0  0
  4 11  1  0  0  0  0
  5  6  1  0  0  0  0
  5 21  1  0  0  0  0
  7  8  1  6  0  0  0
  7 12  1  0  0  0  0
  7 10  1  0  0  0  0
  9  3  1  0  0  0  0
 10  5  1  0  0  0  0
 12 11  1  6  0  0  0
 12  1  1  0  0  0  0
 13 11  2  0  0  0  0
 14 16  1  0  0  0  0
 16 17  1  0  0  0  0
 17 19  1  0  0  0  0
 18  2  1  6  0  0  0
 18 20  1  0  0  0  0
 20 19  1  1  0  0  0
 20  1  1  0  0  0  0
 22 32  1  0  0  0  0
 23 31  1  0  0  0  0
 24 27  1  0  0  0  0
 24 30  1  0  0  0  0
 26 29  1  0  0  0  0
 26 25  1  1  0  0  0
 26 22  1  0  0  0  0
 27 25  1  0  0  0  0
 28 29  2  0  0  0  0
 29 23  1  0  0  0  0
 30 28  1  0  0  0  0
 30 33  1  1  0  0  0
 31 32  2  0  0  0  0
 31 21  1  0  0  0  0
 33 34  1  0  0  0  0
M  END
>  <MODEL>
3

>  <REMARK>
 VINA RESULT:      -7.8      2.774      8.553
  Name = 
  3 active torsions:
  status: ('A' for Active; 'I' for Inactive)
    1  A    between atoms: C_7  and  C_29
    2  A    between atoms: N_8  and  C_18
    3  A    between atoms: C_18  and  C_30
                            x       y       z     vdW  Elec       q    Type
                         _______ _______ _______ _____ _____    ______ ____

>  <TORSDO>
F 3

$$$$
=
 OpenBabel11052420353D

 34 38  0  0  1  0  0  0  0  0999 V2000
  193.1300  175.8840  144.0150 C   0  0  1  0  0  3  0  0  0  0  0  0
  193.9210  173.4460  141.0890 C   0  0  0  0  0  2  0  0  0  0  0  0
  190.9100  172.2250  139.9650 C   0  0  0  0  0  0  0  0  0  0  0  0
  195.2770  174.3960  142.8550 N   0  0  0  0  0  2  0  0  0  0  0  0
  191.5030  175.0940  145.6980 N   0  0  0  0  0  0  0  0  0  0  0  0
  191.8930  176.2280  144.8570 C   0  0  0  0  0  2  0  0  0  0  0  0
  193.8300  174.3550  145.9490 C   0  0  2  0  0  3  0  0  0  0  0  0
  193.6020  173.1270  145.3220 O   0  0  0  0  0  1  0  0  0  0  0  0
  191.5580  171.4210  138.9820 N   0  0  0  0  0  1  0  0  0  0  0  0
  192.5630  174.8100  146.6680 C   0  0  0  0  0  2  0  0  0  0  0  0
  195.4650  174.9810  144.1450 C   0  0  0  0  0  0  0  0  0  0  0  0
  194.2740  175.4280  144.9370 C   0  0  1  0  0  3  0  0  0  0  0  0
  196.6180  174.9020  144.7180 N   0  0  0  0  0  2  0  0  0  0  0  0
  192.8910  173.7440  140.0110 C   0  0  0  0  0  2  0  0  0  0  0  0
  189.7640  171.8930  140.3710 O   0  0  0  0  0  0  0  0  0  0  0  0
  191.5520  173.4000  140.4840 N   0  0  0  0  0  0  0  0  0  0  0  0
  190.8560  174.1970  141.5010 C   0  0  0  0  0  2  0  0  0  0  0  0
  194.0830  174.6220  142.0460 C   0  0  2  0  0  3  0  0  0  0  0  0
  191.6870  175.3580  142.0360 C   0  0  0  0  0  2  0  0  0  0  0  0
  192.8290  174.8500  142.9140 C   0  0  2  0  0  3  0  0  0  0  0  0
  190.2400  175.3870  146.3910 C   0  0  0  0  0  2  0  0  0  0  0  0
  187.8050  176.0210  143.5540 N   0  0  0  0  0  0  0  0  0  0  0  0
  188.5800  177.3260  145.9990 C   0  0  0  0  0  2  0  0  0  0  0  0
  185.4860  179.7570  143.8630 C   0  0  0  0  0  2  0  0  0  0  0  0
  185.7560  177.2690  143.3180 C   0  0  0  0  0  2  0  0  0  0  0  0
  187.1990  177.3260  143.7940 C   0  0  1  0  0  3  0  0  0  0  0  0
  185.2530  178.6310  142.8510 C   0  0  0  0  0  2  0  0  0  0  0  0
  186.5640  178.6450  145.8700 C   0  0  0  0  0  3  0  0  0  0  0  0
  187.3370  177.7270  145.2550 C   0  0  0  0  0  0  0  0  0  0  0  0
  185.3390  179.3340  145.3280 C   0  0  2  0  0  3  0  0  0  0  0  0
  189.1900  176.0350  145.5280 C   0  0  2  0  0  3  0  0  0  0  0  0
  188.8110  175.4500  144.3920 C   0  0  0  0  0  3  0  0  0  0  0  0
  184.0670  178.5470  145.6260 C   0  0  0  0  0  2  0  0  0  0  0  0
  184.2150  177.8340  146.8160 O   0  0  0  0  0  1  0  0  0  0  0  0
  1  6  1  1  0  0  0
  1 12  1  0  0  0  0
  3 15  2  0  0  0  0
  3 16  1  0  0  0  0
  4 11  1  0  0  0  0
  5 21  1  0  0  0  0
  5 10  1  0  0  0  0
  6  5  1  0  0  0  0
  7  8  1  6  0  0  0
  7 10  1  0  0  0  0
  9  3  1  0  0  0  0
 11 13  2  0  0  0  0
 12 11  1  6  0  0  0
 12  7  1  0  0  0  0
 14 16  1  0  0  0  0
 14  2  1  0  0  0  0
 16 17  1  0  0  0  0
 17 19  1  0  0  0  0
 18  2  1  6  0  0  0
 18  4  1  0  0  0  0
 18 20  1  0  0  0  0
 20 19  1  6  0  0  0
 20  1  1  0  0  0  0
 22 26  1  0  0  0  0
 22 32  2  0  0  0  0
 24 30  1  0  0  0  0
 26 25  1  1  0  0  0
 26 29  1  0  0  0  0
 27 25  1  0  0  0  0
 27 24  1  0  0  0  0
 29 28  2  0  0  0  0
 29 23  1  0  0  0  0
 30 33  1  6  0  0  0
 30 28  1  0  0  0  0
 31 23  1  0  0  0  0
 31 21  1  1  0  0  0
 32 31  1  0  0  0  0
 33 34  1  0  0  0  0
M  END
>  <MODEL>
4

>  <REMARK>
 VINA RESULT:      -7.8      2.102      4.723
  Name = 
  3 active torsions:
  status: ('A' for Active; 'I' for Inactive)
    1  A    between atoms: C_7  and  C_29
    2  A    between atoms: N_8  and  C_18
    3  A    between atoms: C_18  and  C_30
                            x       y       z     vdW  Elec       q    Type
                         _______ _______ _______ _____ _____    ______ ____

>  <TORSDO>
F 3

$$$$
=
 OpenBabel11052420353D

 34 38  0  0  1  0  0  0  0  0999 V2000
  193.5440  174.4880  143.8130 C   0  0  1  0  0  3  0  0  0  0  0  0
  196.7490  172.5450  144.8530 C   0  0  0  0  0  2  0  0  0  0  0  0
  195.7100  169.7050  146.4870 C   0  0  0  0  0  0  0  0  0  0  0  0
  196.3620  174.8310  144.1540 N   0  0  0  0  0  2  0  0  0  0  0  0
  191.7910  174.7250  145.5370 N   0  0  0  0  0  0  0  0  0  0  0  0
  192.0460  174.3920  144.1330 C   0  0  0  0  0  2  0  0  0  0  0  0
  193.6500  176.3270  145.5950 C   0  0  2  0  0  3  0  0  0  0  0  0
  194.3510  175.6140  146.5730 O   0  0  0  0  0  1  0  0  0  0  0  0
  197.0560  169.2940  146.7100 N   0  0  0  0  0  1  0  0  0  0  0  0
  192.1490  176.1230  145.7870 C   0  0  0  0  0  2  0  0  0  0  0  0
  195.5450  175.9890  143.9780 C   0  0  0  0  0  0  0  0  0  0  0  0
  194.0640  175.8900  144.1770 C   0  0  1  0  0  3  0  0  0  0  0  0
  196.0990  177.1510  143.8910 N   0  0  0  0  0  2  0  0  0  0  0  0
  196.4660  171.0840  144.5480 C   0  0  0  0  0  2  0  0  0  0  0  0
  194.8030  169.2820  147.2540 O   0  0  0  0  0  0  0  0  0  0  0  0
  195.3890  170.5890  145.4030 N   0  0  0  0  0  0  0  0  0  0  0  0
  193.9920  170.9980  145.2110 C   0  0  0  0  0  2  0  0  0  0  0  0
  195.8430  173.4700  144.0470 C   0  0  2  0  0  3  0  0  0  0  0  0
  193.8050  172.0120  144.0880 C   0  0  0  0  0  2  0  0  0  0  0  0
  194.3680  173.3740  144.4860 C   0  0  2  0  0  3  0  0  0  0  0  0
  190.3770  174.4920  145.8640 C   0  0  0  0  0  2  0  0  0  0  0  0
  188.1360  175.9360  143.1680 N   0  0  0  0  0  0  0  0  0  0  0  0
  188.8490  176.5730  145.8830 C   0  0  0  0  0  2  0  0  0  0  0  0
  186.0110  179.6380  144.2710 C   0  0  0  0  0  2  0  0  0  0  0  0
  186.1730  177.3360  143.1580 C   0  0  0  0  0  2  0  0  0  0  0  0
  187.5900  177.1850  143.6890 C   0  0  1  0  0  3  0  0  0  0  0  0
  185.7710  178.8000  143.0110 C   0  0  0  0  0  2  0  0  0  0  0  0
  186.9170  178.0150  145.9940 C   0  0  0  0  0  3  0  0  0  0  0  0
  187.6700  177.2190  145.2090 C   0  0  0  0  0  0  0  0  0  0  0  0
  185.7620  178.8910  145.5860 C   0  0  2  0  0  3  0  0  0  0  0  0
  189.4120  175.3930  145.1410 C   0  0  2  0  0  3  0  0  0  0  0  0
  189.0630  175.1180  143.8850 C   0  0  0  0  0  3  0  0  0  0  0  0
  184.4350  178.1410  145.6360 C   0  0  0  0  0  2  0  0  0  0  0  0
  184.5260  177.0720  146.5280 O   0  0  0  0  0  1  0  0  0  0  0  0
  1  6  1  1  0  0  0
  1 12  1  0  0  0  0
  1 20  1  0  0  0  0
  3  9  1  0  0  0  0
  3 15  2  0  0  0  0
  5 10  1  0  0  0  0
  5 21  1  0  0  0  0
  6  5  1  0  0  0  0
  7 10  1  0  0  0  0
  7  8  1  1  0  0  0
 11  4  1  0  0  0  0
 12 11  1  1  0  0  0
 12  7  1  0  0  0  0
 13 11  2  0  0  0  0
 14  2  1  0  0  0  0
 14 16  1  0  0  0  0
 16  3  1  0  0  0  0
 17 16  1  0  0  0  0
 18  4  1  0  0  0  0
 18 20  1  0  0  0  0
 18  2  1  1  0  0  0
 19 17  1  0  0  0  0
 20 19  1  6  0  0  0
 22 26  1  0  0  0  0
 22 32  2  0  0  0  0
 24 30  1  0  0  0  0
 26 25  1  1  0  0  0
 26 29  1  0  0  0  0
 27 25  1  0  0  0  0
 27 24  1  0  0  0  0
 29 23  1  0  0  0  0
 29 28  2  0  0  0  0
 30 33  1  6  0  0  0
 30 28  1  0  0  0  0
 31 21  1  1  0  0  0
 31 23  1  0  0  0  0
 32 31  1  0  0  0  0
 33 34  1  0  0  0  0
M  END
>  <MODEL>
5

>  <REMARK>
 VINA RESULT:      -7.7      2.875      4.626
  Name = 
  3 active torsions:
  status: ('A' for Active; 'I' for Inactive)
    1  A    between atoms: C_7  and  C_29
    2  A    between atoms: N_8  and  C_18
    3  A    between atoms: C_18  and  C_30
                            x       y       z     vdW  Elec       q    Type
                         _______ _______ _______ _____ _____    ______ ____

>  <TORSDO>
F 3

$$$$
=
 OpenBabel11052420353D

 34 38  0  0  1  0  0  0  0  0999 V2000
  193.8020  176.4500  143.7290 C   0  0  1  0  0  3  0  0  0  0  0  0
  194.0800  174.1560  140.6010 C   0  0  0  0  0  2  0  0  0  0  0  0
  191.2380  172.2240  140.5240 C   0  0  0  0  0  0  0  0  0  0  0  0
  195.7020  175.4630  141.8350 N   0  0  0  0  0  2  0  0  0  0  0  0
  193.0860  175.3660  145.8300 N   0  0  0  0  0  0  0  0  0  0  0  0
  192.8870  176.5280  144.9600 C   0  0  0  0  0  2  0  0  0  0  0  0
  195.4610  175.2020  145.2330 C   0  0  2  0  0  3  0  0  0  0  0  0
  195.3220  173.9310  144.6660 O   0  0  0  0  0  1  0  0  0  0  0  0
  191.6760  171.5570  139.3430 N   0  0  0  0  0  1  0  0  0  0  0  0
  194.4500  175.3750  146.3640 C   0  0  0  0  0  2  0  0  0  0  0  0
  196.1800  176.1240  143.0080 C   0  0  0  0  0  0  0  0  0  0  0  0
  195.2660  176.3100  144.1800 C   0  0  1  0  0  3  0  0  0  0  0  0
  197.4450  176.3380  143.1460 N   0  0  0  0  0  2  0  0  0  0  0  0
  192.7030  174.1640  139.9570 C   0  0  0  0  0  2  0  0  0  0  0  0
  190.4130  171.6480  141.2830 O   0  0  0  0  0  0  0  0  0  0  0  0
  191.7270  173.5340  140.8450 N   0  0  0  0  0  0  0  0  0  0  0  0
  191.2600  174.1850  142.0750 C   0  0  0  0  0  2  0  0  0  0  0  0
  194.2840  175.3730  141.4970 C   0  0  2  0  0  3  0  0  0  0  0  0
  191.9300  175.5270  142.3450 C   0  0  0  0  0  2  0  0  0  0  0  0
  193.3890  175.3340  142.7530 C   0  0  2  0  0  3  0  0  0  0  0  0
  192.1070  175.3820  146.9280 C   0  0  0  0  0  2  0  0  0  0  0  0
  188.9650  177.5040  146.8970 N   0  0  0  0  0  2  0  0  0  0  0  0
  190.0380  175.3020  145.3850 C   0  0  0  0  0  2  0  0  0  0  0  0
  185.9900  176.4160  143.8310 C   0  0  0  0  0  2  0  0  0  0  0  0
  187.3290  178.0950  145.2280 C   0  0  0  0  0  2  0  0  0  0  0  0
  188.0820  176.9450  145.8790 C   0  0  1  0  0  3  0  0  0  0  0  0
  185.9570  177.6650  144.7190 C   0  0  0  0  0  2  0  0  0  0  0  0
  188.4380  175.7880  143.6460 C   0  0  0  0  0  3  0  0  0  0  0  0
  188.8660  176.1000  144.8860 C   0  0  0  0  0  0  0  0  0  0  0  0
  187.2230  176.3130  142.9270 C   0  0  2  0  0  3  0  0  0  0  0  0
  190.7540  175.9250  146.5510 C   0  0  0  0  0  0  0  0  0  0  0  0
  190.2370  176.9450  147.2330 C   0  0  0  0  0  3  0  0  0  0  0  0
  187.5310  177.5850  142.1450 C   0  0  0  0  0  2  0  0  0  0  0  0
  188.9110  177.7700  142.0590 O   0  0  0  0  0  1  0  0  0  0  0  0
  1 12  1  0  0  0  0
  1  6  1  1  0  0  0
  3 16  1  0  0  0  0
  3 15  2  0  0  0  0
  4 11  1  0  0  0  0
  5 10  1  0  0  0  0
  5 21  1  0  0  0  0
  6  5  1  0  0  0  0
  7  8  1  6  0  0  0
  7 10  1  0  0  0  0
  9  3  1  0  0  0  0
 11 13  2  0  0  0  0
 12 11  1  6  0  0  0
 12  7  1  0  0  0  0
 14  2  1  0  0  0  0
 14 16  1  0  0  0  0
 16 17  1  0  0  0  0
 17 19  1  0  0  0  0
 18  2  1  1  0  0  0
 18  4  1  0  0  0  0
 18 20  1  0  0  0  0
 20 19  1  6  0  0  0
 20  1  1  0  0  0  0
 22 32  1  0  0  0  0
 23 31  1  0  0  0  0
 24 27  1  0  0  0  0
 26 25  1  6  0  0  0
 26 22  1  0  0  0  0
 27 25  1  0  0  0  0
 28 29  2  0  0  0  0
 29 23  1  0  0  0  0
 29 26  1  0  0  0  0
 30 33  1  1  0  0  0
 30 28  1  0  0  0  0
 30 24  1  0  0  0  0
 31 21  1  0  0  0  0
 31 32  2  0  0  0  0
 34 33  1  0  0  0  0
M  END
>  <MODEL>
6

>  <REMARK>
 VINA RESULT:      -7.5      2.612      5.448
  Name = 
  3 active torsions:
  status: ('A' for Active; 'I' for Inactive)
    1  A    between atoms: C_7  and  C_29
    2  A    between atoms: N_8  and  C_18
    3  A    between atoms: C_18  and  C_30
                            x       y       z     vdW  Elec       q    Type
                         _______ _______ _______ _____ _____    ______ ____

>  <TORSDO>
F 3

$$$$
=
 OpenBabel11052420353D

 34 38  0  0  1  0  0  0  0  0999 V2000
  189.8820  171.6070  140.9540 C   0  0  1  0  0  3  0  0  0  0  0  0
  193.2760  170.9420  142.7340 C   0  0  0  0  0  2  0  0  0  0  0  0
  193.5070  173.1990  145.3170 C   0  0  0  0  0  0  0  0  0  0  0  0
  192.3990  170.3080  140.5680 N   0  0  0  0  0  2  0  0  0  0  0  0
  189.3310  173.9670  140.4780 N   0  0  0  0  0  0  0  0  0  0  0  0
  188.8090  172.7040  141.0040 C   0  0  0  0  0  2  0  0  0  0  0  0
  190.7970  172.8110  138.8840 C   0  0  2  0  0  3  0  0  0  0  0  0
  191.9670  173.3200  139.4540 O   0  0  0  0  0  1  0  0  0  0  0  0
  194.7860  172.6950  145.6940 N   0  0  0  0  0  1  0  0  0  0  0  0
  189.6600  173.8140  139.0580 C   0  0  0  0  0  2  0  0  0  0  0  0
  191.5320  170.4730  139.4450 C   0  0  0  0  0  0  0  0  0  0  0  0
  190.4070  171.4610  139.5150 C   0  0  1  0  0  3  0  0  0  0  0  0
  191.8600  169.9610  138.3070 N   0  0  0  0  0  2  0  0  0  0  0  0
  192.9840  171.0160  144.2240 C   0  0  0  0  0  2  0  0  0  0  0  0
  193.1960  174.3800  145.6290 O   0  0  0  0  0  0  0  0  0  0  0  0
  192.5840  172.3730  144.5930 N   0  0  0  0  0  0  0  0  0  0  0  0
  191.2790  172.9300  144.2140 C   0  0  0  0  0  2  0  0  0  0  0  0
  192.0100  170.6620  141.9310 C   0  0  2  0  0  3  0  0  0  0  0  0
  190.4370  171.9830  143.3670 C   0  0  0  0  0  2  0  0  0  0  0  0
  191.0210  171.8450  141.9630 C   0  0  2  0  0  3  0  0  0  0  0  0
  188.3430  175.0400  140.6610 C   0  0  0  0  0  2  0  0  0  0  0  0
  189.1230  176.0820  144.2230 N   0  0  0  0  0  2  0  0  0  0  0  0
  186.7820  175.8000  142.5730 C   0  0  0  0  0  2  0  0  0  0  0  0
  185.6200  177.1130  146.6920 C   0  0  0  0  0  2  0  0  0  0  0  0
  188.0240  177.4520  145.8740 C   0  0  0  0  0  2  0  0  0  0  0  0
  187.8470  176.3030  144.8930 C   0  0  1  0  0  3  0  0  0  0  0  0
  187.0890  177.3300  147.0720 C   0  0  0  0  0  2  0  0  0  0  0  0
  185.5690  177.1550  144.1590 C   0  0  0  0  0  3  0  0  0  0  0  0
  186.7370  176.5420  143.8800 C   0  0  0  0  0  0  0  0  0  0  0  0
  185.1750  177.8600  145.4300 C   0  0  2  0  0  3  0  0  0  0  0  0
  188.1710  175.4940  142.0870 C   0  0  0  0  0  0  0  0  0  0  0  0
  189.2390  175.6350  142.8700 C   0  0  0  0  0  3  0  0  0  0  0  0
  185.5640  179.3330  145.4070 C   0  0  0  0  0  2  0  0  0  0  0  0
  185.5740  179.8030  144.0930 O   0  0  0  0  0  1  0  0  0  0  0  0
  1  6  1  6  0  0  0
  1 20  1  0  0  0  0
  2 14  1  0  0  0  0
  3 15  2  0  0  0  0
  3  9  1  0  0  0  0
  4 18  1  0  0  0  0
  5 21  1  0  0  0  0
  5  6  1  0  0  0  0
  7 10  1  0  0  0  0
  7  8  1  1  0  0  0
  7 12  1  0  0  0  0
 10  5  1  0  0  0  0
 11  4  1  0  0  0  0
 12 11  1  1  0  0  0
 12  1  1  0  0  0  0
 13 11  2  0  0  0  0
 14 16  1  0  0  0  0
 16  3  1  0  0  0  0
 17 16  1  0  0  0  0
 18 20  1  0  0  0  0
 18  2  1  1  0  0  0
 19 17  1  0  0  0  0
 20 19  1  1  0  0  0
 21 31  1  0  0  0  0
 22 26  1  0  0  0  0
 23 29  1  0  0  0  0
 24 27  1  0  0  0  0
 25 27  1  0  0  0  0
 26 25  1  1  0  0  0
 28 30  1  0  0  0  0
 29 28  2  0  0  0  0
 29 26  1  0  0  0  0
 30 33  1  6  0  0  0
 30 24  1  0  0  0  0
 31 23  1  0  0  0  0
 31 32  2  0  0  0  0
 32 22  1  0  0  0  0
 34 33  1  0  0  0  0
M  END
>  <MODEL>
7

>  <REMARK>
 VINA RESULT:      -7.5      2.461      3.798
  Name = 
  3 active torsions:
  status: ('A' for Active; 'I' for Inactive)
    1  A    between atoms: C_7  and  C_29
    2  A    between atoms: N_8  and  C_18
    3  A    between atoms: C_18  and  C_30
                            x       y       z     vdW  Elec       q    Type
                         _______ _______ _______ _____ _____    ______ ____

>  <TORSDO>
F 3

$$$$
=
 OpenBabel11052420353D

 34 38  0  0  1  0  0  0  0  0999 V2000
  188.5410  175.2870  144.8150 C   0  0  1  0  0  3  0  0  0  0  0  0
  188.1540  175.2910  140.9450 C   0  0  0  0  0  2  0  0  0  0  0  0
  190.8200  173.5320  139.6730 C   0  0  0  0  0  0  0  0  0  0  0  0
  187.1660  176.6330  142.7010 N   0  0  0  0  0  2  0  0  0  0  0  0
  190.7910  175.8010  145.6980 N   0  0  0  0  0  0  0  0  0  0  0  0
  189.6430  174.8980  145.8110 C   0  0  0  0  0  2  0  0  0  0  0  0
  189.3590  177.7010  145.0920 C   0  0  2  0  0  3  0  0  0  0  0  0
  189.9460  177.8560  143.8320 O   0  0  0  0  0  1  0  0  0  0  0  0
  190.3740  173.7460  138.3360 N   0  0  0  0  0  1  0  0  0  0  0  0
  190.3910  177.1580  146.0780 C   0  0  0  0  0  2  0  0  0  0  0  0
  187.1450  177.2070  144.0090 C   0  0  0  0  0  0  0  0  0  0  0  0
  188.1430  176.7580  145.0320 C   0  0  1  0  0  3  0  0  0  0  0  0
  186.4400  178.2650  144.2280 N   0  0  0  0  0  2  0  0  0  0  0  0
  188.4880  173.8790  140.4930 C   0  0  0  0  0  2  0  0  0  0  0  0
  192.0400  173.2980  139.8820 O   0  0  0  0  0  0  0  0  0  0  0  0
  189.8920  173.5800  140.7670 N   0  0  0  0  0  0  0  0  0  0  0  0
  190.3910  173.3620  142.1300 C   0  0  0  0  0  2  0  0  0  0  0  0
  187.7550  175.3270  142.4160 C   0  0  2  0  0  3  0  0  0  0  0  0
  189.3220  173.5360  143.2030 C   0  0  0  0  0  2  0  0  0  0  0  0
  188.9370  175.0060  143.3530 C   0  0  2  0  0  3  0  0  0  0  0  0
  191.8910  175.3330  146.5540 C   0  0  0  0  0  2  0  0  0  0  0  0
  194.6390  173.3580  144.8430 N   0  0  0  0  0  0  0  0  0  0  0  0
  194.0390  176.1250  145.3610 C   0  0  0  0  0  2  0  0  0  0  0  0
  197.9410  175.7690  143.1950 C   0  0  0  0  0  2  0  0  0  0  0  0
  196.2590  173.8380  143.1240 C   0  0  0  0  0  2  0  0  0  0  0  0
  195.6650  174.3140  144.4400 C   0  0  1  0  0  3  0  0  0  0  0  0
  197.7130  174.2720  142.9630 C   0  0  0  0  0  2  0  0  0  0  0  0
  195.6450  176.7340  143.6660 C   0  0  0  0  0  3  0  0  0  0  0  0
  195.0940  175.7230  144.3680 C   0  0  0  0  0  0  0  0  0  0  0  0
  196.8010  176.6680  142.7030 C   0  0  2  0  0  3  0  0  0  0  0  0
  193.1580  174.9950  145.8140 C   0  0  2  0  0  3  0  0  0  0  0  0
  193.4570  173.7220  145.5590 C   0  0  0  0  0  3  0  0  0  0  0  0
  196.3400  176.3690  141.2810 C   0  0  0  0  0  2  0  0  0  0  0  0
  194.9650  176.5800  141.1720 O   0  0  0  0  0  1  0  0  0  0  0  0
  1 12  1  0  0  0  0
  1  6  1  1  0  0  0
  3 15  2  0  0  0  0
  3 16  1  0  0  0  0
  4 11  1  0  0  0  0
  5  6  1  0  0  0  0
  5 10  1  0  0  0  0
  5 21  1  0  0  0  0
  7  8  1  6  0  0  0
  7 10  1  0  0  0  0
  9  3  1  0  0  0  0
 11 13  2  0  0  0  0
 12 11  1  6  0  0  0
 12  7  1  0  0  0  0
 14 16  1  0  0  0  0
 14  2  1  0  0  0  0
 16 17  1  0  0  0  0
 17 19  1  0  0  0  0
 18  2  1  6  0  0  0
 18  4  1  0  0  0  0
 18 20  1  0  0  0  0
 20 19  1  1  0  0  0
 20  1  1  0  0  0  0
 22 32  2  0  0  0  0
 23 31  1  0  0  0  0
 26 25  1  6  0  0  0
 26 22  1  0  0  0  0
 27 25  1  0  0  0  0
 27 24  1  0  0  0  0
 28 29  2  0  0  0  0
 29 26  1  0  0  0  0
 29 23  1  0  0  0  0
 30 33  1  6  0  0  0
 30 24  1  0  0  0  0
 30 28  1  0  0  0  0
 31 21  1  6  0  0  0
 32 31  1  0  0  0  0
 34 33  1  0  0  0  0
M  END
>  <MODEL>
8

>  <REMARK>
 VINA RESULT:      -7.4      2.499      8.374
  Name = 
  3 active torsions:
  status: ('A' for Active; 'I' for Inactive)
    1  A    between atoms: C_7  and  C_29
    2  A    between atoms: N_8  and  C_18
    3  A    between atoms: C_18  and  C_30
                            x       y       z     vdW  Elec       q    Type
                         _______ _______ _______ _____ _____    ______ ____

>  <TORSDO>
F 3

$$$$
=
 OpenBabel11052420353D

 34 38  0  0  1  0  0  0  0  0999 V2000
  192.6640  176.3770  143.7230 C   0  0  1  0  0  3  0  0  0  0  0  0
  196.2390  175.0500  142.9550 C   0  0  0  0  0  2  0  0  0  0  0  0
  195.8790  172.4110  140.7820 C   0  0  0  0  0  0  0  0  0  0  0  0
  195.3490  176.4750  144.6990 N   0  0  0  0  0  2  0  0  0  0  0  0
  190.9470  174.6790  144.2430 N   0  0  0  0  0  0  0  0  0  0  0  0
  191.2310  175.8900  143.4680 C   0  0  0  0  0  2  0  0  0  0  0  0
  192.4170  175.3900  146.0760 C   0  0  2  0  0  3  0  0  0  0  0  0
  193.2810  174.3010  145.9240 O   0  0  0  0  0  1  0  0  0  0  0  0
  197.2880  172.1960  140.7470 N   0  0  0  0  0  1  0  0  0  0  0  0
  191.0010  174.9840  145.6750 C   0  0  0  0  0  2  0  0  0  0  0  0
  194.2970  176.9670  145.5310 C   0  0  0  0  0  0  0  0  0  0  0  0
  192.8780  176.5930  145.2320 C   0  0  1  0  0  3  0  0  0  0  0  0
  194.5860  177.5210  146.6600 N   0  0  0  0  0  2  0  0  0  0  0  0
  196.2690  174.7820  141.4600 C   0  0  0  0  0  2  0  0  0  0  0  0
  195.1060  171.4540  140.5080 O   0  0  0  0  0  0  0  0  0  0  0  0
  195.3470  173.7000  141.1220 N   0  0  0  0  0  0  0  0  0  0  0  0
  193.8900  173.8790  141.1560 C   0  0  0  0  0  2  0  0  0  0  0  0
  195.1340  176.0340  143.3230 C   0  0  2  0  0  3  0  0  0  0  0  0
  193.4590  175.2640  141.6250 C   0  0  0  0  0  2  0  0  0  0  0  0
  193.7260  175.4390  143.1180 C   0  0  2  0  0  3  0  0  0  0  0  0
  189.6250  174.1450  143.8830 C   0  0  0  0  0  2  0  0  0  0  0  0
  186.8060  176.0610  142.2200 N   0  0  0  0  0  0  0  0  0  0  0  0
  188.4200  176.3170  144.5900 C   0  0  0  0  0  2  0  0  0  0  0  0
  185.5650  179.7520  144.2850 C   0  0  0  0  0  2  0  0  0  0  0  0
  185.1090  177.5930  142.9850 C   0  0  0  0  0  2  0  0  0  0  0  0
  186.5960  177.2750  143.0000 C   0  0  1  0  0  3  0  0  0  0  0  0
  184.8430  179.0900  143.1070 C   0  0  0  0  0  2  0  0  0  0  0  0
  186.7960  177.8740  145.4610 C   0  0  0  0  0  3  0  0  0  0  0  0
  187.1650  177.1230  144.4040 C   0  0  0  0  0  0  0  0  0  0  0  0
  185.6730  178.8750  145.5370 C   0  0  2  0  0  3  0  0  0  0  0  0
  188.5820  175.1950  143.6030 C   0  0  2  0  0  3  0  0  0  0  0  0
  187.8200  175.0970  142.5140 C   0  0  0  0  0  3  0  0  0  0  0  0
  184.3610  178.2250  145.9590 C   0  0  0  0  0  2  0  0  0  0  0  0
  184.6060  177.2150  146.8890 O   0  0  0  0  0  1  0  0  0  0  0  0
  1  6  1  1  0  0  0
  1 12  1  0  0  0  0
  3 16  1  0  0  0  0
  4 11  1  0  0  0  0
  5 10  1  0  0  0  0
  6  5  1  0  0  0  0
  7  8  1  6  0  0  0
  9  3  1  0  0  0  0
 10  7  1  0  0  0  0
 11 13  2  0  0  0  0
 12 11  1  6  0  0  0
 12  7  1  0  0  0  0
 14  2  1  0  0  0  0
 15  3  2  0  0  0  0
 16 17  1  0  0  0  0
 16 14  1  0  0  0  0
 17 19  1  0  0  0  0
 18  2  1  1  0  0  0
 18  4  1  0  0  0  0
 20 19  1  6  0  0  0
 20 18  1  0  0  0  0
 20  1  1  0  0  0  0
 21  5  1  0  0  0  0
 22 32  2  0  0  0  0
 22 26  1  0  0  0  0
 24 30  1  0  0  0  0
 25 27  1  0  0  0  0
 26 25  1  1  0  0  0
 26 29  1  0  0  0  0
 27 24  1  0  0  0  0
 28 30  1  0  0  0  0
 29 23  1  0  0  0  0
 29 28  2  0  0  0  0
 30 33  1  6  0  0  0
 31 21  1  1  0  0  0
 31 23  1  0  0  0  0
 32 31  1  0  0  0  0
 33 34  1  0  0  0  0
M  END
>  <MODEL>
9

>  <REMARK>
 VINA RESULT:      -7.2      2.312      4.810
  Name = 
  3 active torsions:
  status: ('A' for Active; 'I' for Inactive)
    1  A    between atoms: C_7  and  C_29
    2  A    between atoms: N_8  and  C_18
    3  A    between atoms: C_18  and  C_30
                            x       y       z     vdW  Elec       q    Type
                         _______ _______ _______ _____ _____    ______ ____

>  <TORSDO>
F 3

$$$$
