=
 OpenBabel11052418113D

 28 32  0  0  1  0  0  0  0  0999 V2000
  192.7820  176.2210  143.8510 N   0  0  0  0  0  0  0  0  0  0  0  0
  188.0670  177.3990  146.1240 C   0  0  0  0  0  3  0  0  0  0  0  0
  189.6890  174.5460  140.9150 O   0  0  0  0  0  0  0  0  0  0  0  0
  186.5660  176.7570  144.3240 C   0  0  0  0  0  0  0  0  0  0  0  0
  189.0390  176.2040  144.1250 C   0  0  2  0  0  3  0  0  0  0  0  0
  185.7000  177.8590  146.3040 C   0  0  0  0  0  0  0  0  0  0  0  0
  187.8780  176.8460  144.8490 C   0  0  0  0  0  0  0  0  0  0  0  0
  187.4100  175.2670  142.4720 C   0  0  0  0  0  2  0  0  0  0  0  0
  185.4920  177.2840  145.0480 C   0  0  0  0  0  3  0  0  0  0  0  0
  191.2250  175.4610  142.4810 C   0  0  0  0  0  0  0  0  0  0  0  0
  190.3790  176.9360  144.3480 C   0  0  0  0  0  2  0  0  0  0  0  0
  186.2940  176.1880  142.9570 C   0  0  0  0  0  2  0  0  0  0  0  0
  192.4700  175.0060  142.0900 C   0  0  0  0  0  0  0  0  0  0  0  0
  189.8780  175.2470  141.9460 C   0  0  0  0  0  0  0  0  0  0  0  0
  192.7710  174.1260  140.9280 C   0  0  0  0  0  1  0  0  0  0  0  0
  184.3460  178.5080  147.2020 Cl  0  0  0  0  0  0  0  0  0  0  0  0
  186.9850  177.9120  146.8440 C   0  0  0  0  0  3  0  0  0  0  0  0
  188.7440  175.9850  142.6200 C   0  0  2  0  0  3  0  0  0  0  0  0
  193.4060  175.4810  142.9410 N   0  0  0  0  0  0  0  0  0  0  0  0
  191.4590  176.2130  143.6000 C   0  0  0  0  0  0  0  0  0  0  0  0
  193.4520  176.8750  144.9680 C   0  0  0  0  0  2  0  0  0  0  0  0
  193.2780  176.0910  146.2710 C   0  0  2  0  0  3  0  0  0  0  0  0
  190.7900  175.1390  147.3810 C   0  0  0  0  0  0  0  0  0  0  0  0
  192.7460  174.7000  146.0050 C   0  0  0  0  0  3  0  0  0  0  0  0
  192.4790  176.8840  147.2810 C   0  0  0  0  0  3  0  0  0  0  0  0
  191.3200  176.4490  147.7770 C   0  0  0  0  0  3  0  0  0  0  0  0
  189.6720  174.7520  147.8100 O   0  0  0  0  0  0  0  0  0  0  0  0
  191.5860  174.2700  146.5060 C   0  0  0  0  0  3  0  0  0  0  0  0
  1 21  1  0  0  0  0
  2 17  1  0  0  0  0
  3 14  2  0  0  0  0
  4  7  1  0  0  0  0
  4  9  2  0  0  0  0
  5 11  1  6  0  0  0
  5  7  1  0  0  0  0
  6 17  2  0  0  0  0
  6 16  1  0  0  0  0
  7  2  2  0  0  0  0
  8 12  1  0  0  0  0
  9  6  1  0  0  0  0
 10 20  2  0  0  0  0
 12  4  1  0  0  0  0
 13 10  1  0  0  0  0
 13 19  2  0  0  0  0
 14 10  1  0  0  0  0
 14 18  1  0  0  0  0
 15 13  1  0  0  0  0
 18  8  1  1  0  0  0
 18  5  1  0  0  0  0
 19  1  1  0  0  0  0
 20  1  1  0  0  0  0
 20 11  1  0  0  0  0
 22 21  1  6  0  0  0
 22 25  1  0  0  0  0
 23 26  1  0  0  0  0
 23 27  2  0  0  0  0
 24 22  1  0  0  0  0
 24 28  2  0  0  0  0
 25 26  2  0  0  0  0
 28 23  1  0  0  0  0
M  END
>  <MODEL>
1

>  <REMARK>
 VINA RESULT:      -7.9      0.000      0.000
  Name = 
  2 active torsions:
  status: ('A' for Active; 'I' for Inactive)
    1  A    between atoms: N_1  and  C_2
    2  A    between atoms: C_2  and  C_3
                            x       y       z     vdW  Elec       q    Type
                         _______ _______ _______ _____ _____    ______ ____

>  <TORSDO>
F 2

$$$$
=
 OpenBabel11052418113D

 28 32  0  0  1  0  0  0  0  0999 V2000
  192.7490  176.1340  143.8890 N   0  0  0  0  0  0  0  0  0  0  0  0
  188.0920  177.3260  146.2710 C   0  0  0  0  0  3  0  0  0  0  0  0
  189.5820  174.6130  140.9490 O   0  0  0  0  0  0  0  0  0  0  0  0
  186.5530  176.7700  144.4750 C   0  0  0  0  0  0  0  0  0  0  0  0
  189.0110  176.1780  144.2210 C   0  0  2  0  0  3  0  0  0  0  0  0
  185.7370  177.8230  146.5030 C   0  0  0  0  0  0  0  0  0  0  0  0
  187.8740  176.8180  144.9830 C   0  0  0  0  0  0  0  0  0  0  0  0
  187.3410  175.3250  142.5640 C   0  0  0  0  0  2  0  0  0  0  0  0
  185.4990  177.2920  145.2330 C   0  0  0  0  0  3  0  0  0  0  0  0
  191.1580  175.4490  142.5200 C   0  0  0  0  0  0  0  0  0  0  0  0
  190.3680  176.8770  144.4460 C   0  0  0  0  0  2  0  0  0  0  0  0
  186.2490  176.2500  143.0960 C   0  0  0  0  0  2  0  0  0  0  0  0
  192.3880  174.9840  142.0950 C   0  0  0  0  0  0  0  0  0  0  0  0
  189.7990  175.2770  141.9990 C   0  0  0  0  0  0  0  0  0  0  0  0
  192.6550  174.1360  140.9020 C   0  0  0  0  0  1  0  0  0  0  0  0
  184.4090  178.4680  147.4420 Cl  0  0  0  0  0  0  0  0  0  0  0  0
  187.0310  177.8350  147.0240 C   0  0  0  0  0  3  0  0  0  0  0  0
  188.6890  176.0130  142.7140 C   0  0  2  0  0  3  0  0  0  0  0  0
  193.3460  175.4130  142.9460 N   0  0  0  0  0  0  0  0  0  0  0  0
  191.4230  176.1600  143.6590 C   0  0  0  0  0  0  0  0  0  0  0  0
  193.4490  176.7390  145.0160 C   0  0  0  0  0  2  0  0  0  0  0  0
  193.8910  175.6900  146.0380 C   0  0  2  0  0  3  0  0  0  0  0  0
  194.6880  172.9740  145.4740 C   0  0  0  0  0  0  0  0  0  0  0  0
  195.3350  175.2910  145.8230 C   0  0  0  0  0  3  0  0  0  0  0  0
  192.9230  174.5290  146.0810 C   0  0  0  0  0  3  0  0  0  0  0  0
  193.2900  173.2780  145.8010 C   0  0  0  0  0  3  0  0  0  0  0  0
  195.0240  171.8030  145.1590 O   0  0  0  0  0  0  0  0  0  0  0  0
  195.6970  174.0370  145.5440 C   0  0  0  0  0  3  0  0  0  0  0  0
  1 21  1  0  0  0  0
  2 17  1  0  0  0  0
  3 14  2  0  0  0  0
  4  7  1  0  0  0  0
  4  9  2  0  0  0  0
  5 11  1  6  0  0  0
  5  7  1  0  0  0  0
  6 17  2  0  0  0  0
  6 16  1  0  0  0  0
  7  2  2  0  0  0  0
  8 12  1  0  0  0  0
  9  6  1  0  0  0  0
 10 20  2  0  0  0  0
 12  4  1  0  0  0  0
 13 10  1  0  0  0  0
 13 19  2  0  0  0  0
 14 10  1  0  0  0  0
 14 18  1  0  0  0  0
 15 13  1  0  0  0  0
 18  8  1  1  0  0  0
 18  5  1  0  0  0  0
 19  1  1  0  0  0  0
 20  1  1  0  0  0  0
 20 11  1  0  0  0  0
 22 21  1  6  0  0  0
 22 25  1  0  0  0  0
 23 28  1  0  0  0  0
 23 26  1  0  0  0  0
 24 22  1  0  0  0  0
 26 25  2  0  0  0  0
 27 23  2  0  0  0  0
 28 24  2  0  0  0  0
M  END
>  <MODEL>
2

>  <REMARK>
 VINA RESULT:      -7.8      1.573      2.061
  Name = 
  2 active torsions:
  status: ('A' for Active; 'I' for Inactive)
    1  A    between atoms: N_1  and  C_2
    2  A    between atoms: C_2  and  C_3
                            x       y       z     vdW  Elec       q    Type
                         _______ _______ _______ _____ _____    ______ ____

>  <TORSDO>
F 2

$$$$
=
 OpenBabel11052418113D

 28 32  0  0  1  0  0  0  0  0999 V2000
  191.0610  176.1390  144.0940 N   0  0  0  0  0  0  0  0  0  0  0  0
  186.4910  177.6780  141.7420 C   0  0  0  0  0  3  0  0  0  0  0  0
  188.3940  177.4200  147.5910 O   0  0  0  0  0  0  0  0  0  0  0  0
  185.1000  178.0030  143.7080 C   0  0  0  0  0  0  0  0  0  0  0  0
  187.5820  177.5450  144.0130 C   0  0  2  0  0  3  0  0  0  0  0  0
  184.1370  178.1720  141.4880 C   0  0  0  0  0  0  0  0  0  0  0  0
  186.3590  177.6930  143.1380 C   0  0  0  0  0  0  0  0  0  0  0  0
  186.1840  178.2230  145.9750 C   0  0  0  0  0  2  0  0  0  0  0  0
  183.9970  178.2190  142.8780 C   0  0  0  0  0  3  0  0  0  0  0  0
  189.7030  176.7570  145.7220 C   0  0  0  0  0  0  0  0  0  0  0  0
  188.6240  176.5570  143.4480 C   0  0  0  0  0  2  0  0  0  0  0  0
  184.8860  178.0220  145.1980 C   0  0  0  0  0  2  0  0  0  0  0  0
  190.9780  176.5570  146.2130 C   0  0  0  0  0  0  0  0  0  0  0  0
  188.4510  177.1810  146.3550 C   0  0  0  0  0  0  0  0  0  0  0  0
  191.4260  176.7280  147.6220 C   0  0  0  0  0  1  0  0  0  0  0  0
  182.7490  178.4500  140.4610 Cl  0  0  0  0  0  0  0  0  0  0  0  0
  185.3840  177.9070  140.9210 C   0  0  0  0  0  3  0  0  0  0  0  0
  187.2160  177.2190  145.4830 C   0  0  2  0  0  3  0  0  0  0  0  0
  191.7920  176.1820  145.2020 N   0  0  0  0  0  0  0  0  0  0  0  0
  189.7950  176.4950  144.3810 C   0  0  0  0  0  0  0  0  0  0  0  0
  191.5950  175.8110  142.7770 C   0  0  0  0  0  2  0  0  0  0  0  0
  191.3840  174.3350  142.4320 C   0  0  2  0  0  3  0  0  0  0  0  0
  188.8690  172.9200  142.4120 C   0  0  0  0  0  0  0  0  0  0  0  0
  190.5450  174.1800  141.1830 C   0  0  0  0  0  3  0  0  0  0  0  0
  190.8710  173.5640  143.6280 C   0  0  0  0  0  3  0  0  0  0  0  0
  189.6990  172.9270  143.6210 C   0  0  0  0  0  3  0  0  0  0  0  0
  187.7400  172.3640  142.4220 O   0  0  0  0  0  0  0  0  0  0  0  0
  189.3740  173.5410  141.1820 C   0  0  0  0  0  3  0  0  0  0  0  0
  1 20  1  0  0  0  0
  1 19  1  0  0  0  0
  2  7  1  0  0  0  0
  4 12  1  0  0  0  0
  5 11  1  6  0  0  0
  5 18  1  0  0  0  0
  6  9  2  0  0  0  0
  7  4  2  0  0  0  0
  7  5  1  0  0  0  0
  9  4  1  0  0  0  0
 10 13  1  0  0  0  0
 10 14  1  0  0  0  0
 11 20  1  0  0  0  0
 12  8  1  0  0  0  0
 13 15  1  0  0  0  0
 14  3  2  0  0  0  0
 16  6  1  0  0  0  0
 17  6  1  0  0  0  0
 17  2  2  0  0  0  0
 18  8  1  1  0  0  0
 18 14  1  0  0  0  0
 19 13  2  0  0  0  0
 20 10  2  0  0  0  0
 21  1  1  0  0  0  0
 22 21  1  1  0  0  0
 22 25  1  0  0  0  0
 23 27  2  0  0  0  0
 23 26  1  0  0  0  0
 24 22  1  0  0  0  0
 26 25  2  0  0  0  0
 28 24  2  0  0  0  0
 28 23  1  0  0  0  0
M  END
>  <MODEL>
3

>  <REMARK>
 VINA RESULT:      -7.8      2.285      4.674
  Name = 
  2 active torsions:
  status: ('A' for Active; 'I' for Inactive)
    1  A    between atoms: N_1  and  C_2
    2  A    between atoms: C_2  and  C_3
                            x       y       z     vdW  Elec       q    Type
                         _______ _______ _______ _____ _____    ______ ____

>  <TORSDO>
F 2

$$$$
=
 OpenBabel11052418113D

 28 32  0  0  1  0  0  0  0  0999 V2000
  192.5070  174.4560  144.8690 N   0  0  0  0  0  0  0  0  0  0  0  0
  187.8860  176.6520  146.4830 C   0  0  0  0  0  3  0  0  0  0  0  0
  189.8440  174.2920  141.1460 O   0  0  0  0  0  0  0  0  0  0  0  0
  186.7250  176.7920  144.3530 C   0  0  0  0  0  0  0  0  0  0  0  0
  188.9370  175.5450  144.4750 C   0  0  2  0  0  3  0  0  0  0  0  0
  185.7510  177.7820  146.3420 C   0  0  0  0  0  0  0  0  0  0  0  0
  187.8550  176.3910  145.1060 C   0  0  0  0  0  0  0  0  0  0  0  0
  187.5440  175.4230  142.3990 C   0  0  0  0  0  2  0  0  0  0  0  0
  185.6930  177.5020  144.9750 C   0  0  0  0  0  3  0  0  0  0  0  0
  191.1640  174.4350  143.1170 C   0  0  0  0  0  0  0  0  0  0  0  0
  190.3350  175.7870  145.0810 C   0  0  0  0  0  2  0  0  0  0  0  0
  186.6340  176.5540  142.8690 C   0  0  0  0  0  2  0  0  0  0  0  0
  192.2970  173.6880  142.8600 C   0  0  0  0  0  0  0  0  0  0  0  0
  189.9700  174.7310  142.3210 C   0  0  0  0  0  0  0  0  0  0  0  0
  192.6120  172.9500  141.6060 C   0  0  0  0  0  1  0  0  0  0  0  0
  184.4510  178.6660  147.1080 Cl  0  0  0  0  0  0  0  0  0  0  0  0
  186.8440  177.3530  147.0970 C   0  0  0  0  0  3  0  0  0  0  0  0
  188.9500  175.6660  142.9300 C   0  0  2  0  0  3  0  0  0  0  0  0
  193.1030  173.7130  143.9440 N   0  0  0  0  0  0  0  0  0  0  0  0
  191.3250  174.8940  144.3960 C   0  0  0  0  0  0  0  0  0  0  0  0
  193.0510  174.6900  146.2020 C   0  0  0  0  0  2  0  0  0  0  0  0
  194.3630  175.4750  146.1490 C   0  0  2  0  0  3  0  0  0  0  0  0
  196.2260  175.5560  143.9460 C   0  0  0  0  0  0  0  0  0  0  0  0
  194.3170  176.5450  145.0810 C   0  0  0  0  0  3  0  0  0  0  0  0
  195.5510  174.5440  146.0500 C   0  0  0  0  0  3  0  0  0  0  0  0
  196.3990  174.5720  145.0200 C   0  0  0  0  0  3  0  0  0  0  0  0
  196.9950  175.5480  142.9500 O   0  0  0  0  0  0  0  0  0  0  0  0
  195.1690  176.5680  144.0540 C   0  0  0  0  0  3  0  0  0  0  0  0
  1 21  1  0  0  0  0
  2 17  1  0  0  0  0
  3 14  2  0  0  0  0
  4  9  2  0  0  0  0
  4  7  1  0  0  0  0
  5 11  1  1  0  0  0
  5  7  1  0  0  0  0
  6 17  2  0  0  0  0
  6 16  1  0  0  0  0
  7  2  2  0  0  0  0
  8 12  1  0  0  0  0
  9  6  1  0  0  0  0
 10 20  2  0  0  0  0
 12  4  1  0  0  0  0
 13 10  1  0  0  0  0
 13 19  2  0  0  0  0
 14 18  1  0  0  0  0
 14 10  1  0  0  0  0
 15 13  1  0  0  0  0
 18  8  1  6  0  0  0
 18  5  1  0  0  0  0
 19  1  1  0  0  0  0
 20  1  1  0  0  0  0
 20 11  1  0  0  0  0
 22 21  1  6  0  0  0
 23 28  1  0  0  0  0
 23 26  1  0  0  0  0
 24 22  1  0  0  0  0
 25 22  1  0  0  0  0
 26 25  2  0  0  0  0
 27 23  2  0  0  0  0
 28 24  2  0  0  0  0
M  END
>  <MODEL>
4

>  <REMARK>
 VINA RESULT:      -7.6      2.055      2.886
  Name = 
  2 active torsions:
  status: ('A' for Active; 'I' for Inactive)
    1  A    between atoms: N_1  and  C_2
    2  A    between atoms: C_2  and  C_3
                            x       y       z     vdW  Elec       q    Type
                         _______ _______ _______ _____ _____    ______ ____

>  <TORSDO>
F 2

$$$$
=
 OpenBabel11052418113D

 28 32  0  0  1  0  0  0  0  0999 V2000
  190.4440  176.0640  144.2570 N   0  0  0  0  0  0  0  0  0  0  0  0
  185.9270  177.6510  141.8360 C   0  0  0  0  0  3  0  0  0  0  0  0
  187.9450  177.8650  147.6480 O   0  0  0  0  0  0  0  0  0  0  0  0
  184.6050  178.2640  143.7820 C   0  0  0  0  0  0  0  0  0  0  0  0
  187.0600  177.6780  144.0910 C   0  0  2  0  0  3  0  0  0  0  0  0
  183.6030  178.2690  141.5730 C   0  0  0  0  0  0  0  0  0  0  0  0
  185.8280  177.8160  143.2250 C   0  0  0  0  0  0  0  0  0  0  0  0
  185.7540  178.6420  145.9960 C   0  0  0  0  0  2  0  0  0  0  0  0
  183.4980  178.4660  142.9520 C   0  0  0  0  0  3  0  0  0  0  0  0
  189.1650  176.9310  145.8350 C   0  0  0  0  0  0  0  0  0  0  0  0
  188.0230  176.5730  143.6120 C   0  0  0  0  0  2  0  0  0  0  0  0
  184.4270  178.4480  145.2650 C   0  0  0  0  0  2  0  0  0  0  0  0
  190.4370  176.7000  146.3230 C   0  0  0  0  0  0  0  0  0  0  0  0
  187.9580  177.4980  146.4420 C   0  0  0  0  0  0  0  0  0  0  0  0
  190.9270  176.9830  147.6990 C   0  0  0  0  0  1  0  0  0  0  0  0
  182.2120  178.5320  140.5450 Cl  0  0  0  0  0  0  0  0  0  0  0  0
  184.8170  177.8670  141.0150 C   0  0  0  0  0  3  0  0  0  0  0  0
  186.7080  177.5280  145.5920 C   0  0  2  0  0  3  0  0  0  0  0  0
  191.2020  176.1710  145.3420 N   0  0  0  0  0  0  0  0  0  0  0  0
  189.2100  176.5300  144.5270 C   0  0  0  0  0  0  0  0  0  0  0  0
  190.9250  175.5700  142.9720 C   0  0  0  0  0  2  0  0  0  0  0  0
  191.1580  174.0580  142.9980 C   0  0  2  0  0  3  0  0  0  0  0  0
  190.4090  172.1710  140.9460 C   0  0  0  0  0  0  0  0  0  0  0  0
  192.1040  173.6310  141.8980 C   0  0  0  0  0  3  0  0  0  0  0  0
  189.8460  173.3050  143.0200 C   0  0  0  0  0  3  0  0  0  0  0  0
  189.4950  172.4480  142.0600 C   0  0  0  0  0  3  0  0  0  0  0  0
  190.0570  171.4030  140.0140 O   0  0  0  0  0  0  0  0  0  0  0  0
  191.7480  172.7720  140.9410 C   0  0  0  0  0  3  0  0  0  0  0  0
  1 20  1  0  0  0  0
  1 19  1  0  0  0  0
  2  7  1  0  0  0  0
  4 12  1  0  0  0  0
  5 11  1  6  0  0  0
  5 18  1  0  0  0  0
  6  9  2  0  0  0  0
  7  4  2  0  0  0  0
  7  5  1  0  0  0  0
  9  4  1  0  0  0  0
 10 13  1  0  0  0  0
 10 14  1  0  0  0  0
 11 20  1  0  0  0  0
 12  8  1  0  0  0  0
 13 15  1  0  0  0  0
 14  3  2  0  0  0  0
 16  6  1  0  0  0  0
 17  6  1  0  0  0  0
 17  2  2  0  0  0  0
 18  8  1  1  0  0  0
 18 14  1  0  0  0  0
 19 13  2  0  0  0  0
 20 10  2  0  0  0  0
 21  1  1  0  0  0  0
 22 21  1  6  0  0  0
 22 25  1  0  0  0  0
 23 26  1  0  0  0  0
 24 22  1  0  0  0  0
 26 25  2  0  0  0  0
 27 23  2  0  0  0  0
 28 23  1  0  0  0  0
 28 24  2  0  0  0  0
M  END
>  <MODEL>
5

>  <REMARK>
 VINA RESULT:      -7.6      2.440      5.128
  Name = 
  2 active torsions:
  status: ('A' for Active; 'I' for Inactive)
    1  A    between atoms: N_1  and  C_2
    2  A    between atoms: C_2  and  C_3
                            x       y       z     vdW  Elec       q    Type
                         _______ _______ _______ _____ _____    ______ ____

>  <TORSDO>
F 2

$$$$
=
 OpenBabel11052418113D

 28 32  0  0  1  0  0  0  0  0999 V2000
  189.2760  173.4870  141.7260 N   0  0  0  0  0  0  0  0  0  0  0  0
  187.1530  176.5850  145.5570 C   0  0  0  0  0  3  0  0  0  0  0  0
  186.9720  176.6940  139.4040 O   0  0  0  0  0  0  0  0  0  0  0  0
  186.2640  178.3860  144.1890 C   0  0  0  0  0  0  0  0  0  0  0  0
  187.1900  176.3120  143.0490 C   0  0  2  0  0  3  0  0  0  0  0  0
  186.2130  178.5490  146.6090 C   0  0  0  0  0  0  0  0  0  0  0  0
  186.9120  177.1310  144.2880 C   0  0  0  0  0  0  0  0  0  0  0  0
  185.9570  178.0310  141.7110 C   0  0  0  0  0  2  0  0  0  0  0  0
  185.9380  179.0920  145.3510 C   0  0  0  0  0  3  0  0  0  0  0  0
  188.1580  175.0820  140.6860 C   0  0  0  0  0  0  0  0  0  0  0  0
  188.4460  175.4250  143.1700 C   0  0  0  0  0  2  0  0  0  0  0  0
  185.9870  179.0350  142.8600 C   0  0  0  0  0  2  0  0  0  0  0  0
  188.5520  174.1090  139.7870 C   0  0  0  0  0  0  0  0  0  0  0  0
  187.3920  176.3210  140.5330 C   0  0  0  0  0  0  0  0  0  0  0  0
  188.2820  174.0870  138.3240 C   0  0  0  0  0  1  0  0  0  0  0  0
  185.7950  179.4410  148.0550 Cl  0  0  0  0  0  0  0  0  0  0  0  0
  186.8140  177.2940  146.7120 C   0  0  0  0  0  3  0  0  0  0  0  0
  187.2180  177.1800  141.7650 C   0  0  2  0  0  3  0  0  0  0  0  0
  189.2320  173.1440  140.4440 N   0  0  0  0  0  0  0  0  0  0  0  0
  188.6220  174.6500  141.8990 C   0  0  0  0  0  0  0  0  0  0  0  0
  189.8950  172.6730  142.7660 C   0  0  0  0  0  2  0  0  0  0  0  0
  191.3260  173.1250  143.0630 C   0  0  2  0  0  3  0  0  0  0  0  0
  192.1930  175.8210  143.6200 C   0  0  0  0  0  0  0  0  0  0  0  0
  191.4470  173.6690  144.4690 C   0  0  0  0  0  3  0  0  0  0  0  0
  191.8370  174.0580  141.9870 C   0  0  0  0  0  3  0  0  0  0  0  0
  192.2190  175.3090  142.2450 C   0  0  0  0  0  3  0  0  0  0  0  0
  192.5040  177.0180  143.8560 O   0  0  0  0  0  0  0  0  0  0  0  0
  191.8310  174.9220  144.7220 C   0  0  0  0  0  3  0  0  0  0  0  0
  1 20  1  0  0  0  0
  1 21  1  0  0  0  0
  2 17  1  0  0  0  0
  3 14  2  0  0  0  0
  4  7  1  0  0  0  0
  4  9  2  0  0  0  0
  5 11  1  1  0  0  0
  5  7  1  0  0  0  0
  6 17  2  0  0  0  0
  6 16  1  0  0  0  0
  7  2  2  0  0  0  0
  8 12  1  0  0  0  0
  9  6  1  0  0  0  0
 10 20  2  0  0  0  0
 12  4  1  0  0  0  0
 13 19  2  0  0  0  0
 13 10  1  0  0  0  0
 14 10  1  0  0  0  0
 14 18  1  0  0  0  0
 15 13  1  0  0  0  0
 18  8  1  6  0  0  0
 18  5  1  0  0  0  0
 19  1  1  0  0  0  0
 20 11  1  0  0  0  0
 22 21  1  6  0  0  0
 22 24  1  0  0  0  0
 23 27  2  0  0  0  0
 23 28  1  0  0  0  0
 24 28  2  0  0  0  0
 25 26  2  0  0  0  0
 25 22  1  0  0  0  0
 26 23  1  0  0  0  0
M  END
>  <MODEL>
6

>  <REMARK>
 VINA RESULT:      -7.6      2.501      3.695
  Name = 
  2 active torsions:
  status: ('A' for Active; 'I' for Inactive)
    1  A    between atoms: N_1  and  C_2
    2  A    between atoms: C_2  and  C_3
                            x       y       z     vdW  Elec       q    Type
                         _______ _______ _______ _____ _____    ______ ____

>  <TORSDO>
F 2

$$$$
=
 OpenBabel11052418113D

 28 32  0  0  1  0  0  0  0  0999 V2000
  192.2040  175.9600  143.8000 N   0  0  0  0  0  0  0  0  0  0  0  0
  187.1930  177.5220  142.6900 C   0  0  0  0  0  3  0  0  0  0  0  0
  190.4660  177.0860  147.8860 O   0  0  0  0  0  0  0  0  0  0  0  0
  186.3220  177.7610  144.9460 C   0  0  0  0  0  0  0  0  0  0  0  0
  188.8050  177.3240  144.6200 C   0  0  2  0  0  3  0  0  0  0  0  0
  184.8460  177.9940  143.0360 C   0  0  0  0  0  0  0  0  0  0  0  0
  187.4050  177.4860  144.0760 C   0  0  0  0  0  0  0  0  0  0  0  0
  187.9260  177.9160  146.8870 C   0  0  0  0  0  2  0  0  0  0  0  0
  185.0480  177.9920  144.4180 C   0  0  0  0  0  3  0  0  0  0  0  0
  191.2810  176.5040  145.7300 C   0  0  0  0  0  0  0  0  0  0  0  0
  189.6810  176.3700  143.7820 C   0  0  0  0  0  2  0  0  0  0  0  0
  186.4780  177.7260  146.4430 C   0  0  0  0  0  2  0  0  0  0  0  0
  192.6390  176.3040  145.8890 C   0  0  0  0  0  0  0  0  0  0  0  0
  190.2200  176.8910  146.6650 C   0  0  0  0  0  0  0  0  0  0  0  0
  193.4160  176.4310  147.1510 C   0  0  0  0  0  1  0  0  0  0  0  0
  183.2480  178.2910  142.3880 Cl  0  0  0  0  0  0  0  0  0  0  0  0
  185.9180  177.7650  142.1720 C   0  0  0  0  0  3  0  0  0  0  0  0
  188.8100  176.9430  146.1220 C   0  0  2  0  0  3  0  0  0  0  0  0
  193.1830  175.9730  144.6970 N   0  0  0  0  0  0  0  0  0  0  0  0
  191.0450  176.2900  144.3990 C   0  0  0  0  0  0  0  0  0  0  0  0
  192.4020  175.6840  142.3810 C   0  0  0  0  0  2  0  0  0  0  0  0
  192.1530  174.2110  142.0500 C   0  0  2  0  0  3  0  0  0  0  0  0
  189.9910  172.5730  143.0360 C   0  0  0  0  0  0  0  0  0  0  0  0
  190.8540  174.0320  141.2950 C   0  0  0  0  0  3  0  0  0  0  0  0
  192.2810  173.3460  143.2850 C   0  0  0  0  0  3  0  0  0  0  0  0
  191.2740  172.6050  143.7480 C   0  0  0  0  0  3  0  0  0  0  0  0
  189.0250  171.9150  143.5020 O   0  0  0  0  0  0  0  0  0  0  0  0
  189.8510  173.2880  141.7630 C   0  0  0  0  0  3  0  0  0  0  0  0
  1 20  1  0  0  0  0
  1 19  1  0  0  0  0
  2  7  1  0  0  0  0
  4 12  1  0  0  0  0
  5 11  1  6  0  0  0
  5 18  1  0  0  0  0
  6  9  2  0  0  0  0
  7  5  1  0  0  0  0
  7  4  2  0  0  0  0
  9  4  1  0  0  0  0
 10 13  1  0  0  0  0
 10 14  1  0  0  0  0
 11 20  1  0  0  0  0
 12  8  1  0  0  0  0
 13 15  1  0  0  0  0
 14  3  2  0  0  0  0
 16  6  1  0  0  0  0
 17  2  2  0  0  0  0
 17  6  1  0  0  0  0
 18 14  1  0  0  0  0
 18  8  1  1  0  0  0
 19 13  2  0  0  0  0
 20 10  2  0  0  0  0
 21  1  1  0  0  0  0
 22 21  1  1  0  0  0
 22 25  1  0  0  0  0
 23 27  2  0  0  0  0
 23 26  1  0  0  0  0
 24 28  2  0  0  0  0
 24 22  1  0  0  0  0
 25 26  2  0  0  0  0
 28 23  1  0  0  0  0
M  END
>  <MODEL>
7

>  <REMARK>
 VINA RESULT:      -7.5      1.909      4.171
  Name = 
  2 active torsions:
  status: ('A' for Active; 'I' for Inactive)
    1  A    between atoms: N_1  and  C_2
    2  A    between atoms: C_2  and  C_3
                            x       y       z     vdW  Elec       q    Type
                         _______ _______ _______ _____ _____    ______ ____

>  <TORSDO>
F 2

$$$$
=
 OpenBabel11052418113D

 28 32  0  0  1  0  0  0  0  0999 V2000
  188.4260  176.6900  146.4100 N   0  0  0  0  0  0  0  0  0  0  0  0
  188.5200  173.8040  141.8890 C   0  0  0  0  0  3  0  0  0  0  0  0
  192.8850  175.9560  145.6590 O   0  0  0  0  0  0  0  0  0  0  0  0
  190.9120  173.7850  141.4570 C   0  0  0  0  0  0  0  0  0  0  0  0
  190.0620  174.7320  143.6580 C   0  0  2  0  0  3  0  0  0  0  0  0
  189.3690  172.8590  139.8300 C   0  0  0  0  0  0  0  0  0  0  0  0
  189.8210  174.1440  142.2870 C   0  0  0  0  0  0  0  0  0  0  0  0
  192.5150  174.3760  143.3130 C   0  0  0  0  0  2  0  0  0  0  0  0
  190.6730  173.1640  140.2270 C   0  0  0  0  0  3  0  0  0  0  0  0
  190.5540  176.3080  145.9620 C   0  0  0  0  0  0  0  0  0  0  0  0
  188.9470  175.6960  144.1140 C   0  0  0  0  0  2  0  0  0  0  0  0
  192.3320  174.1310  141.8170 C   0  0  0  0  0  2  0  0  0  0  0  0
  190.4220  176.8510  147.2250 C   0  0  0  0  0  0  0  0  0  0  0  0
  191.7180  175.8590  145.1920 C   0  0  0  0  0  0  0  0  0  0  0  0
  191.5190  177.1480  148.1860 C   0  0  0  0  0  1  0  0  0  0  0  0
  189.0850  172.0770  138.2910 Cl  0  0  0  0  0  0  0  0  0  0  0  0
  188.2940  173.1730  140.6630 C   0  0  0  0  0  3  0  0  0  0  0  0
  191.4670  175.3740  143.7830 C   0  0  2  0  0  3  0  0  0  0  0  0
  189.1140  177.0760  147.4790 N   0  0  0  0  0  0  0  0  0  0  0  0
  189.2760  176.2100  145.4830 C   0  0  0  0  0  0  0  0  0  0  0  0
  186.9720  176.7390  146.3150 C   0  0  0  0  0  2  0  0  0  0  0  0
  186.4720  178.1490  145.9940 C   0  0  2  0  0  3  0  0  0  0  0  0
  184.2360  178.8330  144.3030 C   0  0  0  0  0  0  0  0  0  0  0  0
  185.0780  178.3720  146.5360 C   0  0  0  0  0  3  0  0  0  0  0  0
  186.6270  178.4600  144.5220 C   0  0  0  0  0  3  0  0  0  0  0  0
  185.5890  178.7570  143.7390 C   0  0  0  0  0  3  0  0  0  0  0  0
  183.2500  179.0620  143.5540 O   0  0  0  0  0  0  0  0  0  0  0  0
  184.0430  178.6710  145.7480 C   0  0  0  0  0  3  0  0  0  0  0  0
  1 19  1  0  0  0  0
  2  7  1  0  0  0  0
  4 12  1  0  0  0  0
  4  7  2  0  0  0  0
  5 18  1  0  0  0  0
  5 11  1  6  0  0  0
  6  9  2  0  0  0  0
  6 17  1  0  0  0  0
  7  5  1  0  0  0  0
  9  4  1  0  0  0  0
 10 13  1  0  0  0  0
 11 20  1  0  0  0  0
 12  8  1  0  0  0  0
 13 19  2  0  0  0  0
 13 15  1  0  0  0  0
 14  3  2  0  0  0  0
 14 10  1  0  0  0  0
 16  6  1  0  0  0  0
 17  2  2  0  0  0  0
 18  8  1  1  0  0  0
 18 14  1  0  0  0  0
 20 10  2  0  0  0  0
 20  1  1  0  0  0  0
 21  1  1  0  0  0  0
 22 21  1  6  0  0  0
 22 24  1  0  0  0  0
 23 28  1  0  0  0  0
 25 22  1  0  0  0  0
 26 23  1  0  0  0  0
 26 25  2  0  0  0  0
 27 23  2  0  0  0  0
 28 24  2  0  0  0  0
M  END
>  <MODEL>
8

>  <REMARK>
 VINA RESULT:      -7.5      3.533      6.669
  Name = 
  2 active torsions:
  status: ('A' for Active; 'I' for Inactive)
    1  A    between atoms: N_1  and  C_2
    2  A    between atoms: C_2  and  C_3
                            x       y       z     vdW  Elec       q    Type
                         _______ _______ _______ _____ _____    ______ ____

>  <TORSDO>
F 2

$$$$
=
 OpenBabel11052418113D

 28 32  0  0  1  0  0  0  0  0999 V2000
  188.4130  176.2800  143.4850 N   0  0  0  0  0  0  0  0  0  0  0  0
  193.6430  175.7460  142.4180 C   0  0  0  0  0  3  0  0  0  0  0  0
  190.4250  176.6920  147.5800 O   0  0  0  0  0  0  0  0  0  0  0  0
  194.5710  176.3110  144.5920 C   0  0  0  0  0  0  0  0  0  0  0  0
  192.0550  176.0350  144.3570 C   0  0  2  0  0  3  0  0  0  0  0  0
  196.0370  175.9610  142.6900 C   0  0  0  0  0  0  0  0  0  0  0  0
  193.4450  176.0830  143.7640 C   0  0  0  0  0  0  0  0  0  0  0  0
  193.0820  176.2740  146.6270 C   0  0  0  0  0  2  0  0  0  0  0  0
  195.8560  176.2670  144.0410 C   0  0  0  0  0  3  0  0  0  0  0  0
  189.4650  176.4880  145.4160 C   0  0  0  0  0  0  0  0  0  0  0  0
  190.9570  176.5020  143.3790 C   0  0  0  0  0  2  0  0  0  0  0  0
  194.4290  176.6880  146.0420 C   0  0  0  0  0  2  0  0  0  0  0  0
  188.1020  176.3870  145.6220 C   0  0  0  0  0  0  0  0  0  0  0  0
  190.6000  176.6220  146.3330 C   0  0  0  0  0  0  0  0  0  0  0  0
  187.3970  176.4030  146.9320 C   0  0  0  0  0  1  0  0  0  0  0  0
  197.6510  175.9040  142.0170 Cl  0  0  0  0  0  0  0  0  0  0  0  0
  194.9320  175.6950  141.8810 C   0  0  0  0  0  3  0  0  0  0  0  0
  191.9710  176.7750  145.7160 C   0  0  2  0  0  3  0  0  0  0  0  0
  187.4790  176.2600  144.4300 N   0  0  0  0  0  0  0  0  0  0  0  0
  189.6240  176.4050  144.0590 C   0  0  0  0  0  0  0  0  0  0  0  0
  188.1350  176.1270  142.0620 C   0  0  0  0  0  2  0  0  0  0  0  0
  187.7120  177.4510  141.4220 C   0  0  2  0  0  3  0  0  0  0  0  0
  185.0170  178.2610  140.7800 C   0  0  0  0  0  0  0  0  0  0  0  0
  186.8580  178.2670  142.3680 C   0  0  0  0  0  3  0  0  0  0  0  0
  187.0940  177.2250  140.0610 C   0  0  0  0  0  3  0  0  0  0  0  0
  185.8420  177.5840  139.7730 C   0  0  0  0  0  3  0  0  0  0  0  0
  183.8200  178.5530  140.5260 O   0  0  0  0  0  0  0  0  0  0  0  0
  185.6060  178.6240  142.0740 C   0  0  0  0  0  3  0  0  0  0  0  0
  1 20  1  0  0  0  0
  1 19  1  0  0  0  0
  2  7  1  0  0  0  0
  4 12  1  0  0  0  0
  5 11  1  6  0  0  0
  5 18  1  0  0  0  0
  6  9  2  0  0  0  0
  7  5  1  0  0  0  0
  7  4  2  0  0  0  0
  9  4  1  0  0  0  0
 10 13  1  0  0  0  0
 10 14  1  0  0  0  0
 11 20  1  0  0  0  0
 12  8  1  0  0  0  0
 13 15  1  0  0  0  0
 14  3  2  0  0  0  0
 16  6  1  0  0  0  0
 17  2  2  0  0  0  0
 17  6  1  0  0  0  0
 18 14  1  0  0  0  0
 18  8  1  1  0  0  0
 19 13  2  0  0  0  0
 20 10  2  0  0  0  0
 21  1  1  0  0  0  0
 22 21  1  1  0  0  0
 22 24  1  0  0  0  0
 23 28  1  0  0  0  0
 25 22  1  0  0  0  0
 26 25  2  0  0  0  0
 26 23  1  0  0  0  0
 27 23  2  0  0  0  0
 28 24  2  0  0  0  0
M  END
>  <MODEL>
9

>  <REMARK>
 VINA RESULT:      -7.4      3.824      7.747
  Name = 
  2 active torsions:
  status: ('A' for Active; 'I' for Inactive)
    1  A    between atoms: N_1  and  C_2
    2  A    between atoms: C_2  and  C_3
                            x       y       z     vdW  Elec       q    Type
                         _______ _______ _______ _____ _____    ______ ____

>  <TORSDO>
F 2

$$$$
