=
 OpenBabel11052417223D

 30 33  0  0  1  0  0  0  0  0999 V2000
  187.1730  176.3490  141.7960 C   0  0  0  0  0  0  0  0  0  0  0  0
  185.0840  177.5870  142.2550 C   0  0  0  0  0  3  0  0  0  0  0  0
  186.0730  177.9770  146.3230 O   0  0  0  0  0  0  0  0  0  0  0  0
  188.8650  177.9110  144.4420 O   0  0  0  0  0  1  0  0  0  0  0  0
  187.1060  174.9190  141.7540 N   0  0  0  0  0  0  0  0  0  0  0  0
  190.4310  174.2680  142.6640 C   0  0  1  0  0  0  0  0  0  0  0  0
  189.4650  174.6500  141.6440 N   0  0  0  0  0  2  0  0  0  0  0  0
  187.9020  172.6600  141.6500 C   0  0  0  0  0  1  0  0  0  0  0  0
  189.2930  175.8820  146.6500 C   0  0  2  0  0  3  0  0  0  0  0  0
  187.1490  177.2850  146.8880 C   0  0  0  0  0  0  0  0  0  0  0  0
  188.1310  174.1310  141.6400 C   0  0  0  0  0  0  0  0  0  0  0  0
  190.5240  175.2420  143.8300 C   0  0  2  0  0  3  0  0  0  0  0  0
  184.2160  178.2440  143.1300 C   0  0  0  0  0  3  0  0  0  0  0  0
  189.8400  174.5250  146.1640 C   0  0  0  0  0  2  0  0  0  0  0  0
  190.8390  172.8040  142.7700 C   0  0  0  0  0  1  0  0  0  0  0  0
  187.9910  176.9820  141.0760 O   0  0  0  0  0  0  0  0  0  0  0  0
  185.7560  177.8620  144.9620 C   0  0  0  0  0  0  0  0  0  0  0  0
  184.5490  178.3830  144.4800 C   0  0  0  0  0  0  0  0  0  0  0  0
  191.6060  175.2110  142.7510 C   0  0  0  0  0  2  0  0  0  0  0  0
  186.2980  177.0720  142.7200 C   0  0  0  0  0  0  0  0  0  0  0  0
  188.0090  176.8160  144.5750 C   0  0  1  0  0  3  0  0  0  0  0  0
  187.3810  177.4000  148.1210 O   0  0  0  0  0  0  0  0  0  0  0  0
  187.9520  176.3350  146.0330 C   0  0  1  0  0  3  0  0  0  0  0  0
  192.1240  175.1220  145.6330 O   0  0  0  0  0  1  0  0  0  0  0  0
  183.6720  179.0330  145.3400 O   0  0  0  0  0  1  0  0  0  0  0  0
  186.6440  177.2140  144.0780 C   0  0  0  0  0  0  0  0  0  0  0  0
  190.9600  174.5500  145.1150 C   0  0  2  0  0  3  0  0  0  0  0  0
  190.2910  176.9370  147.0440 C   0  0  0  0  0  0  0  0  0  0  0  0
  191.0800  176.7680  148.2960 C   0  0  0  0  0  1  0  0  0  0  0  0
  190.4780  177.9200  146.3450 O   0  0  0  0  0  0  0  0  0  0  0  0
  1 20  1  0  0  0  0
  2 20  2  0  0  0  0
  2 13  1  0  0  0  0
  3 10  1  0  0  0  0
  5  1  1  0  0  0  0
  6 19  1  0  0  0  0
  6 15  1  1  0  0  0
  6 12  1  0  0  0  0
  7  6  1  0  0  0  0
  9 28  1  6  0  0  0
 10 22  2  0  0  0  0
 11  7  1  0  0  0  0
 11  8  1  0  0  0  0
 11  5  2  0  0  0  0
 12 19  1  6  0  0  0
 12 27  1  0  0  0  0
 13 18  2  0  0  0  0
 14  9  1  0  0  0  0
 16  1  2  0  0  0  0
 17  3  1  0  0  0  0
 18 17  1  0  0  0  0
 18 25  1  0  0  0  0
 20 26  1  0  0  0  0
 21  4  1  1  0  0  0
 21 23  1  0  0  0  0
 23  9  1  0  0  0  0
 23 10  1  1  0  0  0
 26 21  1  0  0  0  0
 26 17  2  0  0  0  0
 27 24  1  1  0  0  0
 27 14  1  0  0  0  0
 28 29  1  0  0  0  0
 30 28  2  0  0  0  0
M  END
>  <MODEL>
1

>  <REMARK>
 VINA RESULT:      -8.0      0.000      0.000
  Name = 
  1 active torsions:
  status: ('A' for Active; 'I' for Inactive)
    1  A    between atoms: C_7  and  C_10
                            x       y       z     vdW  Elec       q    Type
                         _______ _______ _______ _____ _____    ______ ____

>  <TORSDO>
F 1

$$$$
=
 OpenBabel11052417223D

 30 33  0  0  1  0  0  0  0  0999 V2000
  187.9210  175.9960  142.6030 C   0  0  0  0  0  0  0  0  0  0  0  0
  186.3520  177.2290  144.0620 C   0  0  0  0  0  3  0  0  0  0  0  0
  189.1720  177.3610  147.1770 O   0  0  0  0  0  0  0  0  0  0  0  0
  190.7280  177.3760  144.1910 O   0  0  0  0  0  1  0  0  0  0  0  0
  187.7850  174.5720  142.5310 N   0  0  0  0  0  0  0  0  0  0  0  0
  191.1140  173.8270  141.7120 C   0  0  1  0  0  0  0  0  0  0  0  0
  189.7960  174.2820  141.2960 N   0  0  0  0  0  2  0  0  0  0  0  0
  188.3470  172.3140  141.9530 C   0  0  0  0  0  1  0  0  0  0  0  0
  192.0740  175.2110  145.8290 C   0  0  2  0  0  3  0  0  0  0  0  0
  190.3590  176.6240  147.1270 C   0  0  0  0  0  0  0  0  0  0  0  0
  188.6010  173.7800  141.9050 C   0  0  0  0  0  0  0  0  0  0  0  0
  191.7890  174.7280  142.7360 C   0  0  2  0  0  3  0  0  0  0  0  0
  186.0320  177.8430  145.2750 C   0  0  0  0  0  3  0  0  0  0  0  0
  192.2710  173.8800  145.0780 C   0  0  0  0  0  2  0  0  0  0  0  0
  191.4660  172.3550  141.5410 C   0  0  0  0  0  1  0  0  0  0  0  0
  188.3220  176.6610  141.6110 O   0  0  0  0  0  0  0  0  0  0  0  0
  188.2420  177.3330  146.1290 C   0  0  0  0  0  0  0  0  0  0  0  0
  186.9720  177.8960  146.3060 C   0  0  0  0  0  0  0  0  0  0  0  0
  192.2250  174.7490  141.2730 C   0  0  0  0  0  2  0  0  0  0  0  0
  187.6200  176.6730  143.8660 C   0  0  0  0  0  0  0  0  0  0  0  0
  189.9960  176.2850  144.6650 C   0  0  1  0  0  3  0  0  0  0  0  0
  191.1530  176.6620  148.1040 O   0  0  0  0  0  0  0  0  0  0  0  0
  190.6200  175.7180  145.9490 C   0  0  1  0  0  3  0  0  0  0  0  0
  194.0480  174.4800  143.5500 O   0  0  0  0  0  1  0  0  0  0  0  0
  186.6360  178.5040  147.5100 O   0  0  0  0  0  1  0  0  0  0  0  0
  188.5750  176.7290  144.8990 C   0  0  0  0  0  0  0  0  0  0  0  0
  192.7560  173.9550  143.6240 C   0  0  2  0  0  3  0  0  0  0  0  0
  193.1800  176.2290  145.7480 C   0  0  0  0  0  0  0  0  0  0  0  0
  194.3720  176.0860  146.6290 C   0  0  0  0  0  1  0  0  0  0  0  0
  193.1250  177.1590  144.9600 O   0  0  0  0  0  0  0  0  0  0  0  0
  1 20  1  0  0  0  0
  2 13  1  0  0  0  0
  5  1  1  0  0  0  0
  6 15  1  1  0  0  0
  6 12  1  0  0  0  0
  7  6  1  0  0  0  0
  7 11  1  0  0  0  0
  9 28  1  6  0  0  0
  9 23  1  0  0  0  0
 10  3  1  0  0  0  0
 10 22  2  0  0  0  0
 11  8  1  0  0  0  0
 11  5  2  0  0  0  0
 12 19  1  6  0  0  0
 12 27  1  0  0  0  0
 13 18  2  0  0  0  0
 14  9  1  0  0  0  0
 16  1  2  0  0  0  0
 17 18  1  0  0  0  0
 17  3  1  0  0  0  0
 18 25  1  0  0  0  0
 19  6  1  0  0  0  0
 20  2  2  0  0  0  0
 20 26  1  0  0  0  0
 21  4  1  1  0  0  0
 21 26  1  0  0  0  0
 21 23  1  0  0  0  0
 23 10  1  1  0  0  0
 26 17  2  0  0  0  0
 27 24  1  1  0  0  0
 27 14  1  0  0  0  0
 28 29  1  0  0  0  0
 30 28  2  0  0  0  0
M  END
>  <MODEL>
2

>  <REMARK>
 VINA RESULT:      -8.0      1.595      2.465
  Name = 
  1 active torsions:
  status: ('A' for Active; 'I' for Inactive)
    1  A    between atoms: C_7  and  C_10
                            x       y       z     vdW  Elec       q    Type
                         _______ _______ _______ _____ _____    ______ ____

>  <TORSDO>
F 1

$$$$
=
 OpenBabel11052417223D

 30 33  0  0  1  0  0  0  0  0999 V2000
  188.2700  174.2490  141.5000 C   0  0  0  0  0  0  0  0  0  0  0  0
  190.0450  172.8260  140.5340 C   0  0  0  0  0  3  0  0  0  0  0  0
  192.7190  173.8810  143.6020 O   0  0  0  0  0  0  0  0  0  0  0  0
  189.5530  173.9160  144.7480 O   0  0  0  0  0  1  0  0  0  0  0  0
  188.0890  175.5580  140.9480 N   0  0  0  0  0  0  0  0  0  0  0  0
  186.7330  177.0840  143.8010 C   0  0  1  0  0  0  0  0  0  0  0  0
  186.5560  176.2330  142.6340 N   0  0  0  0  0  2  0  0  0  0  0  0
  187.2350  177.7900  140.7580 C   0  0  0  0  0  1  0  0  0  0  0  0
  190.7770  176.5590  145.5800 C   0  0  2  0  0  3  0  0  0  0  0  0
  192.4320  174.9050  144.5090 C   0  0  0  0  0  0  0  0  0  0  0  0
  187.2830  176.4580  141.4220 C   0  0  0  0  0  0  0  0  0  0  0  0
  187.7270  176.5450  144.8200 C   0  0  2  0  0  3  0  0  0  0  0  0
  191.3420  172.3080  140.5450 C   0  0  0  0  0  3  0  0  0  0  0  0
  189.8880  177.7850  145.2950 C   0  0  0  0  0  2  0  0  0  0  0  0
  186.3810  178.5620  143.6870 C   0  0  0  0  0  1  0  0  0  0  0  0
  187.2950  173.5990  141.9640 O   0  0  0  0  0  0  0  0  0  0  0  0
  191.8190  173.5160  142.5920 C   0  0  0  0  0  0  0  0  0  0  0  0
  192.2280  172.6500  141.5700 C   0  0  0  0  0  0  0  0  0  0  0  0
  186.2230  176.4580  145.0760 C   0  0  0  0  0  2  0  0  0  0  0  0
  189.6190  173.6820  141.5540 C   0  0  0  0  0  0  0  0  0  0  0  0
  190.0280  174.8120  143.7880 C   0  0  1  0  0  3  0  0  0  0  0  0
  193.2820  175.2140  145.3850 O   0  0  0  0  0  0  0  0  0  0  0  0
  191.1510  175.6900  144.3600 C   0  0  1  0  0  3  0  0  0  0  0  0
  188.1800  177.5110  146.9860 O   0  0  0  0  0  1  0  0  0  0  0  0
  193.5180  172.1330  141.5640 O   0  0  0  0  0  1  0  0  0  0  0  0
  190.5040  174.0260  142.5940 C   0  0  0  0  0  0  0  0  0  0  0  0
  188.3910  177.6630  145.6140 C   0  0  2  0  0  3  0  0  0  0  0  0
  190.6290  175.8860  146.9190 C   0  0  0  0  0  0  0  0  0  0  0  0
  191.3330  176.4500  148.1040 C   0  0  0  0  0  1  0  0  0  0  0  0
  189.9280  174.8960  147.0520 O   0  0  0  0  0  0  0  0  0  0  0  0
  1 20  1  0  0  0  0
  1 16  2  0  0  0  0
  2 13  2  0  0  0  0
  2 20  1  0  0  0  0
  3 10  1  0  0  0  0
  5 11  2  0  0  0  0
  5  1  1  0  0  0  0
  6 15  1  6  0  0  0
  6 12  1  0  0  0  0
  6 19  1  0  0  0  0
  7  6  1  0  0  0  0
  8 11  1  0  0  0  0
  9 28  1  1  0  0  0
 10 22  2  0  0  0  0
 11  7  1  0  0  0  0
 12 19  1  1  0  0  0
 12 27  1  0  0  0  0
 13 18  1  0  0  0  0
 14  9  1  0  0  0  0
 14 27  1  0  0  0  0
 17 26  1  0  0  0  0
 17  3  1  0  0  0  0
 18 17  2  0  0  0  0
 20 26  2  0  0  0  0
 21 23  1  0  0  0  0
 21  4  1  1  0  0  0
 23 10  1  1  0  0  0
 23  9  1  0  0  0  0
 25 18  1  0  0  0  0
 26 21  1  0  0  0  0
 27 24  1  1  0  0  0
 28 30  2  0  0  0  0
 28 29  1  0  0  0  0
M  END
>  <MODEL>
3

>  <REMARK>
 VINA RESULT:      -7.9      1.912      5.667
  Name = 
  1 active torsions:
  status: ('A' for Active; 'I' for Inactive)
    1  A    between atoms: C_7  and  C_10
                            x       y       z     vdW  Elec       q    Type
                         _______ _______ _______ _____ _____    ______ ____

>  <TORSDO>
F 1

$$$$
=
 OpenBabel11052417223D

 30 33  0  0  1  0  0  0  0  0999 V2000
  191.9290  176.2130  145.0880 C   0  0  0  0  0  0  0  0  0  0  0  0
  193.5460  174.4880  145.8080 C   0  0  0  0  0  3  0  0  0  0  0  0
  191.7890  171.6230  143.2810 O   0  0  0  0  0  0  0  0  0  0  0  0
  191.4720  174.7020  141.9550 O   0  0  0  0  0  1  0  0  0  0  0  0
  190.7920  176.4510  145.9240 N   0  0  0  0  0  0  0  0  0  0  0  0
  188.6190  177.6280  143.4340 C   0  0  1  0  0  0  0  0  0  0  0  0
  189.7270  177.8740  144.3460 N   0  0  0  0  0  2  0  0  0  0  0  0
  188.6690  177.3500  146.5840 C   0  0  0  0  0  1  0  0  0  0  0  0
  188.7090  173.4630  141.8720 C   0  0  2  0  0  3  0  0  0  0  0  0
  190.5760  171.8630  142.6290 C   0  0  0  0  0  0  0  0  0  0  0  0
  189.8020  177.2360  145.6260 C   0  0  0  0  0  0  0  0  0  0  0  0
  188.9000  176.5580  142.3880 C   0  0  2  0  0  3  0  0  0  0  0  0
  194.0490  173.1850  145.7640 C   0  0  0  0  0  3  0  0  0  0  0  0
  187.5860  174.3890  142.3810 C   0  0  0  0  0  2  0  0  0  0  0  0
  187.2120  178.0100  143.8750 C   0  0  0  0  0  1  0  0  0  0  0  0
  192.4460  177.1440  144.4140 O   0  0  0  0  0  0  0  0  0  0  0  0
  192.3850  172.5860  144.1070 C   0  0  0  0  0  0  0  0  0  0  0  0
  193.4720  172.2360  144.9170 C   0  0  0  0  0  0  0  0  0  0  0  0
  188.9190  178.0390  142.0130 C   0  0  0  0  0  2  0  0  0  0  0  0
  192.4690  174.8550  144.9960 C   0  0  0  0  0  0  0  0  0  0  0  0
  190.8350  174.3090  143.1340 C   0  0  1  0  0  3  0  0  0  0  0  0
  190.0670  170.9580  141.9160 O   0  0  0  0  0  0  0  0  0  0  0  0
  189.8480  173.1620  142.8710 C   0  0  1  0  0  3  0  0  0  0  0  0
  187.4410  175.9710  140.5560 O   0  0  0  0  0  1  0  0  0  0  0  0
  193.9780  170.9420  144.8910 O   0  0  0  0  0  1  0  0  0  0  0  0
  191.8860  173.9050  144.1340 C   0  0  0  0  0  0  0  0  0  0  0  0
  187.6250  175.8570  141.9360 C   0  0  2  0  0  3  0  0  0  0  0  0
  189.0390  173.5080  140.4040 C   0  0  0  0  0  0  0  0  0  0  0  0
  188.1910  172.7540  139.4400 C   0  0  0  0  0  1  0  0  0  0  0  0
  189.9800  174.1660  139.9900 O   0  0  0  0  0  0  0  0  0  0  0  0
  1  5  1  0  0  0  0
  3 17  1  0  0  0  0
  6 15  1  1  0  0  0
  6  7  1  0  0  0  0
  7 11  1  0  0  0  0
  9 28  1  6  0  0  0
  9 14  1  0  0  0  0
  9 23  1  0  0  0  0
 10  3  1  0  0  0  0
 11  5  2  0  0  0  0
 11  8  1  0  0  0  0
 12 19  1  6  0  0  0
 12  6  1  0  0  0  0
 13  2  1  0  0  0  0
 16  1  2  0  0  0  0
 17 26  2  0  0  0  0
 17 18  1  0  0  0  0
 18 13  2  0  0  0  0
 19  6  1  0  0  0  0
 20  1  1  0  0  0  0
 20  2  2  0  0  0  0
 21  4  1  6  0  0  0
 21 26  1  0  0  0  0
 22 10  2  0  0  0  0
 23 10  1  6  0  0  0
 23 21  1  0  0  0  0
 25 18  1  0  0  0  0
 26 20  1  0  0  0  0
 27 24  1  6  0  0  0
 27 14  1  0  0  0  0
 27 12  1  0  0  0  0
 29 28  1  0  0  0  0
 30 28  2  0  0  0  0
M  END
>  <MODEL>
4

>  <REMARK>
 VINA RESULT:      -7.7      2.962      7.230
  Name = 
  1 active torsions:
  status: ('A' for Active; 'I' for Inactive)
    1  A    between atoms: C_7  and  C_10
                            x       y       z     vdW  Elec       q    Type
                         _______ _______ _______ _____ _____    ______ ____

>  <TORSDO>
F 1

$$$$
=
 OpenBabel11052417223D

 30 33  0  0  1  0  0  0  0  0999 V2000
  188.0380  176.7040  146.7930 C   0  0  0  0  0  0  0  0  0  0  0  0
  186.3840  178.5380  146.6990 C   0  0  0  0  0  3  0  0  0  0  0  0
  186.2750  178.3770  142.4990 O   0  0  0  0  0  0  0  0  0  0  0  0
  186.9160  175.3260  143.7690 O   0  0  0  0  0  1  0  0  0  0  0  0
  189.4190  177.0580  146.9340 N   0  0  0  0  0  0  0  0  0  0  0  0
  190.7870  174.2130  145.4030 C   0  0  1  0  0  0  0  0  0  0  0  0
  190.1900  174.8390  146.5740 N   0  0  0  0  0  2  0  0  0  0  0  0
  191.7960  176.7470  147.0060 C   0  0  0  0  0  1  0  0  0  0  0  0
  189.0210  175.8100  141.6450 C   0  0  2  0  0  3  0  0  0  0  0  0
  187.1910  177.6140  141.7680 C   0  0  0  0  0  0  0  0  0  0  0  0
  190.4090  176.2200  146.8820 C   0  0  0  0  0  0  0  0  0  0  0  0
  189.8730  174.1680  144.1870 C   0  0  2  0  0  3  0  0  0  0  0  0
  185.5670  179.4160  145.9820 C   0  0  0  0  0  3  0  0  0  0  0  0
  190.4570  175.4670  142.0880 C   0  0  0  0  0  2  0  0  0  0  0  0
  192.3050  174.1510  145.3030 C   0  0  0  0  0  1  0  0  0  0  0  0
  187.5870  175.6380  147.2920 O   0  0  0  0  0  0  0  0  0  0  0  0
  186.2990  178.4140  143.9000 C   0  0  0  0  0  0  0  0  0  0  0  0
  185.5220  179.3550  144.5880 C   0  0  0  0  0  0  0  0  0  0  0  0
  190.1220  172.9130  145.0210 C   0  0  0  0  0  2  0  0  0  0  0  0
  187.1560  177.5860  146.0270 C   0  0  0  0  0  0  0  0  0  0  0  0
  187.8020  176.4000  143.8790 C   0  0  1  0  0  3  0  0  0  0  0  0
  187.1460  177.6310  140.5090 O   0  0  0  0  0  0  0  0  0  0  0  0
  188.2790  176.8640  142.4960 C   0  0  1  0  0  3  0  0  0  0  0  0
  190.3610  173.0500  142.1040 O   0  0  0  0  0  1  0  0  0  0  0  0
  184.7100  180.2400  143.8880 O   0  0  0  0  0  1  0  0  0  0  0  0
  187.1110  177.5140  144.6210 C   0  0  0  0  0  0  0  0  0  0  0  0
  190.6600  174.1700  142.8830 C   0  0  2  0  0  3  0  0  0  0  0  0
  188.2130  174.7200  140.9940 C   0  0  0  0  0  0  0  0  0  0  0  0
  188.3690  174.4650  139.5350 C   0  0  0  0  0  1  0  0  0  0  0  0
  187.4440  174.0320  141.6440 O   0  0  0  0  0  0  0  0  0  0  0  0
  1  5  1  0  0  0  0
  1 16  2  0  0  0  0
  3 17  1  0  0  0  0
  6 15  1  6  0  0  0
  6  7  1  0  0  0  0
  7 11  1  0  0  0  0
  9 28  1  1  0  0  0
  9 14  1  0  0  0  0
  9 23  1  0  0  0  0
 10  3  1  0  0  0  0
 11  5  2  0  0  0  0
 11  8  1  0  0  0  0
 12 19  1  1  0  0  0
 12  6  1  0  0  0  0
 13  2  2  0  0  0  0
 14 27  1  0  0  0  0
 17 18  2  0  0  0  0
 17 26  1  0  0  0  0
 18 13  1  0  0  0  0
 19  6  1  0  0  0  0
 20  2  1  0  0  0  0
 20  1  1  0  0  0  0
 21  4  1  6  0  0  0
 21 26  1  0  0  0  0
 22 10  2  0  0  0  0
 23 10  1  6  0  0  0
 23 21  1  0  0  0  0
 25 18  1  0  0  0  0
 26 20  2  0  0  0  0
 27 24  1  6  0  0  0
 27 12  1  0  0  0  0
 28 30  2  0  0  0  0
 29 28  1  0  0  0  0
M  END
>  <MODEL>
5

>  <REMARK>
 VINA RESULT:      -7.6      2.295      4.782
  Name = 
  1 active torsions:
  status: ('A' for Active; 'I' for Inactive)
    1  A    between atoms: C_7  and  C_10
                            x       y       z     vdW  Elec       q    Type
                         _______ _______ _______ _____ _____    ______ ____

>  <TORSDO>
F 1

$$$$
=
 OpenBabel11052417223D

 30 33  0  0  1  0  0  0  0  0999 V2000
  189.2260  177.0640  146.7910 C   0  0  0  0  0  0  0  0  0  0  0  0
  191.2190  175.6100  146.6450 C   0  0  0  0  0  3  0  0  0  0  0  0
  190.3750  174.6620  142.6360 O   0  0  0  0  0  0  0  0  0  0  0  0
  189.2930  177.7690  143.3560 O   0  0  0  0  0  1  0  0  0  0  0  0
  188.0380  176.5110  147.3710 N   0  0  0  0  0  0  0  0  0  0  0  0
  185.7150  178.5400  145.6990 C   0  0  1  0  0  0  0  0  0  0  0  0
  186.6860  178.3710  146.7710 N   0  0  0  0  0  2  0  0  0  0  0  0
  185.7320  176.3850  148.0150 C   0  0  0  0  0  1  0  0  0  0  0  0
  186.9640  176.3540  142.0320 C   0  0  2  0  0  3  0  0  0  0  0  0
  189.1640  175.0190  142.0350 C   0  0  0  0  0  0  0  0  0  0  0  0
  186.8860  177.1070  147.4120 C   0  0  0  0  0  0  0  0  0  0  0  0
  186.3050  178.4270  144.3010 C   0  0  2  0  0  3  0  0  0  0  0  0
  192.0520  174.7400  145.9370 C   0  0  0  0  0  3  0  0  0  0  0  0
  185.6190  176.5310  142.7630 C   0  0  0  0  0  2  0  0  0  0  0  0
  184.2430  178.2910  146.0020 C   0  0  0  0  0  1  0  0  0  0  0  0
  189.4970  178.2880  146.9110 O   0  0  0  0  0  0  0  0  0  0  0  0
  190.6640  174.9970  143.9660 C   0  0  0  0  0  0  0  0  0  0  0  0
  191.7780  174.4340  144.6020 C   0  0  0  0  0  0  0  0  0  0  0  0
  185.9410  179.7910  144.8860 C   0  0  0  0  0  2  0  0  0  0  0  0
  190.1110  176.1890  146.0200 C   0  0  0  0  0  0  0  0  0  0  0  0
  188.7440  176.6180  143.9260 C   0  0  1  0  0  3  0  0  0  0  0  0
  188.9380  174.6760  140.8450 O   0  0  0  0  0  0  0  0  0  0  0  0
  188.1080  175.7210  142.8540 C   0  0  1  0  0  3  0  0  0  0  0  0
  185.1180  178.8390  142.2400 O   0  0  0  0  0  1  0  0  0  0  0  0
  192.6110  173.5610  143.9130 O   0  0  0  0  0  1  0  0  0  0  0  0
  189.8310  175.8900  144.6720 C   0  0  0  0  0  0  0  0  0  0  0  0
  185.2790  177.9320  143.2890 C   0  0  2  0  0  3  0  0  0  0  0  0
  187.3190  177.3610  140.9710 C   0  0  0  0  0  0  0  0  0  0  0  0
  186.6910  177.2570  139.6240 C   0  0  0  0  0  1  0  0  0  0  0  0
  188.1000  178.2700  141.2000 O   0  0  0  0  0  0  0  0  0  0  0  0
  1 16  2  0  0  0  0
  1  5  1  0  0  0  0
  3 17  1  0  0  0  0
  5 11  2  0  0  0  0
  6 15  1  1  0  0  0
  6  7  1  0  0  0  0
  7 11  1  0  0  0  0
  9 28  1  1  0  0  0
  9 14  1  0  0  0  0
  9 23  1  0  0  0  0
 10  3  1  0  0  0  0
 11  8  1  0  0  0  0
 12 19  1  6  0  0  0
 12  6  1  0  0  0  0
 13  2  2  0  0  0  0
 14 27  1  0  0  0  0
 17 18  2  0  0  0  0
 17 26  1  0  0  0  0
 18 13  1  0  0  0  0
 19  6  1  0  0  0  0
 20  2  1  0  0  0  0
 20  1  1  0  0  0  0
 21  4  1  6  0  0  0
 21 26  1  0  0  0  0
 22 10  2  0  0  0  0
 23 10  1  6  0  0  0
 23 21  1  0  0  0  0
 25 18  1  0  0  0  0
 26 20  2  0  0  0  0
 27 24  1  6  0  0  0
 27 12  1  0  0  0  0
 28 30  2  0  0  0  0
 29 28  1  0  0  0  0
M  END
>  <MODEL>
6

>  <REMARK>
 VINA RESULT:      -7.6      2.287      6.765
  Name = 
  1 active torsions:
  status: ('A' for Active; 'I' for Inactive)
    1  A    between atoms: C_7  and  C_10
                            x       y       z     vdW  Elec       q    Type
                         _______ _______ _______ _____ _____    ______ ____

>  <TORSDO>
F 1

$$$$
=
 OpenBabel11052417223D

 30 33  0  0  1  0  0  0  0  0999 V2000
  190.3880  175.9400  146.8790 C   0  0  0  0  0  0  0  0  0  0  0  0
  188.2250  177.1360  146.8880 C   0  0  0  0  0  3  0  0  0  0  0  0
  187.4970  176.0840  142.8830 O   0  0  0  0  0  0  0  0  0  0  0  0
  189.3160  173.6950  144.4060 O   0  0  0  0  0  1  0  0  0  0  0  0
  191.5750  176.7110  146.6600 N   0  0  0  0  0  0  0  0  0  0  0  0
  193.5470  174.1520  145.2920 C   0  0  1  0  0  0  0  0  0  0  0  0
  192.9730  174.7990  146.4630 N   0  0  0  0  0  2  0  0  0  0  0  0
  193.8980  177.1460  146.2520 C   0  0  0  0  0  1  0  0  0  0  0  0
  190.7660  174.3360  141.8240 C   0  0  2  0  0  3  0  0  0  0  0  0
  188.4840  175.4950  142.0850 C   0  0  0  0  0  0  0  0  0  0  0  0
  192.7660  176.2150  146.5130 C   0  0  0  0  0  0  0  0  0  0  0  0
  192.5150  173.5860  144.3260 C   0  0  2  0  0  3  0  0  0  0  0  0
  187.0570  177.5610  146.2500 C   0  0  0  0  0  3  0  0  0  0  0  0
  192.2850  174.5360  141.9850 C   0  0  0  0  0  2  0  0  0  0  0  0
  194.9610  174.5270  144.8700 C   0  0  0  0  0  1  0  0  0  0  0  0
  190.4050  174.9160  147.6120 O   0  0  0  0  0  0  0  0  0  0  0  0
  187.7340  176.4160  144.2240 C   0  0  0  0  0  0  0  0  0  0  0  0
  186.8100  177.2030  144.9220 C   0  0  0  0  0  0  0  0  0  0  0  0
  193.3010  172.6640  145.2560 C   0  0  0  0  0  2  0  0  0  0  0  0
  189.1500  176.3390  146.2070 C   0  0  0  0  0  0  0  0  0  0  0  0
  189.7990  174.9830  144.1630 C   0  0  1  0  0  3  0  0  0  0  0  0
  188.2330  175.2370  140.8790 O   0  0  0  0  0  0  0  0  0  0  0  0
  189.8630  175.2720  142.6560 C   0  0  1  0  0  3  0  0  0  0  0  0
  193.0050  172.2590  142.3700 O   0  0  0  0  0  1  0  0  0  0  0  0
  185.6480  177.6400  144.2990 O   0  0  0  0  0  1  0  0  0  0  0  0
  188.9050  175.9690  144.8700 C   0  0  0  0  0  0  0  0  0  0  0  0
  193.0360  173.5530  142.8940 C   0  0  2  0  0  3  0  0  0  0  0  0
  190.2730  172.9440  141.5300 C   0  0  0  0  0  0  0  0  0  0  0  0
  190.3140  172.4330  140.1320 C   0  0  0  0  0  1  0  0  0  0  0  0
  189.8560  172.2220  142.4210 O   0  0  0  0  0  0  0  0  0  0  0  0
  1 16  2  0  0  0  0
  3 17  1  0  0  0  0
  5  1  1  0  0  0  0
  6 15  1  6  0  0  0
  6  7  1  0  0  0  0
  7 11  1  0  0  0  0
  8 11  1  0  0  0  0
  9 28  1  1  0  0  0
  9 14  1  0  0  0  0
  9 23  1  0  0  0  0
 10  3  1  0  0  0  0
 11  5  2  0  0  0  0
 12 19  1  1  0  0  0
 12  6  1  0  0  0  0
 13  2  1  0  0  0  0
 14 27  1  0  0  0  0
 17 26  2  0  0  0  0
 17 18  1  0  0  0  0
 18 13  2  0  0  0  0
 19  6  1  0  0  0  0
 20  1  1  0  0  0  0
 20  2  2  0  0  0  0
 21  4  1  6  0  0  0
 21 26  1  0  0  0  0
 22 10  2  0  0  0  0
 23 10  1  6  0  0  0
 23 21  1  0  0  0  0
 25 18  1  0  0  0  0
 26 20  1  0  0  0  0
 27 24  1  6  0  0  0
 27 12  1  0  0  0  0
 28 30  2  0  0  0  0
 29 28  1  0  0  0  0
M  END
>  <MODEL>
7

>  <REMARK>
 VINA RESULT:      -7.6      2.733      5.374
  Name = 
  1 active torsions:
  status: ('A' for Active; 'I' for Inactive)
    1  A    between atoms: C_7  and  C_10
                            x       y       z     vdW  Elec       q    Type
                         _______ _______ _______ _____ _____    ______ ____

>  <TORSDO>
F 1

$$$$
=
 OpenBabel11052417223D

 30 33  0  0  1  0  0  0  0  0999 V2000
  188.4630  174.2810  141.2810 C   0  0  0  0  0  0  0  0  0  0  0  0
  189.9110  173.0940  139.6670 C   0  0  0  0  0  3  0  0  0  0  0  0
  193.3810  174.3500  141.6810 O   0  0  0  0  0  0  0  0  0  0  0  0
  190.8320  173.9990  143.8530 O   0  0  0  0  0  1  0  0  0  0  0  0
  187.9780  175.5770  140.9140 N   0  0  0  0  0  0  0  0  0  0  0  0
  187.5740  176.8590  144.1540 C   0  0  1  0  0  0  0  0  0  0  0  0
  187.0790  176.0270  143.0670 N   0  0  0  0  0  2  0  0  0  0  0  0
  186.9050  177.7050  141.1800 C   0  0  0  0  0  1  0  0  0  0  0  0
  192.0150  176.7370  144.3830 C   0  0  2  0  0  3  0  0  0  0  0  0
  193.3350  175.3090  142.6980 C   0  0  0  0  0  0  0  0  0  0  0  0
  187.3080  176.3680  141.6960 C   0  0  0  0  0  0  0  0  0  0  0  0
  188.9080  176.4040  144.7280 C   0  0  2  0  0  3  0  0  0  0  0  0
  191.1720  172.7240  139.1940 C   0  0  0  0  0  3  0  0  0  0  0  0
  190.9710  177.8640  144.5050 C   0  0  0  0  0  2  0  0  0  0  0  0
  187.0670  178.2910  144.2670 C   0  0  0  0  0  1  0  0  0  0  0  0
  187.7790  173.5130  142.0090 O   0  0  0  0  0  0  0  0  0  0  0  0
  192.2220  173.9170  141.0240 C   0  0  0  0  0  0  0  0  0  0  0  0
  192.3250  173.1320  139.8690 C   0  0  0  0  0  0  0  0  0  0  0  0
  187.6060  176.1430  145.4820 C   0  0  0  0  0  2  0  0  0  0  0  0
  189.7920  173.8670  140.8260 C   0  0  0  0  0  0  0  0  0  0  0  0
  190.8510  174.9700  142.8500 C   0  0  1  0  0  3  0  0  0  0  0  0
  194.4070  175.6860  143.2430 O   0  0  0  0  0  0  0  0  0  0  0  0
  192.0160  175.9500  143.0550 C   0  0  1  0  0  3  0  0  0  0  0  0
  190.0000  177.3510  146.6610 O   0  0  0  0  0  1  0  0  0  0  0  0
  193.5730  172.7630  139.3820 O   0  0  0  0  0  1  0  0  0  0  0  0
  190.9500  174.2770  141.5160 C   0  0  0  0  0  0  0  0  0  0  0  0
  189.7010  177.5660  145.3140 C   0  0  2  0  0  3  0  0  0  0  0  0
  192.4110  176.0120  145.6420 C   0  0  0  0  0  0  0  0  0  0  0  0
  193.4750  176.5850  146.5130 C   0  0  0  0  0  1  0  0  0  0  0  0
  191.8630  174.9730  145.9700 O   0  0  0  0  0  0  0  0  0  0  0  0
  1 16  2  0  0  0  0
  2 20  1  0  0  0  0
  3 10  1  0  0  0  0
  5  1  1  0  0  0  0
  5 11  2  0  0  0  0
  6 15  1  6  0  0  0
  6 12  1  0  0  0  0
  6 19  1  0  0  0  0
  7  6  1  0  0  0  0
  8 11  1  0  0  0  0
  9 14  1  0  0  0  0
  9 28  1  1  0  0  0
 10 22  2  0  0  0  0
 11  7  1  0  0  0  0
 12 27  1  0  0  0  0
 12 19  1  1  0  0  0
 13  2  2  0  0  0  0
 13 18  1  0  0  0  0
 14 27  1  0  0  0  0
 17 26  1  0  0  0  0
 17  3  1  0  0  0  0
 18 17  2  0  0  0  0
 20  1  1  0  0  0  0
 20 26  2  0  0  0  0
 21 23  1  0  0  0  0
 21  4  1  1  0  0  0
 23 10  1  1  0  0  0
 23  9  1  0  0  0  0
 25 18  1  0  0  0  0
 26 21  1  0  0  0  0
 27 24  1  1  0  0  0
 28 30  2  0  0  0  0
 28 29  1  0  0  0  0
M  END
>  <MODEL>
8

>  <REMARK>
 VINA RESULT:      -7.5      2.464      5.987
  Name = 
  1 active torsions:
  status: ('A' for Active; 'I' for Inactive)
    1  A    between atoms: C_7  and  C_10
                            x       y       z     vdW  Elec       q    Type
                         _______ _______ _______ _____ _____    ______ ____

>  <TORSDO>
F 1

$$$$
=
 OpenBabel11052417223D

 30 33  0  0  1  0  0  0  0  0999 V2000
  191.2600  177.2470  144.7920 C   0  0  0  0  0  0  0  0  0  0  0  0
  193.4260  176.7910  145.8930 C   0  0  0  0  0  3  0  0  0  0  0  0
  193.7260  173.0450  144.0060 O   0  0  0  0  0  0  0  0  0  0  0  0
  192.0480  175.2100  142.0470 O   0  0  0  0  0  1  0  0  0  0  0  0
  190.0660  176.9880  145.5370 N   0  0  0  0  0  0  0  0  0  0  0  0
  187.9360  176.3910  142.8140 C   0  0  1  0  0  0  0  0  0  0  0  0
  188.6340  177.3370  143.6720 N   0  0  0  0  0  2  0  0  0  0  0  0
  187.7180  176.7280  145.9520 C   0  0  0  0  0  1  0  0  0  0  0  0
  190.3470  172.7060  142.1810 C   0  0  2  0  0  3  0  0  0  0  0  0
  192.6560  172.4910  143.2960 C   0  0  0  0  0  0  0  0  0  0  0  0
  188.8610  177.0670  145.0600 C   0  0  0  0  0  0  0  0  0  0  0  0
  188.8560  175.4690  142.0260 C   0  0  2  0  0  3  0  0  0  0  0  0
  194.5260  175.9660  146.1380 C   0  0  0  0  0  3  0  0  0  0  0  0
  188.8550  172.9700  142.4600 C   0  0  0  0  0  2  0  0  0  0  0  0
  186.4900  176.0410  143.1380 C   0  0  0  0  0  1  0  0  0  0  0  0
  191.3080  178.1780  143.9440 O   0  0  0  0  0  0  0  0  0  0  0  0
  193.6320  174.3030  144.6170 C   0  0  0  0  0  0  0  0  0  0  0  0
  194.6310  174.7260  145.5030 C   0  0  0  0  0  0  0  0  0  0  0  0
  188.1610  176.6460  141.3440 C   0  0  0  0  0  2  0  0  0  0  0  0
  192.4270  176.3870  145.0020 C   0  0  0  0  0  0  0  0  0  0  0  0
  191.5570  174.7490  143.2710 C   0  0  1  0  0  3  0  0  0  0  0  0
  192.7790  171.3470  142.7840 O   0  0  0  0  0  0  0  0  0  0  0  0
  191.3410  173.2290  143.2410 C   0  0  1  0  0  3  0  0  0  0  0  0
  188.1540  173.8940  140.3370 O   0  0  0  0  0  1  0  0  0  0  0  0
  195.7280  173.9130  145.7630 O   0  0  0  0  0  1  0  0  0  0  0  0
  192.5290  175.1410  144.3530 C   0  0  0  0  0  0  0  0  0  0  0  0
  188.1910  174.1350  141.7120 C   0  0  2  0  0  3  0  0  0  0  0  0
  190.7920  172.6650  140.7440 C   0  0  0  0  0  0  0  0  0  0  0  0
  190.5950  171.4190  139.9520 C   0  0  0  0  0  1  0  0  0  0  0  0
  191.2970  173.6400  140.2120 O   0  0  0  0  0  0  0  0  0  0  0  0
  1 20  1  0  0  0  0
  1  5  1  0  0  0  0
  2 13  1  0  0  0  0
  3 17  1  0  0  0  0
  6 15  1  1  0  0  0
  6  7  1  0  0  0  0
  7 11  1  0  0  0  0
  9 28  1  6  0  0  0
  9 14  1  0  0  0  0
  9 23  1  0  0  0  0
 10  3  1  0  0  0  0
 11  5  2  0  0  0  0
 11  8  1  0  0  0  0
 12 19  1  6  0  0  0
 12  6  1  0  0  0  0
 16  1  2  0  0  0  0
 17 18  1  0  0  0  0
 18 25  1  0  0  0  0
 18 13  2  0  0  0  0
 19  6  1  0  0  0  0
 20  2  2  0  0  0  0
 21  4  1  6  0  0  0
 21 26  1  0  0  0  0
 22 10  2  0  0  0  0
 23 21  1  0  0  0  0
 23 10  1  6  0  0  0
 26 17  2  0  0  0  0
 26 20  1  0  0  0  0
 27 24  1  6  0  0  0
 27 12  1  0  0  0  0
 27 14  1  0  0  0  0
 29 28  1  0  0  0  0
 30 28  2  0  0  0  0
M  END
>  <MODEL>
9

>  <REMARK>
 VINA RESULT:      -7.3      2.961      7.069
  Name = 
  1 active torsions:
  status: ('A' for Active; 'I' for Inactive)
    1  A    between atoms: C_7  and  C_10
                            x       y       z     vdW  Elec       q    Type
                         _______ _______ _______ _____ _____    ______ ____

>  <TORSDO>
F 1

$$$$
