=
 OpenBabel11052420243D

 34 39  0  0  1  0  0  0  0  0999 V2000
  191.5410  173.2230  144.0350 C   0  0  0  0  0  0  0  0  0  0  0  0
  190.1160  172.1200  140.7850 C   0  0  0  0  0  3  0  0  0  0  0  0
  192.0750  171.4630  141.9680 N   0  0  0  0  0  0  0  0  0  0  0  0
  191.9490  174.7130  146.0550 C   0  0  0  0  0  0  0  0  0  0  0  0
  191.1690  174.1290  145.1430 C   0  0  0  0  0  3  0  0  0  0  0  0
  194.1460  173.5780  145.7080 C   0  0  0  0  0  3  0  0  0  0  0  0
  194.3690  171.1660  145.4060 C   0  0  0  0  0  1  0  0  0  0  0  0
  193.4130  174.6130  146.1010 C   0  0  0  0  0  3  0  0  0  0  0  0
  192.8980  171.5410  143.0120 N   0  0  0  0  0  0  0  0  0  0  0  0
  192.6840  172.3940  144.0530 C   0  0  0  0  0  0  0  0  0  0  0  0
  193.6080  172.3790  145.1530 N   0  0  0  0  0  0  0  0  0  0  0  0
  188.9590  172.8990  140.6960 C   0  0  0  0  0  0  0  0  0  0  0  0
  188.6570  173.7940  141.7330 C   0  0  0  0  0  3  0  0  0  0  0  0
  190.9640  172.2290  141.8920 C   0  0  0  0  0  0  0  0  0  0  0  0
  189.5000  173.9080  142.8410 C   0  0  0  0  0  3  0  0  0  0  0  0
  190.6640  173.1260  142.9340 C   0  0  0  0  0  0  0  0  0  0  0  0
  191.3010  175.6650  147.0040 C   0  0  0  0  0  2  0  0  0  0  0  0
  189.1820  177.7960  144.6910 C   0  0  0  0  0  3  0  0  0  0  0  0
  188.8410  176.1280  146.9210 C   0  0  0  0  0  3  0  0  0  0  0  0
  185.5190  178.0330  145.1870 C   0  0  0  0  0  0  0  0  0  0  0  0
  186.8000  178.2350  144.6540 C   0  0  0  0  0  3  0  0  0  0  0  0
  187.9060  177.6010  145.2250 C   0  0  0  0  0  0  0  0  0  0  0  0
  186.4600  176.5740  146.8890 C   0  0  0  0  0  3  0  0  0  0  0  0
  187.7340  176.7610  146.3490 C   0  0  0  0  0  0  0  0  0  0  0  0
  185.3560  177.2110  146.3120 C   0  0  0  0  0  3  0  0  0  0  0  0
  190.1160  176.3220  146.3780 C   0  0  0  0  0  0  0  0  0  0  0  0
  190.2860  177.1580  145.2670 C   0  0  0  0  0  3  0  0  0  0  0  0
  184.3380  178.7400  144.6020 C   0  0  2  0  0  3  0  0  0  0  0  0
  184.1200  178.3290  143.1960 C   0  0  0  0  0  2  0  0  0  0  0  0
  184.7530  179.5410  143.5190 O   0  0  0  0  0  0  0  0  0  0  0  0
  188.1430  172.7510  139.5630 O   0  0  0  0  0  0  0  0  0  0  0  0
  187.8030  174.5640  138.1450 O   0  0  0  0  0  0  0  0  0  0  0  0
  189.0540  172.7630  137.2460 C   0  0  0  0  0  1  0  0  0  0  0  0
  188.2940  173.4210  138.3400 C   0  0  0  0  0  0  0  0  0  0  0  0
  1 10  1  0  0  0  0
  1  5  1  0  0  0  0
  2 14  1  0  0  0  0
  3  9  1  0  0  0  0
  4  8  1  0  0  0  0
  4 17  1  0  0  0  0
  5  4  2  0  0  0  0
  6  8  2  0  0  0  0
  9 10  2  0  0  0  0
 10 11  1  0  0  0  0
 11  7  1  0  0  0  0
 11  6  1  0  0  0  0
 12  2  2  0  0  0  0
 12 13  1  0  0  0  0
 13 15  2  0  0  0  0
 14  3  2  0  0  0  0
 14 16  1  0  0  0  0
 15 16  1  0  0  0  0
 16  1  2  0  0  0  0
 18 22  2  0  0  0  0
 18 27  1  0  0  0  0
 20 25  1  0  0  0  0
 21 20  2  0  0  0  0
 21 22  1  0  0  0  0
 22 24  1  0  0  0  0
 24 23  1  0  0  0  0
 24 19  2  0  0  0  0
 25 23  2  0  0  0  0
 26 19  1  0  0  0  0
 26 17  1  0  0  0  0
 27 26  2  0  0  0  0
 28 20  1  6  0  0  0
 29 30  1  0  0  0  0
 29 28  1  0  0  0  0
 30 28  1  0  0  0  0
 31 12  1  0  0  0  0
 32 34  2  0  0  0  0
 33 34  1  0  0  0  0
 34 31  1  0  0  0  0
M  END
>  <MODEL>
1

>  <REMARK>
 VINA RESULT:      -8.5      0.000      0.000
  Name = 
  5 active torsions:
  status: ('A' for Active; 'I' for Inactive)
    1  A    between atoms: C_7  and  C_11
    2  A    between atoms: C_8  and  C_18
    3  A    between atoms: C_18  and  C_30
    4  A    between atoms: O_23  and  C_24
    5  A    between atoms: O_23  and  C_25
                            x       y       z     vdW  Elec       q    Type
                         _______ _______ _______ _____ _____    ______ ____

>  <TORSDO>
F 5

$$$$
=
 OpenBabel11052420243D

 34 39  0  0  1  0  0  0  0  0999 V2000
  187.1480  176.8300  143.5630 C   0  0  0  0  0  0  0  0  0  0  0  0
  187.4350  175.9050  139.9760 C   0  0  0  0  0  3  0  0  0  0  0  0
  186.2110  177.6220  141.0830 N   0  0  0  0  0  0  0  0  0  0  0  0
  187.2580  176.5670  146.0900 C   0  0  0  0  0  0  0  0  0  0  0  0
  187.7350  176.4100  144.8540 C   0  0  0  0  0  3  0  0  0  0  0  0
  185.3350  178.1220  145.7450 C   0  0  0  0  0  3  0  0  0  0  0  0
  185.4570  180.0980  144.3170 C   0  0  0  0  0  1  0  0  0  0  0  0
  185.9600  177.1680  146.4240 C   0  0  0  0  0  3  0  0  0  0  0  0
  185.8360  178.2750  142.1800 N   0  0  0  0  0  0  0  0  0  0  0  0
  186.2640  177.9230  143.4260 C   0  0  0  0  0  0  0  0  0  0  0  0
  185.8350  178.7130  144.5460 N   0  0  0  0  0  0  0  0  0  0  0  0
  188.3140  174.8190  140.0260 C   0  0  0  0  0  0  0  0  0  0  0  0
  188.8130  174.4010  141.2690 C   0  0  0  0  0  3  0  0  0  0  0  0
  187.0560  176.5680  141.1470 C   0  0  0  0  0  0  0  0  0  0  0  0
  188.4370  175.0590  142.4430 C   0  0  0  0  0  3  0  0  0  0  0  0
  187.5530  176.1510  142.3960 C   0  0  0  0  0  0  0  0  0  0  0  0
  188.0280  175.9470  147.2080 C   0  0  0  0  0  2  0  0  0  0  0  0
  190.8220  173.9350  145.6170 C   0  0  0  0  0  3  0  0  0  0  0  0
  190.5040  176.3050  147.0850 C   0  0  0  0  0  3  0  0  0  0  0  0
  194.3340  175.0860  145.8550 C   0  0  0  0  0  0  0  0  0  0  0  0
  193.2150  174.3050  145.5360 C   0  0  0  0  0  3  0  0  0  0  0  0
  191.9390  174.7090  145.9400 C   0  0  0  0  0  0  0  0  0  0  0  0
  192.8980  176.6710  147.0100 C   0  0  0  0  0  3  0  0  0  0  0  0
  191.7800  175.9030  146.6800 C   0  0  0  0  0  0  0  0  0  0  0  0
  194.1720  176.2620  146.6030 C   0  0  0  0  0  3  0  0  0  0  0  0
  189.3880  175.5290  146.7530 C   0  0  0  0  0  0  0  0  0  0  0  0
  189.5480  174.3440  146.0240 C   0  0  0  0  0  3  0  0  0  0  0  0
  195.7050  174.6380  145.4570 C   0  0  2  0  0  3  0  0  0  0  0  0
  196.1460  175.3230  144.2200 C   0  0  0  0  0  2  0  0  0  0  0  0
  195.6510  174.0080  144.1970 O   0  0  0  0  0  0  0  0  0  0  0  0
  188.6620  174.1890  138.8200 O   0  0  0  0  0  0  0  0  0  0  0  0
  189.2280  171.9330  138.7570 O   0  0  0  0  0  0  0  0  0  0  0  0
  191.0030  173.4600  138.3910 C   0  0  0  0  0  1  0  0  0  0  0  0
  189.5790  173.1390  138.6680 C   0  0  0  0  0  0  0  0  0  0  0  0
  1  5  1  0  0  0  0
  2 12  2  0  0  0  0
  2 14  1  0  0  0  0
  3 14  2  0  0  0  0
  3  9  1  0  0  0  0
  4  8  1  0  0  0  0
  4 17  1  0  0  0  0
  5  4  2  0  0  0  0
  6  8  2  0  0  0  0
  7 11  1  0  0  0  0
  9 10  2  0  0  0  0
 10  1  1  0  0  0  0
 10 11  1  0  0  0  0
 11  6  1  0  0  0  0
 12 13  1  0  0  0  0
 13 15  2  0  0  0  0
 14 16  1  0  0  0  0
 16 15  1  0  0  0  0
 16  1  2  0  0  0  0
 18 22  2  0  0  0  0
 18 27  1  0  0  0  0
 20 25  1  0  0  0  0
 21 20  2  0  0  0  0
 21 22  1  0  0  0  0
 22 24  1  0  0  0  0
 24 23  1  0  0  0  0
 24 19  2  0  0  0  0
 25 23  2  0  0  0  0
 26 19  1  0  0  0  0
 26 17  1  0  0  0  0
 27 26  2  0  0  0  0
 28 20  1  6  0  0  0
 29 28  1  0  0  0  0
 30 29  1  0  0  0  0
 30 28  1  0  0  0  0
 31 12  1  0  0  0  0
 33 34  1  0  0  0  0
 34 32  2  0  0  0  0
 34 31  1  0  0  0  0
M  END
>  <MODEL>
2

>  <REMARK>
 VINA RESULT:      -8.5      3.514      6.949
  Name = 
  5 active torsions:
  status: ('A' for Active; 'I' for Inactive)
    1  A    between atoms: C_7  and  C_11
    2  A    between atoms: C_8  and  C_18
    3  A    between atoms: C_18  and  C_30
    4  A    between atoms: O_23  and  C_24
    5  A    between atoms: O_23  and  C_25
                            x       y       z     vdW  Elec       q    Type
                         _______ _______ _______ _____ _____    ______ ____

>  <TORSDO>
F 5

$$$$
=
 OpenBabel11052420243D

 34 39  0  0  1  0  0  0  0  0999 V2000
  193.0240  173.5650  144.4200 C   0  0  0  0  0  0  0  0  0  0  0  0
  191.9970  171.7410  141.3500 C   0  0  0  0  0  3  0  0  0  0  0  0
  194.0960  171.9350  142.4580 N   0  0  0  0  0  0  0  0  0  0  0  0
  192.9270  175.2750  146.3000 C   0  0  0  0  0  0  0  0  0  0  0  0
  192.3830  174.3720  145.4810 C   0  0  0  0  0  3  0  0  0  0  0  0
  195.3740  174.9740  145.9050 C   0  0  0  0  0  3  0  0  0  0  0  0
  196.4440  172.7850  145.7640 C   0  0  0  0  0  1  0  0  0  0  0  0
  194.3290  175.7100  146.2650 C   0  0  0  0  0  3  0  0  0  0  0  0
  194.8660  172.3950  143.4420 N   0  0  0  0  0  0  0  0  0  0  0  0
  194.3890  173.2040  144.4300 C   0  0  0  0  0  0  0  0  0  0  0  0
  195.2890  173.6180  145.4700 N   0  0  0  0  0  0  0  0  0  0  0  0
  190.6340  172.0440  141.2740 C   0  0  0  0  0  0  0  0  0  0  0  0
  190.0610  172.8600  142.2610 C   0  0  0  0  0  3  0  0  0  0  0  0
  192.7810  172.2430  142.3930 C   0  0  0  0  0  0  0  0  0  0  0  0
  190.8390  173.3660  143.3050 C   0  0  0  0  0  3  0  0  0  0  0  0
  192.2090  173.0630  143.3840 C   0  0  0  0  0  0  0  0  0  0  0  0
  192.0080  176.0130  147.2160 C   0  0  0  0  0  2  0  0  0  0  0  0
  189.7980  177.7030  144.6380 C   0  0  0  0  0  3  0  0  0  0  0  0
  189.5200  176.2070  146.9960 C   0  0  0  0  0  3  0  0  0  0  0  0
  186.1100  177.5990  144.9710 C   0  0  0  0  0  0  0  0  0  0  0  0
  187.3880  177.8870  144.4710 C   0  0  0  0  0  3  0  0  0  0  0  0
  188.5240  177.4230  145.1390 C   0  0  0  0  0  0  0  0  0  0  0  0
  187.1100  176.3980  146.8320 C   0  0  0  0  0  3  0  0  0  0  0  0
  188.3830  176.6700  146.3270 C   0  0  0  0  0  0  0  0  0  0  0  0
  185.9770  176.8650  146.1580 C   0  0  0  0  0  3  0  0  0  0  0  0
  190.7930  176.4860  146.4870 C   0  0  0  0  0  0  0  0  0  0  0  0
  190.9310  177.2360  145.3120 C   0  0  0  0  0  3  0  0  0  0  0  0
  184.8930  178.1260  144.2780 C   0  0  2  0  0  3  0  0  0  0  0  0
  184.7850  179.5930  144.4450 C   0  0  0  0  0  2  0  0  0  0  0  0
  184.0240  178.7070  145.2240 O   0  0  0  0  0  0  0  0  0  0  0  0
  189.8940  171.5140  140.2060 O   0  0  0  0  0  0  0  0  0  0  0  0
  187.9860  172.5880  139.4160 O   0  0  0  0  0  0  0  0  0  0  0  0
  189.8750  172.6370  137.9850 C   0  0  0  0  0  1  0  0  0  0  0  0
  189.1870  172.2480  139.2420 C   0  0  0  0  0  0  0  0  0  0  0  0
  1 10  1  0  0  0  0
  1  5  1  0  0  0  0
  2 14  1  0  0  0  0
  3  9  1  0  0  0  0
  4 17  1  0  0  0  0
  5  4  2  0  0  0  0
  6  8  2  0  0  0  0
  8  4  1  0  0  0  0
  9 10  2  0  0  0  0
 10 11  1  0  0  0  0
 11  7  1  0  0  0  0
 11  6  1  0  0  0  0
 12  2  2  0  0  0  0
 12 13  1  0  0  0  0
 13 15  2  0  0  0  0
 14  3  2  0  0  0  0
 14 16  1  0  0  0  0
 15 16  1  0  0  0  0
 16  1  2  0  0  0  0
 18 22  2  0  0  0  0
 18 27  1  0  0  0  0
 20 25  1  0  0  0  0
 21 20  2  0  0  0  0
 21 22  1  0  0  0  0
 22 24  1  0  0  0  0
 24 23  1  0  0  0  0
 24 19  2  0  0  0  0
 25 23  2  0  0  0  0
 26 19  1  0  0  0  0
 26 17  1  0  0  0  0
 27 26  2  0  0  0  0
 28 29  1  0  0  0  0
 28 20  1  1  0  0  0
 28 30  1  0  0  0  0
 29 30  1  0  0  0  0
 31 12  1  0  0  0  0
 33 34  1  0  0  0  0
 34 32  2  0  0  0  0
 34 31  1  0  0  0  0
M  END
>  <MODEL>
3

>  <REMARK>
 VINA RESULT:      -8.3      1.263      1.569
  Name = 
  5 active torsions:
  status: ('A' for Active; 'I' for Inactive)
    1  A    between atoms: C_7  and  C_11
    2  A    between atoms: C_8  and  C_18
    3  A    between atoms: C_18  and  C_30
    4  A    between atoms: O_23  and  C_24
    5  A    between atoms: O_23  and  C_25
                            x       y       z     vdW  Elec       q    Type
                         _______ _______ _______ _____ _____    ______ ____

>  <TORSDO>
F 5

$$$$
=
 OpenBabel11052420243D

 34 39  0  0  1  0  0  0  0  0999 V2000
  193.4130  174.9120  143.1210 C   0  0  0  0  0  0  0  0  0  0  0  0
  192.1510  173.9070  139.7730 C   0  0  0  0  0  3  0  0  0  0  0  0
  194.2460  174.7870  140.4850 N   0  0  0  0  0  0  0  0  0  0  0  0
  193.3390  175.6270  145.5600 C   0  0  0  0  0  0  0  0  0  0  0  0
  192.9410  174.8890  144.5220 C   0  0  0  0  0  3  0  0  0  0  0  0
  195.3750  176.7700  144.6740 C   0  0  0  0  0  3  0  0  0  0  0  0
  197.0940  175.6180  143.3780 C   0  0  0  0  0  1  0  0  0  0  0  0
  194.3350  176.7050  145.4960 C   0  0  0  0  0  3  0  0  0  0  0  0
  195.0720  175.2360  141.4280 N   0  0  0  0  0  0  0  0  0  0  0  0
  194.7100  175.3220  142.7400 C   0  0  0  0  0  0  0  0  0  0  0  0
  195.6830  175.7830  143.6900 N   0  0  0  0  0  0  0  0  0  0  0  0
  190.8560  173.4730  140.0700 C   0  0  0  0  0  0  0  0  0  0  0  0
  190.4090  173.5160  141.3990 C   0  0  0  0  0  3  0  0  0  0  0  0
  192.9930  174.3780  140.7850 C   0  0  0  0  0  0  0  0  0  0  0  0
  191.2450  173.9860  142.4150 C   0  0  0  0  0  3  0  0  0  0  0  0
  192.5480  174.4230  142.1200 C   0  0  0  0  0  0  0  0  0  0  0  0
  192.6060  175.4530  146.8480 C   0  0  0  0  0  2  0  0  0  0  0  0
  188.8430  175.2860  147.2860 C   0  0  0  0  0  3  0  0  0  0  0  0
  190.7220  176.6490  145.7100 C   0  0  0  0  0  3  0  0  0  0  0  0
  186.6150  177.3750  145.1900 C   0  0  0  0  0  0  0  0  0  0  0  0
  187.0470  176.4470  146.1480 C   0  0  0  0  0  3  0  0  0  0  0  0
  188.4110  176.2050  146.3270 C   0  0  0  0  0  0  0  0  0  0  0  0
  188.9250  177.8040  144.5670 C   0  0  0  0  0  3  0  0  0  0  0  0
  189.3570  176.8920  145.5320 C   0  0  0  0  0  0  0  0  0  0  0  0
  187.5580  178.0410  144.3930 C   0  0  0  0  0  3  0  0  0  0  0  0
  191.1490  175.7320  146.6760 C   0  0  0  0  0  0  0  0  0  0  0  0
  190.2110  175.0490  147.4590 C   0  0  0  0  0  3  0  0  0  0  0  0
  185.1540  177.6080  144.9700 C   0  0  2  0  0  3  0  0  0  0  0  0
  184.6860  178.7840  145.7390 C   0  0  0  0  0  2  0  0  0  0  0  0
  184.4630  177.4730  146.1910 O   0  0  0  0  0  0  0  0  0  0  0  0
  190.0520  173.0100  139.0150 O   0  0  0  0  0  0  0  0  0  0  0  0
  187.8420  172.4020  139.4160 O   0  0  0  0  0  0  0  0  0  0  0  0
  188.1620  174.3500  138.1060 C   0  0  0  0  0  1  0  0  0  0  0  0
  188.6670  173.1920  138.8870 C   0  0  0  0  0  0  0  0  0  0  0  0
  1  5  1  0  0  0  0
  2 12  2  0  0  0  0
  2 14  1  0  0  0  0
  3 14  2  0  0  0  0
  3  9  1  0  0  0  0
  4 17  1  0  0  0  0
  5  4  2  0  0  0  0
  6  8  2  0  0  0  0
  7 11  1  0  0  0  0
  8  4  1  0  0  0  0
  9 10  2  0  0  0  0
 10  1  1  0  0  0  0
 10 11  1  0  0  0  0
 11  6  1  0  0  0  0
 12 13  1  0  0  0  0
 13 15  2  0  0  0  0
 14 16  1  0  0  0  0
 16 15  1  0  0  0  0
 16  1  2  0  0  0  0
 18 27  1  0  0  0  0
 19 26  1  0  0  0  0
 20 21  2  0  0  0  0
 21 22  1  0  0  0  0
 22 18  2  0  0  0  0
 23 24  1  0  0  0  0
 24 19  2  0  0  0  0
 24 22  1  0  0  0  0
 25 23  2  0  0  0  0
 25 20  1  0  0  0  0
 26 17  1  0  0  0  0
 26 27  2  0  0  0  0
 28 20  1  1  0  0  0
 28 29  1  0  0  0  0
 28 30  1  0  0  0  0
 29 30  1  0  0  0  0
 31 12  1  0  0  0  0
 33 34  1  0  0  0  0
 34 31  1  0  0  0  0
 34 32  2  0  0  0  0
M  END
>  <MODEL>
4

>  <REMARK>
 VINA RESULT:      -8.3      2.258      2.832
  Name = 
  5 active torsions:
  status: ('A' for Active; 'I' for Inactive)
    1  A    between atoms: C_7  and  C_11
    2  A    between atoms: C_8  and  C_18
    3  A    between atoms: C_18  and  C_30
    4  A    between atoms: O_23  and  C_24
    5  A    between atoms: O_23  and  C_25
                            x       y       z     vdW  Elec       q    Type
                         _______ _______ _______ _____ _____    ______ ____

>  <TORSDO>
F 5

$$$$
=
 OpenBabel11052420243D

 34 39  0  0  1  0  0  0  0  0999 V2000
  187.0680  177.2500  144.6110 C   0  0  0  0  0  0  0  0  0  0  0  0
  186.0830  178.0760  141.1250 C   0  0  0  0  0  3  0  0  0  0  0  0
  185.3700  178.9400  143.2260 N   0  0  0  0  0  0  0  0  0  0  0  0
  188.0240  175.9000  146.5430 C   0  0  0  0  0  0  0  0  0  0  0  0
  188.0440  176.3760  145.2960 C   0  0  0  0  0  3  0  0  0  0  0  0
  186.1530  177.1800  147.5900 C   0  0  0  0  0  3  0  0  0  0  0  0
  185.8510  179.5840  147.2910 C   0  0  0  0  0  1  0  0  0  0  0  0
  186.9390  176.1140  147.5100 C   0  0  0  0  0  3  0  0  0  0  0  0
  185.4150  178.9790  144.5560 N   0  0  0  0  0  0  0  0  0  0  0  0
  186.2290  178.1640  145.2870 C   0  0  0  0  0  0  0  0  0  0  0  0
  186.2360  178.3060  146.7160 N   0  0  0  0  0  0  0  0  0  0  0  0
  186.8870  177.2070  140.3820 C   0  0  0  0  0  0  0  0  0  0  0  0
  187.7650  176.3450  141.0570 C   0  0  0  0  0  3  0  0  0  0  0  0
  186.1490  178.0890  142.5210 C   0  0  0  0  0  0  0  0  0  0  0  0
  187.8350  176.3520  142.4520 C   0  0  0  0  0  3  0  0  0  0  0  0
  187.0270  177.2250  143.2020 C   0  0  0  0  0  0  0  0  0  0  0  0
  189.1060  174.9500  146.9330 C   0  0  0  0  0  2  0  0  0  0  0  0
  191.3640  174.3860  143.9390 C   0  0  0  0  0  3  0  0  0  0  0  0
  191.3670  175.8470  146.3340 C   0  0  0  0  0  3  0  0  0  0  0  0
  194.6580  176.0670  143.7290 C   0  0  0  0  0  0  0  0  0  0  0  0
  193.5600  175.2590  143.4030 C   0  0  0  0  0  3  0  0  0  0  0  0
  192.4620  175.1860  144.2650 C   0  0  0  0  0  0  0  0  0  0  0  0
  193.5660  176.7130  145.8020 C   0  0  0  0  0  3  0  0  0  0  0  0
  192.4650  175.9210  145.4720 C   0  0  0  0  0  0  0  0  0  0  0  0
  194.6610  176.7830  144.9350 C   0  0  0  0  0  3  0  0  0  0  0  0
  190.2670  175.0490  146.0000 C   0  0  0  0  0  0  0  0  0  0  0  0
  190.2680  174.3170  144.8060 C   0  0  0  0  0  3  0  0  0  0  0  0
  195.8500  176.1190  142.8270 C   0  0  2  0  0  3  0  0  0  0  0  0
  197.0030  175.4150  143.4350 C   0  0  0  0  0  2  0  0  0  0  0  0
  196.8970  176.8160  143.4640 O   0  0  0  0  0  0  0  0  0  0  0  0
  186.7810  177.2360  138.9830 O   0  0  0  0  0  0  0  0  0  0  0  0
  187.5360  175.1560  138.2600 O   0  0  0  0  0  0  0  0  0  0  0  0
  185.7190  176.0800  137.0510 C   0  0  0  0  0  1  0  0  0  0  0  0
  186.7370  176.1210  138.1320 C   0  0  0  0  0  0  0  0  0  0  0  0
  1 10  1  0  0  0  0
  1  5  1  0  0  0  0
  2 14  1  0  0  0  0
  3  9  1  0  0  0  0
  4 17  1  0  0  0  0
  4  8  1  0  0  0  0
  5  4  2  0  0  0  0
  8  6  2  0  0  0  0
  9 10  2  0  0  0  0
 10 11  1  0  0  0  0
 11  7  1  0  0  0  0
 11  6  1  0  0  0  0
 12 13  1  0  0  0  0
 12  2  2  0  0  0  0
 13 15  2  0  0  0  0
 14 16  1  0  0  0  0
 14  3  2  0  0  0  0
 15 16  1  0  0  0  0
 16  1  2  0  0  0  0
 18 22  2  0  0  0  0
 18 27  1  0  0  0  0
 20 25  1  0  0  0  0
 21 20  2  0  0  0  0
 21 22  1  0  0  0  0
 22 24  1  0  0  0  0
 24 23  1  0  0  0  0
 24 19  2  0  0  0  0
 25 23  2  0  0  0  0
 26 19  1  0  0  0  0
 26 17  1  0  0  0  0
 27 26  2  0  0  0  0
 28 29  1  0  0  0  0
 28 30  1  0  0  0  0
 28 20  1  1  0  0  0
 29 30  1  0  0  0  0
 31 12  1  0  0  0  0
 33 34  1  0  0  0  0
 34 32  2  0  0  0  0
 34 31  1  0  0  0  0
M  END
>  <MODEL>
5

>  <REMARK>
 VINA RESULT:      -8.1      4.132      7.295
  Name = 
  5 active torsions:
  status: ('A' for Active; 'I' for Inactive)
    1  A    between atoms: C_7  and  C_11
    2  A    between atoms: C_8  and  C_18
    3  A    between atoms: C_18  and  C_30
    4  A    between atoms: O_23  and  C_24
    5  A    between atoms: O_23  and  C_25
                            x       y       z     vdW  Elec       q    Type
                         _______ _______ _______ _____ _____    ______ ____

>  <TORSDO>
F 5

$$$$
=
 OpenBabel11052420243D

 34 39  0  0  1  0  0  0  0  0999 V2000
  188.5590  175.6840  143.9530 C   0  0  0  0  0  0  0  0  0  0  0  0
  188.5810  174.5860  140.4030 C   0  0  0  0  0  3  0  0  0  0  0  0
  187.2320  176.1610  141.5730 N   0  0  0  0  0  0  0  0  0  0  0  0
  188.9970  175.6030  146.4570 C   0  0  0  0  0  0  0  0  0  0  0  0
  189.3490  175.4420  145.1800 C   0  0  0  0  0  3  0  0  0  0  0  0
  186.8220  176.8180  146.2800 C   0  0  0  0  0  3  0  0  0  0  0  0
  186.4630  178.6940  144.7600 C   0  0  0  0  0  1  0  0  0  0  0  0
  187.6660  176.0170  146.9200 C   0  0  0  0  0  3  0  0  0  0  0  0
  186.8840  176.8180  142.6770 N   0  0  0  0  0  0  0  0  0  0  0  0
  187.5020  176.6170  143.8760 C   0  0  0  0  0  0  0  0  0  0  0  0
  187.0820  177.4020  145.0030 N   0  0  0  0  0  0  0  0  0  0  0  0
  189.6230  173.6540  140.3940 C   0  0  0  0  0  0  0  0  0  0  0  0
  190.3200  173.3970  141.5850 C   0  0  0  0  0  3  0  0  0  0  0  0
  188.2360  175.2560  141.5810 C   0  0  0  0  0  0  0  0  0  0  0  0
  189.9800  174.0630  142.7650 C   0  0  0  0  0  3  0  0  0  0  0  0
  188.9330  175.0010  142.7770 C   0  0  0  0  0  0  0  0  0  0  0  0
  189.9780  175.1810  147.4990 C   0  0  0  0  0  2  0  0  0  0  0  0
  193.4160  176.5880  146.7340 C   0  0  0  0  0  3  0  0  0  0  0  0
  191.9420  174.2500  146.2530 C   0  0  0  0  0  3  0  0  0  0  0  0
  195.8600  174.6100  144.7750 C   0  0  0  0  0  0  0  0  0  0  0  0
  195.2870  175.6610  145.5040 C   0  0  0  0  0  3  0  0  0  0  0  0
  193.9860  175.5440  146.0010 C   0  0  0  0  0  0  0  0  0  0  0  0
  193.8100  173.3270  145.0170 C   0  0  0  0  0  3  0  0  0  0  0  0
  193.2430  174.3660  145.7580 C   0  0  0  0  0  0  0  0  0  0  0  0
  195.1120  173.4500  144.5230 C   0  0  0  0  0  3  0  0  0  0  0  0
  191.3780  175.2960  146.9920 C   0  0  0  0  0  0  0  0  0  0  0  0
  192.1130  176.4640  147.2280 C   0  0  0  0  0  3  0  0  0  0  0  0
  197.2380  174.7470  144.2100 C   0  0  2  0  0  3  0  0  0  0  0  0
  197.2130  175.4970  142.9330 C   0  0  0  0  0  2  0  0  0  0  0  0
  197.3070  174.0950  142.9620 O   0  0  0  0  0  0  0  0  0  0  0  0
  189.9270  173.0090  139.1850 O   0  0  0  0  0  0  0  0  0  0  0  0
  191.7260  173.8990  138.0070 O   0  0  0  0  0  0  0  0  0  0  0  0
  189.6450  173.8850  136.8720 C   0  0  0  0  0  1  0  0  0  0  0  0
  190.5030  173.6020  138.0520 C   0  0  0  0  0  0  0  0  0  0  0  0
  1  5  1  0  0  0  0
  2 14  1  0  0  0  0
  3 14  2  0  0  0  0
  3  9  1  0  0  0  0
  4  8  1  0  0  0  0
  4 17  1  0  0  0  0
  5  4  2  0  0  0  0
  6  8  2  0  0  0  0
  7 11  1  0  0  0  0
  9 10  2  0  0  0  0
 10  1  1  0  0  0  0
 10 11  1  0  0  0  0
 11  6  1  0  0  0  0
 12  2  2  0  0  0  0
 12 13  1  0  0  0  0
 13 15  2  0  0  0  0
 14 16  1  0  0  0  0
 15 16  1  0  0  0  0
 16  1  2  0  0  0  0
 18 27  1  0  0  0  0
 19 26  1  0  0  0  0
 20 21  2  0  0  0  0
 21 22  1  0  0  0  0
 22 18  2  0  0  0  0
 23 24  1  0  0  0  0
 24 22  1  0  0  0  0
 24 19  2  0  0  0  0
 25 20  1  0  0  0  0
 25 23  2  0  0  0  0
 26 27  2  0  0  0  0
 26 17  1  0  0  0  0
 28 20  1  6  0  0  0
 29 30  1  0  0  0  0
 29 28  1  0  0  0  0
 30 28  1  0  0  0  0
 31 12  1  0  0  0  0
 32 34  2  0  0  0  0
 33 34  1  0  0  0  0
 34 31  1  0  0  0  0
M  END
>  <MODEL>
6

>  <REMARK>
 VINA RESULT:      -7.9      3.302      6.840
  Name = 
  5 active torsions:
  status: ('A' for Active; 'I' for Inactive)
    1  A    between atoms: C_7  and  C_11
    2  A    between atoms: C_8  and  C_18
    3  A    between atoms: C_18  and  C_30
    4  A    between atoms: O_23  and  C_24
    5  A    between atoms: O_23  and  C_25
                            x       y       z     vdW  Elec       q    Type
                         _______ _______ _______ _____ _____    ______ ____

>  <TORSDO>
F 5

$$$$
=
 OpenBabel11052420243D

 34 39  0  0  1  0  0  0  0  0999 V2000
  193.2290  174.3520  143.9590 C   0  0  0  0  0  0  0  0  0  0  0  0
  192.5280  173.6120  140.3850 C   0  0  0  0  0  3  0  0  0  0  0  0
  194.5520  173.6220  141.6410 N   0  0  0  0  0  0  0  0  0  0  0  0
  192.8660  175.2850  146.2970 C   0  0  0  0  0  0  0  0  0  0  0  0
  192.4620  174.6720  145.1820 C   0  0  0  0  0  3  0  0  0  0  0  0
  195.3430  175.3900  146.0000 C   0  0  0  0  0  3  0  0  0  0  0  0
  196.6720  173.5060  145.1990 C   0  0  0  0  0  1  0  0  0  0  0  0
  194.2060  175.8450  146.5130 C   0  0  0  0  0  3  0  0  0  0  0  0
  195.2290  173.7870  142.7750 N   0  0  0  0  0  0  0  0  0  0  0  0
  194.6260  174.1510  143.9430 C   0  0  0  0  0  0  0  0  0  0  0  0
  195.4350  174.2670  145.1240 N   0  0  0  0  0  0  0  0  0  0  0  0
  191.1420  173.7830  140.3200 C   0  0  0  0  0  0  0  0  0  0  0  0
  190.4430  174.1440  141.4810 C   0  0  0  0  0  3  0  0  0  0  0  0
  193.2120  173.7990  141.5910 C   0  0  0  0  0  0  0  0  0  0  0  0
  191.1210  174.3320  142.6880 C   0  0  0  0  0  3  0  0  0  0  0  0
  192.5140  174.1610  142.7570 C   0  0  0  0  0  0  0  0  0  0  0  0
  191.8360  175.5630  147.3400 C   0  0  0  0  0  2  0  0  0  0  0  0
  188.1040  175.6760  146.6700 C   0  0  0  0  0  3  0  0  0  0  0  0
  190.4750  176.6960  145.5680 C   0  0  0  0  0  3  0  0  0  0  0  0
  186.7720  177.5780  143.7850 C   0  0  0  0  0  0  0  0  0  0  0  0
  186.8240  176.7690  144.9280 C   0  0  0  0  0  3  0  0  0  0  0  0
  188.0520  176.4760  145.5270 C   0  0  0  0  0  0  0  0  0  0  0  0
  189.1940  177.7820  143.8220 C   0  0  0  0  0  3  0  0  0  0  0  0
  189.2460  176.9900  144.9700 C   0  0  0  0  0  0  0  0  0  0  0  0
  187.9620  178.0720  143.2280 C   0  0  0  0  0  3  0  0  0  0  0  0
  190.5210  175.8980  146.7170 C   0  0  0  0  0  0  0  0  0  0  0  0
  189.3380  175.3860  147.2640 C   0  0  0  0  0  3  0  0  0  0  0  0
  185.4630  177.8630  143.1200 C   0  0  2  0  0  3  0  0  0  0  0  0
  184.8990  179.1490  143.5920 C   0  0  0  0  0  2  0  0  0  0  0  0
  184.4410  177.9170  144.0890 O   0  0  0  0  0  0  0  0  0  0  0  0
  190.5060  173.5840  139.0840 O   0  0  0  0  0  0  0  0  0  0  0  0
  188.7920  172.0100  139.1310 O   0  0  0  0  0  0  0  0  0  0  0  0
  188.1910  174.1810  138.3930 C   0  0  0  0  0  1  0  0  0  0  0  0
  189.1750  173.1860  138.8920 C   0  0  0  0  0  0  0  0  0  0  0  0
  1  5  1  0  0  0  0
  2 14  1  0  0  0  0
  3  9  1  0  0  0  0
  4  8  1  0  0  0  0
  4 17  1  0  0  0  0
  5  4  2  0  0  0  0
  6  8  2  0  0  0  0
  9 10  2  0  0  0  0
 10  1  1  0  0  0  0
 10 11  1  0  0  0  0
 11  7  1  0  0  0  0
 11  6  1  0  0  0  0
 12  2  2  0  0  0  0
 12 13  1  0  0  0  0
 13 15  2  0  0  0  0
 14  3  2  0  0  0  0
 14 16  1  0  0  0  0
 15 16  1  0  0  0  0
 16  1  2  0  0  0  0
 18 27  1  0  0  0  0
 19 26  1  0  0  0  0
 20 21  2  0  0  0  0
 21 22  1  0  0  0  0
 22 18  2  0  0  0  0
 23 24  1  0  0  0  0
 24 22  1  0  0  0  0
 24 19  2  0  0  0  0
 25 20  1  0  0  0  0
 25 23  2  0  0  0  0
 26 27  2  0  0  0  0
 26 17  1  0  0  0  0
 28 29  1  0  0  0  0
 28 20  1  1  0  0  0
 28 30  1  0  0  0  0
 29 30  1  0  0  0  0
 31 12  1  0  0  0  0
 33 34  1  0  0  0  0
 34 31  1  0  0  0  0
 34 32  2  0  0  0  0
M  END
>  <MODEL>
7

>  <REMARK>
 VINA RESULT:      -7.8      1.785      2.376
  Name = 
  5 active torsions:
  status: ('A' for Active; 'I' for Inactive)
    1  A    between atoms: C_7  and  C_11
    2  A    between atoms: C_8  and  C_18
    3  A    between atoms: C_18  and  C_30
    4  A    between atoms: O_23  and  C_24
    5  A    between atoms: O_23  and  C_25
                            x       y       z     vdW  Elec       q    Type
                         _______ _______ _______ _____ _____    ______ ____

>  <TORSDO>
F 5

$$$$
=
 OpenBabel11052420243D

 34 39  0  0  1  0  0  0  0  0999 V2000
  190.4890  174.6540  144.1390 C   0  0  0  0  0  0  0  0  0  0  0  0
  190.9090  173.0170  140.8300 C   0  0  0  0  0  3  0  0  0  0  0  0
  192.4880  173.7470  142.4550 N   0  0  0  0  0  0  0  0  0  0  0  0
  189.3640  175.9700  146.0020 C   0  0  0  0  0  0  0  0  0  0  0  0
  189.3800  175.0550  145.0300 C   0  0  0  0  0  3  0  0  0  0  0  0
  191.7800  176.5530  146.2460 C   0  0  0  0  0  3  0  0  0  0  0  0
  193.5580  174.8810  146.2940 C   0  0  0  0  0  1  0  0  0  0  0  0
  190.4900  176.8460  146.3530 C   0  0  0  0  0  3  0  0  0  0  0  0
  192.7990  174.3010  143.6250 N   0  0  0  0  0  0  0  0  0  0  0  0
  191.8530  174.7690  144.4890 C   0  0  0  0  0  0  0  0  0  0  0  0
  192.2830  175.3150  145.7450 N   0  0  0  0  0  0  0  0  0  0  0  0
  189.5830  172.8580  140.4140 C   0  0  0  0  0  0  0  0  0  0  0  0
  188.5480  173.3000  141.2520 C   0  0  0  0  0  3  0  0  0  0  0  0
  191.2020  173.6080  142.0620 C   0  0  0  0  0  0  0  0  0  0  0  0
  188.8350  173.8920  142.4850 C   0  0  0  0  0  3  0  0  0  0  0  0
  190.1660  174.0530  142.9050 C   0  0  0  0  0  0  0  0  0  0  0  0
  188.0600  176.2340  146.6770 C   0  0  0  0  0  2  0  0  0  0  0  0
  184.9110  177.8280  145.2860 C   0  0  0  0  0  3  0  0  0  0  0  0
  187.3060  176.7130  144.3370 C   0  0  0  0  0  3  0  0  0  0  0  0
  184.4550  178.2010  141.6300 C   0  0  0  0  0  0  0  0  0  0  0  0
  184.2070  178.2560  143.0080 C   0  0  0  0  0  3  0  0  0  0  0  0
  185.1540  177.7660  143.9120 C   0  0  0  0  0  0  0  0  0  0  0  0
  186.5970  177.1350  142.0590 C   0  0  0  0  0  3  0  0  0  0  0  0
  186.3590  177.2040  143.4330 C   0  0  0  0  0  0  0  0  0  0  0  0
  185.6460  177.6280  141.1600 C   0  0  0  0  0  3  0  0  0  0  0  0
  187.0600  176.7830  145.7130 C   0  0  0  0  0  0  0  0  0  0  0  0
  185.8630  177.3350  146.1860 C   0  0  0  0  0  3  0  0  0  0  0  0
  183.4280  178.6900  140.6580 C   0  0  2  0  0  3  0  0  0  0  0  0
  182.0740  178.2280  141.0440 C   0  0  0  0  0  2  0  0  0  0  0  0
  182.8080  177.5910  140.0290 O   0  0  0  0  0  0  0  0  0  0  0  0
  189.3450  172.2590  139.1670 O   0  0  0  0  0  0  0  0  0  0  0  0
  188.2790  173.9710  138.0060 O   0  0  0  0  0  0  0  0  0  0  0  0
  189.4130  172.3650  136.6820 C   0  0  0  0  0  1  0  0  0  0  0  0
  188.9730  172.9200  137.9880 C   0  0  0  0  0  0  0  0  0  0  0  0
  1 10  1  0  0  0  0
  1  5  1  0  0  0  0
  2 14  1  0  0  0  0
  3  9  1  0  0  0  0
  4  8  1  0  0  0  0
  4 17  1  0  0  0  0
  5  4  2  0  0  0  0
  6  8  2  0  0  0  0
  9 10  2  0  0  0  0
 10 11  1  0  0  0  0
 11  6  1  0  0  0  0
 11  7  1  0  0  0  0
 12  2  2  0  0  0  0
 12 13  1  0  0  0  0
 13 15  2  0  0  0  0
 14  3  2  0  0  0  0
 14 16  1  0  0  0  0
 15 16  1  0  0  0  0
 16  1  2  0  0  0  0
 18 27  1  0  0  0  0
 19 26  1  0  0  0  0
 20 21  2  0  0  0  0
 21 22  1  0  0  0  0
 22 18  2  0  0  0  0
 23 24  1  0  0  0  0
 24 22  1  0  0  0  0
 24 19  2  0  0  0  0
 25 20  1  0  0  0  0
 25 23  2  0  0  0  0
 26 27  2  0  0  0  0
 26 17  1  0  0  0  0
 28 29  1  0  0  0  0
 28 20  1  1  0  0  0
 30 28  1  0  0  0  0
 30 29  1  0  0  0  0
 31 12  1  0  0  0  0
 33 34  1  0  0  0  0
 34 32  2  0  0  0  0
 34 31  1  0  0  0  0
M  END
>  <MODEL>
8

>  <REMARK>
 VINA RESULT:      -7.8      1.739      3.009
  Name = 
  5 active torsions:
  status: ('A' for Active; 'I' for Inactive)
    1  A    between atoms: C_7  and  C_11
    2  A    between atoms: C_8  and  C_18
    3  A    between atoms: C_18  and  C_30
    4  A    between atoms: O_23  and  C_24
    5  A    between atoms: O_23  and  C_25
                            x       y       z     vdW  Elec       q    Type
                         _______ _______ _______ _____ _____    ______ ____

>  <TORSDO>
F 5

$$$$
=
 OpenBabel11052420243D

 34 39  0  0  1  0  0  0  0  0999 V2000
  186.4600  177.7780  144.0490 C   0  0  0  0  0  0  0  0  0  0  0  0
  185.4530  177.6930  140.4730 C   0  0  0  0  0  3  0  0  0  0  0  0
  184.1920  177.9690  142.4750 N   0  0  0  0  0  0  0  0  0  0  0  0
  187.8970  177.3960  146.1120 C   0  0  0  0  0  0  0  0  0  0  0  0
  187.7110  177.7410  144.8360 C   0  0  0  0  0  3  0  0  0  0  0  0
  185.5630  177.2300  146.9830 C   0  0  0  0  0  3  0  0  0  0  0  0
  183.8370  178.8870  146.5000 C   0  0  0  0  0  1  0  0  0  0  0  0
  186.8490  176.9010  147.0140 C   0  0  0  0  0  3  0  0  0  0  0  0
  184.0980  178.0650  143.8000 N   0  0  0  0  0  0  0  0  0  0  0  0
  185.1830  177.9730  144.6210 C   0  0  0  0  0  0  0  0  0  0  0  0
  184.9860  178.1270  146.0350 N   0  0  0  0  0  0  0  0  0  0  0  0
  186.6800  177.5100  139.8300 C   0  0  0  0  0  0  0  0  0  0  0  0
  187.8490  177.4190  140.6020 C   0  0  0  0  0  3  0  0  0  0  0  0
  185.3860  177.7840  141.8670 C   0  0  0  0  0  0  0  0  0  0  0  0
  187.7880  177.5090  141.9950 C   0  0  0  0  0  3  0  0  0  0  0  0
  186.5550  177.6930  142.6450 C   0  0  0  0  0  0  0  0  0  0  0  0
  189.3020  177.3590  146.6160 C   0  0  0  0  0  2  0  0  0  0  0  0
  189.9940  174.0090  144.9780 C   0  0  0  0  0  3  0  0  0  0  0  0
  191.4190  176.0790  146.2270 C   0  0  0  0  0  3  0  0  0  0  0  0
  193.4530  172.7010  144.7720 C   0  0  0  0  0  0  0  0  0  0  0  0
  192.0610  172.7910  144.6380 C   0  0  0  0  0  3  0  0  0  0  0  0
  191.3810  173.9140  145.1170 C   0  0  0  0  0  0  0  0  0  0  0  0
  193.4840  174.8560  145.8940 C   0  0  0  0  0  3  0  0  0  0  0  0
  192.1000  174.9560  145.7470 C   0  0  0  0  0  0  0  0  0  0  0  0
  194.1590  173.7300  145.4120 C   0  0  0  0  0  3  0  0  0  0  0  0
  190.0310  176.1710  146.0800 C   0  0  0  0  0  0  0  0  0  0  0  0
  189.3200  175.1360  145.4600 C   0  0  0  0  0  3  0  0  0  0  0  0
  194.1800  171.4830  144.2950 C   0  0  2  0  0  3  0  0  0  0  0  0
  194.3950  170.5270  145.4050 C   0  0  0  0  0  2  0  0  0  0  0  0
  195.4190  171.3790  144.9580 O   0  0  0  0  0  0  0  0  0  0  0  0
  186.6900  177.4250  138.4290 O   0  0  0  0  0  0  0  0  0  0  0  0
  185.3460  176.0410  137.1270 O   0  0  0  0  0  0  0  0  0  0  0  0
  187.5640  175.2900  137.4930 C   0  0  0  0  0  1  0  0  0  0  0  0
  186.4610  176.2690  137.6680 C   0  0  0  0  0  0  0  0  0  0  0  0
  1 10  1  0  0  0  0
  1  5  1  0  0  0  0
  2 14  1  0  0  0  0
  3  9  1  0  0  0  0
  4 17  1  0  0  0  0
  4  8  1  0  0  0  0
  5  4  2  0  0  0  0
  6  8  2  0  0  0  0
  9 10  2  0  0  0  0
 10 11  1  0  0  0  0
 11  7  1  0  0  0  0
 11  6  1  0  0  0  0
 12  2  2  0  0  0  0
 12 13  1  0  0  0  0
 13 15  2  0  0  0  0
 14  3  2  0  0  0  0
 14 16  1  0  0  0  0
 15 16  1  0  0  0  0
 16  1  2  0  0  0  0
 18 22  2  0  0  0  0
 18 27  1  0  0  0  0
 20 25  1  0  0  0  0
 21 20  2  0  0  0  0
 21 22  1  0  0  0  0
 22 24  1  0  0  0  0
 24 23  1  0  0  0  0
 24 19  2  0  0  0  0
 25 23  2  0  0  0  0
 26 19  1  0  0  0  0
 26 17  1  0  0  0  0
 27 26  2  0  0  0  0
 28 20  1  1  0  0  0
 28 30  1  0  0  0  0
 28 29  1  0  0  0  0
 30 29  1  0  0  0  0
 31 12  1  0  0  0  0
 32 34  2  0  0  0  0
 33 34  1  0  0  0  0
 34 31  1  0  0  0  0
M  END
>  <MODEL>
9

>  <REMARK>
 VINA RESULT:      -7.7      3.912      7.615
  Name = 
  5 active torsions:
  status: ('A' for Active; 'I' for Inactive)
    1  A    between atoms: C_7  and  C_11
    2  A    between atoms: C_8  and  C_18
    3  A    between atoms: C_18  and  C_30
    4  A    between atoms: O_23  and  C_24
    5  A    between atoms: O_23  and  C_25
                            x       y       z     vdW  Elec       q    Type
                         _______ _______ _______ _____ _____    ______ ____

>  <TORSDO>
F 5

$$$$
