=
 OpenBabel11052421133D

 43 48  0  0  1  0  0  0  0  0999 V2000
  196.8890  173.8150  140.4970 C   0  0  0  0  0  0  0  0  0  0  0  0
  194.7280  175.3870  144.7980 C   0  0  0  0  0  0  0  0  0  0  0  0
  195.5230  175.0560  142.0740 C   0  0  0  0  0  0  0  0  0  0  0  0
  197.0540  172.7160  141.5140 C   0  0  0  0  0  3  0  0  0  0  0  0
  197.5420  173.6610  139.2210 C   0  0  0  0  0  1  0  0  0  0  0  0
  195.3220  173.7490  142.9810 C   0  0  1  0  0  3  0  0  0  0  0  0
  196.2040  174.8930  140.7620 C   0  0  0  0  0  3  0  0  0  0  0  0
  196.3770  172.7210  142.6570 C   0  0  0  0  0  3  0  0  0  0  0  0
  195.3120  174.0520  144.4650 C   0  0  2  0  0  3  0  0  0  0  0  0
  194.6640  176.3760  143.7930 C   0  0  0  0  0  3  0  0  0  0  0  0
  195.1250  176.1770  142.4790 N   0  0  0  0  0  0  0  0  0  0  0  0
  194.4600  172.9630  145.3160 C   0  0  0  0  0  2  0  0  0  0  0  0
  193.2810  172.1790  144.5850 C   0  0  2  0  0  3  0  0  0  0  0  0
  193.4350  170.8740  143.9750 C   0  0  0  0  0  2  0  0  0  0  0  0
  193.3260  170.9290  142.4110 C   0  0  0  0  0  1  0  0  0  0  0  0
  191.9920  172.8260  144.5200 C   0  0  0  0  0  2  0  0  0  0  0  0
  191.5390  174.0170  141.0750 C   0  0  0  0  0  2  0  0  0  0  0  0
  190.4830  174.5700  143.4060 C   0  0  2  0  0  3  0  0  0  0  0  0
  188.7080  174.0790  140.3890 O   0  0  0  0  0  0  0  0  0  0  0  0
  191.1620  173.5020  142.5200 C   0  0  2  0  0  3  0  0  0  0  0  0
  190.8450  172.9860  140.2290 C   0  0  0  0  0  2  0  0  0  0  0  0
  191.9580  174.0370  143.5680 C   0  0  2  0  0  3  0  0  0  0  0  0
  188.4170  174.6880  141.6700 C   0  0  1  0  0  3  0  0  0  0  0  0
  188.9440  174.2080  143.0640 C   0  0  0  0  0  2  0  0  0  0  0  0
  189.2990  172.8580  140.4950 C   0  0  0  0  0  2  0  0  0  0  0  0
  186.7230  176.6400  141.8990 C   0  0  0  0  0  0  0  0  0  0  0  0
  188.0570  176.0880  141.5330 N   0  0  0  0  0  2  0  0  0  0  0  0
  185.5950  179.3860  143.9140 C   0  0  0  0  0  1  0  0  0  0  0  0
  185.2580  178.3690  141.6060 C   0  0  0  0  0  2  0  0  0  0  0  0
  185.3110  178.1200  143.0700 C   0  0  1  0  0  3  0  0  0  0  0  0
  186.2030  177.4100  141.0290 N   0  0  0  0  0  0  0  0  0  0  0  0
  186.4080  177.1050  143.3210 C   0  0  0  0  0  2  0  0  0  0  0  0
  194.4970  175.7800  146.1350 O   0  0  0  0  0  0  0  0  0  0  0  0
  193.2960  176.4320  146.5580 C   0  0  0  0  0  2  0  0  0  0  0  0
  192.2260  175.4300  147.0980 C   0  0  0  0  0  2  0  0  0  0  0  0
  189.2040  177.2930  146.0950 C   0  0  0  0  0  3  0  0  0  0  0  0
  188.1910  176.4870  146.6760 C   0  0  0  0  0  0  0  0  0  0  0  0
  189.8670  174.8170  147.2100 C   0  0  0  0  0  3  0  0  0  0  0  0
  190.4840  176.9310  146.1420 C   0  0  0  0  0  3  0  0  0  0  0  0
  190.8640  175.7080  146.7350 C   0  0  0  0  0  0  0  0  0  0  0  0
  188.5570  175.2320  147.1550 C   0  0  0  0  0  3  0  0  0  0  0  0
  186.6090  178.0400  147.5470 N   0  0  0  0  0  2  0  0  0  0  0  0
  186.8290  176.9140  146.9030 C   0  0  0  0  0  3  0  0  0  0  0  0
  1  7  2  0  0  0  0
  1  4  1  0  0  0  0
  2 33  1  0  0  0  0
  3 11  2  0  0  0  0
  3  6  1  0  0  0  0
  4  8  2  0  0  0  0
  5  1  1  0  0  0  0
  6  8  1  1  0  0  0
  6  9  1  0  0  0  0
  7  3  1  0  0  0  0
  9  2  1  0  0  0  0
  9 12  1  1  0  0  0
 10  2  2  0  0  0  0
 11 10  1  0  0  0  0
 13 14  1  6  0  0  0
 13 12  1  0  0  0  0
 15 14  1  0  0  0  0
 16 13  1  0  0  0  0
 18 24  1  1  0  0  0
 18 22  1  0  0  0  0
 19 25  1  0  0  0  0
 19 23  1  0  0  0  0
 20 17  1  6  0  0  0
 20 18  1  0  0  0  0
 20 22  1  0  0  0  0
 21 25  1  0  0  0  0
 21 17  1  0  0  0  0
 22 16  1  1  0  0  0
 23 27  1  6  0  0  0
 23 24  1  0  0  0  0
 26 32  1  0  0  0  0
 27 26  1  0  0  0  0
 29 30  1  0  0  0  0
 30 32  1  0  0  0  0
 30 28  1  1  0  0  0
 31 29  1  0  0  0  0
 31 26  2  0  0  0  0
 33 34  1  0  0  0  0
 34 35  1  0  0  0  0
 36 39  2  0  0  0  0
 36 37  1  0  0  0  0
 37 43  1  0  0  0  0
 37 41  2  0  0  0  0
 39 40  1  0  0  0  0
 40 35  1  0  0  0  0
 40 38  2  0  0  0  0
 41 38  1  0  0  0  0
 43 42  2  0  0  0  0
M  END
>  <MODEL>
1

>  <REMARK>
 VINA RESULT:      -7.5      0.000      0.000
  Name = 
  11 active torsions:
  status: ('A' for Active; 'I' for Inactive)
    1  A    between atoms: C_1  and  C_35
    2  A    between atoms: C_1  and  C_38
    3  A    between atoms: C_2  and  C_13
    4  A    between atoms: C_6  and  C_13
    5  A    between atoms: C_6  and  C_17
    6  A    between atoms: C_8  and  O_34
    7  A    between atoms: C_13  and  C_27
    8  A    between atoms: N_14  and  C_22
    9  A    between atoms: C_19  and  C_37
   10  A    between atoms: C_27  and  C_30
   11  A    between atoms: O_34  and  C_38
                            x       y       z     vdW  Elec       q    Type
                         _______ _______ _______ _____ _____    ______ ____

>  <TORSDO>
F 11

$$$$
=
 OpenBabel11052421133D

 43 48  0  0  1  0  0  0  0  0999 V2000
  190.5410  176.4040  146.7380 C   0  0  0  0  0  0  0  0  0  0  0  0
  188.5220  176.5420  142.0960 C   0  0  0  0  0  0  0  0  0  0  0  0
  190.1100  177.0040  144.4250 C   0  0  0  0  0  0  0  0  0  0  0  0
  189.7590  175.1300  146.5460 C   0  0  0  0  0  3  0  0  0  0  0  0
  191.1030  176.6640  148.0390 C   0  0  0  0  0  1  0  0  0  0  0  0
  189.6670  175.5010  144.0820 C   0  0  1  0  0  3  0  0  0  0  0  0
  190.6840  177.2680  145.7710 C   0  0  0  0  0  3  0  0  0  0  0  0
  189.3250  174.7560  145.3480 C   0  0  0  0  0  3  0  0  0  0  0  0
  188.5180  175.4320  143.0960 C   0  0  2  0  0  3  0  0  0  0  0  0
  189.2400  177.7230  142.3850 C   0  0  0  0  0  3  0  0  0  0  0  0
  189.9590  177.9190  143.5780 N   0  0  0  0  0  0  0  0  0  0  0  0
  188.5160  174.0530  142.2410 C   0  0  0  0  0  2  0  0  0  0  0  0
  189.9020  173.5040  141.6780 C   0  0  2  0  0  3  0  0  0  0  0  0
  190.3900  173.7640  140.3390 C   0  0  0  0  0  2  0  0  0  0  0  0
  189.2450  173.7290  139.2670 C   0  0  0  0  0  1  0  0  0  0  0  0
  190.7000  172.6850  142.5600 C   0  0  0  0  0  2  0  0  0  0  0  0
  193.7670  174.7060  142.5970 C   0  0  0  0  0  2  0  0  0  0  0  0
  193.0450  172.3730  143.5410 C   0  0  2  0  0  3  0  0  0  0  0  0
  194.8500  174.8530  145.2980 O   0  0  0  0  0  0  0  0  0  0  0  0
  192.5940  173.7930  143.1330 C   0  0  2  0  0  3  0  0  0  0  0  0
  193.6260  175.8930  143.5080 C   0  0  0  0  0  2  0  0  0  0  0  0
  192.2100  172.7440  142.2570 C   0  0  2  0  0  3  0  0  0  0  0  0
  194.6250  173.4320  145.4590 C   0  0  0  0  0  0  0  0  0  0  0  0
  193.3090  172.6570  145.1110 C   0  0  0  0  0  2  0  0  0  0  0  0
  193.7110  175.5520  145.0420 C   0  0  0  0  0  2  0  0  0  0  0  0
  195.9410  171.1950  145.4240 C   0  0  0  0  0  0  0  0  0  0  0  0
  195.8690  172.6830  145.4460 N   0  0  0  0  0  0  0  0  0  0  0  0
  197.6610  168.7820  143.4040 C   0  0  0  0  0  1  0  0  0  0  0  0
  197.2470  169.3690  145.8450 C   0  0  0  0  0  2  0  0  0  0  0  0
  196.6380  169.1390  144.5090 C   0  0  1  0  0  3  0  0  0  0  0  0
  196.7540  170.6840  146.2590 N   0  0  0  0  0  0  0  0  0  0  0  0
  195.9110  170.4080  144.1140 C   0  0  0  0  0  2  0  0  0  0  0  0
  187.6200  176.5600  141.0090 O   0  0  0  0  0  0  0  0  0  0  0  0
  186.7250  177.6490  140.7590 C   0  0  0  0  0  2  0  0  0  0  0  0
  185.4020  177.5410  141.5830 C   0  0  0  0  0  2  0  0  0  0  0  0
  186.3450  179.0740  144.8030 C   0  0  0  0  0  3  0  0  0  0  0  0
  186.3990  177.9280  145.6370 C   0  0  0  0  0  0  0  0  0  0  0  0
  185.4400  176.6120  143.8390 C   0  0  0  0  0  3  0  0  0  0  0  0
  185.9480  178.9880  143.5350 C   0  0  0  0  0  3  0  0  0  0  0  0
  185.5230  177.7520  142.9980 C   0  0  0  0  0  0  0  0  0  0  0  0
  185.8710  176.7390  145.1380 C   0  0  0  0  0  3  0  0  0  0  0  0
  186.3830  178.2330  147.9990 N   0  0  0  0  0  2  0  0  0  0  0  0
  187.0530  177.8770  146.9240 C   0  0  0  0  0  3  0  0  0  0  0  0
  1  5  1  0  0  0  0
  2 10  2  0  0  0  0
  2  9  1  0  0  0  0
  3  7  1  0  0  0  0
  4  1  1  0  0  0  0
  6  3  1  0  0  0  0
  6  8  1  1  0  0  0
  7  1  2  0  0  0  0
  8  4  2  0  0  0  0
  9 12  1  6  0  0  0
  9  6  1  0  0  0  0
 10 11  1  0  0  0  0
 11  3  2  0  0  0  0
 13 14  1  6  0  0  0
 13 12  1  0  0  0  0
 13 16  1  0  0  0  0
 15 14  1  0  0  0  0
 17 21  1  0  0  0  0
 18 24  1  1  0  0  0
 19 23  1  0  0  0  0
 20 17  1  6  0  0  0
 20 18  1  0  0  0  0
 21 25  1  0  0  0  0
 22 16  1  1  0  0  0
 22 20  1  0  0  0  0
 22 18  1  0  0  0  0
 24 23  1  0  0  0  0
 25 19  1  0  0  0  0
 26 27  1  0  0  0  0
 26 31  2  0  0  0  0
 27 23  2  0  0  0  0
 29 31  1  0  0  0  0
 30 28  1  6  0  0  0
 30 29  1  0  0  0  0
 32 30  1  0  0  0  0
 32 26  1  0  0  0  0
 33  2  1  0  0  0  0
 34 33  1  0  0  0  0
 34 35  1  0  0  0  0
 35 40  1  0  0  0  0
 36 37  1  0  0  0  0
 37 43  1  0  0  0  0
 38 41  1  0  0  0  0
 39 36  2  0  0  0  0
 40 39  1  0  0  0  0
 40 38  2  0  0  0  0
 41 37  2  0  0  0  0
 43 42  2  0  0  0  0
M  END
>  <MODEL>
2

>  <REMARK>
 VINA RESULT:      -7.3      2.209      7.872
  Name = 
  11 active torsions:
  status: ('A' for Active; 'I' for Inactive)
    1  A    between atoms: C_1  and  C_35
    2  A    between atoms: C_1  and  C_38
    3  A    between atoms: C_2  and  C_13
    4  A    between atoms: C_6  and  C_13
    5  A    between atoms: C_6  and  C_17
    6  A    between atoms: C_8  and  O_34
    7  A    between atoms: C_13  and  C_27
    8  A    between atoms: N_14  and  C_22
    9  A    between atoms: C_19  and  C_37
   10  A    between atoms: C_27  and  C_30
   11  A    between atoms: O_34  and  C_38
                            x       y       z     vdW  Elec       q    Type
                         _______ _______ _______ _____ _____    ______ ____

>  <TORSDO>
F 11

$$$$
=
 OpenBabel11052421133D

 43 48  0  0  1  0  0  0  0  0999 V2000
  185.1130  178.2450  145.6720 C   0  0  0  0  0  0  0  0  0  0  0  0
  188.2720  176.3550  142.1950 C   0  0  0  0  0  0  0  0  0  0  0  0
  186.5460  178.0420  143.7230 C   0  0  0  0  0  0  0  0  0  0  0  0
  185.7560  177.0170  146.2640 C   0  0  0  0  0  3  0  0  0  0  0  0
  184.0660  178.8900  146.4230 C   0  0  0  0  0  1  0  0  0  0  0  0
  187.5180  177.0310  144.4990 C   0  0  1  0  0  3  0  0  0  0  0  0
  185.4630  178.7000  144.5010 C   0  0  0  0  0  3  0  0  0  0  0  0
  186.8140  176.4460  145.6980 C   0  0  0  0  0  3  0  0  0  0  0  0
  188.0620  175.9300  143.6120 C   0  0  2  0  0  3  0  0  0  0  0  0
  187.5850  177.4880  141.7100 C   0  0  0  0  0  3  0  0  0  0  0  0
  186.6980  178.2500  142.4930 N   0  0  0  0  0  0  0  0  0  0  0  0
  189.4910  175.3630  144.1300 C   0  0  0  0  0  2  0  0  0  0  0  0
  190.4520  176.3440  144.9390 C   0  0  2  0  0  3  0  0  0  0  0  0
  190.4460  177.7850  144.7920 C   0  0  0  0  0  2  0  0  0  0  0  0
  191.2120  178.2580  143.5070 C   0  0  0  0  0  1  0  0  0  0  0  0
  191.3920  175.7450  145.8580 C   0  0  0  0  0  2  0  0  0  0  0  0
  193.6960  174.6290  143.2260 C   0  0  0  0  0  2  0  0  0  0  0  0
  193.6480  174.5340  145.8410 C   0  0  2  0  0  3  0  0  0  0  0  0
  196.4220  175.4490  143.8510 O   0  0  0  0  0  0  0  0  0  0  0  0
  193.2040  175.2940  144.5720 C   0  0  2  0  0  3  0  0  0  0  0  0
  194.4030  175.7940  142.5900 C   0  0  0  0  0  2  0  0  0  0  0  0
  192.1860  174.5740  145.2520 C   0  0  2  0  0  3  0  0  0  0  0  0
  196.2320  175.0150  145.2190 C   0  0  1  0  0  3  0  0  0  0  0  0
  195.0090  175.3550  146.1370 C   0  0  0  0  0  2  0  0  0  0  0  0
  195.5490  176.4200  143.4680 C   0  0  0  0  0  2  0  0  0  0  0  0
  196.4750  172.4320  145.1930 C   0  0  0  0  0  0  0  0  0  0  0  0
  196.9720  173.8000  145.5090 N   0  0  0  0  0  2  0  0  0  0  0  0
  197.8370  169.5840  143.4880 C   0  0  0  0  0  1  0  0  0  0  0  0
  196.6710  170.2040  145.6630 C   0  0  0  0  0  2  0  0  0  0  0  0
  196.6590  170.3110  144.1810 C   0  0  1  0  0  3  0  0  0  0  0  0
  196.5890  171.5870  146.1380 N   0  0  0  0  0  0  0  0  0  0  0  0
  196.7160  171.7840  143.8290 C   0  0  0  0  0  2  0  0  0  0  0  0
  188.9120  175.5120  141.2590 O   0  0  0  0  0  0  0  0  0  0  0  0
  188.1930  174.7020  140.3230 C   0  0  0  0  0  2  0  0  0  0  0  0
  188.5840  173.1920  140.4110 C   0  0  0  0  0  2  0  0  0  0  0  0
  191.7970  172.2270  141.9430 C   0  0  0  0  0  3  0  0  0  0  0  0
  191.3450  171.5540  143.1070 C   0  0  0  0  0  0  0  0  0  0  0  0
  189.0880  172.3030  142.6260 C   0  0  0  0  0  3  0  0  0  0  0  0
  190.9440  172.8300  141.1180 C   0  0  0  0  0  3  0  0  0  0  0  0
  189.5620  172.8530  141.4060 C   0  0  0  0  0  0  0  0  0  0  0  0
  190.0000  171.6790  143.4450 C   0  0  0  0  0  3  0  0  0  0  0  0
  193.1850  171.1510  144.5640 N   0  0  0  0  0  2  0  0  0  0  0  0
  192.1530  170.6640  143.9090 C   0  0  0  0  0  3  0  0  0  0  0  0
  1  4  1  0  0  0  0
  1  5  1  0  0  0  0
  2  9  1  0  0  0  0
  3  6  1  0  0  0  0
  3  7  1  0  0  0  0
  6  8  1  1  0  0  0
  7  1  2  0  0  0  0
  8  4  2  0  0  0  0
  9 12  1  1  0  0  0
  9  6  1  0  0  0  0
 10  2  2  0  0  0  0
 10 11  1  0  0  0  0
 11  3  2  0  0  0  0
 13 12  1  6  0  0  0
 13 16  1  0  0  0  0
 14 13  1  0  0  0  0
 15 14  1  0  0  0  0
 18 24  1  1  0  0  0
 19 23  1  0  0  0  0
 20 17  1  6  0  0  0
 20 22  1  0  0  0  0
 20 18  1  0  0  0  0
 21 17  1  0  0  0  0
 21 25  1  0  0  0  0
 22 18  1  0  0  0  0
 22 16  1  1  0  0  0
 23 27  1  6  0  0  0
 23 24  1  0  0  0  0
 25 19  1  0  0  0  0
 26 27  1  0  0  0  0
 26 31  2  0  0  0  0
 29 31  1  0  0  0  0
 30 28  1  6  0  0  0
 30 29  1  0  0  0  0
 32 30  1  0  0  0  0
 32 26  1  0  0  0  0
 33  2  1  0  0  0  0
 34 35  1  0  0  0  0
 34 33  1  0  0  0  0
 35 40  1  0  0  0  0
 36 37  1  0  0  0  0
 37 41  2  0  0  0  0
 37 43  1  0  0  0  0
 38 41  1  0  0  0  0
 39 40  1  0  0  0  0
 39 36  2  0  0  0  0
 40 38  2  0  0  0  0
 43 42  2  0  0  0  0
M  END
>  <MODEL>
3

>  <REMARK>
 VINA RESULT:      -7.3      2.314      9.094
  Name = 
  11 active torsions:
  status: ('A' for Active; 'I' for Inactive)
    1  A    between atoms: C_1  and  C_35
    2  A    between atoms: C_1  and  C_38
    3  A    between atoms: C_2  and  C_13
    4  A    between atoms: C_6  and  C_13
    5  A    between atoms: C_6  and  C_17
    6  A    between atoms: C_8  and  O_34
    7  A    between atoms: C_13  and  C_27
    8  A    between atoms: N_14  and  C_22
    9  A    between atoms: C_19  and  C_37
   10  A    between atoms: C_27  and  C_30
   11  A    between atoms: O_34  and  C_38
                            x       y       z     vdW  Elec       q    Type
                         _______ _______ _______ _____ _____    ______ ____

>  <TORSDO>
F 11

$$$$
=
 OpenBabel11052421133D

 43 48  0  0  1  0  0  0  0  0999 V2000
  182.4500  178.5530  141.2070 C   0  0  0  0  0  0  0  0  0  0  0  0
  187.2830  177.0990  141.6180 C   0  0  0  0  0  0  0  0  0  0  0  0
  184.7670  178.0660  140.6710 C   0  0  0  0  0  0  0  0  0  0  0  0
  182.7880  178.5180  142.6750 C   0  0  0  0  0  3  0  0  0  0  0  0
  181.0820  178.8110  140.8340 C   0  0  0  0  0  1  0  0  0  0  0  0
  185.2280  178.4480  142.1590 C   0  0  1  0  0  3  0  0  0  0  0  0
  183.3520  178.3270  140.2930 C   0  0  0  0  0  3  0  0  0  0  0  0
  184.0450  178.4200  143.0950 C   0  0  0  0  0  3  0  0  0  0  0  0
  186.3420  177.5640  142.6810 C   0  0  2  0  0  3  0  0  0  0  0  0
  186.8590  177.1170  140.2710 C   0  0  0  0  0  3  0  0  0  0  0  0
  185.5830  177.5510  139.8670 N   0  0  0  0  0  0  0  0  0  0  0  0
  187.2540  178.3080  143.7980 C   0  0  0  0  0  2  0  0  0  0  0  0
  187.1560  177.8180  145.3110 C   0  0  2  0  0  3  0  0  0  0  0  0
  186.1120  178.2260  146.2270 C   0  0  0  0  0  2  0  0  0  0  0  0
  185.2870  177.0080  146.7750 C   0  0  0  0  0  1  0  0  0  0  0  0
  188.1880  176.9260  145.7890 C   0  0  0  0  0  2  0  0  0  0  0  0
  191.5490  176.7350  147.2560 C   0  0  0  0  0  2  0  0  0  0  0  0
  190.5670  177.1220  144.8610 C   0  0  2  0  0  3  0  0  0  0  0  0
  193.2430  174.9640  145.6800 O   0  0  0  0  0  0  0  0  0  0  0  0
  190.3620  176.4730  146.2480 C   0  0  2  0  0  3  0  0  0  0  0  0
  191.8960  175.3230  147.6400 C   0  0  0  0  0  2  0  0  0  0  0  0
  189.5570  177.6090  145.9700 C   0  0  2  0  0  3  0  0  0  0  0  0
  192.7500  175.5820  144.4670 C   0  0  1  0  0  3  0  0  0  0  0  0
  191.2500  175.8610  144.1140 C   0  0  0  0  0  2  0  0  0  0  0  0
  192.2620  174.3890  146.4280 C   0  0  0  0  0  2  0  0  0  0  0  0
  195.1430  175.9720  143.5430 C   0  0  0  0  0  0  0  0  0  0  0  0
  193.7550  176.4220  143.8410 N   0  0  0  0  0  2  0  0  0  0  0  0
  197.2420  176.0250  140.6340 C   0  0  0  0  0  1  0  0  0  0  0  0
  197.2830  176.6410  143.1030 C   0  0  0  0  0  2  0  0  0  0  0  0
  196.9650  175.5960  142.0950 C   0  0  1  0  0  3  0  0  0  0  0  0
  196.0580  176.7850  143.8920 N   0  0  0  0  0  0  0  0  0  0  0  0
  195.4940  175.2590  142.2370 C   0  0  0  0  0  2  0  0  0  0  0  0
  188.4640  176.3930  141.9340 O   0  0  0  0  0  0  0  0  0  0  0  0
  188.8150  175.1490  141.3210 C   0  0  0  0  0  2  0  0  0  0  0  0
  188.1450  173.9230  142.0200 C   0  0  0  0  0  2  0  0  0  0  0  0
  190.4730  171.8990  144.0420 C   0  0  0  0  0  3  0  0  0  0  0  0
  191.2290  171.2660  143.0220 C   0  0  0  0  0  0  0  0  0  0  0  0
  189.6800  172.1410  141.3730 C   0  0  0  0  0  3  0  0  0  0  0  0
  189.4340  172.6780  143.7490 C   0  0  0  0  0  3  0  0  0  0  0  0
  189.0290  172.8600  142.4090 C   0  0  0  0  0  0  0  0  0  0  0  0
  190.7550  171.3550  141.7160 C   0  0  0  0  0  3  0  0  0  0  0  0
  192.6910  169.8820  144.2940 N   0  0  0  0  0  2  0  0  0  0  0  0
  192.5080  170.6250  143.2230 C   0  0  0  0  0  3  0  0  0  0  0  0
  1  4  1  0  0  0  0
  2 33  1  0  0  0  0
  2  9  1  0  0  0  0
  3  6  1  0  0  0  0
  4  8  2  0  0  0  0
  5  1  1  0  0  0  0
  6  9  1  0  0  0  0
  6  8  1  1  0  0  0
  7  3  1  0  0  0  0
  7  1  2  0  0  0  0
  9 12  1  1  0  0  0
 10  2  2  0  0  0  0
 11 10  1  0  0  0  0
 11  3  2  0  0  0  0
 13 12  1  1  0  0  0
 13 16  1  0  0  0  0
 13 14  1  0  0  0  0
 14 15  1  0  0  0  0
 17 21  1  0  0  0  0
 18 24  1  6  0  0  0
 18 22  1  0  0  0  0
 18 20  1  0  0  0  0
 19 25  1  0  0  0  0
 20 17  1  1  0  0  0
 22 16  1  6  0  0  0
 22 20  1  0  0  0  0
 23 27  1  1  0  0  0
 23 19  1  0  0  0  0
 24 23  1  0  0  0  0
 25 21  1  0  0  0  0
 26 27  1  0  0  0  0
 26 31  2  0  0  0  0
 29 31  1  0  0  0  0
 30 28  1  6  0  0  0
 30 32  1  0  0  0  0
 30 29  1  0  0  0  0
 32 26  1  0  0  0  0
 34 33  1  0  0  0  0
 34 35  1  0  0  0  0
 35 40  1  0  0  0  0
 37 43  1  0  0  0  0
 37 36  2  0  0  0  0
 38 41  2  0  0  0  0
 38 40  1  0  0  0  0
 39 36  1  0  0  0  0
 40 39  2  0  0  0  0
 41 37  1  0  0  0  0
 43 42  2  0  0  0  0
M  END
>  <MODEL>
4

>  <REMARK>
 VINA RESULT:      -7.2      2.140      9.363
  Name = 
  11 active torsions:
  status: ('A' for Active; 'I' for Inactive)
    1  A    between atoms: C_1  and  C_35
    2  A    between atoms: C_1  and  C_38
    3  A    between atoms: C_2  and  C_13
    4  A    between atoms: C_6  and  C_13
    5  A    between atoms: C_6  and  C_17
    6  A    between atoms: C_8  and  O_34
    7  A    between atoms: C_13  and  C_27
    8  A    between atoms: N_14  and  C_22
    9  A    between atoms: C_19  and  C_37
   10  A    between atoms: C_27  and  C_30
   11  A    between atoms: O_34  and  C_38
                            x       y       z     vdW  Elec       q    Type
                         _______ _______ _______ _____ _____    ______ ____

>  <TORSDO>
F 11

$$$$
=
 OpenBabel11052421133D

 43 48  0  0  1  0  0  0  0  0999 V2000
  185.2820  177.9590  146.4290 C   0  0  0  0  0  0  0  0  0  0  0  0
  190.0920  176.4950  145.8270 C   0  0  0  0  0  0  0  0  0  0  0  0
  187.3280  176.6570  146.5330 C   0  0  0  0  0  0  0  0  0  0  0  0
  185.8670  178.7780  145.3070 C   0  0  0  0  0  3  0  0  0  0  0  0
  183.9540  178.2850  146.8830 C   0  0  0  0  0  1  0  0  0  0  0  0
  187.7890  177.2020  145.0970 C   0  0  1  0  0  3  0  0  0  0  0  0
  185.9590  177.0020  147.0010 C   0  0  0  0  0  3  0  0  0  0  0  0
  187.0270  178.4550  144.7450 C   0  0  0  0  0  3  0  0  0  0  0  0
  189.2820  177.4430  145.0040 C   0  0  2  0  0  3  0  0  0  0  0  0
  189.4710  175.8100  146.8940 C   0  0  0  0  0  3  0  0  0  0  0  0
  188.1150  175.9740  147.2340 N   0  0  0  0  0  0  0  0  0  0  0  0
  189.8390  177.3120  143.4850 C   0  0  0  0  0  2  0  0  0  0  0  0
  188.9840  176.4800  142.4290 C   0  0  2  0  0  3  0  0  0  0  0  0
  188.1620  177.0820  141.4000 C   0  0  0  0  0  2  0  0  0  0  0  0
  186.6300  176.8430  141.6410 C   0  0  0  0  0  1  0  0  0  0  0  0
  189.0270  175.0390  142.5260 C   0  0  0  0  0  2  0  0  0  0  0  0
  191.1600  172.1110  143.1250 C   0  0  0  0  0  2  0  0  0  0  0  0
  191.4750  174.4700  142.0360 C   0  0  2  0  0  3  0  0  0  0  0  0
  192.6120  171.4020  140.6990 O   0  0  0  0  0  0  0  0  0  0  0  0
  190.4950  173.3200  142.3560 C   0  0  2  0  0  3  0  0  0  0  0  0
  190.7930  170.9730  142.2130 C   0  0  0  0  0  2  0  0  0  0  0  0
  190.3380  174.5010  143.1280 C   0  0  2  0  0  3  0  0  0  0  0  0
  192.9240  172.8000  140.4850 C   0  0  0  0  0  0  0  0  0  0  0  0
  191.9140  173.9960  140.5540 C   0  0  0  0  0  2  0  0  0  0  0  0
  191.2760  171.1470  140.7250 C   0  0  0  0  0  2  0  0  0  0  0  0
  194.8970  174.4620  140.7670 C   0  0  0  0  0  0  0  0  0  0  0  0
  194.3240  173.0880  140.7440 N   0  0  0  0  0  0  0  0  0  0  0  0
  196.9320  176.3080  143.0730 C   0  0  0  0  0  1  0  0  0  0  0  0
  196.8070  175.7060  140.6040 C   0  0  0  0  0  2  0  0  0  0  0  0
  196.0750  176.2300  141.7860 C   0  0  1  0  0  3  0  0  0  0  0  0
  195.9790  174.6040  140.1100 N   0  0  0  0  0  0  0  0  0  0  0  0
  194.8950  175.3130  142.0370 C   0  0  0  0  0  2  0  0  0  0  0  0
  191.5020  176.4680  145.7500 O   0  0  0  0  0  0  0  0  0  0  0  0
  192.3270  175.9030  146.7740 C   0  0  0  0  0  2  0  0  0  0  0  0
  193.8500  176.0100  146.4460 C   0  0  0  0  0  2  0  0  0  0  0  0
  194.2050  172.6400  144.9910 C   0  0  0  0  0  3  0  0  0  0  0  0
  195.5680  172.3690  145.2760 C   0  0  0  0  0  0  0  0  0  0  0  0
  195.8390  174.6660  146.0090 C   0  0  0  0  0  3  0  0  0  0  0  0
  193.6610  173.8210  145.2740 C   0  0  0  0  0  3  0  0  0  0  0  0
  194.4440  174.8570  145.8300 C   0  0  0  0  0  0  0  0  0  0  0  0
  196.3600  173.4280  145.7140 C   0  0  0  0  0  3  0  0  0  0  0  0
  196.7470  170.5910  146.3340 N   0  0  0  0  0  2  0  0  0  0  0  0
  196.1700  171.0570  145.2470 C   0  0  0  0  0  3  0  0  0  0  0  0
  1  5  1  0  0  0  0
  1  7  2  0  0  0  0
  2 10  2  0  0  0  0
  3  7  1  0  0  0  0
  3 11  2  0  0  0  0
  4  1  1  0  0  0  0
  6  8  1  1  0  0  0
  6  3  1  0  0  0  0
  8  4  2  0  0  0  0
  9 12  1  6  0  0  0
  9  6  1  0  0  0  0
  9  2  1  0  0  0  0
 10 11  1  0  0  0  0
 13 14  1  1  0  0  0
 13 16  1  0  0  0  0
 13 12  1  0  0  0  0
 14 15  1  0  0  0  0
 18 24  1  6  0  0  0
 18 20  1  0  0  0  0
 18 22  1  0  0  0  0
 19 25  1  0  0  0  0
 20 17  1  1  0  0  0
 20 22  1  0  0  0  0
 21 17  1  0  0  0  0
 22 16  1  6  0  0  0
 23 24  1  0  0  0  0
 23 19  1  0  0  0  0
 23 27  2  0  0  0  0
 25 21  1  0  0  0  0
 26 32  1  0  0  0  0
 27 26  1  0  0  0  0
 29 30  1  0  0  0  0
 30 32  1  0  0  0  0
 30 28  1  1  0  0  0
 31 29  1  0  0  0  0
 31 26  2  0  0  0  0
 33  2  1  0  0  0  0
 33 34  1  0  0  0  0
 35 34  1  0  0  0  0
 36 39  2  0  0  0  0
 36 37  1  0  0  0  0
 37 41  2  0  0  0  0
 39 40  1  0  0  0  0
 40 38  2  0  0  0  0
 40 35  1  0  0  0  0
 41 38  1  0  0  0  0
 43 37  1  0  0  0  0
 43 42  2  0  0  0  0
M  END
>  <MODEL>
5

>  <REMARK>
 VINA RESULT:      -7.2      2.245      8.148
  Name = 
  11 active torsions:
  status: ('A' for Active; 'I' for Inactive)
    1  A    between atoms: C_1  and  C_35
    2  A    between atoms: C_1  and  C_38
    3  A    between atoms: C_2  and  C_13
    4  A    between atoms: C_6  and  C_13
    5  A    between atoms: C_6  and  C_17
    6  A    between atoms: C_8  and  O_34
    7  A    between atoms: C_13  and  C_27
    8  A    between atoms: N_14  and  C_22
    9  A    between atoms: C_19  and  C_37
   10  A    between atoms: C_27  and  C_30
   11  A    between atoms: O_34  and  C_38
                            x       y       z     vdW  Elec       q    Type
                         _______ _______ _______ _____ _____    ______ ____

>  <TORSDO>
F 11

$$$$
=
 OpenBabel11052421133D

 43 48  0  0  1  0  0  0  0  0999 V2000
  185.1340  178.0510  145.9650 C   0  0  0  0  0  0  0  0  0  0  0  0
  189.9850  176.6110  145.8120 C   0  0  0  0  0  0  0  0  0  0  0  0
  187.1770  176.7850  146.3040 C   0  0  0  0  0  0  0  0  0  0  0  0
  185.7930  178.8020  144.8380 C   0  0  0  0  0  3  0  0  0  0  0  0
  183.7730  178.3890  146.3000 C   0  0  0  0  0  1  0  0  0  0  0  0
  187.7370  177.2400  144.8720 C   0  0  1  0  0  3  0  0  0  0  0  0
  185.7750  177.1430  146.6470 C   0  0  0  0  0  3  0  0  0  0  0  0
  186.9930  178.4580  144.3830 C   0  0  0  0  0  3  0  0  0  0  0  0
  189.2310  177.4930  144.8720 C   0  0  2  0  0  3  0  0  0  0  0  0
  189.2940  175.9900  146.8750 C   0  0  0  0  0  3  0  0  0  0  0  0
  187.9150  176.1590  147.1040 N   0  0  0  0  0  0  0  0  0  0  0  0
  189.8990  177.2700  143.4100 C   0  0  0  0  0  2  0  0  0  0  0  0
  190.0700  175.7810  142.8690 C   0  0  2  0  0  3  0  0  0  0  0  0
  188.9640  174.9290  142.4820 C   0  0  0  0  0  2  0  0  0  0  0  0
  187.9260  175.6740  141.5700 C   0  0  0  0  0  1  0  0  0  0  0  0
  191.4120  175.2560  142.7810 C   0  0  0  0  0  2  0  0  0  0  0  0
  191.4330  171.8160  141.4940 C   0  0  0  0  0  2  0  0  0  0  0  0
  193.0030  173.2620  143.0090 C   0  0  2  0  0  3  0  0  0  0  0  0
  194.0350  171.1800  140.3450 O   0  0  0  0  0  0  0  0  0  0  0  0
  191.9660  173.2560  141.8650 C   0  0  2  0  0  3  0  0  0  0  0  0
  191.7300  171.7880  140.0200 C   0  0  0  0  0  2  0  0  0  0  0  0
  191.5100  173.7550  143.1140 C   0  0  2  0  0  3  0  0  0  0  0  0
  194.6810  171.7900  141.4880 C   0  0  0  0  0  0  0  0  0  0  0  0
  194.3430  173.1890  142.1060 C   0  0  0  0  0  2  0  0  0  0  0  0
  193.2390  172.0410  139.6540 C   0  0  0  0  0  2  0  0  0  0  0  0
  195.6500  171.0560  143.7810 C   0  0  0  0  0  0  0  0  0  0  0  0
  195.2860  170.7990  142.3600 N   0  0  0  0  0  0  0  0  0  0  0  0
  195.0050  169.3900  146.8920 C   0  0  0  0  0  1  0  0  0  0  0  0
  196.9280  170.3760  145.5480 C   0  0  0  0  0  2  0  0  0  0  0  0
  195.5610  170.5910  146.0900 C   0  0  1  0  0  3  0  0  0  0  0  0
  196.8130  170.6650  144.1170 N   0  0  0  0  0  0  0  0  0  0  0  0
  194.6430  170.8660  144.9160 C   0  0  0  0  0  2  0  0  0  0  0  0
  191.3980  176.5980  145.8390 O   0  0  0  0  0  0  0  0  0  0  0  0
  192.1570  175.4540  146.2440 C   0  0  0  0  0  2  0  0  0  0  0  0
  193.6500  175.8000  146.5470 C   0  0  0  0  0  2  0  0  0  0  0  0
  196.6570  174.5410  144.8210 C   0  0  0  0  0  3  0  0  0  0  0  0
  196.7550  175.4650  143.7490 C   0  0  0  0  0  0  0  0  0  0  0  0
  194.5870  176.3620  144.3650 C   0  0  0  0  0  3  0  0  0  0  0  0
  195.6330  174.5740  145.6700 C   0  0  0  0  0  3  0  0  0  0  0  0
  194.5880  175.5080  145.4990 C   0  0  0  0  0  0  0  0  0  0  0  0
  195.6680  176.3040  143.5180 C   0  0  0  0  0  3  0  0  0  0  0  0
  197.9250  175.3140  141.6810 N   0  0  0  0  0  2  0  0  0  0  0  0
  197.9380  175.6720  142.9470 C   0  0  0  0  0  3  0  0  0  0  0  0
  1  5  1  0  0  0  0
  1  7  2  0  0  0  0
  2 33  1  0  0  0  0
  2 10  2  0  0  0  0
  3  7  1  0  0  0  0
  3 11  2  0  0  0  0
  4  1  1  0  0  0  0
  6  8  1  1  0  0  0
  6  9  1  0  0  0  0
  6  3  1  0  0  0  0
  8  4  2  0  0  0  0
  9 12  1  6  0  0  0
  9  2  1  0  0  0  0
 10 11  1  0  0  0  0
 13 14  1  1  0  0  0
 13 12  1  0  0  0  0
 15 14  1  0  0  0  0
 16 13  1  0  0  0  0
 18 24  1  6  0  0  0
 18 22  1  0  0  0  0
 19 23  1  0  0  0  0
 20 17  1  1  0  0  0
 20 18  1  0  0  0  0
 20 22  1  0  0  0  0
 21 17  1  0  0  0  0
 22 16  1  6  0  0  0
 23 24  1  0  0  0  0
 23 27  2  0  0  0  0
 25 21  1  0  0  0  0
 25 19  1  0  0  0  0
 26 31  2  0  0  0  0
 26 32  1  0  0  0  0
 27 26  1  0  0  0  0
 29 30  1  0  0  0  0
 30 28  1  6  0  0  0
 31 29  1  0  0  0  0
 32 30  1  0  0  0  0
 33 34  1  0  0  0  0
 34 35  1  0  0  0  0
 36 39  1  0  0  0  0
 37 36  2  0  0  0  0
 38 40  1  0  0  0  0
 40 39  2  0  0  0  0
 40 35  1  0  0  0  0
 41 37  1  0  0  0  0
 41 38  2  0  0  0  0
 42 43  2  0  0  0  0
 43 37  1  0  0  0  0
M  END
>  <MODEL>
6

>  <REMARK>
 VINA RESULT:      -7.2      2.416      8.679
  Name = 
  11 active torsions:
  status: ('A' for Active; 'I' for Inactive)
    1  A    between atoms: C_1  and  C_35
    2  A    between atoms: C_1  and  C_38
    3  A    between atoms: C_2  and  C_13
    4  A    between atoms: C_6  and  C_13
    5  A    between atoms: C_6  and  C_17
    6  A    between atoms: C_8  and  O_34
    7  A    between atoms: C_13  and  C_27
    8  A    between atoms: N_14  and  C_22
    9  A    between atoms: C_19  and  C_37
   10  A    between atoms: C_27  and  C_30
   11  A    between atoms: O_34  and  C_38
                            x       y       z     vdW  Elec       q    Type
                         _______ _______ _______ _____ _____    ______ ____

>  <TORSDO>
F 11

$$$$
=
 OpenBabel11052421133D

 43 48  0  0  1  0  0  0  0  0999 V2000
  189.6680  173.4440  138.5070 C   0  0  0  0  0  0  0  0  0  0  0  0
  193.9750  172.9380  141.1200 C   0  0  0  0  0  0  0  0  0  0  0  0
  192.0270  173.3400  139.0700 C   0  0  0  0  0  0  0  0  0  0  0  0
  189.3330  173.6050  139.9670 C   0  0  0  0  0  3  0  0  0  0  0  0
  188.5810  173.4130  137.5620 C   0  0  0  0  0  1  0  0  0  0  0  0
  191.7400  173.9340  140.5320 C   0  0  1  0  0  3  0  0  0  0  0  0
  190.9000  173.3040  138.1010 C   0  0  0  0  0  3  0  0  0  0  0  0
  190.2810  173.7770  140.8820 C   0  0  0  0  0  3  0  0  0  0  0  0
  192.6150  173.3190  141.6050 C   0  0  2  0  0  3  0  0  0  0  0  0
  194.1840  172.7560  139.7360 C   0  0  0  0  0  3  0  0  0  0  0  0
  193.1700  172.9110  138.7730 N   0  0  0  0  0  0  0  0  0  0  0  0
  192.8460  174.3150  142.8650 C   0  0  0  0  0  2  0  0  0  0  0  0
  193.0370  175.8710  142.5800 C   0  0  2  0  0  3  0  0  0  0  0  0
  194.0680  176.4150  141.7190 C   0  0  0  0  0  2  0  0  0  0  0  0
  195.5130  176.0800  142.2310 C   0  0  0  0  0  1  0  0  0  0  0  0
  192.1330  176.7850  143.2390 C   0  0  0  0  0  2  0  0  0  0  0  0
  189.4140  174.5980  144.3860 C   0  0  0  0  0  2  0  0  0  0  0  0
  189.7700  177.1800  144.1430 C   0  0  2  0  0  3  0  0  0  0  0  0
  188.3710  175.5340  146.9410 O   0  0  0  0  0  0  0  0  0  0  0  0
  190.4340  175.8050  144.3770 C   0  0  2  0  0  3  0  0  0  0  0  0
  189.7380  173.9780  145.7170 C   0  0  0  0  0  2  0  0  0  0  0  0
  190.6500  176.3900  143.1010 C   0  0  2  0  0  3  0  0  0  0  0  0
  188.3750  176.8910  146.4380 C   0  0  1  0  0  3  0  0  0  0  0  0
  189.5560  177.5990  145.6900 C   0  0  0  0  0  2  0  0  0  0  0  0
  189.6040  174.9570  146.9420 C   0  0  0  0  0  2  0  0  0  0  0  0
  186.6790  178.2900  145.0600 C   0  0  0  0  0  0  0  0  0  0  0  0
  187.0310  177.3760  146.1820 N   0  0  0  0  0  2  0  0  0  0  0  0
  184.2060  178.2600  142.4610 C   0  0  0  0  0  1  0  0  0  0  0  0
  185.1490  179.7890  144.2640 C   0  0  0  0  0  2  0  0  0  0  0  0
  185.4580  178.8770  143.1310 C   0  0  1  0  0  3  0  0  0  0  0  0
  185.9440  179.2790  145.3820 N   0  0  0  0  0  0  0  0  0  0  0  0
  186.3280  177.7590  143.6700 C   0  0  0  0  0  2  0  0  0  0  0  0
  194.9780  172.4910  142.0090 O   0  0  0  0  0  0  0  0  0  0  0  0
  194.7570  171.4570  142.9740 C   0  0  0  0  0  2  0  0  0  0  0  0
  195.5840  171.6690  144.2830 C   0  0  0  0  0  2  0  0  0  0  0  0
  193.4030  173.9940  146.1380 C   0  0  0  0  0  3  0  0  0  0  0  0
  194.2030  175.1660  146.1390 C   0  0  0  0  0  0  0  0  0  0  0  0
  196.0410  173.8740  145.2220 C   0  0  0  0  0  3  0  0  0  0  0  0
  193.8550  172.8490  145.6320 C   0  0  0  0  0  3  0  0  0  0  0  0
  195.1680  172.7600  145.1200 C   0  0  0  0  0  0  0  0  0  0  0  0
  195.5320  175.0420  145.7400 C   0  0  0  0  0  3  0  0  0  0  0  0
  194.5660  177.4980  146.4540 N   0  0  0  0  0  2  0  0  0  0  0  0
  193.7150  176.4950  146.4210 C   0  0  0  0  0  3  0  0  0  0  0  0
  1  4  1  0  0  0  0
  2  9  1  0  0  0  0
  2 33  1  0  0  0  0
  3  6  1  0  0  0  0
  4  8  2  0  0  0  0
  5  1  1  0  0  0  0
  6  8  1  1  0  0  0
  6  9  1  0  0  0  0
  7  1  2  0  0  0  0
  7  3  1  0  0  0  0
  9 12  1  1  0  0  0
 10  2  2  0  0  0  0
 11  3  2  0  0  0  0
 11 10  1  0  0  0  0
 13 14  1  1  0  0  0
 13 12  1  0  0  0  0
 13 16  1  0  0  0  0
 14 15  1  0  0  0  0
 17 21  1  0  0  0  0
 18 20  1  0  0  0  0
 18 24  1  1  0  0  0
 19 25  1  0  0  0  0
 20 17  1  6  0  0  0
 21 25  1  0  0  0  0
 22 16  1  1  0  0  0
 22 18  1  0  0  0  0
 22 20  1  0  0  0  0
 23 27  1  6  0  0  0
 23 19  1  0  0  0  0
 24 23  1  0  0  0  0
 26 31  2  0  0  0  0
 26 27  1  0  0  0  0
 29 31  1  0  0  0  0
 30 28  1  1  0  0  0
 30 32  1  0  0  0  0
 30 29  1  0  0  0  0
 32 26  1  0  0  0  0
 33 34  1  0  0  0  0
 34 35  1  0  0  0  0
 35 40  1  0  0  0  0
 36 37  1  0  0  0  0
 37 43  1  0  0  0  0
 38 41  1  0  0  0  0
 39 36  2  0  0  0  0
 40 38  2  0  0  0  0
 40 39  1  0  0  0  0
 41 37  2  0  0  0  0
 43 42  2  0  0  0  0
M  END
>  <MODEL>
7

>  <REMARK>
 VINA RESULT:      -7.2      2.364      5.390
  Name = 
  11 active torsions:
  status: ('A' for Active; 'I' for Inactive)
    1  A    between atoms: C_1  and  C_35
    2  A    between atoms: C_1  and  C_38
    3  A    between atoms: C_2  and  C_13
    4  A    between atoms: C_6  and  C_13
    5  A    between atoms: C_6  and  C_17
    6  A    between atoms: C_8  and  O_34
    7  A    between atoms: C_13  and  C_27
    8  A    between atoms: N_14  and  C_22
    9  A    between atoms: C_19  and  C_37
   10  A    between atoms: C_27  and  C_30
   11  A    between atoms: O_34  and  C_38
                            x       y       z     vdW  Elec       q    Type
                         _______ _______ _______ _____ _____    ______ ____

>  <TORSDO>
F 11

$$$$
=
 OpenBabel11052421133D

 43 48  0  0  1  0  0  0  0  0999 V2000
  185.1700  177.7400  142.6910 C   0  0  0  0  0  0  0  0  0  0  0  0
  188.3160  176.2920  146.3840 C   0  0  0  0  0  0  0  0  0  0  0  0
  186.0150  176.9410  144.8210 C   0  0  0  0  0  0  0  0  0  0  0  0
  186.5050  177.4460  142.0580 C   0  0  0  0  0  3  0  0  0  0  0  0
  184.1350  178.3030  141.8590 C   0  0  0  0  0  1  0  0  0  0  0  0
  187.2580  176.2300  144.1010 C   0  0  1  0  0  3  0  0  0  0  0  0
  184.9540  177.5260  143.9590 C   0  0  0  0  0  3  0  0  0  0  0  0
  187.4610  176.8060  142.7210 C   0  0  0  0  0  3  0  0  0  0  0  0
  188.5390  176.3140  144.9070 C   0  0  2  0  0  3  0  0  0  0  0  0
  187.0450  176.6360  146.8910 C   0  0  0  0  0  3  0  0  0  0  0  0
  185.9590  177.0050  146.0740 N   0  0  0  0  0  0  0  0  0  0  0  0
  189.5560  175.0920  144.5850 C   0  0  0  0  0  2  0  0  0  0  0  0
  190.6700  175.3020  143.4650 C   0  0  2  0  0  3  0  0  0  0  0  0
  191.4860  176.4930  143.3490 C   0  0  0  0  0  2  0  0  0  0  0  0
  192.8970  176.1940  142.7310 C   0  0  0  0  0  1  0  0  0  0  0  0
  190.8540  174.2400  142.5030 C   0  0  0  0  0  2  0  0  0  0  0  0
  191.1260  170.6110  142.0150 C   0  0  0  0  0  2  0  0  0  0  0  0
  192.6700  172.4960  142.9720 C   0  0  2  0  0  3  0  0  0  0  0  0
  193.6550  169.9470  140.7290 O   0  0  0  0  0  0  0  0  0  0  0  0
  191.5310  172.1370  141.9910 C   0  0  2  0  0  3  0  0  0  0  0  0
  191.2770  170.2660  140.5600 C   0  0  0  0  0  2  0  0  0  0  0  0
  191.1480  172.8720  143.1450 C   0  0  2  0  0  3  0  0  0  0  0  0
  194.3410  170.8580  141.6220 C   0  0  1  0  0  3  0  0  0  0  0  0
  193.9130  172.3290  141.9520 C   0  0  0  0  0  2  0  0  0  0  0  0
  192.7060  170.5540  139.9660 C   0  0  0  0  0  2  0  0  0  0  0  0
  195.2470  170.5700  144.0360 C   0  0  0  0  0  0  0  0  0  0  0  0
  195.1340  170.1510  142.6120 N   0  0  0  0  0  2  0  0  0  0  0  0
  194.8430  168.9150  147.1930 C   0  0  0  0  0  1  0  0  0  0  0  0
  196.4840  170.4110  145.9510 C   0  0  0  0  0  2  0  0  0  0  0  0
  195.0700  170.1970  146.3570 C   0  0  1  0  0  3  0  0  0  0  0  0
  196.4330  170.5890  144.4980 N   0  0  0  0  0  0  0  0  0  0  0  0
  194.2400  170.1120  145.0920 C   0  0  0  0  0  2  0  0  0  0  0  0
  189.3950  176.2110  147.2920 O   0  0  0  0  0  0  0  0  0  0  0  0
  190.5570  177.0420  147.1980 C   0  0  0  0  0  2  0  0  0  0  0  0
  191.8350  176.3560  147.7770 C   0  0  0  0  0  2  0  0  0  0  0  0
  193.9310  174.0870  145.7610 C   0  0  0  0  0  3  0  0  0  0  0  0
  195.0490  174.9200  145.4990 C   0  0  0  0  0  0  0  0  0  0  0  0
  193.8380  176.7930  146.4530 C   0  0  0  0  0  3  0  0  0  0  0  0
  192.8620  174.5480  146.4060 C   0  0  0  0  0  3  0  0  0  0  0  0
  192.7950  175.8990  146.8110 C   0  0  0  0  0  0  0  0  0  0  0  0
  194.9300  176.2750  145.7960 C   0  0  0  0  0  3  0  0  0  0  0  0
  196.8460  174.9430  143.9370 N   0  0  0  0  0  2  0  0  0  0  0  0
  196.3370  174.4500  145.0460 C   0  0  0  0  0  3  0  0  0  0  0  0
  1  7  2  0  0  0  0
  2 10  2  0  0  0  0
  2 33  1  0  0  0  0
  3 11  2  0  0  0  0
  4  1  1  0  0  0  0
  4  8  2  0  0  0  0
  5  1  1  0  0  0  0
  6  8  1  6  0  0  0
  6  3  1  0  0  0  0
  6  9  1  0  0  0  0
  7  3  1  0  0  0  0
  9 12  1  6  0  0  0
  9  2  1  0  0  0  0
 11 10  1  0  0  0  0
 13 16  1  6  0  0  0
 13 12  1  0  0  0  0
 14 13  1  0  0  0  0
 15 14  1  0  0  0  0
 18 24  1  6  0  0  0
 18 22  1  0  0  0  0
 19 23  1  0  0  0  0
 20 17  1  1  0  0  0
 20 18  1  0  0  0  0
 20 22  1  0  0  0  0
 21 17  1  0  0  0  0
 22 16  1  6  0  0  0
 23 24  1  0  0  0  0
 23 27  1  1  0  0  0
 25 21  1  0  0  0  0
 25 19  1  0  0  0  0
 26 31  2  0  0  0  0
 26 32  1  0  0  0  0
 27 26  1  0  0  0  0
 29 30  1  0  0  0  0
 30 28  1  6  0  0  0
 31 29  1  0  0  0  0
 32 30  1  0  0  0  0
 34 33  1  0  0  0  0
 34 35  1  0  0  0  0
 36 39  1  0  0  0  0
 37 36  2  0  0  0  0
 37 41  1  0  0  0  0
 38 40  1  0  0  0  0
 39 40  2  0  0  0  0
 40 35  1  0  0  0  0
 41 38  2  0  0  0  0
 42 43  2  0  0  0  0
 43 37  1  0  0  0  0
M  END
>  <MODEL>
8

>  <REMARK>
 VINA RESULT:      -7.1      2.541      8.286
  Name = 
  11 active torsions:
  status: ('A' for Active; 'I' for Inactive)
    1  A    between atoms: C_1  and  C_35
    2  A    between atoms: C_1  and  C_38
    3  A    between atoms: C_2  and  C_13
    4  A    between atoms: C_6  and  C_13
    5  A    between atoms: C_6  and  C_17
    6  A    between atoms: C_8  and  O_34
    7  A    between atoms: C_13  and  C_27
    8  A    between atoms: N_14  and  C_22
    9  A    between atoms: C_19  and  C_37
   10  A    between atoms: C_27  and  C_30
   11  A    between atoms: O_34  and  C_38
                            x       y       z     vdW  Elec       q    Type
                         _______ _______ _______ _____ _____    ______ ____

>  <TORSDO>
F 11

$$$$
=
 OpenBabel11052421133D

 43 48  0  0  1  0  0  0  0  0999 V2000
  186.0850  178.0710  146.0400 C   0  0  0  0  0  0  0  0  0  0  0  0
  190.6680  176.0510  146.7840 C   0  0  0  0  0  0  0  0  0  0  0  0
  188.2180  177.4960  147.0470 C   0  0  0  0  0  0  0  0  0  0  0  0
  186.2270  176.9100  145.0900 C   0  0  0  0  0  3  0  0  0  0  0  0
  184.9100  178.8980  145.9270 C   0  0  0  0  0  1  0  0  0  0  0  0
  188.1850  176.0430  146.3680 C   0  0  1  0  0  3  0  0  0  0  0  0
  187.0050  178.3490  146.9210 C   0  0  0  0  0  3  0  0  0  0  0  0
  187.2110  176.0260  145.2170 C   0  0  0  0  0  3  0  0  0  0  0  0
  189.5520  175.5690  145.9170 C   0  0  2  0  0  3  0  0  0  0  0  0
  190.4600  177.1820  147.6030 C   0  0  0  0  0  3  0  0  0  0  0  0
  189.2460  177.8920  147.6490 N   0  0  0  0  0  0  0  0  0  0  0  0
  189.6690  173.9500  145.8890 C   0  0  0  0  0  2  0  0  0  0  0  0
  189.8270  173.2220  144.4810 C   0  0  2  0  0  3  0  0  0  0  0  0
  188.9400  173.4370  143.3550 C   0  0  0  0  0  2  0  0  0  0  0  0
  189.4860  172.7920  142.0330 C   0  0  0  0  0  1  0  0  0  0  0  0
  190.9130  172.2810  144.3370 C   0  0  0  0  0  2  0  0  0  0  0  0
  194.3690  171.6610  145.4150 C   0  0  0  0  0  2  0  0  0  0  0  0
  193.2210  172.8200  143.3680 C   0  0  2  0  0  3  0  0  0  0  0  0
  195.9330  170.5580  143.2180 O   0  0  0  0  0  0  0  0  0  0  0  0
  193.1110  171.7360  144.4620 C   0  0  2  0  0  3  0  0  0  0  0  0
  194.7320  170.2090  145.2720 C   0  0  0  0  0  2  0  0  0  0  0  0
  192.2960  172.8850  144.6430 C   0  0  2  0  0  3  0  0  0  0  0  0
  195.3590  171.5420  142.3240 C   0  0  1  0  0  3  0  0  0  0  0  0
  193.8400  171.8990  142.1910 C   0  0  0  0  0  2  0  0  0  0  0  0
  195.0040  169.7470  143.7930 C   0  0  0  0  0  2  0  0  0  0  0  0
  195.9950  174.0100  141.8320 C   0  0  0  0  0  0  0  0  0  0  0  0
  196.3240  172.5620  141.9520 N   0  0  0  0  0  2  0  0  0  0  0  0
  197.4180  177.0350  143.1320 C   0  0  0  0  0  1  0  0  0  0  0  0
  196.6290  176.0150  140.9380 C   0  0  0  0  0  2  0  0  0  0  0  0
  196.3040  176.2850  142.3630 C   0  0  1  0  0  3  0  0  0  0  0  0
  196.4270  174.5730  140.7760 N   0  0  0  0  0  0  0  0  0  0  0  0
  196.0560  174.9500  143.0360 C   0  0  0  0  0  2  0  0  0  0  0  0
  191.9910  175.5900  146.6090 O   0  0  0  0  0  0  0  0  0  0  0  0
  193.0440  176.4180  146.1040 C   0  0  0  0  0  2  0  0  0  0  0  0
  193.1830  176.3320  144.5500 C   0  0  0  0  0  2  0  0  0  0  0  0
  190.3980  178.5550  143.6000 C   0  0  0  0  0  3  0  0  0  0  0  0
  189.6410  177.6920  142.7660 C   0  0  0  0  0  0  0  0  0  0  0  0
  191.4460  176.0740  142.8560 C   0  0  0  0  0  3  0  0  0  0  0  0
  191.5680  178.1750  144.1070 C   0  0  0  0  0  3  0  0  0  0  0  0
  192.1120  176.9110  143.7890 C   0  0  0  0  0  0  0  0  0  0  0  0
  190.2340  176.4980  142.3640 C   0  0  0  0  0  3  0  0  0  0  0  0
  187.8170  177.3900  141.2660 N   0  0  0  0  0  2  0  0  0  0  0  0
  188.2650  177.9110  142.3880 C   0  0  0  0  0  3  0  0  0  0  0  0
  1  7  2  0  0  0  0
  2 10  2  0  0  0  0
  3 11  2  0  0  0  0
  4  8  2  0  0  0  0
  4  1  1  0  0  0  0
  5  1  1  0  0  0  0
  6  8  1  6  0  0  0
  6  3  1  0  0  0  0
  7  3  1  0  0  0  0
  9 12  1  1  0  0  0
  9  6  1  0  0  0  0
  9  2  1  0  0  0  0
 10 11  1  0  0  0  0
 13 14  1  1  0  0  0
 13 12  1  0  0  0  0
 15 14  1  0  0  0  0
 16 13  1  0  0  0  0
 18 24  1  6  0  0  0
 18 20  1  0  0  0  0
 18 22  1  0  0  0  0
 19 25  1  0  0  0  0
 20 22  1  0  0  0  0
 20 17  1  1  0  0  0
 21 17  1  0  0  0  0
 22 16  1  6  0  0  0
 23 27  1  1  0  0  0
 23 19  1  0  0  0  0
 24 23  1  0  0  0  0
 25 21  1  0  0  0  0
 26 27  1  0  0  0  0
 26 32  1  0  0  0  0
 29 30  1  0  0  0  0
 30 32  1  0  0  0  0
 30 28  1  1  0  0  0
 31 29  1  0  0  0  0
 31 26  2  0  0  0  0
 33  2  1  0  0  0  0
 34 33  1  0  0  0  0
 35 34  1  0  0  0  0
 36 39  1  0  0  0  0
 37 36  2  0  0  0  0
 38 40  1  0  0  0  0
 40 39  2  0  0  0  0
 40 35  1  0  0  0  0
 41 37  1  0  0  0  0
 41 38  2  0  0  0  0
 42 43  2  0  0  0  0
 43 37  1  0  0  0  0
M  END
>  <MODEL>
9

>  <REMARK>
 VINA RESULT:      -7.1      2.083      7.561
  Name = 
  11 active torsions:
  status: ('A' for Active; 'I' for Inactive)
    1  A    between atoms: C_1  and  C_35
    2  A    between atoms: C_1  and  C_38
    3  A    between atoms: C_2  and  C_13
    4  A    between atoms: C_6  and  C_13
    5  A    between atoms: C_6  and  C_17
    6  A    between atoms: C_8  and  O_34
    7  A    between atoms: C_13  and  C_27
    8  A    between atoms: N_14  and  C_22
    9  A    between atoms: C_19  and  C_37
   10  A    between atoms: C_27  and  C_30
   11  A    between atoms: O_34  and  C_38
                            x       y       z     vdW  Elec       q    Type
                         _______ _______ _______ _____ _____    ______ ____

>  <TORSDO>
F 11

$$$$
