=
 OpenBabel11052421243D

 43 47  0  0  1  0  0  0  0  0999 V2000
  192.2340  175.0410  142.2290 C   0  0  0  0  0  0  0  0  0  0  0  0
  191.1660  175.5490  142.8610 C   0  0  0  0  0  3  0  0  0  0  0  0
  190.5020  174.2070  145.7350 C   0  0  0  0  0  2  0  0  0  0  0  0
  189.4650  177.0060  144.9840 C   0  0  2  0  0  3  0  0  0  0  0  0
  188.8500  177.8530  143.8330 C   0  0  1  0  0  3  0  0  0  0  0  0
  189.4120  174.9780  146.4330 C   0  0  0  0  0  0  0  0  0  0  0  0
  189.0030  174.5450  147.6250 C   0  0  0  0  0  2  0  0  0  0  0  0
  188.6420  175.5330  142.5970 C   0  0  2  0  0  3  0  0  0  0  0  0
  188.5770  176.0090  145.7150 C   0  0  1  0  0  3  0  0  0  0  0  0
  189.9370  173.2320  144.7470 C   0  0  0  0  0  3  0  0  0  0  0  0
  188.6670  177.0700  142.5120 C   0  0  1  0  0  3  0  0  0  0  0  0
  188.8290  177.3880  146.3020 C   0  0  0  0  0  2  0  0  0  0  0  0
  188.8160  172.6820  142.6380 C   0  0  0  0  0  2  0  0  0  0  0  0
  189.6870  173.5680  143.4800 C   0  0  0  0  0  0  0  0  0  0  0  0
  188.5360  173.3430  141.2730 C   0  0  0  0  0  2  0  0  0  0  0  0
  189.8860  174.9090  143.0250 N   0  0  0  0  0  0  0  0  0  0  0  0
  188.0690  174.8160  141.3690 C   0  0  0  0  0  2  0  0  0  0  0  0
  187.4520  177.7050  143.2100 C   0  0  1  0  0  3  0  0  0  0  0  0
  186.4930  176.7520  143.9260 C   0  0  0  0  0  2  0  0  0  0  0  0
  185.3050  177.5170  144.4890 C   0  0  0  0  0  2  0  0  0  0  0  0
  184.1000  178.0340  146.4850 O   0  0  0  0  0  1  0  0  0  0  0  0
  185.1290  177.2430  145.9730 C   0  0  0  0  0  2  0  0  0  0  0  0
  193.4910  175.8530  142.2350 C   0  0  0  0  0  2  0  0  0  0  0  0
  196.5580  174.1120  143.9080 C   0  0  0  0  0  0  0  0  0  0  0  0
  196.1310  174.2530  145.3150 C   0  0  0  0  0  0  0  0  0  0  0  0
  197.1190  173.6190  146.6190 Cl  0  0  0  0  0  0  0  0  0  0  0  0
  194.1170  175.4080  144.5520 C   0  0  0  0  0  3  0  0  0  0  0  0
  195.7270  174.6820  142.7930 C   0  0  0  0  0  2  0  0  0  0  0  0
  194.4480  175.3340  143.2570 C   0  0  0  0  0  0  0  0  0  0  0  0
  197.6320  173.5170  143.6300 O   0  0  0  0  0  0  0  0  0  0  0  0
  194.9850  174.8640  145.6080 C   0  0  0  0  0  3  0  0  0  0  0  0
  192.1800  173.7600  141.4400 C   0  0  1  0  0  3  0  0  0  0  0  0
  192.4420  174.0380  139.9560 C   0  0  1  0  0  3  0  0  0  0  0  0
  193.6350  173.4550  139.5030 O   0  0  0  0  0  1  0  0  0  0  0  0
  191.3410  173.7260  139.1290 O   0  0  0  0  0  0  0  0  0  0  0  0
  191.2280  172.3310  139.0200 C   0  0  0  0  0  2  0  0  0  0  0  0
  190.2510  171.9870  137.9170 C   0  0  0  0  0  2  0  0  0  0  0  0
  189.5700  173.2520  137.4370 C   0  0  0  0  0  2  0  0  0  0  0  0
  188.2380  173.2470  137.8540 O   0  0  0  0  0  1  0  0  0  0  0  0
  193.1070  172.8060  141.9490 O   0  0  0  0  0  0  0  0  0  0  0  0
  193.2630  171.8990  144.2260 N   0  0  0  0  0  1  0  0  0  0  0  0
  192.7450  171.8490  142.8990 C   0  0  0  0  0  0  0  0  0  0  0  0
  191.9430  170.9350  142.5810 O   0  0  0  0  0  0  0  0  0  0  0  0
  1 23  1  0  0  0  0
  1  2  2  0  0  0  0
  2 16  1  0  0  0  0
  3  6  1  0  0  0  0
  4  9  1  0  0  0  0
  4 12  1  1  0  0  0
  5  4  1  0  0  0  0
  6  7  2  0  0  0  0
  8 16  1  0  0  0  0
  9 12  1  0  0  0  0
  9  6  1  0  0  0  0
 10  3  1  0  0  0  0
 11  8  1  0  0  0  0
 11 18  1  0  0  0  0
 11  5  1  0  0  0  0
 13 14  1  0  0  0  0
 14 10  2  0  0  0  0
 15 17  1  0  0  0  0
 15 13  1  0  0  0  0
 16 14  1  0  0  0  0
 17  8  1  0  0  0  0
 18  5  1  0  0  0  0
 18 19  1  0  0  0  0
 19 20  1  0  0  0  0
 20 22  1  0  0  0  0
 22 21  1  0  0  0  0
 23 29  1  0  0  0  0
 24 25  1  0  0  0  0
 25 31  2  0  0  0  0
 25 26  1  0  0  0  0
 27 31  1  0  0  0  0
 28 29  1  0  0  0  0
 28 24  1  0  0  0  0
 29 27  2  0  0  0  0
 30 24  2  0  0  0  0
 32 40  1  0  0  0  0
 32  1  1  0  0  0  0
 33 32  1  0  0  0  0
 34 33  1  0  0  0  0
 35 33  1  0  0  0  0
 36 35  1  0  0  0  0
 37 36  1  0  0  0  0
 38 39  1  0  0  0  0
 38 37  1  0  0  0  0
 40 42  1  0  0  0  0
 42 41  1  0  0  0  0
 43 42  2  0  0  0  0
M  END
>  <MODEL>
1

>  <REMARK>
 VINA RESULT:      -6.6      0.000      0.000
  Name = 
  14 active torsions:
  status: ('A' for Active; 'I' for Inactive)
    1  A    between atoms: C_1  and  C_34
    2  A    between atoms: C_1  and  C_35
    3  A    between atoms: C_5  and  C_18
    4  A    between atoms: C_5  and  C_23
    5  A    between atoms: C_8  and  C_21
    6  A    between atoms: C_8  and  O_30
    7  A    between atoms: C_8  and  C_34
    8  A    between atoms: C_10  and  C_41
    9  A    between atoms: C_10  and  C_42
   10  A    between atoms: O_16  and  C_21
   11  A    between atoms: O_16  and  C_23
   12  A    between atoms: C_22  and  C_42
   13  A    between atoms: O_30  and  C_33
   14  A    between atoms: N_36  and  C_38
                            x       y       z     vdW  Elec       q    Type
                         _______ _______ _______ _____ _____    ______ ____

>  <TORSDO>
F 14

$$$$
=
 OpenBabel11052421243D

 43 47  0  0  1  0  0  0  0  0999 V2000
  192.1440  174.6850  141.8580 C   0  0  0  0  0  0  0  0  0  0  0  0
  191.1720  175.2490  142.5900 C   0  0  0  0  0  3  0  0  0  0  0  0
  190.4690  174.0380  145.5130 C   0  0  0  0  0  2  0  0  0  0  0  0
  189.6510  176.8950  144.7110 C   0  0  2  0  0  3  0  0  0  0  0  0
  189.0810  177.7620  143.5510 C   0  0  1  0  0  3  0  0  0  0  0  0
  189.4640  174.9150  146.2140 C   0  0  0  0  0  0  0  0  0  0  0  0
  189.0490  174.5470  147.4250 C   0  0  0  0  0  2  0  0  0  0  0  0
  188.6500  175.4380  142.3830 C   0  0  2  0  0  3  0  0  0  0  0  0
  188.7010  175.9950  145.4870 C   0  0  1  0  0  3  0  0  0  0  0  0
  189.8000  173.0900  144.5630 C   0  0  0  0  0  3  0  0  0  0  0  0
  188.8010  176.9650  142.2560 C   0  0  1  0  0  3  0  0  0  0  0  0
  189.0810  177.3620  146.0320 C   0  0  0  0  0  2  0  0  0  0  0  0
  188.5860  172.5850  142.4960 C   0  0  0  0  0  2  0  0  0  0  0  0
  189.5480  173.4150  143.2940 C   0  0  0  0  0  0  0  0  0  0  0  0
  188.3290  173.2330  141.1200 C   0  0  0  0  0  2  0  0  0  0  0  0
  189.8470  174.7230  142.7990 N   0  0  0  0  0  0  0  0  0  0  0  0
  187.9890  174.7420  141.1870 C   0  0  0  0  0  2  0  0  0  0  0  0
  187.6610  177.7170  142.9640 C   0  0  1  0  0  3  0  0  0  0  0  0
  186.6430  176.8670  143.7260 C   0  0  0  0  0  2  0  0  0  0  0  0
  185.6080  177.7530  144.4020 C   0  0  0  0  0  2  0  0  0  0  0  0
  185.3370  178.2610  146.7190 O   0  0  0  0  0  1  0  0  0  0  0  0
  185.2550  177.2300  145.7830 C   0  0  0  0  0  2  0  0  0  0  0  0
  193.4740  175.3720  141.8300 C   0  0  0  0  0  2  0  0  0  0  0  0
  195.0060  175.2390  145.4170 C   0  0  0  0  0  0  0  0  0  0  0  0
  196.0400  174.2170  145.1610 C   0  0  0  0  0  0  0  0  0  0  0  0
  197.1320  173.7070  146.4360 Cl  0  0  0  0  0  0  0  0  0  0  0  0
  195.2690  174.0660  142.8470 C   0  0  0  0  0  3  0  0  0  0  0  0
  194.0510  175.6540  144.3330 C   0  0  0  0  0  2  0  0  0  0  0  0
  194.2980  174.9730  143.0100 C   0  0  0  0  0  0  0  0  0  0  0  0
  194.9100  175.7700  146.5550 O   0  0  0  0  0  0  0  0  0  0  0  0
  196.1550  173.6700  143.9520 C   0  0  0  0  0  3  0  0  0  0  0  0
  191.9180  173.4710  140.9990 C   0  0  1  0  0  3  0  0  0  0  0  0
  192.4110  173.7300  139.5710 C   0  0  1  0  0  3  0  0  0  0  0  0
  193.3530  172.7800  139.1480 O   0  0  0  0  0  1  0  0  0  0  0  0
  191.3610  173.9000  138.6420 O   0  0  0  0  0  0  0  0  0  0  0  0
  191.0220  172.6510  138.0970 C   0  0  0  0  0  2  0  0  0  0  0  0
  189.5760  172.6680  137.6530 C   0  0  0  0  0  2  0  0  0  0  0  0
  189.2020  174.0690  137.2160 C   0  0  0  0  0  2  0  0  0  0  0  0
  187.9490  174.3980  137.7360 O   0  0  0  0  0  1  0  0  0  0  0  0
  192.5530  172.3230  141.5540 O   0  0  0  0  0  0  0  0  0  0  0  0
  192.0530  170.3830  142.9740 N   0  0  0  0  0  1  0  0  0  0  0  0
  191.8690  171.1260  141.7720 C   0  0  0  0  0  0  0  0  0  0  0  0
  191.0720  170.7010  140.8970 O   0  0  0  0  0  0  0  0  0  0  0  0
  1  2  2  0  0  0  0
  2 16  1  0  0  0  0
  3  6  1  0  0  0  0
  4  9  1  0  0  0  0
  4 12  1  1  0  0  0
  5  4  1  0  0  0  0
  6  7  2  0  0  0  0
  8 16  1  0  0  0  0
  9 12  1  0  0  0  0
  9  6  1  0  0  0  0
 10  3  1  0  0  0  0
 11  8  1  0  0  0  0
 11 18  1  0  0  0  0
 11  5  1  0  0  0  0
 13 14  1  0  0  0  0
 14 10  2  0  0  0  0
 15 17  1  0  0  0  0
 15 13  1  0  0  0  0
 16 14  1  0  0  0  0
 17  8  1  0  0  0  0
 18  5  1  0  0  0  0
 18 19  1  0  0  0  0
 19 20  1  0  0  0  0
 20 22  1  0  0  0  0
 22 21  1  0  0  0  0
 23  1  1  0  0  0  0
 23 29  1  0  0  0  0
 24 30  2  0  0  0  0
 25 24  1  0  0  0  0
 25 26  1  0  0  0  0
 27 29  2  0  0  0  0
 27 31  1  0  0  0  0
 28 24  1  0  0  0  0
 29 28  1  0  0  0  0
 31 25  2  0  0  0  0
 32 40  1  0  0  0  0
 32  1  1  0  0  0  0
 33 32  1  0  0  0  0
 34 33  1  0  0  0  0
 35 33  1  0  0  0  0
 36 35  1  0  0  0  0
 37 36  1  0  0  0  0
 38 37  1  0  0  0  0
 38 39  1  0  0  0  0
 40 42  1  0  0  0  0
 42 41  1  0  0  0  0
 43 42  2  0  0  0  0
M  END
>  <MODEL>
2

>  <REMARK>
 VINA RESULT:      -6.6      1.012      1.249
  Name = 
  14 active torsions:
  status: ('A' for Active; 'I' for Inactive)
    1  A    between atoms: C_1  and  C_34
    2  A    between atoms: C_1  and  C_35
    3  A    between atoms: C_5  and  C_18
    4  A    between atoms: C_5  and  C_23
    5  A    between atoms: C_8  and  C_21
    6  A    between atoms: C_8  and  O_30
    7  A    between atoms: C_8  and  C_34
    8  A    between atoms: C_10  and  C_41
    9  A    between atoms: C_10  and  C_42
   10  A    between atoms: O_16  and  C_21
   11  A    between atoms: O_16  and  C_23
   12  A    between atoms: C_22  and  C_42
   13  A    between atoms: O_30  and  C_33
   14  A    between atoms: N_36  and  C_38
                            x       y       z     vdW  Elec       q    Type
                         _______ _______ _______ _____ _____    ______ ____

>  <TORSDO>
F 14

$$$$
=
 OpenBabel11052421243D

 43 47  0  0  1  0  0  0  0  0999 V2000
  190.8320  176.3490  144.3440 C   0  0  0  0  0  0  0  0  0  0  0  0
  192.0800  176.1870  143.8810 C   0  0  0  0  0  3  0  0  0  0  0  0
  193.8900  175.8870  141.2090 C   0  0  0  0  0  2  0  0  0  0  0  0
  195.1440  176.5470  143.9420 C   0  0  2  0  0  3  0  0  0  0  0  0
  195.0990  176.2120  145.4600 C   0  0  1  0  0  3  0  0  0  0  0  0
  195.3480  175.7940  141.5740 C   0  0  0  0  0  0  0  0  0  0  0  0
  196.2320  175.6460  140.5880 C   0  0  0  0  0  2  0  0  0  0  0  0
  193.5010  174.2540  144.7090 C   0  0  2  0  0  3  0  0  0  0  0  0
  195.8040  175.5580  142.9930 C   0  0  1  0  0  3  0  0  0  0  0  0
  193.2090  174.5570  141.3300 C   0  0  0  0  0  3  0  0  0  0  0  0
  194.0300  175.1600  145.8360 C   0  0  1  0  0  3  0  0  0  0  0  0
  196.5750  176.7630  143.5030 C   0  0  0  0  0  2  0  0  0  0  0  0
  192.3020  172.6940  142.6380 C   0  0  0  0  0  2  0  0  0  0  0  0
  192.6560  174.1430  142.4720 C   0  0  0  0  0  0  0  0  0  0  0  0
  191.8290  172.4180  144.0800 C   0  0  0  0  0  2  0  0  0  0  0  0
  192.7510  174.9310  143.6610 N   0  0  0  0  0  0  0  0  0  0  0  0
  192.7670  172.9900  145.1720 C   0  0  0  0  0  2  0  0  0  0  0  0
  195.5150  174.8950  146.1380 C   0  0  1  0  0  3  0  0  0  0  0  0
  196.2280  173.8760  145.2480 C   0  0  0  0  0  2  0  0  0  0  0  0
  197.0250  172.8950  146.0940 C   0  0  0  0  0  2  0  0  0  0  0  0
  195.8800  171.4400  144.5860 O   0  0  0  0  0  1  0  0  0  0  0  0
  196.7770  171.4620  145.6540 C   0  0  0  0  0  2  0  0  0  0  0  0
  190.3050  177.7480  144.4330 C   0  0  0  0  0  2  0  0  0  0  0  0
  186.5940  178.0630  143.2660 C   0  0  0  0  0  0  0  0  0  0  0  0
  186.8370  178.0760  141.8100 C   0  0  0  0  0  0  0  0  0  0  0  0
  185.5000  178.1830  140.6790 Cl  0  0  0  0  0  0  0  0  0  0  0  0
  189.2370  177.9090  142.2440 C   0  0  0  0  0  3  0  0  0  0  0  0
  187.7410  178.0030  144.2360 C   0  0  0  0  0  2  0  0  0  0  0  0
  189.0940  177.9100  143.5750 C   0  0  0  0  0  0  0  0  0  0  0  0
  185.4170  178.1100  143.7110 O   0  0  0  0  0  0  0  0  0  0  0  0
  188.0810  178.0050  141.3380 C   0  0  0  0  0  3  0  0  0  0  0  0
  190.0000  175.2080  144.8650 C   0  0  1  0  0  3  0  0  0  0  0  0
  189.5500  175.4910  146.3020 C   0  0  1  0  0  3  0  0  0  0  0  0
  188.1530  175.5220  146.4300 O   0  0  0  0  0  1  0  0  0  0  0  0
  190.1600  174.6460  147.2540 O   0  0  0  0  0  0  0  0  0  0  0  0
  191.1820  175.3530  147.9070 C   0  0  0  0  0  2  0  0  0  0  0  0
  190.8310  176.8240  147.9500 C   0  0  0  0  0  2  0  0  0  0  0  0
  191.8040  177.5470  148.8570 C   0  0  0  0  0  2  0  0  0  0  0  0
  191.1150  178.4930  149.6170 O   0  0  0  0  0  1  0  0  0  0  0  0
  188.8800  174.9630  144.0210 O   0  0  0  0  0  0  0  0  0  0  0  0
  188.6250  172.8000  142.8860 N   0  0  0  0  0  1  0  0  0  0  0  0
  188.9730  174.1820  142.8680 C   0  0  0  0  0  0  0  0  0  0  0  0
  189.3600  174.7090  141.7930 O   0  0  0  0  0  0  0  0  0  0  0  0
  1 23  1  0  0  0  0
  1 32  1  0  0  0  0
  2  1  2  0  0  0  0
  3 10  1  0  0  0  0
  3  6  1  0  0  0  0
  4 12  1  1  0  0  0
  4  5  1  0  0  0  0
  5 11  1  0  0  0  0
  5 18  1  0  0  0  0
  6  9  1  0  0  0  0
  7  6  2  0  0  0  0
  8 17  1  0  0  0  0
  8 11  1  0  0  0  0
  9 12  1  0  0  0  0
  9  4  1  0  0  0  0
 10 14  2  0  0  0  0
 11 18  1  0  0  0  0
 13 15  1  0  0  0  0
 14 13  1  0  0  0  0
 14 16  1  0  0  0  0
 15 17  1  0  0  0  0
 16  2  1  0  0  0  0
 16  8  1  0  0  0  0
 19 20  1  0  0  0  0
 19 18  1  0  0  0  0
 21 22  1  0  0  0  0
 22 20  1  0  0  0  0
 24 30  2  0  0  0  0
 24 28  1  0  0  0  0
 25 24  1  0  0  0  0
 26 25  1  0  0  0  0
 27 29  2  0  0  0  0
 29 28  1  0  0  0  0
 29 23  1  0  0  0  0
 31 25  2  0  0  0  0
 31 27  1  0  0  0  0
 32 33  1  0  0  0  0
 33 34  1  0  0  0  0
 33 35  1  0  0  0  0
 35 36  1  0  0  0  0
 36 37  1  0  0  0  0
 37 38  1  0  0  0  0
 38 39  1  0  0  0  0
 40 32  1  0  0  0  0
 42 41  1  0  0  0  0
 42 40  1  0  0  0  0
 43 42  2  0  0  0  0
M  END
>  <MODEL>
3

>  <REMARK>
 VINA RESULT:      -6.5      3.334      8.337
  Name = 
  14 active torsions:
  status: ('A' for Active; 'I' for Inactive)
    1  A    between atoms: C_1  and  C_34
    2  A    between atoms: C_1  and  C_35
    3  A    between atoms: C_5  and  C_18
    4  A    between atoms: C_5  and  C_23
    5  A    between atoms: C_8  and  C_21
    6  A    between atoms: C_8  and  O_30
    7  A    between atoms: C_8  and  C_34
    8  A    between atoms: C_10  and  C_41
    9  A    between atoms: C_10  and  C_42
   10  A    between atoms: O_16  and  C_21
   11  A    between atoms: O_16  and  C_23
   12  A    between atoms: C_22  and  C_42
   13  A    between atoms: O_30  and  C_33
   14  A    between atoms: N_36  and  C_38
                            x       y       z     vdW  Elec       q    Type
                         _______ _______ _______ _____ _____    ______ ____

>  <TORSDO>
F 14

$$$$
=
 OpenBabel11052421243D

 43 47  0  0  1  0  0  0  0  0999 V2000
  189.9210  174.1000  143.4250 C   0  0  0  0  0  0  0  0  0  0  0  0
  188.9400  175.0080  143.5380 C   0  0  0  0  0  3  0  0  0  0  0  0
  187.6310  177.1070  141.4450 C   0  0  0  0  0  2  0  0  0  0  0  0
  186.2190  176.3590  144.0760 C   0  0  2  0  0  3  0  0  0  0  0  0
  186.4440  176.0870  145.5920 C   0  0  1  0  0  3  0  0  0  0  0  0
  186.4860  177.8440  142.0910 C   0  0  0  0  0  0  0  0  0  0  0  0
  185.8470  178.7640  141.3700 C   0  0  0  0  0  2  0  0  0  0  0  0
  188.8750  176.9910  145.1200 C   0  0  2  0  0  3  0  0  0  0  0  0
  186.2440  177.7980  143.5790 C   0  0  1  0  0  3  0  0  0  0  0  0
  188.9490  177.7290  141.7970 C   0  0  0  0  0  3  0  0  0  0  0  0
  187.9210  176.1990  146.0330 C   0  0  1  0  0  3  0  0  0  0  0  0
  184.9210  177.1100  143.8740 C   0  0  0  0  0  2  0  0  0  0  0  0
  190.7550  178.2440  143.3720 C   0  0  0  0  0  2  0  0  0  0  0  0
  189.6370  177.3700  142.8820 C   0  0  0  0  0  0  0  0  0  0  0  0
  191.2970  177.7210  144.7170 C   0  0  0  0  0  2  0  0  0  0  0  0
  189.1060  176.4140  143.8040 N   0  0  0  0  0  0  0  0  0  0  0  0
  190.1990  177.4180  145.7660 C   0  0  0  0  0  2  0  0  0  0  0  0
  186.8530  177.1020  146.6710 C   0  0  1  0  0  3  0  0  0  0  0  0
  186.8510  178.5730  146.2490 C   0  0  0  0  0  2  0  0  0  0  0  0
  185.8640  179.3670  147.0900 C   0  0  0  0  0  2  0  0  0  0  0  0
  183.7170  178.9360  146.1370 O   0  0  0  0  0  1  0  0  0  0  0  0
  184.5400  178.6340  147.2220 C   0  0  0  0  0  2  0  0  0  0  0  0
  189.5260  172.6980  143.0780 C   0  0  0  0  0  2  0  0  0  0  0  0
  188.7130  172.9700  139.2710 C   0  0  0  0  0  0  0  0  0  0  0  0
  189.6130  171.9030  138.7920 C   0  0  0  0  0  0  0  0  0  0  0  0
  189.6970  171.4990  137.0860 Cl  0  0  0  0  0  0  0  0  0  0  0  0
  190.3370  171.5270  141.0950 C   0  0  0  0  0  3  0  0  0  0  0  0
  188.6630  173.3370  140.7280 C   0  0  0  0  0  2  0  0  0  0  0  0
  189.5590  172.4920  141.5990 C   0  0  0  0  0  0  0  0  0  0  0  0
  187.9790  173.5920  138.4570 O   0  0  0  0  0  0  0  0  0  0  0  0
  190.3740  171.2320  139.6550 C   0  0  0  0  0  3  0  0  0  0  0  0
  191.3600  174.4120  143.7320 C   0  0  1  0  0  3  0  0  0  0  0  0
  191.7930  173.7090  145.0230 C   0  0  1  0  0  3  0  0  0  0  0  0
  192.6530  172.6270  144.7830 O   0  0  0  0  0  1  0  0  0  0  0  0
  192.3020  174.5970  145.9970 O   0  0  0  0  0  0  0  0  0  0  0  0
  193.7000  174.6550  145.8780 C   0  0  0  0  0  2  0  0  0  0  0  0
  194.1950  175.9910  146.3890 C   0  0  0  0  0  2  0  0  0  0  0  0
  194.8430  176.7550  145.2530 C   0  0  0  0  0  2  0  0  0  0  0  0
  195.7630  175.9290  144.6060 O   0  0  0  0  0  1  0  0  0  0  0  0
  192.2070  174.0460  142.6470 O   0  0  0  0  0  0  0  0  0  0  0  0
  194.5370  174.2450  141.8970 N   0  0  0  0  0  1  0  0  0  0  0  0
  193.2870  174.8340  142.2470 C   0  0  0  0  0  0  0  0  0  0  0  0
  193.1520  176.0830  142.1840 O   0  0  0  0  0  0  0  0  0  0  0  0
  1  2  2  0  0  0  0
  1 32  1  0  0  0  0
  2 16  1  0  0  0  0
  3 10  1  0  0  0  0
  3  6  1  0  0  0  0
  4 12  1  1  0  0  0
  4  5  1  0  0  0  0
  5 11  1  0  0  0  0
  5 18  1  0  0  0  0
  6  9  1  0  0  0  0
  7  6  2  0  0  0  0
  8 17  1  0  0  0  0
  8 11  1  0  0  0  0
  9 12  1  0  0  0  0
  9  4  1  0  0  0  0
 10 14  2  0  0  0  0
 11 18  1  0  0  0  0
 13 15  1  0  0  0  0
 14 13  1  0  0  0  0
 14 16  1  0  0  0  0
 15 17  1  0  0  0  0
 16  8  1  0  0  0  0
 19 18  1  0  0  0  0
 19 20  1  0  0  0  0
 20 22  1  0  0  0  0
 21 22  1  0  0  0  0
 23  1  1  0  0  0  0
 24 28  1  0  0  0  0
 25 24  1  0  0  0  0
 25 31  2  0  0  0  0
 26 25  1  0  0  0  0
 27 29  2  0  0  0  0
 28 29  1  0  0  0  0
 29 23  1  0  0  0  0
 30 24  2  0  0  0  0
 31 27  1  0  0  0  0
 32 33  1  0  0  0  0
 33 35  1  0  0  0  0
 34 33  1  0  0  0  0
 36 35  1  0  0  0  0
 36 37  1  0  0  0  0
 38 37  1  0  0  0  0
 39 38  1  0  0  0  0
 40 32  1  0  0  0  0
 41 42  1  0  0  0  0
 42 40  1  0  0  0  0
 43 42  2  0  0  0  0
M  END
>  <MODEL>
4

>  <REMARK>
 VINA RESULT:      -6.2      2.670      6.159
  Name = 
  14 active torsions:
  status: ('A' for Active; 'I' for Inactive)
    1  A    between atoms: C_1  and  C_34
    2  A    between atoms: C_1  and  C_35
    3  A    between atoms: C_5  and  C_18
    4  A    between atoms: C_5  and  C_23
    5  A    between atoms: C_8  and  C_21
    6  A    between atoms: C_8  and  O_30
    7  A    between atoms: C_8  and  C_34
    8  A    between atoms: C_10  and  C_41
    9  A    between atoms: C_10  and  C_42
   10  A    between atoms: O_16  and  C_21
   11  A    between atoms: O_16  and  C_23
   12  A    between atoms: C_22  and  C_42
   13  A    between atoms: O_30  and  C_33
   14  A    between atoms: N_36  and  C_38
                            x       y       z     vdW  Elec       q    Type
                         _______ _______ _______ _____ _____    ______ ____

>  <TORSDO>
F 14

$$$$
=
 OpenBabel11052421243D

 43 47  0  0  1  0  0  0  0  0999 V2000
  190.4530  175.0860  144.3260 C   0  0  0  0  0  0  0  0  0  0  0  0
  191.5160  174.3770  143.9180 C   0  0  0  0  0  3  0  0  0  0  0  0
  193.3780  171.8420  144.6980 C   0  0  0  0  0  2  0  0  0  0  0  0
  193.4180  173.0640  141.8730 C   0  0  2  0  0  3  0  0  0  0  0  0
  193.4050  174.4040  141.0820 C   0  0  1  0  0  3  0  0  0  0  0  0
  194.4200  171.6120  143.6350 C   0  0  0  0  0  0  0  0  0  0  0  0
  195.2850  170.6140  143.8110 C   0  0  0  0  0  2  0  0  0  0  0  0
  193.7440  175.5010  143.4560 C   0  0  2  0  0  3  0  0  0  0  0  0
  194.7050  172.6330  142.5610 C   0  0  1  0  0  3  0  0  0  0  0  0
  193.8040  172.9080  145.6610 C   0  0  0  0  0  3  0  0  0  0  0  0
  193.3280  175.6590  141.9810 C   0  0  1  0  0  3  0  0  0  0  0  0
  194.3390  172.0740  141.1960 C   0  0  0  0  0  2  0  0  0  0  0  0
  194.2750  175.2400  146.2500 C   0  0  0  0  0  2  0  0  0  0  0  0
  193.5410  174.1990  145.4550 C   0  0  0  0  0  0  0  0  0  0  0  0
  193.9290  176.6520  145.7360 C   0  0  0  0  0  2  0  0  0  0  0  0
  192.8930  174.6320  144.2560 N   0  0  0  0  0  0  0  0  0  0  0  0
  194.0390  176.8090  144.2000 C   0  0  0  0  0  2  0  0  0  0  0  0
  194.5170  175.4650  141.0250 C   0  0  1  0  0  3  0  0  0  0  0  0
  195.8540  175.0740  141.6570 C   0  0  0  0  0  2  0  0  0  0  0  0
  196.8020  176.2620  141.6760 C   0  0  0  0  0  2  0  0  0  0  0  0
  197.2140  175.2620  143.8050 O   0  0  0  0  0  1  0  0  0  0  0  0
  197.5450  176.3520  142.9980 C   0  0  0  0  0  2  0  0  0  0  0  0
  189.0990  174.6030  143.9070 C   0  0  0  0  0  2  0  0  0  0  0  0
  188.6990  173.9050  140.0880 C   0  0  0  0  0  0  0  0  0  0  0  0
  189.2190  172.5230  140.0760 C   0  0  0  0  0  0  0  0  0  0  0  0
  189.2830  171.6020  138.5850 Cl  0  0  0  0  0  0  0  0  0  0  0  0
  189.6070  172.6850  142.4840 C   0  0  0  0  0  3  0  0  0  0  0  0
  188.6720  174.7050  141.3600 C   0  0  0  0  0  2  0  0  0  0  0  0
  189.1660  173.9460  142.5670 C   0  0  0  0  0  0  0  0  0  0  0  0
  188.2780  174.4310  139.0240 O   0  0  0  0  0  0  0  0  0  0  0  0
  189.6450  171.9590  141.2050 C   0  0  0  0  0  3  0  0  0  0  0  0
  190.5780  176.3810  145.0820 C   0  0  1  0  0  3  0  0  0  0  0  0
  190.1500  177.5570  144.1990 C   0  0  1  0  0  3  0  0  0  0  0  0
  190.5120  177.3790  142.8550 O   0  0  0  0  0  1  0  0  0  0  0  0
  188.7880  177.9000  144.3500 O   0  0  0  0  0  0  0  0  0  0  0  0
  188.1770  177.9210  143.0860 C   0  0  0  0  0  2  0  0  0  0  0  0
  186.6880  178.1380  143.2480 C   0  0  0  0  0  2  0  0  0  0  0  0
  186.0510  176.8730  143.7840 C   0  0  0  0  0  2  0  0  0  0  0  0
  185.2820  177.1810  144.9070 O   0  0  0  0  0  1  0  0  0  0  0  0
  189.8180  176.3470  146.2860 O   0  0  0  0  0  0  0  0  0  0  0  0
  188.9920  174.4460  147.6030 N   0  0  0  0  0  1  0  0  0  0  0  0
  190.0190  175.3750  147.2670 C   0  0  0  0  0  0  0  0  0  0  0  0
  191.1280  175.3130  147.8580 O   0  0  0  0  0  0  0  0  0  0  0  0
  1 32  1  0  0  0  0
  2 16  1  0  0  0  0
  2  1  2  0  0  0  0
  3 10  1  0  0  0  0
  4 12  1  6  0  0  0
  4  9  1  0  0  0  0
  5  4  1  0  0  0  0
  5 11  1  0  0  0  0
  6  7  2  0  0  0  0
  6  3  1  0  0  0  0
  8 17  1  0  0  0  0
  8 16  1  0  0  0  0
  9  6  1  0  0  0  0
 11  8  1  0  0  0  0
 12  9  1  0  0  0  0
 14 10  2  0  0  0  0
 14 13  1  0  0  0  0
 15 13  1  0  0  0  0
 16 14  1  0  0  0  0
 17 15  1  0  0  0  0
 18  5  1  0  0  0  0
 18 19  1  0  0  0  0
 18 11  1  0  0  0  0
 19 20  1  0  0  0  0
 20 22  1  0  0  0  0
 22 21  1  0  0  0  0
 23  1  1  0  0  0  0
 24 28  1  0  0  0  0
 25 24  1  0  0  0  0
 25 31  2  0  0  0  0
 26 25  1  0  0  0  0
 27 29  2  0  0  0  0
 28 29  1  0  0  0  0
 29 23  1  0  0  0  0
 30 24  2  0  0  0  0
 31 27  1  0  0  0  0
 32 40  1  0  0  0  0
 33 35  1  0  0  0  0
 33 32  1  0  0  0  0
 34 33  1  0  0  0  0
 36 37  1  0  0  0  0
 36 35  1  0  0  0  0
 37 38  1  0  0  0  0
 38 39  1  0  0  0  0
 40 42  1  0  0  0  0
 42 41  1  0  0  0  0
 42 43  2  0  0  0  0
M  END
>  <MODEL>
5

>  <REMARK>
 VINA RESULT:      -5.9      3.003      7.532
  Name = 
  14 active torsions:
  status: ('A' for Active; 'I' for Inactive)
    1  A    between atoms: C_1  and  C_34
    2  A    between atoms: C_1  and  C_35
    3  A    between atoms: C_5  and  C_18
    4  A    between atoms: C_5  and  C_23
    5  A    between atoms: C_8  and  C_21
    6  A    between atoms: C_8  and  O_30
    7  A    between atoms: C_8  and  C_34
    8  A    between atoms: C_10  and  C_41
    9  A    between atoms: C_10  and  C_42
   10  A    between atoms: O_16  and  C_21
   11  A    between atoms: O_16  and  C_23
   12  A    between atoms: C_22  and  C_42
   13  A    between atoms: O_30  and  C_33
   14  A    between atoms: N_36  and  C_38
                            x       y       z     vdW  Elec       q    Type
                         _______ _______ _______ _____ _____    ______ ____

>  <TORSDO>
F 14

$$$$
=
 OpenBabel11052421243D

 43 47  0  0  1  0  0  0  0  0999 V2000
  192.2290  174.6250  141.8270 C   0  0  0  0  0  0  0  0  0  0  0  0
  191.2350  175.2810  142.4440 C   0  0  0  0  0  3  0  0  0  0  0  0
  190.4700  174.1670  145.3900 C   0  0  0  0  0  2  0  0  0  0  0  0
  189.7390  177.0230  144.5060 C   0  0  2  0  0  3  0  0  0  0  0  0
  189.2040  177.8740  143.3180 C   0  0  1  0  0  3  0  0  0  0  0  0
  189.4830  175.0880  146.0570 C   0  0  0  0  0  0  0  0  0  0  0  0
  189.0460  174.7640  147.2740 C   0  0  0  0  0  2  0  0  0  0  0  0
  188.7210  175.5330  142.2060 C   0  0  2  0  0  3  0  0  0  0  0  0
  188.7570  176.1690  145.2950 C   0  0  1  0  0  3  0  0  0  0  0  0
  189.7850  173.2120  144.4580 C   0  0  0  0  0  3  0  0  0  0  0  0
  188.9150  177.0520  142.0420 C   0  0  1  0  0  3  0  0  0  0  0  0
  189.1690  177.5390  145.8080 C   0  0  0  0  0  2  0  0  0  0  0  0
  188.5770  172.6860  142.3920 C   0  0  0  0  0  2  0  0  0  0  0  0
  189.5550  173.5100  143.1780 C   0  0  0  0  0  0  0  0  0  0  0  0
  188.3520  173.3050  140.9970 C   0  0  0  0  0  2  0  0  0  0  0  0
  189.8940  174.7960  142.6530 N   0  0  0  0  0  0  0  0  0  0  0  0
  188.0520  174.8240  141.0220 C   0  0  0  0  0  2  0  0  0  0  0  0
  187.7890  177.8520  142.7170 C   0  0  1  0  0  3  0  0  0  0  0  0
  186.7410  177.0500  143.4910 C   0  0  0  0  0  2  0  0  0  0  0  0
  185.3380  177.4650  143.0750 C   0  0  0  0  0  2  0  0  0  0  0  0
  184.0870  178.2870  141.2150 O   0  0  0  0  0  1  0  0  0  0  0  0
  185.3620  178.2600  141.7810 C   0  0  0  0  0  2  0  0  0  0  0  0
  193.5690  175.2920  141.7800 C   0  0  0  0  0  2  0  0  0  0  0  0
  194.9960  175.1940  145.4110 C   0  0  0  0  0  0  0  0  0  0  0  0
  196.1030  174.2470  145.1710 C   0  0  0  0  0  0  0  0  0  0  0  0
  197.1870  173.7870  146.4720 Cl  0  0  0  0  0  0  0  0  0  0  0  0
  195.4150  174.0890  142.8310 C   0  0  0  0  0  3  0  0  0  0  0  0
  194.0490  175.5650  144.3040 C   0  0  0  0  0  2  0  0  0  0  0  0
  194.3810  174.9260  142.9790 C   0  0  0  0  0  0  0  0  0  0  0  0
  194.8300  175.6970  146.5540 O   0  0  0  0  0  0  0  0  0  0  0  0
  196.2920  173.7320  143.9580 C   0  0  0  0  0  3  0  0  0  0  0  0
  192.0210  173.3220  141.1050 C   0  0  1  0  0  3  0  0  0  0  0  0
  192.2420  173.5060  139.6000 C   0  0  1  0  0  3  0  0  0  0  0  0
  191.0530  173.7970  138.9140 O   0  0  0  0  0  1  0  0  0  0  0  0
  193.2770  174.4180  139.2960 O   0  0  0  0  0  0  0  0  0  0  0  0
  193.8740  174.0480  138.0810 C   0  0  0  0  0  2  0  0  0  0  0  0
  195.2000  174.7620  137.9300 C   0  0  0  0  0  2  0  0  0  0  0  0
  196.0690  174.4650  139.1330 C   0  0  0  0  0  2  0  0  0  0  0  0
  196.4230  175.6630  139.7560 O   0  0  0  0  0  1  0  0  0  0  0  0
  192.8760  172.3070  141.6230 O   0  0  0  0  0  0  0  0  0  0  0  0
  191.6130  170.4200  142.5580 N   0  0  0  0  0  1  0  0  0  0  0  0
  192.5150  171.5130  142.7120 C   0  0  0  0  0  0  0  0  0  0  0  0
  193.0000  171.7600  143.8460 O   0  0  0  0  0  0  0  0  0  0  0  0
  1  2  2  0  0  0  0
  2 16  1  0  0  0  0
  3  6  1  0  0  0  0
  4  9  1  0  0  0  0
  4 12  1  1  0  0  0
  5  4  1  0  0  0  0
  6  7  2  0  0  0  0
  8 16  1  0  0  0  0
  9 12  1  0  0  0  0
  9  6  1  0  0  0  0
 10  3  1  0  0  0  0
 11  8  1  0  0  0  0
 11 18  1  0  0  0  0
 11  5  1  0  0  0  0
 13 14  1  0  0  0  0
 14 10  2  0  0  0  0
 15 17  1  0  0  0  0
 15 13  1  0  0  0  0
 16 14  1  0  0  0  0
 17  8  1  0  0  0  0
 18  5  1  0  0  0  0
 18 19  1  0  0  0  0
 20 19  1  0  0  0  0
 21 22  1  0  0  0  0
 22 20  1  0  0  0  0
 23  1  1  0  0  0  0
 23 29  1  0  0  0  0
 24 30  2  0  0  0  0
 25 24  1  0  0  0  0
 25 26  1  0  0  0  0
 27 29  2  0  0  0  0
 27 31  1  0  0  0  0
 28 24  1  0  0  0  0
 29 28  1  0  0  0  0
 31 25  2  0  0  0  0
 32 40  1  0  0  0  0
 32  1  1  0  0  0  0
 33 32  1  0  0  0  0
 34 33  1  0  0  0  0
 35 33  1  0  0  0  0
 36 35  1  0  0  0  0
 37 36  1  0  0  0  0
 37 38  1  0  0  0  0
 38 39  1  0  0  0  0
 40 42  1  0  0  0  0
 41 42  1  0  0  0  0
 42 43  2  0  0  0  0
M  END
>  <MODEL>
6

>  <REMARK>
 VINA RESULT:      -5.9      1.681      2.590
  Name = 
  14 active torsions:
  status: ('A' for Active; 'I' for Inactive)
    1  A    between atoms: C_1  and  C_34
    2  A    between atoms: C_1  and  C_35
    3  A    between atoms: C_5  and  C_18
    4  A    between atoms: C_5  and  C_23
    5  A    between atoms: C_8  and  C_21
    6  A    between atoms: C_8  and  O_30
    7  A    between atoms: C_8  and  C_34
    8  A    between atoms: C_10  and  C_41
    9  A    between atoms: C_10  and  C_42
   10  A    between atoms: O_16  and  C_21
   11  A    between atoms: O_16  and  C_23
   12  A    between atoms: C_22  and  C_42
   13  A    between atoms: O_30  and  C_33
   14  A    between atoms: N_36  and  C_38
                            x       y       z     vdW  Elec       q    Type
                         _______ _______ _______ _____ _____    ______ ____

>  <TORSDO>
F 14

$$$$
=
 OpenBabel11052421243D

 43 47  0  0  1  0  0  0  0  0999 V2000
  191.5470  176.3020  143.7210 C   0  0  0  0  0  0  0  0  0  0  0  0
  191.5050  175.3800  142.7470 C   0  0  0  0  0  3  0  0  0  0  0  0
  189.5850  173.1710  141.3560 C   0  0  0  0  0  2  0  0  0  0  0  0
  192.1560  174.1650  139.9860 C   0  0  2  0  0  3  0  0  0  0  0  0
  193.6450  174.5450  140.2300 C   0  0  1  0  0  3  0  0  0  0  0  0
  190.2890  172.5250  140.1920 C   0  0  0  0  0  0  0  0  0  0  0  0
  189.6440  171.5740  139.5180 C   0  0  0  0  0  2  0  0  0  0  0  0
  193.2350  173.5280  142.6270 C   0  0  2  0  0  3  0  0  0  0  0  0
  191.7710  172.6930  139.9600 C   0  0  1  0  0  3  0  0  0  0  0  0
  189.9790  172.5350  142.6560 C   0  0  0  0  0  3  0  0  0  0  0  0
  194.0880  174.4190  141.7050 C   0  0  1  0  0  3  0  0  0  0  0  0
  192.0170  173.4450  138.6630 C   0  0  0  0  0  2  0  0  0  0  0  0
  191.5820  172.0820  144.4530 C   0  0  0  0  0  2  0  0  0  0  0  0
  191.0300  172.9530  143.3620 C   0  0  0  0  0  0  0  0  0  0  0  0
  192.8810  172.6890  145.0210 C   0  0  0  0  0  2  0  0  0  0  0  0
  191.8770  173.9940  142.8680 N   0  0  0  0  0  0  0  0  0  0  0  0
  193.9070  173.1070  143.9400 C   0  0  0  0  0  2  0  0  0  0  0  0
  194.7980  173.6030  140.6120 C   0  0  1  0  0  3  0  0  0  0  0  0
  194.4900  172.1050  140.5590 C   0  0  0  0  0  2  0  0  0  0  0  0
  195.6610  171.3010  141.1000 C   0  0  0  0  0  2  0  0  0  0  0  0
  193.8810  170.0830  142.1250 O   0  0  0  0  0  1  0  0  0  0  0  0
  195.1970  169.9740  141.6760 C   0  0  0  0  0  2  0  0  0  0  0  0
  191.0480  177.6750  143.3930 C   0  0  0  0  0  2  0  0  0  0  0  0
  187.3650  178.0050  142.1440 C   0  0  0  0  0  0  0  0  0  0  0  0
  186.6920  177.8640  143.4500 C   0  0  0  0  0  0  0  0  0  0  0  0
  184.9440  177.9500  143.5720 Cl  0  0  0  0  0  0  0  0  0  0  0  0
  188.8780  177.5970  144.5100 C   0  0  0  0  0  3  0  0  0  0  0  0
  188.8610  177.9000  142.0350 C   0  0  0  0  0  2  0  0  0  0  0  0
  189.5550  177.6980  143.3590 C   0  0  0  0  0  0  0  0  0  0  0  0
  186.6870  178.2060  141.1020 O   0  0  0  0  0  0  0  0  0  0  0  0
  187.4100  177.6710  144.5560 C   0  0  0  0  0  3  0  0  0  0  0  0
  192.1620  176.0370  145.0680 C   0  0  1  0  0  3  0  0  0  0  0  0
  193.4820  176.8030  145.2100 C   0  0  1  0  0  3  0  0  0  0  0  0
  194.1370  176.5250  146.4190 O   0  0  0  0  0  1  0  0  0  0  0  0
  194.3320  176.6600  144.0910 O   0  0  0  0  0  0  0  0  0  0  0  0
  195.6400  176.4120  144.5360 C   0  0  0  0  0  2  0  0  0  0  0  0
  196.6070  176.5770  143.3830 C   0  0  0  0  0  2  0  0  0  0  0  0
  197.5540  175.3970  143.3490 C   0  0  0  0  0  2  0  0  0  0  0  0
  197.3130  174.5770  144.4530 O   0  0  0  0  0  1  0  0  0  0  0  0
  191.2630  176.3780  146.1180 O   0  0  0  0  0  0  0  0  0  0  0  0
  189.6660  174.5650  146.5580 N   0  0  0  0  0  1  0  0  0  0  0  0
  190.7260  175.4190  146.9790 C   0  0  0  0  0  0  0  0  0  0  0  0
  191.1920  175.3020  148.1420 O   0  0  0  0  0  0  0  0  0  0  0  0
  1 32  1  0  0  0  0
  2 16  1  0  0  0  0
  2  1  2  0  0  0  0
  3 10  1  0  0  0  0
  4 12  1  6  0  0  0
  4  5  1  0  0  0  0
  5 18  1  0  0  0  0
  5 11  1  0  0  0  0
  6  3  1  0  0  0  0
  7  6  2  0  0  0  0
  8 16  1  0  0  0  0
  8 17  1  0  0  0  0
  9  4  1  0  0  0  0
  9  6  1  0  0  0  0
 10 14  2  0  0  0  0
 11  8  1  0  0  0  0
 12  9  1  0  0  0  0
 13 15  1  0  0  0  0
 14 13  1  0  0  0  0
 16 14  1  0  0  0  0
 17 15  1  0  0  0  0
 18 11  1  0  0  0  0
 19 18  1  0  0  0  0
 19 20  1  0  0  0  0
 20 22  1  0  0  0  0
 22 21  1  0  0  0  0
 23  1  1  0  0  0  0
 24 25  1  0  0  0  0
 25 26  1  0  0  0  0
 25 31  2  0  0  0  0
 27 31  1  0  0  0  0
 28 24  1  0  0  0  0
 28 29  1  0  0  0  0
 29 23  1  0  0  0  0
 29 27  2  0  0  0  0
 30 24  2  0  0  0  0
 32 33  1  0  0  0  0
 32 40  1  0  0  0  0
 33 34  1  0  0  0  0
 35 36  1  0  0  0  0
 35 33  1  0  0  0  0
 37 36  1  0  0  0  0
 38 37  1  0  0  0  0
 38 39  1  0  0  0  0
 40 42  1  0  0  0  0
 41 42  1  0  0  0  0
 42 43  2  0  0  0  0
M  END
>  <MODEL>
7

>  <REMARK>
 VINA RESULT:      -5.8      3.312      7.824
  Name = 
  14 active torsions:
  status: ('A' for Active; 'I' for Inactive)
    1  A    between atoms: C_1  and  C_34
    2  A    between atoms: C_1  and  C_35
    3  A    between atoms: C_5  and  C_18
    4  A    between atoms: C_5  and  C_23
    5  A    between atoms: C_8  and  C_21
    6  A    between atoms: C_8  and  O_30
    7  A    between atoms: C_8  and  C_34
    8  A    between atoms: C_10  and  C_41
    9  A    between atoms: C_10  and  C_42
   10  A    between atoms: O_16  and  C_21
   11  A    between atoms: O_16  and  C_23
   12  A    between atoms: C_22  and  C_42
   13  A    between atoms: O_30  and  C_33
   14  A    between atoms: N_36  and  C_38
                            x       y       z     vdW  Elec       q    Type
                         _______ _______ _______ _____ _____    ______ ____

>  <TORSDO>
F 14

$$$$
=
 OpenBabel11052421243D

 43 47  0  0  1  0  0  0  0  0999 V2000
  189.5130  176.4760  143.1190 C   0  0  0  0  0  0  0  0  0  0  0  0
  189.7110  175.4890  142.2330 C   0  0  0  0  0  3  0  0  0  0  0  0
  188.5160  173.2590  140.2070 C   0  0  0  0  0  2  0  0  0  0  0  0
  191.4550  174.1630  140.0600 C   0  0  2  0  0  3  0  0  0  0  0  0
  192.7030  174.5290  140.9140 C   0  0  1  0  0  3  0  0  0  0  0  0
  189.6350  172.5600  139.4810 C   0  0  0  0  0  0  0  0  0  0  0  0
  189.3170  171.5940  138.6190 C   0  0  0  0  0  2  0  0  0  0  0  0
  191.2670  173.6070  142.9230 C   0  0  2  0  0  3  0  0  0  0  0  0
  191.0760  172.6970  139.9090 C   0  0  1  0  0  3  0  0  0  0  0  0
  188.2900  172.6650  141.5650 C   0  0  0  0  0  3  0  0  0  0  0  0
  192.4600  174.4510  142.4380 C   0  0  1  0  0  3  0  0  0  0  0  0
  191.8800  173.3960  138.8270 C   0  0  0  0  0  2  0  0  0  0  0  0
  188.9450  172.2550  143.8910 C   0  0  0  0  0  2  0  0  0  0  0  0
  188.9450  173.0930  142.6460 C   0  0  0  0  0  0  0  0  0  0  0  0
  189.8880  172.8630  144.9490 C   0  0  0  0  0  2  0  0  0  0  0  0
  189.9530  174.1020  142.5400 N   0  0  0  0  0  0  0  0  0  0  0  0
  191.2930  173.2250  144.4090 C   0  0  0  0  0  2  0  0  0  0  0  0
  193.5490  173.5840  141.7830 C   0  0  1  0  0  3  0  0  0  0  0  0
  193.2500  172.0910  141.6420 C   0  0  0  0  0  2  0  0  0  0  0  0
  194.4540  171.2640  142.0630 C   0  0  0  0  0  2  0  0  0  0  0  0
  196.7030  172.0660  142.1070 O   0  0  0  0  0  1  0  0  0  0  0  0
  195.4840  172.1200  142.7820 C   0  0  0  0  0  2  0  0  0  0  0  0
  189.2110  177.8390  142.5770 C   0  0  0  0  0  2  0  0  0  0  0  0
  185.3330  178.2730  142.6420 C   0  0  0  0  0  0  0  0  0  0  0  0
  185.0650  177.9300  141.2310 C   0  0  0  0  0  0  0  0  0  0  0  0
  183.4250  177.9190  140.6080 Cl  0  0  0  0  0  0  0  0  0  0  0  0
  187.4630  177.6120  140.8880 C   0  0  0  0  0  3  0  0  0  0  0  0
  186.7400  178.3130  143.1680 C   0  0  0  0  0  2  0  0  0  0  0  0
  187.7830  177.9290  142.1480 C   0  0  0  0  0  0  0  0  0  0  0  0
  184.3790  178.5440  143.4190 O   0  0  0  0  0  0  0  0  0  0  0  0
  186.0710  177.6230  140.4140 C   0  0  0  0  0  3  0  0  0  0  0  0
  189.6870  176.2880  144.6010 C   0  0  1  0  0  3  0  0  0  0  0  0
  191.1030  176.6910  145.0270 C   0  0  1  0  0  3  0  0  0  0  0  0
  191.5780  177.8070  144.3210 O   0  0  0  0  0  1  0  0  0  0  0  0
  191.2440  176.8360  146.4250 O   0  0  0  0  0  0  0  0  0  0  0  0
  191.9640  175.7410  146.9290 C   0  0  0  0  0  2  0  0  0  0  0  0
  193.3240  175.6830  146.2690 C   0  0  0  0  0  2  0  0  0  0  0  0
  194.1900  176.8050  146.8020 C   0  0  0  0  0  2  0  0  0  0  0  0
  194.7130  177.5350  145.7340 O   0  0  0  0  0  1  0  0  0  0  0  0
  188.7090  177.0240  145.3300 O   0  0  0  0  0  0  0  0  0  0  0  0
  186.5180  176.8730  146.4290 N   0  0  0  0  0  1  0  0  0  0  0  0
  187.8580  176.4180  146.2550 C   0  0  0  0  0  0  0  0  0  0  0  0
  188.2760  175.4500  146.9400 O   0  0  0  0  0  0  0  0  0  0  0  0
  1 32  1  0  0  0  0
  2 16  1  0  0  0  0
  2  1  2  0  0  0  0
  3 10  1  0  0  0  0
  4 12  1  6  0  0  0
  4  5  1  0  0  0  0
  5 18  1  0  0  0  0
  5 11  1  0  0  0  0
  6  9  1  0  0  0  0
  6  3  1  0  0  0  0
  7  6  2  0  0  0  0
  8 17  1  0  0  0  0
  9  4  1  0  0  0  0
 10 14  2  0  0  0  0
 11  8  1  0  0  0  0
 12  9  1  0  0  0  0
 13 15  1  0  0  0  0
 14 13  1  0  0  0  0
 16 14  1  0  0  0  0
 16  8  1  0  0  0  0
 17 15  1  0  0  0  0
 18 11  1  0  0  0  0
 19 18  1  0  0  0  0
 19 20  1  0  0  0  0
 20 22  1  0  0  0  0
 21 22  1  0  0  0  0
 23  1  1  0  0  0  0
 24 28  1  0  0  0  0
 24 30  2  0  0  0  0
 25 24  1  0  0  0  0
 26 25  1  0  0  0  0
 27 29  2  0  0  0  0
 29 23  1  0  0  0  0
 29 28  1  0  0  0  0
 31 27  1  0  0  0  0
 31 25  2  0  0  0  0
 32 33  1  0  0  0  0
 32 40  1  0  0  0  0
 33 35  1  0  0  0  0
 34 33  1  0  0  0  0
 35 36  1  0  0  0  0
 37 38  1  0  0  0  0
 37 36  1  0  0  0  0
 39 38  1  0  0  0  0
 40 42  1  0  0  0  0
 42 41  1  0  0  0  0
 42 43  2  0  0  0  0
M  END
>  <MODEL>
8

>  <REMARK>
 VINA RESULT:      -5.8      3.546      8.344
  Name = 
  14 active torsions:
  status: ('A' for Active; 'I' for Inactive)
    1  A    between atoms: C_1  and  C_34
    2  A    between atoms: C_1  and  C_35
    3  A    between atoms: C_5  and  C_18
    4  A    between atoms: C_5  and  C_23
    5  A    between atoms: C_8  and  C_21
    6  A    between atoms: C_8  and  O_30
    7  A    between atoms: C_8  and  C_34
    8  A    between atoms: C_10  and  C_41
    9  A    between atoms: C_10  and  C_42
   10  A    between atoms: O_16  and  C_21
   11  A    between atoms: O_16  and  C_23
   12  A    between atoms: C_22  and  C_42
   13  A    between atoms: O_30  and  C_33
   14  A    between atoms: N_36  and  C_38
                            x       y       z     vdW  Elec       q    Type
                         _______ _______ _______ _____ _____    ______ ____

>  <TORSDO>
F 14

$$$$
=
 OpenBabel11052421243D

 43 47  0  0  1  0  0  0  0  0999 V2000
  190.2670  173.9710  143.1380 C   0  0  0  0  0  0  0  0  0  0  0  0
  189.4560  174.9410  143.5850 C   0  0  0  0  0  3  0  0  0  0  0  0
  187.2820  177.2920  143.0870 C   0  0  0  0  0  2  0  0  0  0  0  0
  187.7160  176.0600  145.8750 C   0  0  2  0  0  3  0  0  0  0  0  0
  188.7980  175.5540  146.8720 C   0  0  1  0  0  3  0  0  0  0  0  0
  186.8150  177.8600  144.4020 C   0  0  0  0  0  0  0  0  0  0  0  0
  185.9300  178.8560  144.3770 C   0  0  0  0  0  2  0  0  0  0  0  0
  190.4930  176.6330  145.1650 C   0  0  2  0  0  3  0  0  0  0  0  0
  187.5260  177.5600  145.7000 C   0  0  1  0  0  3  0  0  0  0  0  0
  188.5790  177.9070  142.6550 C   0  0  0  0  0  3  0  0  0  0  0  0
  190.2420  175.6600  146.3320 C   0  0  1  0  0  3  0  0  0  0  0  0
  186.6140  176.7740  146.6270 C   0  0  0  0  0  2  0  0  0  0  0  0
  190.9980  178.2400  142.8580 C   0  0  0  0  0  2  0  0  0  0  0  0
  189.7600  177.4080  143.0220 C   0  0  0  0  0  0  0  0  0  0  0  0
  192.2120  177.5290  143.4900 C   0  0  0  0  0  2  0  0  0  0  0  0
  189.8390  176.2910  143.9110 N   0  0  0  0  0  0  0  0  0  0  0  0
  191.9610  177.0090  144.9270 C   0  0  0  0  0  2  0  0  0  0  0  0
  189.8440  176.3970  147.6210 C   0  0  1  0  0  3  0  0  0  0  0  0
  189.6790  177.9150  147.5250 C   0  0  0  0  0  2  0  0  0  0  0  0
  190.2350  178.5910  148.7690 C   0  0  0  0  0  2  0  0  0  0  0  0
  191.5680  177.9420  150.6410 O   0  0  0  0  0  1  0  0  0  0  0  0
  191.5020  177.9030  149.2480 C   0  0  0  0  0  2  0  0  0  0  0  0
  189.6440  172.6530  142.7960 C   0  0  0  0  0  2  0  0  0  0  0  0
  188.6430  173.1010  139.0500 C   0  0  0  0  0  0  0  0  0  0  0  0
  189.3820  171.9480  138.5000 C   0  0  0  0  0  0  0  0  0  0  0  0
  189.3170  171.5750  136.7880 Cl  0  0  0  0  0  0  0  0  0  0  0  0
  190.1930  171.4400  140.7490 C   0  0  0  0  0  3  0  0  0  0  0  0
  188.7230  173.4400  140.5120 C   0  0  0  0  0  2  0  0  0  0  0  0
  189.5650  172.4780  141.3150 C   0  0  0  0  0  0  0  0  0  0  0  0
  187.9400  173.8210  138.2920 O   0  0  0  0  0  0  0  0  0  0  0  0
  190.1090  171.1740  139.3050 C   0  0  0  0  0  3  0  0  0  0  0  0
  191.7620  174.1250  143.0720 C   0  0  1  0  0  3  0  0  0  0  0  0
  192.4440  173.0820  143.9640 C   0  0  1  0  0  3  0  0  0  0  0  0
  192.4380  171.8010  143.3930 O   0  0  0  0  0  1  0  0  0  0  0  0
  193.7310  173.4740  144.3950 O   0  0  0  0  0  0  0  0  0  0  0  0
  193.6210  174.1240  145.6350 C   0  0  0  0  0  2  0  0  0  0  0  0
  194.8830  174.9150  145.9040 C   0  0  0  0  0  2  0  0  0  0  0  0
  195.5700  175.2270  144.5910 C   0  0  0  0  0  2  0  0  0  0  0  0
  195.5000  176.5990  144.3460 O   0  0  0  0  0  1  0  0  0  0  0  0
  192.2290  174.0280  141.7300 O   0  0  0  0  0  0  0  0  0  0  0  0
  194.4600  173.4110  140.9100 N   0  0  0  0  0  1  0  0  0  0  0  0
  193.5280  174.3870  141.3660 C   0  0  0  0  0  0  0  0  0  0  0  0
  193.8770  175.5940  141.4310 O   0  0  0  0  0  0  0  0  0  0  0  0
  1  2  2  0  0  0  0
  2 16  1  0  0  0  0
  3  6  1  0  0  0  0
  4 12  1  1  0  0  0
  4  5  1  0  0  0  0
  5 18  1  0  0  0  0
  6  9  1  0  0  0  0
  7  6  2  0  0  0  0
  8 11  1  0  0  0  0
  9  4  1  0  0  0  0
  9 12  1  0  0  0  0
 10 14  2  0  0  0  0
 10  3  1  0  0  0  0
 11  5  1  0  0  0  0
 11 18  1  0  0  0  0
 13 14  1  0  0  0  0
 13 15  1  0  0  0  0
 14 16  1  0  0  0  0
 15 17  1  0  0  0  0
 16  8  1  0  0  0  0
 17  8  1  0  0  0  0
 19 18  1  0  0  0  0
 19 20  1  0  0  0  0
 20 22  1  0  0  0  0
 22 21  1  0  0  0  0
 23  1  1  0  0  0  0
 24 28  1  0  0  0  0
 25 24  1  0  0  0  0
 25 31  2  0  0  0  0
 26 25  1  0  0  0  0
 27 29  2  0  0  0  0
 28 29  1  0  0  0  0
 29 23  1  0  0  0  0
 30 24  2  0  0  0  0
 31 27  1  0  0  0  0
 32  1  1  0  0  0  0
 32 33  1  0  0  0  0
 33 35  1  0  0  0  0
 34 33  1  0  0  0  0
 35 36  1  0  0  0  0
 36 37  1  0  0  0  0
 38 37  1  0  0  0  0
 39 38  1  0  0  0  0
 40 32  1  0  0  0  0
 41 42  1  0  0  0  0
 42 43  2  0  0  0  0
 42 40  1  0  0  0  0
M  END
>  <MODEL>
9

>  <REMARK>
 VINA RESULT:      -5.7      2.970      6.289
  Name = 
  14 active torsions:
  status: ('A' for Active; 'I' for Inactive)
    1  A    between atoms: C_1  and  C_34
    2  A    between atoms: C_1  and  C_35
    3  A    between atoms: C_5  and  C_18
    4  A    between atoms: C_5  and  C_23
    5  A    between atoms: C_8  and  C_21
    6  A    between atoms: C_8  and  O_30
    7  A    between atoms: C_8  and  C_34
    8  A    between atoms: C_10  and  C_41
    9  A    between atoms: C_10  and  C_42
   10  A    between atoms: O_16  and  C_21
   11  A    between atoms: O_16  and  C_23
   12  A    between atoms: C_22  and  C_42
   13  A    between atoms: O_30  and  C_33
   14  A    between atoms: N_36  and  C_38
                            x       y       z     vdW  Elec       q    Type
                         _______ _______ _______ _____ _____    ______ ____

>  <TORSDO>
F 14

$$$$
