=
 OpenBabel11052420443D

 43 48  0  0  1  0  0  0  0  0999 V2000
  186.4540  177.8180  146.9860 C   0  0  0  0  0  0  0  0  0  0  0  0
  191.2520  175.9750  146.4720 C   0  0  0  0  0  0  0  0  0  0  0  0
  191.2230  173.4110  145.0640 C   0  0  0  0  0  0  0  0  0  0  0  0
  188.8580  177.4130  147.1060 C   0  0  0  0  0  0  0  0  0  0  0  0
  186.3280  176.7250  146.0160 C   0  0  0  0  0  3  0  0  0  0  0  0
  185.3880  178.4980  147.3740 C   0  0  0  0  0  1  0  0  0  0  0  0
  188.7500  176.3800  146.2370 C   0  0  0  0  0  0  0  0  0  0  0  0
  187.7180  178.1330  147.4950 O   0  0  0  0  0  0  0  0  0  0  0  0
  187.4240  176.0520  145.6630 C   0  0  0  0  0  3  0  0  0  0  0  0
  189.6900  173.8040  145.9290 S   0  0  0  0  0  0  0  0  0  0  0  0
  189.9600  175.6020  145.7660 C   0  0  2  0  0  3  0  0  0  0  0  0
  191.2750  177.1440  147.3730 C   0  0  0  0  0  3  0  0  0  0  0  0
  192.3740  175.2640  146.2340 C   0  0  1  0  0  3  0  0  0  0  0  0
  192.3450  174.0780  145.3510 C   0  0  0  0  0  3  0  0  0  0  0  0
  190.1610  177.8080  147.6630 C   0  0  0  0  0  3  0  0  0  0  0  0
  191.2470  172.3470  144.0470 C   0  0  0  0  0  0  0  0  0  0  0  0
  190.8580  172.6370  142.7020 N   0  0  0  0  0  2  0  0  0  0  0  0
  191.6090  171.1800  144.3650 O   0  0  0  0  0  0  0  0  0  0  0  0
  190.8600  171.6450  141.6370 C   0  0  1  0  0  3  0  0  0  0  0  0
  189.8960  170.6880  141.8930 F   0  0  0  0  0  0  0  0  0  0  0  0
  190.5410  172.3230  140.3170 C   0  0  0  0  0  2  0  0  0  0  0  0
  189.1500  172.7550  140.2980 N   0  0  0  0  0  0  0  0  0  0  0  0
  188.2640  174.6480  139.2320 O   0  0  0  0  0  0  0  0  0  0  0  0
  188.5990  172.3360  139.0290 C   0  0  0  0  0  2  0  0  0  0  0  0
  189.1550  174.2090  140.2270 C   0  0  1  0  0  3  0  0  0  0  0  0
  188.1930  173.5970  138.3140 C   0  0  0  0  0  2  0  0  0  0  0  0
  188.7790  174.7890  141.5570 C   0  0  0  0  0  0  0  0  0  0  0  0
  187.8160  174.2870  142.1990 O   0  0  0  0  0  0  0  0  0  0  0  0
  189.5510  175.9050  142.1380 C   0  0  0  0  0  0  0  0  0  0  0  0
  191.6710  176.8340  142.8860 C   0  0  0  0  0  3  0  0  0  0  0  0
  189.6520  178.1610  143.0420 C   0  0  0  0  0  3  0  0  0  0  0  0
  191.0300  178.0250  143.2370 C   0  0  0  0  0  3  0  0  0  0  0  0
  188.9170  177.1060  142.4940 C   0  0  0  0  0  3  0  0  0  0  0  0
  190.9350  175.7780  142.3390 C   0  0  0  0  0  3  0  0  0  0  0  0
  193.6920  175.6630  146.8340 C   0  0  0  0  0  2  0  0  0  0  0  0
  195.8820  176.6120  143.8840 C   0  0  0  0  0  3  0  0  0  0  0  0
  196.7960  175.5510  143.8620 C   0  0  0  0  0  0  0  0  0  0  0  0
  195.6920  174.5760  145.7960 C   0  0  0  0  0  3  0  0  0  0  0  0
  194.8770  176.6580  144.8560 C   0  0  0  0  0  3  0  0  0  0  0  0
  194.7840  175.6410  145.8150 C   0  0  0  0  0  0  0  0  0  0  0  0
  196.6960  174.5310  144.8240 C   0  0  0  0  0  3  0  0  0  0  0  0
  197.7630  174.6280  141.7790 C   0  0  0  0  0  1  0  0  0  0  0  0
  197.7900  175.5320  142.8780 O   0  0  0  0  0  0  0  0  0  0  0  0
  1  6  1  0  0  0  0
  1  8  1  0  0  0  0
  2 12  2  0  0  0  0
  3 14  2  0  0  0  0
  3 10  1  0  0  0  0
  4  8  1  0  0  0  0
  4 15  2  0  0  0  0
  5  1  2  0  0  0  0
  7  4  1  0  0  0  0
  9  5  1  0  0  0  0
  9  7  2  0  0  0  0
 11 10  1  1  0  0  0
 11  7  1  0  0  0  0
 11  2  1  0  0  0  0
 12 15  1  0  0  0  0
 13  2  1  0  0  0  0
 13 35  1  6  0  0  0
 14 13  1  0  0  0  0
 16 18  2  0  0  0  0
 16  3  1  0  0  0  0
 17 16  1  0  0  0  0
 19 20  1  1  0  0  0
 19 17  1  0  0  0  0
 21 19  1  0  0  0  0
 22 21  1  0  0  0  0
 23 25  1  0  0  0  0
 24 22  1  0  0  0  0
 25 22  1  0  0  0  0
 25 27  1  1  0  0  0
 26 24  1  0  0  0  0
 26 23  1  0  0  0  0
 27 29  1  0  0  0  0
 27 28  2  0  0  0  0
 29 34  2  0  0  0  0
 29 33  1  0  0  0  0
 30 32  2  0  0  0  0
 31 32  1  0  0  0  0
 33 31  2  0  0  0  0
 34 30  1  0  0  0  0
 36 39  1  0  0  0  0
 37 36  2  0  0  0  0
 37 41  1  0  0  0  0
 38 40  1  0  0  0  0
 39 40  2  0  0  0  0
 40 35  1  0  0  0  0
 41 38  2  0  0  0  0
 42 43  1  0  0  0  0
 43 37  1  0  0  0  0
M  END
>  <MODEL>
1

>  <REMARK>
 VINA RESULT:      -7.8      0.000      0.000
  Name = 
  9 active torsions:
  status: ('A' for Active; 'I' for Inactive)
    1  A    between atoms: C_1  and  C_34
    2  A    between atoms: C_1  and  C_35
    3  A    between atoms: C_2  and  C_13
    4  A    between atoms: C_3  and  N_4
    5  A    between atoms: C_3  and  C_12
    6  A    between atoms: N_6  and  C_12
    7  A    between atoms: C_11  and  C_14
    8  A    between atoms: C_14  and  C_22
    9  A    between atoms: C_19  and  O_37
                            x       y       z     vdW  Elec       q    Type
                         _______ _______ _______ _____ _____    ______ ____

>  <TORSDO>
F 9

$$$$
=
 OpenBabel11052420443D

 43 48  0  0  1  0  0  0  0  0999 V2000
  185.5420  178.0420  146.6810 C   0  0  0  0  0  0  0  0  0  0  0  0
  188.2760  175.8600  142.8810 C   0  0  0  0  0  0  0  0  0  0  0  0
  191.0890  176.6400  143.0590 C   0  0  0  0  0  0  0  0  0  0  0  0
  186.2850  176.8430  144.6890 C   0  0  0  0  0  0  0  0  0  0  0  0
  186.9410  178.2530  147.0640 C   0  0  0  0  0  3  0  0  0  0  0  0
  184.5600  178.5120  147.4330 C   0  0  0  0  0  1  0  0  0  0  0  0
  187.5810  177.0600  145.0150 C   0  0  0  0  0  0  0  0  0  0  0  0
  185.2570  177.3350  145.5080 O   0  0  0  0  0  0  0  0  0  0  0  0
  187.9020  177.7790  146.2700 C   0  0  0  0  0  3  0  0  0  0  0  0
  189.9400  177.8160  143.8000 S   0  0  0  0  0  0  0  0  0  0  0  0
  188.7180  176.5150  144.1780 C   0  0  2  0  0  3  0  0  0  0  0  0
  186.8380  175.6320  142.6360 C   0  0  0  0  0  3  0  0  0  0  0  0
  189.2010  175.4510  141.9880 C   0  0  1  0  0  3  0  0  0  0  0  0
  190.6400  175.7010  142.2210 C   0  0  0  0  0  3  0  0  0  0  0  0
  185.9180  176.0900  143.4790 C   0  0  0  0  0  3  0  0  0  0  0  0
  192.5270  176.7170  143.3660 C   0  0  0  0  0  0  0  0  0  0  0  0
  193.4680  176.0150  142.5500 N   0  0  0  0  0  2  0  0  0  0  0  0
  192.9250  177.4000  144.3490 O   0  0  0  0  0  0  0  0  0  0  0  0
  194.9050  176.0450  142.7810 C   0  0  1  0  0  3  0  0  0  0  0  0
  195.1780  176.7930  143.9100 F   0  0  0  0  0  0  0  0  0  0  0  0
  195.4090  174.6290  142.9970 C   0  0  0  0  0  2  0  0  0  0  0  0
  195.8330  174.4520  144.3790 N   0  0  0  0  0  0  0  0  0  0  0  0
  195.3840  172.6230  145.7800 O   0  0  0  0  0  0  0  0  0  0  0  0
  196.9840  173.5790  144.3550 C   0  0  0  0  0  2  0  0  0  0  0  0
  194.8000  173.6700  145.0460 C   0  0  1  0  0  3  0  0  0  0  0  0
  196.5910  172.3490  145.1310 C   0  0  0  0  0  2  0  0  0  0  0  0
  193.9910  174.5540  145.9480 C   0  0  0  0  0  0  0  0  0  0  0  0
  194.5750  175.4440  146.6250 O   0  0  0  0  0  0  0  0  0  0  0  0
  192.5230  174.4200  146.0140 C   0  0  0  0  0  0  0  0  0  0  0  0
  190.4570  173.4480  145.1720 C   0  0  0  0  0  3  0  0  0  0  0  0
  190.3910  174.9930  147.0350 C   0  0  0  0  0  3  0  0  0  0  0  0
  189.7300  174.1540  146.1340 C   0  0  0  0  0  3  0  0  0  0  0  0
  191.7820  175.1240  146.9750 C   0  0  0  0  0  3  0  0  0  0  0  0
  191.8490  173.5810  145.1120 C   0  0  0  0  0  3  0  0  0  0  0  0
  188.8090  174.7100  140.7410 C   0  0  0  0  0  2  0  0  0  0  0  0
  189.9750  171.2440  141.7540 C   0  0  0  0  0  3  0  0  0  0  0  0
  190.6820  170.8420  140.6140 C   0  0  0  0  0  0  0  0  0  0  0  0
  190.1450  172.9610  139.5510 C   0  0  0  0  0  3  0  0  0  0  0  0
  189.3540  172.4970  141.7960 C   0  0  0  0  0  3  0  0  0  0  0  0
  189.4370  173.3550  140.6930 C   0  0  0  0  0  0  0  0  0  0  0  0
  190.7650  171.7090  139.5110 C   0  0  0  0  0  3  0  0  0  0  0  0
  190.8680  168.5190  141.4460 C   0  0  0  0  0  1  0  0  0  0  0  0
  191.2920  169.5840  140.6030 O   0  0  0  0  0  0  0  0  0  0  0  0
  1  5  2  0  0  0  0
  1  6  1  0  0  0  0
  3 16  1  0  0  0  0
  3 10  1  0  0  0  0
  4  7  1  0  0  0  0
  4  8  1  0  0  0  0
  7  9  2  0  0  0  0
  8  1  1  0  0  0  0
  9  5  1  0  0  0  0
 10 11  1  0  0  0  0
 11  2  1  6  0  0  0
 11  7  1  0  0  0  0
 12  2  2  0  0  0  0
 12 15  1  0  0  0  0
 13 35  1  1  0  0  0
 13 14  1  0  0  0  0
 13  2  1  0  0  0  0
 14  3  2  0  0  0  0
 15  4  2  0  0  0  0
 16 18  2  0  0  0  0
 17 19  1  0  0  0  0
 17 16  1  0  0  0  0
 19 21  1  0  0  0  0
 19 20  1  1  0  0  0
 21 22  1  0  0  0  0
 22 25  1  0  0  0  0
 24 22  1  0  0  0  0
 24 26  1  0  0  0  0
 25 23  1  0  0  0  0
 25 27  1  1  0  0  0
 26 23  1  0  0  0  0
 27 29  1  0  0  0  0
 27 28  2  0  0  0  0
 29 33  1  0  0  0  0
 30 32  2  0  0  0  0
 32 31  1  0  0  0  0
 33 31  2  0  0  0  0
 34 30  1  0  0  0  0
 34 29  2  0  0  0  0
 36 39  1  0  0  0  0
 37 36  2  0  0  0  0
 38 40  1  0  0  0  0
 40 35  1  0  0  0  0
 40 39  2  0  0  0  0
 41 38  2  0  0  0  0
 41 37  1  0  0  0  0
 43 37  1  0  0  0  0
 43 42  1  0  0  0  0
M  END
>  <MODEL>
2

>  <REMARK>
 VINA RESULT:      -7.3      2.775      6.408
  Name = 
  9 active torsions:
  status: ('A' for Active; 'I' for Inactive)
    1  A    between atoms: C_1  and  C_34
    2  A    between atoms: C_1  and  C_35
    3  A    between atoms: C_2  and  C_13
    4  A    between atoms: C_3  and  N_4
    5  A    between atoms: C_3  and  C_12
    6  A    between atoms: N_6  and  C_12
    7  A    between atoms: C_11  and  C_14
    8  A    between atoms: C_14  and  C_22
    9  A    between atoms: C_19  and  O_37
                            x       y       z     vdW  Elec       q    Type
                         _______ _______ _______ _____ _____    ______ ____

>  <TORSDO>
F 9

$$$$
=
 OpenBabel11052420443D

 43 48  0  0  1  0  0  0  0  0999 V2000
  190.9380  169.0750  137.9180 C   0  0  0  0  0  0  0  0  0  0  0  0
  190.9270  171.9940  142.1800 C   0  0  0  0  0  0  0  0  0  0  0  0
  189.4320  174.4670  141.7280 C   0  0  0  0  0  0  0  0  0  0  0  0
  191.3260  170.0370  140.1270 C   0  0  2  0  0  3  0  0  0  0  0  0
  189.9210  170.1000  137.6610 C   0  0  0  0  0  3  0  0  0  0  0  0
  191.2230  168.1660  137.0000 C   0  0  0  0  0  1  0  0  0  0  0  0
  190.4130  171.0080  139.8900 C   0  0  0  0  0  0  0  0  0  0  0  0
  191.6040  169.0710  139.1480 O   0  0  0  0  0  0  0  0  0  0  0  0
  189.6750  171.0100  138.6050 C   0  0  0  0  0  3  0  0  0  0  0  0
  190.1240  173.7300  140.2340 S   0  0  0  0  0  0  0  0  0  0  0  0
  190.0600  172.0450  140.9330 C   0  0  0  0  0  0  0  0  0  0  0  0
  191.8660  170.8700  142.3640 C   0  0  0  0  0  3  0  0  0  0  0  0
  190.7970  172.9470  143.1260 C   0  0  1  0  0  3  0  0  0  0  0  0
  189.8740  174.0850  142.9300 C   0  0  0  0  0  3  0  0  0  0  0  0
  192.0480  169.9640  141.4080 C   0  0  0  0  0  3  0  0  0  0  0  0
  188.3870  175.4990  141.6280 C   0  0  0  0  0  0  0  0  0  0  0  0
  188.2060  176.4360  142.6930 N   0  0  0  0  0  2  0  0  0  0  0  0
  187.6510  175.5530  140.6050 O   0  0  0  0  0  0  0  0  0  0  0  0
  187.2020  177.4890  142.6700 C   0  0  1  0  0  3  0  0  0  0  0  0
  187.1820  178.0830  141.4220 F   0  0  0  0  0  0  0  0  0  0  0  0
  185.8360  176.8880  142.9500 C   0  0  0  0  0  2  0  0  0  0  0  0
  185.2670  177.4730  144.1560 N   0  0  0  0  0  0  0  0  0  0  0  0
  186.0150  179.3820  145.2980 O   0  0  0  0  0  0  0  0  0  0  0  0
  184.4540  178.5910  143.7350 C   0  0  0  0  0  2  0  0  0  0  0  0
  186.3650  178.0820  144.8940 C   0  0  1  0  0  3  0  0  0  0  0  0
  185.0700  179.8140  144.3630 C   0  0  0  0  0  2  0  0  0  0  0  0
  186.7110  177.2390  146.0860 C   0  0  0  0  0  0  0  0  0  0  0  0
  185.8060  176.9370  146.9110 O   0  0  0  0  0  0  0  0  0  0  0  0
  188.0830  176.7280  146.2740 C   0  0  0  0  0  0  0  0  0  0  0  0
  190.4840  176.9830  145.9760 C   0  0  0  0  0  3  0  0  0  0  0  0
  189.6100  175.0310  147.1110 C   0  0  0  0  0  3  0  0  0  0  0  0
  190.6980  175.7690  146.6330 C   0  0  0  0  0  3  0  0  0  0  0  0
  188.3090  175.5100  146.9320 C   0  0  0  0  0  3  0  0  0  0  0  0
  189.1810  177.4610  145.7970 C   0  0  0  0  0  3  0  0  0  0  0  0
  191.5630  172.8750  144.4160 C   0  0  0  0  0  2  0  0  0  0  0  0
  194.7290  174.6880  145.4590 C   0  0  0  0  0  3  0  0  0  0  0  0
  194.8700  175.6230  144.4250 C   0  0  0  0  0  0  0  0  0  0  0  0
  192.8600  174.7460  143.3760 C   0  0  0  0  0  3  0  0  0  0  0  0
  193.6610  173.7850  145.4540 C   0  0  0  0  0  3  0  0  0  0  0  0
  192.7270  173.8110  144.4100 C   0  0  0  0  0  0  0  0  0  0  0  0
  193.9280  175.6470  143.3820 C   0  0  0  0  0  3  0  0  0  0  0  0
  196.7560  176.7790  143.3170 C   0  0  0  0  0  1  0  0  0  0  0  0
  195.9480  176.5130  144.4580 O   0  0  0  0  0  0  0  0  0  0  0  0
  1  8  1  0  0  0  0
  2 12  1  0  0  0  0
  2 13  1  0  0  0  0
  3 14  2  0  0  0  0
  4 15  1  1  0  0  0
  5  1  2  0  0  0  0
  5  9  1  0  0  0  0
  6  1  1  0  0  0  0
  7  4  1  0  0  0  0
  7 11  1  0  0  0  0
  8  4  1  0  0  0  0
  9  7  2  0  0  0  0
 10 11  1  0  0  0  0
 10  3  1  0  0  0  0
 11  2  2  0  0  0  0
 13 35  1  1  0  0  0
 14 13  1  0  0  0  0
 15 12  2  0  0  0  0
 16  3  1  0  0  0  0
 16 17  1  0  0  0  0
 18 16  2  0  0  0  0
 19 20  1  6  0  0  0
 19 17  1  0  0  0  0
 19 21  1  0  0  0  0
 21 22  1  0  0  0  0
 22 25  1  0  0  0  0
 24 22  1  0  0  0  0
 24 26  1  0  0  0  0
 25 23  1  0  0  0  0
 25 27  1  1  0  0  0
 26 23  1  0  0  0  0
 27 29  1  0  0  0  0
 27 28  2  0  0  0  0
 29 33  1  0  0  0  0
 30 32  2  0  0  0  0
 32 31  1  0  0  0  0
 33 31  2  0  0  0  0
 34 30  1  0  0  0  0
 34 29  2  0  0  0  0
 37 43  1  0  0  0  0
 37 36  2  0  0  0  0
 38 41  2  0  0  0  0
 38 40  1  0  0  0  0
 39 36  1  0  0  0  0
 40 35  1  0  0  0  0
 40 39  2  0  0  0  0
 41 37  1  0  0  0  0
 42 43  1  0  0  0  0
M  END
>  <MODEL>
3

>  <REMARK>
 VINA RESULT:      -7.2      2.909      7.065
  Name = 
  9 active torsions:
  status: ('A' for Active; 'I' for Inactive)
    1  A    between atoms: C_1  and  C_34
    2  A    between atoms: C_1  and  C_35
    3  A    between atoms: C_2  and  C_13
    4  A    between atoms: C_3  and  N_4
    5  A    between atoms: C_3  and  C_12
    6  A    between atoms: N_6  and  C_12
    7  A    between atoms: C_11  and  C_14
    8  A    between atoms: C_14  and  C_22
    9  A    between atoms: C_19  and  O_37
                            x       y       z     vdW  Elec       q    Type
                         _______ _______ _______ _____ _____    ______ ____

>  <TORSDO>
F 9

$$$$
=
 OpenBabel11052420443D

 43 48  0  0  1  0  0  0  0  0999 V2000
  184.9960  178.0950  146.0640 C   0  0  0  0  0  0  0  0  0  0  0  0
  188.6500  175.7300  143.2830 C   0  0  0  0  0  0  0  0  0  0  0  0
  191.2770  176.0900  144.5180 C   0  0  0  0  0  0  0  0  0  0  0  0
  186.2670  176.9000  144.3570 C   0  0  2  0  0  3  0  0  0  0  0  0
  186.1740  178.0850  146.9350 C   0  0  0  0  0  3  0  0  0  0  0  0
  183.8690  178.6640  146.4620 C   0  0  0  0  0  1  0  0  0  0  0  0
  187.3720  176.9130  145.1390 C   0  0  0  0  0  0  0  0  0  0  0  0
  185.0770  177.4940  144.8030 O   0  0  0  0  0  0  0  0  0  0  0  0
  187.2960  177.5170  146.4900 C   0  0  0  0  0  3  0  0  0  0  0  0
  190.0820  177.3810  144.9160 S   0  0  0  0  0  0  0  0  0  0  0  0
  188.6630  176.2520  144.7090 C   0  0  0  0  0  0  0  0  0  0  0  0
  187.3830  175.7230  142.5250 C   0  0  0  0  0  3  0  0  0  0  0  0
  189.7820  175.2360  142.7390 C   0  0  1  0  0  3  0  0  0  0  0  0
  191.0560  175.2670  143.4890 C   0  0  0  0  0  3  0  0  0  0  0  0
  186.2790  176.2670  143.0290 C   0  0  0  0  0  3  0  0  0  0  0  0
  192.5030  175.9450  145.3190 C   0  0  0  0  0  0  0  0  0  0  0  0
  193.7220  176.5450  144.8710 N   0  0  0  0  0  2  0  0  0  0  0  0
  192.4770  175.2910  146.3980 O   0  0  0  0  0  0  0  0  0  0  0  0
  194.9740  176.4540  145.6070 C   0  0  1  0  0  3  0  0  0  0  0  0
  194.7280  175.9980  146.8880 F   0  0  0  0  0  0  0  0  0  0  0  0
  195.9000  175.4750  144.9060 C   0  0  0  0  0  2  0  0  0  0  0  0
  195.5440  174.1080  145.2580 N   0  0  0  0  0  0  0  0  0  0  0  0
  196.3720  172.1320  144.3010 O   0  0  0  0  0  0  0  0  0  0  0  0
  196.5980  173.6070  146.1100 C   0  0  0  0  0  2  0  0  0  0  0  0
  195.6520  173.3120  144.0440 C   0  0  1  0  0  3  0  0  0  0  0  0
  197.2060  172.4390  145.3790 C   0  0  0  0  0  2  0  0  0  0  0  0
  194.2840  172.9860  143.5210 C   0  0  0  0  0  0  0  0  0  0  0  0
  193.3650  172.6960  144.3360 O   0  0  0  0  0  0  0  0  0  0  0  0
  193.9970  173.0470  142.0750 C   0  0  0  0  0  0  0  0  0  0  0  0
  193.4290  174.3390  140.0930 C   0  0  0  0  0  3  0  0  0  0  0  0
  193.7470  171.9450  139.9210 C   0  0  0  0  0  3  0  0  0  0  0  0
  193.4530  173.1740  139.3220 C   0  0  0  0  0  3  0  0  0  0  0  0
  194.0180  171.8830  141.2910 C   0  0  0  0  0  3  0  0  0  0  0  0
  193.7000  174.2760  141.4640 C   0  0  0  0  0  3  0  0  0  0  0  0
  189.7850  174.6210  141.3690 C   0  0  0  0  0  2  0  0  0  0  0  0
  190.3290  171.0110  140.3320 C   0  0  0  0  0  3  0  0  0  0  0  0
  190.5740  170.3990  141.5680 C   0  0  0  0  0  0  0  0  0  0  0  0
  190.3240  172.5510  142.6690 C   0  0  0  0  0  3  0  0  0  0  0  0
  190.0830  172.3860  140.2620 C   0  0  0  0  0  3  0  0  0  0  0  0
  190.0830  173.1580  141.4300 C   0  0  0  0  0  0  0  0  0  0  0  0
  190.5700  171.1770  142.7380 C   0  0  0  0  0  3  0  0  0  0  0  0
  192.0690  168.4750  142.0050 C   0  0  0  0  0  1  0  0  0  0  0  0
  190.8160  169.0220  141.6060 O   0  0  0  0  0  0  0  0  0  0  0  0
  1  6  1  0  0  0  0
  1  5  2  0  0  0  0
  2 11  2  0  0  0  0
  3 10  1  0  0  0  0
  3 16  1  0  0  0  0
  4 15  1  1  0  0  0
  4  8  1  0  0  0  0
  4  7  1  0  0  0  0
  7  9  2  0  0  0  0
  8  1  1  0  0  0  0
  9  5  1  0  0  0  0
 11 10  1  0  0  0  0
 11  7  1  0  0  0  0
 12 15  2  0  0  0  0
 12  2  1  0  0  0  0
 13 35  1  1  0  0  0
 13  2  1  0  0  0  0
 13 14  1  0  0  0  0
 14  3  2  0  0  0  0
 16 18  2  0  0  0  0
 17 16  1  0  0  0  0
 17 19  1  0  0  0  0
 19 20  1  1  0  0  0
 21 22  1  0  0  0  0
 21 19  1  0  0  0  0
 22 24  1  0  0  0  0
 23 26  1  0  0  0  0
 25 27  1  1  0  0  0
 25 23  1  0  0  0  0
 25 22  1  0  0  0  0
 26 24  1  0  0  0  0
 27 28  2  0  0  0  0
 29 27  1  0  0  0  0
 30 34  2  0  0  0  0
 31 33  1  0  0  0  0
 32 31  2  0  0  0  0
 32 30  1  0  0  0  0
 33 29  2  0  0  0  0
 34 29  1  0  0  0  0
 35 40  1  0  0  0  0
 36 37  1  0  0  0  0
 37 43  1  0  0  0  0
 37 41  2  0  0  0  0
 38 41  1  0  0  0  0
 39 36  2  0  0  0  0
 39 40  1  0  0  0  0
 40 38  2  0  0  0  0
 43 42  1  0  0  0  0
M  END
>  <MODEL>
4

>  <REMARK>
 VINA RESULT:      -7.0      2.997      6.427
  Name = 
  9 active torsions:
  status: ('A' for Active; 'I' for Inactive)
    1  A    between atoms: C_1  and  C_34
    2  A    between atoms: C_1  and  C_35
    3  A    between atoms: C_2  and  C_13
    4  A    between atoms: C_3  and  N_4
    5  A    between atoms: C_3  and  C_12
    6  A    between atoms: N_6  and  C_12
    7  A    between atoms: C_11  and  C_14
    8  A    between atoms: C_14  and  C_22
    9  A    between atoms: C_19  and  O_37
                            x       y       z     vdW  Elec       q    Type
                         _______ _______ _______ _____ _____    ______ ____

>  <TORSDO>
F 9

$$$$
=
 OpenBabel11052420443D

 43 48  0  0  1  0  0  0  0  0999 V2000
  184.9260  178.0220  146.4080 C   0  0  0  0  0  0  0  0  0  0  0  0
  188.4790  175.8710  143.3380 C   0  0  0  0  0  0  0  0  0  0  0  0
  191.1690  176.3700  144.3720 C   0  0  0  0  0  0  0  0  0  0  0  0
  186.1250  176.9040  144.6000 C   0  0  2  0  0  3  0  0  0  0  0  0
  186.1670  178.0740  147.1870 C   0  0  0  0  0  3  0  0  0  0  0  0
  183.8040  178.5270  146.8960 C   0  0  0  0  0  1  0  0  0  0  0  0
  187.2850  176.9750  145.2960 C   0  0  0  0  0  0  0  0  0  0  0  0
  184.9420  177.4310  145.1410 O   0  0  0  0  0  0  0  0  0  0  0  0
  187.2810  177.5690  146.6530 C   0  0  0  0  0  3  0  0  0  0  0  0
  189.9400  177.5930  144.8690 S   0  0  0  0  0  0  0  0  0  0  0  0
  188.5740  176.3880  144.7630 C   0  0  0  0  0  0  0  0  0  0  0  0
  187.1600  175.7970  142.6790 C   0  0  0  0  0  3  0  0  0  0  0  0
  189.5910  175.4420  142.7050 C   0  0  1  0  0  3  0  0  0  0  0  0
  190.9160  175.5400  143.3550 C   0  0  0  0  0  3  0  0  0  0  0  0
  186.0700  176.2780  143.2700 C   0  0  0  0  0  3  0  0  0  0  0  0
  192.4600  176.2900  145.0750 C   0  0  0  0  0  0  0  0  0  0  0  0
  193.6510  176.7530  144.4330 N   0  0  0  0  0  2  0  0  0  0  0  0
  192.5120  175.8120  146.2410 O   0  0  0  0  0  0  0  0  0  0  0  0
  194.9640  176.7150  145.0620 C   0  0  1  0  0  3  0  0  0  0  0  0
  194.9910  175.7190  146.0200 F   0  0  0  0  0  0  0  0  0  0  0  0
  196.0160  176.4130  144.0100 C   0  0  0  0  0  2  0  0  0  0  0  0
  196.0810  174.9800  143.7610 N   0  0  0  0  0  0  0  0  0  0  0  0
  196.8290  173.9080  141.8120 O   0  0  0  0  0  0  0  0  0  0  0  0
  197.4540  174.5800  143.9700 C   0  0  0  0  0  2  0  0  0  0  0  0
  195.8610  174.7830  142.3350 C   0  0  1  0  0  3  0  0  0  0  0  0
  197.9400  174.0480  142.6480 C   0  0  0  0  0  2  0  0  0  0  0  0
  194.4830  174.2400  142.0990 C   0  0  0  0  0  0  0  0  0  0  0  0
  193.7470  174.7810  141.2290 O   0  0  0  0  0  0  0  0  0  0  0  0
  194.0030  173.0580  142.8410 C   0  0  0  0  0  0  0  0  0  0  0  0
  194.1150  170.6710  143.2970 C   0  0  0  0  0  3  0  0  0  0  0  0
  192.5340  172.0550  144.4990 C   0  0  0  0  0  3  0  0  0  0  0  0
  193.1000  170.8020  144.2490 C   0  0  0  0  0  3  0  0  0  0  0  0
  192.9840  173.1780  143.7980 C   0  0  0  0  0  3  0  0  0  0  0  0
  194.5650  171.7940  142.5960 C   0  0  0  0  0  3  0  0  0  0  0  0
  189.5230  174.8320  141.3350 C   0  0  0  0  0  2  0  0  0  0  0  0
  189.9390  171.1850  142.2970 C   0  0  0  0  0  3  0  0  0  0  0  0
  190.9350  170.7720  141.4030 C   0  0  0  0  0  0  0  0  0  0  0  0
  190.9900  173.0080  140.4520 C   0  0  0  0  0  3  0  0  0  0  0  0
  189.4690  172.5020  142.2710 C   0  0  0  0  0  3  0  0  0  0  0  0
  189.9920  173.4140  141.3450 C   0  0  0  0  0  0  0  0  0  0  0  0
  191.4590  171.6920  140.4780 C   0  0  0  0  0  3  0  0  0  0  0  0
  190.6950  168.3800  140.8150 C   0  0  0  0  0  1  0  0  0  0  0  0
  191.3840  169.4480  141.4530 O   0  0  0  0  0  0  0  0  0  0  0  0
  1  6  1  0  0  0  0
  1  5  2  0  0  0  0
  2 11  2  0  0  0  0
  3 10  1  0  0  0  0
  3 16  1  0  0  0  0
  4 15  1  1  0  0  0
  4  8  1  0  0  0  0
  4  7  1  0  0  0  0
  7  9  2  0  0  0  0
  8  1  1  0  0  0  0
  9  5  1  0  0  0  0
 11 10  1  0  0  0  0
 11  7  1  0  0  0  0
 12 15  2  0  0  0  0
 12  2  1  0  0  0  0
 13 35  1  1  0  0  0
 13  2  1  0  0  0  0
 13 14  1  0  0  0  0
 14  3  2  0  0  0  0
 16 18  2  0  0  0  0
 17 19  1  0  0  0  0
 17 16  1  0  0  0  0
 19 20  1  1  0  0  0
 21 19  1  0  0  0  0
 22 24  1  0  0  0  0
 22 21  1  0  0  0  0
 23 25  1  0  0  0  0
 23 26  1  0  0  0  0
 25 27  1  1  0  0  0
 25 22  1  0  0  0  0
 26 24  1  0  0  0  0
 27 29  1  0  0  0  0
 28 27  2  0  0  0  0
 29 33  1  0  0  0  0
 30 32  2  0  0  0  0
 32 31  1  0  0  0  0
 33 31  2  0  0  0  0
 34 29  2  0  0  0  0
 34 30  1  0  0  0  0
 35 40  1  0  0  0  0
 37 43  1  0  0  0  0
 37 36  2  0  0  0  0
 38 41  2  0  0  0  0
 38 40  1  0  0  0  0
 39 36  1  0  0  0  0
 40 39  2  0  0  0  0
 41 37  1  0  0  0  0
 42 43  1  0  0  0  0
M  END
>  <MODEL>
5

>  <REMARK>
 VINA RESULT:      -7.0      2.885      6.353
  Name = 
  9 active torsions:
  status: ('A' for Active; 'I' for Inactive)
    1  A    between atoms: C_1  and  C_34
    2  A    between atoms: C_1  and  C_35
    3  A    between atoms: C_2  and  C_13
    4  A    between atoms: C_3  and  N_4
    5  A    between atoms: C_3  and  C_12
    6  A    between atoms: N_6  and  C_12
    7  A    between atoms: C_11  and  C_14
    8  A    between atoms: C_14  and  C_22
    9  A    between atoms: C_19  and  O_37
                            x       y       z     vdW  Elec       q    Type
                         _______ _______ _______ _____ _____    ______ ____

>  <TORSDO>
F 9

$$$$
=
 OpenBabel11052420443D

 43 48  0  0  1  0  0  0  0  0999 V2000
  184.8060  178.2930  144.9250 C   0  0  0  0  0  0  0  0  0  0  0  0
  189.0680  175.4160  144.4330 C   0  0  0  0  0  0  0  0  0  0  0  0
  189.1820  174.1920  141.7790 C   0  0  0  0  0  0  0  0  0  0  0  0
  186.8770  177.0520  145.2840 C   0  0  0  0  0  0  0  0  0  0  0  0
  184.8950  178.0070  143.4900 C   0  0  0  0  0  3  0  0  0  0  0  0
  183.7960  178.9970  145.4090 C   0  0  0  0  0  1  0  0  0  0  0  0
  186.9530  176.7530  143.9660 C   0  0  0  0  0  0  0  0  0  0  0  0
  185.8060  177.8130  145.7770 O   0  0  0  0  0  0  0  0  0  0  0  0
  185.9210  177.2800  143.0430 C   0  0  0  0  0  3  0  0  0  0  0  0
  187.5170  174.5930  142.3450 S   0  0  0  0  0  0  0  0  0  0  0  0
  188.1100  175.9660  143.3900 C   0  0  2  0  0  3  0  0  0  0  0  0
  188.9250  175.8340  145.8420 C   0  0  0  0  0  3  0  0  0  0  0  0
  190.0660  174.5900  144.0570 C   0  0  1  0  0  3  0  0  0  0  0  0
  190.1950  174.1520  142.6500 C   0  0  0  0  0  3  0  0  0  0  0  0
  187.9060  176.5950  146.2320 C   0  0  0  0  0  3  0  0  0  0  0  0
  189.4300  173.8990  140.3580 C   0  0  0  0  0  0  0  0  0  0  0  0
  190.5770  173.1350  139.9780 N   0  0  0  0  0  2  0  0  0  0  0  0
  188.6310  174.3240  139.4790 O   0  0  0  0  0  0  0  0  0  0  0  0
  190.8900  172.7960  138.5970 C   0  0  1  0  0  3  0  0  0  0  0  0
  191.3430  173.9210  137.9340 F   0  0  0  0  0  0  0  0  0  0  0  0
  191.9800  171.7390  138.5730 C   0  0  0  0  0  2  0  0  0  0  0  0
  193.2920  172.3700  138.6180 N   0  0  0  0  0  0  0  0  0  0  0  0
  195.3070  171.4100  139.3420 O   0  0  0  0  0  0  0  0  0  0  0  0
  194.0150  171.9170  137.4520 C   0  0  0  0  0  2  0  0  0  0  0  0
  194.0110  171.7820  139.7400 C   0  0  1  0  0  3  0  0  0  0  0  0
  195.2140  171.1670  137.9690 C   0  0  0  0  0  2  0  0  0  0  0  0
  194.0720  172.7580  140.8770 C   0  0  0  0  0  0  0  0  0  0  0  0
  194.1370  173.9930  140.6270 O   0  0  0  0  0  0  0  0  0  0  0  0
  194.0120  172.2900  142.2750 C   0  0  0  0  0  0  0  0  0  0  0  0
  195.0250  172.1100  144.4800 C   0  0  0  0  0  3  0  0  0  0  0  0
  192.8430  171.1440  144.0730 C   0  0  0  0  0  3  0  0  0  0  0  0
  193.9070  171.4090  144.9400 C   0  0  0  0  0  3  0  0  0  0  0  0
  192.8950  171.5840  142.7470 C   0  0  0  0  0  3  0  0  0  0  0  0
  195.0770  172.5490  143.1530 C   0  0  0  0  0  3  0  0  0  0  0  0
  191.0920  174.1070  145.0420 C   0  0  0  0  0  2  0  0  0  0  0  0
  193.9620  176.0680  143.5200 C   0  0  0  0  0  3  0  0  0  0  0  0
  194.8390  176.1700  144.6070 C   0  0  0  0  0  0  0  0  0  0  0  0
  193.2550  174.9420  145.9820 C   0  0  0  0  0  3  0  0  0  0  0  0
  192.7380  175.4070  143.6590 C   0  0  0  0  0  3  0  0  0  0  0  0
  192.3810  174.8460  144.8930 C   0  0  0  0  0  0  0  0  0  0  0  0
  194.4780  175.6030  145.8420 C   0  0  0  0  0  3  0  0  0  0  0  0
  196.7970  176.7810  143.2230 C   0  0  0  0  0  1  0  0  0  0  0  0
  196.0560  176.8370  144.4360 O   0  0  0  0  0  0  0  0  0  0  0  0
  1  6  1  0  0  0  0
  1  8  1  0  0  0  0
  2 12  2  0  0  0  0
  3 10  1  0  0  0  0
  3 14  2  0  0  0  0
  4  8  1  0  0  0  0
  4 15  2  0  0  0  0
  5  1  2  0  0  0  0
  7  4  1  0  0  0  0
  9  5  1  0  0  0  0
  9  7  2  0  0  0  0
 11 10  1  1  0  0  0
 11  7  1  0  0  0  0
 11  2  1  0  0  0  0
 12 15  1  0  0  0  0
 13  2  1  0  0  0  0
 13 35  1  6  0  0  0
 14 13  1  0  0  0  0
 16  3  1  0  0  0  0
 17 16  1  0  0  0  0
 18 16  2  0  0  0  0
 19 20  1  6  0  0  0
 19 17  1  0  0  0  0
 21 19  1  0  0  0  0
 21 22  1  0  0  0  0
 22 25  1  0  0  0  0
 23 25  1  0  0  0  0
 24 26  1  0  0  0  0
 24 22  1  0  0  0  0
 25 27  1  1  0  0  0
 26 23  1  0  0  0  0
 27 29  1  0  0  0  0
 28 27  2  0  0  0  0
 29 33  2  0  0  0  0
 29 34  1  0  0  0  0
 30 32  1  0  0  0  0
 31 32  2  0  0  0  0
 33 31  1  0  0  0  0
 34 30  2  0  0  0  0
 36 39  2  0  0  0  0
 36 37  1  0  0  0  0
 37 41  2  0  0  0  0
 39 40  1  0  0  0  0
 40 35  1  0  0  0  0
 40 38  2  0  0  0  0
 41 38  1  0  0  0  0
 42 43  1  0  0  0  0
 43 37  1  0  0  0  0
M  END
>  <MODEL>
6

>  <REMARK>
 VINA RESULT:      -6.9      2.769      4.471
  Name = 
  9 active torsions:
  status: ('A' for Active; 'I' for Inactive)
    1  A    between atoms: C_1  and  C_34
    2  A    between atoms: C_1  and  C_35
    3  A    between atoms: C_2  and  C_13
    4  A    between atoms: C_3  and  N_4
    5  A    between atoms: C_3  and  C_12
    6  A    between atoms: N_6  and  C_12
    7  A    between atoms: C_11  and  C_14
    8  A    between atoms: C_14  and  C_22
    9  A    between atoms: C_19  and  O_37
                            x       y       z     vdW  Elec       q    Type
                         _______ _______ _______ _____ _____    ______ ____

>  <TORSDO>
F 9

$$$$
=
 OpenBabel11052420443D

 43 48  0  0  1  0  0  0  0  0999 V2000
  196.1480  176.3380  143.2590 C   0  0  0  0  0  0  0  0  0  0  0  0
  191.4360  175.1910  145.0370 C   0  0  0  0  0  0  0  0  0  0  0  0
  189.6650  174.4260  142.8370 C   0  0  0  0  0  0  0  0  0  0  0  0
  194.1490  176.0080  144.6200 C   0  0  0  0  0  0  0  0  0  0  0  0
  195.4760  175.6860  142.1310 C   0  0  0  0  0  3  0  0  0  0  0  0
  197.3840  176.7930  143.1340 C   0  0  0  0  0  1  0  0  0  0  0  0
  193.5060  175.4340  143.5760 C   0  0  0  0  0  0  0  0  0  0  0  0
  195.4650  176.4710  144.4730 O   0  0  0  0  0  0  0  0  0  0  0  0
  194.2240  175.2560  142.2920 C   0  0  0  0  0  3  0  0  0  0  0  0
  191.0310  175.5010  142.3570 S   0  0  0  0  0  0  0  0  0  0  0  0
  192.1000  174.8900  143.7040 C   0  0  2  0  0  3  0  0  0  0  0  0
  192.2350  175.7830  146.1270 C   0  0  0  0  0  3  0  0  0  0  0  0
  190.1380  174.8730  145.2260 C   0  0  1  0  0  3  0  0  0  0  0  0
  189.3310  174.3030  144.1260 C   0  0  0  0  0  3  0  0  0  0  0  0
  193.4940  176.1600  145.9290 C   0  0  0  0  0  3  0  0  0  0  0  0
  188.9070  173.6910  141.8130 C   0  0  0  0  0  0  0  0  0  0  0  0
  189.1470  173.9480  140.4270 N   0  0  0  0  0  2  0  0  0  0  0  0
  188.0450  172.8370  142.1600 O   0  0  0  0  0  0  0  0  0  0  0  0
  188.4450  173.2590  139.3530 C   0  0  1  0  0  3  0  0  0  0  0  0
  188.5270  174.0040  138.1930 F   0  0  0  0  0  0  0  0  0  0  0  0
  189.0940  171.9070  139.1150 C   0  0  0  0  0  2  0  0  0  0  0  0
  190.4140  172.0800  138.5250 N   0  0  0  0  0  0  0  0  0  0  0  0
  192.1740  170.5280  138.5000 O   0  0  0  0  0  0  0  0  0  0  0  0
  190.3940  171.4030  137.2490 C   0  0  0  0  0  2  0  0  0  0  0  0
  191.3470  171.3040  139.3310 C   0  0  1  0  0  3  0  0  0  0  0  0
  191.4280  170.3120  137.3380 C   0  0  0  0  0  2  0  0  0  0  0  0
  192.1740  172.2200  140.1820 C   0  0  0  0  0  0  0  0  0  0  0  0
  192.5660  173.3210  139.7050 O   0  0  0  0  0  0  0  0  0  0  0  0
  192.4910  171.8680  141.5800 C   0  0  0  0  0  0  0  0  0  0  0  0
  194.1240  171.5920  143.3620 C   0  0  0  0  0  3  0  0  0  0  0  0
  191.7840  171.1450  143.7920 C   0  0  0  0  0  3  0  0  0  0  0  0
  193.1070  171.2040  144.2380 C   0  0  0  0  0  3  0  0  0  0  0  0
  191.4780  171.4760  142.4680 C   0  0  0  0  0  3  0  0  0  0  0  0
  193.8180  171.9220  142.0380 C   0  0  0  0  0  3  0  0  0  0  0  0
  189.4750  175.0620  146.5600 C   0  0  0  0  0  2  0  0  0  0  0  0
  186.2930  177.0090  147.2560 C   0  0  0  0  0  3  0  0  0  0  0  0
  186.3860  178.0420  146.3150 C   0  0  0  0  0  0  0  0  0  0  0  0
  188.5080  177.1380  145.5510 C   0  0  0  0  0  3  0  0  0  0  0  0
  187.3010  176.0440  147.3470 C   0  0  0  0  0  3  0  0  0  0  0  0
  188.4120  176.1090  146.4960 C   0  0  0  0  0  0  0  0  0  0  0  0
  187.5010  178.1020  145.4610 C   0  0  0  0  0  3  0  0  0  0  0  0
  184.0400  178.6670  145.8350 C   0  0  0  0  0  1  0  0  0  0  0  0
  185.3620  178.9930  146.2480 O   0  0  0  0  0  0  0  0  0  0  0  0
  1  8  1  0  0  0  0
  2 13  1  0  0  0  0
  2 12  2  0  0  0  0
  3 14  2  0  0  0  0
  4 15  2  0  0  0  0
  5  9  1  0  0  0  0
  5  1  2  0  0  0  0
  6  1  1  0  0  0  0
  7 11  1  0  0  0  0
  7  4  1  0  0  0  0
  8  4  1  0  0  0  0
  9  7  2  0  0  0  0
 10  3  1  0  0  0  0
 11 10  1  6  0  0  0
 11  2  1  0  0  0  0
 13 35  1  1  0  0  0
 14 13  1  0  0  0  0
 15 12  1  0  0  0  0
 16 18  2  0  0  0  0
 16  3  1  0  0  0  0
 17 16  1  0  0  0  0
 19 20  1  6  0  0  0
 19 17  1  0  0  0  0
 21 19  1  0  0  0  0
 22 21  1  0  0  0  0
 22 25  1  0  0  0  0
 23 25  1  0  0  0  0
 24 26  1  0  0  0  0
 24 22  1  0  0  0  0
 25 27  1  6  0  0  0
 26 23  1  0  0  0  0
 27 29  1  0  0  0  0
 28 27  2  0  0  0  0
 29 34  2  0  0  0  0
 29 33  1  0  0  0  0
 30 32  2  0  0  0  0
 31 32  1  0  0  0  0
 33 31  2  0  0  0  0
 34 30  1  0  0  0  0
 36 39  1  0  0  0  0
 37 36  2  0  0  0  0
 38 40  1  0  0  0  0
 40 35  1  0  0  0  0
 40 39  2  0  0  0  0
 41 38  2  0  0  0  0
 41 37  1  0  0  0  0
 42 43  1  0  0  0  0
 43 37  1  0  0  0  0
M  END
>  <MODEL>
7

>  <REMARK>
 VINA RESULT:      -6.9      2.314      6.810
  Name = 
  9 active torsions:
  status: ('A' for Active; 'I' for Inactive)
    1  A    between atoms: C_1  and  C_34
    2  A    between atoms: C_1  and  C_35
    3  A    between atoms: C_2  and  C_13
    4  A    between atoms: C_3  and  N_4
    5  A    between atoms: C_3  and  C_12
    6  A    between atoms: N_6  and  C_12
    7  A    between atoms: C_11  and  C_14
    8  A    between atoms: C_14  and  C_22
    9  A    between atoms: C_19  and  O_37
                            x       y       z     vdW  Elec       q    Type
                         _______ _______ _______ _____ _____    ______ ____

>  <TORSDO>
F 9

$$$$
=
 OpenBabel11052420443D

 43 48  0  0  1  0  0  0  0  0999 V2000
  196.1610  176.2580  143.2840 C   0  0  0  0  0  0  0  0  0  0  0  0
  191.3750  175.3850  145.0200 C   0  0  0  0  0  0  0  0  0  0  0  0
  189.7040  174.2510  142.9030 C   0  0  0  0  0  0  0  0  0  0  0  0
  194.1030  176.1430  144.5920 C   0  0  0  0  0  0  0  0  0  0  0  0
  195.5400  175.4220  142.2520 C   0  0  0  0  0  3  0  0  0  0  0  0
  197.4010  176.6960  143.1390 C   0  0  0  0  0  1  0  0  0  0  0  0
  193.5070  175.3980  143.6310 C   0  0  0  0  0  0  0  0  0  0  0  0
  195.4240  176.5850  144.4280 O   0  0  0  0  0  0  0  0  0  0  0  0
  194.2820  175.0140  142.4270 C   0  0  0  0  0  3  0  0  0  0  0  0
  191.0900  175.2420  142.3100 S   0  0  0  0  0  0  0  0  0  0  0  0
  192.0970  174.8720  143.7860 C   0  0  2  0  0  3  0  0  0  0  0  0
  192.1240  176.1570  146.0310 C   0  0  0  0  0  3  0  0  0  0  0  0
  190.0700  175.0920  145.2030 C   0  0  1  0  0  3  0  0  0  0  0  0
  189.3130  174.3410  144.1790 C   0  0  0  0  0  3  0  0  0  0  0  0
  193.3910  176.5060  145.8270 C   0  0  0  0  0  3  0  0  0  0  0  0
  188.9920  173.3490  141.9840 C   0  0  0  0  0  0  0  0  0  0  0  0
  188.9930  173.6180  140.5790 N   0  0  0  0  0  2  0  0  0  0  0  0
  188.3810  172.3430  142.4360 O   0  0  0  0  0  0  0  0  0  0  0  0
  188.3200  172.7730  139.6030 C   0  0  1  0  0  3  0  0  0  0  0  0
  187.8230  173.5540  138.5780 F   0  0  0  0  0  0  0  0  0  0  0  0
  189.3150  171.7810  139.0270 C   0  0  0  0  0  2  0  0  0  0  0  0
  190.4280  172.4870  138.4080 N   0  0  0  0  0  0  0  0  0  0  0  0
  192.3540  171.5460  137.4540 O   0  0  0  0  0  0  0  0  0  0  0  0
  190.2280  172.4150  136.9790 C   0  0  0  0  0  2  0  0  0  0  0  0
  191.6240  171.6910  138.6470 C   0  0  1  0  0  3  0  0  0  0  0  0
  191.4100  171.6610  136.4300 C   0  0  0  0  0  2  0  0  0  0  0  0
  192.4700  172.3400  139.7010 C   0  0  0  0  0  0  0  0  0  0  0  0
  192.2030  172.1370  140.9180 O   0  0  0  0  0  0  0  0  0  0  0  0
  193.6310  173.1730  139.3290 C   0  0  0  0  0  0  0  0  0  0  0  0
  194.5370  175.2760  138.5080 C   0  0  0  0  0  3  0  0  0  0  0  0
  196.0330  173.4650  139.0890 C   0  0  0  0  0  3  0  0  0  0  0  0
  195.8330  174.7670  138.6240 C   0  0  0  0  0  3  0  0  0  0  0  0
  194.9370  172.6720  139.4410 C   0  0  0  0  0  3  0  0  0  0  0  0
  193.4400  174.4820  138.8600 C   0  0  0  0  0  3  0  0  0  0  0  0
  189.3480  175.4960  146.4560 C   0  0  0  0  0  2  0  0  0  0  0  0
  185.9910  177.2540  146.6520 C   0  0  0  0  0  3  0  0  0  0  0  0
  186.0550  178.1050  145.5420 C   0  0  0  0  0  0  0  0  0  0  0  0
  188.2810  177.2650  145.0440 C   0  0  0  0  0  3  0  0  0  0  0  0
  187.0640  176.4110  146.9600 C   0  0  0  0  0  3  0  0  0  0  0  0
  188.2120  176.4190  146.1570 C   0  0  0  0  0  0  0  0  0  0  0  0
  187.2090  178.1070  144.7380 C   0  0  0  0  0  3  0  0  0  0  0  0
  184.2620  178.8830  144.0250 C   0  0  0  0  0  1  0  0  0  0  0  0
  184.9660  178.9360  145.2600 O   0  0  0  0  0  0  0  0  0  0  0  0
  1  8  1  0  0  0  0
  2 13  1  0  0  0  0
  2 12  2  0  0  0  0
  3 14  2  0  0  0  0
  4 15  2  0  0  0  0
  5  9  1  0  0  0  0
  5  1  2  0  0  0  0
  6  1  1  0  0  0  0
  7 11  1  0  0  0  0
  7  4  1  0  0  0  0
  8  4  1  0  0  0  0
  9  7  2  0  0  0  0
 10  3  1  0  0  0  0
 11 10  1  6  0  0  0
 11  2  1  0  0  0  0
 13 35  1  1  0  0  0
 14 13  1  0  0  0  0
 15 12  1  0  0  0  0
 16 18  2  0  0  0  0
 16  3  1  0  0  0  0
 17 16  1  0  0  0  0
 19 20  1  6  0  0  0
 19 17  1  0  0  0  0
 21 19  1  0  0  0  0
 22 25  1  0  0  0  0
 22 21  1  0  0  0  0
 23 25  1  0  0  0  0
 24 22  1  0  0  0  0
 25 27  1  1  0  0  0
 26 24  1  0  0  0  0
 26 23  1  0  0  0  0
 27 28  2  0  0  0  0
 29 33  1  0  0  0  0
 29 27  1  0  0  0  0
 30 32  2  0  0  0  0
 30 34  1  0  0  0  0
 31 33  2  0  0  0  0
 32 31  1  0  0  0  0
 34 29  2  0  0  0  0
 36 39  1  0  0  0  0
 37 36  2  0  0  0  0
 38 40  1  0  0  0  0
 40 35  1  0  0  0  0
 40 39  2  0  0  0  0
 41 38  2  0  0  0  0
 41 37  1  0  0  0  0
 42 43  1  0  0  0  0
 43 37  1  0  0  0  0
M  END
>  <MODEL>
8

>  <REMARK>
 VINA RESULT:      -6.8      2.650      6.876
  Name = 
  9 active torsions:
  status: ('A' for Active; 'I' for Inactive)
    1  A    between atoms: C_1  and  C_34
    2  A    between atoms: C_1  and  C_35
    3  A    between atoms: C_2  and  C_13
    4  A    between atoms: C_3  and  N_4
    5  A    between atoms: C_3  and  C_12
    6  A    between atoms: N_6  and  C_12
    7  A    between atoms: C_11  and  C_14
    8  A    between atoms: C_14  and  C_22
    9  A    between atoms: C_19  and  O_37
                            x       y       z     vdW  Elec       q    Type
                         _______ _______ _______ _____ _____    ______ ____

>  <TORSDO>
F 9

$$$$
=
 OpenBabel11052420443D

 43 48  0  0  1  0  0  0  0  0999 V2000
  185.7090  178.0290  146.8260 C   0  0  0  0  0  0  0  0  0  0  0  0
  188.1680  175.9790  142.7720 C   0  0  0  0  0  0  0  0  0  0  0  0
  191.0530  176.4050  142.9970 C   0  0  0  0  0  0  0  0  0  0  0  0
  186.3060  176.9800  144.7040 C   0  0  0  0  0  0  0  0  0  0  0  0
  187.1230  178.0340  147.2110 C   0  0  0  0  0  3  0  0  0  0  0  0
  184.7890  178.5230  147.6380 C   0  0  0  0  0  1  0  0  0  0  0  0
  187.6190  177.0080  145.0350 C   0  0  0  0  0  0  0  0  0  0  0  0
  185.3430  177.4940  145.5860 O   0  0  0  0  0  0  0  0  0  0  0  0
  188.0230  177.5420  146.3570 C   0  0  0  0  0  3  0  0  0  0  0  0
  190.0490  177.6160  143.8780 S   0  0  0  0  0  0  0  0  0  0  0  0
  188.6840  176.4310  144.1270 C   0  0  2  0  0  3  0  0  0  0  0  0
  186.7130  175.9480  142.5240 C   0  0  0  0  0  3  0  0  0  0  0  0
  189.0390  175.5670  141.8270 C   0  0  1  0  0  3  0  0  0  0  0  0
  190.4970  175.6220  142.0670 C   0  0  0  0  0  3  0  0  0  0  0  0
  185.8530  176.4130  143.4250 C   0  0  0  0  0  3  0  0  0  0  0  0
  192.4900  176.2800  143.2910 C   0  0  0  0  0  0  0  0  0  0  0  0
  192.9570  176.4170  144.6360 N   0  0  0  0  0  2  0  0  0  0  0  0
  193.3070  176.0540  142.3560 O   0  0  0  0  0  0  0  0  0  0  0  0
  194.3590  176.3010  145.0110 C   0  0  1  0  0  3  0  0  0  0  0  0
  194.8270  177.5280  145.4430 F   0  0  0  0  0  0  0  0  0  0  0  0
  194.4950  175.2970  146.1410 C   0  0  0  0  0  2  0  0  0  0  0  0
  195.1810  174.1010  145.6710 N   0  0  0  0  0  0  0  0  0  0  0  0
  195.4400  173.3930  143.4490 O   0  0  0  0  0  0  0  0  0  0  0  0
  196.4880  174.5190  145.2190 C   0  0  0  0  0  2  0  0  0  0  0  0
  194.5010  173.6680  144.4580 C   0  0  1  0  0  3  0  0  0  0  0  0
  196.5470  174.1910  143.7510 C   0  0  0  0  0  2  0  0  0  0  0  0
  193.6690  172.4530  144.7440 C   0  0  0  0  0  0  0  0  0  0  0  0
  194.1910  171.4750  145.3450 O   0  0  0  0  0  0  0  0  0  0  0  0
  192.2420  172.4130  144.3690 C   0  0  0  0  0  0  0  0  0  0  0  0
  190.4500  171.4980  143.0010 C   0  0  0  0  0  3  0  0  0  0  0  0
  189.9570  173.1940  144.6570 C   0  0  0  0  0  3  0  0  0  0  0  0
  189.5280  172.3230  143.6510 C   0  0  0  0  0  3  0  0  0  0  0  0
  191.3070  173.2370  145.0140 C   0  0  0  0  0  3  0  0  0  0  0  0
  191.8010  171.5430  143.3580 C   0  0  0  0  0  3  0  0  0  0  0  0
  188.5620  175.0190  140.5130 C   0  0  0  0  0  2  0  0  0  0  0  0
  191.4080  172.6480  139.6910 C   0  0  0  0  0  3  0  0  0  0  0  0
  190.7110  171.4840  139.3450 C   0  0  0  0  0  0  0  0  0  0  0  0
  188.6110  172.6260  139.7830 C   0  0  0  0  0  3  0  0  0  0  0  0
  190.7130  173.7970  140.0820 C   0  0  0  0  0  3  0  0  0  0  0  0
  189.3140  173.7860  140.1320 C   0  0  0  0  0  0  0  0  0  0  0  0
  189.3060  171.4780  139.3930 C   0  0  0  0  0  3  0  0  0  0  0  0
  190.8160  169.0890  138.7270 C   0  0  0  0  0  1  0  0  0  0  0  0
  191.4340  170.3510  138.9580 O   0  0  0  0  0  0  0  0  0  0  0  0
  1  5  2  0  0  0  0
  1  6  1  0  0  0  0
  3 16  1  0  0  0  0
  3 10  1  0  0  0  0
  4  7  1  0  0  0  0
  4  8  1  0  0  0  0
  7  9  2  0  0  0  0
  8  1  1  0  0  0  0
  9  5  1  0  0  0  0
 10 11  1  0  0  0  0
 11  2  1  6  0  0  0
 11  7  1  0  0  0  0
 12  2  2  0  0  0  0
 12 15  1  0  0  0  0
 13 35  1  1  0  0  0
 13 14  1  0  0  0  0
 13  2  1  0  0  0  0
 14  3  2  0  0  0  0
 15  4  2  0  0  0  0
 16 17  1  0  0  0  0
 17 19  1  0  0  0  0
 18 16  2  0  0  0  0
 19 20  1  1  0  0  0
 19 21  1  0  0  0  0
 22 21  1  0  0  0  0
 23 26  1  0  0  0  0
 23 25  1  0  0  0  0
 24 22  1  0  0  0  0
 25 27  1  1  0  0  0
 25 22  1  0  0  0  0
 26 24  1  0  0  0  0
 27 28  2  0  0  0  0
 29 27  1  0  0  0  0
 29 33  1  0  0  0  0
 30 34  1  0  0  0  0
 30 32  2  0  0  0  0
 31 33  2  0  0  0  0
 32 31  1  0  0  0  0
 34 29  2  0  0  0  0
 36 39  1  0  0  0  0
 37 41  1  0  0  0  0
 37 36  2  0  0  0  0
 38 40  1  0  0  0  0
 39 40  2  0  0  0  0
 40 35  1  0  0  0  0
 41 38  2  0  0  0  0
 42 43  1  0  0  0  0
 43 37  1  0  0  0  0
M  END
>  <MODEL>
9

>  <REMARK>
 VINA RESULT:      -6.7      2.800      6.464
  Name = 
  9 active torsions:
  status: ('A' for Active; 'I' for Inactive)
    1  A    between atoms: C_1  and  C_34
    2  A    between atoms: C_1  and  C_35
    3  A    between atoms: C_2  and  C_13
    4  A    between atoms: C_3  and  N_4
    5  A    between atoms: C_3  and  C_12
    6  A    between atoms: N_6  and  C_12
    7  A    between atoms: C_11  and  C_14
    8  A    between atoms: C_14  and  C_22
    9  A    between atoms: C_19  and  O_37
                            x       y       z     vdW  Elec       q    Type
                         _______ _______ _______ _____ _____    ______ ____

>  <TORSDO>
F 9

$$$$
