=
 OpenBabel11052417243D

 25 29  0  0  1  0  0  0  0  0999 V2000
  187.1060  176.8910  142.9320 C   0  0  0  0  0  0  0  0  0  0  0  0
  186.9250  176.6870  144.4030 C   0  0  1  0  0  3  0  0  0  0  0  0
  185.9470  179.0240  142.8790 C   0  0  0  0  0  3  0  0  0  0  0  0
  187.4860  176.0720  141.9670 C   0  0  0  0  0  0  0  0  0  0  0  0
  188.0780  174.7310  139.6130 C   0  0  0  0  0  3  0  0  0  0  0  0
  185.9420  179.0090  144.3630 C   0  0  0  0  0  3  0  0  0  0  0  0
  187.2140  176.6690  140.7390 C   0  0  0  0  0  0  0  0  0  0  0  0
  187.5090  176.0140  139.5450 C   0  0  0  0  0  3  0  0  0  0  0  0
  186.5490  178.0410  146.5430 C   0  0  0  0  0  0  0  0  0  0  0  0
  185.5730  179.1500  147.4900 Cl  0  0  0  0  0  0  0  0  0  0  0  0
  188.1500  176.1500  145.0920 C   0  0  0  0  0  3  0  0  0  0  0  0
  188.3340  174.1240  140.8610 C   0  0  0  0  0  3  0  0  0  0  0  0
  186.5350  178.0170  142.2390 C   0  0  0  0  0  0  0  0  0  0  0  0
  186.6410  177.8310  140.8300 N   0  0  0  0  0  0  0  0  0  0  0  0
  187.4690  177.2890  147.1580 C   0  0  0  0  0  3  0  0  0  0  0  0
  188.0320  174.7920  142.0580 C   0  0  0  0  0  3  0  0  0  0  0  0
  188.3610  176.3850  146.3940 C   0  0  0  0  0  0  0  0  0  0  0  0
  186.4310  177.9670  145.0730 C   0  0  0  0  0  0  0  0  0  0  0  0
  189.5280  175.7590  147.0730 C   0  0  0  0  0  2  0  0  0  0  0  0
  190.7820  176.5740  146.8150 C   0  0  2  0  0  3  0  0  0  0  0  0
  191.9970  175.7050  147.0830 C   0  0  2  0  0  3  0  0  0  0  0  0
  191.5530  176.7340  148.1070 C   0  0  0  0  0  2  0  0  0  0  0  0
  193.1650  176.2240  146.3110 C   0  0  0  0  0  0  0  0  0  0  0  0
  192.9650  176.9620  145.1510 O   0  0  0  0  0  0  0  0  0  0  0  0
  194.3380  175.9560  146.6850 O   0  0  0  0  0  1  0  0  0  0  0  0
  1  2  1  0  0  0  0
  2 18  1  0  0  0  0
  2 11  1  1  0  0  0
  3  6  1  0  0  0  0
  4 16  1  0  0  0  0
  4  1  2  0  0  0  0
  5 12  1  0  0  0  0
  6 18  2  0  0  0  0
  7 14  2  0  0  0  0
  7  4  1  0  0  0  0
  8  5  2  0  0  0  0
  8  7  1  0  0  0  0
  9 15  2  0  0  0  0
  9 10  1  0  0  0  0
 11 17  2  0  0  0  0
 12 16  2  0  0  0  0
 13  3  2  0  0  0  0
 13  1  1  0  0  0  0
 14 13  1  0  0  0  0
 17 19  1  0  0  0  0
 17 15  1  0  0  0  0
 18  9  1  0  0  0  0
 20 19  1  1  0  0  0
 20 21  1  0  0  0  0
 20 22  1  0  0  0  0
 21 23  1  6  0  0  0
 21 22  1  0  0  0  0
 23 25  1  0  0  0  0
 24 23  2  0  0  0  0
M  END
>  <MODEL>
1

>  <REMARK>
 VINA RESULT:      -7.7      0.000      0.000
  Name = 
  3 active torsions:
  status: ('A' for Active; 'I' for Inactive)
    1  A    between atoms: C_2  and  C_21
    2  A    between atoms: C_6  and  C_15
    3  A    between atoms: C_6  and  C_23
                            x       y       z     vdW  Elec       q    Type
                         _______ _______ _______ _____ _____    ______ ____

>  <TORSDO>
F 3

$$$$
=
 OpenBabel11052417243D

 25 29  0  0  1  0  0  0  0  0999 V2000
  185.9910  177.6760  144.1360 C   0  0  0  0  0  0  0  0  0  0  0  0
  186.9760  177.3770  143.0490 C   0  0  0  0  0  0  0  0  0  0  0  0
  184.1990  178.2970  142.6190 C   0  0  0  0  0  3  0  0  0  0  0  0
  186.1350  177.8360  145.4390 C   0  0  0  0  0  0  0  0  0  0  0  0
  185.9430  178.3930  148.1480 C   0  0  0  0  0  3  0  0  0  0  0  0
  185.0320  177.7930  141.4970 C   0  0  0  0  0  3  0  0  0  0  0  0
  184.9630  178.3800  145.9560 C   0  0  1  0  0  3  0  0  0  0  0  0
  184.8440  178.6620  147.3160 C   0  0  0  0  0  3  0  0  0  0  0  0
  187.0350  176.6940  140.5830 C   0  0  0  0  0  0  0  0  0  0  0  0
  186.6480  177.0230  138.9030 Cl  0  0  0  0  0  0  0  0  0  0  0  0
  187.7880  176.1350  143.2970 C   0  0  0  0  0  3  0  0  0  0  0  0
  187.1350  177.8590  147.6150 C   0  0  0  0  0  3  0  0  0  0  0  0
  184.6770  178.1960  143.8560 C   0  0  0  0  0  0  0  0  0  0  0  0
  184.0520  178.6240  145.0620 N   0  0  0  0  0  0  0  0  0  0  0  0
  187.9890  175.8020  140.8720 C   0  0  0  0  0  3  0  0  0  0  0  0
  187.2440  177.5790  146.2440 C   0  0  0  0  0  3  0  0  0  0  0  0
  188.3090  175.4430  142.2750 C   0  0  0  0  0  0  0  0  0  0  0  0
  186.2860  177.3250  141.6880 C   0  0  0  0  0  0  0  0  0  0  0  0
  189.1900  174.2760  142.5520 C   0  0  0  0  0  2  0  0  0  0  0  0
  189.3740  174.1040  144.0490 C   0  0  2  0  0  3  0  0  0  0  0  0
  190.8370  174.3130  144.3910 C   0  0  2  0  0  3  0  0  0  0  0  0
  190.2640  172.9100  144.3120 C   0  0  0  0  0  2  0  0  0  0  0  0
  190.9640  174.7330  145.8190 C   0  0  0  0  0  0  0  0  0  0  0  0
  189.8380  175.1150  146.5380 O   0  0  0  0  0  1  0  0  0  0  0  0
  192.0980  174.7850  146.3630 O   0  0  0  0  0  0  0  0  0  0  0  0
  1  4  2  0  0  0  0
  2 11  1  0  0  0  0
  2  1  1  0  0  0  0
  3 13  1  0  0  0  0
  4  7  1  0  0  0  0
  4 16  1  0  0  0  0
  6 18  1  0  0  0  0
  6  3  2  0  0  0  0
  7  8  1  6  0  0  0
  8  5  2  0  0  0  0
  9 15  2  0  0  0  0
  9 18  1  0  0  0  0
 10  9  1  0  0  0  0
 12  5  1  0  0  0  0
 13  1  1  0  0  0  0
 13 14  2  0  0  0  0
 14  7  1  0  0  0  0
 15 17  1  0  0  0  0
 16 12  2  0  0  0  0
 17 19  1  0  0  0  0
 17 11  2  0  0  0  0
 18  2  2  0  0  0  0
 20 19  1  6  0  0  0
 20 22  1  0  0  0  0
 20 21  1  0  0  0  0
 21 23  1  1  0  0  0
 22 21  1  0  0  0  0
 23 25  2  0  0  0  0
 23 24  1  0  0  0  0
M  END
>  <MODEL>
2

>  <REMARK>
 VINA RESULT:      -7.6      2.743      5.124
  Name = 
  3 active torsions:
  status: ('A' for Active; 'I' for Inactive)
    1  A    between atoms: C_2  and  C_21
    2  A    between atoms: C_6  and  C_15
    3  A    between atoms: C_6  and  C_23
                            x       y       z     vdW  Elec       q    Type
                         _______ _______ _______ _____ _____    ______ ____

>  <TORSDO>
F 3

$$$$
=
 OpenBabel11052417243D

 25 29  0  0  1  0  0  0  0  0999 V2000
  186.6610  177.1520  143.7600 C   0  0  0  0  0  0  0  0  0  0  0  0
  187.9120  176.3800  144.0390 C   0  0  1  0  0  3  0  0  0  0  0  0
  185.8570  177.0670  146.0500 C   0  0  0  0  0  3  0  0  0  0  0  0
  186.0650  177.4910  142.6300 C   0  0  0  0  0  0  0  0  0  0  0  0
  184.3880  178.3040  140.5780 C   0  0  0  0  0  3  0  0  0  0  0  0
  187.1760  176.5140  146.4470 C   0  0  0  0  0  3  0  0  0  0  0  0
  184.7850  177.9550  142.9200 C   0  0  0  0  0  0  0  0  0  0  0  0
  183.9280  178.3720  141.9040 C   0  0  0  0  0  3  0  0  0  0  0  0
  189.4930  175.8320  145.9750 C   0  0  0  0  0  0  0  0  0  0  0  0
  189.7760  175.1180  147.5540 Cl  0  0  0  0  0  0  0  0  0  0  0  0
  189.1290  176.9360  143.3500 C   0  0  0  0  0  3  0  0  0  0  0  0
  185.6800  177.8150  140.2890 C   0  0  0  0  0  3  0  0  0  0  0  0
  185.6630  177.3840  144.7720 C   0  0  0  0  0  0  0  0  0  0  0  0
  184.4790  177.9130  144.1830 N   0  0  0  0  0  0  0  0  0  0  0  0
  190.5340  176.0730  145.1700 C   0  0  0  0  0  3  0  0  0  0  0  0
  186.5340  177.3960  141.3210 C   0  0  0  0  0  3  0  0  0  0  0  0
  190.3530  176.7330  143.8550 C   0  0  0  0  0  0  0  0  0  0  0  0
  188.1420  176.2400  145.5410 C   0  0  0  0  0  0  0  0  0  0  0  0
  191.5460  177.2080  143.1020 C   0  0  0  0  0  2  0  0  0  0  0  0
  192.7260  176.2890  143.3600 C   0  0  2  0  0  3  0  0  0  0  0  0
  193.6100  176.2670  142.1270 C   0  0  2  0  0  3  0  0  0  0  0  0
  192.6660  175.1130  142.4110 C   0  0  0  0  0  2  0  0  0  0  0  0
  195.0040  175.8940  142.5140 C   0  0  0  0  0  0  0  0  0  0  0  0
  195.4750  176.1820  143.7890 O   0  0  0  0  0  1  0  0  0  0  0  0
  195.7700  175.3560  141.6730 O   0  0  0  0  0  0  0  0  0  0  0  0
  1  2  1  0  0  0  0
  1 13  1  0  0  0  0
  2 11  1  6  0  0  0
  2 18  1  0  0  0  0
  3  6  1  0  0  0  0
  4  7  1  0  0  0  0
  4  1  2  0  0  0  0
  5  8  2  0  0  0  0
  7 14  2  0  0  0  0
  8  7  1  0  0  0  0
  9 10  1  0  0  0  0
 11 17  2  0  0  0  0
 12  5  1  0  0  0  0
 12 16  2  0  0  0  0
 13  3  2  0  0  0  0
 14 13  1  0  0  0  0
 15  9  2  0  0  0  0
 16  4  1  0  0  0  0
 17 15  1  0  0  0  0
 18  9  1  0  0  0  0
 18  6  2  0  0  0  0
 19 17  1  0  0  0  0
 20 19  1  6  0  0  0
 21 22  1  0  0  0  0
 21 23  1  1  0  0  0
 21 20  1  0  0  0  0
 22 20  1  0  0  0  0
 23 24  1  0  0  0  0
 25 23  2  0  0  0  0
M  END
>  <MODEL>
3

>  <REMARK>
 VINA RESULT:      -7.3      2.819      3.949
  Name = 
  3 active torsions:
  status: ('A' for Active; 'I' for Inactive)
    1  A    between atoms: C_2  and  C_21
    2  A    between atoms: C_6  and  C_15
    3  A    between atoms: C_6  and  C_23
                            x       y       z     vdW  Elec       q    Type
                         _______ _______ _______ _____ _____    ______ ____

>  <TORSDO>
F 3

$$$$
=
 OpenBabel11052417243D

 25 29  0  0  1  0  0  0  0  0999 V2000
  189.9880  175.4190  144.2070 C   0  0  0  0  0  0  0  0  0  0  0  0
  189.8890  176.5730  145.1550 C   0  0  1  0  0  3  0  0  0  0  0  0
  191.8590  174.3770  145.3510 C   0  0  0  0  0  3  0  0  0  0  0  0
  189.4550  175.2060  143.0170 C   0  0  0  0  0  0  0  0  0  0  0  0
  188.7090  174.3680  140.4820 C   0  0  0  0  0  3  0  0  0  0  0  0
  191.6690  175.3490  146.4570 C   0  0  0  0  0  3  0  0  0  0  0  0
  190.0860  174.1110  142.4330 C   0  0  0  0  0  0  0  0  0  0  0  0
  189.7220  173.6710  141.1620 C   0  0  0  0  0  3  0  0  0  0  0  0
  190.4690  177.1860  147.5720 C   0  0  0  0  0  0  0  0  0  0  0  0
  191.6600  177.4110  148.8410 Cl  0  0  0  0  0  0  0  0  0  0  0  0
  188.4750  176.9320  145.5220 C   0  0  0  0  0  3  0  0  0  0  0  0
  188.0870  175.4880  141.0710 C   0  0  0  0  0  3  0  0  0  0  0  0
  191.0240  174.4250  144.3170 C   0  0  0  0  0  0  0  0  0  0  0  0
  191.0370  173.6000  143.1560 N   0  0  0  0  0  0  0  0  0  0  0  0
  189.2630  177.7520  147.6980 C   0  0  0  0  0  3  0  0  0  0  0  0
  188.4620  175.9230  142.3520 C   0  0  0  0  0  3  0  0  0  0  0  0
  188.2030  177.5390  146.6850 C   0  0  0  0  0  0  0  0  0  0  0  0
  190.7380  176.3280  146.4010 C   0  0  0  0  0  0  0  0  0  0  0  0
  186.8090  177.9730  146.9780 C   0  0  0  0  0  2  0  0  0  0  0  0
  185.8530  177.3860  145.9560 C   0  0  2  0  0  3  0  0  0  0  0  0
  185.2230  178.5170  145.1650 C   0  0  2  0  0  3  0  0  0  0  0  0
  184.4430  177.8310  146.2720 C   0  0  0  0  0  2  0  0  0  0  0  0
  184.7740  178.0110  143.8340 C   0  0  0  0  0  0  0  0  0  0  0  0
  183.6890  178.5970  143.1930 O   0  0  0  0  0  0  0  0  0  0  0  0
  185.3510  177.0240  143.3070 O   0  0  0  0  0  1  0  0  0  0  0  0
  1 13  1  0  0  0  0
  1  2  1  0  0  0  0
  2 11  1  1  0  0  0
  2 18  1  0  0  0  0
  3  6  1  0  0  0  0
  4  1  2  0  0  0  0
  5 12  1  0  0  0  0
  5  8  2  0  0  0  0
  7  4  1  0  0  0  0
  7 14  2  0  0  0  0
  8  7  1  0  0  0  0
  9 15  2  0  0  0  0
  9 10  1  0  0  0  0
 11 17  2  0  0  0  0
 12 16  2  0  0  0  0
 13  3  2  0  0  0  0
 14 13  1  0  0  0  0
 16  4  1  0  0  0  0
 17 19  1  0  0  0  0
 17 15  1  0  0  0  0
 18  6  2  0  0  0  0
 18  9  1  0  0  0  0
 20 22  1  0  0  0  0
 20 19  1  1  0  0  0
 21 23  1  6  0  0  0
 21 20  1  0  0  0  0
 21 22  1  0  0  0  0
 24 23  2  0  0  0  0
 25 23  1  0  0  0  0
M  END
>  <MODEL>
4

>  <REMARK>
 VINA RESULT:      -7.3      3.417      5.514
  Name = 
  3 active torsions:
  status: ('A' for Active; 'I' for Inactive)
    1  A    between atoms: C_2  and  C_21
    2  A    between atoms: C_6  and  C_15
    3  A    between atoms: C_6  and  C_23
                            x       y       z     vdW  Elec       q    Type
                         _______ _______ _______ _____ _____    ______ ____

>  <TORSDO>
F 3

$$$$
=
 OpenBabel11052417243D

 25 29  0  0  1  0  0  0  0  0999 V2000
  189.6330  176.3410  145.2090 C   0  0  0  0  0  0  0  0  0  0  0  0
  188.6100  177.4240  145.3510 C   0  0  1  0  0  3  0  0  0  0  0  0
  188.9370  175.1420  147.2030 C   0  0  0  0  0  3  0  0  0  0  0  0
  190.7110  176.2380  144.4530 C   0  0  0  0  0  0  0  0  0  0  0  0
  193.1070  175.6210  143.2020 C   0  0  0  0  0  3  0  0  0  0  0  0
  187.7540  176.0350  147.2750 C   0  0  0  0  0  3  0  0  0  0  0  0
  191.4750  175.1650  144.9040 C   0  0  0  0  0  0  0  0  0  0  0  0
  192.6800  174.8360  144.2860 C   0  0  0  0  0  3  0  0  0  0  0  0
  186.3130  177.8310  146.4050 C   0  0  0  0  0  0  0  0  0  0  0  0
  185.2820  177.9130  147.8230 Cl  0  0  0  0  0  0  0  0  0  0  0  0
  187.9580  177.8100  144.0520 C   0  0  0  0  0  3  0  0  0  0  0  0
  192.3380  176.7180  142.7620 C   0  0  0  0  0  3  0  0  0  0  0  0
  189.7880  175.3000  146.1930 C   0  0  0  0  0  0  0  0  0  0  0  0
  190.9820  174.5640  145.9450 N   0  0  0  0  0  0  0  0  0  0  0  0
  185.9230  178.4340  145.2760 C   0  0  0  0  0  3  0  0  0  0  0  0
  191.1260  177.0420  143.3920 C   0  0  0  0  0  3  0  0  0  0  0  0
  186.7270  178.3400  144.0350 C   0  0  0  0  0  0  0  0  0  0  0  0
  187.5680  177.0530  146.4040 C   0  0  0  0  0  0  0  0  0  0  0  0
  186.1460  178.8060  142.7460 C   0  0  0  0  0  2  0  0  0  0  0  0
  185.9670  177.6330  141.8000 C   0  0  2  0  0  3  0  0  0  0  0  0
  186.7230  177.9180  140.5160 C   0  0  2  0  0  3  0  0  0  0  0  0
  185.2160  178.0900  140.5690 C   0  0  0  0  0  2  0  0  0  0  0  0
  187.0670  176.6310  139.8390 C   0  0  0  0  0  0  0  0  0  0  0  0
  186.6850  176.4110  138.5220 O   0  0  0  0  0  0  0  0  0  0  0  0
  187.6660  175.7250  140.4740 O   0  0  0  0  0  1  0  0  0  0  0  0
  1  2  1  0  0  0  0
  1 13  1  0  0  0  0
  2 11  1  6  0  0  0
  2 18  1  0  0  0  0
  3  6  1  0  0  0  0
  4  7  1  0  0  0  0
  4  1  2  0  0  0  0
  5  8  2  0  0  0  0
  7 14  2  0  0  0  0
  8  7  1  0  0  0  0
  9 10  1  0  0  0  0
 12  5  1  0  0  0  0
 12 16  2  0  0  0  0
 13  3  2  0  0  0  0
 14 13  1  0  0  0  0
 15  9  2  0  0  0  0
 16  4  1  0  0  0  0
 17 11  2  0  0  0  0
 17 15  1  0  0  0  0
 18  9  1  0  0  0  0
 18  6  2  0  0  0  0
 19 17  1  0  0  0  0
 20 19  1  1  0  0  0
 21 23  1  6  0  0  0
 21 22  1  0  0  0  0
 21 20  1  0  0  0  0
 22 20  1  0  0  0  0
 23 25  1  0  0  0  0
 24 23  2  0  0  0  0
M  END
>  <MODEL>
5

>  <REMARK>
 VINA RESULT:      -7.3      3.258      5.980
  Name = 
  3 active torsions:
  status: ('A' for Active; 'I' for Inactive)
    1  A    between atoms: C_2  and  C_21
    2  A    between atoms: C_6  and  C_15
    3  A    between atoms: C_6  and  C_23
                            x       y       z     vdW  Elec       q    Type
                         _______ _______ _______ _____ _____    ______ ____

>  <TORSDO>
F 3

$$$$
=
 OpenBabel11052417243D

 25 29  0  0  1  0  0  0  0  0999 V2000
  190.3900  175.8330  144.2310 C   0  0  0  0  0  0  0  0  0  0  0  0
  189.1040  175.6680  143.4830 C   0  0  0  0  0  0  0  0  0  0  0  0
  191.7420  174.7040  142.5600 C   0  0  0  0  0  3  0  0  0  0  0  0
  190.6480  176.1890  145.4770 C   0  0  0  0  0  0  0  0  0  0  0  0
  191.6800  176.7320  147.9920 C   0  0  0  0  0  3  0  0  0  0  0  0
  190.5630  174.7180  141.6580 C   0  0  0  0  0  3  0  0  0  0  0  0
  191.9830  175.9100  145.7560 C   0  0  1  0  0  3  0  0  0  0  0  0
  192.5220  176.1800  147.0120 C   0  0  0  0  0  3  0  0  0  0  0  0
  188.2490  175.3390  141.0930 C   0  0  0  0  0  0  0  0  0  0  0  0
  188.1820  174.3900  139.6180 Cl  0  0  0  0  0  0  0  0  0  0  0  0
  188.2330  176.8940  143.5060 C   0  0  0  0  0  3  0  0  0  0  0  0
  190.3240  176.9950  147.7090 C   0  0  0  0  0  3  0  0  0  0  0  0
  191.6280  175.2690  143.7580 C   0  0  0  0  0  0  0  0  0  0  0  0
  192.6250  175.3540  144.7720 N   0  0  0  0  0  0  0  0  0  0  0  0
  187.3030  176.2560  141.3250 C   0  0  0  0  0  3  0  0  0  0  0  0
  189.7910  176.7180  146.4400 C   0  0  0  0  0  3  0  0  0  0  0  0
  187.3510  177.1250  142.5240 C   0  0  0  0  0  0  0  0  0  0  0  0
  189.3620  175.2000  142.0530 C   0  0  0  0  0  0  0  0  0  0  0  0
  186.4320  178.2920  142.6230 C   0  0  0  0  0  2  0  0  0  0  0  0
  186.3380  178.7630  144.0630 C   0  0  2  0  0  3  0  0  0  0  0  0
  185.0000  178.3340  144.6340 C   0  0  2  0  0  3  0  0  0  0  0  0
  185.2160  179.7690  144.1900 C   0  0  0  0  0  2  0  0  0  0  0  0
  185.0960  178.2380  146.1210 C   0  0  0  0  0  0  0  0  0  0  0  0
  186.3340  178.0800  146.7330 O   0  0  0  0  0  0  0  0  0  0  0  0
  184.0520  178.2580  146.8240 O   0  0  0  0  0  1  0  0  0  0  0  0
  1  4  2  0  0  0  0
  2 11  1  0  0  0  0
  2  1  1  0  0  0  0
  3 13  1  0  0  0  0
  4  7  1  0  0  0  0
  4 16  1  0  0  0  0
  6 18  1  0  0  0  0
  6  3  2  0  0  0  0
  7  8  1  1  0  0  0
  8  5  2  0  0  0  0
  9 15  2  0  0  0  0
  9 18  1  0  0  0  0
 10  9  1  0  0  0  0
 12  5  1  0  0  0  0
 13  1  1  0  0  0  0
 13 14  2  0  0  0  0
 14  7  1  0  0  0  0
 15 17  1  0  0  0  0
 16 12  2  0  0  0  0
 17 19  1  0  0  0  0
 17 11  2  0  0  0  0
 18  2  2  0  0  0  0
 20 19  1  6  0  0  0
 20 22  1  0  0  0  0
 20 21  1  0  0  0  0
 21 23  1  1  0  0  0
 22 21  1  0  0  0  0
 23 24  2  0  0  0  0
 23 25  1  0  0  0  0
M  END
>  <MODEL>
6

>  <REMARK>
 VINA RESULT:      -7.3      3.675      6.844
  Name = 
  3 active torsions:
  status: ('A' for Active; 'I' for Inactive)
    1  A    between atoms: C_2  and  C_21
    2  A    between atoms: C_6  and  C_15
    3  A    between atoms: C_6  and  C_23
                            x       y       z     vdW  Elec       q    Type
                         _______ _______ _______ _____ _____    ______ ____

>  <TORSDO>
F 3

$$$$
=
 OpenBabel11052417243D

 25 29  0  0  1  0  0  0  0  0999 V2000
  185.9560  177.7620  143.2180 C   0  0  0  0  0  0  0  0  0  0  0  0
  186.5100  177.2200  144.4980 C   0  0  1  0  0  3  0  0  0  0  0  0
  184.0660  178.8680  144.2680 C   0  0  0  0  0  3  0  0  0  0  0  0
  186.2230  177.4870  141.9530 C   0  0  0  0  0  0  0  0  0  0  0  0
  186.3160  177.1660  139.2010 C   0  0  0  0  0  3  0  0  0  0  0  0
  184.6820  178.5740  145.5860 C   0  0  0  0  0  3  0  0  0  0  0  0
  185.2350  178.0530  141.1530 C   0  0  0  0  0  0  0  0  0  0  0  0
  185.2660  177.9080  139.7680 C   0  0  0  0  0  3  0  0  0  0  0  0
  186.4950  177.7110  147.0100 C   0  0  0  0  0  0  0  0  0  0  0  0
  185.6170  177.8960  148.5190 Cl  0  0  0  0  0  0  0  0  0  0  0  0
  188.0070  177.3280  144.6000 C   0  0  0  0  0  3  0  0  0  0  0  0
  187.3040  176.5780  140.0190 C   0  0  0  0  0  3  0  0  0  0  0  0
  184.7160  178.4930  143.1690 C   0  0  0  0  0  0  0  0  0  0  0  0
  184.3010  178.6660  141.8180 N   0  0  0  0  0  0  0  0  0  0  0  0
  187.8140  177.4910  147.0430 C   0  0  0  0  0  3  0  0  0  0  0  0
  187.2620  176.7300  141.4140 C   0  0  0  0  0  3  0  0  0  0  0  0
  188.6090  177.3910  145.7960 C   0  0  0  0  0  0  0  0  0  0  0  0
  185.8260  177.8620  145.7030 C   0  0  0  0  0  0  0  0  0  0  0  0
  190.0950  177.3970  145.8700 C   0  0  0  0  0  2  0  0  0  0  0  0
  190.6850  176.8350  144.5890 C   0  0  2  0  0  3  0  0  0  0  0  0
  192.1980  176.8670  144.6900 C   0  0  2  0  0  3  0  0  0  0  0  0
  191.4640  177.9180  143.8770 C   0  0  0  0  0  2  0  0  0  0  0  0
  192.7840  175.8360  143.7820 C   0  0  0  0  0  0  0  0  0  0  0  0
  194.0330  176.0380  143.2090 O   0  0  0  0  0  0  0  0  0  0  0  0
  192.1290  174.7980  143.4990 O   0  0  0  0  0  1  0  0  0  0  0  0
  1  2  1  0  0  0  0
  2 11  1  1  0  0  0
  2 18  1  0  0  0  0
  3  6  1  0  0  0  0
  4  1  2  0  0  0  0
  5  8  2  0  0  0  0
  5 12  1  0  0  0  0
  6 18  2  0  0  0  0
  7 14  2  0  0  0  0
  7  4  1  0  0  0  0
  8  7  1  0  0  0  0
  9 15  2  0  0  0  0
  9 10  1  0  0  0  0
 11 17  2  0  0  0  0
 12 16  2  0  0  0  0
 13  1  1  0  0  0  0
 13  3  2  0  0  0  0
 14 13  1  0  0  0  0
 16  4  1  0  0  0  0
 17 19  1  0  0  0  0
 17 15  1  0  0  0  0
 18  9  1  0  0  0  0
 20 21  1  0  0  0  0
 20 19  1  1  0  0  0
 21 23  1  6  0  0  0
 22 20  1  0  0  0  0
 22 21  1  0  0  0  0
 24 23  2  0  0  0  0
 25 23  1  0  0  0  0
M  END
>  <MODEL>
7

>  <REMARK>
 VINA RESULT:      -7.2      1.827      2.321
  Name = 
  3 active torsions:
  status: ('A' for Active; 'I' for Inactive)
    1  A    between atoms: C_2  and  C_21
    2  A    between atoms: C_6  and  C_15
    3  A    between atoms: C_6  and  C_23
                            x       y       z     vdW  Elec       q    Type
                         _______ _______ _______ _____ _____    ______ ____

>  <TORSDO>
F 3

$$$$
=
 OpenBabel11052417243D

 25 29  0  0  1  0  0  0  0  0999 V2000
  191.3980  176.1910  145.2460 C   0  0  0  0  0  0  0  0  0  0  0  0
  190.2650  177.1590  145.1010 C   0  0  1  0  0  3  0  0  0  0  0  0
  190.8560  175.5890  147.5350 C   0  0  0  0  0  3  0  0  0  0  0  0
  192.4730  175.9730  144.5100 C   0  0  0  0  0  0  0  0  0  0  0  0
  194.9080  175.2470  143.4010 C   0  0  0  0  0  3  0  0  0  0  0  0
  189.5840  176.3400  147.3870 C   0  0  0  0  0  3  0  0  0  0  0  0
  193.3530  175.1680  145.2290 C   0  0  0  0  0  0  0  0  0  0  0  0
  194.5790  174.7880  144.6870 C   0  0  0  0  0  3  0  0  0  0  0  0
  187.9490  177.6360  146.0800 C   0  0  0  0  0  0  0  0  0  0  0  0
  186.9300  178.0400  147.4510 Cl  0  0  0  0  0  0  0  0  0  0  0  0
  189.5620  177.0680  143.7740 C   0  0  0  0  0  3  0  0  0  0  0  0
  194.0200  176.0780  142.6850 C   0  0  0  0  0  3  0  0  0  0  0  0
  191.6740  175.5180  146.4890 C   0  0  0  0  0  0  0  0  0  0  0  0
  192.9380  174.8640  146.4220 N   0  0  0  0  0  0  0  0  0  0  0  0
  187.4850  177.8280  144.8410 C   0  0  0  0  0  3  0  0  0  0  0  0
  192.7880  176.4550  143.2410 C   0  0  0  0  0  3  0  0  0  0  0  0
  188.2820  177.4430  143.6520 C   0  0  0  0  0  0  0  0  0  0  0  0
  189.2800  177.0230  146.2590 C   0  0  0  0  0  0  0  0  0  0  0  0
  187.6400  177.4370  142.3080 C   0  0  0  0  0  2  0  0  0  0  0  0
  186.4410  178.3670  142.2980 C   0  0  2  0  0  3  0  0  0  0  0  0
  185.1780  177.5390  142.1530 C   0  0  2  0  0  3  0  0  0  0  0  0
  185.7480  178.2790  140.9570 C   0  0  0  0  0  2  0  0  0  0  0  0
  184.0160  178.2920  142.7140 C   0  0  0  0  0  0  0  0  0  0  0  0
  182.7930  178.2830  142.0550 O   0  0  0  0  0  0  0  0  0  0  0  0
  184.1530  178.9730  143.7640 O   0  0  0  0  0  1  0  0  0  0  0  0
  1 13  1  0  0  0  0
  2 11  1  6  0  0  0
  2  1  1  0  0  0  0
  2 18  1  0  0  0  0
  4  7  1  0  0  0  0
  4  1  2  0  0  0  0
  5  8  2  0  0  0  0
  6  3  1  0  0  0  0
  7 14  2  0  0  0  0
  8  7  1  0  0  0  0
  9 18  1  0  0  0  0
  9 10  1  0  0  0  0
 12 16  2  0  0  0  0
 12  5  1  0  0  0  0
 13  3  2  0  0  0  0
 14 13  1  0  0  0  0
 15  9  2  0  0  0  0
 16  4  1  0  0  0  0
 17 11  2  0  0  0  0
 17 15  1  0  0  0  0
 18  6  2  0  0  0  0
 19 17  1  0  0  0  0
 20 19  1  6  0  0  0
 21 20  1  0  0  0  0
 21 23  1  1  0  0  0
 22 21  1  0  0  0  0
 22 20  1  0  0  0  0
 23 25  1  0  0  0  0
 24 23  2  0  0  0  0
M  END
>  <MODEL>
8

>  <REMARK>
 VINA RESULT:      -7.1      3.808      6.798
  Name = 
  3 active torsions:
  status: ('A' for Active; 'I' for Inactive)
    1  A    between atoms: C_2  and  C_21
    2  A    between atoms: C_6  and  C_15
    3  A    between atoms: C_6  and  C_23
                            x       y       z     vdW  Elec       q    Type
                         _______ _______ _______ _____ _____    ______ ____

>  <TORSDO>
F 3

$$$$
=
 OpenBabel11052417243D

 25 29  0  0  1  0  0  0  0  0999 V2000
  189.2870  177.0750  145.3420 C   0  0  0  0  0  0  0  0  0  0  0  0
  188.4680  177.5020  144.1650 C   0  0  0  0  0  0  0  0  0  0  0  0
  187.5520  177.5400  146.9760 C   0  0  0  0  0  3  0  0  0  0  0  0
  190.5780  176.8260  145.4760 C   0  0  0  0  0  0  0  0  0  0  0  0
  193.1840  176.3420  146.2880 C   0  0  0  0  0  3  0  0  0  0  0  0
  186.6070  177.7480  145.8500 C   0  0  0  0  0  3  0  0  0  0  0  0
  190.8800  176.7440  146.8320 C   0  0  0  0  0  0  0  0  0  0  0  0
  192.1830  176.4970  147.2610 C   0  0  0  0  0  3  0  0  0  0  0  0
  186.0200  177.7490  143.4600 C   0  0  0  0  0  0  0  0  0  0  0  0
  184.4370  178.4760  143.6830 Cl  0  0  0  0  0  0  0  0  0  0  0  0
  188.6020  176.5920  142.9750 C   0  0  0  0  0  2  0  0  0  0  0  0
  192.8750  176.4450  144.9150 C   0  0  0  0  0  3  0  0  0  0  0  0
  188.8050  177.1930  146.6940 C   0  0  0  0  0  0  0  0  0  0  0  0
  189.8660  176.9590  147.6160 N   0  0  0  0  0  0  0  0  0  0  0  0
  186.3190  177.1800  142.2870 C   0  0  0  0  0  3  0  0  0  0  0  0
  191.5590  176.6950  144.4950 C   0  0  0  0  0  3  0  0  0  0  0  0
  187.6170  176.4980  142.0710 C   0  0  0  0  0  0  0  0  0  0  0  0
  187.0040  177.6860  144.5590 C   0  0  0  0  0  0  0  0  0  0  0  0
  187.8170  175.6670  140.8530 C   0  0  0  0  0  2  0  0  0  0  0  0
  188.7920  174.5410  141.1420 C   0  0  2  0  0  3  0  0  0  0  0  0
  188.5660  173.4250  140.1390 C   0  0  2  0  0  3  0  0  0  0  0  0
  188.0240  173.3030  141.5510 C   0  0  0  0  0  2  0  0  0  0  0  0
  189.8130  172.6150  139.9980 C   0  0  0  0  0  0  0  0  0  0  0  0
  191.0100  173.0780  140.5300 O   0  0  0  0  0  1  0  0  0  0  0  0
  189.7930  171.5310  139.3590 O   0  0  0  0  0  0  0  0  0  0  0  0
  1  4  1  0  0  0  0
  1 13  1  0  0  0  0
  2 18  1  0  0  0  0
  2  1  2  0  0  0  0
  4  7  1  0  0  0  0
  5  8  1  0  0  0  0
  6  3  2  0  0  0  0
  7  8  2  0  0  0  0
  7 14  1  0  0  0  0
  9 10  1  0  0  0  0
  9 18  2  0  0  0  0
 11  2  1  0  0  0  0
 12  5  2  0  0  0  0
 13  3  1  0  0  0  0
 13 14  2  0  0  0  0
 15  9  1  0  0  0  0
 16 12  1  0  0  0  0
 16  4  2  0  0  0  0
 17 15  2  0  0  0  0
 17 11  1  0  0  0  0
 18  6  1  0  0  0  0
 19 17  1  0  0  0  0
 20 19  1  6  0  0  0
 20 22  1  0  0  0  0
 21 23  1  1  0  0  0
 21 20  1  0  0  0  0
 21 22  1  0  0  0  0
 23 24  1  0  0  0  0
 25 23  2  0  0  0  0
M  END
>  <MODEL>
9

>  <REMARK>
 VINA RESULT:      -7.1      2.962      6.011
  Name = 
  3 active torsions:
  status: ('A' for Active; 'I' for Inactive)
    1  A    between atoms: C_2  and  C_21
    2  A    between atoms: C_6  and  C_15
    3  A    between atoms: C_6  and  C_23
                            x       y       z     vdW  Elec       q    Type
                         _______ _______ _______ _____ _____    ______ ____

>  <TORSDO>
F 3

$$$$
