=
 OpenBabel11052417313D

 25 28  0  0  0  0  0  0  0  0999 V2000
  185.7150  178.0620  143.7560 C   0  0  0  0  0  0  0  0  0  0  0  0
  186.6120  177.8830  144.8120 C   0  0  0  0  0  0  0  0  0  0  0  0
  183.9410  178.7850  145.2380 C   0  0  0  0  0  3  0  0  0  0  0  0
  185.7990  177.8940  142.3930 C   0  0  0  0  0  0  0  0  0  0  0  0
  185.3850  177.7480  139.6720 C   0  0  0  0  0  3  0  0  0  0  0  0
  184.8190  178.6160  146.3250 C   0  0  0  0  0  3  0  0  0  0  0  0
  184.6060  178.2230  141.8570 N   0  0  0  0  0  0  0  0  0  0  0  0
  184.3540  178.1670  140.5260 C   0  0  0  0  0  3  0  0  0  0  0  0
  187.0190  178.0000  147.2140 C   0  0  0  0  0  0  0  0  0  0  0  0
  186.5970  178.2680  148.5110 O   0  0  0  0  0  1  0  0  0  0  0  0
  187.9220  177.4410  144.6110 C   0  0  0  0  0  3  0  0  0  0  0  0
  186.6370  177.4000  140.2140 C   0  0  0  0  0  3  0  0  0  0  0  0
  184.4230  178.4990  143.9640 C   0  0  0  0  0  0  0  0  0  0  0  0
  183.7480  178.5960  142.7980 N   0  0  0  0  0  0  0  0  0  0  0  0
  188.3280  177.5570  146.9970 C   0  0  0  0  0  3  0  0  0  0  0  0
  186.8620  177.4710  141.5970 C   0  0  0  0  0  3  0  0  0  0  0  0
  188.7800  177.2820  145.7020 C   0  0  0  0  0  0  0  0  0  0  0  0
  186.1480  178.1680  146.1260 C   0  0  0  0  0  0  0  0  0  0  0  0
  190.4530  176.7110  145.4450 S   0  0  0  0  0  0  0  0  0  0  0  0
  190.6540  176.2580  147.1950 C   0  0  0  0  0  2  0  0  0  0  0  0
  191.8890  175.3930  147.3790 C   0  0  0  0  0  2  0  0  0  0  0  0
  192.9330  175.6900  146.3120 C   0  0  0  0  0  2  0  0  0  0  0  0
  193.9010  176.6580  146.8060 N   0  0  0  0  0  2  0  0  0  0  0  0
  194.5810  177.2110  145.6480 C   0  0  0  0  0  2  0  0  0  0  0  0
  194.1040  176.5970  144.4920 O   0  0  0  0  0  1  0  0  0  0  0  0
  1 13  1  0  0  0  0
  1  2  1  0  0  0  0
  2 18  1  0  0  0  0
  3  6  2  0  0  0  0
  4  1  2  0  0  0  0
  5 12  1  0  0  0  0
  5  8  2  0  0  0  0
  7  4  1  0  0  0  0
  7 14  1  0  0  0  0
  8  7  1  0  0  0  0
  9 10  1  0  0  0  0
 11  2  2  0  0  0  0
 11 17  1  0  0  0  0
 12 16  2  0  0  0  0
 13  3  1  0  0  0  0
 14 13  2  0  0  0  0
 15  9  1  0  0  0  0
 16  4  1  0  0  0  0
 17 15  2  0  0  0  0
 18  6  1  0  0  0  0
 18  9  2  0  0  0  0
 19 17  1  0  0  0  0
 19 20  1  0  0  0  0
 20 21  1  0  0  0  0
 22 23  1  0  0  0  0
 22 21  1  0  0  0  0
 24 23  1  0  0  0  0
 25 24  1  0  0  0  0
M  END
>  <MODEL>
1

>  <REMARK>
 VINA RESULT:      -7.1      0.000      0.000
  Name = 
  6 active torsions:
  status: ('A' for Active; 'I' for Inactive)
    1  A    between atoms: C_2  and  N_12
    2  A    between atoms: S_6  and  C_15
    3  A    between atoms: S_6  and  C_23
    4  A    between atoms: N_12  and  C_25
    5  A    between atoms: C_15  and  C_21
    6  A    between atoms: C_21  and  C_25
                            x       y       z     vdW  Elec       q    Type
                         _______ _______ _______ _____ _____    ______ ____

>  <TORSDO>
F 6

$$$$
=
 OpenBabel11052417313D

 25 28  0  0  0  0  0  0  0  0999 V2000
  185.9050  177.5490  143.6300 C   0  0  0  0  0  0  0  0  0  0  0  0
  186.4920  177.1540  144.8330 C   0  0  0  0  0  0  0  0  0  0  0  0
  184.1110  178.7190  144.7600 C   0  0  0  0  0  3  0  0  0  0  0  0
  186.2190  177.3540  142.3040 C   0  0  0  0  0  0  0  0  0  0  0  0
  186.3430  177.2960  139.5510 C   0  0  0  0  0  3  0  0  0  0  0  0
  184.6770  178.3370  145.9910 C   0  0  0  0  0  3  0  0  0  0  0  0
  185.2830  177.9750  141.5570 N   0  0  0  0  0  0  0  0  0  0  0  0
  185.3010  177.9760  140.2010 C   0  0  0  0  0  3  0  0  0  0  0  0
  186.4190  177.1820  147.2710 C   0  0  0  0  0  0  0  0  0  0  0  0
  185.8240  177.5610  148.4700 O   0  0  0  0  0  1  0  0  0  0  0  0
  187.6600  176.3860  144.8770 C   0  0  0  0  0  3  0  0  0  0  0  0
  187.3280  176.6420  140.3150 C   0  0  0  0  0  3  0  0  0  0  0  0
  184.7520  178.3070  143.5960 C   0  0  0  0  0  0  0  0  0  0  0  0
  184.3760  178.5650  142.3240 N   0  0  0  0  0  0  0  0  0  0  0  0
  187.5870  176.4140  147.2990 C   0  0  0  0  0  3  0  0  0  0  0  0
  187.2770  176.6630  141.7170 C   0  0  0  0  0  3  0  0  0  0  0  0
  188.2080  176.0200  146.1090 C   0  0  0  0  0  0  0  0  0  0  0  0
  185.8590  177.5600  146.0410 C   0  0  0  0  0  0  0  0  0  0  0  0
  189.6960  175.0330  146.1630 S   0  0  0  0  0  0  0  0  0  0  0  0
  190.5940  176.2930  147.1200 C   0  0  0  0  0  2  0  0  0  0  0  0
  192.0750  176.2580  146.7840 C   0  0  0  0  0  2  0  0  0  0  0  0
  192.2960  175.9570  145.3080 C   0  0  0  0  0  2  0  0  0  0  0  0
  192.5920  177.1810  144.5800 N   0  0  0  0  0  2  0  0  0  0  0  0
  191.5000  177.3980  143.6470 C   0  0  0  0  0  2  0  0  0  0  0  0
  190.5960  178.3070  144.1940 O   0  0  0  0  0  1  0  0  0  0  0  0
  1  2  1  0  0  0  0
  2 11  2  0  0  0  0
  2 18  1  0  0  0  0
  3  6  2  0  0  0  0
  4  1  2  0  0  0  0
  5  8  2  0  0  0  0
  5 12  1  0  0  0  0
  6 18  1  0  0  0  0
  7  4  1  0  0  0  0
  7 14  1  0  0  0  0
  8  7  1  0  0  0  0
  9 15  1  0  0  0  0
  9 10  1  0  0  0  0
 11 17  1  0  0  0  0
 12 16  2  0  0  0  0
 13  1  1  0  0  0  0
 13  3  1  0  0  0  0
 14 13  2  0  0  0  0
 16  4  1  0  0  0  0
 17 19  1  0  0  0  0
 17 15  2  0  0  0  0
 18  9  2  0  0  0  0
 19 20  1  0  0  0  0
 21 20  1  0  0  0  0
 22 21  1  0  0  0  0
 23 22  1  0  0  0  0
 24 25  1  0  0  0  0
 24 23  1  0  0  0  0
M  END
>  <MODEL>
2

>  <REMARK>
 VINA RESULT:      -7.0      1.472      1.518
  Name = 
  6 active torsions:
  status: ('A' for Active; 'I' for Inactive)
    1  A    between atoms: C_2  and  N_12
    2  A    between atoms: S_6  and  C_15
    3  A    between atoms: S_6  and  C_23
    4  A    between atoms: N_12  and  C_25
    5  A    between atoms: C_15  and  C_21
    6  A    between atoms: C_21  and  C_25
                            x       y       z     vdW  Elec       q    Type
                         _______ _______ _______ _____ _____    ______ ____

>  <TORSDO>
F 6

$$$$
=
 OpenBabel11052417313D

 25 28  0  0  0  0  0  0  0  0999 V2000
  185.7790  178.0290  143.7340 C   0  0  0  0  0  0  0  0  0  0  0  0
  186.5840  177.8690  144.8630 C   0  0  0  0  0  0  0  0  0  0  0  0
  183.8860  178.7700  145.0500 C   0  0  0  0  0  3  0  0  0  0  0  0
  185.9780  177.8410  142.3850 C   0  0  0  0  0  0  0  0  0  0  0  0
  185.7930  177.6530  139.6420 C   0  0  0  0  0  3  0  0  0  0  0  0
  184.6700  178.6190  146.2090 C   0  0  0  0  0  3  0  0  0  0  0  0
  184.8330  178.1580  141.7460 N   0  0  0  0  0  0  0  0  0  0  0  0
  184.6940  178.0820  140.3990 C   0  0  0  0  0  3  0  0  0  0  0  0
  186.7880  178.0230  147.2890 C   0  0  0  0  0  0  0  0  0  0  0  0
  186.2580  178.3090  148.5420 O   0  0  0  0  0  1  0  0  0  0  0  0
  187.9080  177.4270  144.7800 C   0  0  0  0  0  3  0  0  0  0  0  0
  186.9960  177.3170  140.2920 C   0  0  0  0  0  3  0  0  0  0  0  0
  184.4730  178.4660  143.8260 C   0  0  0  0  0  0  0  0  0  0  0  0
  183.8990  178.5440  142.6050 N   0  0  0  0  0  0  0  0  0  0  0  0
  188.1110  177.5800  147.1900 C   0  0  0  0  0  3  0  0  0  0  0  0
  187.1040  177.4090  141.6880 C   0  0  0  0  0  3  0  0  0  0  0  0
  188.6710  177.2860  145.9420 C   0  0  0  0  0  0  0  0  0  0  0  0
  186.0110  178.1720  146.1300 C   0  0  0  0  0  0  0  0  0  0  0  0
  190.3600  176.7160  145.8350 S   0  0  0  0  0  0  0  0  0  0  0  0
  189.9830  175.1770  146.7290 C   0  0  0  0  0  2  0  0  0  0  0  0
  189.8190  174.0240  145.7540 C   0  0  0  0  0  2  0  0  0  0  0  0
  190.2780  174.4170  144.3570 C   0  0  0  0  0  2  0  0  0  0  0  0
  189.2180  174.1800  143.3890 N   0  0  0  0  0  2  0  0  0  0  0  0
  189.6310  174.7970  142.1410 C   0  0  0  0  0  2  0  0  0  0  0  0
  190.3740  175.9450  142.4150 O   0  0  0  0  0  1  0  0  0  0  0  0
  1 13  1  0  0  0  0
  1  2  1  0  0  0  0
  2 18  1  0  0  0  0
  3  6  2  0  0  0  0
  4  1  2  0  0  0  0
  5 12  1  0  0  0  0
  5  8  2  0  0  0  0
  7  4  1  0  0  0  0
  7 14  1  0  0  0  0
  8  7  1  0  0  0  0
  9 10  1  0  0  0  0
 11  2  2  0  0  0  0
 11 17  1  0  0  0  0
 12 16  2  0  0  0  0
 13  3  1  0  0  0  0
 14 13  2  0  0  0  0
 15  9  1  0  0  0  0
 16  4  1  0  0  0  0
 17 15  2  0  0  0  0
 18  6  1  0  0  0  0
 18  9  2  0  0  0  0
 19 17  1  0  0  0  0
 19 20  1  0  0  0  0
 21 20  1  0  0  0  0
 22 21  1  0  0  0  0
 23 22  1  0  0  0  0
 24 25  1  0  0  0  0
 24 23  1  0  0  0  0
M  END
>  <MODEL>
3

>  <REMARK>
 VINA RESULT:      -7.0      2.013      2.240
  Name = 
  6 active torsions:
  status: ('A' for Active; 'I' for Inactive)
    1  A    between atoms: C_2  and  N_12
    2  A    between atoms: S_6  and  C_15
    3  A    between atoms: S_6  and  C_23
    4  A    between atoms: N_12  and  C_25
    5  A    between atoms: C_15  and  C_21
    6  A    between atoms: C_21  and  C_25
                            x       y       z     vdW  Elec       q    Type
                         _______ _______ _______ _____ _____    ______ ____

>  <TORSDO>
F 6

$$$$
=
 OpenBabel11052417313D

 25 28  0  0  0  0  0  0  0  0999 V2000
  185.7870  177.4920  143.8430 C   0  0  0  0  0  0  0  0  0  0  0  0
  186.5820  176.8970  142.8610 C   0  0  0  0  0  0  0  0  0  0  0  0
  184.3720  178.5740  142.2030 C   0  0  0  0  0  3  0  0  0  0  0  0
  185.7980  177.4760  145.2190 C   0  0  0  0  0  0  0  0  0  0  0  0
  185.3330  177.8100  147.9150 C   0  0  0  0  0  3  0  0  0  0  0  0
  185.1520  177.9900  141.1870 C   0  0  0  0  0  3  0  0  0  0  0  0
  184.7780  178.2440  145.6550 N   0  0  0  0  0  0  0  0  0  0  0  0
  184.5090  178.4380  146.9690 C   0  0  0  0  0  3  0  0  0  0  0  0
  187.0270  176.5760  140.4840 C   0  0  0  0  0  0  0  0  0  0  0  0
  186.7320  176.8090  139.1450 O   0  0  0  0  0  1  0  0  0  0  0  0
  187.6670  176.0750  143.1760 C   0  0  0  0  0  3  0  0  0  0  0  0
  186.4020  177.0040  147.4790 C   0  0  0  0  0  3  0  0  0  0  0  0
  184.7180  178.3030  143.5230 C   0  0  0  0  0  0  0  0  0  0  0  0
  184.1030  178.7610  144.6360 N   0  0  0  0  0  0  0  0  0  0  0  0
  188.1090  175.7550  140.8140 C   0  0  0  0  0  3  0  0  0  0  0  0
  186.6500  176.8250  146.1100 C   0  0  0  0  0  3  0  0  0  0  0  0
  188.4270  175.5010  142.1530 C   0  0  0  0  0  0  0  0  0  0  0  0
  186.2520  177.1550  141.5010 C   0  0  0  0  0  0  0  0  0  0  0  0
  189.8180  174.4550  142.5560 S   0  0  0  0  0  0  0  0  0  0  0  0
  190.8290  175.8680  143.0950 C   0  0  0  0  0  2  0  0  0  0  0  0
  191.2330  175.7050  144.5510 C   0  0  0  0  0  2  0  0  0  0  0  0
  190.5050  176.7040  145.4390 C   0  0  0  0  0  2  0  0  0  0  0  0
  190.2970  176.1450  146.7660 N   0  0  0  0  0  2  0  0  0  0  0  0
  189.8100  174.7880  146.5870 C   0  0  0  0  0  2  0  0  0  0  0  0
  188.9080  174.4810  147.6040 O   0  0  0  0  0  1  0  0  0  0  0  0
  1  4  2  0  0  0  0
  2 11  1  0  0  0  0
  2  1  1  0  0  0  0
  3 13  1  0  0  0  0
  4  7  1  0  0  0  0
  4 16  1  0  0  0  0
  6 18  1  0  0  0  0
  6  3  2  0  0  0  0
  7  8  1  0  0  0  0
  8  5  2  0  0  0  0
  9 15  2  0  0  0  0
  9 18  1  0  0  0  0
 10  9  1  0  0  0  0
 12  5  1  0  0  0  0
 13  1  1  0  0  0  0
 13 14  2  0  0  0  0
 14  7  1  0  0  0  0
 15 17  1  0  0  0  0
 16 12  2  0  0  0  0
 17 19  1  0  0  0  0
 17 11  2  0  0  0  0
 18  2  2  0  0  0  0
 19 20  1  0  0  0  0
 20 21  1  0  0  0  0
 21 22  1  0  0  0  0
 22 23  1  0  0  0  0
 24 23  1  0  0  0  0
 24 25  1  0  0  0  0
M  END
>  <MODEL>
4

>  <REMARK>
 VINA RESULT:      -6.8      2.833      4.913
  Name = 
  6 active torsions:
  status: ('A' for Active; 'I' for Inactive)
    1  A    between atoms: C_2  and  N_12
    2  A    between atoms: S_6  and  C_15
    3  A    between atoms: S_6  and  C_23
    4  A    between atoms: N_12  and  C_25
    5  A    between atoms: C_15  and  C_21
    6  A    between atoms: C_21  and  C_25
                            x       y       z     vdW  Elec       q    Type
                         _______ _______ _______ _____ _____    ______ ____

>  <TORSDO>
F 6

$$$$
=
 OpenBabel11052417313D

 25 28  0  0  0  0  0  0  0  0999 V2000
  186.9960  177.6710  144.1680 C   0  0  0  0  0  0  0  0  0  0  0  0
  188.3110  177.3890  144.5420 C   0  0  0  0  0  0  0  0  0  0  0  0
  186.2530  177.8200  146.4680 C   0  0  0  0  0  3  0  0  0  0  0  0
  186.3570  177.8130  142.9570 C   0  0  0  0  0  0  0  0  0  0  0  0
  184.5860  178.2010  140.8810 C   0  0  0  0  0  3  0  0  0  0  0  0
  187.5690  177.5370  146.8800 C   0  0  0  0  0  3  0  0  0  0  0  0
  185.0590  178.0890  143.1980 N   0  0  0  0  0  0  0  0  0  0  0  0
  184.1510  178.2890  142.2110 C   0  0  0  0  0  3  0  0  0  0  0  0
  189.9100  177.0390  146.3510 C   0  0  0  0  0  0  0  0  0  0  0  0
  190.2250  176.9640  147.7030 O   0  0  0  0  0  1  0  0  0  0  0  0
  189.3250  177.1750  143.6040 C   0  0  0  0  0  3  0  0  0  0  0  0
  185.9380  177.9130  140.6090 C   0  0  0  0  0  3  0  0  0  0  0  0
  186.0010  177.8800  145.1010 C   0  0  0  0  0  0  0  0  0  0  0  0
  184.8170  178.1360  144.5020 N   0  0  0  0  0  0  0  0  0  0  0  0
  190.9140  176.8280  145.4010 C   0  0  0  0  0  3  0  0  0  0  0  0
  186.8500  177.7130  141.6570 C   0  0  0  0  0  3  0  0  0  0  0  0
  190.6260  176.8990  144.0340 C   0  0  0  0  0  0  0  0  0  0  0  0
  188.5990  177.3210  145.9340 C   0  0  0  0  0  0  0  0  0  0  0  0
  191.9190  176.6210  142.8340 S   0  0  0  0  0  0  0  0  0  0  0  0
  192.2100  174.9240  143.4200 C   0  0  0  0  0  2  0  0  0  0  0  0
  193.6620  174.7460  143.8290 C   0  0  0  0  0  2  0  0  0  0  0  0
  194.4410  176.0430  143.6660 C   0  0  0  0  0  2  0  0  0  0  0  0
  195.2690  176.2880  144.8370 N   0  0  0  0  0  2  0  0  0  0  0  0
  194.5690  177.2560  145.6620 C   0  0  0  0  0  2  0  0  0  0  0  0
  194.1340  176.6390  146.8340 O   0  0  0  0  0  1  0  0  0  0  0  0
  1  2  1  0  0  0  0
  1 13  1  0  0  0  0
  2 18  1  0  0  0  0
  3  6  2  0  0  0  0
  4  7  1  0  0  0  0
  4  1  2  0  0  0  0
  5  8  2  0  0  0  0
  7 14  1  0  0  0  0
  8  7  1  0  0  0  0
  9 10  1  0  0  0  0
 11 17  1  0  0  0  0
 11  2  2  0  0  0  0
 12  5  1  0  0  0  0
 12 16  2  0  0  0  0
 13  3  1  0  0  0  0
 14 13  2  0  0  0  0
 15  9  1  0  0  0  0
 16  4  1  0  0  0  0
 17 15  2  0  0  0  0
 18  9  2  0  0  0  0
 18  6  1  0  0  0  0
 19 20  1  0  0  0  0
 19 17  1  0  0  0  0
 20 21  1  0  0  0  0
 22 21  1  0  0  0  0
 22 23  1  0  0  0  0
 23 24  1  0  0  0  0
 24 25  1  0  0  0  0
M  END
>  <MODEL>
5

>  <REMARK>
 VINA RESULT:      -6.7      1.856      2.491
  Name = 
  6 active torsions:
  status: ('A' for Active; 'I' for Inactive)
    1  A    between atoms: C_2  and  N_12
    2  A    between atoms: S_6  and  C_15
    3  A    between atoms: S_6  and  C_23
    4  A    between atoms: N_12  and  C_25
    5  A    between atoms: C_15  and  C_21
    6  A    between atoms: C_21  and  C_25
                            x       y       z     vdW  Elec       q    Type
                         _______ _______ _______ _____ _____    ______ ____

>  <TORSDO>
F 6

$$$$
=
 OpenBabel11052417313D

 25 28  0  0  0  0  0  0  0  0999 V2000
  187.0680  176.7980  144.5490 C   0  0  0  0  0  0  0  0  0  0  0  0
  188.3230  176.1890  144.4870 C   0  0  0  0  0  0  0  0  0  0  0  0
  186.6450  176.4230  142.1940 C   0  0  0  0  0  3  0  0  0  0  0  0
  186.3420  177.3880  145.5580 C   0  0  0  0  0  0  0  0  0  0  0  0
  184.4720  178.6570  147.1360 C   0  0  0  0  0  3  0  0  0  0  0  0
  187.9050  175.8030  142.0960 C   0  0  0  0  0  3  0  0  0  0  0  0
  185.1720  177.8140  145.0370 N   0  0  0  0  0  0  0  0  0  0  0  0
  184.2220  178.4420  145.7720 C   0  0  0  0  0  3  0  0  0  0  0  0
  190.0030  175.0620  143.1240 C   0  0  0  0  0  0  0  0  0  0  0  0
  190.4490  174.5550  141.9090 O   0  0  0  0  0  1  0  0  0  0  0  0
  189.1510  176.0710  145.6070 C   0  0  0  0  0  3  0  0  0  0  0  0
  185.6870  178.2200  147.6970 C   0  0  0  0  0  3  0  0  0  0  0  0
  186.2570  176.9100  143.4380 C   0  0  0  0  0  0  0  0  0  0  0  0
  185.0970  177.5330  143.7430 N   0  0  0  0  0  0  0  0  0  0  0  0
  190.8210  174.9510  144.2540 C   0  0  0  0  0  3  0  0  0  0  0  0
  186.6480  177.5730  146.9050 C   0  0  0  0  0  3  0  0  0  0  0  0
  190.3970  175.4490  145.4900 C   0  0  0  0  0  0  0  0  0  0  0  0
  188.7480  175.6810  143.2280 C   0  0  0  0  0  0  0  0  0  0  0  0
  191.4570  175.3050  146.9210 S   0  0  0  0  0  0  0  0  0  0  0  0
  192.9660  175.5080  145.9240 C   0  0  0  0  0  2  0  0  0  0  0  0
  193.8640  176.5700  146.5350 C   0  0  0  0  0  2  0  0  0  0  0  0
  194.8990  177.0580  145.5320 C   0  0  0  0  0  2  0  0  0  0  0  0
  194.7870  176.3150  144.2860 N   0  0  0  0  0  2  0  0  0  0  0  0
  196.1320  175.9410  143.8880 C   0  0  0  0  0  2  0  0  0  0  0  0
  196.8050  177.0650  143.4110 O   0  0  0  0  0  1  0  0  0  0  0  0
  1  4  2  0  0  0  0
  2  1  1  0  0  0  0
  2 11  1  0  0  0  0
  3 13  1  0  0  0  0
  4 16  1  0  0  0  0
  5 12  1  0  0  0  0
  6  3  2  0  0  0  0
  6 18  1  0  0  0  0
  7  4  1  0  0  0  0
  7  8  1  0  0  0  0
  8  5  2  0  0  0  0
  9 18  1  0  0  0  0
  9 15  2  0  0  0  0
 10  9  1  0  0  0  0
 13 14  2  0  0  0  0
 13  1  1  0  0  0  0
 14  7  1  0  0  0  0
 15 17  1  0  0  0  0
 16 12  2  0  0  0  0
 17 11  2  0  0  0  0
 17 19  1  0  0  0  0
 18  2  2  0  0  0  0
 20 21  1  0  0  0  0
 20 19  1  0  0  0  0
 22 21  1  0  0  0  0
 23 22  1  0  0  0  0
 24 23  1  0  0  0  0
 25 24  1  0  0  0  0
M  END
>  <MODEL>
6

>  <REMARK>
 VINA RESULT:      -6.7      2.467      4.365
  Name = 
  6 active torsions:
  status: ('A' for Active; 'I' for Inactive)
    1  A    between atoms: C_2  and  N_12
    2  A    between atoms: S_6  and  C_15
    3  A    between atoms: S_6  and  C_23
    4  A    between atoms: N_12  and  C_25
    5  A    between atoms: C_15  and  C_21
    6  A    between atoms: C_21  and  C_25
                            x       y       z     vdW  Elec       q    Type
                         _______ _______ _______ _____ _____    ______ ____

>  <TORSDO>
F 6

$$$$
=
 OpenBabel11052417313D

 25 28  0  0  0  0  0  0  0  0999 V2000
  187.4710  176.6520  145.0020 C   0  0  0  0  0  0  0  0  0  0  0  0
  187.6840  176.4000  143.6450 C   0  0  0  0  0  0  0  0  0  0  0  0
  189.2090  175.1070  145.6770 C   0  0  0  0  0  3  0  0  0  0  0  0
  186.6070  177.4660  145.6980 C   0  0  0  0  0  0  0  0  0  0  0  0
  185.1580  178.8620  147.5820 C   0  0  0  0  0  3  0  0  0  0  0  0
  189.4500  174.8300  144.3190 C   0  0  0  0  0  3  0  0  0  0  0  0
  186.8490  177.3050  147.0150 N   0  0  0  0  0  0  0  0  0  0  0  0
  186.1640  177.9690  147.9790 C   0  0  0  0  0  3  0  0  0  0  0  0
  188.9440  175.1830  141.9470 C   0  0  0  0  0  0  0  0  0  0  0  0
  189.9270  174.2740  141.5750 O   0  0  0  0  0  1  0  0  0  0  0  0
  186.9400  177.0290  142.6430 C   0  0  0  0  0  3  0  0  0  0  0  0
  184.8910  179.0430  146.2110 C   0  0  0  0  0  3  0  0  0  0  0  0
  188.2110  176.0260  145.9850 C   0  0  0  0  0  0  0  0  0  0  0  0
  187.8260  176.4290  147.2150 N   0  0  0  0  0  0  0  0  0  0  0  0
  188.1910  175.8210  140.9550 C   0  0  0  0  0  3  0  0  0  0  0  0
  185.6210  178.3390  145.2420 C   0  0  0  0  0  3  0  0  0  0  0  0
  187.1960  176.7430  141.3000 C   0  0  0  0  0  0  0  0  0  0  0  0
  188.6990  175.4650  143.3000 C   0  0  0  0  0  0  0  0  0  0  0  0
  186.2400  177.5430  140.0210 S   0  0  0  0  0  0  0  0  0  0  0  0
  185.0330  178.1930  141.2160 C   0  0  0  0  0  2  0  0  0  0  0  0
  183.7050  178.4670  140.5310 C   0  0  0  0  0  2  0  0  0  0  0  0
  182.5420  178.2910  141.4970 C   0  0  0  0  0  2  0  0  0  0  0  0
  181.3050  178.7620  140.8930 N   0  0  0  0  0  2  0  0  0  0  0  0
  180.2870  178.7370  141.9280 C   0  0  0  0  0  2  0  0  0  0  0  0
  179.4370  177.6520  141.7160 O   0  0  0  0  0  1  0  0  0  0  0  0
  1  4  2  0  0  0  0
  1 13  1  0  0  0  0
  2  1  1  0  0  0  0
  3 13  1  0  0  0  0
  4  7  1  0  0  0  0
  5  8  2  0  0  0  0
  6  3  2  0  0  0  0
  7 14  1  0  0  0  0
  7  8  1  0  0  0  0
  9 18  2  0  0  0  0
 10  9  1  0  0  0  0
 11  2  2  0  0  0  0
 12  5  1  0  0  0  0
 13 14  2  0  0  0  0
 15 17  2  0  0  0  0
 15  9  1  0  0  0  0
 16  4  1  0  0  0  0
 16 12  2  0  0  0  0
 17 11  1  0  0  0  0
 18  2  1  0  0  0  0
 18  6  1  0  0  0  0
 19 20  1  0  0  0  0
 19 17  1  0  0  0  0
 21 20  1  0  0  0  0
 21 22  1  0  0  0  0
 23 22  1  0  0  0  0
 23 24  1  0  0  0  0
 25 24  1  0  0  0  0
M  END
>  <MODEL>
7

>  <REMARK>
 VINA RESULT:      -6.7      3.599      8.020
  Name = 
  6 active torsions:
  status: ('A' for Active; 'I' for Inactive)
    1  A    between atoms: C_2  and  N_12
    2  A    between atoms: S_6  and  C_15
    3  A    between atoms: S_6  and  C_23
    4  A    between atoms: N_12  and  C_25
    5  A    between atoms: C_15  and  C_21
    6  A    between atoms: C_21  and  C_25
                            x       y       z     vdW  Elec       q    Type
                         _______ _______ _______ _____ _____    ______ ____

>  <TORSDO>
F 6

$$$$
=
 OpenBabel11052417313D

 25 28  0  0  0  0  0  0  0  0999 V2000
  189.6250  176.0600  144.1550 C   0  0  0  0  0  0  0  0  0  0  0  0
  188.6090  176.6890  143.4330 C   0  0  0  0  0  0  0  0  0  0  0  0
  190.1340  174.5450  142.3360 C   0  0  0  0  0  3  0  0  0  0  0  0
  190.1450  176.2300  145.4180 C   0  0  0  0  0  0  0  0  0  0  0  0
  191.5550  176.1090  147.7830 C   0  0  0  0  0  3  0  0  0  0  0  0
  189.1170  175.1560  141.5800 C   0  0  0  0  0  3  0  0  0  0  0  0
  191.1330  175.3270  145.5890 N   0  0  0  0  0  0  0  0  0  0  0  0
  191.8550  175.2300  146.7320 C   0  0  0  0  0  3  0  0  0  0  0  0
  187.3370  176.8280  141.3560 C   0  0  0  0  0  0  0  0  0  0  0  0
  187.0600  176.3950  140.0640 O   0  0  0  0  0  1  0  0  0  0  0  0
  187.8560  177.7400  143.9650 C   0  0  0  0  0  3  0  0  0  0  0  0
  190.5270  177.0580  147.6230 C   0  0  0  0  0  3  0  0  0  0  0  0
  190.3630  175.0220  143.6230 C   0  0  0  0  0  0  0  0  0  0  0  0
  191.2850  174.5780  144.5040 N   0  0  0  0  0  0  0  0  0  0  0  0
  186.5930  177.8790  141.9010 C   0  0  0  0  0  3  0  0  0  0  0  0
  189.8020  177.1300  146.4250 C   0  0  0  0  0  3  0  0  0  0  0  0
  186.8520  178.3360  143.1970 C   0  0  0  0  0  0  0  0  0  0  0  0
  188.3520  176.2220  142.1140 C   0  0  0  0  0  0  0  0  0  0  0  0
  185.8870  179.6760  143.8800 S   0  0  0  0  0  0  0  0  0  0  0  0
  184.4310  178.6120  144.1210 C   0  0  0  0  0  2  0  0  0  0  0  0
  183.8290  178.8430  145.4970 C   0  0  0  0  0  2  0  0  0  0  0  0
  184.4410  177.9070  146.5290 C   0  0  0  0  0  2  0  0  0  0  0  0
  185.1520  178.6680  147.5450 N   0  0  0  0  0  2  0  0  0  0  0  0
  186.5090  178.1520  147.5940 C   0  0  0  0  0  2  0  0  0  0  0  0
  186.5050  176.8020  147.2490 O   0  0  0  0  0  1  0  0  0  0  0  0
  1  4  2  0  0  0  0
  2 11  1  0  0  0  0
  2  1  1  0  0  0  0
  3 13  1  0  0  0  0
  4  7  1  0  0  0  0
  4 16  1  0  0  0  0
  6 18  1  0  0  0  0
  6  3  2  0  0  0  0
  7  8  1  0  0  0  0
  8  5  2  0  0  0  0
  9 15  2  0  0  0  0
  9 18  1  0  0  0  0
 10  9  1  0  0  0  0
 12  5  1  0  0  0  0
 13  1  1  0  0  0  0
 13 14  2  0  0  0  0
 14  7  1  0  0  0  0
 15 17  1  0  0  0  0
 16 12  2  0  0  0  0
 17 19  1  0  0  0  0
 17 11  2  0  0  0  0
 18  2  2  0  0  0  0
 19 20  1  0  0  0  0
 20 21  1  0  0  0  0
 21 22  1  0  0  0  0
 22 23  1  0  0  0  0
 23 24  1  0  0  0  0
 25 24  1  0  0  0  0
M  END
>  <MODEL>
8

>  <REMARK>
 VINA RESULT:      -6.7      2.967      7.243
  Name = 
  6 active torsions:
  status: ('A' for Active; 'I' for Inactive)
    1  A    between atoms: C_2  and  N_12
    2  A    between atoms: S_6  and  C_15
    3  A    between atoms: S_6  and  C_23
    4  A    between atoms: N_12  and  C_25
    5  A    between atoms: C_15  and  C_21
    6  A    between atoms: C_21  and  C_25
                            x       y       z     vdW  Elec       q    Type
                         _______ _______ _______ _____ _____    ______ ____

>  <TORSDO>
F 6

$$$$
=
 OpenBabel11052417313D

 25 28  0  0  0  0  0  0  0  0999 V2000
  186.6850  176.8560  144.0270 C   0  0  0  0  0  0  0  0  0  0  0  0
  187.7630  176.0480  143.6580 C   0  0  0  0  0  0  0  0  0  0  0  0
  185.9850  177.1660  141.7300 C   0  0  0  0  0  3  0  0  0  0  0  0
  186.2000  177.3070  145.2330 C   0  0  0  0  0  0  0  0  0  0  0  0
  184.8060  178.4850  147.2990 C   0  0  0  0  0  3  0  0  0  0  0  0
  187.0610  176.3560  141.3230 C   0  0  0  0  0  3  0  0  0  0  0  0
  185.1140  178.0690  144.9890 N   0  0  0  0  0  0  0  0  0  0  0  0
  184.3960  178.6680  145.9700 C   0  0  0  0  0  3  0  0  0  0  0  0
  189.0240  174.9880  141.8590 C   0  0  0  0  0  0  0  0  0  0  0  0
  189.2370  174.7220  140.5110 O   0  0  0  0  0  1  0  0  0  0  0  0
  188.6390  175.4970  144.5970 C   0  0  0  0  0  3  0  0  0  0  0  0
  185.9380  177.6940  147.5740 C   0  0  0  0  0  3  0  0  0  0  0  0
  185.8260  177.3960  143.0930 C   0  0  0  0  0  0  0  0  0  0  0  0
  184.8650  178.1380  143.6870 N   0  0  0  0  0  0  0  0  0  0  0  0
  189.8920  174.4430  142.8100 C   0  0  0  0  0  3  0  0  0  0  0  0
  186.6560  177.0880  146.5320 C   0  0  0  0  0  3  0  0  0  0  0  0
  189.7000  174.6920  144.1730 C   0  0  0  0  0  0  0  0  0  0  0  0
  187.9510  175.7950  142.2710 C   0  0  0  0  0  0  0  0  0  0  0  0
  190.8220  173.9930  145.3740 S   0  0  0  0  0  0  0  0  0  0  0  0
  190.0620  174.9170  146.7440 C   0  0  0  0  0  2  0  0  0  0  0  0
  191.1340  175.4990  147.6490 C   0  0  0  0  0  2  0  0  0  0  0  0
  191.9180  176.5940  146.9390 C   0  0  0  0  0  2  0  0  0  0  0  0
  193.3310  176.2530  146.8870 N   0  0  0  0  0  2  0  0  0  0  0  0
  193.8510  176.7770  145.6360 C   0  0  0  0  0  2  0  0  0  0  0  0
  192.7920  177.0810  144.7830 O   0  0  0  0  0  1  0  0  0  0  0  0
  1  4  2  0  0  0  0
  2  1  1  0  0  0  0
  2 11  1  0  0  0  0
  3 13  1  0  0  0  0
  4 16  1  0  0  0  0
  5 12  1  0  0  0  0
  6  3  2  0  0  0  0
  6 18  1  0  0  0  0
  7  4  1  0  0  0  0
  7  8  1  0  0  0  0
  8  5  2  0  0  0  0
  9 18  1  0  0  0  0
  9 15  2  0  0  0  0
 10  9  1  0  0  0  0
 13 14  2  0  0  0  0
 13  1  1  0  0  0  0
 14  7  1  0  0  0  0
 15 17  1  0  0  0  0
 16 12  2  0  0  0  0
 17 11  2  0  0  0  0
 17 19  1  0  0  0  0
 18  2  2  0  0  0  0
 19 20  1  0  0  0  0
 20 21  1  0  0  0  0
 22 21  1  0  0  0  0
 23 22  1  0  0  0  0
 24 23  1  0  0  0  0
 25 24  1  0  0  0  0
M  END
>  <MODEL>
9

>  <REMARK>
 VINA RESULT:      -6.6      2.242      4.312
  Name = 
  6 active torsions:
  status: ('A' for Active; 'I' for Inactive)
    1  A    between atoms: C_2  and  N_12
    2  A    between atoms: S_6  and  C_15
    3  A    between atoms: S_6  and  C_23
    4  A    between atoms: N_12  and  C_25
    5  A    between atoms: C_15  and  C_21
    6  A    between atoms: C_21  and  C_25
                            x       y       z     vdW  Elec       q    Type
                         _______ _______ _______ _____ _____    ______ ____

>  <TORSDO>
F 6

$$$$
