=
 OpenBabel11052417133D

 30 33  0  0  1  0  0  0  0  0999 V2000
  190.9240  174.6790  144.5730 C   0  0  1  0  0  3  0  0  0  0  0  0
  189.3770  174.5500  144.4670 C   0  0  0  0  0  2  0  0  0  0  0  0
  191.6590  174.6260  143.3530 O   0  0  0  0  0  0  0  0  0  0  0  0
  189.0900  174.0170  140.5400 S   0  0  0  0  0  0  0  0  0  0  0  0
  189.7820  174.8540  141.9590 C   0  0  2  0  0  3  0  0  0  0  0  0
  191.6810  173.6960  141.2350 O   0  0  0  0  0  0  0  0  0  0  0  0
  190.9110  173.9640  142.3700 C   0  0  1  0  0  3  0  0  0  0  0  0
  188.7860  175.0060  143.1130 C   0  0  2  0  0  3  0  0  0  0  0  0
  190.7140  171.8590  140.0220 C   0  0  0  0  0  1  0  0  0  0  0  0
  190.7690  173.3640  140.2090 C   0  0  1  0  0  3  0  0  0  0  0  0
  187.1470  176.5250  142.2010 O   0  0  0  0  0  0  0  0  0  0  0  0
  186.0600  176.8570  144.0660 C   0  0  1  0  0  3  0  0  0  0  0  0
  185.9890  176.2550  142.8050 O   0  0  0  0  0  0  0  0  0  0  0  0
  187.4700  176.6080  144.5110 C   0  0  1  0  0  3  0  0  0  0  0  0
  189.2140  177.4880  142.8740 C   0  0  0  0  0  1  0  0  0  0  0  0
  188.1630  176.4150  143.1730 C   0  0  1  0  0  0  0  0  0  0  0  0
  185.7870  178.2260  143.9440 O   0  0  0  0  0  0  0  0  0  0  0  0
  184.4240  178.2940  143.6590 C   0  0  0  0  0  1  0  0  0  0  0  0
  188.0490  177.6730  145.4560 C   0  0  0  0  0  2  0  0  0  0  0  0
  187.8010  177.3100  146.9120 C   0  0  0  0  0  2  0  0  0  0  0  0
  186.6930  178.1700  147.4940 C   0  0  0  0  0  1  0  0  0  0  0  0
  191.2480  175.8650  145.2560 O   0  0  0  0  0  0  0  0  0  0  0  0
  192.0860  175.5640  146.3550 C   0  0  2  0  0  3  0  0  0  0  0  0
  191.3170  175.3650  147.6560 C   0  0  0  0  0  1  0  0  0  0  0  0
  193.2540  176.5350  146.5240 C   0  0  0  0  0  2  0  0  0  0  0  0
  194.5700  175.8480  146.2060 C   0  0  1  0  0  3  0  0  0  0  0  0
  194.3130  174.5070  145.7010 C   0  0  0  0  0  2  0  0  0  0  0  0
  194.6450  175.5870  144.7610 N   0  0  0  0  0  0  0  0  0  0  0  0
  196.4740  176.5360  143.6850 O   0  0  0  0  0  1  0  0  0  0  0  0
  196.0540  175.4440  144.4430 C   0  0  0  0  0  2  0  0  0  0  0  0
  1 22  1  6  0  0  0
  2  1  1  0  0  0  0
  3  1  1  0  0  0  0
  5  4  1  6  0  0  0
  5  7  1  0  0  0  0
  5  8  1  0  0  0  0
  7  6  1  6  0  0  0
  7  3  1  0  0  0  0
  8 16  1  0  0  0  0
  8  2  1  1  0  0  0
 10  9  1  1  0  0  0
 10  4  1  0  0  0  0
 10  6  1  0  0  0  0
 11 13  1  0  0  0  0
 11 16  1  0  0  0  0
 12 17  1  6  0  0  0
 12 14  1  0  0  0  0
 13 12  1  0  0  0  0
 14 19  1  6  0  0  0
 16 15  1  6  0  0  0
 16 14  1  0  0  0  0
 18 17  1  0  0  0  0
 19 20  1  0  0  0  0
 20 21  1  0  0  0  0
 22 23  1  0  0  0  0
 23 25  1  0  0  0  0
 23 24  1  1  0  0  0
 26 25  1  6  0  0  0
 27 26  1  0  0  0  0
 28 27  1  0  0  0  0
 28 26  1  0  0  0  0
 29 30  1  0  0  0  0
 30 28  1  0  0  0  0
M  END
>  <MODEL>
1

>  <REMARK>
 VINA RESULT:      -6.2      0.000      0.000
  Name = 
  9 active torsions:
  status: ('A' for Active; 'I' for Inactive)
    1  A    between atoms: C_1  and  O_22
    2  A    between atoms: C_2  and  C_14
    3  A    between atoms: C_2  and  O_22
    4  A    between atoms: C_10  and  O_15
    5  A    between atoms: C_11  and  C_25
    6  A    between atoms: C_13  and  C_30
    7  A    between atoms: C_14  and  C_20
    8  A    between atoms: C_19  and  N_29
    9  A    between atoms: C_23  and  C_25
                            x       y       z     vdW  Elec       q    Type
                         _______ _______ _______ _____ _____    ______ ____

>  <TORSDO>
F 9

$$$$
=
 OpenBabel11052417133D

 30 33  0  0  1  0  0  0  0  0999 V2000
  189.4090  176.4900  146.6060 C   0  0  1  0  0  3  0  0  0  0  0  0
  189.4760  177.6060  145.5230 C   0  0  0  0  0  2  0  0  0  0  0  0
  188.1180  175.9700  146.9150 O   0  0  0  0  0  0  0  0  0  0  0  0
  185.5860  177.9640  144.7920 S   0  0  0  0  0  0  0  0  0  0  0  0
  187.0390  176.9640  145.0780 C   0  0  2  0  0  3  0  0  0  0  0  0
  185.8770  176.5260  147.0610 O   0  0  0  0  0  0  0  0  0  0  0  0
  187.1300  176.9040  146.5700 C   0  0  1  0  0  3  0  0  0  0  0  0
  188.3180  177.5780  144.4990 C   0  0  2  0  0  3  0  0  0  0  0  0
  184.4710  178.4660  147.2550 C   0  0  0  0  0  1  0  0  0  0  0  0
  184.9300  177.3180  146.3750 C   0  0  1  0  0  3  0  0  0  0  0  0
  189.4990  175.7900  143.3870 O   0  0  0  0  0  0  0  0  0  0  0  0
  187.7710  174.9890  142.3160 C   0  0  1  0  0  3  0  0  0  0  0  0
  188.6750  174.7420  143.3550 O   0  0  0  0  0  0  0  0  0  0  0  0
  187.4760  176.4550  142.4300 C   0  0  1  0  0  3  0  0  0  0  0  0
  189.5610  177.9160  142.3230 C   0  0  0  0  0  1  0  0  0  0  0  0
  188.7200  176.9430  143.1530 C   0  0  1  0  0  0  0  0  0  0  0  0
  188.3740  174.6750  141.0900 O   0  0  0  0  0  0  0  0  0  0  0  0
  188.3970  173.2810  141.0530 C   0  0  0  0  0  1  0  0  0  0  0  0
  187.1130  177.1480  141.1070 C   0  0  0  0  0  2  0  0  0  0  0  0
  186.0870  178.2490  141.3250 C   0  0  0  0  0  2  0  0  0  0  0  0
  184.9270  178.0950  140.3580 C   0  0  0  0  0  1  0  0  0  0  0  0
  190.2560  175.4300  146.2360 O   0  0  0  0  0  0  0  0  0  0  0  0
  191.3150  175.3240  147.1690 C   0  0  2  0  0  3  0  0  0  0  0  0
  191.3520  176.4780  148.1640 C   0  0  0  0  0  1  0  0  0  0  0  0
  192.6800  175.0800  146.5280 C   0  0  0  0  0  2  0  0  0  0  0  0
  192.9450  176.0980  145.4330 C   0  0  1  0  0  3  0  0  0  0  0  0
  194.3370  176.0140  145.0120 C   0  0  0  0  0  2  0  0  0  0  0  0
  193.2880  175.3950  144.1880 N   0  0  0  0  0  0  0  0  0  0  0  0
  192.6230  175.6060  141.9700 O   0  0  0  0  0  1  0  0  0  0  0  0
  193.0100  176.3190  143.1050 C   0  0  0  0  0  2  0  0  0  0  0  0
  1 22  1  6  0  0  0
  1  3  1  0  0  0  0
  2  1  1  0  0  0  0
  4 10  1  0  0  0  0
  5  4  1  1  0  0  0
  5  7  1  0  0  0  0
  7  3  1  6  0  0  0
  7  6  1  0  0  0  0
  8  5  1  0  0  0  0
  8  2  1  1  0  0  0
 10  6  1  0  0  0  0
 10  9  1  1  0  0  0
 12 17  1  6  0  0  0
 12 14  1  0  0  0  0
 12 13  1  0  0  0  0
 13 11  1  0  0  0  0
 14 19  1  6  0  0  0
 14 16  1  0  0  0  0
 16 15  1  6  0  0  0
 16 11  1  0  0  0  0
 16  8  1  0  0  0  0
 18 17  1  0  0  0  0
 19 20  1  0  0  0  0
 21 20  1  0  0  0  0
 22 23  1  0  0  0  0
 23 24  1  6  0  0  0
 25 23  1  0  0  0  0
 26 25  1  1  0  0  0
 27 26  1  0  0  0  0
 28 27  1  0  0  0  0
 28 26  1  0  0  0  0
 29 30  1  0  0  0  0
 30 28  1  0  0  0  0
M  END
>  <MODEL>
2

>  <REMARK>
 VINA RESULT:      -6.2      2.425      4.917
  Name = 
  9 active torsions:
  status: ('A' for Active; 'I' for Inactive)
    1  A    between atoms: C_1  and  O_22
    2  A    between atoms: C_2  and  C_14
    3  A    between atoms: C_2  and  O_22
    4  A    between atoms: C_10  and  O_15
    5  A    between atoms: C_11  and  C_25
    6  A    between atoms: C_13  and  C_30
    7  A    between atoms: C_14  and  C_20
    8  A    between atoms: C_19  and  N_29
    9  A    between atoms: C_23  and  C_25
                            x       y       z     vdW  Elec       q    Type
                         _______ _______ _______ _____ _____    ______ ____

>  <TORSDO>
F 9

$$$$
=
 OpenBabel11052417133D

 30 33  0  0  1  0  0  0  0  0999 V2000
  191.8770  174.8430  144.4390 C   0  0  1  0  0  3  0  0  0  0  0  0
  190.5350  174.6260  145.1970 C   0  0  0  0  0  2  0  0  0  0  0  0
  191.8010  174.9790  143.0220 O   0  0  0  0  0  0  0  0  0  0  0  0
  188.0910  174.5250  142.0650 S   0  0  0  0  0  0  0  0  0  0  0  0
  189.4660  175.2390  142.9540 C   0  0  2  0  0  3  0  0  0  0  0  0
  190.6230  174.2990  141.1510 O   0  0  0  0  0  0  0  0  0  0  0  0
  190.6240  174.3840  142.5460 C   0  0  1  0  0  3  0  0  0  0  0  0
  189.2910  175.1930  144.4750 C   0  0  2  0  0  3  0  0  0  0  0  0
  189.1260  172.5520  140.4530 C   0  0  0  0  0  1  0  0  0  0  0  0
  189.2900  174.0260  140.7730 C   0  0  1  0  0  3  0  0  0  0  0  0
  187.4410  176.7050  144.8160 O   0  0  0  0  0  0  0  0  0  0  0  0
  187.5520  176.7360  146.9980 C   0  0  1  0  0  3  0  0  0  0  0  0
  186.7960  176.2900  145.9080 O   0  0  0  0  0  0  0  0  0  0  0  0
  188.9730  176.5240  146.5680 C   0  0  1  0  0  3  0  0  0  0  0  0
  189.5540  177.7070  144.3860 C   0  0  0  0  0  1  0  0  0  0  0  0
  188.8210  176.5410  145.0560 C   0  0  1  0  0  0  0  0  0  0  0  0
  187.2770  178.0900  147.2320 O   0  0  0  0  0  0  0  0  0  0  0  0
  185.9920  178.1020  147.7740 C   0  0  0  0  0  1  0  0  0  0  0  0
  189.9890  177.4990  147.1840 C   0  0  0  0  0  2  0  0  0  0  0  0
  190.9160  176.7870  148.1570 C   0  0  0  0  0  2  0  0  0  0  0  0
  191.5240  177.7770  149.1340 C   0  0  0  0  0  1  0  0  0  0  0  0
  192.5380  175.9630  144.9740 O   0  0  0  0  0  0  0  0  0  0  0  0
  193.4330  175.5450  145.9880 C   0  0  2  0  0  3  0  0  0  0  0  0
  194.2530  176.6890  146.5700 C   0  0  0  0  0  1  0  0  0  0  0  0
  194.3100  174.3610  145.5850 C   0  0  0  0  0  2  0  0  0  0  0  0
  195.7710  174.7710  145.5340 C   0  0  1  0  0  3  0  0  0  0  0  0
  196.6030  173.6880  146.0390 C   0  0  0  0  0  2  0  0  0  0  0  0
  196.4880  173.9030  144.5890 N   0  0  0  0  0  0  0  0  0  0  0  0
  197.3160  175.6470  143.2950 O   0  0  0  0  0  1  0  0  0  0  0  0
  197.6750  174.6320  144.1810 C   0  0  0  0  0  2  0  0  0  0  0  0
  1 22  1  1  0  0  0
  1  2  1  0  0  0  0
  3  1  1  0  0  0  0
  5  4  1  6  0  0  0
  5  8  1  0  0  0  0
  7  6  1  6  0  0  0
  7  5  1  0  0  0  0
  7  3  1  0  0  0  0
  8 16  1  0  0  0  0
  8  2  1  1  0  0  0
 10  9  1  1  0  0  0
 10  6  1  0  0  0  0
 10  4  1  0  0  0  0
 11 16  1  0  0  0  0
 11 13  1  0  0  0  0
 12 17  1  6  0  0  0
 13 12  1  0  0  0  0
 14 12  1  0  0  0  0
 14 19  1  6  0  0  0
 16 15  1  6  0  0  0
 16 14  1  0  0  0  0
 17 18  1  0  0  0  0
 19 20  1  0  0  0  0
 20 21  1  0  0  0  0
 22 23  1  0  0  0  0
 23 24  1  6  0  0  0
 25 23  1  0  0  0  0
 26 25  1  6  0  0  0
 26 27  1  0  0  0  0
 28 26  1  0  0  0  0
 28 27  1  0  0  0  0
 29 30  1  0  0  0  0
 30 28  1  0  0  0  0
M  END
>  <MODEL>
3

>  <REMARK>
 VINA RESULT:      -6.2      1.734      2.438
  Name = 
  9 active torsions:
  status: ('A' for Active; 'I' for Inactive)
    1  A    between atoms: C_1  and  O_22
    2  A    between atoms: C_2  and  C_14
    3  A    between atoms: C_2  and  O_22
    4  A    between atoms: C_10  and  O_15
    5  A    between atoms: C_11  and  C_25
    6  A    between atoms: C_13  and  C_30
    7  A    between atoms: C_14  and  C_20
    8  A    between atoms: C_19  and  N_29
    9  A    between atoms: C_23  and  C_25
                            x       y       z     vdW  Elec       q    Type
                         _______ _______ _______ _____ _____    ______ ____

>  <TORSDO>
F 9

$$$$
=
 OpenBabel11052417133D

 30 33  0  0  1  0  0  0  0  0999 V2000
  188.8070  175.8760  143.0930 C   0  0  1  0  0  3  0  0  0  0  0  0
  190.3210  176.0980  142.8140 C   0  0  0  0  0  2  0  0  0  0  0  0
  188.1730  174.8090  142.3930 O   0  0  0  0  0  0  0  0  0  0  0  0
  190.8430  173.2690  140.0720 S   0  0  0  0  0  0  0  0  0  0  0  0
  190.1700  173.8360  141.6270 C   0  0  2  0  0  3  0  0  0  0  0  0
  188.1850  173.6210  140.4070 O   0  0  0  0  0  0  0  0  0  0  0  0
  188.8930  174.5040  141.2290 C   0  0  1  0  0  3  0  0  0  0  0  0
  191.0810  174.8340  142.3500 C   0  0  2  0  0  3  0  0  0  0  0  0
  188.9660  173.8320  138.1430 C   0  0  0  0  0  1  0  0  0  0  0  0
  189.1180  173.1190  139.4740 C   0  0  1  0  0  3  0  0  0  0  0  0
  193.1150  173.6850  142.9600 O   0  0  0  0  0  0  0  0  0  0  0  0
  193.7820  175.1460  144.4410 C   0  0  1  0  0  3  0  0  0  0  0  0
  194.0410  174.6220  143.1700 O   0  0  0  0  0  0  0  0  0  0  0  0
  192.2860  175.2260  144.5050 C   0  0  1  0  0  3  0  0  0  0  0  0
  191.1370  172.9910  144.0820 C   0  0  0  0  0  1  0  0  0  0  0  0
  191.8980  174.1750  143.4800 C   0  0  1  0  0  0  0  0  0  0  0  0
  194.2980  174.2800  145.4150 O   0  0  0  0  0  0  0  0  0  0  0  0
  195.5210  174.8440  145.7800 C   0  0  0  0  0  1  0  0  0  0  0  0
  191.6890  175.0880  145.9150 C   0  0  0  0  0  2  0  0  0  0  0  0
  191.7650  176.4010  146.6770 C   0  0  0  0  0  2  0  0  0  0  0  0
  191.1430  176.2550  148.0540 C   0  0  0  0  0  1  0  0  0  0  0  0
  188.6070  175.7040  144.4740 O   0  0  0  0  0  0  0  0  0  0  0  0
  188.2190  176.9360  145.0530 C   0  0  2  0  0  3  0  0  0  0  0  0
  187.6710  176.7850  146.4670 C   0  0  0  0  0  1  0  0  0  0  0  0
  187.2930  177.7690  144.1670 C   0  0  0  0  0  2  0  0  0  0  0  0
  186.3430  178.5940  145.0160 C   0  0  1  0  0  3  0  0  0  0  0  0
  185.6540  179.5650  144.1770 C   0  0  0  0  0  2  0  0  0  0  0  0
  184.9600  178.3360  144.5900 N   0  0  0  0  0  0  0  0  0  0  0  0
  184.1810  177.6970  146.6850 O   0  0  0  0  0  1  0  0  0  0  0  0
  184.1120  178.6930  145.7110 C   0  0  0  0  0  2  0  0  0  0  0  0
  1 22  1  1  0  0  0
  2  1  1  0  0  0  0
  3  1  1  0  0  0  0
  5  4  1  6  0  0  0
  5  8  1  0  0  0  0
  7  6  1  6  0  0  0
  7  5  1  0  0  0  0
  7  3  1  0  0  0  0
  8  2  1  1  0  0  0
  8 16  1  0  0  0  0
 10  9  1  6  0  0  0
 10  4  1  0  0  0  0
 10  6  1  0  0  0  0
 11 13  1  0  0  0  0
 11 16  1  0  0  0  0
 12 14  1  0  0  0  0
 12 17  1  1  0  0  0
 13 12  1  0  0  0  0
 14 19  1  1  0  0  0
 16 15  1  1  0  0  0
 16 14  1  0  0  0  0
 17 18  1  0  0  0  0
 19 20  1  0  0  0  0
 20 21  1  0  0  0  0
 22 23  1  0  0  0  0
 23 24  1  1  0  0  0
 25 23  1  0  0  0  0
 26 25  1  6  0  0  0
 27 28  1  0  0  0  0
 27 26  1  0  0  0  0
 28 26  1  0  0  0  0
 28 30  1  0  0  0  0
 30 29  1  0  0  0  0
M  END
>  <MODEL>
4

>  <REMARK>
 VINA RESULT:      -6.1      2.622      6.551
  Name = 
  9 active torsions:
  status: ('A' for Active; 'I' for Inactive)
    1  A    between atoms: C_1  and  O_22
    2  A    between atoms: C_2  and  C_14
    3  A    between atoms: C_2  and  O_22
    4  A    between atoms: C_10  and  O_15
    5  A    between atoms: C_11  and  C_25
    6  A    between atoms: C_13  and  C_30
    7  A    between atoms: C_14  and  C_20
    8  A    between atoms: C_19  and  N_29
    9  A    between atoms: C_23  and  C_25
                            x       y       z     vdW  Elec       q    Type
                         _______ _______ _______ _____ _____    ______ ____

>  <TORSDO>
F 9

$$$$
=
 OpenBabel11052417133D

 30 33  0  0  1  0  0  0  0  0999 V2000
  187.5640  177.4800  142.3980 C   0  0  1  0  0  3  0  0  0  0  0  0
  189.0760  177.7350  142.1330 C   0  0  0  0  0  2  0  0  0  0  0  0
  187.1670  176.1280  142.6170 O   0  0  0  0  0  0  0  0  0  0  0  0
  190.3380  173.9670  142.2120 S   0  0  0  0  0  0  0  0  0  0  0  0
  189.3520  175.3010  142.8760 C   0  0  2  0  0  3  0  0  0  0  0  0
  187.6410  173.9370  142.0460 O   0  0  0  0  0  0  0  0  0  0  0  0
  188.1060  175.2550  142.0490 C   0  0  1  0  0  3  0  0  0  0  0  0
  190.0220  176.6720  142.7390 C   0  0  2  0  0  3  0  0  0  0  0  0
  188.7840  172.6860  140.3400 C   0  0  0  0  0  1  0  0  0  0  0  0
  188.7670  173.1230  141.7940 C   0  0  1  0  0  3  0  0  0  0  0  0
  189.7440  177.0980  145.0990 O   0  0  0  0  0  0  0  0  0  0  0  0
  191.2720  175.6930  145.7800 C   0  0  1  0  0  3  0  0  0  0  0  0
  189.8940  175.9290  145.7250 O   0  0  0  0  0  0  0  0  0  0  0  0
  191.7750  176.1520  144.4440 C   0  0  1  0  0  3  0  0  0  0  0  0
  191.1890  178.5770  143.9250 C   0  0  0  0  0  1  0  0  0  0  0  0
  190.6870  177.1360  144.0510 C   0  0  1  0  0  0  0  0  0  0  0  0
  191.8300  176.4350  146.8290 O   0  0  0  0  0  0  0  0  0  0  0  0
  191.2260  175.9320  147.9810 C   0  0  0  0  0  1  0  0  0  0  0  0
  193.2230  176.6660  144.4390 C   0  0  0  0  0  2  0  0  0  0  0  0
  194.0500  175.9740  143.3660 C   0  0  0  0  0  2  0  0  0  0  0  0
  193.9320  174.4660  143.4920 C   0  0  0  0  0  1  0  0  0  0  0  0
  187.1420  178.2650  143.4860 O   0  0  0  0  0  0  0  0  0  0  0  0
  185.7420  178.4570  143.4160 C   0  0  2  0  0  3  0  0  0  0  0  0
  185.2360  178.6490  141.9910 C   0  0  0  0  0  1  0  0  0  0  0  0
  185.2200  179.5410  144.3580 C   0  0  0  0  0  2  0  0  0  0  0  0
  185.3310  179.0910  145.8030 C   0  0  1  0  0  3  0  0  0  0  0  0
  184.0290  178.6470  146.2810 C   0  0  0  0  0  2  0  0  0  0  0  0
  185.0380  177.6520  145.8890 N   0  0  0  0  0  0  0  0  0  0  0  0
  186.8860  176.5940  146.8220 O   0  0  0  0  0  1  0  0  0  0  0  0
  185.6550  177.1800  147.1150 C   0  0  0  0  0  2  0  0  0  0  0  0
  1  3  1  0  0  0  0
  1 22  1  1  0  0  0
  2  1  1  0  0  0  0
  5  4  1  6  0  0  0
  7  6  1  1  0  0  0
  7  3  1  0  0  0  0
  7  5  1  0  0  0  0
  8  2  1  1  0  0  0
  8  5  1  0  0  0  0
  8 16  1  0  0  0  0
 10  9  1  6  0  0  0
 10  6  1  0  0  0  0
 10  4  1  0  0  0  0
 11 13  1  0  0  0  0
 12 17  1  1  0  0  0
 13 12  1  0  0  0  0
 14 19  1  1  0  0  0
 14 12  1  0  0  0  0
 16 15  1  6  0  0  0
 16 14  1  0  0  0  0
 16 11  1  0  0  0  0
 17 18  1  0  0  0  0
 20 21  1  0  0  0  0
 20 19  1  0  0  0  0
 23 24  1  6  0  0  0
 23 22  1  0  0  0  0
 23 25  1  0  0  0  0
 26 25  1  6  0  0  0
 26 28  1  0  0  0  0
 26 27  1  0  0  0  0
 28 27  1  0  0  0  0
 28 30  1  0  0  0  0
 29 30  1  0  0  0  0
M  END
>  <MODEL>
5

>  <REMARK>
 VINA RESULT:      -6.0      2.817      6.519
  Name = 
  9 active torsions:
  status: ('A' for Active; 'I' for Inactive)
    1  A    between atoms: C_1  and  O_22
    2  A    between atoms: C_2  and  C_14
    3  A    between atoms: C_2  and  O_22
    4  A    between atoms: C_10  and  O_15
    5  A    between atoms: C_11  and  C_25
    6  A    between atoms: C_13  and  C_30
    7  A    between atoms: C_14  and  C_20
    8  A    between atoms: C_19  and  N_29
    9  A    between atoms: C_23  and  C_25
                            x       y       z     vdW  Elec       q    Type
                         _______ _______ _______ _____ _____    ______ ____

>  <TORSDO>
F 9

$$$$
=
 OpenBabel11052417133D

 30 33  0  0  1  0  0  0  0  0999 V2000
  191.6710  175.0380  146.1280 C   0  0  1  0  0  3  0  0  0  0  0  0
  191.5410  173.8570  145.1240 C   0  0  0  0  0  2  0  0  0  0  0  0
  192.9420  175.6780  146.2100 O   0  0  0  0  0  0  0  0  0  0  0  0
  195.2950  173.7690  143.8210 S   0  0  0  0  0  0  0  0  0  0  0  0
  193.8180  174.6640  144.2790 C   0  0  2  0  0  3  0  0  0  0  0  0
  195.2200  175.3140  146.0360 O   0  0  0  0  0  0  0  0  0  0  0  0
  193.9460  174.8070  145.7620 C   0  0  1  0  0  3  0  0  0  0  0  0
  192.5270  173.9160  143.9340 C   0  0  2  0  0  3  0  0  0  0  0  0
  196.8050  173.5080  146.1040 C   0  0  0  0  0  1  0  0  0  0  0  0
  196.1200  174.5600  145.2520 C   0  0  1  0  0  3  0  0  0  0  0  0
  192.1750  173.5570  141.5730 O   0  0  0  0  0  0  0  0  0  0  0  0
  189.9940  173.4640  141.6650 C   0  0  1  0  0  3  0  0  0  0  0  0
  191.1530  172.7070  141.4580 O   0  0  0  0  0  0  0  0  0  0  0  0
  190.3620  174.3970  142.7800 C   0  0  1  0  0  3  0  0  0  0  0  0
  192.4160  175.8170  142.2700 C   0  0  0  0  0  1  0  0  0  0  0  0
  191.8740  174.4330  142.6360 C   0  0  1  0  0  0  0  0  0  0  0  0
  189.6750  174.1580  140.4900 O   0  0  0  0  0  0  0  0  0  0  0  0
  188.8880  173.2710  139.7560 C   0  0  0  0  0  1  0  0  0  0  0  0
  189.6220  175.7440  142.7680 C   0  0  0  0  0  2  0  0  0  0  0  0
  188.2500  175.6250  143.4130 C   0  0  0  0  0  2  0  0  0  0  0  0
  187.1820  176.2080  142.5060 C   0  0  0  0  0  1  0  0  0  0  0  0
  190.6870  176.0020  145.8440 O   0  0  0  0  0  0  0  0  0  0  0  0
  189.8030  176.1150  146.9430 C   0  0  2  0  0  3  0  0  0  0  0  0
  189.0320  174.8310  147.2230 C   0  0  0  0  0  1  0  0  0  0  0  0
  188.8810  177.3310  146.8710 C   0  0  0  0  0  2  0  0  0  0  0  0
  187.4260  176.8980  146.8600 C   0  0  1  0  0  3  0  0  0  0  0  0
  186.6150  177.8830  147.5610 C   0  0  0  0  0  2  0  0  0  0  0  0
  186.6350  177.8700  146.0910 N   0  0  0  0  0  0  0  0  0  0  0  0
  184.7810  177.9280  144.6890 O   0  0  0  0  0  1  0  0  0  0  0  0
  185.4340  177.1750  145.6650 C   0  0  0  0  0  2  0  0  0  0  0  0
  1 22  1  6  0  0  0
  1  3  1  0  0  0  0
  2  1  1  0  0  0  0
  4 10  1  0  0  0  0
  5  4  1  1  0  0  0
  5  7  1  0  0  0  0
  7  6  1  6  0  0  0
  7  3  1  0  0  0  0
  8  5  1  0  0  0  0
  8  2  1  1  0  0  0
 10  6  1  0  0  0  0
 10  9  1  1  0  0  0
 11 16  1  0  0  0  0
 12 17  1  6  0  0  0
 12 14  1  0  0  0  0
 13 11  1  0  0  0  0
 13 12  1  0  0  0  0
 14 19  1  6  0  0  0
 16 15  1  6  0  0  0
 16 14  1  0  0  0  0
 16  8  1  0  0  0  0
 18 17  1  0  0  0  0
 19 20  1  0  0  0  0
 21 20  1  0  0  0  0
 22 23  1  0  0  0  0
 23 24  1  6  0  0  0
 25 23  1  0  0  0  0
 26 25  1  1  0  0  0
 26 27  1  0  0  0  0
 28 26  1  0  0  0  0
 28 27  1  0  0  0  0
 29 30  1  0  0  0  0
 30 28  1  0  0  0  0
M  END
>  <MODEL>
6

>  <REMARK>
 VINA RESULT:      -5.8      2.603      6.063
  Name = 
  9 active torsions:
  status: ('A' for Active; 'I' for Inactive)
    1  A    between atoms: C_1  and  O_22
    2  A    between atoms: C_2  and  C_14
    3  A    between atoms: C_2  and  O_22
    4  A    between atoms: C_10  and  O_15
    5  A    between atoms: C_11  and  C_25
    6  A    between atoms: C_13  and  C_30
    7  A    between atoms: C_14  and  C_20
    8  A    between atoms: C_19  and  N_29
    9  A    between atoms: C_23  and  C_25
                            x       y       z     vdW  Elec       q    Type
                         _______ _______ _______ _____ _____    ______ ____

>  <TORSDO>
F 9

$$$$
=
 OpenBabel11052417133D

 30 33  0  0  1  0  0  0  0  0999 V2000
  189.1230  175.1100  141.7870 C   0  0  1  0  0  3  0  0  0  0  0  0
  190.4430  175.5070  142.5100 C   0  0  0  0  0  2  0  0  0  0  0  0
  189.0340  173.7750  141.2960 O   0  0  0  0  0  0  0  0  0  0  0  0
  192.4210  172.0900  142.0550 S   0  0  0  0  0  0  0  0  0  0  0  0
  190.9310  172.9950  142.4440 C   0  0  2  0  0  3  0  0  0  0  0  0
  190.2740  172.0320  140.4150 O   0  0  0  0  0  0  0  0  0  0  0  0
  190.3190  173.2490  141.1030 C   0  0  1  0  0  3  0  0  0  0  0  0
  191.2000  174.3250  143.1570 C   0  0  2  0  0  3  0  0  0  0  0  0
  192.3900  171.6380  139.3430 C   0  0  0  0  0  1  0  0  0  0  0  0
  191.5430  171.4360  140.5860 C   0  0  1  0  0  3  0  0  0  0  0  0
  192.2260  174.0730  145.3270 O   0  0  0  0  0  0  0  0  0  0  0  0
  191.4910  175.9530  146.1620 C   0  0  1  0  0  3  0  0  0  0  0  0
  192.6330  175.2850  145.7070 O   0  0  0  0  0  0  0  0  0  0  0  0
  190.4200  175.5470  145.1940 C   0  0  1  0  0  3  0  0  0  0  0  0
  190.1140  173.0220  145.0330 C   0  0  0  0  0  1  0  0  0  0  0  0
  190.9830  174.2320  144.6800 C   0  0  1  0  0  0  0  0  0  0  0  0
  191.1970  175.5380  147.4670 O   0  0  0  0  0  0  0  0  0  0  0  0
  191.3520  176.6830  148.2480 C   0  0  0  0  0  1  0  0  0  0  0  0
  188.9970  175.5240  145.7740 C   0  0  0  0  0  2  0  0  0  0  0  0
  188.3410  176.8930  145.6780 C   0  0  0  0  0  2  0  0  0  0  0  0
  187.0560  176.9250  146.4850 C   0  0  0  0  0  1  0  0  0  0  0  0
  188.0320  175.3620  142.6380 O   0  0  0  0  0  0  0  0  0  0  0  0
  187.1470  176.2750  142.0160 C   0  0  2  0  0  3  0  0  0  0  0  0
  187.8150  177.5930  141.6420 C   0  0  0  0  0  1  0  0  0  0  0  0
  185.8440  176.4920  142.7830 C   0  0  0  0  0  2  0  0  0  0  0  0
  185.5150  177.9720  142.8670 C   0  0  1  0  0  3  0  0  0  0  0  0
  184.1140  178.1820  142.5280 C   0  0  0  0  0  2  0  0  0  0  0  0
  184.5320  178.1910  143.9380 N   0  0  0  0  0  0  0  0  0  0  0  0
  185.8840  179.7880  144.9510 O   0  0  0  0  0  1  0  0  0  0  0  0
  184.6540  179.5840  144.3270 C   0  0  0  0  0  2  0  0  0  0  0  0
  1  2  1  0  0  0  0
  1 22  1  1  0  0  0
  3  1  1  0  0  0  0
  5  4  1  6  0  0  0
  5  8  1  0  0  0  0
  6 10  1  0  0  0  0
  7  6  1  6  0  0  0
  7  3  1  0  0  0  0
  7  5  1  0  0  0  0
  8  2  1  6  0  0  0
  8 16  1  0  0  0  0
 10  9  1  6  0  0  0
 10  4  1  0  0  0  0
 11 13  1  0  0  0  0
 12 17  1  1  0  0  0
 13 12  1  0  0  0  0
 14 19  1  1  0  0  0
 14 12  1  0  0  0  0
 16 15  1  1  0  0  0
 16 14  1  0  0  0  0
 16 11  1  0  0  0  0
 17 18  1  0  0  0  0
 20 19  1  0  0  0  0
 20 21  1  0  0  0  0
 23 24  1  1  0  0  0
 23 22  1  0  0  0  0
 23 25  1  0  0  0  0
 26 25  1  1  0  0  0
 26 28  1  0  0  0  0
 27 26  1  0  0  0  0
 27 28  1  0  0  0  0
 28 30  1  0  0  0  0
 30 29  1  0  0  0  0
M  END
>  <MODEL>
7

>  <REMARK>
 VINA RESULT:      -5.8      2.854      6.256
  Name = 
  9 active torsions:
  status: ('A' for Active; 'I' for Inactive)
    1  A    between atoms: C_1  and  O_22
    2  A    between atoms: C_2  and  C_14
    3  A    between atoms: C_2  and  O_22
    4  A    between atoms: C_10  and  O_15
    5  A    between atoms: C_11  and  C_25
    6  A    between atoms: C_13  and  C_30
    7  A    between atoms: C_14  and  C_20
    8  A    between atoms: C_19  and  N_29
    9  A    between atoms: C_23  and  C_25
                            x       y       z     vdW  Elec       q    Type
                         _______ _______ _______ _____ _____    ______ ____

>  <TORSDO>
F 9

$$$$
=
 OpenBabel11052417133D

 30 33  0  0  1  0  0  0  0  0999 V2000
  187.4410  176.3110  141.4750 C   0  0  1  0  0  3  0  0  0  0  0  0
  186.7600  175.9710  142.8320 C   0  0  0  0  0  2  0  0  0  0  0  0
  186.8520  177.3540  140.7020 O   0  0  0  0  0  0  0  0  0  0  0  0
  183.7180  178.5200  142.6270 S   0  0  0  0  0  0  0  0  0  0  0  0
  185.4490  178.1300  142.4210 C   0  0  2  0  0  3  0  0  0  0  0  0
  184.8390  178.3660  140.1740 O   0  0  0  0  0  0  0  0  0  0  0  0
  185.5050  177.5130  141.0590 C   0  0  1  0  0  3  0  0  0  0  0  0
  185.9740  177.1420  143.4670 C   0  0  2  0  0  3  0  0  0  0  0  0
  182.4790  177.9160  140.2480 C   0  0  0  0  0  1  0  0  0  0  0  0
  183.6320  178.7280  140.8100 C   0  0  1  0  0  3  0  0  0  0  0  0
  185.9410  178.8440  145.1780 O   0  0  0  0  0  0  0  0  0  0  0  0
  186.3060  177.5010  146.8620 C   0  0  1  0  0  3  0  0  0  0  0  0
  185.3450  178.3100  146.2450 O   0  0  0  0  0  0  0  0  0  0  0  0
  187.0210  176.8460  145.7180 C   0  0  1  0  0  3  0  0  0  0  0  0
  188.0150  178.5110  144.0650 C   0  0  0  0  0  1  0  0  0  0  0  0
  186.7480  177.8400  144.6030 C   0  0  1  0  0  0  0  0  0  0  0  0
  187.1670  178.3010  147.6240 O   0  0  0  0  0  0  0  0  0  0  0  0
  186.3230  179.1220  148.3710 C   0  0  0  0  0  1  0  0  0  0  0  0
  188.4880  176.4830  145.9940 C   0  0  0  0  0  2  0  0  0  0  0  0
  188.5950  175.2370  146.8610 C   0  0  0  0  0  2  0  0  0  0  0  0
  189.5360  174.2280  146.2290 C   0  0  0  0  0  1  0  0  0  0  0  0
  188.7970  176.6110  141.6960 O   0  0  0  0  0  0  0  0  0  0  0  0
  189.4150  175.5360  142.3780 C   0  0  2  0  0  3  0  0  0  0  0  0
  190.7240  175.9280  143.0510 C   0  0  0  0  0  1  0  0  0  0  0  0
  189.5640  174.2730  141.5300 C   0  0  0  0  0  2  0  0  0  0  0  0
  190.1060  173.1290  142.3680 C   0  0  1  0  0  3  0  0  0  0  0  0
  189.0000  172.3480  142.9050 C   0  0  0  0  0  2  0  0  0  0  0  0
  189.7440  171.8510  141.7380 N   0  0  0  0  0  0  0  0  0  0  0  0
  190.4540  169.6400  141.6150 O   0  0  0  0  0  1  0  0  0  0  0  0
  190.6880  170.8670  142.2350 C   0  0  0  0  0  2  0  0  0  0  0  0
  1 22  1  1  0  0  0
  1  2  1  0  0  0  0
  3  7  1  0  0  0  0
  3  1  1  0  0  0  0
  5  4  1  1  0  0  0
  5  8  1  0  0  0  0
  6 10  1  0  0  0  0
  7  6  1  6  0  0  0
  7  5  1  0  0  0  0
  8  2  1  6  0  0  0
  8 16  1  0  0  0  0
 10  9  1  6  0  0  0
 10  4  1  0  0  0  0
 11 13  1  0  0  0  0
 12 17  1  6  0  0  0
 13 12  1  0  0  0  0
 14 19  1  1  0  0  0
 14 12  1  0  0  0  0
 16 15  1  6  0  0  0
 16 11  1  0  0  0  0
 16 14  1  0  0  0  0
 17 18  1  0  0  0  0
 19 20  1  0  0  0  0
 21 20  1  0  0  0  0
 22 23  1  0  0  0  0
 23 24  1  6  0  0  0
 25 23  1  0  0  0  0
 26 25  1  6  0  0  0
 26 27  1  0  0  0  0
 28 30  1  0  0  0  0
 28 26  1  0  0  0  0
 28 27  1  0  0  0  0
 29 30  1  0  0  0  0
M  END
>  <MODEL>
8

>  <REMARK>
 VINA RESULT:      -5.8      3.525      5.697
  Name = 
  9 active torsions:
  status: ('A' for Active; 'I' for Inactive)
    1  A    between atoms: C_1  and  O_22
    2  A    between atoms: C_2  and  C_14
    3  A    between atoms: C_2  and  O_22
    4  A    between atoms: C_10  and  O_15
    5  A    between atoms: C_11  and  C_25
    6  A    between atoms: C_13  and  C_30
    7  A    between atoms: C_14  and  C_20
    8  A    between atoms: C_19  and  N_29
    9  A    between atoms: C_23  and  C_25
                            x       y       z     vdW  Elec       q    Type
                         _______ _______ _______ _____ _____    ______ ____

>  <TORSDO>
F 9

$$$$
=
 OpenBabel11052417133D

 30 33  0  0  1  0  0  0  0  0999 V2000
  189.2750  175.9060  143.0680 C   0  0  1  0  0  3  0  0  0  0  0  0
  190.8100  175.9940  142.8270 C   0  0  0  0  0  2  0  0  0  0  0  0
  188.5770  174.8610  142.3960 O   0  0  0  0  0  0  0  0  0  0  0  0
  191.1760  173.0110  140.2260 S   0  0  0  0  0  0  0  0  0  0  0  0
  190.5090  173.6990  141.7340 C   0  0  2  0  0  3  0  0  0  0  0  0
  188.5480  173.5880  140.4640 O   0  0  0  0  0  0  0  0  0  0  0  0
  189.3010  174.4470  141.2690 C   0  0  1  0  0  3  0  0  0  0  0  0
  191.4770  174.6540  142.4420 C   0  0  2  0  0  3  0  0  0  0  0  0
  189.4030  173.6330  138.2180 C   0  0  0  0  0  1  0  0  0  0  0  0
  189.4620  172.9710  139.5830 C   0  0  1  0  0  3  0  0  0  0  0  0
  193.4030  173.3910  143.1650 O   0  0  0  0  0  0  0  0  0  0  0  0
  194.1230  174.8580  144.6150 C   0  0  1  0  0  3  0  0  0  0  0  0
  194.3860  174.2680  143.3740 O   0  0  0  0  0  0  0  0  0  0  0  0
  192.6350  175.0450  144.6230 C   0  0  1  0  0  3  0  0  0  0  0  0
  191.3450  172.8810  144.2410 C   0  0  0  0  0  1  0  0  0  0  0  0
  192.2080  173.9840  143.6230 C   0  0  1  0  0  0  0  0  0  0  0  0
  194.5440  173.9970  145.6380 O   0  0  0  0  0  0  0  0  0  0  0  0
  195.9250  174.1770  145.7070 C   0  0  0  0  0  1  0  0  0  0  0  0
  191.9840  175.0030  146.0140 C   0  0  0  0  0  2  0  0  0  0  0  0
  191.8370  176.4010  146.5960 C   0  0  0  0  0  2  0  0  0  0  0  0
  191.1020  176.3510  147.9230 C   0  0  0  0  0  1  0  0  0  0  0  0
  189.0250  175.8130  144.4490 O   0  0  0  0  0  0  0  0  0  0  0  0
  187.8600  176.5490  144.7690 C   0  0  2  0  0  3  0  0  0  0  0  0
  187.7070  177.8170  143.9360 C   0  0  0  0  0  1  0  0  0  0  0  0
  187.6950  176.8240  146.2630 C   0  0  0  0  0  2  0  0  0  0  0  0
  186.2240  176.8700  146.6380 C   0  0  1  0  0  3  0  0  0  0  0  0
  186.0650  177.5520  147.9150 C   0  0  0  0  0  2  0  0  0  0  0  0
  185.7730  178.2690  146.6640 N   0  0  0  0  0  0  0  0  0  0  0  0
  183.9840  178.9400  145.3400 O   0  0  0  0  0  1  0  0  0  0  0  0
  184.3320  178.2380  146.4940 C   0  0  0  0  0  2  0  0  0  0  0  0
  1 22  1  1  0  0  0
  2  1  1  0  0  0  0
  3  1  1  0  0  0  0
  5  4  1  6  0  0  0
  5  8  1  0  0  0  0
  7  6  1  6  0  0  0
  7  5  1  0  0  0  0
  7  3  1  0  0  0  0
  8  2  1  1  0  0  0
  8 16  1  0  0  0  0
 10  9  1  6  0  0  0
 10  4  1  0  0  0  0
 10  6  1  0  0  0  0
 11 13  1  0  0  0  0
 11 16  1  0  0  0  0
 12 14  1  0  0  0  0
 12 17  1  1  0  0  0
 13 12  1  0  0  0  0
 14 19  1  1  0  0  0
 16 15  1  1  0  0  0
 16 14  1  0  0  0  0
 17 18  1  0  0  0  0
 19 20  1  0  0  0  0
 20 21  1  0  0  0  0
 22 23  1  0  0  0  0
 23 24  1  6  0  0  0
 23 25  1  0  0  0  0
 26 25  1  6  0  0  0
 26 28  1  0  0  0  0
 26 27  1  0  0  0  0
 28 27  1  0  0  0  0
 29 30  1  0  0  0  0
 30 28  1  0  0  0  0
M  END
>  <MODEL>
9

>  <REMARK>
 VINA RESULT:      -5.7      2.525      6.579
  Name = 
  9 active torsions:
  status: ('A' for Active; 'I' for Inactive)
    1  A    between atoms: C_1  and  O_22
    2  A    between atoms: C_2  and  C_14
    3  A    between atoms: C_2  and  O_22
    4  A    between atoms: C_10  and  O_15
    5  A    between atoms: C_11  and  C_25
    6  A    between atoms: C_13  and  C_30
    7  A    between atoms: C_14  and  C_20
    8  A    between atoms: C_19  and  N_29
    9  A    between atoms: C_23  and  C_25
                            x       y       z     vdW  Elec       q    Type
                         _______ _______ _______ _____ _____    ______ ____

>  <TORSDO>
F 9

$$$$
