=
 OpenBabel11052420303D

 34 39  0  0  1  0  0  0  0  0999 V2000
  189.4820  175.5160  144.0510 C   0  0  2  0  0  3  0  0  0  0  0  0
  192.1800  173.9190  141.6820 C   0  0  0  0  0  2  0  0  0  0  0  0
  192.1120  174.3310  144.0970 O   0  0  0  0  0  0  0  0  0  0  0  0
  188.6510  177.0310  146.2780 C   0  0  0  0  0  2  0  0  0  0  0  0
  189.0830  176.9400  143.6890 C   0  0  0  0  0  2  0  0  0  0  0  0
  189.9450  176.2770  146.3710 C   0  0  0  0  0  0  0  0  0  0  0  0
  191.9260  175.5780  147.5800 C   0  0  0  0  0  3  0  0  0  0  0  0
  190.7080  176.2740  147.5390 C   0  0  0  0  0  3  0  0  0  0  0  0
  188.4800  177.7070  144.8940 C   0  0  1  0  0  3  0  0  0  0  0  0
  191.6240  174.9140  145.2690 C   0  0  0  0  0  0  0  0  0  0  0  0
  190.3730  175.5420  145.2610 C   0  0  0  0  0  0  0  0  0  0  0  0
  192.3870  174.9090  146.4410 C   0  0  0  0  0  3  0  0  0  0  0  0
  192.0390  172.4170  141.9080 C   0  0  0  0  0  2  0  0  0  0  0  0
  190.7590  171.8320  141.3110 C   0  0  2  0  0  3  0  0  0  0  0  0
  189.5010  172.6840  141.5280 C   0  0  0  0  0  2  0  0  0  0  0  0
  191.5680  174.7180  142.8350 C   0  0  2  0  0  3  0  0  0  0  0  0
  189.4340  173.3140  142.9110 C   0  0  0  0  0  2  0  0  0  0  0  0
  190.0260  174.7170  142.8580 C   0  0  1  0  0  3  0  0  0  0  0  0
  184.9040  178.9400  145.4300 C   0  0  0  0  0  3  0  0  0  0  0  0
  186.4970  177.8200  143.3720 C   0  0  0  0  0  3  0  0  0  0  0  0
  183.0230  178.5050  142.2850 N   0  0  0  0  0  0  0  0  0  0  0  0
  181.9110  178.5320  141.3820 C   0  0  0  0  0  0  0  0  0  0  0  0
  182.9750  178.9330  143.6870 C   0  0  0  0  0  2  0  0  0  0  0  0
  182.0700  178.2430  140.1670 O   0  0  0  0  0  0  0  0  0  0  0  0
  184.3790  178.6960  144.1630 C   0  0  0  0  0  0  0  0  0  0  0  0
  180.5600  178.9310  141.8590 C   0  0  0  0  0  1  0  0  0  0  0  0
  184.3310  178.0150  142.0010 C   0  0  0  0  0  0  0  0  0  0  0  0
  185.1590  178.1500  143.1690 C   0  0  0  0  0  0  0  0  0  0  0  0
  184.6860  177.5160  140.9010 O   0  0  0  0  0  0  0  0  0  0  0  0
  187.0480  178.0550  144.6440 C   0  0  0  0  0  0  0  0  0  0  0  0
  186.2510  178.6180  145.6660 C   0  0  0  0  0  3  0  0  0  0  0  0
  190.5620  170.4190  141.8460 C   0  0  0  0  0  2  0  0  0  0  0  0
  191.3960  169.1960  140.7890 S   0  0  0  0  0  0  0  0  0  0  0  0
  190.7120  169.9340  139.2790 C   0  0  0  0  0  1  0  0  0  0  0  0
  1  5  1  6  0  0  0
  1 11  1  0  0  0  0
  2 13  1  0  0  0  0
  3 10  1  0  0  0  0
  4  6  1  0  0  0  0
  5  9  1  0  0  0  0
  6  8  1  0  0  0  0
  8  7  2  0  0  0  0
  9 30  1  6  0  0  0
  9  4  1  0  0  0  0
 10 12  2  0  0  0  0
 11 10  1  0  0  0  0
 11  6  2  0  0  0  0
 12  7  1  0  0  0  0
 14 15  1  0  0  0  0
 14 32  1  1  0  0  0
 14 13  1  0  0  0  0
 15 17  1  0  0  0  0
 16  2  1  6  0  0  0
 16 18  1  0  0  0  0
 16  3  1  0  0  0  0
 18 17  1  1  0  0  0
 18  1  1  0  0  0  0
 19 31  1  0  0  0  0
 20 30  1  0  0  0  0
 21 23  1  0  0  0  0
 22 26  1  0  0  0  0
 22 21  1  0  0  0  0
 23 25  1  0  0  0  0
 24 22  2  0  0  0  0
 25 19  2  0  0  0  0
 27 21  1  0  0  0  0
 27 28  1  0  0  0  0
 28 20  2  0  0  0  0
 28 25  1  0  0  0  0
 29 27  2  0  0  0  0
 30 31  2  0  0  0  0
 33 32  1  0  0  0  0
 34 33  1  0  0  0  0
M  END
>  <MODEL>
1

>  <REMARK>
 VINA RESULT:      -8.6      0.000      0.000
  Name = 
  3 active torsions:
  status: ('A' for Active; 'I' for Inactive)
    1  A    between atoms: C_3  and  S_13
    2  A    between atoms: C_3  and  C_25
    3  A    between atoms: C_18  and  C_30
                            x       y       z     vdW  Elec       q    Type
                         _______ _______ _______ _____ _____    ______ ____

>  <TORSDO>
F 3

$$$$
=
 OpenBabel11052420303D

 34 39  0  0  1  0  0  0  0  0999 V2000
  190.9110  176.1980  143.5350 C   0  0  2  0  0  3  0  0  0  0  0  0
  194.6860  175.6540  142.5920 C   0  0  0  0  0  2  0  0  0  0  0  0
  193.5010  175.7780  144.7330 O   0  0  0  0  0  0  0  0  0  0  0  0
  188.8260  177.1890  145.1530 C   0  0  0  0  0  2  0  0  0  0  0  0
  190.3040  177.4890  143.0020 C   0  0  0  0  0  2  0  0  0  0  0  0
  190.1220  176.8110  145.8100 C   0  0  0  0  0  0  0  0  0  0  0  0
  191.5260  176.5570  147.7680 C   0  0  0  0  0  3  0  0  0  0  0  0
  190.2920  176.8940  147.1920 C   0  0  0  0  0  3  0  0  0  0  0  0
  189.0600  177.9330  143.8140 C   0  0  1  0  0  3  0  0  0  0  0  0
  192.4230  176.0800  145.5680 C   0  0  0  0  0  0  0  0  0  0  0  0
  191.1670  176.3400  145.0090 C   0  0  0  0  0  0  0  0  0  0  0  0
  192.5940  176.1610  146.9540 C   0  0  0  0  0  3  0  0  0  0  0  0
  194.9090  174.1550  142.7710 C   0  0  0  0  0  2  0  0  0  0  0  0
  194.2250  173.3090  141.6970 C   0  0  2  0  0  3  0  0  0  0  0  0
  192.8040  173.7580  141.3330 C   0  0  0  0  0  2  0  0  0  0  0  0
  193.4470  176.1310  143.3500 C   0  0  2  0  0  3  0  0  0  0  0  0
  191.9860  174.1980  142.5380 C   0  0  0  0  0  2  0  0  0  0  0  0
  192.1090  175.7070  142.7100 C   0  0  1  0  0  3  0  0  0  0  0  0
  186.7380  177.4670  140.8150 C   0  0  0  0  0  3  0  0  0  0  0  0
  186.5970  178.2790  143.5270 C   0  0  0  0  0  3  0  0  0  0  0  0
  183.3060  178.3670  141.8300 N   0  0  0  0  0  0  0  0  0  0  0  0
  181.8970  178.5960  141.7090 C   0  0  0  0  0  0  0  0  0  0  0  0
  184.1800  177.9230  140.7390 C   0  0  0  0  0  2  0  0  0  0  0  0
  181.2080  178.8770  142.7250 O   0  0  0  0  0  0  0  0  0  0  0  0
  185.5290  177.8470  141.3920 C   0  0  0  0  0  0  0  0  0  0  0  0
  181.2230  178.4780  140.3890 C   0  0  0  0  0  1  0  0  0  0  0  0
  184.1000  178.5780  142.9940 C   0  0  0  0  0  0  0  0  0  0  0  0
  185.4690  178.2420  142.7100 C   0  0  0  0  0  0  0  0  0  0  0  0
  183.6630  179.0190  144.0900 O   0  0  0  0  0  0  0  0  0  0  0  0
  187.8290  177.9010  142.9640 C   0  0  0  0  0  0  0  0  0  0  0  0
  187.8940  177.4920  141.6130 C   0  0  0  0  0  3  0  0  0  0  0  0
  194.2430  171.8480  142.1290 C   0  0  0  0  0  2  0  0  0  0  0  0
  194.7170  171.6880  143.8780 S   0  0  0  0  0  0  0  0  0  0  0  0
  193.0820  171.0490  144.3340 C   0  0  0  0  0  1  0  0  0  0  0  0
  1  5  1  6  0  0  0
  1 11  1  0  0  0  0
  2 13  1  0  0  0  0
  3 10  1  0  0  0  0
  4  6  1  0  0  0  0
  5  9  1  0  0  0  0
  6  8  1  0  0  0  0
  8  7  2  0  0  0  0
  9 30  1  6  0  0  0
  9  4  1  0  0  0  0
 10 12  2  0  0  0  0
 11 10  1  0  0  0  0
 11  6  2  0  0  0  0
 12  7  1  0  0  0  0
 14 32  1  1  0  0  0
 14 13  1  0  0  0  0
 15 14  1  0  0  0  0
 15 17  1  0  0  0  0
 16  2  1  6  0  0  0
 16  3  1  0  0  0  0
 18 17  1  1  0  0  0
 18 16  1  0  0  0  0
 18  1  1  0  0  0  0
 19 25  2  0  0  0  0
 19 31  1  0  0  0  0
 21 27  1  0  0  0  0
 22 21  1  0  0  0  0
 22 24  2  0  0  0  0
 23 25  1  0  0  0  0
 23 21  1  0  0  0  0
 25 28  1  0  0  0  0
 26 22  1  0  0  0  0
 27 29  2  0  0  0  0
 28 27  1  0  0  0  0
 28 20  2  0  0  0  0
 30 20  1  0  0  0  0
 31 30  2  0  0  0  0
 32 33  1  0  0  0  0
 33 34  1  0  0  0  0
M  END
>  <MODEL>
2

>  <REMARK>
 VINA RESULT:      -8.5      2.132      2.765
  Name = 
  3 active torsions:
  status: ('A' for Active; 'I' for Inactive)
    1  A    between atoms: C_3  and  S_13
    2  A    between atoms: C_3  and  C_25
    3  A    between atoms: C_18  and  C_30
                            x       y       z     vdW  Elec       q    Type
                         _______ _______ _______ _____ _____    ______ ____

>  <TORSDO>
F 3

$$$$
=
 OpenBabel11052420303D

 34 39  0  0  1  0  0  0  0  0999 V2000
  187.5200  177.2590  143.5400 C   0  0  2  0  0  3  0  0  0  0  0  0
  191.3940  177.0450  142.9240 C   0  0  0  0  0  2  0  0  0  0  0  0
  190.0310  177.1680  144.9560 O   0  0  0  0  0  0  0  0  0  0  0  0
  185.2240  178.1240  144.9270 C   0  0  0  0  0  2  0  0  0  0  0  0
  186.8380  178.4510  142.8810 C   0  0  0  0  0  2  0  0  0  0  0  0
  186.4910  177.9160  145.7040 C   0  0  0  0  0  0  0  0  0  0  0  0
  187.7470  177.9130  147.7760 C   0  0  0  0  0  3  0  0  0  0  0  0
  186.5380  178.0920  147.0870 C   0  0  0  0  0  3  0  0  0  0  0  0
  185.4940  178.8120  143.5650 C   0  0  1  0  0  3  0  0  0  0  0  0
  188.8640  177.4070  145.6850 C   0  0  0  0  0  0  0  0  0  0  0  0
  187.6390  177.5080  145.0170 C   0  0  0  0  0  0  0  0  0  0  0  0
  188.9110  177.5820  147.0720 C   0  0  0  0  0  3  0  0  0  0  0  0
  191.7440  175.5880  143.2160 C   0  0  0  0  0  2  0  0  0  0  0  0
  191.2350  174.6190  142.1480 C   0  0  2  0  0  3  0  0  0  0  0  0
  189.8120  174.9020  141.6480 C   0  0  0  0  0  2  0  0  0  0  0  0
  190.0570  177.4370  143.5540 C   0  0  2  0  0  3  0  0  0  0  0  0
  188.8590  175.3240  142.7570 C   0  0  0  0  0  2  0  0  0  0  0  0
  188.8230  176.8450  142.8420 C   0  0  1  0  0  3  0  0  0  0  0  0
  183.4810  177.9290  140.4400 C   0  0  0  0  0  3  0  0  0  0  0  0
  183.0440  178.9100  143.0630 C   0  0  0  0  0  3  0  0  0  0  0  0
  179.9110  178.5790  141.1140 N   0  0  0  0  0  0  0  0  0  0  0  0
  178.5030  178.6700  140.8680 C   0  0  0  0  0  0  0  0  0  0  0  0
  180.9080  178.1430  140.1310 C   0  0  0  0  0  2  0  0  0  0  0  0
  177.7090  178.9550  141.8030 O   0  0  0  0  0  0  0  0  0  0  0  0
  182.1990  178.2370  140.8910 C   0  0  0  0  0  0  0  0  0  0  0  0
  177.9540  178.4000  139.5120 C   0  0  0  0  0  1  0  0  0  0  0  0
  180.5840  178.9420  142.3180 C   0  0  0  0  0  0  0  0  0  0  0  0
  181.9960  178.7140  142.1660 C   0  0  0  0  0  0  0  0  0  0  0  0
  180.0200  179.4150  143.3390 O   0  0  0  0  0  0  0  0  0  0  0  0
  184.3470  178.6090  142.6280 C   0  0  0  0  0  0  0  0  0  0  0  0
  184.5590  178.1150  141.3210 C   0  0  0  0  0  3  0  0  0  0  0  0
  191.3570  173.1930  142.6730 C   0  0  0  0  0  2  0  0  0  0  0  0
  191.3770  173.1640  144.4910 S   0  0  0  0  0  0  0  0  0  0  0  0
  189.8040  172.2610  144.5610 C   0  0  0  0  0  1  0  0  0  0  0  0
  1  5  1  6  0  0  0
  1 11  1  0  0  0  0
  2 13  1  0  0  0  0
  3 10  1  0  0  0  0
  4  6  1  0  0  0  0
  5  9  1  0  0  0  0
  6  8  1  0  0  0  0
  8  7  2  0  0  0  0
  9 30  1  6  0  0  0
  9  4  1  0  0  0  0
 10 12  2  0  0  0  0
 11 10  1  0  0  0  0
 11  6  2  0  0  0  0
 12  7  1  0  0  0  0
 14 32  1  1  0  0  0
 14 13  1  0  0  0  0
 15 14  1  0  0  0  0
 15 17  1  0  0  0  0
 16  2  1  6  0  0  0
 16  3  1  0  0  0  0
 18 17  1  1  0  0  0
 18  1  1  0  0  0  0
 18 16  1  0  0  0  0
 19 25  2  0  0  0  0
 19 31  1  0  0  0  0
 21 27  1  0  0  0  0
 22 21  1  0  0  0  0
 22 24  2  0  0  0  0
 23 25  1  0  0  0  0
 23 21  1  0  0  0  0
 25 28  1  0  0  0  0
 26 22  1  0  0  0  0
 27 29  2  0  0  0  0
 28 27  1  0  0  0  0
 28 20  2  0  0  0  0
 30 20  1  0  0  0  0
 31 30  2  0  0  0  0
 32 33  1  0  0  0  0
 33 34  1  0  0  0  0
M  END
>  <MODEL>
3

>  <REMARK>
 VINA RESULT:      -8.4      2.455      3.884
  Name = 
  3 active torsions:
  status: ('A' for Active; 'I' for Inactive)
    1  A    between atoms: C_3  and  S_13
    2  A    between atoms: C_3  and  C_25
    3  A    between atoms: C_18  and  C_30
                            x       y       z     vdW  Elec       q    Type
                         _______ _______ _______ _____ _____    ______ ____

>  <TORSDO>
F 3

$$$$
=
 OpenBabel11052420303D

 34 39  0  0  1  0  0  0  0  0999 V2000
  191.3470  175.7690  143.4560 C   0  0  2  0  0  3  0  0  0  0  0  0
  194.1010  174.8110  140.8220 C   0  0  0  0  0  2  0  0  0  0  0  0
  194.1230  175.0060  143.2650 O   0  0  0  0  0  0  0  0  0  0  0  0
  190.4390  176.9480  145.8500 C   0  0  0  0  0  2  0  0  0  0  0  0
  190.7170  177.1400  143.2450 C   0  0  0  0  0  2  0  0  0  0  0  0
  191.8350  176.3990  145.8100 C   0  0  0  0  0  0  0  0  0  0  0  0
  193.9700  175.9170  146.8520 C   0  0  0  0  0  3  0  0  0  0  0  0
  192.6610  176.4160  146.9350 C   0  0  0  0  0  3  0  0  0  0  0  0
  190.0830  177.7020  144.5440 C   0  0  1  0  0  3  0  0  0  0  0  0
  193.6270  175.4080  144.5070 C   0  0  0  0  0  0  0  0  0  0  0  0
  192.2980  175.8330  144.6180 C   0  0  0  0  0  0  0  0  0  0  0  0
  194.4540  175.4230  145.6350 C   0  0  0  0  0  3  0  0  0  0  0  0
  194.2020  173.2920  140.9160 C   0  0  0  0  0  2  0  0  0  0  0  0
  192.9890  172.5670  140.3320 C   0  0  2  0  0  3  0  0  0  0  0  0
  191.6340  173.1930  140.6870 C   0  0  0  0  0  2  0  0  0  0  0  0
  193.4500  175.4080  142.0710 C   0  0  2  0  0  3  0  0  0  0  0  0
  191.5590  173.6880  142.1240 C   0  0  0  0  0  2  0  0  0  0  0  0
  191.9300  175.1660  142.1700 C   0  0  1  0  0  3  0  0  0  0  0  0
  186.3760  178.0700  145.3930 C   0  0  0  0  0  3  0  0  0  0  0  0
  188.0410  177.8810  143.1080 C   0  0  0  0  0  3  0  0  0  0  0  0
  184.4530  178.2100  142.2460 N   0  0  0  0  0  0  0  0  0  0  0  0
  183.3130  178.2910  141.3830 C   0  0  0  0  0  0  0  0  0  0  0  0
  184.3980  178.2090  143.7120 C   0  0  0  0  0  2  0  0  0  0  0  0
  183.4620  178.3890  140.1370 O   0  0  0  0  0  0  0  0  0  0  0  0
  185.8420  178.1030  144.1070 C   0  0  0  0  0  0  0  0  0  0  0  0
  181.9370  178.2900  141.9480 C   0  0  0  0  0  1  0  0  0  0  0  0
  185.8120  178.0630  141.8400 C   0  0  0  0  0  0  0  0  0  0  0  0
  186.6580  178.0100  143.0020 C   0  0  0  0  0  0  0  0  0  0  0  0
  186.1960  177.9670  140.6450 O   0  0  0  0  0  0  0  0  0  0  0  0
  188.6020  177.8430  144.3960 C   0  0  0  0  0  0  0  0  0  0  0  0
  187.7680  177.9420  145.5330 C   0  0  0  0  0  3  0  0  0  0  0  0
  193.0400  171.1020  140.7440 C   0  0  0  0  0  2  0  0  0  0  0  0
  191.6160  170.1840  140.0800 S   0  0  0  0  0  0  0  0  0  0  0  0
  191.1020  169.6470  141.7350 C   0  0  0  0  0  1  0  0  0  0  0  0
  1  5  1  6  0  0  0
  1 11  1  0  0  0  0
  2 13  1  0  0  0  0
  3 10  1  0  0  0  0
  5  9  1  0  0  0  0
  6  4  1  0  0  0  0
  6  8  1  0  0  0  0
  7  8  2  0  0  0  0
  9 30  1  6  0  0  0
  9  4  1  0  0  0  0
 10 11  1  0  0  0  0
 10 12  2  0  0  0  0
 11  6  2  0  0  0  0
 12  7  1  0  0  0  0
 14 15  1  0  0  0  0
 14 32  1  1  0  0  0
 14 13  1  0  0  0  0
 15 17  1  0  0  0  0
 16  2  1  6  0  0  0
 16 18  1  0  0  0  0
 16  3  1  0  0  0  0
 18 17  1  1  0  0  0
 18  1  1  0  0  0  0
 19 31  1  0  0  0  0
 20 30  1  0  0  0  0
 21 23  1  0  0  0  0
 22 26  1  0  0  0  0
 22 21  1  0  0  0  0
 23 25  1  0  0  0  0
 24 22  2  0  0  0  0
 25 19  2  0  0  0  0
 27 21  1  0  0  0  0
 27 28  1  0  0  0  0
 28 20  2  0  0  0  0
 28 25  1  0  0  0  0
 29 27  2  0  0  0  0
 30 31  2  0  0  0  0
 33 32  1  0  0  0  0
 33 34  1  0  0  0  0
M  END
>  <MODEL>
4

>  <REMARK>
 VINA RESULT:      -8.3      1.498      1.954
  Name = 
  3 active torsions:
  status: ('A' for Active; 'I' for Inactive)
    1  A    between atoms: C_3  and  S_13
    2  A    between atoms: C_3  and  C_25
    3  A    between atoms: C_18  and  C_30
                            x       y       z     vdW  Elec       q    Type
                         _______ _______ _______ _____ _____    ______ ____

>  <TORSDO>
F 3

$$$$
=
 OpenBabel11052420303D

 34 39  0  0  1  0  0  0  0  0999 V2000
  192.9950  174.0570  144.5500 C   0  0  2  0  0  3  0  0  0  0  0  0
  196.8570  174.0770  145.2710 C   0  0  0  0  0  2  0  0  0  0  0  0
  195.3670  172.4530  144.2010 O   0  0  0  0  0  0  0  0  0  0  0  0
  190.4800  172.8140  144.2790 C   0  0  0  0  0  2  0  0  0  0  0  0
  192.1180  174.2080  145.7860 C   0  0  0  0  0  2  0  0  0  0  0  0
  191.7070  172.0230  143.9330 C   0  0  0  0  0  0  0  0  0  0  0  0
  192.7940  170.0030  143.1510 C   0  0  0  0  0  3  0  0  0  0  0  0
  191.6240  170.7210  143.4390 C   0  0  0  0  0  3  0  0  0  0  0  0
  190.6860  173.6580  145.5620 C   0  0  1  0  0  3  0  0  0  0  0  0
  194.1300  171.8900  143.8780 C   0  0  0  0  0  0  0  0  0  0  0  0
  192.9590  172.6280  144.0860 C   0  0  0  0  0  0  0  0  0  0  0  0
  194.0460  170.5860  143.3810 C   0  0  0  0  0  3  0  0  0  0  0  0
  197.4910  174.4210  143.9260 C   0  0  0  0  0  2  0  0  0  0  0  0
  197.2750  175.8760  143.5090 C   0  0  2  0  0  3  0  0  0  0  0  0
  195.8610  176.4140  143.7650 C   0  0  0  0  0  2  0  0  0  0  0  0
  195.4280  173.5600  145.1000 C   0  0  2  0  0  3  0  0  0  0  0  0
  194.7680  175.4020  143.4550 C   0  0  0  0  0  2  0  0  0  0  0  0
  194.4000  174.6480  144.7280 C   0  0  1  0  0  3  0  0  0  0  0  0
  188.2860  176.2730  146.9780 C   0  0  0  0  0  3  0  0  0  0  0  0
  189.1570  175.3050  144.4600 C   0  0  0  0  0  3  0  0  0  0  0  0
  186.6460  178.0120  144.1660 N   0  0  0  0  0  0  0  0  0  0  0  0
  185.7730  178.9250  143.4900 C   0  0  0  0  0  0  0  0  0  0  0  0
  186.7530  177.8760  145.6230 C   0  0  0  0  0  2  0  0  0  0  0  0
  185.8230  179.0460  142.2380 O   0  0  0  0  0  0  0  0  0  0  0  0
  187.7860  176.8000  145.7890 C   0  0  0  0  0  0  0  0  0  0  0  0
  184.8150  179.7640  144.2590 C   0  0  0  0  0  1  0  0  0  0  0  0
  187.5080  177.0570  143.5530 C   0  0  0  0  0  0  0  0  0  0  0  0
  188.2120  176.3240  144.5710 C   0  0  0  0  0  0  0  0  0  0  0  0
  187.6060  176.8730  142.3120 O   0  0  0  0  0  0  0  0  0  0  0  0
  189.6740  174.7560  145.6470 C   0  0  0  0  0  0  0  0  0  0  0  0
  189.2410  175.2450  146.9000 C   0  0  0  0  0  3  0  0  0  0  0  0
  197.6660  176.0370  142.0460 C   0  0  0  0  0  2  0  0  0  0  0  0
  197.9380  174.4200  141.2580 S   0  0  0  0  0  0  0  0  0  0  0  0
  197.9400  175.1520  139.5980 C   0  0  0  0  0  1  0  0  0  0  0  0
  1 18  1  0  0  0  0
  1  5  1  1  0  0  0
  3 16  1  0  0  0  0
  4  9  1  0  0  0  0
  6 11  1  0  0  0  0
  6  4  1  0  0  0  0
  7 12  2  0  0  0  0
  7  8  1  0  0  0  0
  8  6  2  0  0  0  0
  9 30  1  6  0  0  0
  9  5  1  0  0  0  0
 10 11  2  0  0  0  0
 10  3  1  0  0  0  0
 11  1  1  0  0  0  0
 12 10  1  0  0  0  0
 13  2  1  0  0  0  0
 14 32  1  6  0  0  0
 14 15  1  0  0  0  0
 14 13  1  0  0  0  0
 16  2  1  6  0  0  0
 17 15  1  0  0  0  0
 18 17  1  6  0  0  0
 18 16  1  0  0  0  0
 20 28  2  0  0  0  0
 20 30  1  0  0  0  0
 21 23  1  0  0  0  0
 22 21  1  0  0  0  0
 22 26  1  0  0  0  0
 23 25  1  0  0  0  0
 24 22  2  0  0  0  0
 25 19  2  0  0  0  0
 27 21  1  0  0  0  0
 27 28  1  0  0  0  0
 28 25  1  0  0  0  0
 29 27  2  0  0  0  0
 30 31  2  0  0  0  0
 31 19  1  0  0  0  0
 33 32  1  0  0  0  0
 34 33  1  0  0  0  0
M  END
>  <MODEL>
5

>  <REMARK>
 VINA RESULT:      -7.9      3.399      5.492
  Name = 
  3 active torsions:
  status: ('A' for Active; 'I' for Inactive)
    1  A    between atoms: C_3  and  S_13
    2  A    between atoms: C_3  and  C_25
    3  A    between atoms: C_18  and  C_30
                            x       y       z     vdW  Elec       q    Type
                         _______ _______ _______ _____ _____    ______ ____

>  <TORSDO>
F 3

$$$$
=
 OpenBabel11052420303D

 34 39  0  0  1  0  0  0  0  0999 V2000
  193.3130  174.0470  143.9680 C   0  0  2  0  0  3  0  0  0  0  0  0
  194.2790  170.8900  141.8380 C   0  0  0  0  0  2  0  0  0  0  0  0
  195.5520  172.8350  142.6120 O   0  0  0  0  0  0  0  0  0  0  0  0
  193.4810  176.7720  144.6680 C   0  0  0  0  0  2  0  0  0  0  0  0
  192.1840  174.8850  143.3830 C   0  0  0  0  0  2  0  0  0  0  0  0
  194.7050  176.1000  144.1180 C   0  0  0  0  0  0  0  0  0  0  0  0
  197.0360  176.1230  143.4530 C   0  0  0  0  0  3  0  0  0  0  0  0
  195.9190  176.7770  143.9960 C   0  0  0  0  0  3  0  0  0  0  0  0
  192.2020  176.3450  143.9060 C   0  0  1  0  0  3  0  0  0  0  0  0
  195.7070  174.1220  143.1310 C   0  0  0  0  0  0  0  0  0  0  0  0
  194.6210  174.7540  143.7480 C   0  0  0  0  0  0  0  0  0  0  0  0
  196.9240  174.8000  143.0110 C   0  0  0  0  0  3  0  0  0  0  0  0
  195.0170  169.9830  142.8190 C   0  0  0  0  0  2  0  0  0  0  0  0
  194.0990  169.3480  143.8640 C   0  0  2  0  0  3  0  0  0  0  0  0
  193.0460  170.2950  144.4560 C   0  0  0  0  0  2  0  0  0  0  0  0
  194.2440  172.3370  142.3310 C   0  0  2  0  0  3  0  0  0  0  0  0
  193.5780  171.6970  144.7140 C   0  0  0  0  0  2  0  0  0  0  0  0
  193.2800  172.5830  143.5100 C   0  0  1  0  0  3  0  0  0  0  0  0
  189.8070  176.6850  146.8640 C   0  0  0  0  0  3  0  0  0  0  0  0
  189.8370  177.1470  144.0680 C   0  0  0  0  0  3  0  0  0  0  0  0
  186.5920  178.0140  145.6320 N   0  0  0  0  0  0  0  0  0  0  0  0
  185.2330  178.4650  145.6710 C   0  0  0  0  0  0  0  0  0  0  0  0
  187.3490  177.5270  146.7900 C   0  0  0  0  0  2  0  0  0  0  0  0
  184.6970  178.9630  144.6470 O   0  0  0  0  0  0  0  0  0  0  0  0
  188.6880  177.1870  146.2040 C   0  0  0  0  0  0  0  0  0  0  0  0
  184.4450  178.3780  146.9300 C   0  0  0  0  0  1  0  0  0  0  0  0
  187.4150  177.9100  144.4720 C   0  0  0  0  0  0  0  0  0  0  0  0
  188.7100  177.4070  144.8460 C   0  0  0  0  0  0  0  0  0  0  0  0
  187.0430  178.1900  143.3020 O   0  0  0  0  0  0  0  0  0  0  0  0
  190.9770  176.6380  144.7130 C   0  0  0  0  0  0  0  0  0  0  0  0
  190.9600  176.4140  146.1080 C   0  0  0  0  0  3  0  0  0  0  0  0
  194.9520  168.7250  144.9620 C   0  0  0  0  0  2  0  0  0  0  0  0
  196.7150  169.0920  144.7090 S   0  0  0  0  0  0  0  0  0  0  0  0
  196.7610  170.1970  146.1480 C   0  0  0  0  0  1  0  0  0  0  0  0
  1  5  1  6  0  0  0
  2 13  1  0  0  0  0
  3 10  1  0  0  0  0
  5  9  1  0  0  0  0
  6  4  1  0  0  0  0
  7  8  2  0  0  0  0
  8  6  1  0  0  0  0
  9  4  1  0  0  0  0
  9 30  1  1  0  0  0
 10 11  1  0  0  0  0
 11  1  1  0  0  0  0
 11  6  2  0  0  0  0
 12 10  2  0  0  0  0
 12  7  1  0  0  0  0
 13 14  1  0  0  0  0
 14 15  1  0  0  0  0
 14 32  1  1  0  0  0
 15 17  1  0  0  0  0
 16  2  1  1  0  0  0
 16  3  1  0  0  0  0
 16 18  1  0  0  0  0
 18  1  1  0  0  0  0
 18 17  1  1  0  0  0
 20 30  2  0  0  0  0
 20 28  1  0  0  0  0
 21 22  1  0  0  0  0
 21 23  1  0  0  0  0
 22 26  1  0  0  0  0
 24 22  2  0  0  0  0
 25 23  1  0  0  0  0
 25 19  1  0  0  0  0
 27 28  1  0  0  0  0
 27 21  1  0  0  0  0
 28 25  2  0  0  0  0
 29 27  2  0  0  0  0
 30 31  1  0  0  0  0
 31 19  2  0  0  0  0
 33 32  1  0  0  0  0
 33 34  1  0  0  0  0
M  END
>  <MODEL>
6

>  <REMARK>
 VINA RESULT:      -7.8      3.428      5.077
  Name = 
  3 active torsions:
  status: ('A' for Active; 'I' for Inactive)
    1  A    between atoms: C_3  and  S_13
    2  A    between atoms: C_3  and  C_25
    3  A    between atoms: C_18  and  C_30
                            x       y       z     vdW  Elec       q    Type
                         _______ _______ _______ _____ _____    ______ ____

>  <TORSDO>
F 3

$$$$
=
 OpenBabel11052420303D

 34 39  0  0  1  0  0  0  0  0999 V2000
  194.1820  175.0480  143.1740 C   0  0  2  0  0  3  0  0  0  0  0  0
  197.7660  175.6700  141.6860 C   0  0  0  0  0  2  0  0  0  0  0  0
  196.8230  173.8900  143.0820 O   0  0  0  0  0  0  0  0  0  0  0  0
  192.3870  174.1450  145.1500 C   0  0  0  0  0  2  0  0  0  0  0  0
  193.6620  176.1680  144.0640 C   0  0  0  0  0  2  0  0  0  0  0  0
  193.6960  173.4280  144.9940 C   0  0  0  0  0  0  0  0  0  0  0  0
  195.2580  171.6800  145.6090 C   0  0  0  0  0  3  0  0  0  0  0  0
  194.0140  172.3090  145.7650 C   0  0  0  0  0  3  0  0  0  0  0  0
  192.5590  175.6810  145.0390 C   0  0  1  0  0  3  0  0  0  0  0  0
  195.8730  173.3130  143.9270 C   0  0  0  0  0  0  0  0  0  0  0  0
  194.6000  173.8860  144.0300 C   0  0  0  0  0  0  0  0  0  0  0  0
  196.1900  172.1900  144.6980 C   0  0  0  0  0  3  0  0  0  0  0  0
  197.8480  174.7260  140.4910 C   0  0  0  0  0  2  0  0  0  0  0  0
  196.9750  175.1610  139.3140 C   0  0  2  0  0  3  0  0  0  0  0  0
  195.5790  175.6650  139.7010 C   0  0  0  0  0  2  0  0  0  0  0  0
  196.6660  175.2460  142.6610 C   0  0  2  0  0  3  0  0  0  0  0  0
  194.9370  174.8560  140.8190 C   0  0  0  0  0  2  0  0  0  0  0  0
  195.2330  175.5200  142.1590 C   0  0  1  0  0  3  0  0  0  0  0  0
  189.8890  177.8330  143.3530 C   0  0  0  0  0  3  0  0  0  0  0  0
  190.1510  176.0960  145.5780 C   0  0  0  0  0  3  0  0  0  0  0  0
  186.7400  177.5030  145.2490 N   0  0  0  0  0  0  0  0  0  0  0  0
  185.3700  177.7230  145.6080 C   0  0  0  0  0  0  0  0  0  0  0  0
  187.4240  178.1400  144.1180 C   0  0  0  0  0  2  0  0  0  0  0  0
  184.8380  177.0540  146.5320 O   0  0  0  0  0  0  0  0  0  0  0  0
  188.8120  177.5740  144.1980 C   0  0  0  0  0  0  0  0  0  0  0  0
  184.5490  178.7240  144.8760 C   0  0  0  0  0  1  0  0  0  0  0  0
  187.6750  176.6840  145.9460 C   0  0  0  0  0  0  0  0  0  0  0  0
  188.9470  176.7310  145.2770 C   0  0  0  0  0  0  0  0  0  0  0  0
  187.4210  176.0450  147.0010 O   0  0  0  0  0  0  0  0  0  0  0  0
  191.2520  176.3440  144.7410 C   0  0  0  0  0  0  0  0  0  0  0  0
  191.1160  177.2070  143.6290 C   0  0  0  0  0  3  0  0  0  0  0  0
  196.8850  174.0170  138.3120 C   0  0  0  0  0  2  0  0  0  0  0  0
  195.7270  174.4140  136.9670 S   0  0  0  0  0  0  0  0  0  0  0  0
  197.0190  175.2530  136.0090 C   0  0  0  0  0  1  0  0  0  0  0  0
  1 11  1  0  0  0  0
  1  5  1  1  0  0  0
  3 10  1  0  0  0  0
  5  9  1  0  0  0  0
  6  4  1  0  0  0  0
  6  8  1  0  0  0  0
  7  8  2  0  0  0  0
  9 30  1  6  0  0  0
  9  4  1  0  0  0  0
 10 11  1  0  0  0  0
 10 12  2  0  0  0  0
 11  6  2  0  0  0  0
 12  7  1  0  0  0  0
 13  2  1  0  0  0  0
 14 32  1  6  0  0  0
 14 15  1  0  0  0  0
 14 13  1  0  0  0  0
 15 17  1  0  0  0  0
 16  2  1  6  0  0  0
 16  3  1  0  0  0  0
 18 17  1  6  0  0  0
 18 16  1  0  0  0  0
 18  1  1  0  0  0  0
 19 31  2  0  0  0  0
 19 25  1  0  0  0  0
 21 22  1  0  0  0  0
 21 27  1  0  0  0  0
 22 24  2  0  0  0  0
 23 25  1  0  0  0  0
 23 21  1  0  0  0  0
 25 28  2  0  0  0  0
 26 22  1  0  0  0  0
 27 29  2  0  0  0  0
 28 20  1  0  0  0  0
 28 27  1  0  0  0  0
 30 20  2  0  0  0  0
 31 30  1  0  0  0  0
 33 32  1  0  0  0  0
 34 33  1  0  0  0  0
M  END
>  <MODEL>
7

>  <REMARK>
 VINA RESULT:      -7.8      4.007      5.711
  Name = 
  3 active torsions:
  status: ('A' for Active; 'I' for Inactive)
    1  A    between atoms: C_3  and  S_13
    2  A    between atoms: C_3  and  C_25
    3  A    between atoms: C_18  and  C_30
                            x       y       z     vdW  Elec       q    Type
                         _______ _______ _______ _____ _____    ______ ____

>  <TORSDO>
F 3

$$$$
=
 OpenBabel11052420303D

 34 39  0  0  1  0  0  0  0  0999 V2000
  192.7620  174.9470  142.9900 C   0  0  2  0  0  3  0  0  0  0  0  0
  193.9500  174.3700  139.2900 C   0  0  0  0  0  2  0  0  0  0  0  0
  195.0540  174.0950  141.4600 O   0  0  0  0  0  0  0  0  0  0  0  0
  193.1440  175.6940  145.6810 C   0  0  0  0  0  2  0  0  0  0  0  0
  192.2870  176.3630  143.2900 C   0  0  0  0  0  2  0  0  0  0  0  0
  194.2990  175.0920  144.9370 C   0  0  0  0  0  0  0  0  0  0  0  0
  196.5920  174.3130  144.8230 C   0  0  0  0  0  3  0  0  0  0  0  0
  195.5260  174.8540  145.5580 C   0  0  0  0  0  3  0  0  0  0  0  0
  192.3580  176.7000  144.8020 C   0  0  1  0  0  3  0  0  0  0  0  0
  195.2030  174.2780  142.8370 C   0  0  0  0  0  0  0  0  0  0  0  0
  194.1220  174.7410  143.5950 C   0  0  0  0  0  0  0  0  0  0  0  0
  196.4320  174.0370  143.4600 C   0  0  0  0  0  3  0  0  0  0  0  0
  193.8830  172.8570  139.1030 C   0  0  0  0  0  2  0  0  0  0  0  0
  192.4540  172.3190  139.0270 C   0  0  2  0  0  3  0  0  0  0  0  0
  191.4810  172.9340  140.0420 C   0  0  0  0  0  2  0  0  0  0  0  0
  193.9880  174.7500  140.7710 C   0  0  2  0  0  3  0  0  0  0  0  0
  192.1020  173.1500  141.4140 C   0  0  0  0  0  2  0  0  0  0  0  0
  192.6450  174.5710  141.5060 C   0  0  1  0  0  3  0  0  0  0  0  0
  189.4520  177.0130  147.2640 C   0  0  0  0  0  3  0  0  0  0  0  0
  189.9540  177.3260  144.4920 C   0  0  0  0  0  3  0  0  0  0  0  0
  186.4320  178.0240  145.4000 N   0  0  0  0  0  0  0  0  0  0  0  0
  185.0610  178.3710  145.1690 C   0  0  0  0  0  0  0  0  0  0  0  0
  186.9980  177.6590  146.7030 C   0  0  0  0  0  2  0  0  0  0  0  0
  184.6870  178.7710  144.0360 O   0  0  0  0  0  0  0  0  0  0  0  0
  188.4400  177.3920  146.3850 C   0  0  0  0  0  0  0  0  0  0  0  0
  184.0660  178.2910  146.2720 C   0  0  0  0  0  1  0  0  0  0  0  0
  187.4550  177.9220  144.4120 C   0  0  0  0  0  0  0  0  0  0  0  0
  188.6910  177.5400  145.0400 C   0  0  0  0  0  0  0  0  0  0  0  0
  187.2820  178.1100  143.1790 O   0  0  0  0  0  0  0  0  0  0  0  0
  190.9910  176.9410  145.3600 C   0  0  0  0  0  0  0  0  0  0  0  0
  190.7380  176.7910  146.7420 C   0  0  0  0  0  3  0  0  0  0  0  0
  192.4870  170.8010  139.1510 C   0  0  0  0  0  2  0  0  0  0  0  0
  190.8050  170.1080  139.1650 S   0  0  0  0  0  0  0  0  0  0  0  0
  191.1300  169.1730  140.6860 C   0  0  0  0  0  1  0  0  0  0  0  0
  1  5  1  6  0  0  0
  1 11  1  0  0  0  0
  3 10  1  0  0  0  0
  5  9  1  0  0  0  0
  6  8  1  0  0  0  0
  6  4  1  0  0  0  0
  7  8  2  0  0  0  0
  9 30  1  1  0  0  0
  9  4  1  0  0  0  0
 10 12  2  0  0  0  0
 10 11  1  0  0  0  0
 11  6  2  0  0  0  0
 12  7  1  0  0  0  0
 13  2  1  0  0  0  0
 14 13  1  0  0  0  0
 14 32  1  1  0  0  0
 14 15  1  0  0  0  0
 15 17  1  0  0  0  0
 16  2  1  6  0  0  0
 16  3  1  0  0  0  0
 16 18  1  0  0  0  0
 18 17  1  1  0  0  0
 18  1  1  0  0  0  0
 20 28  2  0  0  0  0
 20 30  1  0  0  0  0
 21 23  1  0  0  0  0
 22 21  1  0  0  0  0
 22 26  1  0  0  0  0
 24 22  2  0  0  0  0
 25 23  1  0  0  0  0
 25 19  2  0  0  0  0
 27 28  1  0  0  0  0
 27 21  1  0  0  0  0
 28 25  1  0  0  0  0
 29 27  2  0  0  0  0
 30 31  2  0  0  0  0
 31 19  1  0  0  0  0
 32 33  1  0  0  0  0
 33 34  1  0  0  0  0
M  END
>  <MODEL>
8

>  <REMARK>
 VINA RESULT:      -7.7      2.495      4.132
  Name = 
  3 active torsions:
  status: ('A' for Active; 'I' for Inactive)
    1  A    between atoms: C_3  and  S_13
    2  A    between atoms: C_3  and  C_25
    3  A    between atoms: C_18  and  C_30
                            x       y       z     vdW  Elec       q    Type
                         _______ _______ _______ _____ _____    ______ ____

>  <TORSDO>
F 3

$$$$
=
 OpenBabel11052420303D

 34 39  0  0  1  0  0  0  0  0999 V2000
  194.6200  175.2630  143.2610 C   0  0  2  0  0  3  0  0  0  0  0  0
  197.2340  176.0390  140.4310 C   0  0  0  0  0  2  0  0  0  0  0  0
  197.2540  174.5150  142.3500 O   0  0  0  0  0  0  0  0  0  0  0  0
  193.8680  174.5930  145.8930 C   0  0  0  0  0  2  0  0  0  0  0  0
  194.2040  176.4710  144.0880 C   0  0  0  0  0  2  0  0  0  0  0  0
  195.1660  174.0590  145.3650 C   0  0  0  0  0  0  0  0  0  0  0  0
  197.1920  172.7500  145.6060 C   0  0  0  0  0  3  0  0  0  0  0  0
  195.9720  173.2100  146.1240 C   0  0  0  0  0  3  0  0  0  0  0  0
  193.6440  176.0690  145.4770 C   0  0  1  0  0  3  0  0  0  0  0  0
  196.8080  174.0180  143.5770 C   0  0  0  0  0  0  0  0  0  0  0  0
  195.5550  174.4060  144.0670 C   0  0  0  0  0  0  0  0  0  0  0  0
  197.6140  173.1650  144.3380 C   0  0  0  0  0  3  0  0  0  0  0  0
  197.1060  174.8640  139.4660 C   0  0  0  0  0  2  0  0  0  0  0  0
  195.8070  174.8800  138.6610 C   0  0  2  0  0  3  0  0  0  0  0  0
  194.5560  175.2510  139.4680 C   0  0  0  0  0  2  0  0  0  0  0  0
  196.6630  175.6970  141.8080 C   0  0  2  0  0  3  0  0  0  0  0  0
  194.5370  174.6400  140.8610 C   0  0  0  0  0  2  0  0  0  0  0  0
  195.1230  175.6330  141.8580 C   0  0  1  0  0  3  0  0  0  0  0  0
  190.1910  176.7480  146.9660 C   0  0  0  0  0  3  0  0  0  0  0  0
  191.4990  176.8550  144.4540 C   0  0  0  0  0  3  0  0  0  0  0  0
  187.9420  177.8690  144.2640 N   0  0  0  0  0  0  0  0  0  0  0  0
  186.7330  178.3030  143.6290 C   0  0  0  0  0  0  0  0  0  0  0  0
  188.0720  177.5420  145.6880 C   0  0  0  0  0  2  0  0  0  0  0  0
  186.7390  178.6610  142.4220 O   0  0  0  0  0  0  0  0  0  0  0  0
  189.5140  177.1480  145.8160 C   0  0  0  0  0  0  0  0  0  0  0  0
  185.4590  178.3650  144.3950 C   0  0  0  0  0  1  0  0  0  0  0  0
  189.1930  177.6300  143.6240 C   0  0  0  0  0  0  0  0  0  0  0  0
  190.1560  177.1960  144.6000 C   0  0  0  0  0  0  0  0  0  0  0  0
  189.4020  177.7570  142.3890 O   0  0  0  0  0  0  0  0  0  0  0  0
  192.2020  176.4460  145.6010 C   0  0  0  0  0  0  0  0  0  0  0  0
  191.5470  176.3990  146.8520 C   0  0  0  0  0  3  0  0  0  0  0  0
  195.6330  173.5330  137.9700 C   0  0  0  0  0  2  0  0  0  0  0  0
  196.8510  172.3250  138.5750 S   0  0  0  0  0  0  0  0  0  0  0  0
  195.5840  171.4040  139.4910 C   0  0  0  0  0  1  0  0  0  0  0  0
  1 11  1  0  0  0  0
  1  5  1  1  0  0  0
  3 10  1  0  0  0  0
  5  9  1  0  0  0  0
  6  4  1  0  0  0  0
  6  8  1  0  0  0  0
  7  8  2  0  0  0  0
  9 30  1  6  0  0  0
  9  4  1  0  0  0  0
 10 11  1  0  0  0  0
 10 12  2  0  0  0  0
 11  6  2  0  0  0  0
 12  7  1  0  0  0  0
 13  2  1  0  0  0  0
 14 32  1  1  0  0  0
 14 13  1  0  0  0  0
 14 15  1  0  0  0  0
 15 17  1  0  0  0  0
 16  2  1  6  0  0  0
 16 18  1  0  0  0  0
 16  3  1  0  0  0  0
 18 17  1  6  0  0  0
 18  1  1  0  0  0  0
 20 28  2  0  0  0  0
 20 30  1  0  0  0  0
 21 23  1  0  0  0  0
 22 21  1  0  0  0  0
 22 26  1  0  0  0  0
 23 25  1  0  0  0  0
 24 22  2  0  0  0  0
 25 19  2  0  0  0  0
 27 21  1  0  0  0  0
 27 28  1  0  0  0  0
 28 25  1  0  0  0  0
 29 27  2  0  0  0  0
 30 31  2  0  0  0  0
 31 19  1  0  0  0  0
 32 33  1  0  0  0  0
 33 34  1  0  0  0  0
M  END
>  <MODEL>
9

>  <REMARK>
 VINA RESULT:      -7.7      3.785      5.669
  Name = 
  3 active torsions:
  status: ('A' for Active; 'I' for Inactive)
    1  A    between atoms: C_3  and  S_13
    2  A    between atoms: C_3  and  C_25
    3  A    between atoms: C_18  and  C_30
                            x       y       z     vdW  Elec       q    Type
                         _______ _______ _______ _____ _____    ______ ____

>  <TORSDO>
F 3

$$$$
