=
 OpenBabel11052417073D

 30 33  0  0  1  0  0  0  0  0999 V2000
  188.2010  177.9830  144.4950 C   0  0  0  0  0  2  0  0  0  0  0  0
  188.0770  176.6100  143.8480 C   0  0  1  0  0  0  0  0  0  0  0  0
  188.0920  173.9200  141.2840 C   0  0  0  0  0  2  0  0  0  0  0  0
  189.3050  174.4360  143.5170 C   0  0  0  0  0  2  0  0  0  0  0  0
  186.7910  177.4280  141.7250 C   0  0  0  0  0  2  0  0  0  0  0  0
  189.3860  175.9510  143.3400 C   0  0  2  0  0  3  0  0  0  0  0  0
  187.7920  177.0400  140.6440 C   0  0  0  0  0  2  0  0  0  0  0  0
  188.4560  174.7510  140.1470 N   0  0  0  0  0  2  0  0  0  0  0  0
  187.8090  176.7890  145.3590 C   0  0  2  0  0  0  0  0  0  0  0  0
  186.0560  175.6500  143.0730 O   0  0  0  0  0  0  0  0  0  0  0  0
  186.8960  176.5240  142.9150 C   0  0  0  0  0  0  0  0  0  0  0  0
  187.3950  175.7310  139.9770 C   0  0  0  0  0  2  0  0  0  0  0  0
  190.2040  173.0480  141.8440 O   0  0  0  0  0  0  0  0  0  0  0  0
  189.2700  173.7530  142.1870 C   0  0  0  0  0  0  0  0  0  0  0  0
  184.8260  178.2070  147.1300 C   0  0  1  0  0  3  0  0  0  0  0  0
  185.7810  178.1850  145.9540 C   0  0  1  0  0  3  0  0  0  0  0  0
  186.0760  177.3520  147.1730 C   0  0  2  0  0  3  0  0  0  0  0  0
  185.0320  179.3680  147.8730 O   0  0  0  0  0  1  0  0  0  0  0  0
  186.3220  176.7720  145.7880 C   0  0  2  0  0  3  0  0  0  0  0  0
  191.2470  177.4480  142.9320 O   0  0  0  0  0  1  0  0  0  0  0  0
  190.7200  176.5390  143.8520 C   0  0  2  0  0  3  0  0  0  0  0  0
  191.7680  175.4660  144.1740 C   0  0  0  0  0  2  0  0  0  0  0  0
  193.0260  174.4390  146.0710 C   0  0  0  0  0  1  0  0  0  0  0  0
  193.7170  176.6240  145.1690 C   0  0  0  0  0  1  0  0  0  0  0  0
  192.5280  175.7380  145.4680 C   0  0  0  0  0  3  0  0  0  0  0  0
  188.9200  176.3040  146.3120 C   0  0  2  0  0  3  0  0  0  0  0  0
  188.4530  175.2680  147.1270 O   0  0  0  0  0  0  0  0  0  0  0  0
  189.5690  174.4680  147.3790 C   0  0  0  0  0  1  0  0  0  0  0  0
  189.4390  177.4060  147.1380 C   0  0  0  0  0  0  0  0  0  0  0  0
  189.8480  178.2720  147.7880 N   0  0  0  0  0  0  0  0  0  0  0  0
  1  9  1  0  0  0  0
  2  1  1  6  0  0  0
  2  9  1  0  0  0  0
  3 14  1  0  0  0  0
  5 11  1  0  0  0  0
  6  4  1  0  0  0  0
  6  2  1  0  0  0  0
  6 21  1  1  0  0  0
  7  5  1  0  0  0  0
  8  3  1  0  0  0  0
  9 19  1  0  0  0  0
  9 26  1  1  0  0  0
 11 10  2  0  0  0  0
 11  2  1  0  0  0  0
 12  8  1  0  0  0  0
 12  7  1  0  0  0  0
 13 14  2  0  0  0  0
 14  4  1  0  0  0  0
 15 17  1  0  0  0  0
 15 18  1  0  0  0  0
 16 15  1  0  0  0  0
 16 17  1  0  0  0  0
 19 16  1  0  0  0  0
 19 17  1  0  0  0  0
 20 21  1  0  0  0  0
 21 22  1  0  0  0  0
 22 25  1  0  0  0  0
 24 25  1  0  0  0  0
 25 23  1  0  0  0  0
 26 27  1  0  0  0  0
 26 29  1  0  0  0  0
 27 28  1  0  0  0  0
 29 30  3  0  0  0  0
M  END
>  <MODEL>
1

>  <REMARK>
 VINA RESULT:      -5.9      0.000      0.000
  Name = 
  7 active torsions:
  status: ('A' for Active; 'I' for Inactive)
    1  A    between atoms: O_2  and  C_14
    2  A    between atoms: C_6  and  C_12
    3  A    between atoms: C_6  and  C_21
    4  A    between atoms: C_12  and  C_13
    5  A    between atoms: C_14  and  C_20
    6  A    between atoms: C_14  and  C_22
    7  A    between atoms: C_22  and  C_29
                            x       y       z     vdW  Elec       q    Type
                         _______ _______ _______ _____ _____    ______ ____

>  <TORSDO>
F 7

$$$$
=
 OpenBabel11052417073D

 30 33  0  0  1  0  0  0  0  0999 V2000
  189.3230  176.2090  142.2750 C   0  0  0  0  0  2  0  0  0  0  0  0
  189.3330  174.7160  142.5770 C   0  0  1  0  0  0  0  0  0  0  0  0
  190.1000  171.0880  142.3340 C   0  0  0  0  0  2  0  0  0  0  0  0
  190.3790  172.9860  144.0790 C   0  0  0  0  0  2  0  0  0  0  0  0
  189.0710  173.9390  140.0960 C   0  0  0  0  0  2  0  0  0  0  0  0
  190.6670  174.1110  143.0870 C   0  0  2  0  0  3  0  0  0  0  0  0
  190.3750  173.1700  139.9210 C   0  0  0  0  0  2  0  0  0  0  0  0
  190.9590  171.1590  141.1630 N   0  0  0  0  0  2  0  0  0  0  0  0
  188.5100  175.6850  143.4560 C   0  0  2  0  0  0  0  0  0  0  0  0
  187.6990  173.1700  141.8410 O   0  0  0  0  0  0  0  0  0  0  0  0
  188.6120  173.9160  141.5220 C   0  0  0  0  0  0  0  0  0  0  0  0
  190.1490  171.6720  140.0700 C   0  0  0  0  0  2  0  0  0  0  0  0
  191.7270  171.0580  144.0330 O   0  0  0  0  0  0  0  0  0  0  0  0
  190.8050  171.6670  143.5170 C   0  0  0  0  0  0  0  0  0  0  0  0
  185.2220  177.3500  142.7750 C   0  0  1  0  0  3  0  0  0  0  0  0
  186.5560  176.8090  142.3010 C   0  0  1  0  0  3  0  0  0  0  0  0
  186.2670  176.8990  143.7760 C   0  0  2  0  0  3  0  0  0  0  0  0
  185.2310  178.7410  142.6920 O   0  0  0  0  0  1  0  0  0  0  0  0
  186.9810  175.6740  143.2220 C   0  0  2  0  0  3  0  0  0  0  0  0
  192.6840  175.3660  142.6060 O   0  0  0  0  0  1  0  0  0  0  0  0
  191.7410  175.0960  143.6010 C   0  0  2  0  0  3  0  0  0  0  0  0
  192.4550  174.6030  144.8650 C   0  0  0  0  0  2  0  0  0  0  0  0
  192.2850  175.7820  147.0610 C   0  0  0  0  0  1  0  0  0  0  0  0
  194.4780  175.5050  145.9740 C   0  0  0  0  0  1  0  0  0  0  0  0
  193.0030  175.7370  145.7260 C   0  0  0  0  0  3  0  0  0  0  0  0
  189.1050  176.0280  144.8360 C   0  0  2  0  0  3  0  0  0  0  0  0
  188.1210  175.9570  145.8280 O   0  0  0  0  0  0  0  0  0  0  0  0
  188.7130  175.2570  146.8820 C   0  0  0  0  0  1  0  0  0  0  0  0
  189.7310  177.3600  144.8370 C   0  0  0  0  0  0  0  0  0  0  0  0
  190.2250  178.4060  144.8370 N   0  0  0  0  0  0  0  0  0  0  0  0
  1  9  1  0  0  0  0
  2  1  1  6  0  0  0
  2  6  1  0  0  0  0
  2  9  1  0  0  0  0
  3 14  1  0  0  0  0
  5 11  1  0  0  0  0
  6 21  1  1  0  0  0
  6  4  1  0  0  0  0
  7 12  1  0  0  0  0
  7  5  1  0  0  0  0
  8  3  1  0  0  0  0
  9 26  1  1  0  0  0
 11 10  2  0  0  0  0
 11  2  1  0  0  0  0
 12  8  1  0  0  0  0
 14 13  2  0  0  0  0
 14  4  1  0  0  0  0
 15 17  1  0  0  0  0
 16 15  1  0  0  0  0
 16 19  1  0  0  0  0
 16 17  1  0  0  0  0
 18 15  1  0  0  0  0
 19  9  1  0  0  0  0
 19 17  1  0  0  0  0
 20 21  1  0  0  0  0
 21 22  1  0  0  0  0
 22 25  1  0  0  0  0
 25 24  1  0  0  0  0
 25 23  1  0  0  0  0
 26 29  1  0  0  0  0
 26 27  1  0  0  0  0
 27 28  1  0  0  0  0
 29 30  3  0  0  0  0
M  END
>  <MODEL>
2

>  <REMARK>
 VINA RESULT:      -5.6      2.261      3.121
  Name = 
  7 active torsions:
  status: ('A' for Active; 'I' for Inactive)
    1  A    between atoms: O_2  and  C_14
    2  A    between atoms: C_6  and  C_12
    3  A    between atoms: C_6  and  C_21
    4  A    between atoms: C_12  and  C_13
    5  A    between atoms: C_14  and  C_20
    6  A    between atoms: C_14  and  C_22
    7  A    between atoms: C_22  and  C_29
                            x       y       z     vdW  Elec       q    Type
                         _______ _______ _______ _____ _____    ______ ____

>  <TORSDO>
F 7

$$$$
=
 OpenBabel11052417073D

 30 33  0  0  1  0  0  0  0  0999 V2000
  189.8590  174.6310  144.7680 C   0  0  0  0  0  2  0  0  0  0  0  0
  191.1410  175.3480  144.3700 C   0  0  1  0  0  0  0  0  0  0  0  0
  194.7430  176.0180  143.7430 C   0  0  0  0  0  2  0  0  0  0  0  0
  192.5400  175.9890  142.3750 C   0  0  0  0  0  2  0  0  0  0  0  0
  192.5430  174.5550  146.4290 C   0  0  0  0  0  2  0  0  0  0  0  0
  191.8790  174.8240  143.1100 C   0  0  2  0  0  3  0  0  0  0  0  0
  193.6300  173.7610  145.7180 C   0  0  0  0  0  2  0  0  0  0  0  0
  195.2490  174.7250  144.1760 N   0  0  0  0  0  2  0  0  0  0  0  0
  189.7780  176.0650  144.2540 C   0  0  2  0  0  0  0  0  0  0  0  0
  192.3740  176.8050  145.7710 O   0  0  0  0  0  0  0  0  0  0  0  0
  192.0150  175.6560  145.5590 C   0  0  0  0  0  0  0  0  0  0  0  0
  194.9050  174.5810  145.5810 C   0  0  0  0  0  2  0  0  0  0  0  0
  194.6650  175.6680  141.4180 O   0  0  0  0  0  0  0  0  0  0  0  0
  194.0290  175.8730  142.4390 C   0  0  0  0  0  0  0  0  0  0  0  0
  187.6350  177.5790  146.9300 C   0  0  1  0  0  3  0  0  0  0  0  0
  188.6160  176.5260  146.4570 C   0  0  1  0  0  3  0  0  0  0  0  0
  187.9980  177.4720  145.4630 C   0  0  2  0  0  3  0  0  0  0  0  0
  186.3900  176.9890  147.1440 O   0  0  0  0  0  1  0  0  0  0  0  0
  189.4730  177.1170  145.3460 C   0  0  2  0  0  3  0  0  0  0  0  0
  191.2900  172.5540  142.5010 O   0  0  0  0  0  1  0  0  0  0  0  0
  191.0890  173.8950  142.1630 C   0  0  2  0  0  3  0  0  0  0  0  0
  191.4330  174.1080  140.6830 C   0  0  0  0  0  2  0  0  0  0  0  0
  189.0970  173.8910  139.8260 C   0  0  0  0  0  1  0  0  0  0  0  0
  191.0070  173.5170  138.3170 C   0  0  0  0  0  1  0  0  0  0  0  0
  190.5100  173.3480  139.7360 C   0  0  0  0  0  3  0  0  0  0  0  0
  189.1940  176.1970  142.8340 C   0  0  2  0  0  3  0  0  0  0  0  0
  189.3100  177.5130  142.3730 O   0  0  0  0  0  0  0  0  0  0  0  0
  188.2020  177.7110  141.5470 C   0  0  0  0  0  1  0  0  0  0  0  0
  187.7880  175.7650  142.7860 C   0  0  0  0  0  0  0  0  0  0  0  0
  186.6830  175.4240  142.7510 N   0  0  0  0  0  0  0  0  0  0  0  0
  2  1  1  1  0  0  0
  2 11  1  0  0  0  0
  3  8  1  0  0  0  0
  4 14  1  0  0  0  0
  4  6  1  0  0  0  0
  6 21  1  6  0  0  0
  6  2  1  0  0  0  0
  7  5  1  0  0  0  0
  8 12  1  0  0  0  0
  9 26  1  6  0  0  0
  9  2  1  0  0  0  0
  9  1  1  0  0  0  0
  9 19  1  0  0  0  0
 11 10  2  0  0  0  0
 11  5  1  0  0  0  0
 12  7  1  0  0  0  0
 13 14  2  0  0  0  0
 14  3  1  0  0  0  0
 15 18  1  0  0  0  0
 16 15  1  0  0  0  0
 17 16  1  0  0  0  0
 17 15  1  0  0  0  0
 19 17  1  0  0  0  0
 19 16  1  0  0  0  0
 21 20  1  0  0  0  0
 22 21  1  0  0  0  0
 24 25  1  0  0  0  0
 25 23  1  0  0  0  0
 25 22  1  0  0  0  0
 27 26  1  0  0  0  0
 28 27  1  0  0  0  0
 29 26  1  0  0  0  0
 30 29  3  0  0  0  0
M  END
>  <MODEL>
3

>  <REMARK>
 VINA RESULT:      -5.4      2.437      5.592
  Name = 
  7 active torsions:
  status: ('A' for Active; 'I' for Inactive)
    1  A    between atoms: O_2  and  C_14
    2  A    between atoms: C_6  and  C_12
    3  A    between atoms: C_6  and  C_21
    4  A    between atoms: C_12  and  C_13
    5  A    between atoms: C_14  and  C_20
    6  A    between atoms: C_14  and  C_22
    7  A    between atoms: C_22  and  C_29
                            x       y       z     vdW  Elec       q    Type
                         _______ _______ _______ _____ _____    ______ ____

>  <TORSDO>
F 7

$$$$
=
 OpenBabel11052417073D

 30 33  0  0  1  0  0  0  0  0999 V2000
  191.8540  174.9070  142.0030 C   0  0  0  0  0  2  0  0  0  0  0  0
  191.3360  174.6960  143.4200 C   0  0  1  0  0  0  0  0  0  0  0  0
  190.6340  175.2670  147.0250 C   0  0  0  0  0  2  0  0  0  0  0  0
  189.2710  174.9090  144.8480 C   0  0  0  0  0  2  0  0  0  0  0  0
  193.5310  175.4490  144.6220 C   0  0  0  0  0  2  0  0  0  0  0  0
  190.2180  175.6550  143.9100 C   0  0  2  0  0  3  0  0  0  0  0  0
  193.0100  176.6550  145.3930 C   0  0  0  0  0  2  0  0  0  0  0  0
  191.3270  176.5400  147.1480 N   0  0  0  0  0  2  0  0  0  0  0  0
  191.0590  173.6440  142.3230 C   0  0  2  0  0  0  0  0  0  0  0  0
  192.4290  173.4270  145.0920 O   0  0  0  0  0  0  0  0  0  0  0  0
  192.4500  174.4350  144.4010 C   0  0  0  0  0  0  0  0  0  0  0  0
  192.7280  176.2950  146.8440 C   0  0  0  0  0  2  0  0  0  0  0  0
  188.4270  176.0300  146.7360 O   0  0  0  0  0  0  0  0  0  0  0  0
  189.3770  175.4480  146.2380 C   0  0  0  0  0  0  0  0  0  0  0  0
  193.1470  170.9310  140.7990 C   0  0  1  0  0  3  0  0  0  0  0  0
  192.9870  172.3460  141.3180 C   0  0  1  0  0  3  0  0  0  0  0  0
  191.7770  171.4620  141.1700 C   0  0  2  0  0  3  0  0  0  0  0  0
  193.2960  170.9590  139.4140 O   0  0  0  0  0  1  0  0  0  0  0  0
  191.9110  172.3550  142.3950 C   0  0  2  0  0  3  0  0  0  0  0  0
  190.0080  177.7580  142.7250 O   0  0  0  0  0  1  0  0  0  0  0  0
  189.4680  176.4750  142.8360 C   0  0  2  0  0  3  0  0  0  0  0  0
  187.9600  176.5720  143.0970 C   0  0  0  0  0  2  0  0  0  0  0  0
  186.5390  178.3790  142.1190 C   0  0  0  0  0  1  0  0  0  0  0  0
  186.7160  178.1330  144.5630 C   0  0  0  0  0  1  0  0  0  0  0  0
  187.4700  178.0080  143.2570 C   0  0  0  0  0  3  0  0  0  0  0  0
  189.6330  173.6270  141.7370 C   0  0  2  0  0  3  0  0  0  0  0  0
  188.9360  172.4940  142.1690 O   0  0  0  0  0  0  0  0  0  0  0  0
  187.5890  172.7830  141.9390 C   0  0  0  0  0  1  0  0  0  0  0  0
  189.6550  173.6800  140.2660 C   0  0  0  0  0  0  0  0  0  0  0  0
  189.6720  173.7230  139.1100 N   0  0  0  0  0  0  0  0  0  0  0  0
  1  9  1  0  0  0  0
  2  1  1  6  0  0  0
  2  6  1  0  0  0  0
  2 11  1  0  0  0  0
  3  8  1  0  0  0  0
  4 14  1  0  0  0  0
  5  7  1  0  0  0  0
  6 21  1  6  0  0  0
  6  4  1  0  0  0  0
  7 12  1  0  0  0  0
  9 26  1  6  0  0  0
  9 19  1  0  0  0  0
  9  2  1  0  0  0  0
 11  5  1  0  0  0  0
 11 10  2  0  0  0  0
 12  8  1  0  0  0  0
 14 13  2  0  0  0  0
 14  3  1  0  0  0  0
 15 17  1  0  0  0  0
 15 16  1  0  0  0  0
 16 19  1  0  0  0  0
 17 16  1  0  0  0  0
 17 19  1  0  0  0  0
 18 15  1  0  0  0  0
 20 21  1  0  0  0  0
 21 22  1  0  0  0  0
 22 25  1  0  0  0  0
 23 25  1  0  0  0  0
 25 24  1  0  0  0  0
 26 27  1  0  0  0  0
 28 27  1  0  0  0  0
 29 26  1  0  0  0  0
 30 29  3  0  0  0  0
M  END
>  <MODEL>
4

>  <REMARK>
 VINA RESULT:      -5.4      2.207      7.271
  Name = 
  7 active torsions:
  status: ('A' for Active; 'I' for Inactive)
    1  A    between atoms: O_2  and  C_14
    2  A    between atoms: C_6  and  C_12
    3  A    between atoms: C_6  and  C_21
    4  A    between atoms: C_12  and  C_13
    5  A    between atoms: C_14  and  C_20
    6  A    between atoms: C_14  and  C_22
    7  A    between atoms: C_22  and  C_29
                            x       y       z     vdW  Elec       q    Type
                         _______ _______ _______ _____ _____    ______ ____

>  <TORSDO>
F 7

$$$$
=
 OpenBabel11052417073D

 30 33  0  0  1  0  0  0  0  0999 V2000
  192.7430  173.9720  144.0770 C   0  0  0  0  0  2  0  0  0  0  0  0
  191.7700  174.3530  142.9690 C   0  0  1  0  0  0  0  0  0  0  0  0
  188.9960  174.1460  140.5040 C   0  0  0  0  0  2  0  0  0  0  0  0
  189.6490  175.6370  142.5230 C   0  0  0  0  0  2  0  0  0  0  0  0
  191.9140  172.0780  141.6900 C   0  0  0  0  0  2  0  0  0  0  0  0
  190.2830  174.5360  143.3710 C   0  0  2  0  0  3  0  0  0  0  0  0
  190.4660  171.6190  141.8040 C   0  0  0  0  0  2  0  0  0  0  0  0
  188.5740  172.7890  140.8160 N   0  0  0  0  0  2  0  0  0  0  0  0
  192.8500  175.3540  143.4380 C   0  0  2  0  0  0  0  0  0  0  0  0
  192.2090  174.1650  140.6510 O   0  0  0  0  0  0  0  0  0  0  0  0
  192.0140  173.5740  141.7020 C   0  0  0  0  0  0  0  0  0  0  0  0
  189.6980  171.9140  140.5240 C   0  0  0  0  0  2  0  0  0  0  0  0
  187.4350  175.3620  141.7760 O   0  0  0  0  0  0  0  0  0  0  0  0
  188.6070  175.0660  141.6140 C   0  0  0  0  0  0  0  0  0  0  0  0
  196.5240  175.4550  142.7040 C   0  0  1  0  0  3  0  0  0  0  0  0
  195.2440  174.6830  142.9550 C   0  0  1  0  0  3  0  0  0  0  0  0
  195.2700  176.1740  143.1590 C   0  0  2  0  0  3  0  0  0  0  0  0
  197.3840  175.2910  143.7880 O   0  0  0  0  0  1  0  0  0  0  0  0
  194.0640  175.5270  142.4940 C   0  0  2  0  0  3  0  0  0  0  0  0
  189.6830  173.4510  145.4530 O   0  0  0  0  0  1  0  0  0  0  0  0
  189.9700  174.6900  144.8760 C   0  0  2  0  0  3  0  0  0  0  0  0
  188.8200  175.6660  145.1560 C   0  0  0  0  0  2  0  0  0  0  0  0
  189.7020  177.1030  147.0000 C   0  0  0  0  0  1  0  0  0  0  0  0
  187.2990  176.5710  146.8880 C   0  0  0  0  0  1  0  0  0  0  0  0
  188.6910  176.0350  146.6310 C   0  0  0  0  0  3  0  0  0  0  0  0
  192.3680  176.5080  144.3380 C   0  0  2  0  0  3  0  0  0  0  0  0
  192.4250  177.7250  143.6530 O   0  0  0  0  0  0  0  0  0  0  0  0
  191.1920  178.3370  143.8880 C   0  0  0  0  0  1  0  0  0  0  0  0
  193.1550  176.5870  145.5800 C   0  0  0  0  0  0  0  0  0  0  0  0
  193.7720  176.6500  146.5570 N   0  0  0  0  0  0  0  0  0  0  0  0
  2  6  1  0  0  0  0
  2  9  1  0  0  0  0
  2  1  1  1  0  0  0
  3  8  1  0  0  0  0
  3 14  1  0  0  0  0
  4  6  1  0  0  0  0
  5 11  1  0  0  0  0
  5  7  1  0  0  0  0
  6 21  1  1  0  0  0
  9  1  1  0  0  0  0
  9 26  1  1  0  0  0
 10 11  2  0  0  0  0
 11  2  1  0  0  0  0
 12  8  1  0  0  0  0
 12  7  1  0  0  0  0
 14 13  2  0  0  0  0
 14  4  1  0  0  0  0
 15 16  1  0  0  0  0
 15 17  1  0  0  0  0
 15 18  1  0  0  0  0
 16 17  1  0  0  0  0
 19 16  1  0  0  0  0
 19 17  1  0  0  0  0
 19  9  1  0  0  0  0
 21 22  1  0  0  0  0
 21 20  1  0  0  0  0
 22 25  1  0  0  0  0
 25 24  1  0  0  0  0
 25 23  1  0  0  0  0
 26 29  1  0  0  0  0
 27 28  1  0  0  0  0
 27 26  1  0  0  0  0
 29 30  3  0  0  0  0
M  END
>  <MODEL>
5

>  <REMARK>
 VINA RESULT:      -5.4      2.469      6.270
  Name = 
  7 active torsions:
  status: ('A' for Active; 'I' for Inactive)
    1  A    between atoms: O_2  and  C_14
    2  A    between atoms: C_6  and  C_12
    3  A    between atoms: C_6  and  C_21
    4  A    between atoms: C_12  and  C_13
    5  A    between atoms: C_14  and  C_20
    6  A    between atoms: C_14  and  C_22
    7  A    between atoms: C_22  and  C_29
                            x       y       z     vdW  Elec       q    Type
                         _______ _______ _______ _____ _____    ______ ____

>  <TORSDO>
F 7

$$$$
=
 OpenBabel11052417073D

 30 33  0  0  1  0  0  0  0  0999 V2000
  187.8270  175.7420  145.4420 C   0  0  0  0  0  2  0  0  0  0  0  0
  189.1790  176.3550  145.0990 C   0  0  1  0  0  0  0  0  0  0  0  0
  192.8540  176.7910  144.7610 C   0  0  0  0  0  2  0  0  0  0  0  0
  190.7890  176.7110  143.1940 C   0  0  0  0  0  2  0  0  0  0  0  0
  190.3380  175.7280  147.3560 C   0  0  0  0  0  2  0  0  0  0  0  0
  190.0000  175.6640  143.9790 C   0  0  2  0  0  3  0  0  0  0  0  0
  191.4420  174.8130  146.8410 C   0  0  0  0  0  2  0  0  0  0  0  0
  193.2460  175.5310  145.3730 N   0  0  0  0  0  2  0  0  0  0  0  0
  187.8730  177.1140  144.7750 C   0  0  2  0  0  0  0  0  0  0  0  0
  190.3550  177.8980  146.4540 O   0  0  0  0  0  0  0  0  0  0  0  0
  189.9540  176.7510  146.3290 C   0  0  0  0  0  0  0  0  0  0  0  0
  192.7660  175.5560  146.7460 C   0  0  0  0  0  2  0  0  0  0  0  0
  192.9730  176.1930  142.4890 O   0  0  0  0  0  0  0  0  0  0  0  0
  192.2580  176.5360  143.4150 C   0  0  0  0  0  0  0  0  0  0  0  0
  185.5820  178.9990  147.0650 C   0  0  1  0  0  3  0  0  0  0  0  0
  186.5470  177.8620  146.8000 C   0  0  1  0  0  3  0  0  0  0  0  0
  186.0670  178.7170  145.6580 C   0  0  2  0  0  3  0  0  0  0  0  0
  184.2950  178.4880  147.2230 O   0  0  0  0  0  1  0  0  0  0  0  0
  187.5270  178.2920  145.7180 C   0  0  2  0  0  3  0  0  0  0  0  0
  189.3900  173.3630  143.5250 O   0  0  0  0  0  1  0  0  0  0  0  0
  189.2510  174.6730  143.0600 C   0  0  2  0  0  3  0  0  0  0  0  0
  189.7020  174.7490  141.5960 C   0  0  0  0  0  2  0  0  0  0  0  0
  189.3330  172.9120  139.9440 C   0  0  0  0  0  1  0  0  0  0  0  0
  191.6220  173.6220  140.5120 C   0  0  0  0  0  1  0  0  0  0  0  0
  190.2260  173.4210  141.0580 C   0  0  0  0  0  3  0  0  0  0  0  0
  187.4310  177.1170  143.2990 C   0  0  2  0  0  3  0  0  0  0  0  0
  187.9930  178.2020  142.6180 O   0  0  0  0  0  0  0  0  0  0  0  0
  187.8160  177.9170  141.2630 C   0  0  0  0  0  1  0  0  0  0  0  0
  185.9650  177.1440  143.1750 C   0  0  0  0  0  0  0  0  0  0  0  0
  184.8120  177.1660  143.0770 N   0  0  0  0  0  0  0  0  0  0  0  0
  2  1  1  1  0  0  0
  2 11  1  0  0  0  0
  3  8  1  0  0  0  0
  4 14  1  0  0  0  0
  4  6  1  0  0  0  0
  6 21  1  6  0  0  0
  6  2  1  0  0  0  0
  7  5  1  0  0  0  0
  8 12  1  0  0  0  0
  9 26  1  6  0  0  0
  9  2  1  0  0  0  0
  9  1  1  0  0  0  0
  9 19  1  0  0  0  0
 11 10  2  0  0  0  0
 11  5  1  0  0  0  0
 12  7  1  0  0  0  0
 13 14  2  0  0  0  0
 14  3  1  0  0  0  0
 15 18  1  0  0  0  0
 16 15  1  0  0  0  0
 17 19  1  0  0  0  0
 17 16  1  0  0  0  0
 17 15  1  0  0  0  0
 19 16  1  0  0  0  0
 21 20  1  0  0  0  0
 22 21  1  0  0  0  0
 23 25  1  0  0  0  0
 24 25  1  0  0  0  0
 25 22  1  0  0  0  0
 27 26  1  0  0  0  0
 28 27  1  0  0  0  0
 29 26  1  0  0  0  0
 30 29  3  0  0  0  0
M  END
>  <MODEL>
6

>  <REMARK>
 VINA RESULT:      -5.3      2.035      4.904
  Name = 
  7 active torsions:
  status: ('A' for Active; 'I' for Inactive)
    1  A    between atoms: O_2  and  C_14
    2  A    between atoms: C_6  and  C_12
    3  A    between atoms: C_6  and  C_21
    4  A    between atoms: C_12  and  C_13
    5  A    between atoms: C_14  and  C_20
    6  A    between atoms: C_14  and  C_22
    7  A    between atoms: C_22  and  C_29
                            x       y       z     vdW  Elec       q    Type
                         _______ _______ _______ _____ _____    ______ ____

>  <TORSDO>
F 7

$$$$
=
 OpenBabel11052417073D

 30 33  0  0  1  0  0  0  0  0999 V2000
  190.0230  175.3150  143.1350 C   0  0  0  0  0  2  0  0  0  0  0  0
  190.7650  174.1220  143.7210 C   0  0  1  0  0  0  0  0  0  0  0  0
  192.4470  170.8180  143.9900 C   0  0  0  0  0  2  0  0  0  0  0  0
  193.0640  173.3100  144.3550 C   0  0  0  0  0  2  0  0  0  0  0  0
  189.2810  172.2970  142.5820 C   0  0  0  0  0  2  0  0  0  0  0  0
  192.2140  173.8810  143.2210 C   0  0  2  0  0  3  0  0  0  0  0  0
  190.3290  171.6010  141.7240 C   0  0  0  0  0  2  0  0  0  0  0  0
  192.2510  170.3990  142.6110 N   0  0  0  0  0  2  0  0  0  0  0  0
  190.4210  175.3380  144.6080 C   0  0  2  0  0  0  0  0  0  0  0  0
  189.7510  172.3270  144.8840 O   0  0  0  0  0  0  0  0  0  0  0  0
  189.8930  172.8960  143.8120 C   0  0  0  0  0  0  0  0  0  0  0  0
  190.8160  170.3220  142.3880 C   0  0  0  0  0  2  0  0  0  0  0  0
  194.6460  171.6420  143.8580 O   0  0  0  0  0  0  0  0  0  0  0  0
  193.4710  171.9040  144.0490 C   0  0  0  0  0  0  0  0  0  0  0  0
  187.4380  176.5470  146.5290 C   0  0  1  0  0  3  0  0  0  0  0  0
  188.0780  176.0630  145.2440 C   0  0  1  0  0  3  0  0  0  0  0  0
  188.9400  176.3710  146.4390 C   0  0  2  0  0  3  0  0  0  0  0  0
  187.1220  177.8990  146.4090 O   0  0  0  0  0  1  0  0  0  0  0  0
  189.2410  175.1440  145.5910 C   0  0  2  0  0  3  0  0  0  0  0  0
  192.9380  174.8170  141.1060 O   0  0  0  0  0  1  0  0  0  0  0  0
  192.9110  175.0460  142.4840 C   0  0  2  0  0  3  0  0  0  0  0  0
  194.3350  175.3130  142.9880 C   0  0  0  0  0  2  0  0  0  0  0  0
  196.0330  176.5520  141.6380 C   0  0  0  0  0  1  0  0  0  0  0  0
  196.4620  174.2270  142.3320 C   0  0  0  0  0  1  0  0  0  0  0  0
  195.3910  175.2020  141.8920 C   0  0  0  0  0  3  0  0  0  0  0  0
  191.5820  176.2960  144.9360 C   0  0  2  0  0  3  0  0  0  0  0  0
  191.7600  176.4010  146.3190 O   0  0  0  0  0  0  0  0  0  0  0  0
  193.1430  176.4100  146.5120 C   0  0  0  0  0  1  0  0  0  0  0  0
  191.3640  177.6290  144.3500 C   0  0  0  0  0  0  0  0  0  0  0  0
  191.1920  178.6760  143.8880 N   0  0  0  0  0  0  0  0  0  0  0  0
  1  9  1  0  0  0  0
  2  1  1  6  0  0  0
  2 11  1  0  0  0  0
  2  9  1  0  0  0  0
  3 14  1  0  0  0  0
  5 11  1  0  0  0  0
  6 21  1  1  0  0  0
  6  2  1  0  0  0  0
  6  4  1  0  0  0  0
  7 12  1  0  0  0  0
  7  5  1  0  0  0  0
  8  3  1  0  0  0  0
  9 26  1  1  0  0  0
  9 19  1  0  0  0  0
 11 10  2  0  0  0  0
 12  8  1  0  0  0  0
 13 14  2  0  0  0  0
 14  4  1  0  0  0  0
 16 19  1  0  0  0  0
 16 17  1  0  0  0  0
 16 15  1  0  0  0  0
 17 15  1  0  0  0  0
 18 15  1  0  0  0  0
 19 17  1  0  0  0  0
 20 21  1  0  0  0  0
 21 22  1  0  0  0  0
 23 25  1  0  0  0  0
 25 24  1  0  0  0  0
 25 22  1  0  0  0  0
 26 27  1  0  0  0  0
 27 28  1  0  0  0  0
 29 26  1  0  0  0  0
 30 29  3  0  0  0  0
M  END
>  <MODEL>
7

>  <REMARK>
 VINA RESULT:      -5.1      2.982      4.400
  Name = 
  7 active torsions:
  status: ('A' for Active; 'I' for Inactive)
    1  A    between atoms: O_2  and  C_14
    2  A    between atoms: C_6  and  C_12
    3  A    between atoms: C_6  and  C_21
    4  A    between atoms: C_12  and  C_13
    5  A    between atoms: C_14  and  C_20
    6  A    between atoms: C_14  and  C_22
    7  A    between atoms: C_22  and  C_29
                            x       y       z     vdW  Elec       q    Type
                         _______ _______ _______ _____ _____    ______ ____

>  <TORSDO>
F 7

$$$$
=
 OpenBabel11052417073D

 30 33  0  0  1  0  0  0  0  0999 V2000
  191.0800  175.0870  143.4650 C   0  0  0  0  0  2  0  0  0  0  0  0
  189.8080  175.1860  144.2960 C   0  0  1  0  0  0  0  0  0  0  0  0
  187.1560  176.5530  146.5120 C   0  0  0  0  0  2  0  0  0  0  0  0
  187.3250  175.5740  144.1170 C   0  0  0  0  0  2  0  0  0  0  0  0
  190.9160  176.3760  146.3420 C   0  0  0  0  0  2  0  0  0  0  0  0
  188.7020  176.1430  143.7790 C   0  0  2  0  0  3  0  0  0  0  0  0
  190.1420  177.6880  146.3360 C   0  0  0  0  0  2  0  0  0  0  0  0
  187.7440  177.8680  146.7120 N   0  0  0  0  0  2  0  0  0  0  0  0
  190.1480  173.8810  143.5410 C   0  0  2  0  0  0  0  0  0  0  0  0
  189.5860  174.4480  146.5340 O   0  0  0  0  0  0  0  0  0  0  0  0
  190.0960  175.2570  145.7740 C   0  0  0  0  0  0  0  0  0  0  0  0
  189.0250  177.6680  147.3690 C   0  0  0  0  0  2  0  0  0  0  0  0
  185.6230  177.0480  144.7970 O   0  0  0  0  0  0  0  0  0  0  0  0
  186.6300  176.4400  145.1180 C   0  0  0  0  0  0  0  0  0  0  0  0
  192.5580  171.1160  144.3090 C   0  0  1  0  0  3  0  0  0  0  0  0
  192.1930  172.5860  144.2880 C   0  0  1  0  0  3  0  0  0  0  0  0
  191.2990  171.5830  143.6070 C   0  0  2  0  0  3  0  0  0  0  0  0
  193.5520  170.8710  143.3640 O   0  0  0  0  0  1  0  0  0  0  0  0
  190.6810  172.7180  144.4120 C   0  0  2  0  0  3  0  0  0  0  0  0
  189.1850  177.9610  142.2510 O   0  0  0  0  0  1  0  0  0  0  0  0
  188.8050  176.6180  142.3130 C   0  0  2  0  0  3  0  0  0  0  0  0
  187.5080  176.4150  141.5200 C   0  0  0  0  0  2  0  0  0  0  0  0
  186.6220  177.3500  139.3800 C   0  0  0  0  0  1  0  0  0  0  0  0
  185.8520  178.2550  141.5370 C   0  0  0  0  0  1  0  0  0  0  0  0
  187.0400  177.6760  140.8000 C   0  0  0  0  0  3  0  0  0  0  0  0
  189.3530  173.6120  142.2490 C   0  0  2  0  0  3  0  0  0  0  0  0
  188.5410  172.4820  142.3960 O   0  0  0  0  0  0  0  0  0  0  0  0
  187.4070  172.7420  141.6240 C   0  0  0  0  0  1  0  0  0  0  0  0
  190.2460  173.4470  141.0910 C   0  0  0  0  0  0  0  0  0  0  0  0
  190.9480  173.3170  140.1810 N   0  0  0  0  0  0  0  0  0  0  0  0
  1  9  1  0  0  0  0
  2  1  1  6  0  0  0
  2 11  1  0  0  0  0
  3  8  1  0  0  0  0
  4 14  1  0  0  0  0
  6 21  1  6  0  0  0
  6  4  1  0  0  0  0
  6  2  1  0  0  0  0
  7  5  1  0  0  0  0
  7 12  1  0  0  0  0
  8 12  1  0  0  0  0
  9 26  1  6  0  0  0
  9  2  1  0  0  0  0
  9 19  1  0  0  0  0
 11  5  1  0  0  0  0
 11 10  2  0  0  0  0
 13 14  2  0  0  0  0
 14  3  1  0  0  0  0
 16 15  1  0  0  0  0
 16 19  1  0  0  0  0
 17 16  1  0  0  0  0
 17 15  1  0  0  0  0
 17 19  1  0  0  0  0
 18 15  1  0  0  0  0
 20 21  1  0  0  0  0
 22 21  1  0  0  0  0
 23 25  1  0  0  0  0
 25 22  1  0  0  0  0
 25 24  1  0  0  0  0
 26 27  1  0  0  0  0
 28 27  1  0  0  0  0
 29 26  1  0  0  0  0
 30 29  3  0  0  0  0
M  END
>  <MODEL>
8

>  <REMARK>
 VINA RESULT:      -5.1      1.958      6.716
  Name = 
  7 active torsions:
  status: ('A' for Active; 'I' for Inactive)
    1  A    between atoms: O_2  and  C_14
    2  A    between atoms: C_6  and  C_12
    3  A    between atoms: C_6  and  C_21
    4  A    between atoms: C_12  and  C_13
    5  A    between atoms: C_14  and  C_20
    6  A    between atoms: C_14  and  C_22
    7  A    between atoms: C_22  and  C_29
                            x       y       z     vdW  Elec       q    Type
                         _______ _______ _______ _____ _____    ______ ____

>  <TORSDO>
F 7

$$$$
=
 OpenBabel11052417073D

 30 33  0  0  1  0  0  0  0  0999 V2000
  190.0380  174.4330  144.5350 C   0  0  0  0  0  2  0  0  0  0  0  0
  191.3430  174.9990  143.9900 C   0  0  1  0  0  0  0  0  0  0  0  0
  194.9030  176.0480  143.7850 C   0  0  0  0  0  2  0  0  0  0  0  0
  193.3120  174.4330  142.5240 C   0  0  0  0  0  2  0  0  0  0  0  0
  191.9830  176.3230  146.1510 C   0  0  0  0  0  2  0  0  0  0  0  0
  192.4950  173.9910  143.7370 C   0  0  2  0  0  3  0  0  0  0  0  0
  193.2870  175.6230  146.5130 C   0  0  0  0  0  2  0  0  0  0  0  0
  195.2900  175.6500  145.1290 N   0  0  0  0  0  2  0  0  0  0  0  0
  190.0710  174.9900  143.1140 C   0  0  2  0  0  0  0  0  0  0  0  0
  191.9440  177.2880  144.0090 O   0  0  0  0  0  0  0  0  0  0  0  0
  191.7360  176.2840  144.6730 C   0  0  0  0  0  0  0  0  0  0  0  0
  194.4880  176.4360  146.0540 C   0  0  0  0  0  2  0  0  0  0  0  0
  195.6500  174.1740  142.5750 O   0  0  0  0  0  0  0  0  0  0  0  0
  194.6920  174.8350  142.9390 C   0  0  0  0  0  0  0  0  0  0  0  0
  187.0310  177.1790  143.0200 C   0  0  1  0  0  3  0  0  0  0  0  0
  188.0900  176.4170  143.7900 C   0  0  1  0  0  3  0  0  0  0  0  0
  187.9850  176.2510  142.2970 C   0  0  2  0  0  3  0  0  0  0  0  0
  185.7990  176.5470  143.1780 O   0  0  0  0  0  1  0  0  0  0  0  0
  189.3570  176.3520  142.9480 C   0  0  2  0  0  3  0  0  0  0  0  0
  192.5640  171.8370  144.8460 O   0  0  0  0  0  1  0  0  0  0  0  0
  192.1270  172.4910  143.6910 C   0  0  2  0  0  3  0  0  0  0  0  0
  192.6790  171.7730  142.4540 C   0  0  0  0  0  2  0  0  0  0  0  0
  190.8170  170.2010  141.9010 C   0  0  0  0  0  1  0  0  0  0  0  0
  193.1460  169.5900  141.3800 C   0  0  0  0  0  1  0  0  0  0  0  0
  192.2550  170.3090  142.3700 C   0  0  0  0  0  3  0  0  0  0  0  0
  190.0080  173.9150  142.0110 C   0  0  2  0  0  3  0  0  0  0  0  0
  190.2490  174.4830  140.7560 O   0  0  0  0  0  0  0  0  0  0  0  0
  190.6130  173.4150  139.9330 C   0  0  0  0  0  1  0  0  0  0  0  0
  188.7120  173.2170  142.0120 C   0  0  0  0  0  0  0  0  0  0  0  0
  187.6940  172.6670  142.0130 N   0  0  0  0  0  0  0  0  0  0  0  0
  2  1  1  1  0  0  0
  2 11  1  0  0  0  0
  3  8  1  0  0  0  0
  4 14  1  0  0  0  0
  4  6  1  0  0  0  0
  5  7  1  0  0  0  0
  6 21  1  6  0  0  0
  6  2  1  0  0  0  0
  8 12  1  0  0  0  0
  9 26  1  6  0  0  0
  9  2  1  0  0  0  0
  9  1  1  0  0  0  0
 10 11  2  0  0  0  0
 11  5  1  0  0  0  0
 12  7  1  0  0  0  0
 13 14  2  0  0  0  0
 14  3  1  0  0  0  0
 15 18  1  0  0  0  0
 15 16  1  0  0  0  0
 17 19  1  0  0  0  0
 17 15  1  0  0  0  0
 17 16  1  0  0  0  0
 19  9  1  0  0  0  0
 19 16  1  0  0  0  0
 21 20  1  0  0  0  0
 22 21  1  0  0  0  0
 23 25  1  0  0  0  0
 24 25  1  0  0  0  0
 25 22  1  0  0  0  0
 26 29  1  0  0  0  0
 27 26  1  0  0  0  0
 28 27  1  0  0  0  0
 29 30  3  0  0  0  0
M  END
>  <MODEL>
9

>  <REMARK>
 VINA RESULT:      -5.0      2.819      6.062
  Name = 
  7 active torsions:
  status: ('A' for Active; 'I' for Inactive)
    1  A    between atoms: O_2  and  C_14
    2  A    between atoms: C_6  and  C_12
    3  A    between atoms: C_6  and  C_21
    4  A    between atoms: C_12  and  C_13
    5  A    between atoms: C_14  and  C_20
    6  A    between atoms: C_14  and  C_22
    7  A    between atoms: C_22  and  C_29
                            x       y       z     vdW  Elec       q    Type
                         _______ _______ _______ _____ _____    ______ ____

>  <TORSDO>
F 7

$$$$
