=
 OpenBabel11052418153D

 28 33  0  0  1  0  0  0  0  0999 V2000
  191.1450  174.9750  143.8550 O   0  0  0  0  0  0  0  0  0  0  0  0
  189.5450  172.8050  143.2170 O   0  0  0  0  0  1  0  0  0  0  0  0
  189.8130  173.7560  142.2290 C   0  0  1  0  0  0  0  0  0  0  0  0
  192.3780  176.3260  146.5560 C   0  0  0  0  0  2  0  0  0  0  0  0
  187.4360  175.1040  142.3720 S   0  0  0  0  0  0  0  0  0  0  0  0
  188.7080  177.1670  143.7970 C   0  0  2  0  0  3  0  0  0  0  0  0
  188.5200  173.9720  141.4320 C   0  0  1  0  0  3  0  0  0  0  0  0
  190.8450  176.8540  145.0360 C   0  0  2  0  0  3  0  0  0  0  0  0
  188.7830  175.6220  143.5000 C   0  0  2  0  0  3  0  0  0  0  0  0
  193.0480  175.6460  145.5660 O   0  0  0  0  0  0  0  0  0  0  0  0
  190.0340  177.8450  144.2420 C   0  0  0  0  0  2  0  0  0  0  0  0
  192.3790  176.8300  145.1430 C   0  0  2  0  0  0  0  0  0  0  0  0
  191.6140  176.2840  143.9230 C   0  0  1  0  0  3  0  0  0  0  0  0
  190.1090  175.0890  142.9000 C   0  0  1  0  0  3  0  0  0  0  0  0
  185.5240  176.9540  145.9620 C   0  0  0  0  0  2  0  0  0  0  0  0
  186.6360  178.6050  144.4300 C   0  0  1  0  0  3  0  0  0  0  0  0
  185.4250  178.2930  145.2740 C   0  0  2  0  0  0  0  0  0  0  0  0
  187.6370  177.5190  144.8530 C   0  0  1  0  0  3  0  0  0  0  0  0
  185.2210  179.3090  146.2240 O   0  0  0  0  0  0  0  0  0  0  0  0
  184.1940  179.1080  145.2820 C   0  0  0  0  0  2  0  0  0  0  0  0
  186.8130  176.3570  145.4160 C   0  0  0  0  0  2  0  0  0  0  0  0
  186.2950  178.6200  142.9290 C   0  0  0  0  0  2  0  0  0  0  0  0
  184.6860  177.8540  142.5340 S   0  0  0  0  0  0  0  0  0  0  0  0
  184.8650  178.2350  140.7700 C   0  0  0  0  0  1  0  0  0  0  0  0
  188.6800  174.4430  139.9780 C   0  0  0  0  0  2  0  0  0  0  0  0
  188.2660  173.3930  138.9560 C   0  0  0  0  0  1  0  0  0  0  0  0
  190.9890  173.2200  141.3900 C   0  0  0  0  0  2  0  0  0  0  0  0
  190.9350  171.7260  141.0980 C   0  0  0  0  0  1  0  0  0  0  0  0
  3 14  1  0  0  0  0
  3  2  1  1  0  0  0
  6 11  1  1  0  0  0
  6 18  1  0  0  0  0
  7 25  1  6  0  0  0
  7  3  1  0  0  0  0
  7  5  1  0  0  0  0
  8 11  1  6  0  0  0
  8 12  1  0  0  0  0
  9  5  1  6  0  0  0
  9  6  1  0  0  0  0
 10  4  1  0  0  0  0
 12 10  1  0  0  0  0
 12  4  1  6  0  0  0
 13  1  1  1  0  0  0
 13  8  1  0  0  0  0
 13 12  1  0  0  0  0
 14  9  1  0  0  0  0
 14  1  1  1  0  0  0
 16 22  1  6  0  0  0
 16 18  1  0  0  0  0
 16 17  1  0  0  0  0
 17 20  1  6  0  0  0
 17 15  1  0  0  0  0
 17 19  1  0  0  0  0
 18 21  1  6  0  0  0
 20 19  1  0  0  0  0
 21 15  1  0  0  0  0
 23 22  1  0  0  0  0
 24 23  1  0  0  0  0
 26 25  1  0  0  0  0
 27  3  1  0  0  0  0
 28 27  1  0  0  0  0
M  END
>  <MODEL>
1

>  <REMARK>
 VINA RESULT:      -7.1      0.000      0.000
  Name = 
  5 active torsions:
  status: ('A' for Active; 'I' for Inactive)
    1  A    between atoms: C_3  and  C_7
    2  A    between atoms: C_6  and  C_11
    3  A    between atoms: C_9  and  C_18
    4  A    between atoms: C_10  and  C_13
    5  A    between atoms: S_14  and  C_18
                            x       y       z     vdW  Elec       q    Type
                         _______ _______ _______ _____ _____    ______ ____

>  <TORSDO>
F 5

$$$$
=
 OpenBabel11052418153D

 28 33  0  0  1  0  0  0  0  0999 V2000
  186.7310  177.6110  143.4560 O   0  0  0  0  0  0  0  0  0  0  0  0
  185.5250  176.4850  145.6810 O   0  0  0  0  0  1  0  0  0  0  0  0
  186.4230  177.5390  145.8650 C   0  0  1  0  0  0  0  0  0  0  0  0
  187.0320  176.9080  140.2850 C   0  0  0  0  0  2  0  0  0  0  0  0
  188.5820  176.0420  146.6300 S   0  0  0  0  0  0  0  0  0  0  0  0
  189.7050  176.3800  144.0760 C   0  0  2  0  0  3  0  0  0  0  0  0
  187.2660  177.2180  147.1070 C   0  0  1  0  0  3  0  0  0  0  0  0
  188.3650  176.9730  142.0630 C   0  0  2  0  0  3  0  0  0  0  0  0
  188.3280  176.3240  144.8390 C   0  0  2  0  0  3  0  0  0  0  0  0
  186.2990  177.9170  140.8640 O   0  0  0  0  0  0  0  0  0  0  0  0
  189.7080  177.1450  142.7230 C   0  0  0  0  0  2  0  0  0  0  0  0
  187.7030  177.9740  141.1010 C   0  0  2  0  0  0  0  0  0  0  0  0
  187.7090  178.1580  142.6290 C   0  0  1  0  0  3  0  0  0  0  0  0
  187.4010  177.5580  144.6990 C   0  0  1  0  0  3  0  0  0  0  0  0
  190.4980  172.6280  144.4830 C   0  0  0  0  0  2  0  0  0  0  0  0
  191.7550  174.7900  144.2520 C   0  0  1  0  0  3  0  0  0  0  0  0
  191.8460  173.3020  144.4860 C   0  0  2  0  0  0  0  0  0  0  0  0
  190.2950  174.9770  143.8100 C   0  0  1  0  0  3  0  0  0  0  0  0
  192.6830  172.7100  143.5240 O   0  0  0  0  0  0  0  0  0  0  0  0
  193.0900  172.6030  144.8670 C   0  0  0  0  0  2  0  0  0  0  0  0
  189.5130  173.7810  144.3610 C   0  0  0  0  0  2  0  0  0  0  0  0
  192.1580  175.5880  145.5050 C   0  0  0  0  0  2  0  0  0  0  0  0
  193.5610  176.7240  145.2330 S   0  0  0  0  0  0  0  0  0  0  0  0
  194.6810  175.6740  146.1980 C   0  0  0  0  0  1  0  0  0  0  0  0
  187.8480  178.4160  147.8720 C   0  0  0  0  0  2  0  0  0  0  0  0
  189.3680  178.3950  147.9590 C   0  0  0  0  0  1  0  0  0  0  0  0
  185.5910  178.8290  145.9860 C   0  0  0  0  0  2  0  0  0  0  0  0
  184.0900  178.6100  146.1220 C   0  0  0  0  0  1  0  0  0  0  0  0
  3  2  1  6  0  0  0
  3 27  1  0  0  0  0
  3  7  1  0  0  0  0
  4 10  1  0  0  0  0
  5  7  1  0  0  0  0
  6 11  1  6  0  0  0
  6  9  1  0  0  0  0
  7 25  1  6  0  0  0
  8 13  1  0  0  0  0
  8 11  1  6  0  0  0
  9  5  1  1  0  0  0
 10 12  1  0  0  0  0
 12  4  1  6  0  0  0
 12  8  1  0  0  0  0
 12 13  1  0  0  0  0
 13  1  1  1  0  0  0
 14  1  1  6  0  0  0
 14  9  1  0  0  0  0
 14  3  1  0  0  0  0
 16 17  1  0  0  0  0
 16 22  1  1  0  0  0
 17 15  1  1  0  0  0
 17 20  1  0  0  0  0
 18  6  1  0  0  0  0
 18 16  1  0  0  0  0
 18 21  1  1  0  0  0
 19 17  1  0  0  0  0
 19 20  1  0  0  0  0
 21 15  1  0  0  0  0
 23 22  1  0  0  0  0
 23 24  1  0  0  0  0
 25 26  1  0  0  0  0
 27 28  1  0  0  0  0
M  END
>  <MODEL>
2

>  <REMARK>
 VINA RESULT:      -6.9      2.866      7.256
  Name = 
  5 active torsions:
  status: ('A' for Active; 'I' for Inactive)
    1  A    between atoms: C_3  and  C_7
    2  A    between atoms: C_6  and  C_11
    3  A    between atoms: C_9  and  C_18
    4  A    between atoms: C_10  and  C_13
    5  A    between atoms: S_14  and  C_18
                            x       y       z     vdW  Elec       q    Type
                         _______ _______ _______ _____ _____    ______ ____

>  <TORSDO>
F 5

$$$$
=
 OpenBabel11052418153D

 28 33  0  0  1  0  0  0  0  0999 V2000
  191.0840  174.7760  141.9140 O   0  0  0  0  0  0  0  0  0  0  0  0
  192.3340  177.1250  142.6850 O   0  0  0  0  0  1  0  0  0  0  0  0
  192.0120  176.1820  143.6650 C   0  0  1  0  0  0  0  0  0  0  0  0
  189.6400  173.6040  139.2340 C   0  0  0  0  0  2  0  0  0  0  0  0
  189.7560  177.4050  144.6150 S   0  0  0  0  0  0  0  0  0  0  0  0
  188.1760  175.5460  143.2190 C   0  0  2  0  0  3  0  0  0  0  0  0
  191.5030  176.9460  144.8940 C   0  0  1  0  0  3  0  0  0  0  0  0
  189.0070  174.2420  141.2670 C   0  0  2  0  0  3  0  0  0  0  0  0
  189.5780  176.2660  143.1920 C   0  0  2  0  0  3  0  0  0  0  0  0
  190.8410  173.2240  139.7850 O   0  0  0  0  0  0  0  0  0  0  0  0
  188.0870  174.1940  142.4580 C   0  0  0  0  0  2  0  0  0  0  0  0
  189.7030  173.0330  140.6200 C   0  0  2  0  0  0  0  0  0  0  0  0
  190.2060  173.6950  141.9150 C   0  0  1  0  0  3  0  0  0  0  0  0
  190.8310  175.3550  143.1790 C   0  0  1  0  0  3  0  0  0  0  0  0
  186.2490  178.6820  142.0690 C   0  0  0  0  0  2  0  0  0  0  0  0
  185.9670  176.8180  143.7300 C   0  0  1  0  0  3  0  0  0  0  0  0
  185.4150  178.1160  143.1910 C   0  0  2  0  0  0  0  0  0  0  0  0
  187.0360  176.4450  142.6910 C   0  0  1  0  0  3  0  0  0  0  0  0
  184.0880  177.9380  142.7620 O   0  0  0  0  0  0  0  0  0  0  0  0
  184.2960  178.8550  143.8090 C   0  0  0  0  0  2  0  0  0  0  0  0
  187.4460  177.7460  141.9950 C   0  0  0  0  0  2  0  0  0  0  0  0
  186.4910  176.9770  145.1680 C   0  0  0  0  0  2  0  0  0  0  0  0
  185.1970  176.8100  146.4440 S   0  0  0  0  0  0  0  0  0  0  0  0
  186.0070  178.0290  147.5160 C   0  0  0  0  0  1  0  0  0  0  0  0
  191.6810  176.2560  146.2550 C   0  0  0  0  0  2  0  0  0  0  0  0
  190.3790  175.7110  146.8280 C   0  0  0  0  0  1  0  0  0  0  0  0
  193.2790  175.3450  143.9240 C   0  0  0  0  0  2  0  0  0  0  0  0
  194.5160  175.8100  143.1680 C   0  0  0  0  0  1  0  0  0  0  0  0
  3  2  1  6  0  0  0
  3 27  1  0  0  0  0
  3  7  1  0  0  0  0
  4 10  1  0  0  0  0
  5  7  1  0  0  0  0
  6 11  1  6  0  0  0
  7 25  1  1  0  0  0
  8 13  1  0  0  0  0
  8 11  1  1  0  0  0
  9  6  1  0  0  0  0
  9  5  1  1  0  0  0
 10 12  1  0  0  0  0
 12  4  1  1  0  0  0
 12  8  1  0  0  0  0
 12 13  1  0  0  0  0
 13  1  1  6  0  0  0
 14  1  1  6  0  0  0
 14  9  1  0  0  0  0
 14  3  1  0  0  0  0
 16 22  1  1  0  0  0
 17 15  1  6  0  0  0
 17 16  1  0  0  0  0
 17 20  1  0  0  0  0
 18 21  1  1  0  0  0
 18  6  1  0  0  0  0
 18 16  1  0  0  0  0
 19 17  1  0  0  0  0
 19 20  1  0  0  0  0
 21 15  1  0  0  0  0
 22 23  1  0  0  0  0
 23 24  1  0  0  0  0
 25 26  1  0  0  0  0
 28 27  1  0  0  0  0
M  END
>  <MODEL>
3

>  <REMARK>
 VINA RESULT:      -6.9      2.061      4.688
  Name = 
  5 active torsions:
  status: ('A' for Active; 'I' for Inactive)
    1  A    between atoms: C_3  and  C_7
    2  A    between atoms: C_6  and  C_11
    3  A    between atoms: C_9  and  C_18
    4  A    between atoms: C_10  and  C_13
    5  A    between atoms: S_14  and  C_18
                            x       y       z     vdW  Elec       q    Type
                         _______ _______ _______ _____ _____    ______ ____

>  <TORSDO>
F 5

$$$$
=
 OpenBabel11052418153D

 28 33  0  0  1  0  0  0  0  0999 V2000
  185.7450  177.9020  143.5930 O   0  0  0  0  0  0  0  0  0  0  0  0
  185.5060  176.4150  145.9190 O   0  0  0  0  0  1  0  0  0  0  0  0
  186.4950  177.4000  145.8490 C   0  0  1  0  0  0  0  0  0  0  0  0
  184.5870  177.7780  140.5460 C   0  0  0  0  0  2  0  0  0  0  0  0
  188.6160  175.7450  145.3470 S   0  0  0  0  0  0  0  0  0  0  0  0
  188.5610  176.5170  142.6450 C   0  0  2  0  0  3  0  0  0  0  0  0
  187.7530  176.8420  146.5280 C   0  0  1  0  0  3  0  0  0  0  0  0
  186.5520  177.4930  141.5440 C   0  0  2  0  0  3  0  0  0  0  0  0
  187.6470  176.3520  143.9170 C   0  0  2  0  0  3  0  0  0  0  0  0
  184.2750  178.6810  141.5350 O   0  0  0  0  0  0  0  0  0  0  0  0
  188.0580  177.5150  141.5640 C   0  0  0  0  0  2  0  0  0  0  0  0
  185.6430  178.6650  141.1380 C   0  0  2  0  0  0  0  0  0  0  0  0
  186.3220  178.5690  142.5160 C   0  0  1  0  0  3  0  0  0  0  0  0
  186.8750  177.6100  144.3910 C   0  0  1  0  0  3  0  0  0  0  0  0
  188.8140  172.7230  142.0030 C   0  0  0  0  0  2  0  0  0  0  0  0
  190.3140  174.7370  141.9230 C   0  0  1  0  0  3  0  0  0  0  0  0
  190.2160  173.2360  141.7950 C   0  0  2  0  0  0  0  0  0  0  0  0
  188.8400  175.1740  141.9340 C   0  0  1  0  0  3  0  0  0  0  0  0
  190.7000  172.8240  140.5410 O   0  0  0  0  0  0  0  0  0  0  0  0
  191.3860  172.3430  141.6720 C   0  0  0  0  0  2  0  0  0  0  0  0
  188.0260  173.9630  142.3990 C   0  0  0  0  0  2  0  0  0  0  0  0
  191.1200  175.1510  143.1670 C   0  0  0  0  0  2  0  0  0  0  0  0
  192.5030  176.2850  142.8020 S   0  0  0  0  0  0  0  0  0  0  0  0
  191.8710  177.5300  143.9600 C   0  0  0  0  0  1  0  0  0  0  0  0
  188.7210  177.8700  147.1340 C   0  0  0  0  0  2  0  0  0  0  0  0
  190.1480  177.3530  147.2580 C   0  0  0  0  0  1  0  0  0  0  0  0
  185.9250  178.6640  146.5200 C   0  0  0  0  0  2  0  0  0  0  0  0
  184.4410  178.5960  146.8520 C   0  0  0  0  0  1  0  0  0  0  0  0
  3  2  1  1  0  0  0
  3 27  1  0  0  0  0
  3  7  1  0  0  0  0
  4 10  1  0  0  0  0
  5  7  1  0  0  0  0
  6 11  1  6  0  0  0
  6  9  1  0  0  0  0
  7 25  1  6  0  0  0
  8 11  1  6  0  0  0
  8 13  1  0  0  0  0
  9 14  1  0  0  0  0
  9  5  1  1  0  0  0
 12  4  1  6  0  0  0
 12 10  1  0  0  0  0
 12  8  1  0  0  0  0
 12 13  1  0  0  0  0
 13  1  1  1  0  0  0
 14  1  1  6  0  0  0
 14  3  1  0  0  0  0
 15 21  1  0  0  0  0
 16 18  1  0  0  0  0
 16 22  1  1  0  0  0
 17 20  1  1  0  0  0
 17 16  1  0  0  0  0
 17 15  1  0  0  0  0
 18 21  1  1  0  0  0
 18  6  1  0  0  0  0
 19 20  1  0  0  0  0
 19 17  1  0  0  0  0
 23 22  1  0  0  0  0
 23 24  1  0  0  0  0
 25 26  1  0  0  0  0
 27 28  1  0  0  0  0
M  END
>  <MODEL>
4

>  <REMARK>
 VINA RESULT:      -6.8      2.379      7.132
  Name = 
  5 active torsions:
  status: ('A' for Active; 'I' for Inactive)
    1  A    between atoms: C_3  and  C_7
    2  A    between atoms: C_6  and  C_11
    3  A    between atoms: C_9  and  C_18
    4  A    between atoms: C_10  and  C_13
    5  A    between atoms: S_14  and  C_18
                            x       y       z     vdW  Elec       q    Type
                         _______ _______ _______ _____ _____    ______ ____

>  <TORSDO>
F 5

$$$$
=
 OpenBabel11052418153D

 28 33  0  0  1  0  0  0  0  0999 V2000
  192.4810  174.7970  144.1890 O   0  0  0  0  0  0  0  0  0  0  0  0
  191.0790  172.4140  144.0100 O   0  0  0  0  0  1  0  0  0  0  0  0
  191.1280  173.2510  142.8920 C   0  0  1  0  0  0  0  0  0  0  0  0
  193.8390  176.6020  146.5420 C   0  0  0  0  0  2  0  0  0  0  0  0
  188.6430  174.3630  143.1650 S   0  0  0  0  0  0  0  0  0  0  0  0
  189.8190  176.7090  144.1720 C   0  0  2  0  0  3  0  0  0  0  0  0
  189.7400  173.2320  142.2380 C   0  0  1  0  0  3  0  0  0  0  0  0
  192.0990  176.7740  145.1700 C   0  0  2  0  0  3  0  0  0  0  0  0
  190.0370  175.1540  144.0510 C   0  0  2  0  0  3  0  0  0  0  0  0
  194.4710  175.8700  145.5650 O   0  0  0  0  0  0  0  0  0  0  0  0
  191.1000  177.5670  144.3700 C   0  0  0  0  0  2  0  0  0  0  0  0
  193.6290  176.9160  145.0900 C   0  0  2  0  0  0  0  0  0  0  0  0
  192.8030  176.1440  144.0450 C   0  0  1  0  0  3  0  0  0  0  0  0
  191.3420  174.6830  143.3610 C   0  0  1  0  0  3  0  0  0  0  0  0
  187.1110  176.3860  146.8990 C   0  0  0  0  0  2  0  0  0  0  0  0
  187.5350  177.7590  144.8380 C   0  0  1  0  0  3  0  0  0  0  0  0
  186.5700  177.4250  145.9500 C   0  0  2  0  0  0  0  0  0  0  0  0
  188.8360  177.0860  145.3030 C   0  0  1  0  0  3  0  0  0  0  0  0
  186.2230  178.5900  146.6560 O   0  0  0  0  0  0  0  0  0  0  0  0
  185.1760  177.9110  146.0040 C   0  0  0  0  0  2  0  0  0  0  0  0
  188.4330  175.9690  146.2700 C   0  0  0  0  0  2  0  0  0  0  0  0
  187.0140  177.2830  143.4710 C   0  0  0  0  0  2  0  0  0  0  0  0
  186.3890  178.6320  142.4120 S   0  0  0  0  0  0  0  0  0  0  0  0
  184.7490  177.8660  142.2950 C   0  0  0  0  0  1  0  0  0  0  0  0
  189.6860  173.5250  140.7310 C   0  0  0  0  0  2  0  0  0  0  0  0
  188.6110  174.5340  140.3510 C   0  0  0  0  0  1  0  0  0  0  0  0
  192.2590  172.7300  141.9840 C   0  0  0  0  0  2  0  0  0  0  0  0
  192.3930  171.2140  141.9380 C   0  0  0  0  0  1  0  0  0  0  0  0
  3 14  1  0  0  0  0
  3  2  1  1  0  0  0
  6 11  1  1  0  0  0
  6 18  1  0  0  0  0
  7 25  1  6  0  0  0
  7  3  1  0  0  0  0
  7  5  1  0  0  0  0
  8 11  1  6  0  0  0
  9  5  1  6  0  0  0
  9  6  1  0  0  0  0
 10  4  1  0  0  0  0
 12  8  1  0  0  0  0
 12 10  1  0  0  0  0
 12  4  1  6  0  0  0
 13  1  1  1  0  0  0
 13 12  1  0  0  0  0
 13  8  1  0  0  0  0
 14  9  1  0  0  0  0
 14  1  1  1  0  0  0
 16 22  1  6  0  0  0
 16 18  1  0  0  0  0
 16 17  1  0  0  0  0
 17 20  1  6  0  0  0
 17 19  1  0  0  0  0
 17 15  1  0  0  0  0
 18 21  1  6  0  0  0
 20 19  1  0  0  0  0
 21 15  1  0  0  0  0
 23 22  1  0  0  0  0
 24 23  1  0  0  0  0
 26 25  1  0  0  0  0
 27  3  1  0  0  0  0
 28 27  1  0  0  0  0
M  END
>  <MODEL>
5

>  <REMARK>
 VINA RESULT:      -6.8      1.343      1.536
  Name = 
  5 active torsions:
  status: ('A' for Active; 'I' for Inactive)
    1  A    between atoms: C_3  and  C_7
    2  A    between atoms: C_6  and  C_11
    3  A    between atoms: C_9  and  C_18
    4  A    between atoms: C_10  and  C_13
    5  A    between atoms: S_14  and  C_18
                            x       y       z     vdW  Elec       q    Type
                         _______ _______ _______ _____ _____    ______ ____

>  <TORSDO>
F 5

$$$$
=
 OpenBabel11052418153D

 28 33  0  0  1  0  0  0  0  0999 V2000
  186.5710  177.8000  144.8720 O   0  0  0  0  0  0  0  0  0  0  0  0
  187.1770  178.9460  142.4240 O   0  0  0  0  0  1  0  0  0  0  0  0
  186.9100  177.5750  142.4770 C   0  0  1  0  0  0  0  0  0  0  0  0
  186.6920  178.6660  148.0140 C   0  0  0  0  0  2  0  0  0  0  0  0
  189.5020  176.7010  142.3880 S   0  0  0  0  0  0  0  0  0  0  0  0
  189.4040  176.1730  145.1470 C   0  0  2  0  0  3  0  0  0  0  0  0
  187.8960  176.8750  141.5320 C   0  0  1  0  0  3  0  0  0  0  0  0
  187.7640  177.2440  146.6840 C   0  0  2  0  0  3  0  0  0  0  0  0
  188.7860  177.0930  144.0270 C   0  0  2  0  0  3  0  0  0  0  0  0
  185.5790  178.4790  147.2290 O   0  0  0  0  0  0  0  0  0  0  0  0
  188.5440  175.9810  146.4270 C   0  0  0  0  0  2  0  0  0  0  0  0
  186.4030  177.3300  147.3960 C   0  0  2  0  0  0  0  0  0  0  0  0
  186.5550  176.8920  145.9280 C   0  0  1  0  0  3  0  0  0  0  0  0
  187.2450  177.0650  143.8700 C   0  0  1  0  0  3  0  0  0  0  0  0
  193.0580  177.3950  145.0000 C   0  0  0  0  0  2  0  0  0  0  0  0
  191.7530  175.5270  146.0560 C   0  0  1  0  0  3  0  0  0  0  0  0
  193.1160  176.1260  145.8110 C   0  0  2  0  0  0  0  0  0  0  0  0
  190.8030  176.6460  145.6020 C   0  0  1  0  0  3  0  0  0  0  0  0
  193.7680  176.3640  147.0340 O   0  0  0  0  0  0  0  0  0  0  0  0
  194.3850  175.4530  146.1560 C   0  0  0  0  0  2  0  0  0  0  0  0
  191.5900  177.5200  144.6210 C   0  0  0  0  0  2  0  0  0  0  0  0
  191.5780  174.1900  145.3140 C   0  0  0  0  0  2  0  0  0  0  0  0
  192.2730  174.1890  143.6260 S   0  0  0  0  0  0  0  0  0  0  0  0
  191.1870  172.8310  143.1110 C   0  0  0  0  0  1  0  0  0  0  0  0
  187.4410  175.5340  140.9340 C   0  0  0  0  0  2  0  0  0  0  0  0
  188.1910  174.3370  141.5030 C   0  0  0  0  0  1  0  0  0  0  0  0
  185.4300  177.3860  142.0950 C   0  0  0  0  0  2  0  0  0  0  0  0
  184.9390  178.2900  140.9730 C   0  0  0  0  0  1  0  0  0  0  0  0
  3  2  1  6  0  0  0
  3 14  1  0  0  0  0
  6 18  1  0  0  0  0
  6 11  1  1  0  0  0
  7 25  1  1  0  0  0
  7  5  1  0  0  0  0
  7  3  1  0  0  0  0
  8 11  1  1  0  0  0
  8 12  1  0  0  0  0
  9  5  1  6  0  0  0
  9  6  1  0  0  0  0
 10 12  1  0  0  0  0
 10  4  1  0  0  0  0
 12  4  1  1  0  0  0
 13  1  1  6  0  0  0
 13  8  1  0  0  0  0
 13 12  1  0  0  0  0
 14  9  1  0  0  0  0
 14  1  1  1  0  0  0
 16 22  1  6  0  0  0
 17 15  1  6  0  0  0
 17 16  1  0  0  0  0
 17 20  1  0  0  0  0
 17 19  1  0  0  0  0
 18 21  1  6  0  0  0
 18 16  1  0  0  0  0
 20 19  1  0  0  0  0
 21 15  1  0  0  0  0
 23 22  1  0  0  0  0
 24 23  1  0  0  0  0
 25 26  1  0  0  0  0
 27  3  1  0  0  0  0
 28 27  1  0  0  0  0
M  END
>  <MODEL>
6

>  <REMARK>
 VINA RESULT:      -6.4      2.326      6.174
  Name = 
  5 active torsions:
  status: ('A' for Active; 'I' for Inactive)
    1  A    between atoms: C_3  and  C_7
    2  A    between atoms: C_6  and  C_11
    3  A    between atoms: C_9  and  C_18
    4  A    between atoms: C_10  and  C_13
    5  A    between atoms: S_14  and  C_18
                            x       y       z     vdW  Elec       q    Type
                         _______ _______ _______ _____ _____    ______ ____

>  <TORSDO>
F 5

$$$$
=
 OpenBabel11052418153D

 28 33  0  0  1  0  0  0  0  0999 V2000
  191.9510  174.0320  141.7450 O   0  0  0  0  0  0  0  0  0  0  0  0
  193.5100  176.2920  142.1140 O   0  0  0  0  0  1  0  0  0  0  0  0
  193.2780  175.4500  143.2050 C   0  0  1  0  0  0  0  0  0  0  0  0
  189.9820  172.8350  139.4360 C   0  0  0  0  0  2  0  0  0  0  0  0
  191.3270  176.9470  144.4060 S   0  0  0  0  0  0  0  0  0  0  0  0
  189.3810  175.1650  143.4360 C   0  0  2  0  0  3  0  0  0  0  0  0
  193.0500  176.3390  144.4350 C   0  0  1  0  0  3  0  0  0  0  0  0
  189.7570  173.6630  141.4870 C   0  0  2  0  0  3  0  0  0  0  0  0
  190.8150  175.7410  143.1270 C   0  0  2  0  0  3  0  0  0  0  0  0
  191.2210  172.3760  139.8140 O   0  0  0  0  0  0  0  0  0  0  0  0
  189.0500  173.7810  142.8110 C   0  0  0  0  0  2  0  0  0  0  0  0
  190.2270  172.3520  140.8350 C   0  0  2  0  0  0  0  0  0  0  0  0
  190.9960  173.0440  141.9740 C   0  0  1  0  0  3  0  0  0  0  0  0
  191.9650  174.7130  142.9830 C   0  0  1  0  0  3  0  0  0  0  0  0
  187.5720  178.3770  142.3050 C   0  0  0  0  0  2  0  0  0  0  0  0
  187.4520  176.7320  144.1990 C   0  0  1  0  0  3  0  0  0  0  0  0
  186.9300  178.0250  143.6230 C   0  0  2  0  0  0  0  0  0  0  0  0
  188.2490  176.1350  143.0300 C   0  0  1  0  0  3  0  0  0  0  0  0
  185.5330  177.9630  143.4780 O   0  0  0  0  0  0  0  0  0  0  0  0
  186.0340  178.9490  144.3490 C   0  0  0  0  0  2  0  0  0  0  0  0
  188.6350  177.3040  142.1180 C   0  0  0  0  0  2  0  0  0  0  0  0
  188.2670  176.9690  145.4830 C   0  0  0  0  0  2  0  0  0  0  0  0
  187.5020  176.2590  146.9810 S   0  0  0  0  0  0  0  0  0  0  0  0
  188.8790  175.1010  147.2120 C   0  0  0  0  0  1  0  0  0  0  0  0
  193.3950  175.7230  145.8000 C   0  0  0  0  0  2  0  0  0  0  0  0
  193.8340  176.7540  146.8320 C   0  0  0  0  0  1  0  0  0  0  0  0
  194.4940  174.5120  143.3210 C   0  0  0  0  0  2  0  0  0  0  0  0
  195.8350  175.1660  143.0210 C   0  0  0  0  0  1  0  0  0  0  0  0
  3  2  1  6  0  0  0
  3 27  1  0  0  0  0
  3  7  1  0  0  0  0
  4 10  1  0  0  0  0
  5  7  1  0  0  0  0
  6 11  1  6  0  0  0
  7 25  1  1  0  0  0
  8 13  1  0  0  0  0
  8 11  1  1  0  0  0
  9  6  1  0  0  0  0
  9  5  1  1  0  0  0
 10 12  1  0  0  0  0
 12  4  1  1  0  0  0
 12  8  1  0  0  0  0
 12 13  1  0  0  0  0
 13  1  1  6  0  0  0
 14  1  1  6  0  0  0
 14  9  1  0  0  0  0
 14  3  1  0  0  0  0
 16 22  1  1  0  0  0
 17 15  1  6  0  0  0
 17 16  1  0  0  0  0
 17 20  1  0  0  0  0
 18 21  1  1  0  0  0
 18  6  1  0  0  0  0
 18 16  1  0  0  0  0
 19 17  1  0  0  0  0
 19 20  1  0  0  0  0
 21 15  1  0  0  0  0
 22 23  1  0  0  0  0
 23 24  1  0  0  0  0
 25 26  1  0  0  0  0
 28 27  1  0  0  0  0
M  END
>  <MODEL>
7

>  <REMARK>
 VINA RESULT:      -6.3      2.360      5.112
  Name = 
  5 active torsions:
  status: ('A' for Active; 'I' for Inactive)
    1  A    between atoms: C_3  and  C_7
    2  A    between atoms: C_6  and  C_11
    3  A    between atoms: C_9  and  C_18
    4  A    between atoms: C_10  and  C_13
    5  A    between atoms: S_14  and  C_18
                            x       y       z     vdW  Elec       q    Type
                         _______ _______ _______ _____ _____    ______ ____

>  <TORSDO>
F 5

$$$$
=
 OpenBabel11052418153D

 28 33  0  0  1  0  0  0  0  0999 V2000
  187.1320  177.3560  144.7480 O   0  0  0  0  0  0  0  0  0  0  0  0
  187.9260  178.3200  142.2750 O   0  0  0  0  0  1  0  0  0  0  0  0
  187.5200  176.9870  142.3780 C   0  0  1  0  0  0  0  0  0  0  0  0
  187.2440  178.3520  147.8520 C   0  0  0  0  0  2  0  0  0  0  0  0
  190.0110  175.8550  142.4190 S   0  0  0  0  0  0  0  0  0  0  0  0
  189.7760  175.4700  145.1930 C   0  0  2  0  0  3  0  0  0  0  0  0
  188.4590  176.1490  141.5000 C   0  0  1  0  0  3  0  0  0  0  0  0
  188.2060  176.7700  146.6240 C   0  0  2  0  0  3  0  0  0  0  0  0
  189.2900  176.3940  144.0130 C   0  0  2  0  0  3  0  0  0  0  0  0
  186.1420  178.2410  147.0370 O   0  0  0  0  0  0  0  0  0  0  0  0
  188.8620  175.4250  146.4490 C   0  0  0  0  0  2  0  0  0  0  0  0
  186.8400  177.0240  147.2830 C   0  0  2  0  0  0  0  0  0  0  0  0
  186.9920  176.5050  145.8420 C   0  0  1  0  0  3  0  0  0  0  0  0
  187.7590  176.5120  143.8040 C   0  0  1  0  0  3  0  0  0  0  0  0
  193.3340  176.9560  145.2570 C   0  0  0  0  0  2  0  0  0  0  0  0
  192.2430  174.7060  145.4980 C   0  0  1  0  0  3  0  0  0  0  0  0
  193.5410  175.4710  145.4160 C   0  0  2  0  0  0  0  0  0  0  0  0
  191.2010  175.8220  145.6760 C   0  0  1  0  0  3  0  0  0  0  0  0
  194.3290  175.2130  146.5510 O   0  0  0  0  0  0  0  0  0  0  0  0
  194.8690  174.8320  145.3080 C   0  0  0  0  0  2  0  0  0  0  0  0
  191.8260  177.1010  145.1120 C   0  0  0  0  0  2  0  0  0  0  0  0
  192.0290  173.8130  144.2630 C   0  0  0  0  0  2  0  0  0  0  0  0
  192.5890  172.0910  144.4950 S   0  0  0  0  0  0  0  0  0  0  0  0
  193.5990  172.1490  142.9900 C   0  0  0  0  0  1  0  0  0  0  0  0
  187.8890  174.8340  140.9460 C   0  0  0  0  0  2  0  0  0  0  0  0
  188.4000  173.6000  141.6780 C   0  0  0  0  0  1  0  0  0  0  0  0
  186.0410  176.9290  141.9540 C   0  0  0  0  0  2  0  0  0  0  0  0
  185.5500  178.1450  141.1810 C   0  0  0  0  0  1  0  0  0  0  0  0
  3  2  1  6  0  0  0
  3 14  1  0  0  0  0
  6 18  1  0  0  0  0
  6 11  1  1  0  0  0
  7 25  1  1  0  0  0
  7  3  1  0  0  0  0
  7  5  1  0  0  0  0
  8 11  1  1  0  0  0
  8 12  1  0  0  0  0
  9  5  1  6  0  0  0
  9  6  1  0  0  0  0
 10 12  1  0  0  0  0
 10  4  1  0  0  0  0
 12  4  1  1  0  0  0
 13  1  1  6  0  0  0
 13  8  1  0  0  0  0
 13 12  1  0  0  0  0
 14  9  1  0  0  0  0
 14  1  1  1  0  0  0
 16 22  1  6  0  0  0
 16 18  1  0  0  0  0
 17 15  1  6  0  0  0
 17 16  1  0  0  0  0
 17 19  1  0  0  0  0
 18 21  1  6  0  0  0
 20 17  1  0  0  0  0
 20 19  1  0  0  0  0
 21 15  1  0  0  0  0
 22 23  1  0  0  0  0
 24 23  1  0  0  0  0
 25 26  1  0  0  0  0
 27  3  1  0  0  0  0
 28 27  1  0  0  0  0
M  END
>  <MODEL>
8

>  <REMARK>
 VINA RESULT:      -6.3      2.460      6.327
  Name = 
  5 active torsions:
  status: ('A' for Active; 'I' for Inactive)
    1  A    between atoms: C_3  and  C_7
    2  A    between atoms: C_6  and  C_11
    3  A    between atoms: C_9  and  C_18
    4  A    between atoms: C_10  and  C_13
    5  A    between atoms: S_14  and  C_18
                            x       y       z     vdW  Elec       q    Type
                         _______ _______ _______ _____ _____    ______ ____

>  <TORSDO>
F 5

$$$$
=
 OpenBabel11052418153D

 28 33  0  0  1  0  0  0  0  0999 V2000
  189.0000  175.4650  144.4130 O   0  0  0  0  0  0  0  0  0  0  0  0
  188.9260  174.7390  147.0860 O   0  0  0  0  0  1  0  0  0  0  0  0
  189.4640  175.9820  146.7410 C   0  0  1  0  0  0  0  0  0  0  0  0
  188.5430  174.0160  141.5270 C   0  0  0  0  0  2  0  0  0  0  0  0
  192.1060  175.2920  146.9210 S   0  0  0  0  0  0  0  0  0  0  0  0
  192.2510  175.1720  144.1160 C   0  0  2  0  0  3  0  0  0  0  0  0
  190.6950  176.2140  147.6270 C   0  0  1  0  0  3  0  0  0  0  0  0
  190.2560  174.8690  142.6580 C   0  0  2  0  0  3  0  0  0  0  0  0
  191.2540  175.0090  145.3250 C   0  0  2  0  0  3  0  0  0  0  0  0
  187.7410  174.9460  142.1450 O   0  0  0  0  0  0  0  0  0  0  0  0
  191.6120  175.5190  142.7430 C   0  0  0  0  0  2  0  0  0  0  0  0
  189.0600  175.3880  141.8420 C   0  0  2  0  0  0  0  0  0  0  0  0
  189.4650  175.9780  143.2050 C   0  0  1  0  0  3  0  0  0  0  0  0
  189.9920  175.9090  145.3160 C   0  0  1  0  0  3  0  0  0  0  0  0
  194.3360  172.0180  144.8760 C   0  0  0  0  0  2  0  0  0  0  0  0
  194.6350  174.2190  143.7030 C   0  0  1  0  0  3  0  0  0  0  0  0
  195.2920  172.9420  144.1640 C   0  0  2  0  0  0  0  0  0  0  0  0
  193.1400  173.9260  143.9060 C   0  0  1  0  0  3  0  0  0  0  0  0
  195.8810  172.2780  143.0730 O   0  0  0  0  0  0  0  0  0  0  0  0
  196.7470  172.6950  144.1020 C   0  0  0  0  0  2  0  0  0  0  0  0
  193.0480  172.8240  144.9650 C   0  0  0  0  0  2  0  0  0  0  0  0
  195.1640  175.4420  144.4740 C   0  0  0  0  0  2  0  0  0  0  0  0
  196.3880  176.4250  143.5420 S   0  0  0  0  0  0  0  0  0  0  0  0
  195.6050  176.0180  141.9580 C   0  0  0  0  0  1  0  0  0  0  0  0
  191.0770  177.6770  147.9040 C   0  0  0  0  0  2  0  0  0  0  0  0
  191.5290  177.9200  149.3380 C   0  0  0  0  0  1  0  0  0  0  0  0
  188.3480  177.0270  146.9270 C   0  0  0  0  0  2  0  0  0  0  0  0
  186.9360  176.4590  146.9270 C   0  0  0  0  0  1  0  0  0  0  0  0
  3 27  1  0  0  0  0
  3  2  1  1  0  0  0
  3  7  1  0  0  0  0
  4 10  1  0  0  0  0
  5  7  1  0  0  0  0
  6 11  1  6  0  0  0
  6  9  1  0  0  0  0
  7 25  1  6  0  0  0
  8 11  1  6  0  0  0
  8 13  1  0  0  0  0
  9  5  1  1  0  0  0
 12  4  1  6  0  0  0
 12 10  1  0  0  0  0
 12  8  1  0  0  0  0
 12 13  1  0  0  0  0
 13  1  1  1  0  0  0
 14  1  1  6  0  0  0
 14  9  1  0  0  0  0
 14  3  1  0  0  0  0
 15 21  1  0  0  0  0
 16 18  1  0  0  0  0
 16 17  1  0  0  0  0
 16 22  1  1  0  0  0
 17 20  1  1  0  0  0
 17 15  1  0  0  0  0
 18  6  1  0  0  0  0
 18 21  1  1  0  0  0
 19 20  1  0  0  0  0
 19 17  1  0  0  0  0
 23 22  1  0  0  0  0
 24 23  1  0  0  0  0
 25 26  1  0  0  0  0
 27 28  1  0  0  0  0
M  END
>  <MODEL>
9

>  <REMARK>
 VINA RESULT:      -6.1      3.681      7.988
  Name = 
  5 active torsions:
  status: ('A' for Active; 'I' for Inactive)
    1  A    between atoms: C_3  and  C_7
    2  A    between atoms: C_6  and  C_11
    3  A    between atoms: C_9  and  C_18
    4  A    between atoms: C_10  and  C_13
    5  A    between atoms: S_14  and  C_18
                            x       y       z     vdW  Elec       q    Type
                         _______ _______ _______ _____ _____    ______ ____

>  <TORSDO>
F 5

$$$$
