=
 OpenBabel11052419543D

 37 44  0  0  1  0  0  0  0  0999 V2000
  189.0560  177.3250  144.3800 O   0  0  0  0  0  0  0  0  0  0  0  0
  193.0460  176.0870  145.4760 C   0  0  0  0  0  0  0  0  0  0  0  0
  191.0560  173.5300  143.7100 C   0  0  0  0  0  0  0  0  0  0  0  0
  187.8090  177.0030  144.9470 C   0  0  2  0  0  3  0  0  0  0  0  0
  188.7420  174.5740  140.6920 C   0  0  0  0  0  2  0  0  0  0  0  0
  193.7320  173.7020  145.4310 C   0  0  0  0  0  3  0  0  0  0  0  0
  189.7690  173.8150  142.9410 C   0  0  2  0  0  3  0  0  0  0  0  0
  186.8820  177.5550  142.5890 C   0  0  2  0  0  3  0  0  0  0  0  0
  191.5350  174.4950  144.5340 C   0  0  2  0  0  3  0  0  0  0  0  0
  190.0200  174.0740  141.4140 C   0  0  1  0  0  3  0  0  0  0  0  0
  193.5940  172.2650  145.2190 C   0  0  0  0  0  3  0  0  0  0  0  0
  186.6670  177.5880  144.1120 C   0  0  0  0  0  2  0  0  0  0  0  0
  190.8010  175.7380  144.9200 C   0  0  1  0  0  3  0  0  0  0  0  0
  194.2000  176.6930  144.6970 C   0  0  0  0  0  1  0  0  0  0  0  0
  191.4370  171.3620  142.4980 C   0  0  0  0  0  2  0  0  0  0  0  0
  192.7540  171.6430  144.4010 C   0  0  0  0  0  3  0  0  0  0  0  0
  191.8050  176.7820  145.1210 N   0  0  0  0  0  2  0  0  0  0  0  0
  186.9270  176.1810  141.8880 C   0  0  1  0  0  3  0  0  0  0  0  0
  188.3200  175.7920  141.4750 C   0  0  1  0  0  3  0  0  0  0  0  0
  191.7490  172.2110  143.4920 C   0  0  0  0  0  0  0  0  0  0  0  0
  188.8790  174.9110  143.5860 C   0  0  2  0  0  3  0  0  0  0  0  0
  192.8570  174.6500  145.1030 C   0  0  0  0  0  0  0  0  0  0  0  0
  190.7130  172.8910  140.7130 C   0  0  1  0  0  3  0  0  0  0  0  0
  193.2990  176.2450  146.9670 C   0  0  0  0  0  1  0  0  0  0  0  0
  187.6590  175.0930  142.6690 C   0  0  1  0  0  3  0  0  0  0  0  0
  187.8930  178.4290  142.1740 O   0  0  0  0  0  1  0  0  0  0  0  0
  189.7320  176.1600  143.9250 C   0  0  1  0  0  3  0  0  0  0  0  0
  190.4400  171.5640  141.4010 C   0  0  0  0  0  2  0  0  0  0  0  0
  189.7030  171.8990  138.6110 C   0  0  0  0  0  3  0  0  0  0  0  0
  190.5540  172.8350  139.2200 C   0  0  0  0  0  0  0  0  0  0  0  0
  191.2400  173.7620  138.4280 C   0  0  0  0  0  3  0  0  0  0  0  0
  191.9540  174.9070  136.0540 Cl  0  0  0  0  0  0  0  0  0  0  0  0
  190.2480  172.8090  136.4350 C   0  0  0  0  0  3  0  0  0  0  0  0
  191.0900  173.7470  137.0390 C   0  0  0  0  0  0  0  0  0  0  0  0
  189.5540  171.8850  137.2220 C   0  0  0  0  0  3  0  0  0  0  0  0
  186.5840  176.8750  147.1130 C   0  0  0  0  0  1  0  0  0  0  0  0
  187.7190  177.5440  146.3630 C   0  0  0  0  0  2  0  0  0  0  0  0
  1  4  1  0  0  0  0
  2 24  1  0  0  0  0
  4 37  1  1  0  0  0
  5 19  1  0  0  0  0
  7 21  1  0  0  0  0
  7  3  1  1  0  0  0
  8 26  1  1  0  0  0
  8 12  1  0  0  0  0
  9  3  1  6  0  0  0
  9 13  1  0  0  0  0
  9 22  1  0  0  0  0
 10  5  1  6  0  0  0
 10  7  1  0  0  0  0
 11  6  1  0  0  0  0
 12  4  1  0  0  0  0
 13 17  1  6  0  0  0
 14  2  1  0  0  0  0
 15 20  1  0  0  0  0
 16 11  2  0  0  0  0
 17  2  1  0  0  0  0
 18  8  1  0  0  0  0
 18 25  1  0  0  0  0
 19 18  1  0  0  0  0
 19 25  1  0  0  0  0
 20  3  2  0  0  0  0
 20 16  1  0  0  0  0
 21 27  1  0  0  0  0
 22  6  2  0  0  0  0
 22  2  1  0  0  0  0
 23 28  1  0  0  0  0
 23 10  1  0  0  0  0
 25 21  1  0  0  0  0
 27  1  1  0  0  0  0
 27 13  1  0  0  0  0
 28 15  1  0  0  0  0
 29 30  1  0  0  0  0
 30 23  1  0  0  0  0
 31 30  2  0  0  0  0
 32 34  1  0  0  0  0
 33 34  2  0  0  0  0
 33 35  1  0  0  0  0
 34 31  1  0  0  0  0
 35 29  2  0  0  0  0
 37 36  1  0  0  0  0
M  END
>  <MODEL>
1

>  <REMARK>
 VINA RESULT:      -8.5      0.000      0.000
  Name = 
  2 active torsions:
  status: ('A' for Active; 'I' for Inactive)
    1  A    between atoms: C_5  and  C_23
    2  A    between atoms: C_6  and  C_31
                            x       y       z     vdW  Elec       q    Type
                         _______ _______ _______ _____ _____    ______ ____

>  <TORSDO>
F 2

$$$$
=
 OpenBabel11052419543D

 37 44  0  0  1  0  0  0  0  0999 V2000
  189.1230  177.2660  144.4760 O   0  0  0  0  0  0  0  0  0  0  0  0
  193.1300  176.2240  145.7060 C   0  0  0  0  0  0  0  0  0  0  0  0
  191.3080  173.5550  143.9250 C   0  0  0  0  0  0  0  0  0  0  0  0
  187.8760  176.8970  145.0130 C   0  0  2  0  0  3  0  0  0  0  0  0
  189.0390  174.4490  140.8260 C   0  0  0  0  0  2  0  0  0  0  0  0
  193.9220  173.8720  145.7190 C   0  0  0  0  0  3  0  0  0  0  0  0
  190.0330  173.7700  143.1160 C   0  0  2  0  0  3  0  0  0  0  0  0
  186.9950  177.3720  142.6210 C   0  0  2  0  0  3  0  0  0  0  0  0
  191.7200  174.5520  144.7470 C   0  0  2  0  0  3  0  0  0  0  0  0
  190.3170  174.0170  141.5920 C   0  0  1  0  0  3  0  0  0  0  0  0
  193.8540  172.4270  145.5260 C   0  0  0  0  0  3  0  0  0  0  0  0
  186.7340  177.4180  144.1360 C   0  0  0  0  0  2  0  0  0  0  0  0
  190.9200  175.7670  145.0920 C   0  0  1  0  0  3  0  0  0  0  0  0
  194.2780  176.8700  144.9510 C   0  0  0  0  0  1  0  0  0  0  0  0
  191.8200  171.3880  142.7600 C   0  0  0  0  0  2  0  0  0  0  0  0
  193.0670  171.7560  144.6960 C   0  0  0  0  0  3  0  0  0  0  0  0
  191.8700  176.8580  145.3050 N   0  0  0  0  0  2  0  0  0  0  0  0
  187.1210  175.9910  141.9430 C   0  0  1  0  0  3  0  0  0  0  0  0
  188.5410  175.6590  141.5770 C   0  0  1  0  0  3  0  0  0  0  0  0
  192.0640  172.2650  143.7490 C   0  0  0  0  0  0  0  0  0  0  0  0
  189.0760  174.8360  143.7160 C   0  0  2  0  0  3  0  0  0  0  0  0
  193.0160  174.7750  145.3510 C   0  0  0  0  0  0  0  0  0  0  0  0
  191.0810  172.8560  140.9300 C   0  0  1  0  0  3  0  0  0  0  0  0
  193.3310  176.4160  147.2010 C   0  0  0  0  0  1  0  0  0  0  0  0
  187.8780  174.9490  142.7620 C   0  0  1  0  0  3  0  0  0  0  0  0
  187.9770  178.2840  142.2210 O   0  0  0  0  0  1  0  0  0  0  0  0
  189.8630  176.1260  144.0600 C   0  0  1  0  0  3  0  0  0  0  0  0
  190.8480  171.5290  141.6320 C   0  0  0  0  0  2  0  0  0  0  0  0
  191.4130  173.8150  138.6090 C   0  0  0  0  0  3  0  0  0  0  0  0
  190.9690  172.7710  139.4350 C   0  0  0  0  0  0  0  0  0  0  0  0
  190.4440  171.6090  138.8580 C   0  0  0  0  0  3  0  0  0  0  0  0
  189.6910  170.0410  136.7530 Cl  0  0  0  0  0  0  0  0  0  0  0  0
  190.7880  172.5400  136.6490 C   0  0  0  0  0  3  0  0  0  0  0  0
  190.3510  171.4950  137.4680 C   0  0  0  0  0  0  0  0  0  0  0  0
  191.3190  173.7000  137.2190 C   0  0  0  0  0  3  0  0  0  0  0  0
  186.5460  176.8000  147.1180 C   0  0  0  0  0  1  0  0  0  0  0  0
  187.7210  177.4550  146.4170 C   0  0  0  0  0  2  0  0  0  0  0  0
  1  4  1  0  0  0  0
  2 24  1  0  0  0  0
  4 37  1  1  0  0  0
  5 19  1  0  0  0  0
  7 21  1  0  0  0  0
  7  3  1  1  0  0  0
  8 26  1  1  0  0  0
  8 12  1  0  0  0  0
  9  3  1  6  0  0  0
  9 13  1  0  0  0  0
  9 22  1  0  0  0  0
 10  5  1  6  0  0  0
 10  7  1  0  0  0  0
 11  6  1  0  0  0  0
 12  4  1  0  0  0  0
 13 17  1  6  0  0  0
 14  2  1  0  0  0  0
 15 20  1  0  0  0  0
 16 11  2  0  0  0  0
 17  2  1  0  0  0  0
 18  8  1  0  0  0  0
 18 25  1  0  0  0  0
 19 18  1  0  0  0  0
 19 25  1  0  0  0  0
 20  3  2  0  0  0  0
 20 16  1  0  0  0  0
 21 27  1  0  0  0  0
 22  2  1  0  0  0  0
 22  6  2  0  0  0  0
 23 10  1  0  0  0  0
 23 28  1  0  0  0  0
 25 21  1  0  0  0  0
 27  1  1  0  0  0  0
 27 13  1  0  0  0  0
 28 15  1  0  0  0  0
 29 30  1  0  0  0  0
 30 23  1  0  0  0  0
 31 30  2  0  0  0  0
 32 34  1  0  0  0  0
 33 35  1  0  0  0  0
 33 34  2  0  0  0  0
 34 31  1  0  0  0  0
 35 29  2  0  0  0  0
 37 36  1  0  0  0  0
M  END
>  <MODEL>
2

>  <REMARK>
 VINA RESULT:      -8.3      0.965      1.241
  Name = 
  2 active torsions:
  status: ('A' for Active; 'I' for Inactive)
    1  A    between atoms: C_5  and  C_23
    2  A    between atoms: C_6  and  C_31
                            x       y       z     vdW  Elec       q    Type
                         _______ _______ _______ _____ _____    ______ ____

>  <TORSDO>
F 2

$$$$
=
 OpenBabel11052419543D

 37 44  0  0  1  0  0  0  0  0999 V2000
  193.7220  175.3760  145.2960 O   0  0  0  0  0  0  0  0  0  0  0  0
  189.5860  176.0040  146.3690 C   0  0  0  0  0  0  0  0  0  0  0  0
  190.1580  175.1440  142.8270 C   0  0  0  0  0  0  0  0  0  0  0  0
  194.6200  176.1980  144.5920 C   0  0  2  0  0  3  0  0  0  0  0  0
  192.8400  172.4150  141.8720 C   0  0  0  0  0  2  0  0  0  0  0  0
  187.8240  176.3190  144.6500 C   0  0  0  0  0  3  0  0  0  0  0  0
  191.4580  174.5640  142.2770 C   0  0  2  0  0  3  0  0  0  0  0  0
  195.8190  173.9690  144.0290 C   0  0  2  0  0  3  0  0  0  0  0  0
  190.1700  175.6670  144.0780 C   0  0  2  0  0  3  0  0  0  0  0  0
  191.4450  172.9950  142.2230 C   0  0  1  0  0  3  0  0  0  0  0  0
  187.2510  176.4230  143.3110 C   0  0  0  0  0  3  0  0  0  0  0  0
  195.9440  175.4690  144.3470 C   0  0  0  0  0  2  0  0  0  0  0  0
  191.3990  175.9170  144.8930 C   0  0  1  0  0  3  0  0  0  0  0  0
  188.9190  174.9370  147.2180 C   0  0  0  0  0  1  0  0  0  0  0  0
  188.8290  174.3410  140.8520 C   0  0  0  0  0  2  0  0  0  0  0  0
  187.7210  175.8990  142.1860 C   0  0  0  0  0  3  0  0  0  0  0  0
  191.0250  175.7340  146.2950 N   0  0  0  0  0  2  0  0  0  0  0  0
  195.1440  173.5570  142.7040 C   0  0  1  0  0  3  0  0  0  0  0  0
  193.7630  173.0010  142.9120 C   0  0  1  0  0  3  0  0  0  0  0  0
  188.9210  175.0790  141.9710 C   0  0  0  0  0  0  0  0  0  0  0  0
  192.7360  175.1180  142.9620 C   0  0  2  0  0  3  0  0  0  0  0  0
  189.0660  175.9620  144.9670 C   0  0  0  0  0  0  0  0  0  0  0  0
  190.3000  172.4360  141.3590 C   0  0  1  0  0  3  0  0  0  0  0  0
  189.3660  177.3700  147.0020 C   0  0  0  0  0  1  0  0  0  0  0  0
  193.9340  174.4030  142.3180 C   0  0  1  0  0  3  0  0  0  0  0  0
  195.3890  173.2240  145.1320 O   0  0  0  0  0  1  0  0  0  0  0  0
  192.5870  175.0540  144.5030 C   0  0  1  0  0  3  0  0  0  0  0  0
  189.8520  173.4100  140.2830 C   0  0  0  0  0  2  0  0  0  0  0  0
  190.6780  169.9600  141.7410 C   0  0  0  0  0  3  0  0  0  0  0  0
  190.4880  171.0330  140.8570 C   0  0  0  0  0  0  0  0  0  0  0  0
  190.4360  170.7920  139.4790 C   0  0  0  0  0  3  0  0  0  0  0  0
  190.5200  169.1980  137.2640 Cl  0  0  0  0  0  0  0  0  0  0  0  0
  190.7790  168.4270  139.8710 C   0  0  0  0  0  3  0  0  0  0  0  0
  190.5840  169.4920  138.9880 C   0  0  0  0  0  0  0  0  0  0  0  0
  190.8260  168.6610  141.2480 C   0  0  0  0  0  3  0  0  0  0  0  0
  194.3330  177.3590  146.7780 C   0  0  0  0  0  1  0  0  0  0  0  0
  194.8900  177.4730  145.3720 C   0  0  0  0  0  2  0  0  0  0  0  0
  2 24  1  0  0  0  0
  2 14  1  0  0  0  0
  4  1  1  0  0  0  0
  4 37  1  1  0  0  0
  5 19  1  0  0  0  0
  6 22  2  0  0  0  0
  7  3  1  1  0  0  0
  7 21  1  0  0  0  0
  8 12  1  0  0  0  0
  8 26  1  1  0  0  0
  9  3  1  1  0  0  0
  9 13  1  0  0  0  0
  9 22  1  0  0  0  0
 10  5  1  6  0  0  0
 10  7  1  0  0  0  0
 11  6  1  0  0  0  0
 12  4  1  0  0  0  0
 13 17  1  1  0  0  0
 15 20  1  0  0  0  0
 16 11  2  0  0  0  0
 17  2  1  0  0  0  0
 18 19  1  0  0  0  0
 18  8  1  0  0  0  0
 20 16  1  0  0  0  0
 20  3  2  0  0  0  0
 21 27  1  0  0  0  0
 22  2  1  0  0  0  0
 23 10  1  0  0  0  0
 25 18  1  0  0  0  0
 25 19  1  0  0  0  0
 25 21  1  0  0  0  0
 27 13  1  0  0  0  0
 27  1  1  0  0  0  0
 28 15  1  0  0  0  0
 28 23  1  0  0  0  0
 30 23  1  0  0  0  0
 30 29  2  0  0  0  0
 31 30  1  0  0  0  0
 32 34  1  0  0  0  0
 33 35  2  0  0  0  0
 34 31  2  0  0  0  0
 34 33  1  0  0  0  0
 35 29  1  0  0  0  0
 37 36  1  0  0  0  0
M  END
>  <MODEL>
3

>  <REMARK>
 VINA RESULT:      -8.3      2.524      5.481
  Name = 
  2 active torsions:
  status: ('A' for Active; 'I' for Inactive)
    1  A    between atoms: C_5  and  C_23
    2  A    between atoms: C_6  and  C_31
                            x       y       z     vdW  Elec       q    Type
                         _______ _______ _______ _____ _____    ______ ____

>  <TORSDO>
F 2

$$$$
=
 OpenBabel11052419543D

 37 44  0  0  1  0  0  0  0  0999 V2000
  194.8710  175.2170  143.7790 O   0  0  0  0  0  0  0  0  0  0  0  0
  194.3390  174.0870  139.6450 C   0  0  0  0  0  0  0  0  0  0  0  0
  191.3750  173.5880  141.7850 C   0  0  0  0  0  0  0  0  0  0  0  0
  195.0570  174.4250  144.9270 C   0  0  2  0  0  3  0  0  0  0  0  0
  190.4430  176.2760  144.5170 C   0  0  0  0  0  2  0  0  0  0  0  0
  192.4150  172.7050  138.9050 C   0  0  0  0  0  3  0  0  0  0  0  0
  191.1970  174.1980  143.1720 C   0  0  2  0  0  3  0  0  0  0  0  0
  194.0670  176.4680  146.1820 C   0  0  2  0  0  3  0  0  0  0  0  0
  192.6090  173.6220  141.2250 C   0  0  2  0  0  3  0  0  0  0  0  0
  190.4250  175.5640  143.1390 C   0  0  1  0  0  3  0  0  0  0  0  0
  191.1740  171.9460  139.0310 C   0  0  0  0  0  3  0  0  0  0  0  0
  195.0610  175.2940  146.1890 C   0  0  0  0  0  2  0  0  0  0  0  0
  193.8640  174.0180  141.9340 C   0  0  1  0  0  3  0  0  0  0  0  0
  194.2470  175.2080  138.6250 C   0  0  0  0  0  1  0  0  0  0  0  0
  188.9070  173.1990  141.5130 C   0  0  0  0  0  2  0  0  0  0  0  0
  190.2330  172.0780  139.9570 C   0  0  0  0  0  3  0  0  0  0  0  0
  194.7370  174.6440  140.9410 N   0  0  0  0  0  2  0  0  0  0  0  0
  192.5580  176.1460  146.1950 C   0  0  1  0  0  3  0  0  0  0  0  0
  191.9070  176.3900  144.8610 C   0  0  1  0  0  3  0  0  0  0  0  0
  190.1690  173.0090  141.0920 C   0  0  0  0  0  0  0  0  0  0  0  0
  192.5100  174.2850  143.9960 C   0  0  2  0  0  3  0  0  0  0  0  0
  193.0010  173.4460  139.8420 C   0  0  0  0  0  0  0  0  0  0  0  0
  189.0220  175.4430  142.5150 C   0  0  1  0  0  3  0  0  0  0  0  0
  195.3800  173.0740  139.1960 C   0  0  0  0  0  1  0  0  0  0  0  0
  192.1550  174.9520  145.3330 C   0  0  1  0  0  3  0  0  0  0  0  0
  194.4210  177.4600  145.2620 O   0  0  0  0  0  1  0  0  0  0  0  0
  193.6370  174.9150  143.1390 C   0  0  1  0  0  3  0  0  0  0  0  0
  188.4410  174.0460  142.6550 C   0  0  0  0  0  2  0  0  0  0  0  0
  187.9600  177.7070  142.1120 C   0  0  0  0  0  3  0  0  0  0  0  0
  188.0540  176.5330  142.8750 C   0  0  0  0  0  0  0  0  0  0  0  0
  187.2030  176.3530  143.9720 C   0  0  0  0  0  3  0  0  0  0  0  0
  185.2190  177.1110  145.6870 Cl  0  0  0  0  0  0  0  0  0  0  0  0
  186.1910  178.5120  143.5540 C   0  0  0  0  0  3  0  0  0  0  0  0
  186.2760  177.3420  144.3120 C   0  0  0  0  0  0  0  0  0  0  0  0
  187.0330  178.6950  142.4530 C   0  0  0  0  0  3  0  0  0  0  0  0
  196.9690  173.4870  146.2200 C   0  0  0  0  0  1  0  0  0  0  0  0
  196.3700  173.6680  144.8390 C   0  0  0  0  0  2  0  0  0  0  0  0
  1  4  1  0  0  0  0
  2 22  1  0  0  0  0
  2 17  1  0  0  0  0
  4 37  1  6  0  0  0
  4 12  1  0  0  0  0
  5 19  1  0  0  0  0
  6 11  1  0  0  0  0
  6 22  2  0  0  0  0
  7  3  1  6  0  0  0
  7 21  1  0  0  0  0
  8 26  1  6  0  0  0
  8 12  1  0  0  0  0
  8 18  1  0  0  0  0
  9 22  1  6  0  0  0
  9  3  1  0  0  0  0
  9 13  1  0  0  0  0
 10  7  1  0  0  0  0
 10  5  1  1  0  0  0
 11 16  2  0  0  0  0
 13 17  1  6  0  0  0
 13 27  1  0  0  0  0
 14  2  1  0  0  0  0
 15 28  1  0  0  0  0
 16 20  1  0  0  0  0
 19 25  1  0  0  0  0
 19 18  1  0  0  0  0
 20 15  1  0  0  0  0
 20  3  2  0  0  0  0
 21 25  1  0  0  0  0
 23 28  1  0  0  0  0
 23 30  1  0  0  0  0
 23 10  1  0  0  0  0
 24  2  1  0  0  0  0
 25 18  1  0  0  0  0
 27  1  1  0  0  0  0
 27 21  1  0  0  0  0
 29 35  2  0  0  0  0
 29 30  1  0  0  0  0
 30 31  2  0  0  0  0
 31 34  1  0  0  0  0
 33 34  2  0  0  0  0
 34 32  1  0  0  0  0
 35 33  1  0  0  0  0
 37 36  1  0  0  0  0
M  END
>  <MODEL>
4

>  <REMARK>
 VINA RESULT:      -8.2      3.128      6.636
  Name = 
  2 active torsions:
  status: ('A' for Active; 'I' for Inactive)
    1  A    between atoms: C_5  and  C_23
    2  A    between atoms: C_6  and  C_31
                            x       y       z     vdW  Elec       q    Type
                         _______ _______ _______ _____ _____    ______ ____

>  <TORSDO>
F 2

$$$$
=
 OpenBabel11052419543D

 37 44  0  0  1  0  0  0  0  0999 V2000
  189.3580  175.6520  144.6880 O   0  0  0  0  0  0  0  0  0  0  0  0
  189.0430  173.7340  140.8300 C   0  0  0  0  0  0  0  0  0  0  0  0
  192.4940  174.3620  141.9760 C   0  0  0  0  0  0  0  0  0  0  0  0
  189.6700  176.9810  145.0260 C   0  0  2  0  0  3  0  0  0  0  0  0
  193.4440  173.8040  145.7630 C   0  0  0  0  0  2  0  0  0  0  0  0
  190.9780  173.5880  139.2830 C   0  0  0  0  0  3  0  0  0  0  0  0
  192.8780  174.7170  143.4100 C   0  0  2  0  0  3  0  0  0  0  0  0
  190.4410  175.9550  147.2790 C   0  0  2  0  0  3  0  0  0  0  0  0
  191.1850  174.4260  141.6300 C   0  0  2  0  0  3  0  0  0  0  0  0
  193.2700  173.4580  144.2620 C   0  0  1  0  0  3  0  0  0  0  0  0
  192.3520  173.7690  138.8220 C   0  0  0  0  0  3  0  0  0  0  0  0
  189.7900  177.1390  146.5440 C   0  0  0  0  0  2  0  0  0  0  0  0
  190.1010  175.0190  142.4740 C   0  0  1  0  0  3  0  0  0  0  0  0
  188.5980  172.2830  140.8100 C   0  0  0  0  0  1  0  0  0  0  0  0
  194.8250  173.6080  141.4160 C   0  0  0  0  0  2  0  0  0  0  0  0
  193.4430  173.9130  139.5630 C   0  0  0  0  0  3  0  0  0  0  0  0
  188.8780  174.2720  142.1840 N   0  0  0  0  0  2  0  0  0  0  0  0
  191.9330  175.6630  147.0150 C   0  0  1  0  0  3  0  0  0  0  0  0
  192.1360  174.4460  146.1550 C   0  0  1  0  0  3  0  0  0  0  0  0
  193.5780  173.9260  141.0270 C   0  0  0  0  0  0  0  0  0  0  0  0
  191.8440  175.6190  144.1350 C   0  0  2  0  0  3  0  0  0  0  0  0
  190.4990  173.8420  140.4980 C   0  0  0  0  0  0  0  0  0  0  0  0
  194.4480  172.6710  143.6590 C   0  0  1  0  0  3  0  0  0  0  0  0
  188.1910  174.5420  139.8640 C   0  0  0  0  0  1  0  0  0  0  0  0
  192.3670  175.8410  145.5620 C   0  0  1  0  0  3  0  0  0  0  0  0
  189.6360  174.8110  147.2660 O   0  0  0  0  0  1  0  0  0  0  0  0
  190.4160  175.0420  143.9600 C   0  0  1  0  0  3  0  0  0  0  0  0
  195.3590  173.5440  142.8120 C   0  0  0  0  0  2  0  0  0  0  0  0
  196.5310  172.0250  144.9490 C   0  0  0  0  0  3  0  0  0  0  0  0
  195.1910  171.7800  144.6130 C   0  0  0  0  0  0  0  0  0  0  0  0
  194.5160  170.7060  145.2040 C   0  0  0  0  0  3  0  0  0  0  0  0
  194.3290  168.5330  146.8480 Cl  0  0  0  0  0  0  0  0  0  0  0  0
  196.5140  170.1190  146.4410 C   0  0  0  0  0  3  0  0  0  0  0  0
  195.1780  169.8760  146.1140 C   0  0  0  0  0  0  0  0  0  0  0  0
  197.1910  171.1950  145.8590 C   0  0  0  0  0  3  0  0  0  0  0  0
  187.2500  177.5660  145.1080 C   0  0  0  0  0  1  0  0  0  0  0  0
  188.5970  177.9220  144.5090 C   0  0  0  0  0  2  0  0  0  0  0  0
  1  4  1  0  0  0  0
  2 17  1  0  0  0  0
  4 37  1  1  0  0  0
  4 12  1  0  0  0  0
  5 19  1  0  0  0  0
  6 22  2  0  0  0  0
  7  3  1  6  0  0  0
  7 21  1  0  0  0  0
  7 10  1  0  0  0  0
  8 26  1  6  0  0  0
  9 22  1  1  0  0  0
  9  3  1  0  0  0  0
  9 13  1  0  0  0  0
 10  5  1  1  0  0  0
 11  6  1  0  0  0  0
 11 16  2  0  0  0  0
 12  8  1  0  0  0  0
 13 17  1  1  0  0  0
 13 27  1  0  0  0  0
 14  2  1  0  0  0  0
 15 28  1  0  0  0  0
 16 20  1  0  0  0  0
 18  8  1  0  0  0  0
 19 18  1  0  0  0  0
 20 15  1  0  0  0  0
 20  3  2  0  0  0  0
 21 25  1  0  0  0  0
 22  2  1  0  0  0  0
 23 10  1  0  0  0  0
 23 30  1  0  0  0  0
 24  2  1  0  0  0  0
 25 19  1  0  0  0  0
 25 18  1  0  0  0  0
 27 21  1  0  0  0  0
 27  1  1  0  0  0  0
 28 23  1  0  0  0  0
 29 35  1  0  0  0  0
 30 29  2  0  0  0  0
 30 31  1  0  0  0  0
 31 34  2  0  0  0  0
 34 33  1  0  0  0  0
 34 32  1  0  0  0  0
 35 33  2  0  0  0  0
 37 36  1  0  0  0  0
M  END
>  <MODEL>
5

>  <REMARK>
 VINA RESULT:      -7.9      3.061      6.463
  Name = 
  2 active torsions:
  status: ('A' for Active; 'I' for Inactive)
    1  A    between atoms: C_5  and  C_23
    2  A    between atoms: C_6  and  C_31
                            x       y       z     vdW  Elec       q    Type
                         _______ _______ _______ _____ _____    ______ ____

>  <TORSDO>
F 2

$$$$
=
 OpenBabel11052419543D

 37 44  0  0  1  0  0  0  0  0999 V2000
  188.0400  177.9230  144.8350 O   0  0  0  0  0  0  0  0  0  0  0  0
  191.9520  176.2540  145.5850 C   0  0  0  0  0  0  0  0  0  0  0  0
  189.7360  174.1510  143.5160 C   0  0  0  0  0  0  0  0  0  0  0  0
  186.7870  177.6030  145.3890 C   0  0  2  0  0  3  0  0  0  0  0  0
  187.4340  175.8140  140.7790 C   0  0  0  0  0  2  0  0  0  0  0  0
  192.4580  173.8640  145.1470 C   0  0  0  0  0  3  0  0  0  0  0  0
  188.4560  174.6410  142.8460 C   0  0  2  0  0  3  0  0  0  0  0  0
  185.8480  178.5820  143.1800 C   0  0  2  0  0  3  0  0  0  0  0  0
  190.3050  174.9380  144.4610 C   0  0  2  0  0  3  0  0  0  0  0  0
  188.6890  175.1190  141.3690 C   0  0  1  0  0  3  0  0  0  0  0  0
  192.2090  172.4900  144.7200 C   0  0  0  0  0  3  0  0  0  0  0  0
  185.6720  178.3910  144.6960 C   0  0  0  0  0  2  0  0  0  0  0  0
  189.6740  176.1540  145.0610 C   0  0  1  0  0  3  0  0  0  0  0  0
  193.1290  176.8930  144.8700 C   0  0  0  0  0  1  0  0  0  0  0  0
  189.9260  172.1780  141.9700 C   0  0  0  0  0  2  0  0  0  0  0  0
  191.3050  172.0650  143.8460 C   0  0  0  0  0  3  0  0  0  0  0  0
  190.7580  177.0810  145.3870 N   0  0  0  0  0  2  0  0  0  0  0  0
  185.7740  177.3360  142.2730 C   0  0  1  0  0  3  0  0  0  0  0  0
  187.1230  176.9210  141.7560 C   0  0  1  0  0  3  0  0  0  0  0  0
  190.3240  172.8370  143.0720 C   0  0  0  0  0  0  0  0  0  0  0  0
  187.6650  175.6830  143.6840 C   0  0  2  0  0  3  0  0  0  0  0  0
  191.6480  174.9100  145.0010 C   0  0  0  0  0  0  0  0  0  0  0  0
  189.2750  174.0160  140.4690 C   0  0  1  0  0  3  0  0  0  0  0  0
  192.2510  176.1580  147.0730 C   0  0  0  0  0  1  0  0  0  0  0  0
  186.4410  176.0900  142.8490 C   0  0  1  0  0  3  0  0  0  0  0  0
  186.9100  179.4380  142.8700 O   0  0  0  0  0  1  0  0  0  0  0  0
  188.6170  176.8000  144.1820 C   0  0  1  0  0  3  0  0  0  0  0  0
  188.9210  172.6190  140.9530 C   0  0  0  0  0  2  0  0  0  0  0  0
  190.0000  173.7070  138.0620 C   0  0  0  0  0  3  0  0  0  0  0  0
  189.0770  174.2060  138.9930 C   0  0  0  0  0  0  0  0  0  0  0  0
  187.9270  174.8630  138.5410 C   0  0  0  0  0  3  0  0  0  0  0  0
  186.2670  175.8560  136.6130 Cl  0  0  0  0  0  0  0  0  0  0  0  0
  188.6310  174.5390  136.2470 C   0  0  0  0  0  3  0  0  0  0  0  0
  187.7060  175.0310  137.1710 C   0  0  0  0  0  0  0  0  0  0  0  0
  189.7790  173.8760  136.6920 C   0  0  0  0  0  3  0  0  0  0  0  0
  185.7350  178.9860  147.1760 C   0  0  0  0  0  1  0  0  0  0  0  0
  186.7710  177.9210  146.8740 C   0  0  0  0  0  2  0  0  0  0  0  0
  1  4  1  0  0  0  0
  2 24  1  0  0  0  0
  4 37  1  1  0  0  0
  5 19  1  0  0  0  0
  7  3  1  1  0  0  0
  7 21  1  0  0  0  0
  8 26  1  1  0  0  0
  8 12  1  0  0  0  0
  9  3  1  6  0  0  0
  9 22  1  0  0  0  0
  9 13  1  0  0  0  0
 10  5  1  6  0  0  0
 10  7  1  0  0  0  0
 11  6  1  0  0  0  0
 12  4  1  0  0  0  0
 13 17  1  6  0  0  0
 14  2  1  0  0  0  0
 15 20  1  0  0  0  0
 16 11  2  0  0  0  0
 17  2  1  0  0  0  0
 18 25  1  0  0  0  0
 18  8  1  0  0  0  0
 19 18  1  0  0  0  0
 19 25  1  0  0  0  0
 20  3  2  0  0  0  0
 20 16  1  0  0  0  0
 21 27  1  0  0  0  0
 22  6  2  0  0  0  0
 22  2  1  0  0  0  0
 23 28  1  0  0  0  0
 23 10  1  0  0  0  0
 25 21  1  0  0  0  0
 27  1  1  0  0  0  0
 27 13  1  0  0  0  0
 28 15  1  0  0  0  0
 29 30  1  0  0  0  0
 30 23  1  0  0  0  0
 31 30  2  0  0  0  0
 32 34  1  0  0  0  0
 33 35  1  0  0  0  0
 33 34  2  0  0  0  0
 34 31  1  0  0  0  0
 35 29  2  0  0  0  0
 37 36  1  0  0  0  0
M  END
>  <MODEL>
6

>  <REMARK>
 VINA RESULT:      -7.9      1.677      1.978
  Name = 
  2 active torsions:
  status: ('A' for Active; 'I' for Inactive)
    1  A    between atoms: C_5  and  C_23
    2  A    between atoms: C_6  and  C_31
                            x       y       z     vdW  Elec       q    Type
                         _______ _______ _______ _____ _____    ______ ____

>  <TORSDO>
F 2

$$$$
=
 OpenBabel11052419543D

 37 44  0  0  1  0  0  0  0  0999 V2000
  190.0030  176.7180  143.9260 O   0  0  0  0  0  0  0  0  0  0  0  0
  194.1660  176.0040  144.8310 C   0  0  0  0  0  0  0  0  0  0  0  0
  192.2020  172.9770  144.0600 C   0  0  0  0  0  0  0  0  0  0  0  0
  188.8490  176.5090  144.7020 C   0  0  2  0  0  3  0  0  0  0  0  0
  189.5200  173.0530  141.1700 C   0  0  0  0  0  2  0  0  0  0  0  0
  195.0200  173.7310  145.3430 C   0  0  0  0  0  3  0  0  0  0  0  0
  190.8260  172.9830  143.4020 C   0  0  2  0  0  3  0  0  0  0  0  0
  187.6470  176.3540  142.4100 C   0  0  2  0  0  3  0  0  0  0  0  0
  192.6900  174.1500  144.5340 C   0  0  2  0  0  3  0  0  0  0  0  0
  190.8990  172.8260  141.8420 C   0  0  1  0  0  3  0  0  0  0  0  0
  194.9680  172.2850  145.5400 C   0  0  0  0  0  3  0  0  0  0  0  0
  187.5870  176.7930  143.8830 C   0  0  0  0  0  2  0  0  0  0  0  0
  191.9080  175.4180  144.6590 C   0  0  1  0  0  3  0  0  0  0  0  0
  195.1850  176.4250  143.7880 C   0  0  0  0  0  1  0  0  0  0  0  0
  192.6170  170.5790  143.4350 C   0  0  0  0  0  2  0  0  0  0  0  0
  194.0980  171.4270  145.0240 C   0  0  0  0  0  3  0  0  0  0  0  0
  192.8460  176.5210  144.4540 N   0  0  0  0  0  2  0  0  0  0  0  0
  187.7230  174.8440  142.1000 C   0  0  1  0  0  3  0  0  0  0  0  0
  189.0910  174.4190  141.6440 C   0  0  1  0  0  3  0  0  0  0  0  0
  192.9650  171.6800  144.1220 C   0  0  0  0  0  0  0  0  0  0  0  0
  189.9270  174.1740  143.8310 C   0  0  2  0  0  3  0  0  0  0  0  0
  194.0480  174.5130  144.8800 C   0  0  0  0  0  0  0  0  0  0  0  0
  191.6030  171.5280  141.4050 C   0  0  1  0  0  3  0  0  0  0  0  0
  194.5570  176.5750  146.1850 C   0  0  0  0  0  1  0  0  0  0  0  0
  188.6100  174.0440  143.0510 C   0  0  1  0  0  3  0  0  0  0  0  0
  188.5420  177.1250  141.6600 O   0  0  0  0  0  1  0  0  0  0  0  0
  190.7150  175.5040  143.7220 C   0  0  1  0  0  3  0  0  0  0  0  0
  191.5020  170.4290  142.4500 C   0  0  0  0  0  2  0  0  0  0  0  0
  190.6380  169.8420  139.7790 C   0  0  0  0  0  3  0  0  0  0  0  0
  191.2960  171.0590  140.0110 C   0  0  0  0  0  0  0  0  0  0  0  0
  191.6430  171.8750  138.9280 C   0  0  0  0  0  3  0  0  0  0  0  0
  191.7860  172.4960  136.2730 Cl  0  0  0  0  0  0  0  0  0  0  0  0
  190.6970  170.2570  137.3950 C   0  0  0  0  0  3  0  0  0  0  0  0
  191.3470  171.4720  137.6230 C   0  0  0  0  0  0  0  0  0  0  0  0
  190.3420  169.4410  138.4730 C   0  0  0  0  0  3  0  0  0  0  0  0
  187.6250  177.1820  146.7660 C   0  0  0  0  0  1  0  0  0  0  0  0
  188.8640  177.4130  145.9230 C   0  0  0  0  0  2  0  0  0  0  0  0
  1  4  1  0  0  0  0
  2 22  1  0  0  0  0
  2 24  1  0  0  0  0
  3 20  2  0  0  0  0
  4 37  1  1  0  0  0
  5 19  1  0  0  0  0
  6 11  1  0  0  0  0
  7 21  1  0  0  0  0
  7  3  1  6  0  0  0
  8 26  1  1  0  0  0
  8 12  1  0  0  0  0
  9  3  1  6  0  0  0
  9 13  1  0  0  0  0
  9 22  1  0  0  0  0
 10  5  1  1  0  0  0
 10  7  1  0  0  0  0
 12  4  1  0  0  0  0
 13 17  1  6  0  0  0
 14  2  1  0  0  0  0
 15 20  1  0  0  0  0
 16 11  2  0  0  0  0
 17  2  1  0  0  0  0
 18  8  1  0  0  0  0
 18 25  1  0  0  0  0
 19 18  1  0  0  0  0
 19 25  1  0  0  0  0
 20 16  1  0  0  0  0
 22  6  2  0  0  0  0
 23 10  1  0  0  0  0
 23 28  1  0  0  0  0
 25 21  1  0  0  0  0
 27 21  1  0  0  0  0
 27  1  1  0  0  0  0
 27 13  1  0  0  0  0
 28 15  1  0  0  0  0
 29 30  1  0  0  0  0
 30 23  1  0  0  0  0
 31 30  2  0  0  0  0
 32 34  1  0  0  0  0
 33 34  2  0  0  0  0
 33 35  1  0  0  0  0
 34 31  1  0  0  0  0
 35 29  2  0  0  0  0
 37 36  1  0  0  0  0
M  END
>  <MODEL>
7

>  <REMARK>
 VINA RESULT:      -7.8      1.344      1.666
  Name = 
  2 active torsions:
  status: ('A' for Active; 'I' for Inactive)
    1  A    between atoms: C_5  and  C_23
    2  A    between atoms: C_6  and  C_31
                            x       y       z     vdW  Elec       q    Type
                         _______ _______ _______ _____ _____    ______ ____

>  <TORSDO>
F 2

$$$$
=
 OpenBabel11052419543D

 37 44  0  0  1  0  0  0  0  0999 V2000
  191.9960  176.5170  146.0170 O   0  0  0  0  0  0  0  0  0  0  0  0
  195.6430  174.3340  145.2520 C   0  0  0  0  0  0  0  0  0  0  0  0
  192.5490  172.5860  144.2580 C   0  0  0  0  0  0  0  0  0  0  0  0
  191.0230  176.3510  147.0200 C   0  0  2  0  0  3  0  0  0  0  0  0
  189.6070  174.5980  142.5710 C   0  0  0  0  0  2  0  0  0  0  0  0
  195.6280  171.9090  144.7240 C   0  0  0  0  0  3  0  0  0  0  0  0
  191.1850  173.2550  144.1190 C   0  0  2  0  0  3  0  0  0  0  0  0
  189.4400  177.4950  145.3140 C   0  0  2  0  0  3  0  0  0  0  0  0
  193.5360  173.2700  144.8890 C   0  0  2  0  0  3  0  0  0  0  0  0
  190.8900  173.7320  142.6530 C   0  0  1  0  0  3  0  0  0  0  0  0
  195.0570  170.5900  144.4670 C   0  0  0  0  0  3  0  0  0  0  0  0
  189.8390  177.2930  146.7860 C   0  0  0  0  0  2  0  0  0  0  0  0
  193.3470  174.5440  145.6490 C   0  0  1  0  0  3  0  0  0  0  0  0
  196.5250  174.8300  144.1210 C   0  0  0  0  0  1  0  0  0  0  0  0
  191.8720  170.6420  142.8180 C   0  0  0  0  0  2  0  0  0  0  0  0
  193.8400  170.3060  144.0210 C   0  0  0  0  0  3  0  0  0  0  0  0
  194.5830  175.3140  145.5050 N   0  0  0  0  0  2  0  0  0  0  0  0
  188.8620  176.2890  144.5430 C   0  0  1  0  0  3  0  0  0  0  0  0
  189.8420  175.7130  143.5590 C   0  0  1  0  0  3  0  0  0  0  0  0
  192.7450  171.2170  143.6620 C   0  0  0  0  0  0  0  0  0  0  0  0
  190.9200  174.3710  145.1650 C   0  0  2  0  0  3  0  0  0  0  0  0
  194.9670  173.0550  144.8700 C   0  0  0  0  0  0  0  0  0  0  0  0
  190.9370  172.5820  141.6300 C   0  0  1  0  0  3  0  0  0  0  0  0
  196.4780  174.1660  146.5130 C   0  0  0  0  0  1  0  0  0  0  0  0
  189.5330  174.9540  144.8550 C   0  0  1  0  0  3  0  0  0  0  0  0
  190.4020  178.2110  144.5940 O   0  0  0  0  0  1  0  0  0  0  0  0
  192.1260  175.3430  145.2260 C   0  0  1  0  0  3  0  0  0  0  0  0
  190.6190  171.2330  142.2540 C   0  0  0  0  0  2  0  0  0  0  0  0
  188.8490  172.5220  140.1960 C   0  0  0  0  0  3  0  0  0  0  0  0
  190.2110  172.8300  140.3390 C   0  0  0  0  0  0  0  0  0  0  0  0
  190.9020  173.4160  139.2720 C   0  0  0  0  0  3  0  0  0  0  0  0
  191.1150  174.4100  136.7380 Cl  0  0  0  0  0  0  0  0  0  0  0  0
  188.8890  173.3650  137.9270 C   0  0  0  0  0  3  0  0  0  0  0  0
  190.2430  173.6800  138.0680 C   0  0  0  0  0  0  0  0  0  0  0  0
  188.1910  172.7870  138.9910 C   0  0  0  0  0  3  0  0  0  0  0  0
  191.1090  177.9550  148.9250 C   0  0  0  0  0  1  0  0  0  0  0  0
  191.6220  176.6340  148.3870 C   0  0  0  0  0  2  0  0  0  0  0  0
  1  4  1  0  0  0  0
  2 17  1  0  0  0  0
  2 24  1  0  0  0  0
  4 37  1  1  0  0  0
  5 19  1  0  0  0  0
  6 22  2  0  0  0  0
  7  3  1  6  0  0  0
  7 21  1  0  0  0  0
  8 26  1  6  0  0  0
  8 12  1  0  0  0  0
  9  3  1  6  0  0  0
  9 13  1  0  0  0  0
 10  5  1  1  0  0  0
 10  7  1  0  0  0  0
 11  6  1  0  0  0  0
 12  4  1  0  0  0  0
 13 17  1  6  0  0  0
 14  2  1  0  0  0  0
 15 20  1  0  0  0  0
 16 11  2  0  0  0  0
 18 25  1  0  0  0  0
 18  8  1  0  0  0  0
 19 18  1  0  0  0  0
 19 25  1  0  0  0  0
 20 16  1  0  0  0  0
 20  3  2  0  0  0  0
 21 27  1  0  0  0  0
 22  9  1  0  0  0  0
 22  2  1  0  0  0  0
 23 28  1  0  0  0  0
 23 10  1  0  0  0  0
 25 21  1  0  0  0  0
 27 13  1  0  0  0  0
 27  1  1  0  0  0  0
 28 15  1  0  0  0  0
 29 30  1  0  0  0  0
 30 23  1  0  0  0  0
 31 30  2  0  0  0  0
 32 34  1  0  0  0  0
 33 34  2  0  0  0  0
 33 35  1  0  0  0  0
 34 31  1  0  0  0  0
 35 29  2  0  0  0  0
 37 36  1  0  0  0  0
M  END
>  <MODEL>
8

>  <REMARK>
 VINA RESULT:      -7.8      1.807      2.726
  Name = 
  2 active torsions:
  status: ('A' for Active; 'I' for Inactive)
    1  A    between atoms: C_5  and  C_23
    2  A    between atoms: C_6  and  C_31
                            x       y       z     vdW  Elec       q    Type
                         _______ _______ _______ _____ _____    ______ ____

>  <TORSDO>
F 2

$$$$
=
 OpenBabel11052419543D

 37 44  0  0  1  0  0  0  0  0999 V2000
  191.5040  172.1860  141.3270 O   0  0  0  0  0  0  0  0  0  0  0  0
  194.4630  172.6020  144.4470 C   0  0  0  0  0  0  0  0  0  0  0  0
  192.4700  175.6360  143.7800 C   0  0  0  0  0  0  0  0  0  0  0  0
  191.5030  172.6520  140.0000 C   0  0  2  0  0  3  0  0  0  0  0  0
  188.6060  175.3330  143.0500 C   0  0  0  0  0  2  0  0  0  0  0  0
  195.1450  174.8270  145.3110 C   0  0  0  0  0  3  0  0  0  0  0  0
  191.1720  175.6590  142.9790 C   0  0  2  0  0  3  0  0  0  0  0  0
  188.9230  172.5230  140.2300 C   0  0  2  0  0  3  0  0  0  0  0  0
  193.2390  174.5210  143.7200 C   0  0  0  0  0  0  0  0  0  0  0  0
  189.8980  175.5280  143.8860 C   0  0  1  0  0  3  0  0  0  0  0  0
  195.1480  176.2820  145.4340 C   0  0  0  0  0  3  0  0  0  0  0  0
  190.1580  172.3630  139.3270 C   0  0  0  0  0  2  0  0  0  0  0  0
  193.0340  173.3860  142.7690 C   0  0  1  0  0  3  0  0  0  0  0  0
  194.1890  171.8970  145.7630 C   0  0  0  0  0  1  0  0  0  0  0  0
  191.9540  177.8260  144.8980 C   0  0  0  0  0  3  0  0  0  0  0  0
  194.1640  177.1220  145.1390 C   0  0  0  0  0  3  0  0  0  0  0  0
  193.4770  172.1710  143.4510 N   0  0  0  0  0  2  0  0  0  0  0  0
  188.5670  173.9370  140.7360 C   0  0  1  0  0  3  0  0  0  0  0  0
  188.8940  174.1260  142.1910 C   0  0  1  0  0  3  0  0  0  0  0  0
  192.8180  176.8340  144.6230 C   0  0  0  0  0  0  0  0  0  0  0  0
  191.1490  174.6660  141.7860 C   0  0  2  0  0  3  0  0  0  0  0  0
  194.3020  174.0830  144.6000 C   0  0  0  0  0  0  0  0  0  0  0  0
  189.7980  176.6440  144.9420 C   0  0  1  0  0  3  0  0  0  0  0  0
  195.8570  172.2440  143.9570 C   0  0  0  0  0  1  0  0  0  0  0  0
  189.7690  174.7940  141.1240 C   0  0  1  0  0  3  0  0  0  0  0  0
  188.8580  171.5410  141.2240 O   0  0  0  0  0  1  0  0  0  0  0  0
  191.6100  173.2610  142.2510 C   0  0  1  0  0  3  0  0  0  0  0  0
  190.5110  177.9160  144.5140 C   0  0  0  0  0  2  0  0  0  0  0  0
  187.9450  176.1520  146.5980 C   0  0  0  0  0  3  0  0  0  0  0  0
  188.4260  176.8880  145.5040 C   0  0  0  0  0  0  0  0  0  0  0  0
  187.6310  177.8950  144.9450 C   0  0  0  0  0  3  0  0  0  0  0  0
  185.3720  179.4170  144.7610 Cl  0  0  0  0  0  0  0  0  0  0  0  0
  185.8820  177.4180  146.5510 C   0  0  0  0  0  3  0  0  0  0  0  0
  186.3610  178.1580  145.4660 C   0  0  0  0  0  0  0  0  0  0  0  0
  186.6740  176.4150  147.1170 C   0  0  0  0  0  3  0  0  0  0  0  0
  193.8380  172.8740  139.1600 C   0  0  0  0  0  1  0  0  0  0  0  0
  192.6110  171.9840  139.2060 C   0  0  0  0  0  2  0  0  0  0  0  0
  1 27  1  0  0  0  0
  2 22  1  0  0  0  0
  2 14  1  0  0  0  0
  3 20  1  0  0  0  0
  4 37  1  6  0  0  0
  4  1  1  0  0  0  0
  6 11  1  0  0  0  0
  7  3  1  1  0  0  0
  7 10  1  0  0  0  0
  8 18  1  0  0  0  0
  8 26  1  1  0  0  0
  9  3  2  0  0  0  0
  9 22  1  0  0  0  0
 10  5  1  6  0  0  0
 10 23  1  0  0  0  0
 12  4  1  0  0  0  0
 12  8  1  0  0  0  0
 13 17  1  1  0  0  0
 13  9  1  0  0  0  0
 16 11  2  0  0  0  0
 17  2  1  0  0  0  0
 18 25  1  0  0  0  0
 18 19  1  0  0  0  0
 19  5  1  0  0  0  0
 20 15  2  0  0  0  0
 20 16  1  0  0  0  0
 21 27  1  0  0  0  0
 21  7  1  0  0  0  0
 22  6  2  0  0  0  0
 23 30  1  0  0  0  0
 24  2  1  0  0  0  0
 25 21  1  0  0  0  0
 25 19  1  0  0  0  0
 27 13  1  0  0  0  0
 28 15  1  0  0  0  0
 28 23  1  0  0  0  0
 29 35  1  0  0  0  0
 30 29  2  0  0  0  0
 31 34  2  0  0  0  0
 31 30  1  0  0  0  0
 32 34  1  0  0  0  0
 33 35  2  0  0  0  0
 34 33  1  0  0  0  0
 36 37  1  0  0  0  0
M  END
>  <MODEL>
9

>  <REMARK>
 VINA RESULT:      -7.8      3.032      6.617
  Name = 
  2 active torsions:
  status: ('A' for Active; 'I' for Inactive)
    1  A    between atoms: C_5  and  C_23
    2  A    between atoms: C_6  and  C_31
                            x       y       z     vdW  Elec       q    Type
                         _______ _______ _______ _____ _____    ______ ____

>  <TORSDO>
F 2

$$$$
