=
 OpenBabel11052420283D

 34 39  0  0  0  0  0  0  0  0999 V2000
  194.3700  173.7600  143.2690 C   0  0  0  0  0  0  0  0  0  0  0  0
  197.0370  171.5300  144.5410 C   0  0  0  0  0  3  0  0  0  0  0  0
  196.8040  172.2350  141.9590 S   0  0  0  0  0  0  0  0  0  0  0  0
  193.6520  176.3290  142.4650 N   0  0  0  0  0  0  0  0  0  0  0  0
  193.1400  174.3250  143.6470 C   0  0  0  0  0  3  0  0  0  0  0  0
  194.8510  175.8250  142.0730 C   0  0  0  0  0  0  0  0  0  0  0  0
  196.9320  176.1180  140.9420 N   0  0  0  0  0  0  0  0  0  0  0  0
  195.7370  176.6210  141.3450 C   0  0  0  0  0  3  0  0  0  0  0  0
  192.7760  175.6060  143.2150 C   0  0  0  0  0  0  0  0  0  0  0  0
  196.4350  173.9900  141.9160 C   0  0  0  0  0  0  0  0  0  0  0  0
  195.2160  174.5030  142.4100 C   0  0  0  0  0  0  0  0  0  0  0  0
  197.2880  174.8300  141.1970 C   0  0  0  0  0  3  0  0  0  0  0  0
  196.6380  171.3260  145.9630 C   0  0  0  0  0  2  0  0  0  0  0  0
  195.5150  170.3440  146.0540 C   0  0  0  0  0  0  0  0  0  0  0  0
  194.3180  170.6130  145.5160 C   0  0  0  0  0  3  0  0  0  0  0  0
  196.2160  172.0470  143.6280 C   0  0  0  0  0  0  0  0  0  0  0  0
  193.9960  171.8180  144.7240 C   0  0  0  0  0  3  0  0  0  0  0  0
  194.8310  172.4960  143.9130 C   0  0  0  0  0  0  0  0  0  0  0  0
  189.7110  177.8390  143.2710 C   0  0  0  0  0  3  0  0  0  0  0  0
  190.7660  175.6670  144.6930 C   0  0  0  0  0  3  0  0  0  0  0  0
  187.0700  177.3310  145.8180 C   0  0  0  0  0  0  0  0  0  0  0  0
  187.7790  177.8610  144.7310 C   0  0  0  0  0  3  0  0  0  0  0  0
  189.0070  177.3100  144.3540 C   0  0  0  0  0  0  0  0  0  0  0  0
  188.8330  175.6870  146.1540 C   0  0  0  0  0  3  0  0  0  0  0  0
  189.5380  176.2160  145.0710 C   0  0  0  0  0  0  0  0  0  0  0  0
  187.6060  176.2430  146.5260 C   0  0  0  0  0  3  0  0  0  0  0  0
  191.4770  176.1940  143.6050 C   0  0  0  0  0  0  0  0  0  0  0  0
  190.9400  177.2840  142.8990 C   0  0  0  0  0  3  0  0  0  0  0  0
  185.8100  177.8980  146.2020 N   0  0  0  0  0  0  0  0  0  0  0  0
  185.6340  179.1340  146.1700 O   0  0  0  0  0  0  0  0  0  0  0  0
  184.7780  177.0850  146.6090 O   0  0  0  0  0  0  0  0  0  0  0  0
  195.7430  169.1500  146.7490 O   0  0  0  0  0  0  0  0  0  0  0  0
  197.0340  168.5750  146.9020 C   0  0  0  0  0  2  0  0  0  0  0  0
  197.2370  168.1660  148.3460 C   0  0  0  0  0  1  0  0  0  0  0  0
  1  5  1  0  0  0  0
  1 18  1  0  0  0  0
  2 13  1  0  0  0  0
  3 16  1  0  0  0  0
  4  9  1  0  0  0  0
  6 11  1  0  0  0  0
  6  4  2  0  0  0  0
  7 12  1  0  0  0  0
  7  8  2  0  0  0  0
  8  6  1  0  0  0  0
  9 27  1  0  0  0  0
  9  5  2  0  0  0  0
 10  3  1  0  0  0  0
 10 11  1  0  0  0  0
 11  1  2  0  0  0  0
 12 10  2  0  0  0  0
 13 14  1  0  0  0  0
 14 32  1  0  0  0  0
 15 14  2  0  0  0  0
 16 18  1  0  0  0  0
 16  2  2  0  0  0  0
 17 15  1  0  0  0  0
 18 17  2  0  0  0  0
 19 23  1  0  0  0  0
 20 25  1  0  0  0  0
 21 29  1  0  0  0  0
 21 26  1  0  0  0  0
 22 21  2  0  0  0  0
 23 22  1  0  0  0  0
 23 25  2  0  0  0  0
 24 26  2  0  0  0  0
 25 24  1  0  0  0  0
 27 20  2  0  0  0  0
 28 19  2  0  0  0  0
 28 27  1  0  0  0  0
 29 31  2  0  0  0  0
 30 29  2  0  0  0  0
 32 33  1  0  0  0  0
 33 34  1  0  0  0  0
M  END
>  <MODEL>
1

>  <REMARK>
 VINA RESULT:      -7.8      0.000      0.000
  Name = 
  4 active torsions:
  status: ('A' for Active; 'I' for Inactive)
    1  A    between atoms: O_3  and  C_13
    2  A    between atoms: O_3  and  C_25
    3  A    between atoms: C_7  and  N_11
    4  A    between atoms: C_18  and  C_30
                            x       y       z     vdW  Elec       q    Type
                         _______ _______ _______ _____ _____    ______ ____

>  <TORSDO>
F 4

$$$$
=
 OpenBabel11052420283D

 34 39  0  0  0  0  0  0  0  0999 V2000
  189.3820  175.6240  143.4120 C   0  0  0  0  0  0  0  0  0  0  0  0
  191.4620  172.5930  142.9670 C   0  0  0  0  0  3  0  0  0  0  0  0
  192.4600  174.9800  143.6900 S   0  0  0  0  0  0  0  0  0  0  0  0
  188.0800  177.3290  145.1900 N   0  0  0  0  0  0  0  0  0  0  0  0
  188.0990  176.1230  143.1350 C   0  0  0  0  0  3  0  0  0  0  0  0
  189.3210  176.8730  145.5000 C   0  0  0  0  0  0  0  0  0  0  0  0
  191.1390  176.7520  147.0430 N   0  0  0  0  0  0  0  0  0  0  0  0
  189.8930  177.1960  146.7310 C   0  0  0  0  0  3  0  0  0  0  0  0
  187.4630  177.0010  144.0210 C   0  0  0  0  0  0  0  0  0  0  0  0
  191.3510  175.6730  144.9180 C   0  0  0  0  0  0  0  0  0  0  0  0
  190.0330  176.0600  144.5920 C   0  0  0  0  0  0  0  0  0  0  0  0
  191.8750  176.0190  146.1650 C   0  0  0  0  0  3  0  0  0  0  0  0
  190.4850  171.6080  142.4200 C   0  0  0  0  0  2  0  0  0  0  0  0
  190.2320  171.8740  140.9710 C   0  0  0  0  0  0  0  0  0  0  0  0
  189.6550  173.0160  140.5700 C   0  0  0  0  0  3  0  0  0  0  0  0
  191.2130  173.9010  143.0220 C   0  0  0  0  0  0  0  0  0  0  0  0
  189.2960  174.1420  141.4570 C   0  0  0  0  0  3  0  0  0  0  0  0
  189.9450  174.5280  142.5720 C   0  0  0  0  0  0  0  0  0  0  0  0
  184.0670  178.6360  144.4430 C   0  0  0  0  0  3  0  0  0  0  0  0
  185.5980  177.4420  142.4220 C   0  0  0  0  0  3  0  0  0  0  0  0
  181.7670  178.9490  141.5550 C   0  0  0  0  0  0  0  0  0  0  0  0
  182.2830  179.0410  142.8560 C   0  0  0  0  0  3  0  0  0  0  0  0
  183.5560  178.5420  143.1480 C   0  0  0  0  0  0  0  0  0  0  0  0
  183.8150  177.8480  140.8330 C   0  0  0  0  0  3  0  0  0  0  0  0
  184.3260  177.9410  142.1290 C   0  0  0  0  0  0  0  0  0  0  0  0
  182.5410  178.3480  140.5480 C   0  0  0  0  0  3  0  0  0  0  0  0
  186.1170  177.5340  143.7220 C   0  0  0  0  0  0  0  0  0  0  0  0
  185.3410  178.1340  144.7280 C   0  0  0  0  0  3  0  0  0  0  0  0
  180.4620  179.4630  141.2600 N   0  0  0  0  0  0  0  0  0  0  0  0
  180.3170  180.3950  140.4410 O   0  0  0  0  0  0  0  0  0  0  0  0
  179.3520  178.9330  141.8750 O   0  0  0  0  0  0  0  0  0  0  0  0
  190.5830  170.8800  140.0510 O   0  0  0  0  0  0  0  0  0  0  0  0
  190.5180  171.0660  138.6430 C   0  0  0  0  0  2  0  0  0  0  0  0
  189.6920  169.9580  138.0250 C   0  0  0  0  0  1  0  0  0  0  0  0
  1 11  1  0  0  0  0
  2 16  2  0  0  0  0
  3 10  1  0  0  0  0
  4  6  1  0  0  0  0
  5  1  2  0  0  0  0
  5  9  1  0  0  0  0
  6  8  1  0  0  0  0
  8  7  2  0  0  0  0
  9  4  2  0  0  0  0
 10 12  2  0  0  0  0
 11 10  1  0  0  0  0
 11  6  2  0  0  0  0
 12  7  1  0  0  0  0
 13  2  1  0  0  0  0
 14 13  1  0  0  0  0
 15 14  2  0  0  0  0
 15 17  1  0  0  0  0
 16  3  1  0  0  0  0
 17 18  2  0  0  0  0
 18 16  1  0  0  0  0
 18  1  1  0  0  0  0
 19 28  1  0  0  0  0
 20 27  1  0  0  0  0
 21 22  2  0  0  0  0
 22 23  1  0  0  0  0
 23 19  2  0  0  0  0
 24 25  1  0  0  0  0
 25 20  2  0  0  0  0
 25 23  1  0  0  0  0
 26 24  2  0  0  0  0
 26 21  1  0  0  0  0
 27  9  1  0  0  0  0
 27 28  2  0  0  0  0
 29 21  1  0  0  0  0
 29 31  2  0  0  0  0
 30 29  2  0  0  0  0
 32 14  1  0  0  0  0
 33 32  1  0  0  0  0
 34 33  1  0  0  0  0
M  END
>  <MODEL>
2

>  <REMARK>
 VINA RESULT:      -7.5      4.891      7.067
  Name = 
  4 active torsions:
  status: ('A' for Active; 'I' for Inactive)
    1  A    between atoms: O_3  and  C_13
    2  A    between atoms: O_3  and  C_25
    3  A    between atoms: C_7  and  N_11
    4  A    between atoms: C_18  and  C_30
                            x       y       z     vdW  Elec       q    Type
                         _______ _______ _______ _____ _____    ______ ____

>  <TORSDO>
F 4

$$$$
=
 OpenBabel11052420283D

 34 39  0  0  0  0  0  0  0  0999 V2000
  194.6990  175.4760  142.5790 C   0  0  0  0  0  0  0  0  0  0  0  0
  196.8320  173.5350  140.2570 C   0  0  0  0  0  3  0  0  0  0  0  0
  197.8070  174.9990  142.2880 S   0  0  0  0  0  0  0  0  0  0  0  0
  193.4690  175.6020  145.0750 N   0  0  0  0  0  0  0  0  0  0  0  0
  193.3860  175.9550  142.7200 C   0  0  0  0  0  3  0  0  0  0  0  0
  194.7400  175.1320  144.9890 C   0  0  0  0  0  0  0  0  0  0  0  0
  196.6580  174.1880  146.0500 N   0  0  0  0  0  0  0  0  0  0  0  0
  195.3830  174.6490  146.1290 C   0  0  0  0  0  3  0  0  0  0  0  0
  192.7860  176.0400  143.9820 C   0  0  0  0  0  0  0  0  0  0  0  0
  196.7610  174.6960  143.7150 C   0  0  0  0  0  0  0  0  0  0  0  0
  195.4140  175.1160  143.7480 C   0  0  0  0  0  0  0  0  0  0  0  0
  197.3560  174.2160  144.8830 C   0  0  0  0  0  3  0  0  0  0  0  0
  195.8510  173.0510  139.2450 C   0  0  0  0  0  2  0  0  0  0  0  0
  195.4950  174.1490  138.2960 C   0  0  0  0  0  0  0  0  0  0  0  0
  194.8600  175.2500  138.7220 C   0  0  0  0  0  3  0  0  0  0  0  0
  196.5500  174.5010  141.1320 C   0  0  0  0  0  0  0  0  0  0  0  0
  194.5270  175.5450  140.1320 C   0  0  0  0  0  3  0  0  0  0  0  0
  195.2380  175.1880  141.2180 C   0  0  0  0  0  0  0  0  0  0  0  0
  189.5080  177.1500  145.5350 C   0  0  0  0  0  3  0  0  0  0  0  0
  190.6760  176.9400  142.9960 C   0  0  0  0  0  3  0  0  0  0  0  0
  186.7530  178.4030  143.3980 C   0  0  0  0  0  0  0  0  0  0  0  0
  187.4810  178.0180  144.5330 C   0  0  0  0  0  3  0  0  0  0  0  0
  188.7850  177.5320  144.4040 C   0  0  0  0  0  0  0  0  0  0  0  0
  188.6490  177.8090  141.9930 C   0  0  0  0  0  3  0  0  0  0  0  0
  189.3730  177.4260  143.1240 C   0  0  0  0  0  0  0  0  0  0  0  0
  187.3460  178.2930  142.1300 C   0  0  0  0  0  3  0  0  0  0  0  0
  191.4080  176.5550  144.1300 C   0  0  0  0  0  0  0  0  0  0  0  0
  190.8120  176.6640  145.3980 C   0  0  0  0  0  3  0  0  0  0  0  0
  185.4150  178.9020  143.5350 N   0  0  0  0  0  0  0  0  0  0  0  0
  185.1920  179.9530  144.1710 O   0  0  0  0  0  0  0  0  0  0  0  0
  184.3610  178.2260  142.9650 O   0  0  0  0  0  0  0  0  0  0  0  0
  195.8140  173.9770  136.9440 O   0  0  0  0  0  0  0  0  0  0  0  0
  197.1430  174.0430  136.4440 C   0  0  0  0  0  2  0  0  0  0  0  0
  197.5470  175.4920  136.2740 C   0  0  0  0  0  1  0  0  0  0  0  0
  1  5  2  0  0  0  0
  1 11  1  0  0  0  0
  2 16  2  0  0  0  0
  3 10  1  0  0  0  0
  5  9  1  0  0  0  0
  6  4  1  0  0  0  0
  6  8  1  0  0  0  0
  7  8  2  0  0  0  0
  9 27  1  0  0  0  0
  9  4  2  0  0  0  0
 10 11  1  0  0  0  0
 10 12  2  0  0  0  0
 11  6  2  0  0  0  0
 12  7  1  0  0  0  0
 13  2  1  0  0  0  0
 14 15  2  0  0  0  0
 14 13  1  0  0  0  0
 15 17  1  0  0  0  0
 16 18  1  0  0  0  0
 16  3  1  0  0  0  0
 17 18  2  0  0  0  0
 18  1  1  0  0  0  0
 20 25  2  0  0  0  0
 20 27  1  0  0  0  0
 21 29  1  0  0  0  0
 21 22  2  0  0  0  0
 23 22  1  0  0  0  0
 23 19  2  0  0  0  0
 24 26  2  0  0  0  0
 24 25  1  0  0  0  0
 25 23  1  0  0  0  0
 26 21  1  0  0  0  0
 27 28  2  0  0  0  0
 28 19  1  0  0  0  0
 29 30  2  0  0  0  0
 31 29  2  0  0  0  0
 32 14  1  0  0  0  0
 33 32  1  0  0  0  0
 34 33  1  0  0  0  0
M  END
>  <MODEL>
3

>  <REMARK>
 VINA RESULT:      -7.5      3.361      5.278
  Name = 
  4 active torsions:
  status: ('A' for Active; 'I' for Inactive)
    1  A    between atoms: O_3  and  C_13
    2  A    between atoms: O_3  and  C_25
    3  A    between atoms: C_7  and  N_11
    4  A    between atoms: C_18  and  C_30
                            x       y       z     vdW  Elec       q    Type
                         _______ _______ _______ _____ _____    ______ ____

>  <TORSDO>
F 4

$$$$
=
 OpenBabel11052420283D

 34 39  0  0  0  0  0  0  0  0999 V2000
  192.9710  175.0870  141.9190 C   0  0  0  0  0  0  0  0  0  0  0  0
  194.3570  172.3640  139.8260 C   0  0  0  0  0  3  0  0  0  0  0  0
  195.5310  174.7660  140.0980 S   0  0  0  0  0  0  0  0  0  0  0  0
  193.0670  176.4550  144.3440 N   0  0  0  0  0  0  0  0  0  0  0  0
  191.7960  175.4650  142.5880 C   0  0  0  0  0  3  0  0  0  0  0  0
  194.2300  176.1110  143.7330 C   0  0  0  0  0  0  0  0  0  0  0  0
  196.6160  176.0430  143.7480 N   0  0  0  0  0  0  0  0  0  0  0  0
  195.4490  176.3750  144.3590 C   0  0  0  0  0  3  0  0  0  0  0  0
  191.8530  176.1760  143.7930 C   0  0  0  0  0  0  0  0  0  0  0  0
  195.4470  175.2080  141.8350 C   0  0  0  0  0  0  0  0  0  0  0  0
  194.2160  175.4750  142.4730 C   0  0  0  0  0  0  0  0  0  0  0  0
  196.6380  175.4860  142.5080 C   0  0  0  0  0  3  0  0  0  0  0  0
  193.2800  171.3350  139.8800 C   0  0  0  0  0  2  0  0  0  0  0  0
  192.1520  171.7110  138.9730 C   0  0  0  0  0  0  0  0  0  0  0  0
  191.4260  172.8160  139.1970 C   0  0  0  0  0  3  0  0  0  0  0  0
  194.1700  173.6250  140.2160 C   0  0  0  0  0  0  0  0  0  0  0  0
  191.6910  173.8030  140.2650 C   0  0  0  0  0  3  0  0  0  0  0  0
  192.8930  174.1480  140.7630 C   0  0  0  0  0  0  0  0  0  0  0  0
  189.3260  176.8390  146.5420 C   0  0  0  0  0  3  0  0  0  0  0  0
  189.5350  177.1020  143.7590 C   0  0  0  0  0  3  0  0  0  0  0  0
  186.0020  178.2600  145.7280 C   0  0  0  0  0  0  0  0  0  0  0  0
  187.0790  177.7410  146.4600 C   0  0  0  0  0  3  0  0  0  0  0  0
  188.2550  177.3550  145.8100 C   0  0  0  0  0  0  0  0  0  0  0  0
  187.2880  178.0040  143.6770 C   0  0  0  0  0  3  0  0  0  0  0  0
  188.3600  177.4870  144.4080 C   0  0  0  0  0  0  0  0  0  0  0  0
  186.1150  178.3870  144.3330 C   0  0  0  0  0  3  0  0  0  0  0  0
  190.6150  176.5830  144.4910 C   0  0  0  0  0  0  0  0  0  0  0  0
  190.4990  176.4550  145.8850 C   0  0  0  0  0  3  0  0  0  0  0  0
  184.7980  178.6540  146.3990 N   0  0  0  0  0  0  0  0  0  0  0  0
  184.7380  178.6570  147.6460 O   0  0  0  0  0  0  0  0  0  0  0  0
  183.6930  179.0380  145.6740 O   0  0  0  0  0  0  0  0  0  0  0  0
  191.8580  170.8570  137.9040 O   0  0  0  0  0  0  0  0  0  0  0  0
  191.2240  169.5960  138.0690 C   0  0  0  0  0  2  0  0  0  0  0  0
  189.8060  169.6700  137.5430 C   0  0  0  0  0  1  0  0  0  0  0  0
  1 11  2  0  0  0  0
  1  5  1  0  0  0  0
  2 13  1  0  0  0  0
  2 16  2  0  0  0  0
  3 16  1  0  0  0  0
  3 10  1  0  0  0  0
  5  9  2  0  0  0  0
  6  4  2  0  0  0  0
  6  8  1  0  0  0  0
  7  8  2  0  0  0  0
  9  4  1  0  0  0  0
  9 27  1  0  0  0  0
 10 11  1  0  0  0  0
 10 12  2  0  0  0  0
 11  6  1  0  0  0  0
 12  7  1  0  0  0  0
 14 15  2  0  0  0  0
 14 13  1  0  0  0  0
 15 17  1  0  0  0  0
 16 18  1  0  0  0  0
 17 18  2  0  0  0  0
 18  1  1  0  0  0  0
 20 25  2  0  0  0  0
 20 27  1  0  0  0  0
 21 29  1  0  0  0  0
 21 22  2  0  0  0  0
 23 22  1  0  0  0  0
 23 19  2  0  0  0  0
 24 26  2  0  0  0  0
 24 25  1  0  0  0  0
 25 23  1  0  0  0  0
 26 21  1  0  0  0  0
 27 28  2  0  0  0  0
 28 19  1  0  0  0  0
 29 30  2  0  0  0  0
 31 29  2  0  0  0  0
 32 33  1  0  0  0  0
 32 14  1  0  0  0  0
 34 33  1  0  0  0  0
M  END
>  <MODEL>
4

>  <REMARK>
 VINA RESULT:      -7.5      3.739      4.764
  Name = 
  4 active torsions:
  status: ('A' for Active; 'I' for Inactive)
    1  A    between atoms: O_3  and  C_13
    2  A    between atoms: O_3  and  C_25
    3  A    between atoms: C_7  and  N_11
    4  A    between atoms: C_18  and  C_30
                            x       y       z     vdW  Elec       q    Type
                         _______ _______ _______ _____ _____    ______ ____

>  <TORSDO>
F 4

$$$$
=
 OpenBabel11052420283D

 34 39  0  0  0  0  0  0  0  0999 V2000
  192.3400  172.0280  143.3370 C   0  0  0  0  0  0  0  0  0  0  0  0
  195.7630  170.6530  143.0100 C   0  0  0  0  0  3  0  0  0  0  0  0
  193.6730  169.7800  141.5640 S   0  0  0  0  0  0  0  0  0  0  0  0
  190.3970  173.7380  142.3080 N   0  0  0  0  0  0  0  0  0  0  0  0
  191.5590  172.8340  144.1810 C   0  0  0  0  0  3  0  0  0  0  0  0
  191.1270  172.9770  141.4520 C   0  0  0  0  0  0  0  0  0  0  0  0
  191.6720  172.3500  139.2150 N   0  0  0  0  0  0  0  0  0  0  0  0
  190.9530  173.1170  140.0750 C   0  0  0  0  0  3  0  0  0  0  0  0
  190.5660  173.6700  143.6570 C   0  0  0  0  0  0  0  0  0  0  0  0
  192.7540  171.2250  141.0280 C   0  0  0  0  0  0  0  0  0  0  0  0
  192.0740  172.0540  141.9460 C   0  0  0  0  0  0  0  0  0  0  0  0
  192.5480  171.4090  139.6590 C   0  0  0  0  0  3  0  0  0  0  0  0
  196.4940  171.3400  144.1120 C   0  0  0  0  0  2  0  0  0  0  0  0
  196.1660  170.7110  145.4280 C   0  0  0  0  0  0  0  0  0  0  0  0
  194.9190  170.7510  145.9190 C   0  0  0  0  0  3  0  0  0  0  0  0
  194.4330  170.6410  142.9240 C   0  0  0  0  0  0  0  0  0  0  0  0
  193.7480  171.3150  145.2170 C   0  0  0  0  0  3  0  0  0  0  0  0
  193.5300  171.3160  143.8880 C   0  0  0  0  0  0  0  0  0  0  0  0
  188.9410  175.0890  146.7760 C   0  0  0  0  0  3  0  0  0  0  0  0
  188.9450  175.5360  144.0100 C   0  0  0  0  0  3  0  0  0  0  0  0
  186.5780  177.9320  146.5290 C   0  0  0  0  0  0  0  0  0  0  0  0
  187.3670  176.9070  147.0700 C   0  0  0  0  0  3  0  0  0  0  0  0
  188.1560  176.1090  146.2360 C   0  0  0  0  0  0  0  0  0  0  0  0
  187.3720  177.3550  144.3020 C   0  0  0  0  0  3  0  0  0  0  0  0
  188.1570  176.3340  144.8420 C   0  0  0  0  0  0  0  0  0  0  0  0
  186.5860  178.1480  145.1410 C   0  0  0  0  0  3  0  0  0  0  0  0
  189.7370  174.5100  144.5480 C   0  0  0  0  0  0  0  0  0  0  0  0
  189.7270  174.2940  145.9360 C   0  0  0  0  0  3  0  0  0  0  0  0
  185.7710  178.7490  147.3880 N   0  0  0  0  0  0  0  0  0  0  0  0
  184.5690  178.4740  147.5800 O   0  0  0  0  0  0  0  0  0  0  0  0
  186.3160  179.8470  148.0140 O   0  0  0  0  0  0  0  0  0  0  0  0
  197.2070  170.1100  146.1450 O   0  0  0  0  0  0  0  0  0  0  0  0
  197.2470  168.7200  146.4390 C   0  0  0  0  0  2  0  0  0  0  0  0
  197.1920  168.5190  147.9380 C   0  0  0  0  0  1  0  0  0  0  0  0
  1 18  1  0  0  0  0
  1  5  1  0  0  0  0
  2 13  1  0  0  0  0
  3 16  1  0  0  0  0
  4  9  1  0  0  0  0
  6 11  1  0  0  0  0
  6  4  2  0  0  0  0
  7 12  1  0  0  0  0
  7  8  2  0  0  0  0
  8  6  1  0  0  0  0
  9  5  2  0  0  0  0
  9 27  1  0  0  0  0
 10  3  1  0  0  0  0
 10 11  1  0  0  0  0
 11  1  2  0  0  0  0
 12 10  2  0  0  0  0
 13 14  1  0  0  0  0
 14 15  2  0  0  0  0
 14 32  1  0  0  0  0
 16  2  2  0  0  0  0
 16 18  1  0  0  0  0
 17 15  1  0  0  0  0
 18 17  2  0  0  0  0
 20 27  2  0  0  0  0
 20 25  1  0  0  0  0
 21 22  1  0  0  0  0
 21 29  1  0  0  0  0
 23 19  1  0  0  0  0
 23 22  2  0  0  0  0
 24 25  2  0  0  0  0
 24 26  1  0  0  0  0
 25 23  1  0  0  0  0
 26 21  2  0  0  0  0
 27 28  1  0  0  0  0
 28 19  2  0  0  0  0
 29 30  2  0  0  0  0
 29 31  2  0  0  0  0
 32 33  1  0  0  0  0
 33 34  1  0  0  0  0
M  END
>  <MODEL>
5

>  <REMARK>
 VINA RESULT:      -7.4      2.729      3.229
  Name = 
  4 active torsions:
  status: ('A' for Active; 'I' for Inactive)
    1  A    between atoms: O_3  and  C_13
    2  A    between atoms: O_3  and  C_25
    3  A    between atoms: C_7  and  N_11
    4  A    between atoms: C_18  and  C_30
                            x       y       z     vdW  Elec       q    Type
                         _______ _______ _______ _____ _____    ______ ____

>  <TORSDO>
F 4

$$$$
=
 OpenBabel11052420283D

 34 39  0  0  0  0  0  0  0  0999 V2000
  192.9370  173.9210  142.9650 C   0  0  0  0  0  0  0  0  0  0  0  0
  194.4000  171.1630  140.9740 C   0  0  0  0  0  3  0  0  0  0  0  0
  195.7110  173.4400  141.5360 S   0  0  0  0  0  0  0  0  0  0  0  0
  192.7700  175.1880  145.4400 N   0  0  0  0  0  0  0  0  0  0  0  0
  191.7080  174.3770  143.4670 C   0  0  0  0  0  3  0  0  0  0  0  0
  193.9810  174.7650  144.9950 C   0  0  0  0  0  0  0  0  0  0  0  0
  196.3220  174.4860  145.3650 N   0  0  0  0  0  0  0  0  0  0  0  0
  195.1070  174.8970  145.8090 C   0  0  0  0  0  3  0  0  0  0  0  0
  191.6370  175.0380  144.7000 C   0  0  0  0  0  0  0  0  0  0  0  0
  195.3970  173.8250  143.2600 C   0  0  0  0  0  0  0  0  0  0  0  0
  194.1090  174.1780  143.7170 C   0  0  0  0  0  0  0  0  0  0  0  0
  196.4900  173.9730  144.1160 C   0  0  0  0  0  3  0  0  0  0  0  0
  193.2470  170.2320  140.8150 C   0  0  0  0  0  2  0  0  0  0  0  0
  192.3080  170.7380  139.7680 C   0  0  0  0  0  0  0  0  0  0  0  0
  191.6490  171.8940  139.9340 C   0  0  0  0  0  3  0  0  0  0  0  0
  194.2600  172.4210  141.3920 C   0  0  0  0  0  0  0  0  0  0  0  0
  191.8260  172.8150  141.0760 C   0  0  0  0  0  3  0  0  0  0  0  0
  192.9610  173.0340  141.7650 C   0  0  0  0  0  0  0  0  0  0  0  0
  188.5870  175.4810  146.9090 C   0  0  0  0  0  3  0  0  0  0  0  0
  189.6300  176.5110  144.5210 C   0  0  0  0  0  3  0  0  0  0  0  0
  185.9460  177.9120  145.9910 C   0  0  0  0  0  0  0  0  0  0  0  0
  186.6570  176.9280  146.6930 C   0  0  0  0  0  3  0  0  0  0  0  0
  187.8810  176.4600  146.2090 C   0  0  0  0  0  0  0  0  0  0  0  0
  187.7000  177.9590  144.3040 C   0  0  0  0  0  3  0  0  0  0  0  0
  188.4060  176.9790  145.0050 C   0  0  0  0  0  0  0  0  0  0  0  0
  186.4760  178.4220  144.7940 C   0  0  0  0  0  3  0  0  0  0  0  0
  190.3430  175.5270  145.2220 C   0  0  0  0  0  0  0  0  0  0  0  0
  189.8110  175.0170  146.4190 C   0  0  0  0  0  3  0  0  0  0  0  0
  184.6900  178.3900  146.4920 N   0  0  0  0  0  0  0  0  0  0  0  0
  184.4680  178.4220  147.7200 O   0  0  0  0  0  0  0  0  0  0  0  0
  183.7150  178.8210  145.6230 O   0  0  0  0  0  0  0  0  0  0  0  0
  192.1120  169.9520  138.6270 O   0  0  0  0  0  0  0  0  0  0  0  0
  191.1010  168.9570  138.5330 C   0  0  0  0  0  2  0  0  0  0  0  0
  189.9490  169.4840  137.7050 C   0  0  0  0  0  1  0  0  0  0  0  0
  1  5  2  0  0  0  0
  1 11  1  0  0  0  0
  2 16  2  0  0  0  0
  3 10  1  0  0  0  0
  5  9  1  0  0  0  0
  6  4  1  0  0  0  0
  6  8  1  0  0  0  0
  7  8  2  0  0  0  0
  9 27  1  0  0  0  0
  9  4  2  0  0  0  0
 10 11  1  0  0  0  0
 10 12  2  0  0  0  0
 11  6  2  0  0  0  0
 12  7  1  0  0  0  0
 13  2  1  0  0  0  0
 14 15  2  0  0  0  0
 14 13  1  0  0  0  0
 15 17  1  0  0  0  0
 16  3  1  0  0  0  0
 16 18  1  0  0  0  0
 17 18  2  0  0  0  0
 18  1  1  0  0  0  0
 20 25  2  0  0  0  0
 20 27  1  0  0  0  0
 21 29  1  0  0  0  0
 21 22  2  0  0  0  0
 23 22  1  0  0  0  0
 23 19  2  0  0  0  0
 24 26  2  0  0  0  0
 24 25  1  0  0  0  0
 25 23  1  0  0  0  0
 26 21  1  0  0  0  0
 27 28  2  0  0  0  0
 28 19  1  0  0  0  0
 29 30  2  0  0  0  0
 31 29  2  0  0  0  0
 32 14  1  0  0  0  0
 33 32  1  0  0  0  0
 34 33  1  0  0  0  0
M  END
>  <MODEL>
6

>  <REMARK>
 VINA RESULT:      -7.4      3.301      4.610
  Name = 
  4 active torsions:
  status: ('A' for Active; 'I' for Inactive)
    1  A    between atoms: O_3  and  C_13
    2  A    between atoms: O_3  and  C_25
    3  A    between atoms: C_7  and  N_11
    4  A    between atoms: C_18  and  C_30
                            x       y       z     vdW  Elec       q    Type
                         _______ _______ _______ _____ _____    ______ ____

>  <TORSDO>
F 4

$$$$
=
 OpenBabel11052420283D

 34 39  0  0  0  0  0  0  0  0999 V2000
  191.7940  176.5500  144.0570 C   0  0  0  0  0  0  0  0  0  0  0  0
  194.9580  174.6360  143.8750 C   0  0  0  0  0  3  0  0  0  0  0  0
  194.5860  176.7260  145.5210 S   0  0  0  0  0  0  0  0  0  0  0  0
  189.4020  176.9960  145.4140 N   0  0  0  0  0  0  0  0  0  0  0  0
  190.5880  176.7420  143.3630 C   0  0  0  0  0  3  0  0  0  0  0  0
  190.5440  176.8160  146.1280 C   0  0  0  0  0  0  0  0  0  0  0  0
  191.6340  176.6100  148.2410 N   0  0  0  0  0  0  0  0  0  0  0  0
  190.4940  176.7790  147.5220 C   0  0  0  0  0  3  0  0  0  0  0  0
  189.3950  176.9930  144.0530 C   0  0  0  0  0  0  0  0  0  0  0  0
  192.9550  176.5500  146.2480 C   0  0  0  0  0  0  0  0  0  0  0  0
  191.7810  176.6530  145.4700 C   0  0  0  0  0  0  0  0  0  0  0  0
  192.8490  176.5120  147.6400 C   0  0  0  0  0  3  0  0  0  0  0  0
  194.7130  173.7140  142.7290 C   0  0  0  0  0  2  0  0  0  0  0  0
  194.8620  174.4430  141.4320 C   0  0  0  0  0  0  0  0  0  0  0  0
  194.0320  175.4430  141.1040 C   0  0  0  0  0  3  0  0  0  0  0  0
  194.1890  175.6950  144.1260 C   0  0  0  0  0  0  0  0  0  0  0  0
  192.9720  175.9870  141.9780 C   0  0  0  0  0  3  0  0  0  0  0  0
  193.0000  176.0710  143.3220 C   0  0  0  0  0  0  0  0  0  0  0  0
  186.8380  177.1350  141.2560 C   0  0  0  0  0  3  0  0  0  0  0  0
  186.9990  177.6910  143.9980 C   0  0  0  0  0  3  0  0  0  0  0  0
  183.3880  178.3060  141.9300 C   0  0  0  0  0  0  0  0  0  0  0  0
  184.5160  177.8230  141.2510 C   0  0  0  0  0  3  0  0  0  0  0  0
  185.7170  177.6160  141.9340 C   0  0  0  0  0  0  0  0  0  0  0  0
  184.6760  178.3790  143.9940 C   0  0  0  0  0  3  0  0  0  0  0  0
  185.7980  177.8970  143.3160 C   0  0  0  0  0  0  0  0  0  0  0  0
  183.4790  178.5830  143.3040 C   0  0  0  0  0  3  0  0  0  0  0  0
  188.1290  177.2060  143.3210 C   0  0  0  0  0  0  0  0  0  0  0  0
  188.0370  176.9310  141.9460 C   0  0  0  0  0  3  0  0  0  0  0  0
  182.1570  178.5160  141.2250 N   0  0  0  0  0  0  0  0  0  0  0  0
  181.9470  177.9490  140.1330 O   0  0  0  0  0  0  0  0  0  0  0  0
  181.1910  179.3460  141.7460 O   0  0  0  0  0  0  0  0  0  0  0  0
  195.8720  174.0250  140.5580 O   0  0  0  0  0  0  0  0  0  0  0  0
  196.8930  174.8920  140.0800 C   0  0  0  0  0  2  0  0  0  0  0  0
  197.8580  175.2040  141.2040 C   0  0  0  0  0  1  0  0  0  0  0  0
  1 11  1  0  0  0  0
  2 16  2  0  0  0  0
  3 10  1  0  0  0  0
  4  6  1  0  0  0  0
  5  9  1  0  0  0  0
  5  1  2  0  0  0  0
  6  8  1  0  0  0  0
  8  7  2  0  0  0  0
  9  4  2  0  0  0  0
 10 12  2  0  0  0  0
 11  6  2  0  0  0  0
 11 10  1  0  0  0  0
 12  7  1  0  0  0  0
 13  2  1  0  0  0  0
 14 13  1  0  0  0  0
 15 14  2  0  0  0  0
 15 17  1  0  0  0  0
 16  3  1  0  0  0  0
 17 18  2  0  0  0  0
 18  1  1  0  0  0  0
 18 16  1  0  0  0  0
 19 23  2  0  0  0  0
 19 28  1  0  0  0  0
 21 26  1  0  0  0  0
 22 21  2  0  0  0  0
 22 23  1  0  0  0  0
 23 25  1  0  0  0  0
 25 24  1  0  0  0  0
 25 20  2  0  0  0  0
 26 24  2  0  0  0  0
 27 20  1  0  0  0  0
 27  9  1  0  0  0  0
 28 27  2  0  0  0  0
 29 31  2  0  0  0  0
 29 21  1  0  0  0  0
 30 29  2  0  0  0  0
 32 14  1  0  0  0  0
 33 32  1  0  0  0  0
 33 34  1  0  0  0  0
M  END
>  <MODEL>
7

>  <REMARK>
 VINA RESULT:      -7.4      4.000      5.887
  Name = 
  4 active torsions:
  status: ('A' for Active; 'I' for Inactive)
    1  A    between atoms: O_3  and  C_13
    2  A    between atoms: O_3  and  C_25
    3  A    between atoms: C_7  and  N_11
    4  A    between atoms: C_18  and  C_30
                            x       y       z     vdW  Elec       q    Type
                         _______ _______ _______ _____ _____    ______ ____

>  <TORSDO>
F 4

$$$$
=
 OpenBabel11052420283D

 34 39  0  0  0  0  0  0  0  0999 V2000
  191.4370  172.7280  141.8170 C   0  0  0  0  0  0  0  0  0  0  0  0
  194.9780  171.6670  141.6060 C   0  0  0  0  0  3  0  0  0  0  0  0
  192.9860  170.4490  140.2760 S   0  0  0  0  0  0  0  0  0  0  0  0
  189.3380  174.1250  140.6330 N   0  0  0  0  0  0  0  0  0  0  0  0
  190.5790  173.5370  142.5810 C   0  0  0  0  0  3  0  0  0  0  0  0
  190.1400  173.3540  139.8550 C   0  0  0  0  0  0  0  0  0  0  0  0
  190.7490  172.5550  137.6900 N   0  0  0  0  0  0  0  0  0  0  0  0
  189.9560  173.3320  138.4720 C   0  0  0  0  0  3  0  0  0  0  0  0
  189.5090  174.2130  141.9810 C   0  0  0  0  0  0  0  0  0  0  0  0
  191.9320  171.7340  139.6000 C   0  0  0  0  0  0  0  0  0  0  0  0
  191.1720  172.5840  140.4340 C   0  0  0  0  0  0  0  0  0  0  0  0
  191.7110  171.7540  138.2220 C   0  0  0  0  0  3  0  0  0  0  0  0
  195.6360  172.5330  142.6260 C   0  0  0  0  0  2  0  0  0  0  0  0
  195.3690  172.0140  144.0020 C   0  0  0  0  0  0  0  0  0  0  0  0
  194.1230  171.9830  144.4970 C   0  0  0  0  0  3  0  0  0  0  0  0
  193.6560  171.5160  141.5330 C   0  0  0  0  0  0  0  0  0  0  0  0
  192.9040  172.3540  143.7500 C   0  0  0  0  0  3  0  0  0  0  0  0
  192.6890  172.1970  142.4300 C   0  0  0  0  0  0  0  0  0  0  0  0
  186.4840  176.2320  143.0570 C   0  0  0  0  0  3  0  0  0  0  0  0
  188.9920  175.4900  144.0630 C   0  0  0  0  0  3  0  0  0  0  0  0
  186.4210  177.8910  146.3690 C   0  0  0  0  0  0  0  0  0  0  0  0
  186.0270  177.4590  145.0950 C   0  0  0  0  0  3  0  0  0  0  0  0
  186.8780  176.6610  144.3250 C   0  0  0  0  0  0  0  0  0  0  0  0
  188.5360  176.7160  146.1020 C   0  0  0  0  0  3  0  0  0  0  0  0
  188.1420  176.2870  144.8330 C   0  0  0  0  0  0  0  0  0  0  0  0
  187.6800  177.5150  146.8650 C   0  0  0  0  0  3  0  0  0  0  0  0
  188.6000  175.0560  142.7870 C   0  0  0  0  0  0  0  0  0  0  0  0
  187.3410  175.4340  142.2920 C   0  0  0  0  0  3  0  0  0  0  0  0
  185.5440  178.7090  147.1550 N   0  0  0  0  0  0  0  0  0  0  0  0
  185.9890  179.6850  147.7940 O   0  0  0  0  0  0  0  0  0  0  0  0
  184.1990  178.4270  147.2140 O   0  0  0  0  0  0  0  0  0  0  0  0
  196.4620  171.5950  144.7690 O   0  0  0  0  0  0  0  0  0  0  0  0
  196.7750  172.1460  146.0420 C   0  0  0  0  0  2  0  0  0  0  0  0
  197.1000  173.6170  145.8900 C   0  0  0  0  0  1  0  0  0  0  0  0
  1 18  1  0  0  0  0
  1  5  1  0  0  0  0
  2 13  1  0  0  0  0
  3 16  1  0  0  0  0
  4  9  1  0  0  0  0
  6 11  1  0  0  0  0
  6  4  2  0  0  0  0
  7 12  1  0  0  0  0
  7  8  2  0  0  0  0
  8  6  1  0  0  0  0
  9  5  2  0  0  0  0
  9 27  1  0  0  0  0
 10  3  1  0  0  0  0
 10 11  1  0  0  0  0
 11  1  2  0  0  0  0
 12 10  2  0  0  0  0
 13 14  1  0  0  0  0
 14 15  2  0  0  0  0
 14 32  1  0  0  0  0
 16  2  2  0  0  0  0
 16 18  1  0  0  0  0
 17 15  1  0  0  0  0
 18 17  2  0  0  0  0
 19 23  1  0  0  0  0
 20 25  1  0  0  0  0
 21 26  1  0  0  0  0
 21 29  1  0  0  0  0
 22 21  2  0  0  0  0
 23 25  2  0  0  0  0
 23 22  1  0  0  0  0
 24 26  2  0  0  0  0
 25 24  1  0  0  0  0
 27 20  2  0  0  0  0
 28 27  1  0  0  0  0
 28 19  2  0  0  0  0
 29 31  2  0  0  0  0
 29 30  2  0  0  0  0
 32 33  1  0  0  0  0
 34 33  1  0  0  0  0
M  END
>  <MODEL>
8

>  <REMARK>
 VINA RESULT:      -7.3      3.169      3.891
  Name = 
  4 active torsions:
  status: ('A' for Active; 'I' for Inactive)
    1  A    between atoms: O_3  and  C_13
    2  A    between atoms: O_3  and  C_25
    3  A    between atoms: C_7  and  N_11
    4  A    between atoms: C_18  and  C_30
                            x       y       z     vdW  Elec       q    Type
                         _______ _______ _______ _____ _____    ______ ____

>  <TORSDO>
F 4

$$$$
=
 OpenBabel11052420283D

 34 39  0  0  0  0  0  0  0  0999 V2000
  189.4180  174.9600  143.2020 C   0  0  0  0  0  0  0  0  0  0  0  0
  186.3610  176.8750  144.0370 C   0  0  0  0  0  3  0  0  0  0  0  0
  187.7720  177.2500  141.7820 S   0  0  0  0  0  0  0  0  0  0  0  0
  190.5420  172.8600  141.7580 N   0  0  0  0  0  0  0  0  0  0  0  0
  190.3680  174.1040  143.7820 C   0  0  0  0  0  3  0  0  0  0  0  0
  189.6290  173.6620  141.1530 C   0  0  0  0  0  0  0  0  0  0  0  0
  188.3030  174.1870  139.2400 N   0  0  0  0  0  0  0  0  0  0  0  0
  189.2080  173.3810  139.8520 C   0  0  0  0  0  3  0  0  0  0  0  0
  190.9480  173.0680  143.0410 C   0  0  0  0  0  0  0  0  0  0  0  0
  188.2030  175.6290  141.1460 C   0  0  0  0  0  0  0  0  0  0  0  0
  189.0890  174.7730  141.8370 C   0  0  0  0  0  0  0  0  0  0  0  0
  187.8100  175.2990  139.8470 C   0  0  0  0  0  3  0  0  0  0  0  0
  186.0630  176.4190  145.4240 C   0  0  0  0  0  2  0  0  0  0  0  0
  186.9740  177.0880  146.4020 C   0  0  0  0  0  0  0  0  0  0  0  0
  188.2970  176.8740  146.3690 C   0  0  0  0  0  3  0  0  0  0  0  0
  187.5310  176.6490  143.4390 C   0  0  0  0  0  0  0  0  0  0  0  0
  189.0000  176.0590  145.3560 C   0  0  0  0  0  3  0  0  0  0  0  0
  188.6560  175.9100  144.0630 C   0  0  0  0  0  0  0  0  0  0  0  0
  192.7410  169.9360  144.2080 C   0  0  0  0  0  3  0  0  0  0  0  0
  193.0970  172.7160  144.2610 C   0  0  0  0  0  3  0  0  0  0  0  0
  195.9720  170.1880  146.0050 C   0  0  0  0  0  0  0  0  0  0  0  0
  194.8320  169.6440  145.3950 C   0  0  0  0  0  3  0  0  0  0  0  0
  193.8750  170.4800  144.8140 C   0  0  0  0  0  0  0  0  0  0  0  0
  195.1890  172.4250  145.4480 C   0  0  0  0  0  3  0  0  0  0  0  0
  194.0540  171.8810  144.8420 C   0  0  0  0  0  0  0  0  0  0  0  0
  196.1420  171.5820  146.0270 C   0  0  0  0  0  3  0  0  0  0  0  0
  191.9560  172.1740  143.6500 C   0  0  0  0  0  0  0  0  0  0  0  0
  191.7870  170.7790  143.6300 C   0  0  0  0  0  3  0  0  0  0  0  0
  196.9520  169.3260  146.5980 N   0  0  0  0  0  0  0  0  0  0  0  0
  197.9410  168.9420  145.9410 O   0  0  0  0  0  0  0  0  0  0  0  0
  196.8140  168.9140  147.9040 O   0  0  0  0  0  0  0  0  0  0  0  0
  186.4000  177.9170  147.3720 O   0  0  0  0  0  0  0  0  0  0  0  0
  185.6220  179.0640  147.0530 C   0  0  0  0  0  2  0  0  0  0  0  0
  184.2100  178.6380  146.7130 C   0  0  0  0  0  1  0  0  0  0  0  0
  1  5  1  0  0  0  0
  1 18  1  0  0  0  0
  2 13  1  0  0  0  0
  3 16  1  0  0  0  0
  4  9  1  0  0  0  0
  6  4  2  0  0  0  0
  6 11  1  0  0  0  0
  7 12  1  0  0  0  0
  7  8  2  0  0  0  0
  8  6  1  0  0  0  0
  9 27  1  0  0  0  0
  9  5  2  0  0  0  0
 10  3  1  0  0  0  0
 10 11  1  0  0  0  0
 11  1  2  0  0  0  0
 12 10  2  0  0  0  0
 13 14  1  0  0  0  0
 14 32  1  0  0  0  0
 15 14  2  0  0  0  0
 16  2  2  0  0  0  0
 16 18  1  0  0  0  0
 17 15  1  0  0  0  0
 18 17  2  0  0  0  0
 19 23  1  0  0  0  0
 20 25  1  0  0  0  0
 21 26  1  0  0  0  0
 21 29  1  0  0  0  0
 22 21  2  0  0  0  0
 23 25  2  0  0  0  0
 23 22  1  0  0  0  0
 24 26  2  0  0  0  0
 25 24  1  0  0  0  0
 27 20  2  0  0  0  0
 28 27  1  0  0  0  0
 28 19  2  0  0  0  0
 29 31  2  0  0  0  0
 30 29  2  0  0  0  0
 33 32  1  0  0  0  0
 34 33  1  0  0  0  0
M  END
>  <MODEL>
9

>  <REMARK>
 VINA RESULT:      -7.3      3.574      9.720
  Name = 
  4 active torsions:
  status: ('A' for Active; 'I' for Inactive)
    1  A    between atoms: O_3  and  C_13
    2  A    between atoms: O_3  and  C_25
    3  A    between atoms: C_7  and  N_11
    4  A    between atoms: C_18  and  C_30
                            x       y       z     vdW  Elec       q    Type
                         _______ _______ _______ _____ _____    ______ ____

>  <TORSDO>
F 4

$$$$
