=
 OpenBabel11052418283D

 27 31  0  0  0  0  0  0  0  0999 V2000
  190.5480  175.0290  143.1340 C   0  0  0  0  0  0  0  0  0  0  0  0
  189.8270  176.2510  145.1110 C   0  0  0  0  0  0  0  0  0  0  0  0
  188.2400  175.6270  143.4170 N   0  0  0  0  0  0  0  0  0  0  0  0
  186.7150  178.0290  147.3310 C   0  0  0  0  0  3  0  0  0  0  0  0
  184.3880  178.6110  147.5800 O   0  0  0  0  0  1  0  0  0  0  0  0
  190.0760  176.8570  146.3530 C   0  0  0  0  0  3  0  0  0  0  0  0
  186.1390  176.8240  144.8700 C   0  0  0  0  0  3  0  0  0  0  0  0
  185.1180  177.4190  145.6150 C   0  0  0  0  0  3  0  0  0  0  0  0
  187.4590  176.8250  145.3460 C   0  0  0  0  0  0  0  0  0  0  0  0
  190.8650  175.6440  144.3660 C   0  0  0  0  0  0  0  0  0  0  0  0
  185.4050  178.0210  146.8430 C   0  0  0  0  0  0  0  0  0  0  0  0
  187.7420  177.4360  146.5910 C   0  0  0  0  0  0  0  0  0  0  0  0
  191.5330  174.4260  142.3330 C   0  0  0  0  0  3  0  0  0  0  0  0
  188.5010  176.2290  144.6080 C   0  0  0  0  0  0  0  0  0  0  0  0
  188.8800  174.4400  141.4590 C   0  0  0  0  0  3  0  0  0  0  0  0
  189.0450  177.4460  147.0850 C   0  0  0  0  0  3  0  0  0  0  0  0
  189.8700  173.8340  140.6710 C   0  0  0  0  0  0  0  0  0  0  0  0
  191.1950  173.8330  141.1150 C   0  0  0  0  0  3  0  0  0  0  0  0
  189.2110  175.0360  142.6790 C   0  0  0  0  0  0  0  0  0  0  0  0
  194.9020  175.6670  145.8190 C   0  0  0  0  0  3  0  0  0  0  0  0
  192.2630  175.6520  144.8700 C   0  0  0  0  0  0  0  0  0  0  0  0
  193.1030  176.7440  144.6080 C   0  0  0  0  0  3  0  0  0  0  0  0
  194.4190  176.7500  145.0810 C   0  0  0  0  0  3  0  0  0  0  0  0
  194.0700  174.5760  146.0840 C   0  0  0  0  0  3  0  0  0  0  0  0
  192.7550  174.5680  145.6110 C   0  0  0  0  0  3  0  0  0  0  0  0
  189.5660  173.2290  139.4480 O   0  0  0  0  0  0  0  0  0  0  0  0
  188.2670  172.7460  139.1330 C   0  0  0  0  0  1  0  0  0  0  0  0
  1 10  2  0  0  0  0
  2  6  1  0  0  0  0
  3 14  1  0  0  0  0
  6 16  2  0  0  0  0
  7  9  2  0  0  0  0
  7  8  1  0  0  0  0
  8 11  2  0  0  0  0
  9 12  1  0  0  0  0
 10 21  1  0  0  0  0
 10  2  1  0  0  0  0
 11  4  1  0  0  0  0
 11  5  1  0  0  0  0
 12 16  1  0  0  0  0
 12  4  2  0  0  0  0
 13  1  1  0  0  0  0
 14  2  2  0  0  0  0
 14  9  1  0  0  0  0
 15 19  1  0  0  0  0
 17 18  1  0  0  0  0
 17 15  2  0  0  0  0
 18 13  2  0  0  0  0
 19  1  1  0  0  0  0
 19  3  2  0  0  0  0
 20 24  1  0  0  0  0
 21 25  1  0  0  0  0
 22 21  2  0  0  0  0
 22 23  1  0  0  0  0
 23 20  2  0  0  0  0
 25 24  2  0  0  0  0
 26 17  1  0  0  0  0
 27 26  1  0  0  0  0
M  END
>  <MODEL>
1

>  <REMARK>
 VINA RESULT:      -8.0      0.000      0.000
  Name = 
  2 active torsions:
  status: ('A' for Active; 'I' for Inactive)
    1  A    between atoms: C_9  and  C_15
    2  A    between atoms: O_10  and  C_22
                            x       y       z     vdW  Elec       q    Type
                         _______ _______ _______ _____ _____    ______ ____

>  <TORSDO>
F 2

$$$$
=
 OpenBabel11052418283D

 27 31  0  0  0  0  0  0  0  0999 V2000
  187.3500  177.4880  143.2960 C   0  0  0  0  0  0  0  0  0  0  0  0
  188.9240  177.1450  145.1210 C   0  0  0  0  0  0  0  0  0  0  0  0
  189.6400  176.9340  142.8370 N   0  0  0  0  0  0  0  0  0  0  0  0
  192.8420  176.2650  146.4020 C   0  0  0  0  0  3  0  0  0  0  0  0
  195.1340  175.7100  145.9010 O   0  0  0  0  0  1  0  0  0  0  0  0
  189.2510  177.1150  146.4870 C   0  0  0  0  0  3  0  0  0  0  0  0
  192.2680  176.3240  143.6630 C   0  0  0  0  0  3  0  0  0  0  0  0
  193.5620  176.0310  144.1020 C   0  0  0  0  0  3  0  0  0  0  0  0
  191.2470  176.5900  144.5880 C   0  0  0  0  0  0  0  0  0  0  0  0
  187.6130  177.4500  144.6840 C   0  0  0  0  0  0  0  0  0  0  0  0
  193.8480  176.0010  145.4690 C   0  0  0  0  0  0  0  0  0  0  0  0
  191.5450  176.5580  145.9710 C   0  0  0  0  0  0  0  0  0  0  0  0
  186.0670  177.7630  142.7930 C   0  0  0  0  0  3  0  0  0  0  0  0
  189.9370  176.8870  144.1630 C   0  0  0  0  0  0  0  0  0  0  0  0
  188.1530  177.2480  141.0090 C   0  0  0  0  0  3  0  0  0  0  0  0
  190.5480  176.8220  146.9080 C   0  0  0  0  0  3  0  0  0  0  0  0
  186.8700  177.5320  140.5180 C   0  0  0  0  0  0  0  0  0  0  0  0
  185.8310  177.7870  141.4170 C   0  0  0  0  0  3  0  0  0  0  0  0
  188.3960  177.2230  142.3850 C   0  0  0  0  0  0  0  0  0  0  0  0
  184.4910  178.2430  147.5190 C   0  0  0  0  0  3  0  0  0  0  0  0
  186.5320  177.7240  145.6670 C   0  0  0  0  0  0  0  0  0  0  0  0
  185.6160  176.7190  146.0110 C   0  0  0  0  0  3  0  0  0  0  0  0
  184.5990  176.9790  146.9340 C   0  0  0  0  0  3  0  0  0  0  0  0
  185.4000  179.2490  147.1810 C   0  0  0  0  0  3  0  0  0  0  0  0
  186.4170  178.9910  146.2570 C   0  0  0  0  0  3  0  0  0  0  0  0
  186.6000  177.5660  139.1470 O   0  0  0  0  0  0  0  0  0  0  0  0
  186.6240  176.4030  138.3310 C   0  0  0  0  0  1  0  0  0  0  0  0
  1 10  2  0  0  0  0
  2  6  1  0  0  0  0
  3 14  1  0  0  0  0
  6 16  2  0  0  0  0
  7  8  2  0  0  0  0
  7  9  1  0  0  0  0
  8 11  1  0  0  0  0
  9 12  2  0  0  0  0
 10  2  1  0  0  0  0
 10 21  1  0  0  0  0
 11  5  1  0  0  0  0
 11  4  2  0  0  0  0
 12  4  1  0  0  0  0
 12 16  1  0  0  0  0
 13  1  1  0  0  0  0
 14  9  1  0  0  0  0
 14  2  2  0  0  0  0
 15 19  1  0  0  0  0
 17 15  2  0  0  0  0
 17 18  1  0  0  0  0
 18 13  2  0  0  0  0
 19  3  2  0  0  0  0
 19  1  1  0  0  0  0
 21 22  2  0  0  0  0
 21 25  1  0  0  0  0
 22 23  1  0  0  0  0
 23 20  2  0  0  0  0
 24 20  1  0  0  0  0
 25 24  2  0  0  0  0
 26 17  1  0  0  0  0
 27 26  1  0  0  0  0
M  END
>  <MODEL>
2

>  <REMARK>
 VINA RESULT:      -8.0      2.749      6.301
  Name = 
  2 active torsions:
  status: ('A' for Active; 'I' for Inactive)
    1  A    between atoms: C_9  and  C_15
    2  A    between atoms: O_10  and  C_22
                            x       y       z     vdW  Elec       q    Type
                         _______ _______ _______ _____ _____    ______ ____

>  <TORSDO>
F 2

$$$$
=
 OpenBabel11052418283D

 27 31  0  0  0  0  0  0  0  0999 V2000
  190.4440  174.9900  142.7070 C   0  0  0  0  0  0  0  0  0  0  0  0
  189.4050  176.3260  144.4560 C   0  0  0  0  0  0  0  0  0  0  0  0
  188.1500  175.6730  142.5130 N   0  0  0  0  0  0  0  0  0  0  0  0
  185.9980  178.3040  145.9560 C   0  0  0  0  0  3  0  0  0  0  0  0
  183.6920  178.9700  145.7250 O   0  0  0  0  0  1  0  0  0  0  0  0
  189.4350  176.9830  145.6970 C   0  0  0  0  0  3  0  0  0  0  0  0
  185.8580  177.0020  143.4810 C   0  0  0  0  0  3  0  0  0  0  0  0
  184.7380  177.6640  143.9900 C   0  0  0  0  0  3  0  0  0  0  0  0
  187.0610  176.9840  144.2040 C   0  0  0  0  0  0  0  0  0  0  0  0
  190.5420  175.6520  143.9510 C   0  0  0  0  0  0  0  0  0  0  0  0
  184.8070  178.3140  145.2240 C   0  0  0  0  0  0  0  0  0  0  0  0
  187.1240  177.6450  145.4540 C   0  0  0  0  0  0  0  0  0  0  0  0
  191.5390  174.3190  142.1370 C   0  0  0  0  0  3  0  0  0  0  0  0
  188.2010  176.3220  143.7070 C   0  0  0  0  0  0  0  0  0  0  0  0
  189.1060  174.3740  140.7650 C   0  0  0  0  0  3  0  0  0  0  0  0
  188.3070  177.6370  146.1910 C   0  0  0  0  0  3  0  0  0  0  0  0
  190.2050  173.7010  140.2100 C   0  0  0  0  0  0  0  0  0  0  0  0
  191.4180  173.6790  140.9020 C   0  0  0  0  0  3  0  0  0  0  0  0
  189.2200  175.0170  142.0010 C   0  0  0  0  0  0  0  0  0  0  0  0
  194.2230  175.6180  146.1570 C   0  0  0  0  0  3  0  0  0  0  0  0
  191.8170  175.6400  144.7150 C   0  0  0  0  0  0  0  0  0  0  0  0
  192.7460  176.6790  144.5580 C   0  0  0  0  0  3  0  0  0  0  0  0
  193.9450  176.6670  145.2760 C   0  0  0  0  0  3  0  0  0  0  0  0
  193.3010  174.5800  146.3190 C   0  0  0  0  0  3  0  0  0  0  0  0
  192.1020  174.5910  145.6000 C   0  0  0  0  0  3  0  0  0  0  0  0
  190.1170  173.0480  138.9770 O   0  0  0  0  0  0  0  0  0  0  0  0
  189.5860  173.6710  137.8150 C   0  0  0  0  0  1  0  0  0  0  0  0
  1 10  2  0  0  0  0
  2  6  1  0  0  0  0
  3 14  1  0  0  0  0
  6 16  2  0  0  0  0
  7  8  2  0  0  0  0
  7  9  1  0  0  0  0
  8 11  1  0  0  0  0
  9 12  2  0  0  0  0
 10  2  1  0  0  0  0
 10 21  1  0  0  0  0
 11  5  1  0  0  0  0
 11  4  2  0  0  0  0
 12  4  1  0  0  0  0
 12 16  1  0  0  0  0
 13  1  1  0  0  0  0
 14  9  1  0  0  0  0
 14  2  2  0  0  0  0
 15 19  1  0  0  0  0
 17 15  2  0  0  0  0
 17 18  1  0  0  0  0
 18 13  2  0  0  0  0
 19  3  2  0  0  0  0
 19  1  1  0  0  0  0
 20 24  1  0  0  0  0
 21 25  1  0  0  0  0
 22 21  2  0  0  0  0
 22 23  1  0  0  0  0
 23 20  2  0  0  0  0
 25 24  2  0  0  0  0
 26 17  1  0  0  0  0
 27 26  1  0  0  0  0
M  END
>  <MODEL>
3

>  <REMARK>
 VINA RESULT:      -7.7      0.985      1.079
  Name = 
  2 active torsions:
  status: ('A' for Active; 'I' for Inactive)
    1  A    between atoms: C_9  and  C_15
    2  A    between atoms: O_10  and  C_22
                            x       y       z     vdW  Elec       q    Type
                         _______ _______ _______ _____ _____    ______ ____

>  <TORSDO>
F 2

$$$$
=
 OpenBabel11052418283D

 27 31  0  0  0  0  0  0  0  0999 V2000
  188.8180  177.1010  145.8290 C   0  0  0  0  0  0  0  0  0  0  0  0
  188.0940  176.2880  143.6520 C   0  0  0  0  0  0  0  0  0  0  0  0
  190.2850  175.7580  144.4840 N   0  0  0  0  0  0  0  0  0  0  0  0
  188.9170  174.0760  140.1590 C   0  0  0  0  0  3  0  0  0  0  0  0
  190.4180  172.7290  138.8380 O   0  0  0  0  0  1  0  0  0  0  0  0
  187.1350  176.1540  142.6350 C   0  0  0  0  0  3  0  0  0  0  0  0
  190.8730  174.2850  142.1510 C   0  0  0  0  0  3  0  0  0  0  0  0
  191.1320  173.5570  140.9870 C   0  0  0  0  0  3  0  0  0  0  0  0
  189.6330  174.9170  142.3320 C   0  0  0  0  0  0  0  0  0  0  0  0
  187.8210  177.0210  144.8310 C   0  0  0  0  0  0  0  0  0  0  0  0
  190.1560  173.4530  139.9930 C   0  0  0  0  0  0  0  0  0  0  0  0
  188.6490  174.8060  141.3200 C   0  0  0  0  0  0  0  0  0  0  0  0
  188.6220  177.8280  147.0150 C   0  0  0  0  0  3  0  0  0  0  0  0
  189.3530  175.6550  143.4990 C   0  0  0  0  0  0  0  0  0  0  0  0
  191.0580  176.5250  146.5980 C   0  0  0  0  0  3  0  0  0  0  0  0
  187.4090  175.4230  141.4800 C   0  0  0  0  0  3  0  0  0  0  0  0
  190.8470  177.2480  147.7810 C   0  0  0  0  0  0  0  0  0  0  0  0
  189.6270  177.8990  147.9820 C   0  0  0  0  0  3  0  0  0  0  0  0
  190.0560  176.4510  145.6260 C   0  0  0  0  0  0  0  0  0  0  0  0
  184.0350  178.9660  145.3670 C   0  0  0  0  0  3  0  0  0  0  0  0
  186.5090  177.6950  145.0170 C   0  0  0  0  0  0  0  0  0  0  0  0
  185.5470  177.1460  145.8770 C   0  0  0  0  0  3  0  0  0  0  0  0
  184.3140  177.7800  146.0510 C   0  0  0  0  0  3  0  0  0  0  0  0
  184.9890  179.5190  144.5090 C   0  0  0  0  0  3  0  0  0  0  0  0
  186.2230  178.8850  144.3340 C   0  0  0  0  0  3  0  0  0  0  0  0
  191.8310  177.3370  148.7710 O   0  0  0  0  0  0  0  0  0  0  0  0
  191.6510  178.0820  149.9680 C   0  0  0  0  0  1  0  0  0  0  0  0
  1 13  1  0  0  0  0
  2 10  2  0  0  0  0
  3 19  1  0  0  0  0
  4 12  1  0  0  0  0
  5 11  1  0  0  0  0
  6  2  1  0  0  0  0
  7  9  1  0  0  0  0
  8  7  2  0  0  0  0
  9 14  1  0  0  0  0
 10 21  1  0  0  0  0
 10  1  1  0  0  0  0
 11  4  2  0  0  0  0
 11  8  1  0  0  0  0
 12 16  1  0  0  0  0
 12  9  2  0  0  0  0
 13 18  2  0  0  0  0
 14  2  1  0  0  0  0
 14  3  2  0  0  0  0
 15 17  2  0  0  0  0
 16  6  2  0  0  0  0
 17 18  1  0  0  0  0
 17 26  1  0  0  0  0
 19  1  2  0  0  0  0
 19 15  1  0  0  0  0
 20 23  1  0  0  0  0
 21 22  1  0  0  0  0
 22 23  2  0  0  0  0
 24 20  2  0  0  0  0
 25 24  1  0  0  0  0
 25 21  2  0  0  0  0
 26 27  1  0  0  0  0
M  END
>  <MODEL>
4

>  <REMARK>
 VINA RESULT:      -7.7      2.351      7.595
  Name = 
  2 active torsions:
  status: ('A' for Active; 'I' for Inactive)
    1  A    between atoms: C_9  and  C_15
    2  A    between atoms: O_10  and  C_22
                            x       y       z     vdW  Elec       q    Type
                         _______ _______ _______ _____ _____    ______ ____

>  <TORSDO>
F 2

$$$$
=
 OpenBabel11052418283D

 27 31  0  0  0  0  0  0  0  0999 V2000
  190.1570  175.9650  145.4810 C   0  0  0  0  0  0  0  0  0  0  0  0
  188.3330  176.1040  143.8750 C   0  0  0  0  0  0  0  0  0  0  0  0
  188.2830  177.4070  145.8940 N   0  0  0  0  0  0  0  0  0  0  0  0
  184.6290  177.7680  142.7420 C   0  0  0  0  0  3  0  0  0  0  0  0
  182.7650  179.2280  143.1920 O   0  0  0  0  0  1  0  0  0  0  0  0
  187.7220  175.7540  142.6600 C   0  0  0  0  0  3  0  0  0  0  0  0
  185.7950  178.5250  145.1730 C   0  0  0  0  0  3  0  0  0  0  0  0
  184.5670  179.0660  144.7850 C   0  0  0  0  0  3  0  0  0  0  0  0
  186.4540  177.5990  144.3500 C   0  0  0  0  0  0  0  0  0  0  0  0
  189.5810  175.5570  144.2570 C   0  0  0  0  0  0  0  0  0  0  0  0
  183.9850  178.6880  143.5730 C   0  0  0  0  0  0  0  0  0  0  0  0
  185.8590  177.2210  143.1220 C   0  0  0  0  0  0  0  0  0  0  0  0
  191.3830  175.4460  145.9310 C   0  0  0  0  0  3  0  0  0  0  0  0
  187.6940  177.0430  144.7240 C   0  0  0  0  0  0  0  0  0  0  0  0
  190.0270  177.3130  147.5070 C   0  0  0  0  0  3  0  0  0  0  0  0
  186.4970  176.3050  142.2880 C   0  0  0  0  0  3  0  0  0  0  0  0
  191.2560  176.7940  147.9420 C   0  0  0  0  0  0  0  0  0  0  0  0
  191.9270  175.8600  147.1490 C   0  0  0  0  0  3  0  0  0  0  0  0
  189.4770  176.9030  146.2890 C   0  0  0  0  0  0  0  0  0  0  0  0
  191.5820  172.7110  141.7460 C   0  0  0  0  0  3  0  0  0  0  0  0
  190.2740  174.5710  143.3870 C   0  0  0  0  0  0  0  0  0  0  0  0
  190.0270  173.1980  143.5360 C   0  0  0  0  0  3  0  0  0  0  0  0
  190.6790  172.2720  142.7180 C   0  0  0  0  0  3  0  0  0  0  0  0
  191.8320  174.0770  141.5910 C   0  0  0  0  0  3  0  0  0  0  0  0
  191.1810  175.0040  142.4090 C   0  0  0  0  0  3  0  0  0  0  0  0
  191.8290  177.1880  149.1550 O   0  0  0  0  0  0  0  0  0  0  0  0
  191.3980  178.3380  149.8700 C   0  0  0  0  0  1  0  0  0  0  0  0
  1 13  2  0  0  0  0
  1 19  1  0  0  0  0
  2 10  2  0  0  0  0
  2 14  1  0  0  0  0
  3 19  1  0  0  0  0
  4 12  2  0  0  0  0
  4 11  1  0  0  0  0
  5 11  1  0  0  0  0
  6  2  1  0  0  0  0
  8  7  1  0  0  0  0
  9 14  1  0  0  0  0
  9  7  2  0  0  0  0
 10  1  1  0  0  0  0
 11  8  2  0  0  0  0
 12  9  1  0  0  0  0
 13 18  1  0  0  0  0
 14  3  2  0  0  0  0
 15 17  1  0  0  0  0
 16  6  2  0  0  0  0
 16 12  1  0  0  0  0
 17 26  1  0  0  0  0
 18 17  2  0  0  0  0
 19 15  2  0  0  0  0
 20 23  1  0  0  0  0
 21 22  1  0  0  0  0
 21 10  1  0  0  0  0
 23 22  2  0  0  0  0
 24 20  2  0  0  0  0
 24 25  1  0  0  0  0
 25 21  2  0  0  0  0
 26 27  1  0  0  0  0
M  END
>  <MODEL>
5

>  <REMARK>
 VINA RESULT:      -7.7      2.844      5.296
  Name = 
  2 active torsions:
  status: ('A' for Active; 'I' for Inactive)
    1  A    between atoms: C_9  and  C_15
    2  A    between atoms: O_10  and  C_22
                            x       y       z     vdW  Elec       q    Type
                         _______ _______ _______ _____ _____    ______ ____

>  <TORSDO>
F 2

$$$$
=
 OpenBabel11052418283D

 27 31  0  0  0  0  0  0  0  0999 V2000
  187.0270  176.8770  142.6640 C   0  0  0  0  0  0  0  0  0  0  0  0
  188.4060  176.0320  144.4830 C   0  0  0  0  0  0  0  0  0  0  0  0
  188.9900  175.5750  142.1970 N   0  0  0  0  0  0  0  0  0  0  0  0
  191.8040  173.8820  145.7510 C   0  0  0  0  0  3  0  0  0  0  0  0
  193.7680  172.5800  145.2420 O   0  0  0  0  0  1  0  0  0  0  0  0
  188.7140  175.9000  145.8470 C   0  0  0  0  0  3  0  0  0  0  0  0
  191.2620  174.1160  143.0140 C   0  0  0  0  0  3  0  0  0  0  0  0
  192.3830  173.4040  143.4490 C   0  0  0  0  0  3  0  0  0  0  0  0
  190.3990  174.7180  143.9430 C   0  0  0  0  0  0  0  0  0  0  0  0
  187.2730  176.7600  144.0510 C   0  0  0  0  0  0  0  0  0  0  0  0
  192.6530  173.2870  144.8150 C   0  0  0  0  0  0  0  0  0  0  0  0
  190.6800  174.5960  145.3250 C   0  0  0  0  0  0  0  0  0  0  0  0
  185.9100  177.5670  142.1650 C   0  0  0  0  0  3  0  0  0  0  0  0
  189.2640  175.4390  143.5220 C   0  0  0  0  0  0  0  0  0  0  0  0
  187.6840  176.3640  140.3740 C   0  0  0  0  0  3  0  0  0  0  0  0
  189.8380  175.1880  146.2650 C   0  0  0  0  0  3  0  0  0  0  0  0
  186.5690  177.0630  139.8880 C   0  0  0  0  0  0  0  0  0  0  0  0
  185.6860  177.6610  140.7900 C   0  0  0  0  0  3  0  0  0  0  0  0
  187.9140  176.2660  141.7490 C   0  0  0  0  0  0  0  0  0  0  0  0
  184.6280  178.5810  146.8970 C   0  0  0  0  0  3  0  0  0  0  0  0
  186.3560  177.3910  145.0360 C   0  0  0  0  0  0  0  0  0  0  0  0
  186.4230  178.7700  145.2830 C   0  0  0  0  0  3  0  0  0  0  0  0
  185.5620  179.3620  146.2110 C   0  0  0  0  0  3  0  0  0  0  0  0
  184.5560  177.2070  146.6560 C   0  0  0  0  0  3  0  0  0  0  0  0
  185.4180  176.6130  145.7290 C   0  0  0  0  0  3  0  0  0  0  0  0
  186.3160  177.1780  138.5180 O   0  0  0  0  0  0  0  0  0  0  0  0
  186.5460  176.1150  137.6030 C   0  0  0  0  0  1  0  0  0  0  0  0
  1 10  2  0  0  0  0
  2  6  1  0  0  0  0
  3 14  1  0  0  0  0
  6 16  2  0  0  0  0
  7  8  2  0  0  0  0
  7  9  1  0  0  0  0
  8 11  1  0  0  0  0
  9 12  2  0  0  0  0
 10  2  1  0  0  0  0
 10 21  1  0  0  0  0
 11  5  1  0  0  0  0
 11  4  2  0  0  0  0
 12  4  1  0  0  0  0
 12 16  1  0  0  0  0
 13  1  1  0  0  0  0
 14  9  1  0  0  0  0
 14  2  2  0  0  0  0
 15 19  1  0  0  0  0
 17 15  2  0  0  0  0
 17 18  1  0  0  0  0
 18 13  2  0  0  0  0
 19  3  2  0  0  0  0
 19  1  1  0  0  0  0
 21 22  2  0  0  0  0
 21 25  1  0  0  0  0
 22 23  1  0  0  0  0
 23 20  2  0  0  0  0
 24 20  1  0  0  0  0
 25 24  2  0  0  0  0
 26 17  1  0  0  0  0
 27 26  1  0  0  0  0
M  END
>  <MODEL>
6

>  <REMARK>
 VINA RESULT:      -7.5      2.856      6.243
  Name = 
  2 active torsions:
  status: ('A' for Active; 'I' for Inactive)
    1  A    between atoms: C_9  and  C_15
    2  A    between atoms: O_10  and  C_22
                            x       y       z     vdW  Elec       q    Type
                         _______ _______ _______ _____ _____    ______ ____

>  <TORSDO>
F 2

$$$$
=
 OpenBabel11052418283D

 27 31  0  0  0  0  0  0  0  0999 V2000
  187.7090  176.4040  143.9060 C   0  0  0  0  0  0  0  0  0  0  0  0
  189.4410  174.9470  143.0090 C   0  0  0  0  0  0  0  0  0  0  0  0
  187.5700  175.5990  141.6480 N   0  0  0  0  0  0  0  0  0  0  0  0
  190.9830  172.7260  139.7750 C   0  0  0  0  0  3  0  0  0  0  0  0
  190.8080  171.9390  137.5030 O   0  0  0  0  0  1  0  0  0  0  0  0
  190.6540  174.2490  143.1220 C   0  0  0  0  0  3  0  0  0  0  0  0
  188.5660  174.1070  139.4710 C   0  0  0  0  0  3  0  0  0  0  0  0
  189.0890  173.3650  138.4090 C   0  0  0  0  0  3  0  0  0  0  0  0
  189.2460  174.1670  140.6980 C   0  0  0  0  0  0  0  0  0  0  0  0
  188.9230  175.7030  144.0880 C   0  0  0  0  0  0  0  0  0  0  0  0
  190.2940  172.6750  138.5600 C   0  0  0  0  0  0  0  0  0  0  0  0
  190.4680  173.4660  140.8440 C   0  0  0  0  0  0  0  0  0  0  0  0
  187.1270  177.1560  144.9410 C   0  0  0  0  0  3  0  0  0  0  0  0
  188.7350  174.9110  141.7800 C   0  0  0  0  0  0  0  0  0  0  0  0
  185.8410  177.0120  142.4650 C   0  0  0  0  0  3  0  0  0  0  0  0
  191.1620  173.5140  142.0510 C   0  0  0  0  0  3  0  0  0  0  0  0
  185.2740  177.7670  143.5030 C   0  0  0  0  0  0  0  0  0  0  0  0
  185.9220  177.8320  144.7380 C   0  0  0  0  0  3  0  0  0  0  0  0
  187.0470  176.3320  142.6610 C   0  0  0  0  0  0  0  0  0  0  0  0
  190.9960  175.8660  147.8400 C   0  0  0  0  0  3  0  0  0  0  0  0
  189.6410  175.7590  145.3870 C   0  0  0  0  0  0  0  0  0  0  0  0
  189.3160  174.8610  146.4150 C   0  0  0  0  0  3  0  0  0  0  0  0
  189.9920  174.9160  147.6370 C   0  0  0  0  0  3  0  0  0  0  0  0
  191.3250  176.7630  146.8210 C   0  0  0  0  0  3  0  0  0  0  0  0
  190.6500  176.7100  145.5980 C   0  0  0  0  0  3  0  0  0  0  0  0
  184.0700  178.4580  143.3330 O   0  0  0  0  0  0  0  0  0  0  0  0
  183.2440  178.2910  142.1890 C   0  0  0  0  0  1  0  0  0  0  0  0
  1 10  1  0  0  0  0
  1 13  1  0  0  0  0
  2  6  1  0  0  0  0
  2 10  2  0  0  0  0
  3 14  2  0  0  0  0
  3 19  1  0  0  0  0
  4 12  1  0  0  0  0
  5 11  1  0  0  0  0
  7  9  1  0  0  0  0
  8 11  1  0  0  0  0
  8  7  2  0  0  0  0
  9 12  2  0  0  0  0
  9 14  1  0  0  0  0
 10 21  1  0  0  0  0
 11  4  2  0  0  0  0
 12 16  1  0  0  0  0
 14  2  1  0  0  0  0
 15 19  1  0  0  0  0
 15 17  2  0  0  0  0
 16  6  2  0  0  0  0
 17 18  1  0  0  0  0
 18 13  2  0  0  0  0
 19  1  2  0  0  0  0
 21 25  2  0  0  0  0
 21 22  1  0  0  0  0
 22 23  2  0  0  0  0
 23 20  1  0  0  0  0
 24 20  2  0  0  0  0
 25 24  1  0  0  0  0
 26 17  1  0  0  0  0
 27 26  1  0  0  0  0
M  END
>  <MODEL>
7

>  <REMARK>
 VINA RESULT:      -7.5      2.119      6.437
  Name = 
  2 active torsions:
  status: ('A' for Active; 'I' for Inactive)
    1  A    between atoms: C_9  and  C_15
    2  A    between atoms: O_10  and  C_22
                            x       y       z     vdW  Elec       q    Type
                         _______ _______ _______ _____ _____    ______ ____

>  <TORSDO>
F 2

$$$$
=
 OpenBabel11052418283D

 27 31  0  0  0  0  0  0  0  0999 V2000
  189.1330  176.5030  145.4560 C   0  0  0  0  0  0  0  0  0  0  0  0
  188.5770  175.3320  143.3960 C   0  0  0  0  0  0  0  0  0  0  0  0
  190.5070  174.6950  144.6770 N   0  0  0  0  0  0  0  0  0  0  0  0
  189.4580  172.2940  140.6100 C   0  0  0  0  0  3  0  0  0  0  0  0
  190.8620  170.4830  139.8600 O   0  0  0  0  0  1  0  0  0  0  0  0
  187.7540  175.1110  142.2790 C   0  0  0  0  0  3  0  0  0  0  0  0
  191.1340  172.6650  142.8210 C   0  0  0  0  0  3  0  0  0  0  0  0
  191.4150  171.6630  141.8880 C   0  0  0  0  0  3  0  0  0  0  0  0
  190.0120  173.4920  142.6590 C   0  0  0  0  0  0  0  0  0  0  0  0
  188.2810  176.3440  144.3400 C   0  0  0  0  0  0  0  0  0  0  0  0
  190.5790  171.4780  140.7850 C   0  0  0  0  0  0  0  0  0  0  0  0
  189.1700  173.2990  141.5380 C   0  0  0  0  0  0  0  0  0  0  0  0
  188.9110  177.5000  146.4210 C   0  0  0  0  0  3  0  0  0  0  0  0
  189.7130  174.5070  143.5890 C   0  0  0  0  0  0  0  0  0  0  0  0
  191.1110  175.8010  146.6940 C   0  0  0  0  0  3  0  0  0  0  0  0
  188.0480  174.1070  141.3580 C   0  0  0  0  0  3  0  0  0  0  0  0
  190.8740  176.7950  147.6550 C   0  0  0  0  0  0  0  0  0  0  0  0
  189.7730  177.6420  147.5100 C   0  0  0  0  0  3  0  0  0  0  0  0
  190.2520  175.6530  145.6000 C   0  0  0  0  0  0  0  0  0  0  0  0
  184.8610  178.8830  143.8270 C   0  0  0  0  0  3  0  0  0  0  0  0
  187.0960  177.2230  144.1620 C   0  0  0  0  0  0  0  0  0  0  0  0
  187.1320  178.2800  143.2400 C   0  0  0  0  0  3  0  0  0  0  0  0
  186.0170  179.1070  143.0740 C   0  0  0  0  0  3  0  0  0  0  0  0
  184.8190  177.8320  144.7460 C   0  0  0  0  0  3  0  0  0  0  0  0
  185.9330  177.0050  144.9140 C   0  0  0  0  0  3  0  0  0  0  0  0
  191.7160  176.9630  148.7580 O   0  0  0  0  0  0  0  0  0  0  0  0
  191.5610  178.0270  149.6870 C   0  0  0  0  0  1  0  0  0  0  0  0
  1 19  2  0  0  0  0
  1 13  1  0  0  0  0
  2 14  1  0  0  0  0
  2 10  2  0  0  0  0
  3 19  1  0  0  0  0
  4 11  2  0  0  0  0
  4 12  1  0  0  0  0
  5 11  1  0  0  0  0
  6  2  1  0  0  0  0
  8  7  2  0  0  0  0
  9  7  1  0  0  0  0
  9 14  1  0  0  0  0
 10  1  1  0  0  0  0
 11  8  1  0  0  0  0
 12  9  2  0  0  0  0
 13 18  2  0  0  0  0
 14  3  2  0  0  0  0
 15 17  2  0  0  0  0
 16 12  1  0  0  0  0
 16  6  2  0  0  0  0
 17 26  1  0  0  0  0
 18 17  1  0  0  0  0
 19 15  1  0  0  0  0
 20 24  1  0  0  0  0
 21 10  1  0  0  0  0
 21 25  1  0  0  0  0
 22 21  2  0  0  0  0
 23 22  1  0  0  0  0
 23 20  2  0  0  0  0
 24 25  2  0  0  0  0
 26 27  1  0  0  0  0
M  END
>  <MODEL>
8

>  <REMARK>
 VINA RESULT:      -7.4      2.506      7.532
  Name = 
  2 active torsions:
  status: ('A' for Active; 'I' for Inactive)
    1  A    between atoms: C_9  and  C_15
    2  A    between atoms: O_10  and  C_22
                            x       y       z     vdW  Elec       q    Type
                         _______ _______ _______ _____ _____    ______ ____

>  <TORSDO>
F 2

$$$$
=
 OpenBabel11052418283D

 27 31  0  0  0  0  0  0  0  0999 V2000
  189.2310  175.1830  143.1640 C   0  0  0  0  0  0  0  0  0  0  0  0
  187.6370  176.6050  144.3300 C   0  0  0  0  0  0  0  0  0  0  0  0
  187.2540  175.9620  142.0470 N   0  0  0  0  0  0  0  0  0  0  0  0
  184.0180  178.7660  144.3000 C   0  0  0  0  0  3  0  0  0  0  0  0
  182.0440  179.5280  143.1440 O   0  0  0  0  0  1  0  0  0  0  0  0
  187.1900  177.2890  145.4730 C   0  0  0  0  0  3  0  0  0  0  0  0
  184.8360  177.4140  141.9890 C   0  0  0  0  0  3  0  0  0  0  0  0
  183.6400  178.1370  141.9920 C   0  0  0  0  0  3  0  0  0  0  0  0
  185.6360  177.3600  143.1400 C   0  0  0  0  0  0  0  0  0  0  0  0
  188.8460  175.8690  144.3370 C   0  0  0  0  0  0  0  0  0  0  0  0
  183.2320  178.8120  143.1450 C   0  0  0  0  0  0  0  0  0  0  0  0
  185.2160  178.0460  144.3050 C   0  0  0  0  0  0  0  0  0  0  0  0
  190.4280  174.4510  143.0940 C   0  0  0  0  0  3  0  0  0  0  0  0
  186.8450  176.6360  143.1550 C   0  0  0  0  0  0  0  0  0  0  0  0
  188.7730  174.5820  140.8470 C   0  0  0  0  0  3  0  0  0  0  0  0
  185.9940  178.0040  145.4610 C   0  0  0  0  0  3  0  0  0  0  0  0
  189.9670  173.8470  140.7920 C   0  0  0  0  0  0  0  0  0  0  0  0
  190.7910  173.7880  141.9190 C   0  0  0  0  0  3  0  0  0  0  0  0
  188.4050  175.2480  142.0190 C   0  0  0  0  0  0  0  0  0  0  0  0
  191.2980  175.7240  147.8550 C   0  0  0  0  0  3  0  0  0  0  0  0
  189.6950  175.8190  145.5560 C   0  0  0  0  0  0  0  0  0  0  0  0
  190.7950  176.6790  145.6870 C   0  0  0  0  0  3  0  0  0  0  0  0
  191.5940  176.6310  146.8340 C   0  0  0  0  0  3  0  0  0  0  0  0
  190.2040  174.8640  147.7300 C   0  0  0  0  0  3  0  0  0  0  0  0
  189.4050  174.9110  146.5840 C   0  0  0  0  0  3  0  0  0  0  0  0
  190.3590  173.1710  139.6330 O   0  0  0  0  0  0  0  0  0  0  0  0
  189.4830  172.3160  138.9110 C   0  0  0  0  0  1  0  0  0  0  0  0
  1 10  2  0  0  0  0
  2 10  1  0  0  0  0
  2  6  1  0  0  0  0
  3 14  1  0  0  0  0
  4 12  1  0  0  0  0
  5 11  1  0  0  0  0
  7  8  2  0  0  0  0
  7  9  1  0  0  0  0
  8 11  1  0  0  0  0
  9 14  1  0  0  0  0
  9 12  2  0  0  0  0
 10 21  1  0  0  0  0
 11  4  2  0  0  0  0
 12 16  1  0  0  0  0
 13  1  1  0  0  0  0
 14  2  2  0  0  0  0
 15 19  1  0  0  0  0
 16  6  2  0  0  0  0
 17 15  2  0  0  0  0
 17 18  1  0  0  0  0
 18 13  2  0  0  0  0
 19  3  2  0  0  0  0
 19  1  1  0  0  0  0
 21 22  2  0  0  0  0
 21 25  1  0  0  0  0
 22 23  1  0  0  0  0
 23 20  2  0  0  0  0
 24 20  1  0  0  0  0
 25 24  2  0  0  0  0
 26 17  1  0  0  0  0
 27 26  1  0  0  0  0
M  END
>  <MODEL>
9

>  <REMARK>
 VINA RESULT:      -7.3      1.998      2.906
  Name = 
  2 active torsions:
  status: ('A' for Active; 'I' for Inactive)
    1  A    between atoms: C_9  and  C_15
    2  A    between atoms: O_10  and  C_22
                            x       y       z     vdW  Elec       q    Type
                         _______ _______ _______ _____ _____    ______ ____

>  <TORSDO>
F 2

$$$$
