=
 OpenBabel11052419583D

 37 41  0  0  1  0  0  0  0  0999 V2000
  192.3840  173.9160  143.2840 C   0  0  1  0  0  0  0  0  0  0  0  0
  191.2700  172.9540  141.1250 C   0  0  2  0  0  3  0  0  0  0  0  0
  188.3860  174.0470  142.2120 N   0  0  2  0  0  0  0  0  0  0  0  0
  193.4880  173.5230  144.2880 C   0  0  2  0  0  3  0  0  0  0  0  0
  189.1610  172.5810  139.8980 N   0  0  0  0  0  2  0  0  0  0  0  0
  188.7860  174.8760  143.3580 C   0  0  2  0  0  3  0  0  0  0  0  0
  192.9460  171.1440  143.7900 C   0  0  0  0  0  2  0  0  0  0  0  0
  189.0290  172.7170  142.3420 C   0  0  0  0  0  2  0  0  0  0  0  0
  187.9660  176.1760  143.3690 C   0  0  2  0  0  3  0  0  0  0  0  0
  188.0040  174.2190  138.7080 O   0  0  0  0  0  0  0  0  0  0  0  0
  192.1790  172.6960  142.3500 C   0  0  2  0  0  3  0  0  0  0  0  0
  187.7860  176.0180  140.8650 C   0  0  0  0  0  2  0  0  0  0  0  0
  193.2350  172.1420  144.9090 C   0  0  0  0  0  2  0  0  0  0  0  0
  188.5650  173.8690  139.7800 C   0  0  0  0  0  0  0  0  0  0  0  0
  191.8050  171.5450  143.0730 O   0  0  0  0  0  0  0  0  0  0  0  0
  190.1910  175.1420  143.3180 O   0  0  0  0  0  0  0  0  0  0  0  0
  188.6770  174.7800  140.9600 C   0  0  2  0  0  3  0  0  0  0  0  0
  191.0880  174.2890  143.9640 C   0  0  0  0  0  0  0  0  0  0  0  0
  189.8770  172.2720  141.1340 C   0  0  2  0  0  3  0  0  0  0  0  0
  190.7540  173.7400  145.0510 O   0  0  0  0  0  0  0  0  0  0  0  0
  192.8420  175.0010  142.5320 O   0  0  0  0  0  1  0  0  0  0  0  0
  188.0930  176.9380  142.0450 C   0  0  0  0  0  2  0  0  0  0  0  0
  185.9970  176.6460  145.5010 C   0  0  0  0  0  2  0  0  0  0  0  0
  187.3090  177.2900  145.5690 N   0  0  0  0  0  0  0  0  0  0  0  0
  189.4680  177.4930  144.6890 O   0  0  0  0  0  0  0  0  0  0  0  0
  187.6450  178.1530  146.7050 C   0  0  0  0  0  2  0  0  0  0  0  0
  186.7640  179.2030  148.6640 O   0  0  0  0  0  1  0  0  0  0  0  0
  185.1850  178.5870  146.9730 C   0  0  0  0  0  2  0  0  0  0  0  0
  186.4860  178.2360  147.6970 C   0  0  1  0  0  3  0  0  0  0  0  0
  188.2990  177.0310  144.5580 C   0  0  0  0  0  0  0  0  0  0  0  0
  184.8900  177.6670  145.7750 C   0  0  0  0  0  2  0  0  0  0  0  0
  193.2600  172.3090  140.1950 C   0  0  0  0  0  1  0  0  0  0  0  0
  191.9660  172.7750  139.9070 O   0  0  0  0  0  0  0  0  0  0  0  0
  193.6770  174.5190  145.2910 O   0  0  0  0  0  0  0  0  0  0  0  0
  194.8950  175.1830  145.4500 C   0  0  0  0  0  0  0  0  0  0  0  0
  195.9810  174.4930  145.7550 C   0  0  0  0  0  2  0  0  0  0  0  0
  194.9810  176.5970  145.2990 N   0  0  0  0  0  1  0  0  0  0  0  0
  1 21  1  6  0  0  0
  1 18  1  0  0  0  0
  1  4  1  0  0  0  0
  2 33  1  6  0  0  0
  2 19  1  0  0  0  0
  2 11  1  0  0  0  0
  3  8  1  6  0  0  0
  3  6  1  0  0  0  0
  4 13  1  0  0  0  0
  4 34  1  1  0  0  0
  5 19  1  0  0  0  0
  6 16  1  6  0  0  0
  6  9  1  0  0  0  0
  7 13  1  0  0  0  0
  9 30  1  1  0  0  0
 10 14  2  0  0  0  0
 11 15  1  1  0  0  0
 11  1  1  0  0  0  0
 12 22  1  0  0  0  0
 14  5  1  0  0  0  0
 14 17  1  0  0  0  0
 15  7  1  0  0  0  0
 16 18  1  0  0  0  0
 17 12  1  6  0  0  0
 17  3  1  0  0  0  0
 18 20  2  0  0  0  0
 19  8  1  1  0  0  0
 22  9  1  0  0  0  0
 23 24  1  0  0  0  0
 23 31  1  0  0  0  0
 24 26  1  0  0  0  0
 26 29  1  0  0  0  0
 28 29  1  0  0  0  0
 29 27  1  1  0  0  0
 30 25  2  0  0  0  0
 30 24  1  0  0  0  0
 31 28  1  0  0  0  0
 33 32  1  0  0  0  0
 34 35  1  0  0  0  0
 35 36  2  0  0  0  0
 37 35  1  0  0  0  0
M  END
>  <MODEL>
1

>  <REMARK>
 VINA RESULT:      -7.7      0.000      0.000
  Name = 
  4 active torsions:
  status: ('A' for Active; 'I' for Inactive)
    1  A    between atoms: C_3  and  O_32
    2  A    between atoms: C_5  and  O_17
    3  A    between atoms: C_11  and  O_17
    4  A    between atoms: C_14  and  C_31
                            x       y       z     vdW  Elec       q    Type
                         _______ _______ _______ _____ _____    ______ ____

>  <TORSDO>
F 4

$$$$
=
 OpenBabel11052419583D

 37 41  0  0  1  0  0  0  0  0999 V2000
  191.3800  173.4070  143.2390 C   0  0  1  0  0  0  0  0  0  0  0  0
  192.8050  174.4360  145.1730 C   0  0  2  0  0  3  0  0  0  0  0  0
  190.9370  177.1160  145.0280 N   0  0  2  0  0  0  0  0  0  0  0  0
  191.5960  172.5490  141.9750 C   0  0  2  0  0  3  0  0  0  0  0  0
  193.2020  176.4100  146.6000 N   0  0  0  0  0  2  0  0  0  0  0  0
  189.8520  176.6840  144.1350 C   0  0  2  0  0  3  0  0  0  0  0  0
  193.8750  173.5410  141.8200 C   0  0  0  0  0  2  0  0  0  0  0  0
  192.2350  176.8050  144.3830 C   0  0  0  0  0  2  0  0  0  0  0  0
  188.5040  177.1910  144.6720 C   0  0  2  0  0  3  0  0  0  0  0  0
  191.8870  177.0220  148.4260 O   0  0  0  0  0  0  0  0  0  0  0  0
  192.7880  173.7630  143.7790 C   0  0  2  0  0  3  0  0  0  0  0  0
  189.4600  177.0950  146.9980 C   0  0  0  0  0  2  0  0  0  0  0  0
  192.6240  173.1760  141.0230 C   0  0  0  0  0  2  0  0  0  0  0  0
  191.9470  176.6860  147.2130 C   0  0  0  0  0  0  0  0  0  0  0  0
  193.5490  174.4680  142.8250 O   0  0  0  0  0  0  0  0  0  0  0  0
  189.8590  175.2620  143.9890 O   0  0  0  0  0  0  0  0  0  0  0  0
  190.7260  176.5200  146.3670 C   0  0  2  0  0  3  0  0  0  0  0  0
  190.5850  174.6610  142.9590 C   0  0  0  0  0  0  0  0  0  0  0  0
  193.1970  175.9360  145.2180 C   0  0  2  0  0  3  0  0  0  0  0  0
  190.6730  175.2390  141.8400 O   0  0  0  0  0  0  0  0  0  0  0  0
  190.7040  172.6320  144.1850 O   0  0  0  0  0  1  0  0  0  0  0  0
  188.2640  176.7370  146.1170 C   0  0  0  0  0  2  0  0  0  0  0  0
  186.3170  179.0800  144.1300 C   0  0  0  0  0  2  0  0  0  0  0  0
  186.2840  177.7410  143.5410 N   0  0  0  0  0  0  0  0  0  0  0  0
  187.3920  175.7180  143.1480 O   0  0  0  0  0  0  0  0  0  0  0  0
  185.1710  177.3500  142.6700 C   0  0  0  0  0  2  0  0  0  0  0  0
  183.0370  178.0300  141.8370 O   0  0  0  0  0  1  0  0  0  0  0  0
  183.7620  179.0400  143.8820 C   0  0  0  0  0  2  0  0  0  0  0  0
  184.1660  178.4890  142.5130 C   0  0  1  0  0  3  0  0  0  0  0  0
  187.3710  176.8240  143.7580 C   0  0  0  0  0  0  0  0  0  0  0  0
  184.9660  179.4140  144.7650 C   0  0  0  0  0  2  0  0  0  0  0  0
  194.0490  172.5390  145.4740 C   0  0  0  0  0  1  0  0  0  0  0  0
  193.4980  173.6540  146.1260 O   0  0  0  0  0  0  0  0  0  0  0  0
  190.3690  172.2670  141.3050 O   0  0  0  0  0  0  0  0  0  0  0  0
  190.3280  171.5290  140.1210 C   0  0  0  0  0  0  0  0  0  0  0  0
  189.8230  172.0750  139.0280 C   0  0  0  0  0  2  0  0  0  0  0  0
  190.8120  170.1900  140.0770 N   0  0  0  0  0  1  0  0  0  0  0  0
  1 11  1  0  0  0  0
  1 21  1  1  0  0  0
  2 19  1  0  0  0  0
  2 33  1  1  0  0  0
  3  8  1  6  0  0  0
  3 17  1  0  0  0  0
  4 34  1  6  0  0  0
  4  1  1  0  0  0  0
  5 14  1  0  0  0  0
  6 16  1  1  0  0  0
  6  9  1  0  0  0  0
  6  3  1  0  0  0  0
  7 15  1  0  0  0  0
  9 30  1  6  0  0  0
  9 22  1  0  0  0  0
 11 15  1  6  0  0  0
 11  2  1  0  0  0  0
 13  7  1  0  0  0  0
 13  4  1  0  0  0  0
 14 10  2  0  0  0  0
 17 12  1  1  0  0  0
 17 14  1  0  0  0  0
 18  1  1  0  0  0  0
 18 16  1  0  0  0  0
 19  8  1  6  0  0  0
 19  5  1  0  0  0  0
 20 18  2  0  0  0  0
 22 12  1  0  0  0  0
 23 31  1  0  0  0  0
 24 30  1  0  0  0  0
 24 23  1  0  0  0  0
 25 30  2  0  0  0  0
 26 24  1  0  0  0  0
 28 31  1  0  0  0  0
 29 27  1  1  0  0  0
 29 26  1  0  0  0  0
 29 28  1  0  0  0  0
 32 33  1  0  0  0  0
 35 34  1  0  0  0  0
 36 35  2  0  0  0  0
 37 35  1  0  0  0  0
M  END
>  <MODEL>
2

>  <REMARK>
 VINA RESULT:      -7.5      2.458      5.367
  Name = 
  4 active torsions:
  status: ('A' for Active; 'I' for Inactive)
    1  A    between atoms: C_3  and  O_32
    2  A    between atoms: C_5  and  O_17
    3  A    between atoms: C_11  and  O_17
    4  A    between atoms: C_14  and  C_31
                            x       y       z     vdW  Elec       q    Type
                         _______ _______ _______ _____ _____    ______ ____

>  <TORSDO>
F 4

$$$$
=
 OpenBabel11052419583D

 37 41  0  0  1  0  0  0  0  0999 V2000
  192.8750  174.7620  144.9600 C   0  0  1  0  0  0  0  0  0  0  0  0
  190.9760  176.4720  145.5050 C   0  0  2  0  0  3  0  0  0  0  0  0
  189.8900  176.1350  142.4390 N   0  0  2  0  0  0  0  0  0  0  0  0
  194.3730  174.5580  145.2740 C   0  0  2  0  0  3  0  0  0  0  0  0
  189.0540  177.7480  144.6300 N   0  0  0  0  0  2  0  0  0  0  0  0
  190.6820  174.9940  141.9580 C   0  0  2  0  0  3  0  0  0  0  0  0
  194.5630  177.0350  145.4490 C   0  0  0  0  0  2  0  0  0  0  0  0
  190.8110  177.1330  143.0370 C   0  0  0  0  0  2  0  0  0  0  0  0
  189.7870  174.0500  141.1400 C   0  0  2  0  0  3  0  0  0  0  0  0
  186.9360  176.8600  144.2280 O   0  0  0  0  0  0  0  0  0  0  0  0
  192.4910  176.1560  145.5160 C   0  0  2  0  0  3  0  0  0  0  0  0
  187.8260  174.7970  142.5280 C   0  0  0  0  0  2  0  0  0  0  0  0
  195.2150  175.7790  144.8760 C   0  0  0  0  0  2  0  0  0  0  0  0
  188.1820  176.7720  144.0690 C   0  0  0  0  0  0  0  0  0  0  0  0
  193.2640  177.1800  144.9320 O   0  0  0  0  0  0  0  0  0  0  0  0
  191.2990  174.3140  143.0550 O   0  0  0  0  0  0  0  0  0  0  0  0
  188.8170  175.6390  143.3290 C   0  0  2  0  0  3  0  0  0  0  0  0
  192.5770  174.6780  143.4810 C   0  0  0  0  0  0  0  0  0  0  0  0
  190.4930  177.5390  144.4890 C   0  0  2  0  0  3  0  0  0  0  0  0
  193.4340  175.0540  142.6330 O   0  0  0  0  0  0  0  0  0  0  0  0
  192.1490  173.7780  145.6350 O   0  0  0  0  0  1  0  0  0  0  0  0
  188.5620  173.5940  141.9420 C   0  0  0  0  0  2  0  0  0  0  0  0
  189.9620  173.6070  138.2390 C   0  0  0  0  0  2  0  0  0  0  0  0
  190.6040  172.6660  139.1580 N   0  0  0  0  0  0  0  0  0  0  0  0
  191.2260  172.1480  141.3530 O   0  0  0  0  0  0  0  0  0  0  0  0
  191.3450  171.5150  138.6310 C   0  0  0  0  0  2  0  0  0  0  0  0
  191.8720  170.3010  136.6410 O   0  0  0  0  0  1  0  0  0  0  0  0
  189.8900  171.6420  136.5880 C   0  0  0  0  0  2  0  0  0  0  0  0
  191.3220  171.4960  137.1040 C   0  0  1  0  0  3  0  0  0  0  0  0
  190.5670  172.8960  140.5770 C   0  0  0  0  0  0  0  0  0  0  0  0
  189.1480  172.8500  137.1870 C   0  0  0  0  0  2  0  0  0  0  0  0
  189.8080  175.5180  147.2270 C   0  0  0  0  0  1  0  0  0  0  0  0
  190.4750  176.6820  146.8100 O   0  0  0  0  0  0  0  0  0  0  0  0
  194.8830  173.3600  144.6920 O   0  0  0  0  0  0  0  0  0  0  0  0
  195.3870  172.3180  145.4720 C   0  0  0  0  0  0  0  0  0  0  0  0
  196.6370  172.3680  145.9000 C   0  0  0  0  0  2  0  0  0  0  0  0
  194.5760  171.1950  145.8040 N   0  0  0  0  0  1  0  0  0  0  0  0
  1  4  1  0  0  0  0
  1 11  1  0  0  0  0
  1 21  1  1  0  0  0
  2 11  1  0  0  0  0
  2 33  1  1  0  0  0
  3  8  1  1  0  0  0
  3 17  1  0  0  0  0
  4 34  1  6  0  0  0
  6  3  1  0  0  0  0
  6 16  1  1  0  0  0
  9 30  1  1  0  0  0
  9 22  1  0  0  0  0
  9  6  1  0  0  0  0
 11 15  1  6  0  0  0
 13  4  1  0  0  0  0
 13  7  1  0  0  0  0
 14 10  2  0  0  0  0
 14  5  1  0  0  0  0
 15  7  1  0  0  0  0
 16 18  1  0  0  0  0
 17 12  1  6  0  0  0
 17 14  1  0  0  0  0
 18  1  1  0  0  0  0
 19  8  1  6  0  0  0
 19  5  1  0  0  0  0
 19  2  1  0  0  0  0
 20 18  2  0  0  0  0
 22 12  1  0  0  0  0
 23 24  1  0  0  0  0
 24 30  1  0  0  0  0
 26 24  1  0  0  0  0
 28 29  1  0  0  0  0
 28 31  1  0  0  0  0
 29 27  1  1  0  0  0
 29 26  1  0  0  0  0
 30 25  2  0  0  0  0
 31 23  1  0  0  0  0
 33 32  1  0  0  0  0
 34 35  1  0  0  0  0
 35 37  1  0  0  0  0
 35 36  2  0  0  0  0
M  END
>  <MODEL>
3

>  <REMARK>
 VINA RESULT:      -7.2      2.509      6.723
  Name = 
  4 active torsions:
  status: ('A' for Active; 'I' for Inactive)
    1  A    between atoms: C_3  and  O_32
    2  A    between atoms: C_5  and  O_17
    3  A    between atoms: C_11  and  O_17
    4  A    between atoms: C_14  and  C_31
                            x       y       z     vdW  Elec       q    Type
                         _______ _______ _______ _____ _____    ______ ____

>  <TORSDO>
F 4

$$$$
=
 OpenBabel11052419583D

 37 41  0  0  1  0  0  0  0  0999 V2000
  188.8450  176.9070  144.1550 C   0  0  1  0  0  0  0  0  0  0  0  0
  190.8760  175.9720  145.5070 C   0  0  2  0  0  3  0  0  0  0  0  0
  191.0140  173.4560  143.4240 N   0  0  2  0  0  0  0  0  0  0  0  0
  187.4970  177.6070  144.4290 C   0  0  2  0  0  3  0  0  0  0  0  0
  192.5030  174.1330  145.7530 N   0  0  0  0  0  2  0  0  0  0  0  0
  190.0800  173.8790  142.3710 C   0  0  2  0  0  3  0  0  0  0  0  0
  187.4470  176.4190  146.6180 C   0  0  0  0  0  2  0  0  0  0  0  0
  190.3400  173.5890  144.7380 C   0  0  0  0  0  2  0  0  0  0  0  0
  190.6680  173.5450  140.9910 C   0  0  2  0  0  3  0  0  0  0  0  0
  194.3830  173.8270  144.4080 O   0  0  0  0  0  0  0  0  0  0  0  0
  189.4190  176.4950  145.5340 C   0  0  2  0  0  3  0  0  0  0  0  0
  192.9700  173.8050  141.9710 C   0  0  0  0  0  2  0  0  0  0  0  0
  186.6160  176.8010  145.3950 C   0  0  0  0  0  2  0  0  0  0  0  0
  193.1410  174.0270  144.4850 C   0  0  0  0  0  0  0  0  0  0  0  0
  188.5450  175.6330  146.2250 O   0  0  0  0  0  0  0  0  0  0  0  0
  189.7860  175.2730  142.4930 O   0  0  0  0  0  0  0  0  0  0  0  0
  192.2820  174.2040  143.2750 C   0  0  2  0  0  3  0  0  0  0  0  0
  188.6980  175.7000  143.2570 C   0  0  0  0  0  0  0  0  0  0  0  0
  191.0790  174.4580  145.7750 C   0  0  2  0  0  3  0  0  0  0  0  0
  187.6460  175.0030  143.2880 O   0  0  0  0  0  0  0  0  0  0  0  0
  189.7040  177.8300  143.5530 O   0  0  0  0  0  1  0  0  0  0  0  0
  192.0570  174.1660  140.8010 C   0  0  0  0  0  2  0  0  0  0  0  0
  191.4010  173.1410  138.1720 C   0  0  0  0  0  2  0  0  0  0  0  0
  190.1120  173.7470  138.5080 N   0  0  0  0  0  0  0  0  0  0  0  0
  188.5590  174.3180  140.1630 O   0  0  0  0  0  0  0  0  0  0  0  0
  189.1840  174.1370  137.4420 C   0  0  0  0  0  2  0  0  0  0  0  0
  188.9430  174.3630  135.0750 O   0  0  0  0  0  1  0  0  0  0  0  0
  191.1780  174.3770  135.9330 C   0  0  0  0  0  2  0  0  0  0  0  0
  189.7600  173.8170  136.0640 C   0  0  1  0  0  3  0  0  0  0  0  0
  189.7200  173.9070  139.8830 C   0  0  0  0  0  0  0  0  0  0  0  0
  192.1060  173.9580  137.0870 C   0  0  0  0  0  2  0  0  0  0  0  0
  191.2980  176.7910  147.6030 C   0  0  0  0  0  1  0  0  0  0  0  0
  191.7410  176.7900  146.2700 O   0  0  0  0  0  0  0  0  0  0  0  0
  186.8010  177.9170  143.2240 O   0  0  0  0  0  0  0  0  0  0  0  0
  185.6120  178.6470  143.2270 C   0  0  0  0  0  0  0  0  0  0  0  0
  185.5470  179.7910  143.8880 C   0  0  0  0  0  2  0  0  0  0  0  0
  184.4600  178.1720  142.5350 N   0  0  0  0  0  1  0  0  0  0  0  0
  1 21  1  6  0  0  0
  1  4  1  0  0  0  0
  1 11  1  0  0  0  0
  2 11  1  0  0  0  0
  2 19  1  0  0  0  0
  2 33  1  1  0  0  0
  3  8  1  1  0  0  0
  4 34  1  6  0  0  0
  4 13  1  0  0  0  0
  5 19  1  0  0  0  0
  6 16  1  6  0  0  0
  6  3  1  0  0  0  0
  9 30  1  6  0  0  0
  9  6  1  0  0  0  0
 10 14  2  0  0  0  0
 11 15  1  6  0  0  0
 13  7  1  0  0  0  0
 14  5  1  0  0  0  0
 15  7  1  0  0  0  0
 16 18  1  0  0  0  0
 17 12  1  6  0  0  0
 17  3  1  0  0  0  0
 17 14  1  0  0  0  0
 18 20  2  0  0  0  0
 18  1  1  0  0  0  0
 19  8  1  6  0  0  0
 22  9  1  0  0  0  0
 22 12  1  0  0  0  0
 23 24  1  0  0  0  0
 24 30  1  0  0  0  0
 26 24  1  0  0  0  0
 28 29  1  0  0  0  0
 28 31  1  0  0  0  0
 29 27  1  6  0  0  0
 29 26  1  0  0  0  0
 30 25  2  0  0  0  0
 31 23  1  0  0  0  0
 33 32  1  0  0  0  0
 34 35  1  0  0  0  0
 35 36  2  0  0  0  0
 37 35  1  0  0  0  0
M  END
>  <MODEL>
4

>  <REMARK>
 VINA RESULT:      -6.6      2.438      7.796
  Name = 
  4 active torsions:
  status: ('A' for Active; 'I' for Inactive)
    1  A    between atoms: C_3  and  O_32
    2  A    between atoms: C_5  and  O_17
    3  A    between atoms: C_11  and  O_17
    4  A    between atoms: C_14  and  C_31
                            x       y       z     vdW  Elec       q    Type
                         _______ _______ _______ _____ _____    ______ ____

>  <TORSDO>
F 4

$$$$
=
 OpenBabel11052419583D

 37 41  0  0  1  0  0  0  0  0999 V2000
  191.4710  176.0130  144.9340 C   0  0  1  0  0  0  0  0  0  0  0  0
  193.9000  175.9140  145.8900 C   0  0  2  0  0  3  0  0  0  0  0  0
  194.5040  173.3890  143.9020 N   0  0  2  0  0  0  0  0  0  0  0  0
  190.0370  176.2660  145.4450 C   0  0  2  0  0  3  0  0  0  0  0  0
  196.0650  174.7280  145.8690 N   0  0  0  0  0  2  0  0  0  0  0  0
  193.3130  173.3870  143.0400 C   0  0  2  0  0  3  0  0  0  0  0  0
  190.7700  175.3400  147.6380 C   0  0  0  0  0  2  0  0  0  0  0  0
  194.0640  173.4230  145.3180 C   0  0  0  0  0  2  0  0  0  0  0  0
  193.7270  173.1300  141.5830 C   0  0  2  0  0  3  0  0  0  0  0  0
  197.6720  174.9150  144.1910 O   0  0  0  0  0  0  0  0  0  0  0  0
  192.3820  175.9410  146.1850 C   0  0  2  0  0  3  0  0  0  0  0  0
  195.9450  174.2080  142.0810 C   0  0  0  0  0  2  0  0  0  0  0  0
  189.6590  175.3160  146.5910 C   0  0  0  0  0  2  0  0  0  0  0  0
  196.4690  174.7120  144.5050 C   0  0  0  0  0  0  0  0  0  0  0  0
  191.9800  174.9140  147.0630 O   0  0  0  0  0  0  0  0  0  0  0  0
  192.5960  174.6180  143.1730 O   0  0  0  0  0  0  0  0  0  0  0  0
  195.4020  174.4870  143.4820 C   0  0  2  0  0  3  0  0  0  0  0  0
  191.5800  174.7440  144.1220 C   0  0  0  0  0  0  0  0  0  0  0  0
  194.6410  174.5790  146.1600 C   0  0  2  0  0  3  0  0  0  0  0  0
  190.8430  173.7520  144.3820 O   0  0  0  0  0  0  0  0  0  0  0  0
  191.8530  177.1010  144.1450 O   0  0  0  0  0  1  0  0  0  0  0  0
  194.7730  174.1430  141.1030 C   0  0  0  0  0  2  0  0  0  0  0  0
  192.5890  170.5450  140.7660 C   0  0  0  0  0  2  0  0  0  0  0  0
  192.0190  171.7870  140.2440 N   0  0  0  0  0  0  0  0  0  0  0  0
  191.9600  174.1260  140.3120 O   0  0  0  0  0  0  0  0  0  0  0  0
  190.8740  171.7420  139.3290 C   0  0  0  0  0  2  0  0  0  0  0  0
  189.4750  170.2840  138.0520 O   0  0  0  0  0  1  0  0  0  0  0  0
  191.6370  169.4480  138.6490 C   0  0  0  0  0  2  0  0  0  0  0  0
  190.4380  170.3030  139.0610 C   0  0  1  0  0  3  0  0  0  0  0  0
  192.5350  173.0600  140.6720 C   0  0  0  0  0  0  0  0  0  0  0  0
  192.8200  169.5470  139.6290 C   0  0  0  0  0  2  0  0  0  0  0  0
  194.9340  177.8950  145.3930 C   0  0  0  0  0  1  0  0  0  0  0  0
  194.5620  177.0360  146.4400 O   0  0  0  0  0  0  0  0  0  0  0  0
  189.0780  176.2200  144.3910 O   0  0  0  0  0  0  0  0  0  0  0  0
  188.3870  177.3580  143.9720 C   0  0  0  0  0  0  0  0  0  0  0  0
  187.4960  177.9150  144.7750 C   0  0  0  0  0  2  0  0  0  0  0  0
  188.6210  177.9230  142.6850 N   0  0  0  0  0  1  0  0  0  0  0  0
  1 21  1  6  0  0  0
  1  4  1  0  0  0  0
  1 11  1  0  0  0  0
  2 19  1  0  0  0  0
  2 11  1  0  0  0  0
  2 33  1  1  0  0  0
  3  8  1  1  0  0  0
  4 34  1  6  0  0  0
  4 13  1  0  0  0  0
  5 19  1  0  0  0  0
  6 16  1  6  0  0  0
  6  3  1  0  0  0  0
  9 30  1  6  0  0  0
  9  6  1  0  0  0  0
 10 14  2  0  0  0  0
 11 15  1  6  0  0  0
 13  7  1  0  0  0  0
 14  5  1  0  0  0  0
 15  7  1  0  0  0  0
 16 18  1  0  0  0  0
 17 12  1  6  0  0  0
 17  3  1  0  0  0  0
 17 14  1  0  0  0  0
 18 20  2  0  0  0  0
 18  1  1  0  0  0  0
 19  8  1  6  0  0  0
 22  9  1  0  0  0  0
 22 12  1  0  0  0  0
 24 30  1  0  0  0  0
 24 23  1  0  0  0  0
 25 30  2  0  0  0  0
 26 24  1  0  0  0  0
 28 29  1  0  0  0  0
 28 31  1  0  0  0  0
 29 27  1  6  0  0  0
 29 26  1  0  0  0  0
 31 23  1  0  0  0  0
 32 33  1  0  0  0  0
 35 34  1  0  0  0  0
 35 36  2  0  0  0  0
 37 35  1  0  0  0  0
M  END
>  <MODEL>
5

>  <REMARK>
 VINA RESULT:      -6.6      2.527      7.874
  Name = 
  4 active torsions:
  status: ('A' for Active; 'I' for Inactive)
    1  A    between atoms: C_3  and  O_32
    2  A    between atoms: C_5  and  O_17
    3  A    between atoms: C_11  and  O_17
    4  A    between atoms: C_14  and  C_31
                            x       y       z     vdW  Elec       q    Type
                         _______ _______ _______ _____ _____    ______ ____

>  <TORSDO>
F 4

$$$$
=
 OpenBabel11052419583D

 37 41  0  0  1  0  0  0  0  0999 V2000
  188.8870  176.8850  142.7990 C   0  0  1  0  0  0  0  0  0  0  0  0
  189.9690  176.4770  145.1430 C   0  0  2  0  0  3  0  0  0  0  0  0
  191.0800  173.6020  144.0500 N   0  0  2  0  0  0  0  0  0  0  0  0
  187.5910  177.4840  142.2140 C   0  0  2  0  0  3  0  0  0  0  0  0
  191.2340  174.9120  146.5720 N   0  0  0  0  0  2  0  0  0  0  0  0
  190.7950  173.6920  142.6100 C   0  0  2  0  0  3  0  0  0  0  0  0
  186.4480  176.7920  144.3150 C   0  0  0  0  0  2  0  0  0  0  0  0
  189.8460  173.9420  144.7990 C   0  0  0  0  0  2  0  0  0  0  0  0
  191.9830  173.1330  141.8110 C   0  0  2  0  0  3  0  0  0  0  0  0
  193.5280  174.5230  146.4190 O   0  0  0  0  0  0  0  0  0  0  0  0
  188.6990  176.8390  144.3370 C   0  0  2  0  0  3  0  0  0  0  0  0
  193.5040  173.8340  143.6880 C   0  0  0  0  0  2  0  0  0  0  0  0
  186.3360  176.8160  142.7920 C   0  0  0  0  0  2  0  0  0  0  0  0
  192.4130  174.6050  145.8370 C   0  0  0  0  0  0  0  0  0  0  0  0
  187.5830  176.0580  144.7020 O   0  0  0  0  0  0  0  0  0  0  0  0
  190.5000  175.0410  142.2410 O   0  0  0  0  0  0  0  0  0  0  0  0
  192.2680  174.4290  144.3600 C   0  0  2  0  0  3  0  0  0  0  0  0
  189.1840  175.5060  142.2580 C   0  0  0  0  0  0  0  0  0  0  0  0
  189.9900  175.0840  145.8250 C   0  0  2  0  0  3  0  0  0  0  0  0
  188.2430  174.7270  141.9400 O   0  0  0  0  0  0  0  0  0  0  0  0
  189.9450  177.7430  142.4890 O   0  0  0  0  0  1  0  0  0  0  0  0
  193.2940  173.8400  142.1750 C   0  0  0  0  0  2  0  0  0  0  0  0
  190.4670  170.9700  140.5200 C   0  0  0  0  0  2  0  0  0  0  0  0
  191.0100  172.0600  139.7100 N   0  0  0  0  0  0  0  0  0  0  0  0
  192.0700  174.1450  139.6430 O   0  0  0  0  0  0  0  0  0  0  0  0
  190.7840  172.0800  138.2610 C   0  0  0  0  0  2  0  0  0  0  0  0
  189.9190  170.8240  136.4210 O   0  0  0  0  0  1  0  0  0  0  0  0
  190.5600  169.5800  138.3630 C   0  0  0  0  0  2  0  0  0  0  0  0
  189.9590  170.8760  137.8140 C   0  0  1  0  0  3  0  0  0  0  0  0
  191.7120  173.1500  140.3330 C   0  0  0  0  0  0  0  0  0  0  0  0
  190.7980  169.6180  139.8840 C   0  0  0  0  0  2  0  0  0  0  0  0
  189.3510  177.7060  146.9720 C   0  0  0  0  0  1  0  0  0  0  0  0
  190.3580  177.5250  146.0090 O   0  0  0  0  0  0  0  0  0  0  0  0
  187.5860  177.4560  140.7880 O   0  0  0  0  0  0  0  0  0  0  0  0
  186.4020  177.5250  140.0530 C   0  0  0  0  0  0  0  0  0  0  0  0
  186.2690  176.7960  138.9580 C   0  0  0  0  0  2  0  0  0  0  0  0
  185.3370  178.3800  140.4600 N   0  0  0  0  0  1  0  0  0  0  0  0
  1 21  1  6  0  0  0
  1 11  1  0  0  0  0
  2 19  1  0  0  0  0
  2 33  1  1  0  0  0
  3 17  1  0  0  0  0
  3  8  1  1  0  0  0
  4 34  1  6  0  0  0
  4 13  1  0  0  0  0
  4  1  1  0  0  0  0
  6 16  1  6  0  0  0
  6  3  1  0  0  0  0
  7 15  1  0  0  0  0
  9 30  1  6  0  0  0
  9 22  1  0  0  0  0
  9  6  1  0  0  0  0
 11 15  1  6  0  0  0
 11  2  1  0  0  0  0
 13  7  1  0  0  0  0
 14 10  2  0  0  0  0
 14  5  1  0  0  0  0
 16 18  1  0  0  0  0
 17 12  1  1  0  0  0
 17 14  1  0  0  0  0
 18  1  1  0  0  0  0
 19  8  1  6  0  0  0
 19  5  1  0  0  0  0
 20 18  2  0  0  0  0
 22 12  1  0  0  0  0
 24 30  1  0  0  0  0
 24 23  1  0  0  0  0
 25 30  2  0  0  0  0
 26 24  1  0  0  0  0
 28 31  1  0  0  0  0
 29 27  1  6  0  0  0
 29 26  1  0  0  0  0
 29 28  1  0  0  0  0
 31 23  1  0  0  0  0
 33 32  1  0  0  0  0
 35 37  1  0  0  0  0
 35 34  1  0  0  0  0
 36 35  2  0  0  0  0
M  END
>  <MODEL>
6

>  <REMARK>
 VINA RESULT:      -6.6      2.441      8.085
  Name = 
  4 active torsions:
  status: ('A' for Active; 'I' for Inactive)
    1  A    between atoms: C_3  and  O_32
    2  A    between atoms: C_5  and  O_17
    3  A    between atoms: C_11  and  O_17
    4  A    between atoms: C_14  and  C_31
                            x       y       z     vdW  Elec       q    Type
                         _______ _______ _______ _____ _____    ______ ____

>  <TORSDO>
F 4

$$$$
=
 OpenBabel11052419583D

 37 41  0  0  1  0  0  0  0  0999 V2000
  193.5190  174.8700  142.4050 C   0  0  1  0  0  0  0  0  0  0  0  0
  193.9940  174.8660  144.9750 C   0  0  2  0  0  3  0  0  0  0  0  0
  191.3740  176.7780  145.3900 N   0  0  2  0  0  0  0  0  0  0  0  0
  194.3140  174.9280  141.0830 C   0  0  2  0  0  3  0  0  0  0  0  0
  193.3160  175.7250  147.1860 N   0  0  0  0  0  2  0  0  0  0  0  0
  190.7540  176.7400  144.0580 C   0  0  2  0  0  3  0  0  0  0  0  0
  196.0540  176.2210  142.3090 C   0  0  0  0  0  2  0  0  0  0  0  0
  192.8090  177.1210  145.2360 C   0  0  0  0  0  2  0  0  0  0  0  0
  189.2290  176.6060  144.1990 C   0  0  2  0  0  3  0  0  0  0  0  0
  191.4860  174.9580  148.4120 O   0  0  0  0  0  0  0  0  0  0  0  0
  194.5410  175.1030  143.5470 C   0  0  2  0  0  3  0  0  0  0  0  0
  189.5930  175.3900  146.3710 C   0  0  0  0  0  2  0  0  0  0  0  0
  195.2380  176.1520  141.0200 C   0  0  0  0  0  2  0  0  0  0  0  0
  191.9400  175.3800  147.3150 C   0  0  0  0  0  0  0  0  0  0  0  0
  195.1950  176.3450  143.4150 O   0  0  0  0  0  0  0  0  0  0  0  0
  191.3050  175.6750  143.2790 O   0  0  0  0  0  0  0  0  0  0  0  0
  191.0900  175.5060  146.0920 C   0  0  2  0  0  3  0  0  0  0  0  0
  192.4140  175.8990  142.4620 C   0  0  0  0  0  0  0  0  0  0  0  0
  193.7980  176.1200  145.8650 C   0  0  2  0  0  3  0  0  0  0  0  0
  192.5440  177.0110  141.8780 O   0  0  0  0  0  0  0  0  0  0  0  0
  192.9700  173.5920  142.5310 O   0  0  0  0  0  1  0  0  0  0  0  0
  188.8420  175.3840  145.0400 C   0  0  0  0  0  2  0  0  0  0  0  0
  186.8140  178.2210  143.7480 C   0  0  0  0  0  2  0  0  0  0  0  0
  187.3380  177.3810  142.6710 N   0  0  0  0  0  0  0  0  0  0  0  0
  189.0580  175.9980  141.8900 O   0  0  0  0  0  0  0  0  0  0  0  0
  186.6690  177.3580  141.3660 C   0  0  0  0  0  2  0  0  0  0  0  0
  184.7380  178.1000  140.1690 O   0  0  0  0  0  1  0  0  0  0  0  0
  184.5520  178.0010  142.5540 C   0  0  0  0  0  2  0  0  0  0  0  0
  185.4550  178.2830  141.3520 C   0  0  1  0  0  3  0  0  0  0  0  0
  188.5460  176.6230  142.8620 C   0  0  0  0  0  0  0  0  0  0  0  0
  185.3050  178.0140  143.8960 C   0  0  0  0  0  2  0  0  0  0  0  0
  193.9260  172.6430  145.5170 C   0  0  0  0  0  1  0  0  0  0  0  0
  194.6820  173.8210  145.6330 O   0  0  0  0  0  0  0  0  0  0  0  0
  193.4600  174.8590  139.9440 O   0  0  0  0  0  0  0  0  0  0  0  0
  193.6600  173.9240  138.9270 C   0  0  0  0  0  0  0  0  0  0  0  0
  194.1360  174.3200  137.7590 C   0  0  0  0  0  2  0  0  0  0  0  0
  193.3470  172.5480  139.1280 N   0  0  0  0  0  1  0  0  0  0  0  0
  1 18  1  0  0  0  0
  1 21  1  1  0  0  0
  1 11  1  0  0  0  0
  2 33  1  1  0  0  0
  2 19  1  0  0  0  0
  3  8  1  6  0  0  0
  3 17  1  0  0  0  0
  4 34  1  6  0  0  0
  4  1  1  0  0  0  0
  5 14  1  0  0  0  0
  6 16  1  6  0  0  0
  6  9  1  0  0  0  0
  6  3  1  0  0  0  0
  7 15  1  0  0  0  0
  9 30  1  6  0  0  0
  9 22  1  0  0  0  0
 11 15  1  1  0  0  0
 11  2  1  0  0  0  0
 13  4  1  0  0  0  0
 13  7  1  0  0  0  0
 14 10  2  0  0  0  0
 17 12  1  1  0  0  0
 17 14  1  0  0  0  0
 18 16  1  0  0  0  0
 19  8  1  6  0  0  0
 19  5  1  0  0  0  0
 20 18  2  0  0  0  0
 22 12  1  0  0  0  0
 23 31  1  0  0  0  0
 24 30  1  0  0  0  0
 24 23  1  0  0  0  0
 25 30  2  0  0  0  0
 26 24  1  0  0  0  0
 28 31  1  0  0  0  0
 29 27  1  6  0  0  0
 29 26  1  0  0  0  0
 29 28  1  0  0  0  0
 32 33  1  0  0  0  0
 35 37  1  0  0  0  0
 35 34  1  0  0  0  0
 36 35  2  0  0  0  0
M  END
>  <MODEL>
7

>  <REMARK>
 VINA RESULT:      -6.5      2.814      5.536
  Name = 
  4 active torsions:
  status: ('A' for Active; 'I' for Inactive)
    1  A    between atoms: C_3  and  O_32
    2  A    between atoms: C_5  and  O_17
    3  A    between atoms: C_11  and  O_17
    4  A    between atoms: C_14  and  C_31
                            x       y       z     vdW  Elec       q    Type
                         _______ _______ _______ _____ _____    ______ ____

>  <TORSDO>
F 4

$$$$
=
 OpenBabel11052419583D

 37 41  0  0  1  0  0  0  0  0999 V2000
  192.5590  174.7610  144.8410 C   0  0  1  0  0  0  0  0  0  0  0  0
  190.6520  176.3420  145.6730 C   0  0  2  0  0  3  0  0  0  0  0  0
  189.4830  176.4230  142.6200 N   0  0  2  0  0  0  0  0  0  0  0  0
  194.0670  174.5420  145.0830 C   0  0  2  0  0  3  0  0  0  0  0  0
  188.6870  177.6940  145.0400 N   0  0  0  0  0  2  0  0  0  0  0  0
  190.2770  175.3760  141.9620 C   0  0  2  0  0  3  0  0  0  0  0  0
  194.2280  176.9720  145.6040 C   0  0  0  0  0  2  0  0  0  0  0  0
  190.4070  177.3420  143.3290 C   0  0  0  0  0  2  0  0  0  0  0  0
  189.3720  174.5410  141.0420 C   0  0  2  0  0  3  0  0  0  0  0  0
  186.5710  176.8340  144.5710 O   0  0  0  0  0  0  0  0  0  0  0  0
  192.1710  176.0550  145.5990 C   0  0  2  0  0  3  0  0  0  0  0  0
  187.4420  175.0490  142.5730 C   0  0  0  0  0  2  0  0  0  0  0  0
  194.8800  175.8210  144.8410 C   0  0  0  0  0  2  0  0  0  0  0  0
  187.8140  176.7920  144.3680 C   0  0  0  0  0  0  0  0  0  0  0  0
  192.9120  177.1660  145.1460 O   0  0  0  0  0  0  0  0  0  0  0  0
  190.9350  174.5590  142.9340 O   0  0  0  0  0  0  0  0  0  0  0  0
  188.4440  175.7860  143.4590 C   0  0  2  0  0  3  0  0  0  0  0  0
  192.2200  174.8820  143.3740 C   0  0  0  0  0  0  0  0  0  0  0  0
  190.1240  177.5330  144.8320 C   0  0  2  0  0  3  0  0  0  0  0  0
  193.0460  175.3900  142.5650 O   0  0  0  0  0  0  0  0  0  0  0  0
  191.8650  173.6790  145.3890 O   0  0  0  0  0  1  0  0  0  0  0  0
  188.1770  173.9540  141.8020 C   0  0  0  0  0  2  0  0  0  0  0  0
  189.7160  171.8380  142.1460 C   0  0  0  0  0  2  0  0  0  0  0  0
  190.3520  172.1900  140.8770 N   0  0  0  0  0  0  0  0  0  0  0  0
  190.6030  173.7470  139.1480 O   0  0  0  0  0  0  0  0  0  0  0  0
  191.1440  171.1930  140.1510 C   0  0  0  0  0  2  0  0  0  0  0  0
  192.0750  168.9950  140.2800 O   0  0  0  0  0  1  0  0  0  0  0  0
  191.5670  170.0700  142.3580 C   0  0  0  0  0  2  0  0  0  0  0  0
  191.1700  169.8590  140.8950 C   0  0  1  0  0  3  0  0  0  0  0  0
  190.1520  173.4930  140.3000 C   0  0  0  0  0  0  0  0  0  0  0  0
  190.7210  171.1420  143.0680 C   0  0  0  0  0  2  0  0  0  0  0  0
  189.5200  175.1460  147.2630 C   0  0  0  0  0  1  0  0  0  0  0  0
  190.1850  176.3560  147.0080 O   0  0  0  0  0  0  0  0  0  0  0  0
  194.5770  173.4480  144.3240 O   0  0  0  0  0  0  0  0  0  0  0  0
  195.0260  172.2750  144.9320 C   0  0  0  0  0  0  0  0  0  0  0  0
  196.2560  172.2190  145.4170 C   0  0  0  0  0  2  0  0  0  0  0  0
  194.1830  171.1310  145.0270 N   0  0  0  0  0  1  0  0  0  0  0  0
  1  4  1  0  0  0  0
  1 21  1  1  0  0  0
  1 11  1  0  0  0  0
  2 33  1  1  0  0  0
  3  8  1  1  0  0  0
  3 17  1  0  0  0  0
  4 34  1  6  0  0  0
  6  3  1  0  0  0  0
  6 16  1  1  0  0  0
  9 30  1  1  0  0  0
  9 22  1  0  0  0  0
  9  6  1  0  0  0  0
 11 15  1  6  0  0  0
 11  2  1  0  0  0  0
 13  4  1  0  0  0  0
 13  7  1  0  0  0  0
 14 10  2  0  0  0  0
 14  5  1  0  0  0  0
 15  7  1  0  0  0  0
 16 18  1  0  0  0  0
 17 12  1  6  0  0  0
 17 14  1  0  0  0  0
 18  1  1  0  0  0  0
 19  8  1  6  0  0  0
 19  5  1  0  0  0  0
 19  2  1  0  0  0  0
 20 18  2  0  0  0  0
 22 12  1  0  0  0  0
 23 31  1  0  0  0  0
 24 23  1  0  0  0  0
 25 30  2  0  0  0  0
 26 24  1  0  0  0  0
 26 29  1  0  0  0  0
 28 31  1  0  0  0  0
 29 27  1  6  0  0  0
 29 28  1  0  0  0  0
 30 24  1  0  0  0  0
 33 32  1  0  0  0  0
 34 35  1  0  0  0  0
 35 37  1  0  0  0  0
 35 36  2  0  0  0  0
M  END
>  <MODEL>
8

>  <REMARK>
 VINA RESULT:      -6.4      2.318      6.256
  Name = 
  4 active torsions:
  status: ('A' for Active; 'I' for Inactive)
    1  A    between atoms: C_3  and  O_32
    2  A    between atoms: C_5  and  O_17
    3  A    between atoms: C_11  and  O_17
    4  A    between atoms: C_14  and  C_31
                            x       y       z     vdW  Elec       q    Type
                         _______ _______ _______ _____ _____    ______ ____

>  <TORSDO>
F 4

$$$$
=
 OpenBabel11052419583D

 37 41  0  0  1  0  0  0  0  0999 V2000
  190.8640  176.5350  143.3920 C   0  0  1  0  0  0  0  0  0  0  0  0
  192.5180  175.5600  145.1640 C   0  0  2  0  0  3  0  0  0  0  0  0
  192.9590  172.9670  143.2220 N   0  0  2  0  0  0  0  0  0  0  0  0
  189.5260  177.3040  143.3600 C   0  0  2  0  0  3  0  0  0  0  0  0
  193.9630  173.6610  145.7930 N   0  0  0  0  0  2  0  0  0  0  0  0
  192.2870  173.3930  141.9860 C   0  0  2  0  0  3  0  0  0  0  0  0
  188.9620  176.2000  145.5190 C   0  0  0  0  0  2  0  0  0  0  0  0
  192.0330  173.1780  144.3620 C   0  0  0  0  0  2  0  0  0  0  0  0
  193.1320  172.9830  140.7690 C   0  0  2  0  0  3  0  0  0  0  0  0
  196.0640  173.2230  144.8800 O   0  0  0  0  0  0  0  0  0  0  0  0
  191.1170  176.1480  144.8710 C   0  0  2  0  0  3  0  0  0  0  0  0
  195.1900  173.1760  142.2020 C   0  0  0  0  0  2  0  0  0  0  0  0
  188.4240  176.5740  144.1400 C   0  0  0  0  0  2  0  0  0  0  0  0
  194.8450  173.4810  144.6900 C   0  0  0  0  0  0  0  0  0  0  0  0
  190.0750  175.3510  145.3860 O   0  0  0  0  0  0  0  0  0  0  0  0
  192.0450  174.8030  142.0070 O   0  0  0  0  0  0  0  0  0  0  0  0
  194.2670  173.6520  143.3230 C   0  0  2  0  0  3  0  0  0  0  0  0
  190.8460  175.3050  142.5160 C   0  0  0  0  0  0  0  0  0  0  0  0
  192.5840  174.0500  145.5070 C   0  0  2  0  0  3  0  0  0  0  0  0
  189.7760  174.6570  142.3430 O   0  0  0  0  0  0  0  0  0  0  0  0
  191.8750  177.3970  142.9600 O   0  0  0  0  0  1  0  0  0  0  0  0
  194.5590  173.5340  140.8580 C   0  0  0  0  0  2  0  0  0  0  0  0
  190.9220  171.3620  139.7040 C   0  0  0  0  0  2  0  0  0  0  0  0
  191.4070  172.5160  138.9470 N   0  0  0  0  0  0  0  0  0  0  0  0
  192.7820  174.4080  138.8770 O   0  0  0  0  0  0  0  0  0  0  0  0
  190.7820  172.8710  137.6690 C   0  0  0  0  0  2  0  0  0  0  0  0
  189.1980  172.1570  136.0270 O   0  0  0  0  0  1  0  0  0  0  0  0
  190.1210  170.4580  137.4380 C   0  0  0  0  0  2  0  0  0  0  0  0
  189.6470  171.9080  137.3230 C   0  0  1  0  0  3  0  0  0  0  0  0
  192.4540  173.3470  139.4780 C   0  0  0  0  0  0  0  0  0  0  0  0
  190.7900  170.1430  138.7880 C   0  0  0  0  0  2  0  0  0  0  0  0
  194.2380  177.0600  145.3550 C   0  0  0  0  0  1  0  0  0  0  0  0
  193.2470  176.3670  146.0690 O   0  0  0  0  0  0  0  0  0  0  0  0
  189.1130  177.6010  142.0280 O   0  0  0  0  0  0  0  0  0  0  0  0
  187.7670  177.6090  141.6570 C   0  0  0  0  0  0  0  0  0  0  0  0
  186.9620  178.5420  142.1370 C   0  0  0  0  0  2  0  0  0  0  0  0
  187.2460  176.6180  140.7770 N   0  0  0  0  0  1  0  0  0  0  0  0
  1 21  1  6  0  0  0
  1 11  1  0  0  0  0
  2 19  1  0  0  0  0
  2 33  1  1  0  0  0
  3 17  1  0  0  0  0
  3  8  1  1  0  0  0
  4 34  1  6  0  0  0
  4  1  1  0  0  0  0
  4 13  1  0  0  0  0
  6 16  1  1  0  0  0
  6  3  1  0  0  0  0
  9 30  1  6  0  0  0
  9 22  1  0  0  0  0
  9  6  1  0  0  0  0
 11  2  1  0  0  0  0
 11 15  1  6  0  0  0
 13  7  1  0  0  0  0
 14 10  2  0  0  0  0
 14  5  1  0  0  0  0
 15  7  1  0  0  0  0
 16 18  1  0  0  0  0
 17 12  1  6  0  0  0
 17 14  1  0  0  0  0
 18  1  1  0  0  0  0
 19  8  1  6  0  0  0
 19  5  1  0  0  0  0
 20 18  2  0  0  0  0
 22 12  1  0  0  0  0
 24 30  1  0  0  0  0
 24 23  1  0  0  0  0
 25 30  2  0  0  0  0
 26 24  1  0  0  0  0
 28 31  1  0  0  0  0
 29 27  1  6  0  0  0
 29 28  1  0  0  0  0
 29 26  1  0  0  0  0
 31 23  1  0  0  0  0
 32 33  1  0  0  0  0
 35 34  1  0  0  0  0
 35 36  2  0  0  0  0
 37 35  1  0  0  0  0
M  END
>  <MODEL>
9

>  <REMARK>
 VINA RESULT:      -6.3      2.665      7.762
  Name = 
  4 active torsions:
  status: ('A' for Active; 'I' for Inactive)
    1  A    between atoms: C_3  and  O_32
    2  A    between atoms: C_5  and  O_17
    3  A    between atoms: C_11  and  O_17
    4  A    between atoms: C_14  and  C_31
                            x       y       z     vdW  Elec       q    Type
                         _______ _______ _______ _____ _____    ______ ____

>  <TORSDO>
F 4

$$$$
