=
 OpenBabel11052417333D

 25 29  0  0  0  0  0  0  0  0999 V2000
  185.7890  178.0560  143.6640 C   0  0  0  0  0  0  0  0  0  0  0  0
  186.5350  177.9450  144.8370 C   0  0  0  0  0  0  0  0  0  0  0  0
  183.8270  178.8150  144.8510 C   0  0  0  0  0  3  0  0  0  0  0  0
  186.1360  177.8060  142.3950 N   0  0  0  0  0  0  0  0  0  0  0  0
  186.2170  177.4840  139.6850 C   0  0  0  0  0  3  0  0  0  0  0  0
  184.5520  178.7140  146.0540 C   0  0  0  0  0  3  0  0  0  0  0  0
  185.0280  178.0830  141.6710 C   0  0  0  0  0  0  0  0  0  0  0  0
  185.0300  177.9320  140.2860 C   0  0  0  0  0  3  0  0  0  0  0  0
  186.6630  178.1680  147.2620 N   0  0  0  0  0  0  0  0  0  0  0  0
  186.0920  178.4930  148.5590 C   0  0  0  0  0  1  0  0  0  0  0  0
  187.9000  177.5060  144.8320 N   0  0  0  0  0  0  0  0  0  0  0  0
  187.3560  177.2040  140.4630 C   0  0  0  0  0  3  0  0  0  0  0  0
  184.4820  178.4760  143.6700 C   0  0  0  0  0  0  0  0  0  0  0  0
  183.9740  178.5020  142.4160 N   0  0  0  0  0  0  0  0  0  0  0  0
  187.9970  177.7320  147.1910 N   0  0  0  0  0  2  0  0  0  0  0  0
  187.3020  177.3730  141.8530 C   0  0  0  0  0  3  0  0  0  0  0  0
  188.5970  177.4020  145.9280 C   0  0  0  0  0  0  0  0  0  0  0  0
  185.9010  178.2810  146.0520 C   0  0  0  0  0  0  0  0  0  0  0  0
  192.0270  176.5260  144.6030 C   0  0  0  0  0  0  0  0  0  0  0  0
  189.9980  176.9460  145.8740 C   0  0  0  0  0  0  0  0  0  0  0  0
  190.6980  176.9570  144.6590 C   0  0  0  0  0  3  0  0  0  0  0  0
  192.7260  176.5410  143.3660 N   0  0  0  0  0  1  0  0  0  0  0  0
  190.6490  176.4980  147.0350 C   0  0  0  0  0  3  0  0  0  0  0  0
  192.6670  176.0810  145.7630 C   0  0  0  0  0  3  0  0  0  0  0  0
  191.9780  176.0670  146.9790 C   0  0  0  0  0  3  0  0  0  0  0  0
  1 13  2  0  0  0  0
  1  2  1  0  0  0  0
  2 18  2  0  0  0  0
  3  6  2  0  0  0  0
  4  1  1  0  0  0  0
  5  8  2  0  0  0  0
  5 12  1  0  0  0  0
  7  4  1  0  0  0  0
  7 14  2  0  0  0  0
  8  7  1  0  0  0  0
  9 10  1  0  0  0  0
 11  2  1  0  0  0  0
 11 17  2  0  0  0  0
 12 16  2  0  0  0  0
 13  3  1  0  0  0  0
 14 13  1  0  0  0  0
 15  9  1  0  0  0  0
 16  4  1  0  0  0  0
 17 15  1  0  0  0  0
 18  6  1  0  0  0  0
 18  9  1  0  0  0  0
 19 21  2  0  0  0  0
 19 24  1  0  0  0  0
 20 17  1  0  0  0  0
 20 23  2  0  0  0  0
 21 20  1  0  0  0  0
 22 19  1  0  0  0  0
 24 25  2  0  0  0  0
 25 23  1  0  0  0  0
M  END
>  <MODEL>
1

>  <REMARK>
 VINA RESULT:      -8.1      0.000      0.000
  Name = 
  1 active torsions:
  status: ('A' for Active; 'I' for Inactive)
    1  A    between atoms: C_6  and  C_23
                            x       y       z     vdW  Elec       q    Type
                         _______ _______ _______ _____ _____    ______ ____

>  <TORSDO>
F 1

$$$$
=
 OpenBabel11052417333D

 25 29  0  0  0  0  0  0  0  0999 V2000
  186.2790  177.8090  143.8290 C   0  0  0  0  0  0  0  0  0  0  0  0
  185.5930  177.8340  142.6140 C   0  0  0  0  0  0  0  0  0  0  0  0
  188.3910  177.3400  142.7560 C   0  0  0  0  0  3  0  0  0  0  0  0
  185.8280  177.9910  145.0770 N   0  0  0  0  0  0  0  0  0  0  0  0
  185.5470  178.2620  147.7790 C   0  0  0  0  0  3  0  0  0  0  0  0
  187.7300  177.3580  141.5130 C   0  0  0  0  0  3  0  0  0  0  0  0
  186.9190  177.8590  145.8640 C   0  0  0  0  0  0  0  0  0  0  0  0
  186.8170  177.9900  147.2470 C   0  0  0  0  0  3  0  0  0  0  0  0
  185.6370  177.6280  140.1850 N   0  0  0  0  0  0  0  0  0  0  0  0
  186.3210  177.4010  138.9220 C   0  0  0  0  0  1  0  0  0  0  0  0
  184.1830  178.0820  142.5410 N   0  0  0  0  0  0  0  0  0  0  0  0
  184.4270  178.3960  146.9360 C   0  0  0  0  0  3  0  0  0  0  0  0
  187.6290  177.5700  143.8980 C   0  0  0  0  0  0  0  0  0  0  0  0
  188.0620  177.5960  145.1800 N   0  0  0  0  0  0  0  0  0  0  0  0
  184.2550  177.8770  140.1790 N   0  0  0  0  0  2  0  0  0  0  0  0
  184.5840  178.2550  145.5510 C   0  0  0  0  0  3  0  0  0  0  0  0
  183.5430  178.1060  141.4070 C   0  0  0  0  0  0  0  0  0  0  0  0
  186.3360  177.6040  141.4380 C   0  0  0  0  0  0  0  0  0  0  0  0
  179.9340  178.1350  140.2860 C   0  0  0  0  0  0  0  0  0  0  0  0
  182.0920  178.3650  141.3800 C   0  0  0  0  0  0  0  0  0  0  0  0
  181.3100  177.8920  140.3170 C   0  0  0  0  0  3  0  0  0  0  0  0
  179.1510  177.6500  139.2030 N   0  0  0  0  0  1  0  0  0  0  0  0
  181.4750  179.0870  142.4150 C   0  0  0  0  0  3  0  0  0  0  0  0
  179.3280  178.8540  141.3200 C   0  0  0  0  0  3  0  0  0  0  0  0
  180.0990  179.3300  142.3840 C   0  0  0  0  0  3  0  0  0  0  0  0
  1 13  1  0  0  0  0
  1  4  1  0  0  0  0
  2  1  2  0  0  0  0
  3 13  2  0  0  0  0
  4 16  1  0  0  0  0
  4  7  1  0  0  0  0
  6  3  1  0  0  0  0
  7  8  1  0  0  0  0
  8  5  2  0  0  0  0
  9 18  1  0  0  0  0
 10  9  1  0  0  0  0
 11  2  1  0  0  0  0
 12  5  1  0  0  0  0
 13 14  1  0  0  0  0
 14  7  2  0  0  0  0
 15  9  1  0  0  0  0
 15 17  1  0  0  0  0
 16 12  2  0  0  0  0
 17 11  2  0  0  0  0
 18  6  2  0  0  0  0
 18  2  1  0  0  0  0
 19 21  2  0  0  0  0
 19 24  1  0  0  0  0
 20 17  1  0  0  0  0
 20 23  2  0  0  0  0
 21 20  1  0  0  0  0
 22 19  1  0  0  0  0
 24 25  2  0  0  0  0
 25 23  1  0  0  0  0
M  END
>  <MODEL>
2

>  <REMARK>
 VINA RESULT:      -7.9      2.668      8.179
  Name = 
  1 active torsions:
  status: ('A' for Active; 'I' for Inactive)
    1  A    between atoms: C_6  and  C_23
                            x       y       z     vdW  Elec       q    Type
                         _______ _______ _______ _____ _____    ______ ____

>  <TORSDO>
F 1

$$$$
=
 OpenBabel11052417333D

 25 29  0  0  0  0  0  0  0  0999 V2000
  190.5740  175.1990  143.8060 C   0  0  0  0  0  0  0  0  0  0  0  0
  190.0870  175.9040  144.9070 C   0  0  0  0  0  0  0  0  0  0  0  0
  192.7440  174.8930  144.8210 C   0  0  0  0  0  3  0  0  0  0  0  0
  189.9690  174.8700  142.6570 N   0  0  0  0  0  0  0  0  0  0  0  0
  189.3240  173.9190  140.1800 C   0  0  0  0  0  3  0  0  0  0  0  0
  192.2840  175.6000  145.9480 C   0  0  0  0  0  3  0  0  0  0  0  0
  190.9030  174.1920  141.9540 C   0  0  0  0  0  0  0  0  0  0  0  0
  190.6140  173.6910  140.6870 C   0  0  0  0  0  3  0  0  0  0  0  0
  190.4670  176.8300  147.1300 N   0  0  0  0  0  0  0  0  0  0  0  0
  191.2970  177.0860  148.2960 C   0  0  0  0  0  1  0  0  0  0  0  0
  188.7480  176.4140  144.9520 N   0  0  0  0  0  0  0  0  0  0  0  0
  188.3700  174.6280  140.9340 C   0  0  0  0  0  3  0  0  0  0  0  0
  191.8560  174.7110  143.7630 C   0  0  0  0  0  0  0  0  0  0  0  0
  192.0920  174.0660  142.5970 N   0  0  0  0  0  0  0  0  0  0  0  0
  189.1450  177.3050  147.1140 N   0  0  0  0  0  2  0  0  0  0  0  0
  188.7130  175.1110  142.2050 C   0  0  0  0  0  3  0  0  0  0  0  0
  188.2930  177.0720  145.9800 C   0  0  0  0  0  0  0  0  0  0  0  0
  190.9610  176.1060  145.9950 C   0  0  0  0  0  0  0  0  0  0  0  0
  184.8950  178.2040  144.7720 C   0  0  0  0  0  0  0  0  0  0  0  0
  186.9080  177.5790  145.9820 C   0  0  0  0  0  0  0  0  0  0  0  0
  186.2080  177.7240  144.7760 C   0  0  0  0  0  3  0  0  0  0  0  0
  184.1940  178.3470  143.5440 N   0  0  0  0  0  1  0  0  0  0  0  0
  186.2740  177.9220  147.1870 C   0  0  0  0  0  3  0  0  0  0  0  0
  184.2710  178.5430  145.9770 C   0  0  0  0  0  3  0  0  0  0  0  0
  184.9610  178.4010  147.1840 C   0  0  0  0  0  3  0  0  0  0  0  0
  1  2  1  0  0  0  0
  2 11  1  0  0  0  0
  2 18  2  0  0  0  0
  3  6  2  0  0  0  0
  4  1  1  0  0  0  0
  5  8  2  0  0  0  0
  5 12  1  0  0  0  0
  6 18  1  0  0  0  0
  7 14  2  0  0  0  0
  7  4  1  0  0  0  0
  8  7  1  0  0  0  0
  9 10  1  0  0  0  0
 11 17  2  0  0  0  0
 12 16  2  0  0  0  0
 13  1  2  0  0  0  0
 13  3  1  0  0  0  0
 14 13  1  0  0  0  0
 15  9  1  0  0  0  0
 16  4  1  0  0  0  0
 17 20  1  0  0  0  0
 17 15  1  0  0  0  0
 18  9  1  0  0  0  0
 19 21  2  0  0  0  0
 19 24  1  0  0  0  0
 20 23  2  0  0  0  0
 21 20  1  0  0  0  0
 22 19  1  0  0  0  0
 24 25  2  0  0  0  0
 25 23  1  0  0  0  0
M  END
>  <MODEL>
3

>  <REMARK>
 VINA RESULT:      -7.7      2.179      6.063
  Name = 
  1 active torsions:
  status: ('A' for Active; 'I' for Inactive)
    1  A    between atoms: C_6  and  C_23
                            x       y       z     vdW  Elec       q    Type
                         _______ _______ _______ _____ _____    ______ ____

>  <TORSDO>
F 1

$$$$
=
 OpenBabel11052417333D

 25 29  0  0  0  0  0  0  0  0999 V2000
  185.6930  177.6210  143.9710 C   0  0  0  0  0  0  0  0  0  0  0  0
  186.4100  177.0960  142.8950 C   0  0  0  0  0  0  0  0  0  0  0  0
  184.1160  178.7370  142.5210 C   0  0  0  0  0  3  0  0  0  0  0  0
  185.8960  177.4880  145.2880 N   0  0  0  0  0  0  0  0  0  0  0  0
  185.7710  177.6060  148.0130 C   0  0  0  0  0  3  0  0  0  0  0  0
  184.8170  178.2240  141.4130 C   0  0  0  0  0  3  0  0  0  0  0  0
  184.9060  178.2040  145.8660 C   0  0  0  0  0  0  0  0  0  0  0  0
  184.8080  178.2880  147.2530 C   0  0  0  0  0  3  0  0  0  0  0  0
  186.6920  176.8700  140.4830 N   0  0  0  0  0  0  0  0  0  0  0  0
  186.3010  177.1370  139.1080 C   0  0  0  0  0  1  0  0  0  0  0  0
  187.5650  176.2690  143.0810 N   0  0  0  0  0  0  0  0  0  0  0  0
  186.7920  176.8670  147.3840 C   0  0  0  0  0  3  0  0  0  0  0  0
  184.5860  178.4130  143.7910 C   0  0  0  0  0  0  0  0  0  0  0  0
  184.0660  178.7980  144.9800 N   0  0  0  0  0  0  0  0  0  0  0  0
  187.8170  176.0660  140.7310 N   0  0  0  0  0  2  0  0  0  0  0  0
  186.8450  176.8140  145.9850 C   0  0  0  0  0  3  0  0  0  0  0  0
  188.2340  175.7790  142.0760 C   0  0  0  0  0  0  0  0  0  0  0  0
  185.9600  177.4060  141.5950 C   0  0  0  0  0  0  0  0  0  0  0  0
  191.1280  174.0850  143.8210 C   0  0  0  0  0  0  0  0  0  0  0  0
  189.4180  174.9330  142.3160 C   0  0  0  0  0  0  0  0  0  0  0  0
  190.0060  174.8860  143.5880 C   0  0  0  0  0  3  0  0  0  0  0  0
  191.7160  174.0450  145.1140 N   0  0  0  0  0  1  0  0  0  0  0  0
  189.9700  174.1650  141.2780 C   0  0  0  0  0  3  0  0  0  0  0  0
  191.6710  173.3240  142.7820 C   0  0  0  0  0  3  0  0  0  0  0  0
  191.0920  173.3640  141.5100 C   0  0  0  0  0  3  0  0  0  0  0  0
  1  4  1  0  0  0  0
  2 11  1  0  0  0  0
  2  1  2  0  0  0  0
  3 13  2  0  0  0  0
  4  7  1  0  0  0  0
  4 16  1  0  0  0  0
  6 18  2  0  0  0  0
  6  3  1  0  0  0  0
  7  8  1  0  0  0  0
  8  5  2  0  0  0  0
  9 15  1  0  0  0  0
  9 18  1  0  0  0  0
 10  9  1  0  0  0  0
 12  5  1  0  0  0  0
 13  1  1  0  0  0  0
 13 14  1  0  0  0  0
 14  7  2  0  0  0  0
 15 17  1  0  0  0  0
 16 12  2  0  0  0  0
 17 20  1  0  0  0  0
 17 11  2  0  0  0  0
 18  2  1  0  0  0  0
 19 22  1  0  0  0  0
 20 21  2  0  0  0  0
 21 19  1  0  0  0  0
 23 25  2  0  0  0  0
 23 20  1  0  0  0  0
 24 19  2  0  0  0  0
 25 24  1  0  0  0  0
M  END
>  <MODEL>
4

>  <REMARK>
 VINA RESULT:      -7.5      2.313      4.943
  Name = 
  1 active torsions:
  status: ('A' for Active; 'I' for Inactive)
    1  A    between atoms: C_6  and  C_23
                            x       y       z     vdW  Elec       q    Type
                         _______ _______ _______ _____ _____    ______ ____

>  <TORSDO>
F 1

$$$$
=
 OpenBabel11052417333D

 25 29  0  0  0  0  0  0  0  0999 V2000
  192.0120  175.0260  143.5090 C   0  0  0  0  0  0  0  0  0  0  0  0
  190.6860  175.2290  143.1240 C   0  0  0  0  0  0  0  0  0  0  0  0
  192.5030  173.7240  141.5350 C   0  0  0  0  0  3  0  0  0  0  0  0
  192.6660  175.4470  144.6000 N   0  0  0  0  0  0  0  0  0  0  0  0
  194.5090  175.9790  146.5420 C   0  0  0  0  0  3  0  0  0  0  0  0
  191.1720  173.9100  141.1170 C   0  0  0  0  0  3  0  0  0  0  0  0
  193.9210  174.9630  144.4600 C   0  0  0  0  0  0  0  0  0  0  0  0
  194.8900  175.2130  145.4290 C   0  0  0  0  0  3  0  0  0  0  0  0
  188.9010  174.8640  141.5030 N   0  0  0  0  0  0  0  0  0  0  0  0
  188.3780  174.3140  140.2630 C   0  0  0  0  0  1  0  0  0  0  0  0
  189.7690  175.9870  143.9230 N   0  0  0  0  0  0  0  0  0  0  0  0
  193.1960  176.4710  146.6620 C   0  0  0  0  0  3  0  0  0  0  0  0
  192.8890  174.3000  142.7430 C   0  0  0  0  0  0  0  0  0  0  0  0
  194.1100  174.2440  143.3240 N   0  0  0  0  0  0  0  0  0  0  0  0
  188.0510  175.6160  142.3300 N   0  0  0  0  0  2  0  0  0  0  0  0
  192.2590  176.1920  145.6580 C   0  0  0  0  0  3  0  0  0  0  0  0
  188.5320  176.1770  143.5640 C   0  0  0  0  0  0  0  0  0  0  0  0
  190.2630  174.6590  141.9050 C   0  0  0  0  0  0  0  0  0  0  0  0
  186.1070  178.8410  144.7070 C   0  0  0  0  0  0  0  0  0  0  0  0
  187.6230  176.9640  144.4180 C   0  0  0  0  0  0  0  0  0  0  0  0
  186.9690  178.0910  143.9020 C   0  0  0  0  0  3  0  0  0  0  0  0
  185.4480  179.9820  144.1740 N   0  0  0  0  0  1  0  0  0  0  0  0
  187.4010  176.5960  145.7550 C   0  0  0  0  0  3  0  0  0  0  0  0
  185.8920  178.4680  146.0370 C   0  0  0  0  0  3  0  0  0  0  0  0
  186.5400  177.3460  146.5610 C   0  0  0  0  0  3  0  0  0  0  0  0
  1  4  1  0  0  0  0
  2  1  1  0  0  0  0
  2 11  1  0  0  0  0
  3 13  1  0  0  0  0
  4 16  1  0  0  0  0
  5 12  1  0  0  0  0
  6  3  2  0  0  0  0
  6 18  1  0  0  0  0
  7  4  1  0  0  0  0
  7  8  1  0  0  0  0
  8  5  2  0  0  0  0
  9 18  1  0  0  0  0
  9 15  1  0  0  0  0
 10  9  1  0  0  0  0
 13 14  1  0  0  0  0
 13  1  2  0  0  0  0
 14  7  2  0  0  0  0
 15 17  1  0  0  0  0
 16 12  2  0  0  0  0
 17 11  2  0  0  0  0
 17 20  1  0  0  0  0
 18  2  2  0  0  0  0
 19 24  1  0  0  0  0
 20 23  2  0  0  0  0
 21 20  1  0  0  0  0
 21 19  2  0  0  0  0
 22 19  1  0  0  0  0
 23 25  1  0  0  0  0
 24 25  2  0  0  0  0
M  END
>  <MODEL>
5

>  <REMARK>
 VINA RESULT:      -7.5      2.505      7.638
  Name = 
  1 active torsions:
  status: ('A' for Active; 'I' for Inactive)
    1  A    between atoms: C_6  and  C_23
                            x       y       z     vdW  Elec       q    Type
                         _______ _______ _______ _____ _____    ______ ____

>  <TORSDO>
F 1

$$$$
=
 OpenBabel11052417333D

 25 29  0  0  0  0  0  0  0  0999 V2000
  187.3130  176.9520  144.6490 C   0  0  0  0  0  0  0  0  0  0  0  0
  188.2800  176.0460  144.2110 C   0  0  0  0  0  0  0  0  0  0  0  0
  188.4020  177.2540  146.7840 C   0  0  0  0  0  3  0  0  0  0  0  0
  186.2200  177.4130  144.0270 N   0  0  0  0  0  0  0  0  0  0  0  0
  183.9130  178.6950  143.3260 C   0  0  0  0  0  3  0  0  0  0  0  0
  189.3940  176.3440  146.3730 C   0  0  0  0  0  3  0  0  0  0  0  0
  185.6500  178.2620  144.9110 C   0  0  0  0  0  0  0  0  0  0  0  0
  184.4730  178.9360  144.5910 C   0  0  0  0  0  3  0  0  0  0  0  0
  190.3350  174.8090  144.6480 N   0  0  0  0  0  0  0  0  0  0  0  0
  191.4610  174.4340  145.4890 C   0  0  0  0  0  1  0  0  0  0  0  0
  188.2200  175.4370  142.9150 N   0  0  0  0  0  0  0  0  0  0  0  0
  184.5290  177.8050  142.4250 C   0  0  0  0  0  3  0  0  0  0  0  0
  187.3710  177.5350  145.8910 C   0  0  0  0  0  0  0  0  0  0  0  0
  186.3260  178.3730  146.0830 N   0  0  0  0  0  0  0  0  0  0  0  0
  190.2200  174.2450  143.3670 N   0  0  0  0  0  2  0  0  0  0  0  0
  185.7130  177.1540  142.7960 C   0  0  0  0  0  3  0  0  0  0  0  0
  189.1220  174.5910  142.5060 C   0  0  0  0  0  0  0  0  0  0  0  0
  189.3370  175.7400  145.0920 C   0  0  0  0  0  0  0  0  0  0  0  0
  188.2940  174.1220  138.8480 C   0  0  0  0  0  0  0  0  0  0  0  0
  189.0200  173.9880  141.1650 C   0  0  0  0  0  0  0  0  0  0  0  0
  188.3950  174.6880  140.1220 C   0  0  0  0  0  3  0  0  0  0  0  0
  187.6590  174.8400  137.7990 N   0  0  0  0  0  1  0  0  0  0  0  0
  189.5450  172.7110  140.9120 C   0  0  0  0  0  3  0  0  0  0  0  0
  188.8200  172.8490  138.6060 C   0  0  0  0  0  3  0  0  0  0  0  0
  189.4450  172.1440  139.6390 C   0  0  0  0  0  3  0  0  0  0  0  0
  1 13  1  0  0  0  0
  2  1  2  0  0  0  0
  2 18  1  0  0  0  0
  4  1  1  0  0  0  0
  4  7  1  0  0  0  0
  5  8  2  0  0  0  0
  6  3  1  0  0  0  0
  7 14  2  0  0  0  0
  8  7  1  0  0  0  0
  9 18  1  0  0  0  0
  9 10  1  0  0  0  0
 11  2  1  0  0  0  0
 12 16  2  0  0  0  0
 12  5  1  0  0  0  0
 13 14  1  0  0  0  0
 13  3  2  0  0  0  0
 15  9  1  0  0  0  0
 16  4  1  0  0  0  0
 17 11  2  0  0  0  0
 17 15  1  0  0  0  0
 18  6  2  0  0  0  0
 19 21  1  0  0  0  0
 20 17  1  0  0  0  0
 21 20  2  0  0  0  0
 22 19  1  0  0  0  0
 23 20  1  0  0  0  0
 24 19  2  0  0  0  0
 24 25  1  0  0  0  0
 25 23  2  0  0  0  0
M  END
>  <MODEL>
6

>  <REMARK>
 VINA RESULT:      -7.4      2.922      5.351
  Name = 
  1 active torsions:
  status: ('A' for Active; 'I' for Inactive)
    1  A    between atoms: C_6  and  C_23
                            x       y       z     vdW  Elec       q    Type
                         _______ _______ _______ _____ _____    ______ ____

>  <TORSDO>
F 1

$$$$
=
 OpenBabel11052417333D

 25 29  0  0  0  0  0  0  0  0999 V2000
  190.5350  175.0030  144.0010 C   0  0  0  0  0  0  0  0  0  0  0  0
  189.4790  175.2230  143.1160 C   0  0  0  0  0  0  0  0  0  0  0  0
  191.7470  173.6630  142.3980 C   0  0  0  0  0  3  0  0  0  0  0  0
  190.7080  175.4300  145.2590 N   0  0  0  0  0  0  0  0  0  0  0  0
  191.6320  175.9610  147.7720 C   0  0  0  0  0  3  0  0  0  0  0  0
  190.6990  173.8650  141.4810 C   0  0  0  0  0  3  0  0  0  0  0  0
  191.9030  174.9220  145.6360 C   0  0  0  0  0  0  0  0  0  0  0  0
  192.4090  175.1710  146.9100 C   0  0  0  0  0  3  0  0  0  0  0  0
  188.4840  174.8630  140.9190 N   0  0  0  0  0  0  0  0  0  0  0  0
  188.4890  174.3020  139.5770 C   0  0  0  0  0  1  0  0  0  0  0  0
  188.3360  176.0090  143.4760 N   0  0  0  0  0  0  0  0  0  0  0  0
  190.3910  176.4770  147.3530 C   0  0  0  0  0  3  0  0  0  0  0  0
  191.6300  174.2500  143.6550 C   0  0  0  0  0  0  0  0  0  0  0  0
  192.5150  174.1830  144.6770 N   0  0  0  0  0  0  0  0  0  0  0  0
  187.3910  175.6420  141.3310 N   0  0  0  0  0  2  0  0  0  0  0  0
  189.9280  176.1980  146.0600 C   0  0  0  0  0  3  0  0  0  0  0  0
  187.3500  176.2140  142.6490 C   0  0  0  0  0  0  0  0  0  0  0  0
  189.5670  174.6410  141.8340 C   0  0  0  0  0  0  0  0  0  0  0  0
  184.8250  178.0000  144.8230 C   0  0  0  0  0  0  0  0  0  0  0  0
  186.1930  177.0290  143.0630 C   0  0  0  0  0  0  0  0  0  0  0  0
  185.9210  177.2280  144.4240 C   0  0  0  0  0  3  0  0  0  0  0  0
  184.5580  178.1950  146.2050 N   0  0  0  0  0  1  0  0  0  0  0  0
  185.3520  177.6160  142.1040 C   0  0  0  0  0  3  0  0  0  0  0  0
  183.9930  178.5800  143.8610 C   0  0  0  0  0  3  0  0  0  0  0  0
  184.2560  178.3880  142.5020 C   0  0  0  0  0  3  0  0  0  0  0  0
  1  4  1  0  0  0  0
  2 11  1  0  0  0  0
  2  1  2  0  0  0  0
  3 13  2  0  0  0  0
  4  7  1  0  0  0  0
  4 16  1  0  0  0  0
  6 18  2  0  0  0  0
  6  3  1  0  0  0  0
  7  8  1  0  0  0  0
  8  5  2  0  0  0  0
  9 15  1  0  0  0  0
  9 18  1  0  0  0  0
 10  9  1  0  0  0  0
 12  5  1  0  0  0  0
 13  1  1  0  0  0  0
 13 14  1  0  0  0  0
 14  7  2  0  0  0  0
 15 17  1  0  0  0  0
 16 12  2  0  0  0  0
 17 20  1  0  0  0  0
 17 11  2  0  0  0  0
 18  2  1  0  0  0  0
 19 22  1  0  0  0  0
 20 21  2  0  0  0  0
 21 19  1  0  0  0  0
 23 25  2  0  0  0  0
 23 20  1  0  0  0  0
 24 19  2  0  0  0  0
 25 24  1  0  0  0  0
M  END
>  <MODEL>
7

>  <REMARK>
 VINA RESULT:      -7.3      2.323      7.613
  Name = 
  1 active torsions:
  status: ('A' for Active; 'I' for Inactive)
    1  A    between atoms: C_6  and  C_23
                            x       y       z     vdW  Elec       q    Type
                         _______ _______ _______ _____ _____    ______ ____

>  <TORSDO>
F 1

$$$$
=
 OpenBabel11052417333D

 25 29  0  0  0  0  0  0  0  0999 V2000
  186.8430  176.9170  143.8480 C   0  0  0  0  0  0  0  0  0  0  0  0
  188.0550  176.3290  144.2120 C   0  0  0  0  0  0  0  0  0  0  0  0
  186.0770  177.0220  146.1360 C   0  0  0  0  0  3  0  0  0  0  0  0
  186.3800  177.2560  142.6380 N   0  0  0  0  0  0  0  0  0  0  0  0
  184.9050  178.1500  140.5210 C   0  0  0  0  0  3  0  0  0  0  0  0
  187.2890  176.4290  146.5380 C   0  0  0  0  0  3  0  0  0  0  0  0
  185.1580  177.7860  142.8700 C   0  0  0  0  0  0  0  0  0  0  0  0
  184.3750  178.2540  141.8170 C   0  0  0  0  0  3  0  0  0  0  0  0
  189.5210  175.4770  145.9650 N   0  0  0  0  0  0  0  0  0  0  0  0
  189.8360  175.1860  147.3540 C   0  0  0  0  0  1  0  0  0  0  0  0
  189.0520  175.9790  143.2440 N   0  0  0  0  0  0  0  0  0  0  0  0
  186.1810  177.5940  140.3070 C   0  0  0  0  0  3  0  0  0  0  0  0
  185.8880  177.2520  144.7750 C   0  0  0  0  0  0  0  0  0  0  0  0
  184.8060  177.8060  144.1810 N   0  0  0  0  0  0  0  0  0  0  0  0
  190.4580  175.1570  144.9690 N   0  0  0  0  0  2  0  0  0  0  0  0
  186.9290  177.1390  141.4020 C   0  0  0  0  0  3  0  0  0  0  0  0
  190.1840  175.4300  143.5850 C   0  0  0  0  0  0  0  0  0  0  0  0
  188.2770  176.0820  145.5830 C   0  0  0  0  0  0  0  0  0  0  0  0
  193.3950  175.3710  141.5930 C   0  0  0  0  0  0  0  0  0  0  0  0
  191.1810  175.0870  142.5540 C   0  0  0  0  0  0  0  0  0  0  0  0
  192.4460  175.6920  142.5670 C   0  0  0  0  0  3  0  0  0  0  0  0
  194.6740  175.9900  141.6150 N   0  0  0  0  0  1  0  0  0  0  0  0
  190.8800  174.1530  141.5500 C   0  0  0  0  0  3  0  0  0  0  0  0
  193.0870  174.4400  140.5970 C   0  0  0  0  0  3  0  0  0  0  0  0
  191.8290  173.8310  140.5760 C   0  0  0  0  0  3  0  0  0  0  0  0
  1  2  2  0  0  0  0
  1 13  1  0  0  0  0
  2 18  1  0  0  0  0
  3  6  1  0  0  0  0
  4  7  1  0  0  0  0
  4  1  1  0  0  0  0
  5  8  2  0  0  0  0
  7 14  2  0  0  0  0
  8  7  1  0  0  0  0
  9 10  1  0  0  0  0
 11 17  2  0  0  0  0
 11  2  1  0  0  0  0
 12  5  1  0  0  0  0
 12 16  2  0  0  0  0
 13  3  2  0  0  0  0
 14 13  1  0  0  0  0
 15  9  1  0  0  0  0
 16  4  1  0  0  0  0
 17 15  1  0  0  0  0
 18  9  1  0  0  0  0
 18  6  2  0  0  0  0
 19 22  1  0  0  0  0
 19 21  1  0  0  0  0
 20 21  2  0  0  0  0
 20 17  1  0  0  0  0
 23 20  1  0  0  0  0
 24 19  2  0  0  0  0
 25 24  1  0  0  0  0
 25 23  2  0  0  0  0
M  END
>  <MODEL>
8

>  <REMARK>
 VINA RESULT:      -7.3      2.400      3.433
  Name = 
  1 active torsions:
  status: ('A' for Active; 'I' for Inactive)
    1  A    between atoms: C_6  and  C_23
                            x       y       z     vdW  Elec       q    Type
                         _______ _______ _______ _____ _____    ______ ____

>  <TORSDO>
F 1

$$$$
=
 OpenBabel11052417333D

 25 29  0  0  0  0  0  0  0  0999 V2000
  186.7050  176.9310  143.8290 C   0  0  0  0  0  0  0  0  0  0  0  0
  187.8990  176.2920  144.1630 C   0  0  0  0  0  0  0  0  0  0  0  0
  186.0170  177.0970  146.1380 C   0  0  0  0  0  3  0  0  0  0  0  0
  186.2190  177.2770  142.6290 N   0  0  0  0  0  0  0  0  0  0  0  0
  184.7210  178.2120  140.5480 C   0  0  0  0  0  3  0  0  0  0  0  0
  187.2120  176.4540  146.5100 C   0  0  0  0  0  3  0  0  0  0  0  0
  185.0300  177.8650  142.8920 C   0  0  0  0  0  0  0  0  0  0  0  0
  184.2370  178.3550  141.8580 C   0  0  0  0  0  3  0  0  0  0  0  0
  189.3800  175.3950  145.8800 N   0  0  0  0  0  0  0  0  0  0  0  0
  189.7250  175.1050  147.2630 C   0  0  0  0  0  1  0  0  0  0  0  0
  188.8490  175.8860  143.1700 N   0  0  0  0  0  0  0  0  0  0  0  0
  185.9630  177.5960  140.3020 C   0  0  0  0  0  3  0  0  0  0  0  0
  185.7960  177.3190  144.7810 C   0  0  0  0  0  0  0  0  0  0  0  0
  184.7220  177.9160  144.2130 N   0  0  0  0  0  0  0  0  0  0  0  0
  190.2700  175.0210  144.8600 N   0  0  0  0  0  2  0  0  0  0  0  0
  186.7230  177.1200  141.3790 C   0  0  0  0  0  3  0  0  0  0  0  0
  189.9640  175.2900  143.4820 C   0  0  0  0  0  0  0  0  0  0  0  0
  188.1530  176.0510  145.5290 C   0  0  0  0  0  0  0  0  0  0  0  0
  191.3750  173.7090  140.3520 C   0  0  0  0  0  0  0  0  0  0  0  0
  190.9120  174.8890  142.4250 C   0  0  0  0  0  0  0  0  0  0  0  0
  190.4810  174.0920  141.3560 C   0  0  0  0  0  3  0  0  0  0  0  0
  190.9270  172.9000  139.2720 N   0  0  0  0  0  1  0  0  0  0  0  0
  192.2540  175.3000  142.4750 C   0  0  0  0  0  3  0  0  0  0  0  0
  192.7090  174.1220  140.4090 C   0  0  0  0  0  3  0  0  0  0  0  0
  193.1480  174.9180  141.4710 C   0  0  0  0  0  3  0  0  0  0  0  0
  1  2  2  0  0  0  0
  1 13  1  0  0  0  0
  2 18  1  0  0  0  0
  3  6  1  0  0  0  0
  4  7  1  0  0  0  0
  4  1  1  0  0  0  0
  5  8  2  0  0  0  0
  7 14  2  0  0  0  0
  8  7  1  0  0  0  0
  9 10  1  0  0  0  0
 11 17  2  0  0  0  0
 11  2  1  0  0  0  0
 12  5  1  0  0  0  0
 12 16  2  0  0  0  0
 13  3  2  0  0  0  0
 14 13  1  0  0  0  0
 15  9  1  0  0  0  0
 16  4  1  0  0  0  0
 17 15  1  0  0  0  0
 18  9  1  0  0  0  0
 18  6  2  0  0  0  0
 19 24  2  0  0  0  0
 19 21  1  0  0  0  0
 20 23  1  0  0  0  0
 20 17  1  0  0  0  0
 21 20  2  0  0  0  0
 22 19  1  0  0  0  0
 24 25  1  0  0  0  0
 25 23  2  0  0  0  0
M  END
>  <MODEL>
9

>  <REMARK>
 VINA RESULT:      -7.3      2.722      3.606
  Name = 
  1 active torsions:
  status: ('A' for Active; 'I' for Inactive)
    1  A    between atoms: C_6  and  C_23
                            x       y       z     vdW  Elec       q    Type
                         _______ _______ _______ _____ _____    ______ ____

>  <TORSDO>
F 1

$$$$
