=
 OpenBabel11052420263D

 34 38  0  0  1  0  0  0  0  0999 V2000
  192.5140  176.0260  144.0480 C   0  0  0  0  0  0  0  0  0  0  0  0
  195.8810  176.4360  142.6020 C   0  0  0  0  0  3  0  0  0  0  0  0
  195.1580  176.3610  144.7650 N   0  0  0  0  0  2  0  0  0  0  0  0
  190.8550  174.3710  143.6840 F   0  0  0  0  0  0  0  0  0  0  0  0
  191.0660  175.7390  143.7070 C   0  0  1  0  0  3  0  0  0  0  0  0
  191.7870  176.3890  146.4140 C   0  0  0  0  0  0  0  0  0  0  0  0
  192.0810  176.4970  147.7330 F   0  0  0  0  0  0  0  0  0  0  0  0
  190.5120  176.4700  146.0400 C   0  0  0  0  0  3  0  0  0  0  0  0
  190.1360  176.3590  144.6580 N   0  0  0  0  0  0  0  0  0  0  0  0
  194.2140  176.3750  145.7350 C   0  0  0  0  0  0  0  0  0  0  0  0
  192.8590  176.2580  145.3960 C   0  0  0  0  0  0  0  0  0  0  0  0
  194.5730  176.5280  146.9340 O   0  0  0  0  0  0  0  0  0  0  0  0
  195.7690  176.6240  141.1280 C   0  0  0  0  0  2  0  0  0  0  0  0
  195.2190  175.4260  140.4390 C   0  0  0  0  0  0  0  0  0  0  0  0
  194.0080  174.9690  140.7310 C   0  0  0  0  0  3  0  0  0  0  0  0
  194.8700  176.2020  143.4480 C   0  0  0  0  0  0  0  0  0  0  0  0
  193.1700  175.3920  141.8660 C   0  0  0  0  0  3  0  0  0  0  0  0
  193.5270  175.9170  143.0600 C   0  0  0  0  0  0  0  0  0  0  0  0
  186.4440  177.0430  144.7950 C   0  0  0  0  0  3  0  0  0  0  0  0
  188.5030  176.9590  142.8980 C   0  0  0  0  0  3  0  0  0  0  0  0
  184.5810  177.8980  141.7110 C   0  0  0  0  0  0  0  0  0  0  0  0
  184.8620  177.6260  143.0570 C   0  0  0  0  0  3  0  0  0  0  0  0
  186.1640  177.3140  143.4560 C   0  0  0  0  0  0  0  0  0  0  0  0
  186.9230  177.5410  141.1580 C   0  0  0  0  0  3  0  0  0  0  0  0
  187.2020  177.2720  142.4990 C   0  0  0  0  0  0  0  0  0  0  0  0
  185.6170  177.8530  140.7660 C   0  0  0  0  0  3  0  0  0  0  0  0
  188.7940  176.6880  144.2460 C   0  0  0  0  0  0  0  0  0  0  0  0
  187.7500  176.7320  145.1880 C   0  0  0  0  0  3  0  0  0  0  0  0
  183.2060  178.2250  141.2970 C   0  0  0  0  0  0  0  0  0  0  0  0
  182.8480  178.0800  140.0980 O   0  0  0  0  0  0  0  0  0  0  0  0
  182.2890  178.6990  142.2280 O   0  0  0  0  0  1  0  0  0  0  0  0
  195.9240  174.8590  139.2520 C   0  0  2  0  0  3  0  0  0  0  0  0
  197.3490  175.3780  139.1710 C   0  0  0  0  0  1  0  0  0  0  0  0
  195.2360  175.1840  138.0820 O   0  0  0  0  0  1  0  0  0  0  0  0
  1 11  2  0  0  0  0
  2 16  2  0  0  0  0
  3 10  1  0  0  0  0
  5  4  1  1  0  0  0
  5  1  1  0  0  0  0
  5  9  1  0  0  0  0
  6  7  1  0  0  0  0
  8  6  2  0  0  0  0
  9  8  1  0  0  0  0
 10 12  2  0  0  0  0
 11 10  1  0  0  0  0
 11  6  1  0  0  0  0
 13  2  1  0  0  0  0
 14 15  2  0  0  0  0
 14 13  1  0  0  0  0
 15 17  1  0  0  0  0
 16  3  1  0  0  0  0
 17 18  2  0  0  0  0
 18 16  1  0  0  0  0
 18  1  1  0  0  0  0
 19 28  1  0  0  0  0
 20 27  1  0  0  0  0
 21 22  2  0  0  0  0
 22 23  1  0  0  0  0
 23 19  2  0  0  0  0
 24 25  1  0  0  0  0
 25 20  2  0  0  0  0
 25 23  1  0  0  0  0
 26 24  2  0  0  0  0
 26 21  1  0  0  0  0
 27  9  1  0  0  0  0
 27 28  2  0  0  0  0
 29 21  1  0  0  0  0
 29 31  1  0  0  0  0
 30 29  2  0  0  0  0
 32 33  1  6  0  0  0
 32 14  1  0  0  0  0
 34 32  1  0  0  0  0
M  END
>  <MODEL>
1

>  <REMARK>
 VINA RESULT:      -8.6      0.000      0.000
  Name = 
  3 active torsions:
  status: ('A' for Active; 'I' for Inactive)
    1  A    between atoms: C_3  and  C_25
    2  A    between atoms: C_7  and  C_11
    3  A    between atoms: N_18  and  C_30
                            x       y       z     vdW  Elec       q    Type
                         _______ _______ _______ _____ _____    ______ ____

>  <TORSDO>
F 3

$$$$
=
 OpenBabel11052420263D

 34 38  0  0  1  0  0  0  0  0999 V2000
  190.6990  176.9260  144.8590 C   0  0  0  0  0  0  0  0  0  0  0  0
  187.3080  176.9790  146.3060 C   0  0  0  0  0  3  0  0  0  0  0  0
  189.3710  176.9350  147.2790 N   0  0  0  0  0  2  0  0  0  0  0  0
  191.7360  178.3520  143.2730 F   0  0  0  0  0  0  0  0  0  0  0  0
  191.4730  177.0230  143.5600 C   0  0  1  0  0  3  0  0  0  0  0  0
  192.8690  176.4460  146.0080 C   0  0  0  0  0  0  0  0  0  0  0  0
  193.6080  176.3640  147.1410 F   0  0  0  0  0  0  0  0  0  0  0  0
  193.4650  176.2010  144.8430 C   0  0  0  0  0  3  0  0  0  0  0  0
  192.7350  176.2760  143.6070 N   0  0  0  0  0  0  0  0  0  0  0  0
  190.7170  176.7870  147.2760 C   0  0  0  0  0  0  0  0  0  0  0  0
  191.4120  176.7270  146.0590 C   0  0  0  0  0  0  0  0  0  0  0  0
  191.3220  176.6710  148.3760 O   0  0  0  0  0  0  0  0  0  0  0  0
  186.3030  176.7940  145.2230 C   0  0  0  0  0  2  0  0  0  0  0  0
  186.3010  177.9150  144.2460 C   0  0  0  0  0  0  0  0  0  0  0  0
  187.3860  178.2050  143.5410 C   0  0  0  0  0  3  0  0  0  0  0  0
  188.6340  177.0690  146.1470 C   0  0  0  0  0  0  0  0  0  0  0  0
  188.7380  177.6640  143.7630 C   0  0  0  0  0  3  0  0  0  0  0  0
  189.3020  177.1780  144.8920 C   0  0  0  0  0  0  0  0  0  0  0  0
  193.1550  174.4470  140.3530 C   0  0  0  0  0  3  0  0  0  0  0  0
  194.6480  176.1040  142.0470 C   0  0  0  0  0  3  0  0  0  0  0  0
  196.3600  174.6230  138.5040 C   0  0  0  0  0  0  0  0  0  0  0  0
  195.0400  174.2890  138.8410 C   0  0  0  0  0  3  0  0  0  0  0  0
  194.4680  174.7790  140.0170 C   0  0  0  0  0  0  0  0  0  0  0  0
  196.5350  175.9470  140.5370 C   0  0  0  0  0  3  0  0  0  0  0  0
  195.2210  175.6150  140.8710 C   0  0  0  0  0  0  0  0  0  0  0  0
  197.1020  175.4530  139.3580 C   0  0  0  0  0  3  0  0  0  0  0  0
  193.3250  175.7760  142.3900 C   0  0  0  0  0  0  0  0  0  0  0  0
  192.5880  174.9410  141.5310 C   0  0  0  0  0  3  0  0  0  0  0  0
  196.9580  174.1020  137.2630 C   0  0  0  0  0  0  0  0  0  0  0  0
  196.8890  172.8750  136.9870 O   0  0  0  0  0  1  0  0  0  0  0  0
  197.6060  174.9610  136.3840 O   0  0  0  0  0  0  0  0  0  0  0  0
  185.0160  178.5830  143.8800 C   0  0  2  0  0  3  0  0  0  0  0  0
  184.1580  178.8150  145.1100 C   0  0  0  0  0  1  0  0  0  0  0  0
  184.3160  177.8060  142.9560 O   0  0  0  0  0  1  0  0  0  0  0  0
  1 18  1  0  0  0  0
  1 11  2  0  0  0  0
  5  4  1  1  0  0  0
  5  9  1  0  0  0  0
  5  1  1  0  0  0  0
  6 11  1  0  0  0  0
  6  7  1  0  0  0  0
  8  6  2  0  0  0  0
  9  8  1  0  0  0  0
 10  3  1  0  0  0  0
 10 12  2  0  0  0  0
 11 10  1  0  0  0  0
 13  2  1  0  0  0  0
 14 13  1  0  0  0  0
 15 17  1  0  0  0  0
 15 14  2  0  0  0  0
 16  2  2  0  0  0  0
 16  3  1  0  0  0  0
 17 18  2  0  0  0  0
 18 16  1  0  0  0  0
 19 28  1  0  0  0  0
 20 27  1  0  0  0  0
 21 22  2  0  0  0  0
 21 26  1  0  0  0  0
 22 23  1  0  0  0  0
 23 19  2  0  0  0  0
 23 25  1  0  0  0  0
 24 25  1  0  0  0  0
 25 20  2  0  0  0  0
 26 24  2  0  0  0  0
 27  9  1  0  0  0  0
 28 27  2  0  0  0  0
 29 21  1  0  0  0  0
 30 29  1  0  0  0  0
 31 29  2  0  0  0  0
 32 14  1  0  0  0  0
 32 33  1  1  0  0  0
 34 32  1  0  0  0  0
M  END
>  <MODEL>
2

>  <REMARK>
 VINA RESULT:      -8.5      1.934      8.902
  Name = 
  3 active torsions:
  status: ('A' for Active; 'I' for Inactive)
    1  A    between atoms: C_3  and  C_25
    2  A    between atoms: C_7  and  C_11
    3  A    between atoms: N_18  and  C_30
                            x       y       z     vdW  Elec       q    Type
                         _______ _______ _______ _____ _____    ______ ____

>  <TORSDO>
F 3

$$$$
=
 OpenBabel11052420263D

 34 38  0  0  1  0  0  0  0  0999 V2000
  188.5130  177.5700  145.3440 C   0  0  0  0  0  0  0  0  0  0  0  0
  185.0580  178.1440  144.1910 C   0  0  0  0  0  3  0  0  0  0  0  0
  186.1090  178.6620  146.1490 N   0  0  0  0  0  2  0  0  0  0  0  0
  190.5960  178.1200  144.3540 F   0  0  0  0  0  0  0  0  0  0  0  0
  189.8780  177.0750  144.9110 C   0  0  1  0  0  3  0  0  0  0  0  0
  189.4330  177.7930  147.6600 C   0  0  0  0  0  0  0  0  0  0  0  0
  189.3490  178.2930  148.9180 F   0  0  0  0  0  0  0  0  0  0  0  0
  190.4930  177.0540  147.3420 C   0  0  0  0  0  3  0  0  0  0  0  0
  190.6410  176.5000  146.0240 N   0  0  0  0  0  0  0  0  0  0  0  0
  187.1240  178.5930  147.0420 C   0  0  0  0  0  0  0  0  0  0  0  0
  188.3400  177.9970  146.6770 C   0  0  0  0  0  0  0  0  0  0  0  0
  186.9440  179.0410  148.2070 O   0  0  0  0  0  0  0  0  0  0  0  0
  184.8360  177.4200  142.9080 C   0  0  0  0  0  2  0  0  0  0  0  0
  185.6820  177.9430  141.8030 C   0  0  0  0  0  0  0  0  0  0  0  0
  187.0060  177.9140  141.8860 C   0  0  0  0  0  3  0  0  0  0  0  0
  186.2090  178.2090  144.8730 C   0  0  0  0  0  0  0  0  0  0  0  0
  187.7940  177.6070  143.0920 C   0  0  0  0  0  3  0  0  0  0  0  0
  187.4690  177.7410  144.3980 C   0  0  0  0  0  0  0  0  0  0  0  0
  192.2980  173.2950  144.9750 C   0  0  0  0  0  3  0  0  0  0  0  0
  193.0070  175.7730  146.0710 C   0  0  0  0  0  3  0  0  0  0  0  0
  195.9600  172.8720  145.3370 C   0  0  0  0  0  0  0  0  0  0  0  0
  194.6180  172.6020  145.0330 C   0  0  0  0  0  3  0  0  0  0  0  0
  193.6330  173.5630  145.2760 C   0  0  0  0  0  0  0  0  0  0  0  0
  195.3270  175.0820  146.1320 C   0  0  0  0  0  3  0  0  0  0  0  0
  193.9910  174.8130  145.8280 C   0  0  0  0  0  0  0  0  0  0  0  0
  196.3070  174.1150  145.8860 C   0  0  0  0  0  3  0  0  0  0  0  0
  191.6600  175.5110  145.7680 C   0  0  0  0  0  0  0  0  0  0  0  0
  191.3180  174.2610  145.2200 C   0  0  0  0  0  3  0  0  0  0  0  0
  196.9920  171.8540  145.0790 C   0  0  0  0  0  0  0  0  0  0  0  0
  197.8580  172.0350  144.1820 O   0  0  0  0  0  0  0  0  0  0  0  0
  197.0210  170.6820  145.8250 O   0  0  0  0  0  1  0  0  0  0  0  0
  185.0610  178.2960  140.4910 C   0  0  2  0  0  3  0  0  0  0  0  0
  183.5470  178.2330  140.5760 C   0  0  0  0  0  1  0  0  0  0  0  0
  185.5150  177.4310  139.4950 O   0  0  0  0  0  1  0  0  0  0  0  0
  1 11  2  0  0  0  0
  2 16  2  0  0  0  0
  3 10  1  0  0  0  0
  5  4  1  1  0  0  0
  5  1  1  0  0  0  0
  5  9  1  0  0  0  0
  6  7  1  0  0  0  0
  8  6  2  0  0  0  0
  9  8  1  0  0  0  0
 10 12  2  0  0  0  0
 11 10  1  0  0  0  0
 11  6  1  0  0  0  0
 13  2  1  0  0  0  0
 14 15  2  0  0  0  0
 14 13  1  0  0  0  0
 15 17  1  0  0  0  0
 16  3  1  0  0  0  0
 17 18  2  0  0  0  0
 18 16  1  0  0  0  0
 18  1  1  0  0  0  0
 19 28  2  0  0  0  0
 19 23  1  0  0  0  0
 21 26  1  0  0  0  0
 22 23  1  0  0  0  0
 22 21  2  0  0  0  0
 23 25  2  0  0  0  0
 25 20  1  0  0  0  0
 25 24  1  0  0  0  0
 26 24  2  0  0  0  0
 27  9  1  0  0  0  0
 27 20  2  0  0  0  0
 28 27  1  0  0  0  0
 29 21  1  0  0  0  0
 29 31  1  0  0  0  0
 30 29  2  0  0  0  0
 32 33  1  1  0  0  0
 32 14  1  0  0  0  0
 34 32  1  0  0  0  0
M  END
>  <MODEL>
3

>  <REMARK>
 VINA RESULT:      -8.5      3.471      9.252
  Name = 
  3 active torsions:
  status: ('A' for Active; 'I' for Inactive)
    1  A    between atoms: C_3  and  C_25
    2  A    between atoms: C_7  and  C_11
    3  A    between atoms: N_18  and  C_30
                            x       y       z     vdW  Elec       q    Type
                         _______ _______ _______ _____ _____    ______ ____

>  <TORSDO>
F 3

$$$$
=
 OpenBabel11052420263D

 34 38  0  0  1  0  0  0  0  0999 V2000
  194.6950  174.1270  144.9360 C   0  0  0  0  0  0  0  0  0  0  0  0
  196.8690  171.2220  144.2780 C   0  0  0  0  0  3  0  0  0  0  0  0
  197.2620  173.4670  144.1670 N   0  0  0  0  0  2  0  0  0  0  0  0
  193.3810  174.6900  146.8280 F   0  0  0  0  0  0  0  0  0  0  0  0
  193.3310  174.5390  145.4530 C   0  0  1  0  0  3  0  0  0  0  0  0
  195.1020  176.5300  144.3690 C   0  0  0  0  0  0  0  0  0  0  0  0
  195.9520  177.5370  144.0530 F   0  0  0  0  0  0  0  0  0  0  0  0
  193.8080  176.8110  144.5050 C   0  0  0  0  0  3  0  0  0  0  0  0
  192.8590  175.7870  144.8420 N   0  0  0  0  0  0  0  0  0  0  0  0
  196.8940  174.7690  144.1510 C   0  0  0  0  0  0  0  0  0  0  0  0
  195.5800  175.1290  144.4880 C   0  0  0  0  0  0  0  0  0  0  0  0
  197.7360  175.6390  143.7990 O   0  0  0  0  0  0  0  0  0  0  0  0
  196.0530  169.9760  144.2990 C   0  0  0  0  0  2  0  0  0  0  0  0
  195.4670  169.6980  145.6370 C   0  0  0  0  0  0  0  0  0  0  0  0
  194.6340  170.5590  146.2080 C   0  0  0  0  0  3  0  0  0  0  0  0
  196.4270  172.4600  144.5310 C   0  0  0  0  0  0  0  0  0  0  0  0
  194.3610  171.9340  145.7560 C   0  0  0  0  0  3  0  0  0  0  0  0
  195.1330  172.7800  145.0380 C   0  0  0  0  0  0  0  0  0  0  0  0
  189.3880  176.1050  143.4380 C   0  0  0  0  0  3  0  0  0  0  0  0
  190.7320  176.5440  145.8560 C   0  0  0  0  0  3  0  0  0  0  0  0
  186.6140  177.3390  145.5590 C   0  0  0  0  0  0  0  0  0  0  0  0
  187.3190  176.8530  144.4480 C   0  0  0  0  0  3  0  0  0  0  0  0
  188.6870  176.5880  144.5430 C   0  0  0  0  0  0  0  0  0  0  0  0
  188.6640  177.2940  146.8680 C   0  0  0  0  0  3  0  0  0  0  0  0
  189.3640  176.8090  145.7620 C   0  0  0  0  0  0  0  0  0  0  0  0
  187.2940  177.5570  146.7670 C   0  0  0  0  0  3  0  0  0  0  0  0
  191.4450  176.0540  144.7480 C   0  0  0  0  0  0  0  0  0  0  0  0
  190.7580  175.8410  143.5390 C   0  0  0  0  0  3  0  0  0  0  0  0
  185.1720  177.6180  145.4520 C   0  0  0  0  0  0  0  0  0  0  0  0
  184.4370  177.5780  146.4740 O   0  0  0  0  0  1  0  0  0  0  0  0
  184.6080  177.9270  144.2200 O   0  0  0  0  0  0  0  0  0  0  0  0
  195.6260  168.3490  146.2550 C   0  0  2  0  0  3  0  0  0  0  0  0
  194.6750  168.1750  147.4260 C   0  0  0  0  0  1  0  0  0  0  0  0
  196.9420  168.1680  146.6860 O   0  0  0  0  0  1  0  0  0  0  0  0
  1 18  1  0  0  0  0
  1  5  1  0  0  0  0
  2 13  1  0  0  0  0
  2 16  2  0  0  0  0
  3 16  1  0  0  0  0
  5  4  1  1  0  0  0
  6 11  1  0  0  0  0
  6  8  2  0  0  0  0
  7  6  1  0  0  0  0
  8  9  1  0  0  0  0
  9  5  1  0  0  0  0
 10  3  1  0  0  0  0
 10 11  1  0  0  0  0
 11  1  2  0  0  0  0
 12 10  2  0  0  0  0
 13 14  1  0  0  0  0
 14 15  2  0  0  0  0
 14 32  1  0  0  0  0
 16 18  1  0  0  0  0
 17 15  1  0  0  0  0
 18 17  2  0  0  0  0
 19 28  2  0  0  0  0
 19 23  1  0  0  0  0
 21 26  1  0  0  0  0
 22 23  1  0  0  0  0
 22 21  2  0  0  0  0
 23 25  2  0  0  0  0
 25 20  1  0  0  0  0
 25 24  1  0  0  0  0
 26 24  2  0  0  0  0
 27  9  1  0  0  0  0
 27 20  2  0  0  0  0
 28 27  1  0  0  0  0
 29 21  1  0  0  0  0
 29 30  1  0  0  0  0
 31 29  2  0  0  0  0
 32 34  1  0  0  0  0
 32 33  1  1  0  0  0
M  END
>  <MODEL>
4

>  <REMARK>
 VINA RESULT:      -8.4      4.059      5.438
  Name = 
  3 active torsions:
  status: ('A' for Active; 'I' for Inactive)
    1  A    between atoms: C_3  and  C_25
    2  A    between atoms: C_7  and  C_11
    3  A    between atoms: N_18  and  C_30
                            x       y       z     vdW  Elec       q    Type
                         _______ _______ _______ _____ _____    ______ ____

>  <TORSDO>
F 3

$$$$
=
 OpenBabel11052420263D

 34 38  0  0  1  0  0  0  0  0999 V2000
  189.6220  175.3890  144.6150 C   0  0  0  0  0  0  0  0  0  0  0  0
  186.9130  176.6160  146.7940 C   0  0  0  0  0  3  0  0  0  0  0  0
  189.0580  175.9860  147.2500 N   0  0  0  0  0  2  0  0  0  0  0  0
  190.5590  176.2980  142.6350 F   0  0  0  0  0  0  0  0  0  0  0  0
  190.0110  175.1450  143.1710 C   0  0  1  0  0  3  0  0  0  0  0  0
  191.7860  174.3250  145.2800 C   0  0  0  0  0  0  0  0  0  0  0  0
  192.7480  174.0900  146.2070 F   0  0  0  0  0  0  0  0  0  0  0  0
  191.9490  173.8230  144.0570 C   0  0  0  0  0  3  0  0  0  0  0  0
  190.9670  174.0410  143.0310 N   0  0  0  0  0  0  0  0  0  0  0  0
  190.2510  175.4180  146.9530 C   0  0  0  0  0  0  0  0  0  0  0  0
  190.5440  175.0570  145.6290 C   0  0  0  0  0  0  0  0  0  0  0  0
  191.0690  175.1920  147.8840 O   0  0  0  0  0  0  0  0  0  0  0  0
  185.6430  176.6860  146.0180 C   0  0  0  0  0  2  0  0  0  0  0  0
  185.7020  177.6790  144.9130 C   0  0  0  0  0  0  0  0  0  0  0  0
  186.5920  177.5600  143.9370 C   0  0  0  0  0  3  0  0  0  0  0  0
  188.1140  176.2690  146.3160 C   0  0  0  0  0  0  0  0  0  0  0  0
  187.7380  176.6340  143.9140 C   0  0  0  0  0  3  0  0  0  0  0  0
  188.4210  176.0730  144.9370 C   0  0  0  0  0  0  0  0  0  0  0  0
  191.9930  171.4840  140.4760 C   0  0  0  0  0  3  0  0  0  0  0  0
  190.2390  173.6570  140.6970 C   0  0  0  0  0  3  0  0  0  0  0  0
  190.4680  171.4910  137.1000 C   0  0  0  0  0  0  0  0  0  0  0  0
  191.2690  171.1280  138.1930 C   0  0  0  0  0  3  0  0  0  0  0  0
  191.1960  171.8450  139.3890 C   0  0  0  0  0  0  0  0  0  0  0  0
  189.5140  173.3040  138.4130 C   0  0  0  0  0  3  0  0  0  0  0  0
  190.3110  172.9400  139.5010 C   0  0  0  0  0  0  0  0  0  0  0  0
  189.5930  172.5820  137.2180 C   0  0  0  0  0  3  0  0  0  0  0  0
  191.0360  173.2970  141.7970 C   0  0  0  0  0  0  0  0  0  0  0  0
  191.9140  172.2050  141.6710 C   0  0  0  0  0  3  0  0  0  0  0  0
  190.5510  170.7320  135.8420 C   0  0  0  0  0  0  0  0  0  0  0  0
  191.1420  169.6210  135.8040 O   0  0  0  0  0  1  0  0  0  0  0  0
  189.9760  171.2360  134.6810 O   0  0  0  0  0  0  0  0  0  0  0  0
  184.6170  178.6930  144.7640 C   0  0  2  0  0  3  0  0  0  0  0  0
  185.1700  180.0020  144.2300 C   0  0  0  0  0  1  0  0  0  0  0  0
  183.9890  178.9120  145.9910 O   0  0  0  0  0  1  0  0  0  0  0  0
  1 18  1  0  0  0  0
  1 11  2  0  0  0  0
  5  4  1  1  0  0  0
  5  1  1  0  0  0  0
  6 11  1  0  0  0  0
  6  7  1  0  0  0  0
  8  6  2  0  0  0  0
  9  5  1  0  0  0  0
  9  8  1  0  0  0  0
 10  3  1  0  0  0  0
 10 12  2  0  0  0  0
 11 10  1  0  0  0  0
 13  2  1  0  0  0  0
 14 13  1  0  0  0  0
 15 14  2  0  0  0  0
 16  2  2  0  0  0  0
 16  3  1  0  0  0  0
 17 15  1  0  0  0  0
 17 18  2  0  0  0  0
 18 16  1  0  0  0  0
 19 28  1  0  0  0  0
 20 27  1  0  0  0  0
 21 26  1  0  0  0  0
 21 22  2  0  0  0  0
 22 23  1  0  0  0  0
 23 25  1  0  0  0  0
 23 19  2  0  0  0  0
 24 25  1  0  0  0  0
 25 20  2  0  0  0  0
 26 24  2  0  0  0  0
 27  9  1  0  0  0  0
 28 27  2  0  0  0  0
 29 21  1  0  0  0  0
 30 29  1  0  0  0  0
 31 29  2  0  0  0  0
 32 33  1  1  0  0  0
 32 14  1  0  0  0  0
 32 34  1  0  0  0  0
M  END
>  <MODEL>
5

>  <REMARK>
 VINA RESULT:      -8.3      3.776      8.190
  Name = 
  3 active torsions:
  status: ('A' for Active; 'I' for Inactive)
    1  A    between atoms: C_3  and  C_25
    2  A    between atoms: C_7  and  C_11
    3  A    between atoms: N_18  and  C_30
                            x       y       z     vdW  Elec       q    Type
                         _______ _______ _______ _____ _____    ______ ____

>  <TORSDO>
F 3

$$$$
=
 OpenBabel11052420263D

 34 38  0  0  1  0  0  0  0  0999 V2000
  190.5850  176.8950  144.8000 C   0  0  0  0  0  0  0  0  0  0  0  0
  187.2710  177.0120  146.4120 C   0  0  0  0  0  3  0  0  0  0  0  0
  189.3790  176.9290  147.2820 N   0  0  0  0  0  2  0  0  0  0  0  0
  191.5700  178.3010  143.1640 F   0  0  0  0  0  0  0  0  0  0  0  0
  191.2970  176.9780  143.4650 C   0  0  1  0  0  3  0  0  0  0  0  0
  192.8000  176.3740  145.8420 C   0  0  0  0  0  0  0  0  0  0  0  0
  193.5920  176.2780  146.9370 F   0  0  0  0  0  0  0  0  0  0  0  0
  193.3330  176.1180  144.6490 C   0  0  0  0  0  3  0  0  0  0  0  0
  192.5450  176.2070  143.4510 N   0  0  0  0  0  0  0  0  0  0  0  0
  190.7200  176.7550  147.2130 C   0  0  0  0  0  0  0  0  0  0  0  0
  191.3530  176.6830  145.9640 C   0  0  0  0  0  0  0  0  0  0  0  0
  191.3750  176.6280  148.2820 O   0  0  0  0  0  0  0  0  0  0  0  0
  186.2100  176.8450  145.3790 C   0  0  0  0  0  2  0  0  0  0  0  0
  186.1810  177.9660  144.4030 C   0  0  0  0  0  0  0  0  0  0  0  0
  187.2360  178.2360  143.6450 C   0  0  0  0  0  3  0  0  0  0  0  0
  188.5890  177.0760  146.1880 C   0  0  0  0  0  0  0  0  0  0  0  0
  188.5870  177.6700  143.8010 C   0  0  0  0  0  3  0  0  0  0  0  0
  189.1970  177.1730  144.9010 C   0  0  0  0  0  0  0  0  0  0  0  0
  194.7760  175.7130  140.4680 C   0  0  0  0  0  3  0  0  0  0  0  0
  192.3740  174.7020  141.4930 C   0  0  0  0  0  3  0  0  0  0  0  0
  193.8920  173.2400  137.8560 C   0  0  0  0  0  0  0  0  0  0  0  0
  194.5870  174.2350  138.5590 C   0  0  0  0  0  3  0  0  0  0  0  0
  194.0860  174.7230  139.7680 C   0  0  0  0  0  0  0  0  0  0  0  0
  192.1810  173.2240  139.5850 C   0  0  0  0  0  3  0  0  0  0  0  0
  192.8740  174.2130  140.2850 C   0  0  0  0  0  0  0  0  0  0  0  0
  192.6890  172.7400  138.3750 C   0  0  0  0  0  3  0  0  0  0  0  0
  193.0650  175.6970  142.2060 C   0  0  0  0  0  0  0  0  0  0  0  0
  194.2690  176.1970  141.6780 C   0  0  0  0  0  3  0  0  0  0  0  0
  194.4250  172.7310  136.5820 C   0  0  0  0  0  0  0  0  0  0  0  0
  194.8170  171.5370  136.4850 O   0  0  0  0  0  1  0  0  0  0  0  0
  194.5030  173.5640  135.4720 O   0  0  0  0  0  0  0  0  0  0  0  0
  184.8930  178.6580  144.1000 C   0  0  2  0  0  3  0  0  0  0  0  0
  184.0530  178.8110  145.3550 C   0  0  0  0  0  1  0  0  0  0  0  0
  184.1780  177.9440  143.1370 O   0  0  0  0  0  1  0  0  0  0  0  0
  1 18  1  0  0  0  0
  1 11  2  0  0  0  0
  5  4  1  1  0  0  0
  5  1  1  0  0  0  0
  6 11  1  0  0  0  0
  6  7  1  0  0  0  0
  8  6  2  0  0  0  0
  9  5  1  0  0  0  0
  9  8  1  0  0  0  0
 10  3  1  0  0  0  0
 10 12  2  0  0  0  0
 11 10  1  0  0  0  0
 13  2  1  0  0  0  0
 14 13  1  0  0  0  0
 15 17  1  0  0  0  0
 15 14  2  0  0  0  0
 16  2  2  0  0  0  0
 16  3  1  0  0  0  0
 17 18  2  0  0  0  0
 18 16  1  0  0  0  0
 19 28  1  0  0  0  0
 20 27  1  0  0  0  0
 21 26  1  0  0  0  0
 21 22  2  0  0  0  0
 22 23  1  0  0  0  0
 23 25  1  0  0  0  0
 23 19  2  0  0  0  0
 24 25  1  0  0  0  0
 25 20  2  0  0  0  0
 26 24  2  0  0  0  0
 27  9  1  0  0  0  0
 28 27  2  0  0  0  0
 29 21  1  0  0  0  0
 30 29  1  0  0  0  0
 31 29  2  0  0  0  0
 32 14  1  0  0  0  0
 32 33  1  1  0  0  0
 34 32  1  0  0  0  0
M  END
>  <MODEL>
6

>  <REMARK>
 VINA RESULT:      -8.1      2.130      8.442
  Name = 
  3 active torsions:
  status: ('A' for Active; 'I' for Inactive)
    1  A    between atoms: C_3  and  C_25
    2  A    between atoms: C_7  and  C_11
    3  A    between atoms: N_18  and  C_30
                            x       y       z     vdW  Elec       q    Type
                         _______ _______ _______ _____ _____    ______ ____

>  <TORSDO>
F 3

$$$$
=
 OpenBabel11052420263D

 34 38  0  0  1  0  0  0  0  0999 V2000
  192.3880  172.0000  143.5760 C   0  0  0  0  0  0  0  0  0  0  0  0
  194.3230  168.9090  144.1130 C   0  0  0  0  0  3  0  0  0  0  0  0
  193.3340  169.7730  142.2480 N   0  0  0  0  0  2  0  0  0  0  0  0
  192.9020  174.2630  144.0650 F   0  0  0  0  0  0  0  0  0  0  0  0
  191.9350  173.2880  144.2350 C   0  0  1  0  0  3  0  0  0  0  0  0
  190.9900  172.6320  141.5980 C   0  0  0  0  0  0  0  0  0  0  0  0
  190.6630  172.4820  140.2910 F   0  0  0  0  0  0  0  0  0  0  0  0
  190.3520  173.5590  142.3090 C   0  0  0  0  0  3  0  0  0  0  0  0
  190.6570  173.7690  143.6980 N   0  0  0  0  0  0  0  0  0  0  0  0
  192.5180  170.6280  141.5860 C   0  0  0  0  0  0  0  0  0  0  0  0
  191.9810  171.7400  142.2500 C   0  0  0  0  0  0  0  0  0  0  0  0
  192.2280  170.3860  140.3830 O   0  0  0  0  0  0  0  0  0  0  0  0
  194.5640  168.7210  145.5710 C   0  0  0  0  0  2  0  0  0  0  0  0
  195.4160  169.7910  146.1530 C   0  0  0  0  0  0  0  0  0  0  0  0
  195.0330  171.0610  146.1200 C   0  0  0  0  0  3  0  0  0  0  0  0
  193.7040  169.9490  143.5420 C   0  0  0  0  0  0  0  0  0  0  0  0
  193.9030  171.6070  145.3470 C   0  0  0  0  0  3  0  0  0  0  0  0
  193.3210  171.1450  144.2180 C   0  0  0  0  0  0  0  0  0  0  0  0
  188.9520  175.2530  146.6990 C   0  0  0  0  0  3  0  0  0  0  0  0
  188.9520  175.5490  143.9140 C   0  0  0  0  0  3  0  0  0  0  0  0
  186.4410  177.9440  146.2880 C   0  0  0  0  0  0  0  0  0  0  0  0
  187.2810  176.9950  146.8880 C   0  0  0  0  0  3  0  0  0  0  0  0
  188.1170  176.1980  146.1030 C   0  0  0  0  0  0  0  0  0  0  0  0
  187.2790  177.2910  144.1000 C   0  0  0  0  0  3  0  0  0  0  0  0
  188.1170  176.3470  144.6980 C   0  0  0  0  0  0  0  0  0  0  0  0
  186.4460  178.0860  144.8920 C   0  0  0  0  0  3  0  0  0  0  0  0
  189.7990  174.5980  144.5080 C   0  0  0  0  0  0  0  0  0  0  0  0
  189.7870  174.4580  145.9070 C   0  0  0  0  0  3  0  0  0  0  0  0
  185.5620  178.7810  147.1220 C   0  0  0  0  0  0  0  0  0  0  0  0
  186.0490  179.6590  147.8820 O   0  0  0  0  0  1  0  0  0  0  0  0
  184.1830  178.6080  147.0780 O   0  0  0  0  0  0  0  0  0  0  0  0
  196.6030  169.4310  146.9840 C   0  0  2  0  0  3  0  0  0  0  0  0
  197.7770  169.0340  146.1060 C   0  0  0  0  0  1  0  0  0  0  0  0
  196.2860  168.3820  147.8490 O   0  0  0  0  0  1  0  0  0  0  0  0
  1 18  1  0  0  0  0
  1  5  1  0  0  0  0
  2 13  1  0  0  0  0
  3 16  1  0  0  0  0
  5  4  1  6  0  0  0
  6 11  1  0  0  0  0
  6  8  2  0  0  0  0
  7  6  1  0  0  0  0
  8  9  1  0  0  0  0
  9  5  1  0  0  0  0
  9 27  1  0  0  0  0
 10  3  1  0  0  0  0
 10 11  1  0  0  0  0
 11  1  2  0  0  0  0
 12 10  2  0  0  0  0
 13 14  1  0  0  0  0
 14 32  1  0  0  0  0
 15 14  2  0  0  0  0
 16  2  2  0  0  0  0
 16 18  1  0  0  0  0
 17 15  1  0  0  0  0
 18 17  2  0  0  0  0
 20 27  2  0  0  0  0
 20 25  1  0  0  0  0
 21 22  1  0  0  0  0
 21 29  1  0  0  0  0
 23 19  1  0  0  0  0
 23 22  2  0  0  0  0
 24 25  2  0  0  0  0
 24 26  1  0  0  0  0
 25 23  1  0  0  0  0
 26 21  2  0  0  0  0
 27 28  1  0  0  0  0
 28 19  2  0  0  0  0
 29 30  1  0  0  0  0
 31 29  2  0  0  0  0
 32 33  1  6  0  0  0
 32 34  1  0  0  0  0
M  END
>  <MODEL>
7

>  <REMARK>
 VINA RESULT:      -8.1      4.716      6.237
  Name = 
  3 active torsions:
  status: ('A' for Active; 'I' for Inactive)
    1  A    between atoms: C_3  and  C_25
    2  A    between atoms: C_7  and  C_11
    3  A    between atoms: N_18  and  C_30
                            x       y       z     vdW  Elec       q    Type
                         _______ _______ _______ _____ _____    ______ ____

>  <TORSDO>
F 3

$$$$
=
 OpenBabel11052420263D

 34 38  0  0  1  0  0  0  0  0999 V2000
  193.5020  174.8220  143.2550 C   0  0  0  0  0  0  0  0  0  0  0  0
  195.4650  175.0510  140.1430 C   0  0  0  0  0  3  0  0  0  0  0  0
  196.0990  174.9610  142.3320 N   0  0  0  0  0  2  0  0  0  0  0  0
  191.8190  173.2910  143.9250 F   0  0  0  0  0  0  0  0  0  0  0  0
  192.1010  174.6410  143.8050 C   0  0  1  0  0  3  0  0  0  0  0  0
  194.2800  175.1620  145.6090 C   0  0  0  0  0  0  0  0  0  0  0  0
  195.2800  175.2120  146.5230 F   0  0  0  0  0  0  0  0  0  0  0  0
  193.0280  175.3390  146.0280 C   0  0  0  0  0  3  0  0  0  0  0  0
  191.9260  175.2930  145.1080 N   0  0  0  0  0  0  0  0  0  0  0  0
  195.8800  175.0080  143.6680 C   0  0  0  0  0  0  0  0  0  0  0  0
  194.5680  174.9910  144.1630 C   0  0  0  0  0  0  0  0  0  0  0  0
  196.8670  175.1020  144.4460 O   0  0  0  0  0  0  0  0  0  0  0  0
  194.5470  175.2890  138.9930 C   0  0  0  0  0  2  0  0  0  0  0  0
  193.6190  174.1520  138.7570 C   0  0  0  0  0  0  0  0  0  0  0  0
  192.7610  173.7670  139.6930 C   0  0  0  0  0  3  0  0  0  0  0  0
  195.1020  174.8600  141.4170 C   0  0  0  0  0  0  0  0  0  0  0  0
  192.7520  174.2100  141.0980 C   0  0  0  0  0  3  0  0  0  0  0  0
  193.7610  174.6760  141.8680 C   0  0  0  0  0  0  0  0  0  0  0  0
  188.7900  175.6520  147.1460 C   0  0  0  0  0  3  0  0  0  0  0  0
  189.8630  176.6120  144.7430 C   0  0  0  0  0  3  0  0  0  0  0  0
  186.0360  177.8370  145.9790 C   0  0  0  0  0  0  0  0  0  0  0  0
  186.7790  176.9480  146.7690 C   0  0  0  0  0  3  0  0  0  0  0  0
  188.0510  176.5380  146.3620 C   0  0  0  0  0  0  0  0  0  0  0  0
  187.8520  177.9060  144.3620 C   0  0  0  0  0  3  0  0  0  0  0  0
  188.5920  177.0220  145.1500 C   0  0  0  0  0  0  0  0  0  0  0  0
  186.5800  178.3120  144.7760 C   0  0  0  0  0  3  0  0  0  0  0  0
  190.6150  175.7220  145.5300 C   0  0  0  0  0  0  0  0  0  0  0  0
  190.0630  175.2470  146.7340 C   0  0  0  0  0  3  0  0  0  0  0  0
  184.6960  178.2640  146.4130 C   0  0  0  0  0  0  0  0  0  0  0  0
  184.3990  178.2900  147.6370 O   0  0  0  0  0  1  0  0  0  0  0  0
  183.7430  178.6420  145.4740 O   0  0  0  0  0  0  0  0  0  0  0  0
  193.4810  173.5740  137.3870 C   0  0  2  0  0  3  0  0  0  0  0  0
  192.2540  172.6850  137.2970 C   0  0  0  0  0  1  0  0  0  0  0  0
  194.6210  172.8410  137.0560 O   0  0  0  0  0  1  0  0  0  0  0  0
  1  5  1  0  0  0  0
  1 11  2  0  0  0  0
  2 16  2  0  0  0  0
  3 10  1  0  0  0  0
  5  4  1  1  0  0  0
  5  9  1  0  0  0  0
  6  8  2  0  0  0  0
  6  7  1  0  0  0  0
  9 27  1  0  0  0  0
  9  8  1  0  0  0  0
 10 11  1  0  0  0  0
 10 12  2  0  0  0  0
 11  6  1  0  0  0  0
 13  2  1  0  0  0  0
 14 13  1  0  0  0  0
 14 15  2  0  0  0  0
 15 17  1  0  0  0  0
 16 18  1  0  0  0  0
 16  3  1  0  0  0  0
 17 18  2  0  0  0  0
 18  1  1  0  0  0  0
 20 25  2  0  0  0  0
 20 27  1  0  0  0  0
 21 29  1  0  0  0  0
 21 22  2  0  0  0  0
 23 22  1  0  0  0  0
 23 19  2  0  0  0  0
 24 26  2  0  0  0  0
 24 25  1  0  0  0  0
 25 23  1  0  0  0  0
 26 21  1  0  0  0  0
 27 28  2  0  0  0  0
 28 19  1  0  0  0  0
 29 30  1  0  0  0  0
 31 29  2  0  0  0  0
 32 33  1  1  0  0  0
 32 14  1  0  0  0  0
 34 32  1  0  0  0  0
M  END
>  <MODEL>
8

>  <REMARK>
 VINA RESULT:      -8.0      2.466      3.406
  Name = 
  3 active torsions:
  status: ('A' for Active; 'I' for Inactive)
    1  A    between atoms: C_3  and  C_25
    2  A    between atoms: C_7  and  C_11
    3  A    between atoms: N_18  and  C_30
                            x       y       z     vdW  Elec       q    Type
                         _______ _______ _______ _____ _____    ______ ____

>  <TORSDO>
F 3

$$$$
=
 OpenBabel11052420263D

 34 38  0  0  1  0  0  0  0  0999 V2000
  193.7720  175.5890  142.1270 C   0  0  0  0  0  0  0  0  0  0  0  0
  195.9780  175.1790  139.2010 C   0  0  0  0  0  3  0  0  0  0  0  0
  196.4290  175.6670  141.3840 N   0  0  0  0  0  2  0  0  0  0  0  0
  192.1100  174.1630  143.0350 F   0  0  0  0  0  0  0  0  0  0  0  0
  192.3400  175.4580  142.6040 C   0  0  1  0  0  3  0  0  0  0  0  0
  194.3330  176.5440  144.3710 C   0  0  0  0  0  0  0  0  0  0  0  0
  195.2490  176.8800  145.3120 F   0  0  0  0  0  0  0  0  0  0  0  0
  193.0440  176.7350  144.6430 C   0  0  0  0  0  3  0  0  0  0  0  0
  192.0260  176.3950  143.6880 N   0  0  0  0  0  0  0  0  0  0  0  0
  196.0960  176.0250  142.6460 C   0  0  0  0  0  0  0  0  0  0  0  0
  194.7490  176.0440  143.0370 C   0  0  0  0  0  0  0  0  0  0  0  0
  197.0090  176.3690  143.4440 O   0  0  0  0  0  0  0  0  0  0  0  0
  195.1510  175.0690  137.9670 C   0  0  0  0  0  2  0  0  0  0  0  0
  194.2990  173.8500  137.9560 C   0  0  0  0  0  0  0  0  0  0  0  0
  193.3840  173.6510  138.8960 C   0  0  0  0  0  3  0  0  0  0  0  0
  195.5180  175.2810  140.4540 C   0  0  0  0  0  0  0  0  0  0  0  0
  193.2350  174.4220  140.1420 C   0  0  0  0  0  3  0  0  0  0  0  0
  194.1540  175.1260  140.8410 C   0  0  0  0  0  0  0  0  0  0  0  0
  188.5860  177.7500  143.0210 C   0  0  0  0  0  3  0  0  0  0  0  0
  190.0860  176.7780  145.1770 C   0  0  0  0  0  3  0  0  0  0  0  0
  186.1280  178.0650  145.7740 C   0  0  0  0  0  0  0  0  0  0  0  0
  186.7010  178.1210  144.4950 C   0  0  0  0  0  3  0  0  0  0  0  0
  188.0160  177.6940  144.2930 C   0  0  0  0  0  0  0  0  0  0  0  0
  188.2030  177.1490  146.6540 C   0  0  0  0  0  3  0  0  0  0  0  0
  188.7720  177.2040  145.3800 C   0  0  0  0  0  0  0  0  0  0  0  0
  186.8870  177.5780  146.8490 C   0  0  0  0  0  3  0  0  0  0  0  0
  190.6660  176.8290  143.8980 C   0  0  0  0  0  0  0  0  0  0  0  0
  189.9020  177.3210  142.8250 C   0  0  0  0  0  3  0  0  0  0  0  0
  184.7430  178.5170  145.9810 C   0  0  0  0  0  0  0  0  0  0  0  0
  184.2200  178.4710  147.1260 O   0  0  0  0  0  1  0  0  0  0  0  0
  183.9970  178.9990  144.9120 O   0  0  0  0  0  0  0  0  0  0  0  0
  194.3030  172.9480  136.7660 C   0  0  2  0  0  3  0  0  0  0  0  0
  195.6280  173.0300  136.0300 C   0  0  0  0  0  1  0  0  0  0  0  0
  193.2600  173.2860  135.9020 O   0  0  0  0  0  1  0  0  0  0  0  0
  1  5  1  0  0  0  0
  1 11  2  0  0  0  0
  2 16  2  0  0  0  0
  3 10  1  0  0  0  0
  5  4  1  1  0  0  0
  5  9  1  0  0  0  0
  6  8  2  0  0  0  0
  6  7  1  0  0  0  0
  9 27  1  0  0  0  0
  9  8  1  0  0  0  0
 10 11  1  0  0  0  0
 10 12  2  0  0  0  0
 11  6  1  0  0  0  0
 13  2  1  0  0  0  0
 14 13  1  0  0  0  0
 14 15  2  0  0  0  0
 15 17  1  0  0  0  0
 16 18  1  0  0  0  0
 16  3  1  0  0  0  0
 17 18  2  0  0  0  0
 18  1  1  0  0  0  0
 19 23  1  0  0  0  0
 20 25  1  0  0  0  0
 21 29  1  0  0  0  0
 21 26  1  0  0  0  0
 22 21  2  0  0  0  0
 23 22  1  0  0  0  0
 23 25  2  0  0  0  0
 24 26  2  0  0  0  0
 25 24  1  0  0  0  0
 27 20  2  0  0  0  0
 28 19  2  0  0  0  0
 28 27  1  0  0  0  0
 29 30  1  0  0  0  0
 31 29  2  0  0  0  0
 32 33  1  6  0  0  0
 32 14  1  0  0  0  0
 34 32  1  0  0  0  0
M  END
>  <MODEL>
9

>  <REMARK>
 VINA RESULT:      -8.0      2.343      3.576
  Name = 
  3 active torsions:
  status: ('A' for Active; 'I' for Inactive)
    1  A    between atoms: C_3  and  C_25
    2  A    between atoms: C_7  and  C_11
    3  A    between atoms: N_18  and  C_30
                            x       y       z     vdW  Elec       q    Type
                         _______ _______ _______ _____ _____    ______ ____

>  <TORSDO>
F 3

$$$$
