=
 OpenBabel11052420173D

 34 37  0  0  1  0  0  0  0  0999 V2000
  191.7050  176.0600  143.8670 C   0  0  2  0  0  3  0  0  0  0  0  0
  190.5350  176.5720  147.4830 N   0  0  0  0  0  2  0  0  0  0  0  0
  192.7500  176.2370  146.6230 C   0  0  0  0  0  2  0  0  0  0  0  0
  193.9580  174.8110  143.5840 C   0  0  0  0  0  0  0  0  0  0  0  0
  195.6420  175.0460  144.1080 S   0  0  0  0  0  0  0  0  0  0  0  0
  193.6120  173.6280  143.0910 C   0  0  0  0  0  2  0  0  0  0  0  0
  193.6500  176.3170  145.4120 C   0  0  2  0  0  3  0  0  0  0  0  0
  193.0230  175.5960  144.3240 N   0  0  0  0  0  0  0  0  0  0  0  0
  194.9890  175.6520  145.6960 C   0  0  0  0  0  2  0  0  0  0  0  0
  189.4860  177.5770  147.5530 C   0  0  0  0  0  2  0  0  0  0  0  0
  188.3050  177.1270  146.7090 C   0  0  2  0  0  3  0  0  0  0  0  0
  188.5270  177.4780  145.2690 C   0  0  0  0  0  3  0  0  0  0  0  0
  191.3740  176.8280  146.3170 C   0  0  1  0  0  3  0  0  0  0  0  0
  189.5850  177.0790  144.5540 C   0  0  0  0  0  3  0  0  0  0  0  0
  190.7210  176.2130  145.0460 C   0  0  1  0  0  3  0  0  0  0  0  0
  187.0390  177.7570  147.2010 C   0  0  0  0  0  0  0  0  0  0  0  0
  185.7270  177.2040  146.7640 C   0  0  0  0  0  1  0  0  0  0  0  0
  187.0690  178.7180  147.9550 O   0  0  0  0  0  0  0  0  0  0  0  0
  191.0960  175.1790  142.7740 C   0  0  0  0  0  2  0  0  0  0  0  0
  190.2580  174.0570  143.3750 C   0  0  0  0  0  2  0  0  0  0  0  0
  188.9220  172.5940  141.8860 C   0  0  0  0  0  1  0  0  0  0  0  0
  188.9350  173.9080  142.6390 C   0  0  2  0  0  3  0  0  0  0  0  0
  188.7690  174.9840  141.7200 O   0  0  0  0  0  0  0  0  0  0  0  0
  187.1220  178.2120  141.1350 N   0  0  0  0  0  2  0  0  0  0  0  0
  185.1240  177.6810  142.4050 C   0  0  0  0  0  0  0  0  0  0  0  0
  185.6720  178.1190  141.0850 C   0  0  0  0  0  2  0  0  0  0  0  0
  187.6810  176.9370  140.7000 C   0  0  1  0  0  3  0  0  0  0  0  0
  186.8020  175.8000  142.7710 C   0  0  0  0  0  3  0  0  0  0  0  0
  187.7100  175.8990  141.7820 C   0  0  0  0  0  0  0  0  0  0  0  0
  185.6270  176.6420  143.0840 C   0  0  0  0  0  3  0  0  0  0  0  0
  187.0730  176.4550  139.5500 F   0  0  0  0  0  0  0  0  0  0  0  0
  183.9340  178.3730  142.9330 C   0  0  0  0  0  0  0  0  0  0  0  0
  183.9890  179.0710  144.1740 N   0  0  0  0  0  1  0  0  0  0  0  0
  182.8510  178.3530  142.2880 O   0  0  0  0  0  0  0  0  0  0  0  0
  1 19  1  6  0  0  0
  1  8  1  0  0  0  0
  1 15  1  0  0  0  0
  2 10  1  0  0  0  0
  4  5  1  0  0  0  0
  4  8  1  0  0  0  0
  5  9  1  0  0  0  0
  6  4  2  0  0  0  0
  7  9  1  1  0  0  0
  7  3  1  0  0  0  0
  8  7  1  0  0  0  0
 11 16  1  1  0  0  0
 11 10  1  0  0  0  0
 12 11  1  0  0  0  0
 13  3  1  1  0  0  0
 13  2  1  0  0  0  0
 14 12  2  0  0  0  0
 15 14  1  6  0  0  0
 15 13  1  0  0  0  0
 16 18  2  0  0  0  0
 17 16  1  0  0  0  0
 19 20  1  0  0  0  0
 22 21  1  6  0  0  0
 22 20  1  0  0  0  0
 23 29  1  0  0  0  0
 23 22  1  0  0  0  0
 25 32  1  0  0  0  0
 25 30  2  0  0  0  0
 26 24  1  0  0  0  0
 26 25  1  0  0  0  0
 27 31  1  6  0  0  0
 27 24  1  0  0  0  0
 27 29  1  0  0  0  0
 28 30  1  0  0  0  0
 29 28  2  0  0  0  0
 32 33  1  0  0  0  0
 34 32  2  0  0  0  0
M  END
>  <MODEL>
1

>  <REMARK>
 VINA RESULT:      -7.7      0.000      0.000
  Name = 
  7 active torsions:
  status: ('A' for Active; 'I' for Inactive)
    1  A    between atoms: C_1  and  C_9
    2  A    between atoms: C_3  and  C_25
    3  A    between atoms: O_6  and  C_28
    4  A    between atoms: O_6  and  C_30
    5  A    between atoms: C_7  and  C_11
    6  A    between atoms: C_8  and  C_9
    7  A    between atoms: C_8  and  C_30
                            x       y       z     vdW  Elec       q    Type
                         _______ _______ _______ _____ _____    ______ ____

>  <TORSDO>
F 7

$$$$
=
 OpenBabel11052420173D

 34 37  0  0  1  0  0  0  0  0999 V2000
  187.5060  177.1740  144.6350 C   0  0  2  0  0  3  0  0  0  0  0  0
  190.0070  177.5770  147.5150 N   0  0  0  0  0  2  0  0  0  0  0  0
  187.6390  177.9630  147.4780 C   0  0  0  0  0  2  0  0  0  0  0  0
  185.3490  178.5980  144.8170 C   0  0  0  0  0  0  0  0  0  0  0  0
  184.0080  178.7740  145.9720 S   0  0  0  0  0  0  0  0  0  0  0  0
  185.4930  179.5220  143.8740 C   0  0  0  0  0  2  0  0  0  0  0  0
  186.3310  177.6640  146.7830 C   0  0  2  0  0  3  0  0  0  0  0  0
  186.4870  177.9370  145.3700 N   0  0  0  0  0  0  0  0  0  0  0  0
  185.2270  178.5700  147.3090 C   0  0  0  0  0  2  0  0  0  0  0  0
  190.9790  176.4950  147.5150 C   0  0  0  0  0  2  0  0  0  0  0  0
  191.7360  176.5010  146.1970 C   0  0  2  0  0  3  0  0  0  0  0  0
  190.9540  175.7810  145.1400 C   0  0  0  0  0  3  0  0  0  0  0  0
  188.7700  177.1160  146.8950 C   0  0  1  0  0  3  0  0  0  0  0  0
  189.7050  176.1030  144.7800 C   0  0  0  0  0  3  0  0  0  0  0  0
  188.8750  177.2300  145.3470 C   0  0  1  0  0  3  0  0  0  0  0  0
  193.0810  175.8670  146.3620 C   0  0  0  0  0  0  0  0  0  0  0  0
  193.2710  174.4400  145.9780 C   0  0  0  0  0  1  0  0  0  0  0  0
  194.0240  176.5030  146.8070 O   0  0  0  0  0  0  0  0  0  0  0  0
  187.6470  177.5980  143.1720 C   0  0  0  0  0  2  0  0  0  0  0  0
  187.0270  176.5650  142.2380 C   0  0  0  0  0  2  0  0  0  0  0  0
  186.6680  177.3710  139.9220 C   0  0  0  0  0  1  0  0  0  0  0  0
  187.6320  176.6550  140.8460 C   0  0  2  0  0  3  0  0  0  0  0  0
  187.8890  175.3470  140.3430 O   0  0  0  0  0  0  0  0  0  0  0  0
  188.5430  172.4250  142.4680 N   0  0  0  0  0  2  0  0  0  0  0  0
  190.9530  172.7010  142.4950 C   0  0  0  0  0  0  0  0  0  0  0  0
  189.8160  171.7820  142.1870 C   0  0  0  0  0  2  0  0  0  0  0  0
  188.0720  173.0690  141.2460 C   0  0  1  0  0  3  0  0  0  0  0  0
  189.9500  174.7470  141.3590 C   0  0  0  0  0  3  0  0  0  0  0  0
  188.6970  174.4100  141.0000 C   0  0  0  0  0  0  0  0  0  0  0  0
  190.9830  173.9740  142.0820 C   0  0  0  0  0  3  0  0  0  0  0  0
  188.1830  172.2450  140.1360 F   0  0  0  0  0  0  0  0  0  0  0  0
  192.1200  172.1540  143.2130 C   0  0  0  0  0  0  0  0  0  0  0  0
  193.4440  172.4140  142.7540 N   0  0  0  0  0  1  0  0  0  0  0  0
  191.9560  171.4490  144.2440 O   0  0  0  0  0  0  0  0  0  0  0  0
  1 19  1  6  0  0  0
  1 15  1  0  0  0  0
  1  8  1  0  0  0  0
  4  8  1  0  0  0  0
  4  5  1  0  0  0  0
  5  9  1  0  0  0  0
  6  4  2  0  0  0  0
  7  9  1  1  0  0  0
  7  3  1  0  0  0  0
  8  7  1  0  0  0  0
 10  2  1  0  0  0  0
 11 16  1  1  0  0  0
 11 10  1  0  0  0  0
 12 11  1  0  0  0  0
 13  3  1  1  0  0  0
 13  2  1  0  0  0  0
 14 12  2  0  0  0  0
 15 14  1  6  0  0  0
 15 13  1  0  0  0  0
 16 18  2  0  0  0  0
 17 16  1  0  0  0  0
 20 19  1  0  0  0  0
 22 21  1  6  0  0  0
 22 20  1  0  0  0  0
 23 22  1  0  0  0  0
 23 29  1  0  0  0  0
 25 32  1  0  0  0  0
 26 24  1  0  0  0  0
 26 25  1  0  0  0  0
 27 31  1  6  0  0  0
 27 24  1  0  0  0  0
 28 30  1  0  0  0  0
 29 27  1  0  0  0  0
 29 28  2  0  0  0  0
 30 25  2  0  0  0  0
 32 34  2  0  0  0  0
 33 32  1  0  0  0  0
M  END
>  <MODEL>
2

>  <REMARK>
 VINA RESULT:      -7.6      3.271      6.658
  Name = 
  7 active torsions:
  status: ('A' for Active; 'I' for Inactive)
    1  A    between atoms: C_1  and  C_9
    2  A    between atoms: C_3  and  C_25
    3  A    between atoms: O_6  and  C_28
    4  A    between atoms: O_6  and  C_30
    5  A    between atoms: C_7  and  C_11
    6  A    between atoms: C_8  and  C_9
    7  A    between atoms: C_8  and  C_30
                            x       y       z     vdW  Elec       q    Type
                         _______ _______ _______ _____ _____    ______ ____

>  <TORSDO>
F 7

$$$$
=
 OpenBabel11052420173D

 34 37  0  0  1  0  0  0  0  0999 V2000
  188.0690  176.7810  145.0010 C   0  0  2  0  0  3  0  0  0  0  0  0
  187.5840  174.7140  141.8060 N   0  0  0  0  0  2  0  0  0  0  0  0
  186.2020  176.4410  142.7380 C   0  0  0  0  0  2  0  0  0  0  0  0
  185.9070  177.7650  146.0380 C   0  0  0  0  0  0  0  0  0  0  0  0
  184.6030  178.8570  145.5160 S   0  0  0  0  0  0  0  0  0  0  0  0
  185.7290  177.0560  147.1450 C   0  0  0  0  0  2  0  0  0  0  0  0
  186.1400  177.6330  143.6650 C   0  0  2  0  0  3  0  0  0  0  0  0
  186.6750  177.2440  144.9520 N   0  0  0  0  0  0  0  0  0  0  0  0
  184.6980  178.0700  143.8760 C   0  0  0  0  0  2  0  0  0  0  0  0
  188.8480  174.5250  141.1130 C   0  0  0  0  0  2  0  0  0  0  0  0
  189.8190  173.7990  142.0300 C   0  0  2  0  0  3  0  0  0  0  0  0
  190.4880  174.7690  142.9570 C   0  0  0  0  0  3  0  0  0  0  0  0
  187.6400  175.9450  142.5880 C   0  0  1  0  0  3  0  0  0  0  0  0
  189.8320  175.5870  143.7880 C   0  0  0  0  0  3  0  0  0  0  0  0
  188.3330  175.6770  143.9550 C   0  0  1  0  0  3  0  0  0  0  0  0
  190.8460  173.0630  141.2280 C   0  0  0  0  0  0  0  0  0  0  0  0
  191.8840  173.8310  140.4840 C   0  0  0  0  0  1  0  0  0  0  0  0
  190.8440  171.8430  141.1760 O   0  0  0  0  0  0  0  0  0  0  0  0
  188.5070  176.3150  146.3910 C   0  0  0  0  0  2  0  0  0  0  0  0
  189.4890  177.2990  147.0160 C   0  0  0  0  0  2  0  0  0  0  0  0
  191.4260  177.2220  148.5600 C   0  0  0  0  0  1  0  0  0  0  0  0
  190.8250  176.6310  147.3010 C   0  0  2  0  0  3  0  0  0  0  0  0
  191.7140  176.8400  146.2070 O   0  0  0  0  0  0  0  0  0  0  0  0
  194.9120  175.9790  144.6240 N   0  0  0  0  0  2  0  0  0  0  0  0
  194.9630  173.6960  145.4460 C   0  0  0  0  0  0  0  0  0  0  0  0
  195.6840  175.0030  145.3780 C   0  0  0  0  0  2  0  0  0  0  0  0
  194.0810  176.7310  145.5580 C   0  0  1  0  0  3  0  0  0  0  0  0
  192.6890  174.6820  146.0310 C   0  0  0  0  0  3  0  0  0  0  0  0
  192.8160  176.0190  145.9370 C   0  0  0  0  0  0  0  0  0  0  0  0
  193.6670  173.6040  145.7700 C   0  0  0  0  0  3  0  0  0  0  0  0
  194.7850  177.1450  146.6790 F   0  0  0  0  0  0  0  0  0  0  0  0
  195.7350  172.4590  145.2260 C   0  0  0  0  0  0  0  0  0  0  0  0
  196.8530  172.1420  146.0520 N   0  0  0  0  0  1  0  0  0  0  0  0
  195.4130  171.6670  144.3010 O   0  0  0  0  0  0  0  0  0  0  0  0
  1 19  1  1  0  0  0
  2 13  1  0  0  0  0
  4  6  2  0  0  0  0
  5  4  1  0  0  0  0
  7  3  1  6  0  0  0
  7  9  1  0  0  0  0
  7  8  1  0  0  0  0
  8  1  1  0  0  0  0
  8  4  1  0  0  0  0
  9  5  1  0  0  0  0
 10  2  1  0  0  0  0
 10 11  1  0  0  0  0
 11 16  1  6  0  0  0
 11 12  1  0  0  0  0
 12 14  2  0  0  0  0
 13  3  1  1  0  0  0
 13 15  1  0  0  0  0
 15 14  1  6  0  0  0
 15  1  1  0  0  0  0
 17 16  1  0  0  0  0
 18 16  2  0  0  0  0
 19 20  1  0  0  0  0
 20 22  1  0  0  0  0
 22 21  1  1  0  0  0
 23 22  1  0  0  0  0
 24 26  1  0  0  0  0
 24 27  1  0  0  0  0
 25 30  2  0  0  0  0
 26 25  1  0  0  0  0
 27 29  1  0  0  0  0
 27 31  1  1  0  0  0
 29 28  2  0  0  0  0
 29 23  1  0  0  0  0
 30 28  1  0  0  0  0
 32 25  1  0  0  0  0
 32 33  1  0  0  0  0
 34 32  2  0  0  0  0
M  END
>  <MODEL>
3

>  <REMARK>
 VINA RESULT:      -7.5      3.789      8.602
  Name = 
  7 active torsions:
  status: ('A' for Active; 'I' for Inactive)
    1  A    between atoms: C_1  and  C_9
    2  A    between atoms: C_3  and  C_25
    3  A    between atoms: O_6  and  C_28
    4  A    between atoms: O_6  and  C_30
    5  A    between atoms: C_7  and  C_11
    6  A    between atoms: C_8  and  C_9
    7  A    between atoms: C_8  and  C_30
                            x       y       z     vdW  Elec       q    Type
                         _______ _______ _______ _____ _____    ______ ____

>  <TORSDO>
F 7

$$$$
=
 OpenBabel11052420173D

 34 37  0  0  1  0  0  0  0  0999 V2000
  189.0570  175.1340  143.6880 C   0  0  2  0  0  3  0  0  0  0  0  0
  186.3350  177.2160  141.9660 N   0  0  0  0  0  2  0  0  0  0  0  0
  187.8000  175.5510  141.0480 C   0  0  0  0  0  2  0  0  0  0  0  0
  190.9360  174.2450  142.1400 C   0  0  0  0  0  0  0  0  0  0  0  0
  191.0420  173.2100  140.6970 S   0  0  0  0  0  0  0  0  0  0  0  0
  192.0000  174.9640  142.4780 C   0  0  0  0  0  2  0  0  0  0  0  0
  188.6890  174.3640  141.3420 C   0  0  2  0  0  3  0  0  0  0  0  0
  189.6170  174.7320  142.3900 N   0  0  0  0  0  0  0  0  0  0  0  0
  189.5040  173.9900  140.1120 C   0  0  0  0  0  2  0  0  0  0  0  0
  185.1650  177.3490  142.8180 C   0  0  0  0  0  2  0  0  0  0  0  0
  185.5660  178.0330  144.1150 C   0  0  2  0  0  3  0  0  0  0  0  0
  186.1380  177.0370  145.0780 C   0  0  0  0  0  3  0  0  0  0  0  0
  187.0420  175.9840  142.3030 C   0  0  1  0  0  3  0  0  0  0  0  0
  187.1860  176.2490  144.8090 C   0  0  0  0  0  3  0  0  0  0  0  0
  187.9770  176.2240  143.5230 C   0  0  1  0  0  3  0  0  0  0  0  0
  184.3880  178.7240  144.7300 C   0  0  0  0  0  0  0  0  0  0  0  0
  184.2040  178.6830  146.2070 C   0  0  0  0  0  1  0  0  0  0  0  0
  183.5780  179.3170  144.0350 O   0  0  0  0  0  0  0  0  0  0  0  0
  190.1190  175.5820  144.6950 C   0  0  0  0  0  2  0  0  0  0  0  0
  190.2690  174.5690  145.8240 C   0  0  0  0  0  2  0  0  0  0  0  0
  190.1180  176.7220  147.0410 C   0  0  0  0  0  1  0  0  0  0  0  0
  190.5130  175.2640  147.1530 C   0  0  2  0  0  3  0  0  0  0  0  0
  191.8920  175.1700  147.5020 O   0  0  0  0  0  0  0  0  0  0  0  0
  193.8450  176.8050  144.8590 N   0  0  0  0  0  2  0  0  0  0  0  0
  195.3020  174.9090  144.4490 C   0  0  0  0  0  0  0  0  0  0  0  0
  195.2280  176.3580  144.8040 C   0  0  0  0  0  2  0  0  0  0  0  0
  193.3700  176.6660  146.2320 C   0  0  1  0  0  3  0  0  0  0  0  0
  193.4760  174.1530  146.0550 C   0  0  0  0  0  3  0  0  0  0  0  0
  192.9350  175.2720  146.5730 C   0  0  0  0  0  0  0  0  0  0  0  0
  194.5440  173.9810  145.0470 C   0  0  0  0  0  3  0  0  0  0  0  0
  194.2770  177.1560  147.1600 F   0  0  0  0  0  0  0  0  0  0  0  0
  196.3080  174.4820  143.4580 C   0  0  0  0  0  0  0  0  0  0  0  0
  196.7430  175.3720  142.4330 N   0  0  0  0  0  1  0  0  0  0  0  0
  196.7940  173.3210  143.5090 O   0  0  0  0  0  0  0  0  0  0  0  0
  1 19  1  1  0  0  0
  2 13  1  0  0  0  0
  2 10  1  0  0  0  0
  3  7  1  0  0  0  0
  4  8  1  0  0  0  0
  4  6  2  0  0  0  0
  5  4  1  0  0  0  0
  7  9  1  6  0  0  0
  7  8  1  0  0  0  0
  8  1  1  0  0  0  0
  9  5  1  0  0  0  0
 10 11  1  0  0  0  0
 11 16  1  1  0  0  0
 11 12  1  0  0  0  0
 13  3  1  6  0  0  0
 13 15  1  0  0  0  0
 14 12  2  0  0  0  0
 15  1  1  0  0  0  0
 15 14  1  1  0  0  0
 16 17  1  0  0  0  0
 18 16  2  0  0  0  0
 19 20  1  0  0  0  0
 20 22  1  0  0  0  0
 22 21  1  6  0  0  0
 22 23  1  0  0  0  0
 24 27  1  0  0  0  0
 25 26  1  0  0  0  0
 25 30  2  0  0  0  0
 26 24  1  0  0  0  0
 27 29  1  0  0  0  0
 27 31  1  1  0  0  0
 28 29  2  0  0  0  0
 29 23  1  0  0  0  0
 30 28  1  0  0  0  0
 32 34  2  0  0  0  0
 32 25  1  0  0  0  0
 33 32  1  0  0  0  0
M  END
>  <MODEL>
4

>  <REMARK>
 VINA RESULT:      -7.3      3.243      7.279
  Name = 
  7 active torsions:
  status: ('A' for Active; 'I' for Inactive)
    1  A    between atoms: C_1  and  C_9
    2  A    between atoms: C_3  and  C_25
    3  A    between atoms: O_6  and  C_28
    4  A    between atoms: O_6  and  C_30
    5  A    between atoms: C_7  and  C_11
    6  A    between atoms: C_8  and  C_9
    7  A    between atoms: C_8  and  C_30
                            x       y       z     vdW  Elec       q    Type
                         _______ _______ _______ _____ _____    ______ ____

>  <TORSDO>
F 7

$$$$
=
 OpenBabel11052420173D

 34 37  0  0  1  0  0  0  0  0999 V2000
  192.4740  174.5400  144.9300 C   0  0  2  0  0  3  0  0  0  0  0  0
  192.2210  173.9980  141.1410 N   0  0  0  0  0  2  0  0  0  0  0  0
  194.0660  173.6050  142.6250 C   0  0  0  0  0  2  0  0  0  0  0  0
  194.8700  174.8910  145.8540 C   0  0  0  0  0  0  0  0  0  0  0  0
  196.3970  173.9780  145.8710 S   0  0  0  0  0  0  0  0  0  0  0  0
  194.8990  176.1740  146.1920 C   0  0  0  0  0  2  0  0  0  0  0  0
  194.4970  173.3670  144.0540 C   0  0  2  0  0  3  0  0  0  0  0  0
  193.9380  174.4140  144.8830 N   0  0  0  0  0  0  0  0  0  0  0  0
  196.0120  173.4420  144.1740 C   0  0  0  0  0  2  0  0  0  0  0  0
  190.9220  173.4540  140.7800 C   0  0  0  0  0  2  0  0  0  0  0  0
  189.8340  174.4220  141.2160 C   0  0  2  0  0  3  0  0  0  0  0  0
  189.5020  174.2190  142.6630 C   0  0  0  0  0  3  0  0  0  0  0  0
  192.5420  173.6150  142.5120 C   0  0  1  0  0  3  0  0  0  0  0  0
  190.3950  174.2930  143.6560 C   0  0  0  0  0  3  0  0  0  0  0  0
  191.8680  174.5980  143.5120 C   0  0  1  0  0  3  0  0  0  0  0  0
  188.6070  174.2440  140.3770 C   0  0  0  0  0  0  0  0  0  0  0  0
  188.2380  172.8830  139.8970 C   0  0  0  0  0  1  0  0  0  0  0  0
  187.9070  175.2000  140.0800 O   0  0  0  0  0  0  0  0  0  0  0  0
  191.9920  175.7260  145.7670 C   0  0  0  0  0  2  0  0  0  0  0  0
  191.4300  175.2630  147.1060 C   0  0  0  0  0  2  0  0  0  0  0  0
  189.0590  174.5510  147.0030 C   0  0  0  0  0  1  0  0  0  0  0  0
  189.9890  175.7150  147.2800 C   0  0  2  0  0  3  0  0  0  0  0  0
  189.7020  176.7780  146.3750 O   0  0  0  0  0  0  0  0  0  0  0  0
  186.0460  176.8750  146.6910 N   0  0  0  0  0  2  0  0  0  0  0  0
  185.6660  177.9920  144.5700 C   0  0  0  0  0  0  0  0  0  0  0  0
  185.4430  178.0310  146.0470 C   0  0  0  0  0  2  0  0  0  0  0  0
  187.3990  177.2310  147.1030 C   0  0  1  0  0  3  0  0  0  0  0  0
  188.1350  177.3820  144.6960 C   0  0  0  0  0  3  0  0  0  0  0  0
  188.4040  177.1400  145.9930 C   0  0  0  0  0  0  0  0  0  0  0  0
  186.8650  177.7400  144.0290 C   0  0  0  0  0  3  0  0  0  0  0  0
  187.4540  178.4640  147.7370 F   0  0  0  0  0  0  0  0  0  0  0  0
  184.5350  178.3230  143.6820 C   0  0  0  0  0  0  0  0  0  0  0  0
  184.5000  177.8430  142.3410 N   0  0  0  0  0  1  0  0  0  0  0  0
  183.5860  179.0360  144.1040 O   0  0  0  0  0  0  0  0  0  0  0  0
  1 19  1  1  0  0  0
  2 13  1  0  0  0  0
  4  5  1  0  0  0  0
  4  6  2  0  0  0  0
  7  3  1  6  0  0  0
  7  9  1  0  0  0  0
  7  8  1  0  0  0  0
  8  1  1  0  0  0  0
  8  4  1  0  0  0  0
  9  5  1  0  0  0  0
 10  2  1  0  0  0  0
 10 11  1  0  0  0  0
 11 16  1  6  0  0  0
 11 12  1  0  0  0  0
 12 14  2  0  0  0  0
 13  3  1  6  0  0  0
 13 15  1  0  0  0  0
 15 14  1  1  0  0  0
 15  1  1  0  0  0  0
 17 16  1  0  0  0  0
 18 16  2  0  0  0  0
 19 20  1  0  0  0  0
 20 22  1  0  0  0  0
 22 21  1  6  0  0  0
 23 22  1  0  0  0  0
 24 27  1  0  0  0  0
 25 26  1  0  0  0  0
 26 24  1  0  0  0  0
 27 31  1  6  0  0  0
 28 29  2  0  0  0  0
 29 23  1  0  0  0  0
 29 27  1  0  0  0  0
 30 25  2  0  0  0  0
 30 28  1  0  0  0  0
 32 34  2  0  0  0  0
 32 25  1  0  0  0  0
 33 32  1  0  0  0  0
M  END
>  <MODEL>
5

>  <REMARK>
 VINA RESULT:      -7.2      2.403      4.937
  Name = 
  7 active torsions:
  status: ('A' for Active; 'I' for Inactive)
    1  A    between atoms: C_1  and  C_9
    2  A    between atoms: C_3  and  C_25
    3  A    between atoms: O_6  and  C_28
    4  A    between atoms: O_6  and  C_30
    5  A    between atoms: C_7  and  C_11
    6  A    between atoms: C_8  and  C_9
    7  A    between atoms: C_8  and  C_30
                            x       y       z     vdW  Elec       q    Type
                         _______ _______ _______ _____ _____    ______ ____

>  <TORSDO>
F 7

$$$$
=
 OpenBabel11052420173D

 34 37  0  0  1  0  0  0  0  0999 V2000
  191.5710  175.4230  144.1770 C   0  0  2  0  0  3  0  0  0  0  0  0
  194.9290  175.6560  146.0160 N   0  0  0  0  0  2  0  0  0  0  0  0
  192.7150  176.1330  146.8060 C   0  0  0  0  0  2  0  0  0  0  0  0
  189.6760  176.9240  145.1110 C   0  0  0  0  0  0  0  0  0  0  0  0
  188.8270  177.1210  146.6620 S   0  0  0  0  0  0  0  0  0  0  0  0
  189.5260  177.8660  144.1880 C   0  0  0  0  0  2  0  0  0  0  0  0
  191.2350  175.9020  146.6050 C   0  0  2  0  0  3  0  0  0  0  0  0
  190.9050  176.2060  145.2280 N   0  0  0  0  0  0  0  0  0  0  0  0
  190.4230  176.8360  147.4910 C   0  0  0  0  0  2  0  0  0  0  0  0
  195.7910  174.5380  145.6670 C   0  0  0  0  0  2  0  0  0  0  0  0
  196.0450  174.5500  144.1680 C   0  0  2  0  0  3  0  0  0  0  0  0
  194.9150  173.8880  143.4400 C   0  0  0  0  0  3  0  0  0  0  0  0
  193.5340  175.2590  145.8580 C   0  0  1  0  0  3  0  0  0  0  0  0
  193.6340  174.2660  143.5390 C   0  0  0  0  0  3  0  0  0  0  0  0
  193.1030  175.4090  144.3710 C   0  0  1  0  0  3  0  0  0  0  0  0
  197.3350  173.8600  143.8490 C   0  0  0  0  0  0  0  0  0  0  0  0
  197.8830  173.9330  142.4660 C   0  0  0  0  0  1  0  0  0  0  0  0
  197.9410  173.2380  144.7080 O   0  0  0  0  0  0  0  0  0  0  0  0
  191.2160  175.8800  142.7610 C   0  0  0  0  0  2  0  0  0  0  0  0
  190.6440  174.7300  141.9400 C   0  0  0  0  0  2  0  0  0  0  0  0
  189.2820  172.7530  142.5530 C   0  0  0  0  0  1  0  0  0  0  0  0
  189.3100  174.2670  142.5040 C   0  0  2  0  0  3  0  0  0  0  0  0
  188.2460  174.7360  141.6800 O   0  0  0  0  0  0  0  0  0  0  0  0
  187.2910  178.2800  141.7240 N   0  0  0  0  0  2  0  0  0  0  0  0
  185.4140  177.9890  143.2340 C   0  0  0  0  0  0  0  0  0  0  0  0
  185.8630  178.4900  141.9000 C   0  0  0  0  0  2  0  0  0  0  0  0
  187.4910  176.9930  141.0680 C   0  0  1  0  0  3  0  0  0  0  0  0
  186.6670  175.7760  143.1170 C   0  0  0  0  0  3  0  0  0  0  0  0
  187.4340  175.8280  142.0110 C   0  0  0  0  0  0  0  0  0  0  0  0
  185.7610  176.7850  143.7060 C   0  0  0  0  0  3  0  0  0  0  0  0
  186.6430  176.8110  139.9860 F   0  0  0  0  0  0  0  0  0  0  0  0
  184.4870  178.8260  144.0200 C   0  0  0  0  0  0  0  0  0  0  0  0
  184.9090  179.4280  145.2410 N   0  0  0  0  0  1  0  0  0  0  0  0
  183.3090  179.0180  143.6160 O   0  0  0  0  0  0  0  0  0  0  0  0
  1 19  1  6  0  0  0
  1 15  1  0  0  0  0
  1  8  1  0  0  0  0
  4  8  1  0  0  0  0
  4  5  1  0  0  0  0
  5  9  1  0  0  0  0
  6  4  2  0  0  0  0
  7  3  1  6  0  0  0
  7  9  1  0  0  0  0
  8  7  1  0  0  0  0
 10  2  1  0  0  0  0
 11 16  1  1  0  0  0
 11 10  1  0  0  0  0
 12 14  2  0  0  0  0
 12 11  1  0  0  0  0
 13  2  1  0  0  0  0
 13  3  1  1  0  0  0
 15 14  1  6  0  0  0
 15 13  1  0  0  0  0
 16 18  2  0  0  0  0
 17 16  1  0  0  0  0
 20 22  1  0  0  0  0
 20 19  1  0  0  0  0
 22 21  1  6  0  0  0
 23 29  1  0  0  0  0
 23 22  1  0  0  0  0
 24 26  1  0  0  0  0
 25 30  2  0  0  0  0
 25 32  1  0  0  0  0
 26 25  1  0  0  0  0
 27 31  1  6  0  0  0
 27 24  1  0  0  0  0
 27 29  1  0  0  0  0
 28 30  1  0  0  0  0
 29 28  2  0  0  0  0
 32 33  1  0  0  0  0
 34 32  2  0  0  0  0
M  END
>  <MODEL>
6

>  <REMARK>
 VINA RESULT:      -7.1      2.562      5.099
  Name = 
  7 active torsions:
  status: ('A' for Active; 'I' for Inactive)
    1  A    between atoms: C_1  and  C_9
    2  A    between atoms: C_3  and  C_25
    3  A    between atoms: O_6  and  C_28
    4  A    between atoms: O_6  and  C_30
    5  A    between atoms: C_7  and  C_11
    6  A    between atoms: C_8  and  C_9
    7  A    between atoms: C_8  and  C_30
                            x       y       z     vdW  Elec       q    Type
                         _______ _______ _______ _____ _____    ______ ____

>  <TORSDO>
F 7

$$$$
=
 OpenBabel11052420173D

 34 37  0  0  1  0  0  0  0  0999 V2000
  188.5680  176.6920  144.7350 C   0  0  2  0  0  3  0  0  0  0  0  0
  187.5180  174.7140  141.6220 N   0  0  0  0  0  2  0  0  0  0  0  0
  186.3160  176.3900  142.8490 C   0  0  0  0  0  2  0  0  0  0  0  0
  186.6280  177.6110  146.1870 C   0  0  0  0  0  0  0  0  0  0  0  0
  185.2380  178.6960  145.9520 S   0  0  0  0  0  0  0  0  0  0  0  0
  186.6650  176.8650  147.2840 C   0  0  0  0  0  2  0  0  0  0  0  0
  186.4150  177.5530  143.8090 C   0  0  2  0  0  3  0  0  0  0  0  0
  187.1850  177.1340  144.9620 N   0  0  0  0  0  0  0  0  0  0  0  0
  185.0330  177.9600  144.2990 C   0  0  0  0  0  2  0  0  0  0  0  0
  188.6320  174.5650  140.7000 C   0  0  0  0  0  2  0  0  0  0  0  0
  189.7650  173.8280  141.3970 C   0  0  2  0  0  3  0  0  0  0  0  0
  190.5840  174.7800  142.2140 C   0  0  0  0  0  3  0  0  0  0  0  0
  187.7060  175.9220  142.4190 C   0  0  1  0  0  3  0  0  0  0  0  0
  190.0870  175.5630  143.1790 C   0  0  0  0  0  3  0  0  0  0  0  0
  188.6440  175.6240  143.6230 C   0  0  1  0  0  3  0  0  0  0  0  0
  190.6320  173.1330  140.3950 C   0  0  0  0  0  0  0  0  0  0  0  0
  191.8030  172.3400  140.8640 C   0  0  0  0  0  1  0  0  0  0  0  0
  190.3930  173.2080  139.1990 O   0  0  0  0  0  0  0  0  0  0  0  0
  189.2620  176.1920  146.0040 C   0  0  0  0  0  2  0  0  0  0  0  0
  190.3000  177.1950  146.4950 C   0  0  0  0  0  2  0  0  0  0  0  0
  191.2970  177.1660  148.7630 C   0  0  0  0  0  1  0  0  0  0  0  0
  191.3280  176.5230  147.3920 C   0  0  2  0  0  3  0  0  0  0  0  0
  192.6290  176.6660  146.8290 O   0  0  0  0  0  0  0  0  0  0  0  0
  194.1280  173.7560  145.1690 N   0  0  0  0  0  2  0  0  0  0  0  0
  194.2010  174.7660  142.9640 C   0  0  0  0  0  0  0  0  0  0  0  0
  193.7200  173.6110  143.7810 C   0  0  0  0  0  2  0  0  0  0  0  0
  193.0600  174.4350  145.8950 C   0  0  1  0  0  3  0  0  0  0  0  0
  193.4980  176.5670  144.6210 C   0  0  0  0  0  3  0  0  0  0  0  0
  193.0830  175.9260  145.7300 C   0  0  0  0  0  0  0  0  0  0  0  0
  194.0490  176.0370  143.3550 C   0  0  0  0  0  3  0  0  0  0  0  0
  191.8080  173.9120  145.6080 F   0  0  0  0  0  0  0  0  0  0  0  0
  194.7910  174.4900  141.6410 C   0  0  0  0  0  0  0  0  0  0  0  0
  194.6800  175.4390  140.5820 N   0  0  0  0  0  1  0  0  0  0  0  0
  195.4030  173.4080  141.4330 O   0  0  0  0  0  0  0  0  0  0  0  0
  1  8  1  0  0  0  0
  1 19  1  1  0  0  0
  2 13  1  0  0  0  0
  4  6  2  0  0  0  0
  5  4  1  0  0  0  0
  7  3  1  6  0  0  0
  7  9  1  0  0  0  0
  7  8  1  0  0  0  0
  8  4  1  0  0  0  0
  9  5  1  0  0  0  0
 10 11  1  0  0  0  0
 10  2  1  0  0  0  0
 11 16  1  6  0  0  0
 11 12  1  0  0  0  0
 12 14  2  0  0  0  0
 13  3  1  1  0  0  0
 13 15  1  0  0  0  0
 15 14  1  6  0  0  0
 15  1  1  0  0  0  0
 16 17  1  0  0  0  0
 18 16  2  0  0  0  0
 19 20  1  0  0  0  0
 20 22  1  0  0  0  0
 22 21  1  1  0  0  0
 23 22  1  0  0  0  0
 24 27  1  0  0  0  0
 25 30  2  0  0  0  0
 25 26  1  0  0  0  0
 26 24  1  0  0  0  0
 27 31  1  6  0  0  0
 28 29  2  0  0  0  0
 29 27  1  0  0  0  0
 29 23  1  0  0  0  0
 30 28  1  0  0  0  0
 32 25  1  0  0  0  0
 33 32  1  0  0  0  0
 34 32  2  0  0  0  0
M  END
>  <MODEL>
7

>  <REMARK>
 VINA RESULT:      -7.1      3.560      8.121
  Name = 
  7 active torsions:
  status: ('A' for Active; 'I' for Inactive)
    1  A    between atoms: C_1  and  C_9
    2  A    between atoms: C_3  and  C_25
    3  A    between atoms: O_6  and  C_28
    4  A    between atoms: O_6  and  C_30
    5  A    between atoms: C_7  and  C_11
    6  A    between atoms: C_8  and  C_9
    7  A    between atoms: C_8  and  C_30
                            x       y       z     vdW  Elec       q    Type
                         _______ _______ _______ _____ _____    ______ ____

>  <TORSDO>
F 7

$$$$
=
 OpenBabel11052420173D

 34 37  0  0  1  0  0  0  0  0999 V2000
  189.6120  175.2220  144.0830 C   0  0  2  0  0  3  0  0  0  0  0  0
  186.4560  177.2620  143.3180 N   0  0  0  0  0  2  0  0  0  0  0  0
  187.5520  175.5850  141.9980 C   0  0  0  0  0  2  0  0  0  0  0  0
  190.8840  174.3080  142.0170 C   0  0  0  0  0  0  0  0  0  0  0  0
  190.5180  173.2460  140.6380 S   0  0  0  0  0  0  0  0  0  0  0  0
  191.9930  175.0360  141.9750 C   0  0  0  0  0  2  0  0  0  0  0  0
  188.4980  174.4060  142.0020 C   0  0  2  0  0  3  0  0  0  0  0  0
  189.7160  174.7960  142.6800 N   0  0  0  0  0  0  0  0  0  0  0  0
  188.8660  174.0100  140.5800 C   0  0  0  0  0  2  0  0  0  0  0  0
  185.6310  177.4090  144.5060 C   0  0  0  0  0  2  0  0  0  0  0  0
  186.4300  178.1190  145.5870 C   0  0  2  0  0  3  0  0  0  0  0  0
  187.2960  177.1430  146.3240 C   0  0  0  0  0  3  0  0  0  0  0  0
  187.2450  176.0390  143.4240 C   0  0  1  0  0  3  0  0  0  0  0  0
  188.2040  176.3530  145.7390 C   0  0  0  0  0  3  0  0  0  0  0  0
  188.5280  176.3050  144.2640 C   0  0  1  0  0  3  0  0  0  0  0  0
  185.5150  178.8170  146.5430 C   0  0  0  0  0  0  0  0  0  0  0  0
  184.0400  178.6810  146.3780 C   0  0  0  0  0  1  0  0  0  0  0  0
  185.9610  179.4980  147.4540 O   0  0  0  0  0  0  0  0  0  0  0  0
  190.9420  175.6920  144.6760 C   0  0  0  0  0  2  0  0  0  0  0  0
  191.4710  174.6930  145.6990 C   0  0  0  0  0  2  0  0  0  0  0  0
  191.5030  176.2650  147.6140 C   0  0  0  0  0  1  0  0  0  0  0  0
  192.3550  175.3810  146.7270 C   0  0  2  0  0  3  0  0  0  0  0  0
  193.3380  176.1740  146.0680 O   0  0  0  0  0  0  0  0  0  0  0  0
  196.4830  174.3870  145.4460 N   0  0  0  0  0  2  0  0  0  0  0  0
  196.5350  174.8430  143.0630 C   0  0  0  0  0  0  0  0  0  0  0  0
  196.5550  173.7890  144.1220 C   0  0  0  0  0  2  0  0  0  0  0  0
  195.0820  174.4580  145.8450 C   0  0  1  0  0  3  0  0  0  0  0  0
  194.6230  176.1900  144.0710 C   0  0  0  0  0  3  0  0  0  0  0  0
  194.3580  175.6390  145.2700 C   0  0  0  0  0  0  0  0  0  0  0  0
  195.6520  175.8490  143.0640 C   0  0  0  0  0  3  0  0  0  0  0  0
  194.4000  173.2760  145.5990 F   0  0  0  0  0  0  0  0  0  0  0  0
  197.4760  174.7180  141.9340 C   0  0  0  0  0  0  0  0  0  0  0  0
  197.9350  173.4370  141.5090 N   0  0  0  0  0  1  0  0  0  0  0  0
  197.8840  175.7470  141.3320 O   0  0  0  0  0  0  0  0  0  0  0  0
  1 15  1  0  0  0  0
  1 19  1  6  0  0  0
  2 13  1  0  0  0  0
  2 10  1  0  0  0  0
  3  7  1  0  0  0  0
  4  8  1  0  0  0  0
  5  4  1  0  0  0  0
  6  4  2  0  0  0  0
  7  9  1  6  0  0  0
  7  8  1  0  0  0  0
  8  1  1  0  0  0  0
  9  5  1  0  0  0  0
 10 11  1  0  0  0  0
 11 12  1  0  0  0  0
 11 16  1  1  0  0  0
 13  3  1  6  0  0  0
 13 15  1  0  0  0  0
 14 12  2  0  0  0  0
 15 14  1  1  0  0  0
 16 18  2  0  0  0  0
 17 16  1  0  0  0  0
 19 20  1  0  0  0  0
 20 22  1  0  0  0  0
 22 21  1  1  0  0  0
 23 22  1  0  0  0  0
 24 27  1  0  0  0  0
 25 30  2  0  0  0  0
 25 26  1  0  0  0  0
 26 24  1  0  0  0  0
 27 31  1  6  0  0  0
 28 29  2  0  0  0  0
 29 27  1  0  0  0  0
 29 23  1  0  0  0  0
 30 28  1  0  0  0  0
 32 25  1  0  0  0  0
 33 32  1  0  0  0  0
 34 32  2  0  0  0  0
M  END
>  <MODEL>
8

>  <REMARK>
 VINA RESULT:      -7.0      3.492      7.601
  Name = 
  7 active torsions:
  status: ('A' for Active; 'I' for Inactive)
    1  A    between atoms: C_1  and  C_9
    2  A    between atoms: C_3  and  C_25
    3  A    between atoms: O_6  and  C_28
    4  A    between atoms: O_6  and  C_30
    5  A    between atoms: C_7  and  C_11
    6  A    between atoms: C_8  and  C_9
    7  A    between atoms: C_8  and  C_30
                            x       y       z     vdW  Elec       q    Type
                         _______ _______ _______ _____ _____    ______ ____

>  <TORSDO>
F 7

$$$$
=
 OpenBabel11052420173D

 34 37  0  0  1  0  0  0  0  0999 V2000
  189.3310  174.3310  145.0100 C   0  0  2  0  0  3  0  0  0  0  0  0
  188.3670  177.3170  142.8050 N   0  0  0  0  0  2  0  0  0  0  0  0
  189.5810  175.3250  142.2410 C   0  0  0  0  0  2  0  0  0  0  0  0
  191.3930  172.9730  144.2200 C   0  0  0  0  0  0  0  0  0  0  0  0
  191.8630  172.0650  142.7650 S   0  0  0  0  0  0  0  0  0  0  0  0
  192.3330  173.2690  145.1090 C   0  0  0  0  0  2  0  0  0  0  0  0
  189.8820  173.8920  142.6150 C   0  0  2  0  0  3  0  0  0  0  0  0
  190.2900  173.8540  144.0040 N   0  0  0  0  0  0  0  0  0  0  0  0
  191.0350  173.3530  141.7800 C   0  0  0  0  0  2  0  0  0  0  0  0
  187.0210  177.7750  143.1090 C   0  0  0  0  0  2  0  0  0  0  0  0
  186.9530  178.1940  144.5690 C   0  0  2  0  0  3  0  0  0  0  0  0
  186.7310  177.0010  145.4470 C   0  0  0  0  0  3  0  0  0  0  0  0
  188.4820  175.9000  143.1340 C   0  0  1  0  0  3  0  0  0  0  0  0
  187.5310  175.9280  145.4720 C   0  0  0  0  0  3  0  0  0  0  0  0
  188.7830  175.7280  144.6500 C   0  0  1  0  0  3  0  0  0  0  0  0
  185.8590  179.1950  144.7770 C   0  0  0  0  0  0  0  0  0  0  0  0
  185.0370  179.1360  146.0180 C   0  0  0  0  0  1  0  0  0  0  0  0
  185.6320  180.0570  143.9410 O   0  0  0  0  0  0  0  0  0  0  0  0
  189.8920  174.3270  146.4340 C   0  0  0  0  0  2  0  0  0  0  0  0
  189.9560  175.7400  147.0030 C   0  0  0  0  0  2  0  0  0  0  0  0
  191.5270  176.9950  148.4510 C   0  0  0  0  0  1  0  0  0  0  0  0
  191.3970  176.1960  147.1710 C   0  0  2  0  0  3  0  0  0  0  0  0
  191.7790  177.0080  146.0640 O   0  0  0  0  0  0  0  0  0  0  0  0
  195.2850  177.1410  144.9840 N   0  0  0  0  0  2  0  0  0  0  0  0
  194.9200  175.9810  142.8850 C   0  0  0  0  0  0  0  0  0  0  0  0
  195.6810  176.0040  144.1700 C   0  0  0  0  0  2  0  0  0  0  0  0
  194.2120  176.7180  145.8770 C   0  0  1  0  0  3  0  0  0  0  0  0
  192.6420  176.4440  143.9240 C   0  0  0  0  0  3  0  0  0  0  0  0
  192.8620  176.7120  145.2250 C   0  0  0  0  0  0  0  0  0  0  0  0
  193.5910  176.1410  142.8310 C   0  0  0  0  0  3  0  0  0  0  0  0
  194.4830  175.5060  146.4950 F   0  0  0  0  0  0  0  0  0  0  0  0
  195.6560  175.6900  141.6400 C   0  0  0  0  0  0  0  0  0  0  0  0
  195.0380  175.8760  140.3690 N   0  0  0  0  0  1  0  0  0  0  0  0
  196.8430  175.2720  141.6890 O   0  0  0  0  0  0  0  0  0  0  0  0
  1 19  1  1  0  0  0
  2 10  1  0  0  0  0
  2 13  1  0  0  0  0
  3  7  1  0  0  0  0
  4  6  2  0  0  0  0
  5  4  1  0  0  0  0
  7  9  1  6  0  0  0
  7  8  1  0  0  0  0
  8  4  1  0  0  0  0
  8  1  1  0  0  0  0
  9  5  1  0  0  0  0
 10 11  1  0  0  0  0
 11 16  1  6  0  0  0
 11 12  1  0  0  0  0
 12 14  2  0  0  0  0
 13  3  1  6  0  0  0
 13 15  1  0  0  0  0
 15  1  1  0  0  0  0
 15 14  1  1  0  0  0
 16 17  1  0  0  0  0
 18 16  2  0  0  0  0
 19 20  1  0  0  0  0
 20 22  1  0  0  0  0
 22 21  1  1  0  0  0
 23 22  1  0  0  0  0
 24 27  1  0  0  0  0
 25 26  1  0  0  0  0
 26 24  1  0  0  0  0
 27 31  1  6  0  0  0
 28 29  2  0  0  0  0
 29 27  1  0  0  0  0
 29 23  1  0  0  0  0
 30 25  2  0  0  0  0
 30 28  1  0  0  0  0
 32 34  2  0  0  0  0
 32 25  1  0  0  0  0
 33 32  1  0  0  0  0
M  END
>  <MODEL>
9

>  <REMARK>
 VINA RESULT:      -6.9      3.270      6.764
  Name = 
  7 active torsions:
  status: ('A' for Active; 'I' for Inactive)
    1  A    between atoms: C_1  and  C_9
    2  A    between atoms: C_3  and  C_25
    3  A    between atoms: O_6  and  C_28
    4  A    between atoms: O_6  and  C_30
    5  A    between atoms: C_7  and  C_11
    6  A    between atoms: C_8  and  C_9
    7  A    between atoms: C_8  and  C_30
                            x       y       z     vdW  Elec       q    Type
                         _______ _______ _______ _____ _____    ______ ____

>  <TORSDO>
F 7

$$$$
