=
 OpenBabel11052420473D

 43 48  0  0  1  0  0  0  0  0999 V2000
  188.1050  177.5970  143.9770 C   0  0  0  0  0  0  0  0  0  0  0  0
  192.7460  176.0800  145.2020 C   0  0  2  0  0  3  0  0  0  0  0  0
  194.1840  176.1780  142.7920 C   0  0  0  0  0  0  0  0  0  0  0  0
  190.0930  177.1090  145.1790 C   0  0  0  0  0  0  0  0  0  0  0  0
  188.8220  177.6850  142.7830 C   0  0  0  0  0  3  0  0  0  0  0  0
  186.6980  177.8080  143.9780 N   0  0  0  0  0  1  0  0  0  0  0  0
  190.8480  177.1740  143.9920 C   0  0  0  0  0  0  0  0  0  0  0  0
  188.7480  177.3240  145.1440 N   0  0  0  0  0  0  0  0  0  0  0  0
  190.2030  177.4860  142.7930 C   0  0  0  0  0  3  0  0  0  0  0  0
  192.9870  176.6880  142.8200 N   0  0  0  0  0  0  0  0  0  0  0  0
  192.3480  177.0600  144.0880 C   0  0  2  0  0  3  0  0  0  0  0  0
  192.0370  176.4110  146.4900 C   0  0  0  0  0  3  0  0  0  0  0  0
  194.2660  176.1120  145.3240 C   0  0  2  0  0  3  0  0  0  0  0  0
  194.8550  175.8210  144.0170 N   0  0  0  0  0  2  0  0  0  0  0  0
  190.7700  176.8430  146.4670 C   0  0  0  0  0  3  0  0  0  0  0  0
  194.8280  175.8750  141.4800 C   0  0  1  0  0  3  0  0  0  0  0  0
  196.0400  176.7820  141.2940 C   0  0  0  0  0  1  0  0  0  0  0  0
  195.2040  174.5220  141.4370 O   0  0  0  0  0  0  0  0  0  0  0  0
  194.2770  173.8890  140.5990 C   0  0  1  0  0  3  0  0  0  0  0  0
  194.6600  174.1430  139.1540 C   0  0  0  0  0  1  0  0  0  0  0  0
  194.2530  172.3760  140.8420 C   0  0  0  0  0  2  0  0  0  0  0  0
  192.9070  171.8030  141.0020 N   0  0  0  0  0  0  0  0  0  0  0  0
  190.7400  170.0620  141.5590 C   0  0  0  0  0  2  0  0  0  0  0  0
  192.8790  170.5370  140.2700 C   0  0  0  0  0  2  0  0  0  0  0  0
  192.5280  171.6330  142.4310 C   0  0  2  0  0  3  0  0  0  0  0  0
  191.7000  170.3630  142.7110 C   0  0  0  0  0  2  0  0  0  0  0  0
  191.4540  169.9930  140.2060 C   0  0  0  0  0  2  0  0  0  0  0  0
  191.0280  172.5600  144.2760 C   0  0  0  0  0  2  0  0  0  0  0  0
  191.8300  172.8780  142.9920 C   0  0  2  0  0  3  0  0  0  0  0  0
  188.7010  174.5840  140.9170 Cl  0  0  0  0  0  0  0  0  0  0  0  0
  189.1830  173.9920  143.4920 C   0  0  0  0  0  3  0  0  0  0  0  0
  189.5160  173.5420  142.1010 C   0  0  2  0  0  3  0  0  0  0  0  0
  189.9130  173.5390  144.5190 C   0  0  0  0  0  3  0  0  0  0  0  0
  191.0320  173.6100  141.8850 C   0  0  0  0  0  2  0  0  0  0  0  0
  194.7210  175.1300  146.2980 N   0  0  0  0  0  2  0  0  0  0  0  0
  194.6670  171.5510  145.5580 C   0  0  0  0  0  3  0  0  0  0  0  0
  196.1140  171.2760  145.2080 C   0  0  0  0  0  0  0  0  0  0  0  0
  196.5080  169.9060  145.7280 C   0  0  0  0  0  1  0  0  0  0  0  0
  196.5880  173.5820  145.9970 C   0  0  0  0  0  3  0  0  0  0  0  0
  194.2360  172.8140  145.7310 C   0  0  0  0  0  3  0  0  0  0  0  0
  195.1930  173.9670  145.5570 C   0  0  1  0  0  3  0  0  0  0  0  0
  196.2830  171.2940  143.7020 C   0  0  0  0  0  1  0  0  0  0  0  0
  197.0170  172.3210  145.8240 C   0  0  0  0  0  3  0  0  0  0  0  0
  1  6  1  0  0  0  0
  1  8  1  0  0  0  0
  2 13  1  0  0  0  0
  2 12  1  1  0  0  0
  3 10  2  0  0  0  0
  3 14  1  0  0  0  0
  4 15  1  0  0  0  0
  5  9  1  0  0  0  0
  5  1  2  0  0  0  0
  7 11  1  0  0  0  0
  7  4  1  0  0  0  0
  8  4  2  0  0  0  0
  9  7  2  0  0  0  0
 11 10  1  6  0  0  0
 11  2  1  0  0  0  0
 13 35  1  1  0  0  0
 14 13  1  0  0  0  0
 15 12  2  0  0  0  0
 16 17  1  1  0  0  0
 16  3  1  0  0  0  0
 18 16  1  0  0  0  0
 19 20  1  6  0  0  0
 19 21  1  0  0  0  0
 19 18  1  0  0  0  0
 21 22  1  0  0  0  0
 22 25  1  0  0  0  0
 23 26  1  0  0  0  0
 24 22  1  0  0  0  0
 25 26  1  6  0  0  0
 25 29  1  0  0  0  0
 27 24  1  0  0  0  0
 27 23  1  0  0  0  0
 28 33  1  0  0  0  0
 29 34  1  6  0  0  0
 29 28  1  0  0  0  0
 31 33  2  0  0  0  0
 32 30  1  6  0  0  0
 32 31  1  0  0  0  0
 34 32  1  0  0  0  0
 36 40  2  0  0  0  0
 37 36  1  0  0  0  0
 37 38  1  0  0  0  0
 37 43  1  0  0  0  0
 41 40  1  0  0  0  0
 41 39  1  0  0  0  0
 41 35  1  1  0  0  0
 42 37  1  0  0  0  0
 43 39  2  0  0  0  0
M  END
>  <MODEL>
1

>  <REMARK>
 VINA RESULT:      -7.2      0.000      0.000
  Name = 
  8 active torsions:
  status: ('A' for Active; 'I' for Inactive)
    1  A    between atoms: N_1  and  C_34
    2  A    between atoms: N_1  and  C_35
    3  A    between atoms: C_2  and  O_6
    4  A    between atoms: C_2  and  C_13
    5  A    between atoms: C_3  and  N_4
    6  A    between atoms: C_3  and  C_12
    7  A    between atoms: O_6  and  C_12
    8  A    between atoms: C_14  and  C_22
                            x       y       z     vdW  Elec       q    Type
                         _______ _______ _______ _____ _____    ______ ____

>  <TORSDO>
F 8

$$$$
=
 OpenBabel11052420473D

 43 48  0  0  1  0  0  0  0  0999 V2000
  195.9830  173.8630  145.5620 C   0  0  0  0  0  0  0  0  0  0  0  0
  191.8490  173.5760  142.7030 C   0  0  2  0  0  3  0  0  0  0  0  0
  190.7260  176.1470  142.8180 C   0  0  0  0  0  0  0  0  0  0  0  0
  194.3930  173.2090  143.9250 C   0  0  0  0  0  0  0  0  0  0  0  0
  195.4520  175.1540  145.5930 C   0  0  0  0  0  3  0  0  0  0  0  0
  197.0880  173.5280  146.3920 N   0  0  0  0  0  1  0  0  0  0  0  0
  193.8200  174.4950  143.9410 C   0  0  0  0  0  0  0  0  0  0  0  0
  195.4560  172.9260  144.7290 N   0  0  0  0  0  0  0  0  0  0  0  0
  194.3740  175.4750  144.7680 C   0  0  0  0  0  3  0  0  0  0  0  0
  191.9100  175.9650  143.3260 N   0  0  0  0  0  0  0  0  0  0  0  0
  192.7310  174.8090  142.9460 C   0  0  2  0  0  3  0  0  0  0  0  0
  192.6890  172.3660  142.3840 C   0  0  0  0  0  3  0  0  0  0  0  0
  190.8560  173.9280  141.6000 C   0  0  2  0  0  3  0  0  0  0  0  0
  190.1250  175.1350  141.9860 N   0  0  0  0  0  2  0  0  0  0  0  0
  193.8600  172.1780  143.0070 C   0  0  0  0  0  3  0  0  0  0  0  0
  189.9480  177.3690  143.1760 C   0  0  1  0  0  3  0  0  0  0  0  0
  190.8930  178.4130  143.7610 C   0  0  0  0  0  1  0  0  0  0  0  0
  189.2940  177.8670  142.0360 O   0  0  0  0  0  0  0  0  0  0  0  0
  187.9280  177.8730  142.3440 C   0  0  1  0  0  3  0  0  0  0  0  0
  187.1490  177.3400  141.1570 C   0  0  0  0  0  1  0  0  0  0  0  0
  187.6300  176.9920  143.5620 C   0  0  0  0  0  2  0  0  0  0  0  0
  187.0010  177.6980  144.6900 N   0  0  0  0  0  0  0  0  0  0  0  0
  185.1370  178.6710  146.5900 C   0  0  0  0  0  2  0  0  0  0  0  0
  185.8480  178.4280  144.1620 C   0  0  0  0  0  2  0  0  0  0  0  0
  186.6240  176.7790  145.7980 C   0  0  2  0  0  3  0  0  0  0  0  0
  185.3040  177.1540  146.4990 C   0  0  0  0  0  2  0  0  0  0  0  0
  185.2760  179.3580  145.2280 C   0  0  0  0  0  2  0  0  0  0  0  0
  188.6540  177.8710  146.8920 C   0  0  0  0  0  2  0  0  0  0  0  0
  187.7590  176.6110  146.8150 C   0  0  2  0  0  3  0  0  0  0  0  0
  190.8070  173.9360  146.0670 Cl  0  0  0  0  0  0  0  0  0  0  0  0
  190.6640  176.4490  147.0030 C   0  0  0  0  0  3  0  0  0  0  0  0
  189.9540  175.4930  146.0930 C   0  0  2  0  0  3  0  0  0  0  0  0
  190.0380  177.5670  147.3940 C   0  0  0  0  0  3  0  0  0  0  0  0
  188.5170  175.2810  146.5840 C   0  0  0  0  0  2  0  0  0  0  0  0
  189.9200  172.8330  141.3860 N   0  0  0  0  0  2  0  0  0  0  0  0
  190.8110  173.6740  137.9430 C   0  0  0  0  0  3  0  0  0  0  0  0
  189.5030  173.4560  137.2130 C   0  0  0  0  0  0  0  0  0  0  0  0
  189.3520  174.5010  136.1230 C   0  0  0  0  0  1  0  0  0  0  0  0
  188.4680  173.1910  139.4540 C   0  0  0  0  0  3  0  0  0  0  0  0
  190.9430  173.3020  139.2290 C   0  0  0  0  0  3  0  0  0  0  0  0
  189.7900  172.6460  139.9470 C   0  0  1  0  0  3  0  0  0  0  0  0
  189.5020  172.0820  136.5740 C   0  0  0  0  0  1  0  0  0  0  0  0
  188.3360  173.5620  138.1700 C   0  0  0  0  0  3  0  0  0  0  0  0
  1  5  1  0  0  0  0
  1  6  1  0  0  0  0
  2 12  1  6  0  0  0
  2 11  1  0  0  0  0
  3 16  1  0  0  0  0
  3 10  2  0  0  0  0
  4  7  2  0  0  0  0
  4  8  1  0  0  0  0
  7  9  1  0  0  0  0
  8  1  2  0  0  0  0
  9  5  2  0  0  0  0
 11 10  1  1  0  0  0
 11  7  1  0  0  0  0
 12 15  2  0  0  0  0
 13 35  1  1  0  0  0
 13 14  1  0  0  0  0
 13  2  1  0  0  0  0
 14  3  1  0  0  0  0
 15  4  1  0  0  0  0
 16 17  1  6  0  0  0
 18 19  1  0  0  0  0
 18 16  1  0  0  0  0
 19 20  1  6  0  0  0
 19 21  1  0  0  0  0
 21 22  1  0  0  0  0
 22 25  1  0  0  0  0
 24 22  1  0  0  0  0
 24 27  1  0  0  0  0
 25 26  1  1  0  0  0
 25 29  1  0  0  0  0
 26 23  1  0  0  0  0
 27 23  1  0  0  0  0
 28 33  1  0  0  0  0
 29 34  1  6  0  0  0
 29 28  1  0  0  0  0
 31 33  2  0  0  0  0
 32 30  1  1  0  0  0
 32 34  1  0  0  0  0
 32 31  1  0  0  0  0
 36 40  2  0  0  0  0
 37 36  1  0  0  0  0
 37 43  1  0  0  0  0
 38 37  1  0  0  0  0
 39 41  1  0  0  0  0
 40 41  1  0  0  0  0
 41 35  1  1  0  0  0
 42 37  1  0  0  0  0
 43 39  2  0  0  0  0
M  END
>  <MODEL>
2

>  <REMARK>
 VINA RESULT:      -6.9      2.914      7.828
  Name = 
  8 active torsions:
  status: ('A' for Active; 'I' for Inactive)
    1  A    between atoms: N_1  and  C_34
    2  A    between atoms: N_1  and  C_35
    3  A    between atoms: C_2  and  O_6
    4  A    between atoms: C_2  and  C_13
    5  A    between atoms: C_3  and  N_4
    6  A    between atoms: C_3  and  C_12
    7  A    between atoms: O_6  and  C_12
    8  A    between atoms: C_14  and  C_22
                            x       y       z     vdW  Elec       q    Type
                         _______ _______ _______ _____ _____    ______ ____

>  <TORSDO>
F 8

$$$$
=
 OpenBabel11052420473D

 43 48  0  0  1  0  0  0  0  0999 V2000
  190.0310  171.8460  138.4690 C   0  0  0  0  0  0  0  0  0  0  0  0
  192.8420  174.5500  141.6520 C   0  0  2  0  0  3  0  0  0  0  0  0
  191.0370  176.3370  142.8490 C   0  0  0  0  0  0  0  0  0  0  0  0
  191.7550  172.5540  139.9390 C   0  0  0  0  0  0  0  0  0  0  0  0
  189.1210  172.7050  139.0870 C   0  0  0  0  0  3  0  0  0  0  0  0
  189.6110  171.0260  137.3850 N   0  0  0  0  0  1  0  0  0  0  0  0
  190.8700  173.4440  140.5770 C   0  0  0  0  0  0  0  0  0  0  0  0
  191.3160  171.7780  138.9080 N   0  0  0  0  0  0  0  0  0  0  0  0
  189.5400  173.4980  140.1560 C   0  0  0  0  0  3  0  0  0  0  0  0
  190.5610  175.3850  142.1020 N   0  0  0  0  0  0  0  0  0  0  0  0
  191.3560  174.1890  141.7950 C   0  0  2  0  0  3  0  0  0  0  0  0
  193.6550  173.3410  141.2650 C   0  0  0  0  0  3  0  0  0  0  0  0
  193.2910  175.1840  142.9640 C   0  0  2  0  0  3  0  0  0  0  0  0
  192.4160  176.3160  143.2700 N   0  0  0  0  0  2  0  0  0  0  0  0
  193.1510  172.4370  140.4150 C   0  0  0  0  0  3  0  0  0  0  0  0
  190.1760  177.5060  143.1960 C   0  0  1  0  0  3  0  0  0  0  0  0
  191.0580  178.6590  143.6620 C   0  0  0  0  0  1  0  0  0  0  0  0
  189.4110  177.8800  142.0780 O   0  0  0  0  0  0  0  0  0  0  0  0
  188.1000  178.0450  142.5420 C   0  0  1  0  0  3  0  0  0  0  0  0
  187.1370  177.8410  141.3900 C   0  0  0  0  0  1  0  0  0  0  0  0
  187.7710  177.0300  143.6430 C   0  0  0  0  0  2  0  0  0  0  0  0
  187.2900  177.6250  144.9010 N   0  0  0  0  0  0  0  0  0  0  0  0
  185.6720  178.4410  147.0800 C   0  0  0  0  0  2  0  0  0  0  0  0
  186.1260  178.4500  144.5790 C   0  0  0  0  0  2  0  0  0  0  0  0
  186.9840  176.6000  145.9340 C   0  0  2  0  0  3  0  0  0  0  0  0
  185.7590  176.9390  146.8060 C   0  0  0  0  0  2  0  0  0  0  0  0
  185.7070  179.2730  145.7940 C   0  0  0  0  0  2  0  0  0  0  0  0
  189.1890  177.4710  146.8780 C   0  0  0  0  0  2  0  0  0  0  0  0
  188.2060  176.2790  146.8040 C   0  0  2  0  0  3  0  0  0  0  0  0
  190.9650  173.4980  145.5170 Cl  0  0  0  0  0  0  0  0  0  0  0  0
  191.0960  175.9270  146.6550 C   0  0  0  0  0  3  0  0  0  0  0  0
  190.2290  175.0960  145.7580 C   0  0  2  0  0  3  0  0  0  0  0  0
  190.5940  177.0430  147.1990 C   0  0  0  0  0  3  0  0  0  0  0  0
  188.8420  174.9300  146.3880 C   0  0  0  0  0  2  0  0  0  0  0  0
  194.6700  175.6420  142.8640 N   0  0  0  0  0  2  0  0  0  0  0  0
  197.0630  173.1720  144.1010 C   0  0  0  0  0  3  0  0  0  0  0  0
  196.4980  172.8350  145.4640 C   0  0  0  0  0  0  0  0  0  0  0  0
  196.7080  171.3590  145.7470 C   0  0  0  0  0  1  0  0  0  0  0  0
  194.5070  174.1610  144.8010 C   0  0  0  0  0  3  0  0  0  0  0  0
  196.5510  174.1880  143.3830 C   0  0  0  0  0  3  0  0  0  0  0  0
  195.4180  175.0110  143.9440 C   0  0  1  0  0  3  0  0  0  0  0  0
  197.2180  173.6420  146.5250 C   0  0  0  0  0  1  0  0  0  0  0  0
  195.0190  173.1470  145.5170 C   0  0  0  0  0  3  0  0  0  0  0  0
  1  8  2  0  0  0  0
  1  5  1  0  0  0  0
  2 12  1  1  0  0  0
  2 11  1  0  0  0  0
  2 13  1  0  0  0  0
  3 16  1  0  0  0  0
  3 14  1  0  0  0  0
  4 15  1  0  0  0  0
  4  7  2  0  0  0  0
  5  9  2  0  0  0  0
  6  1  1  0  0  0  0
  8  4  1  0  0  0  0
  9  7  1  0  0  0  0
 10  3  2  0  0  0  0
 11  7  1  6  0  0  0
 11 10  1  0  0  0  0
 13 35  1  6  0  0  0
 13 14  1  0  0  0  0
 15 12  2  0  0  0  0
 16 17  1  6  0  0  0
 18 19  1  0  0  0  0
 18 16  1  0  0  0  0
 19 20  1  6  0  0  0
 19 21  1  0  0  0  0
 21 22  1  0  0  0  0
 22 25  1  0  0  0  0
 24 22  1  0  0  0  0
 24 27  1  0  0  0  0
 25 29  1  0  0  0  0
 25 26  1  1  0  0  0
 26 23  1  0  0  0  0
 27 23  1  0  0  0  0
 28 33  1  0  0  0  0
 29 34  1  6  0  0  0
 29 28  1  0  0  0  0
 31 33  2  0  0  0  0
 32 30  1  1  0  0  0
 32 34  1  0  0  0  0
 32 31  1  0  0  0  0
 36 37  1  0  0  0  0
 37 43  1  0  0  0  0
 37 38  1  0  0  0  0
 37 42  1  0  0  0  0
 39 43  2  0  0  0  0
 40 41  1  0  0  0  0
 40 36  2  0  0  0  0
 41 35  1  6  0  0  0
 41 39  1  0  0  0  0
M  END
>  <MODEL>
3

>  <REMARK>
 VINA RESULT:      -6.8      2.444      6.384
  Name = 
  8 active torsions:
  status: ('A' for Active; 'I' for Inactive)
    1  A    between atoms: N_1  and  C_34
    2  A    between atoms: N_1  and  C_35
    3  A    between atoms: C_2  and  O_6
    4  A    between atoms: C_2  and  C_13
    5  A    between atoms: C_3  and  N_4
    6  A    between atoms: C_3  and  C_12
    7  A    between atoms: O_6  and  C_12
    8  A    between atoms: C_14  and  C_22
                            x       y       z     vdW  Elec       q    Type
                         _______ _______ _______ _____ _____    ______ ____

>  <TORSDO>
F 8

$$$$
=
 OpenBabel11052420473D

 43 48  0  0  1  0  0  0  0  0999 V2000
  184.9570  178.1890  145.5520 C   0  0  0  0  0  0  0  0  0  0  0  0
  188.8490  175.8190  143.4100 C   0  0  2  0  0  3  0  0  0  0  0  0
  190.8130  175.7240  145.4150 C   0  0  0  0  0  0  0  0  0  0  0  0
  186.2850  176.8150  144.1430 C   0  0  0  0  0  0  0  0  0  0  0  0
  185.9130  178.1110  146.5660 C   0  0  0  0  0  3  0  0  0  0  0  0
  183.7660  178.9380  145.7540 N   0  0  0  0  0  1  0  0  0  0  0  0
  187.2800  176.7270  145.1360 C   0  0  0  0  0  0  0  0  0  0  0  0
  185.1530  177.5360  144.3750 N   0  0  0  0  0  0  0  0  0  0  0  0
  187.0750  177.3650  146.3610 C   0  0  0  0  0  3  0  0  0  0  0  0
  189.6180  176.1280  145.7360 N   0  0  0  0  0  0  0  0  0  0  0  0
  188.4570  175.8160  144.8950 C   0  0  2  0  0  3  0  0  0  0  0  0
  187.6470  175.5710  142.5350 C   0  0  0  0  0  3  0  0  0  0  0  0
  189.9550  174.7860  143.2220 C   0  0  2  0  0  3  0  0  0  0  0  0
  191.0510  175.0900  144.1420 N   0  0  0  0  0  2  0  0  0  0  0  0
  186.4570  176.0910  142.8640 C   0  0  0  0  0  3  0  0  0  0  0  0
  191.9590  176.0020  146.3290 C   0  0  1  0  0  3  0  0  0  0  0  0
  191.6900  175.3560  147.6830 C   0  0  0  0  0  1  0  0  0  0  0  0
  193.1470  175.5090  145.7640 O   0  0  0  0  0  0  0  0  0  0  0  0
  193.9290  176.6310  145.4620 C   0  0  1  0  0  3  0  0  0  0  0  0
  194.3180  177.3260  146.7520 C   0  0  0  0  0  1  0  0  0  0  0  0
  195.2060  176.2330  144.7150 C   0  0  0  0  0  2  0  0  0  0  0  0
  195.0790  175.0240  143.8860 N   0  0  0  0  0  0  0  0  0  0  0  0
  195.4760  173.0150  141.9260 C   0  0  0  0  0  2  0  0  0  0  0  0
  195.0290  175.4530  142.4880 C   0  0  0  0  0  2  0  0  0  0  0  0
  196.1720  174.0460  144.1340 C   0  0  2  0  0  3  0  0  0  0  0  0
  196.6450  173.3030  142.8690 C   0  0  0  0  0  2  0  0  0  0  0  0
  194.6760  174.2750  141.5840 C   0  0  0  0  0  2  0  0  0  0  0  0
  196.9750  172.0740  145.5410 C   0  0  0  0  0  2  0  0  0  0  0  0
  195.8160  173.0570  145.2500 C   0  0  2  0  0  3  0  0  0  0  0  0
  192.9370  170.1780  144.5960 Cl  0  0  0  0  0  0  0  0  0  0  0  0
  195.3670  170.2180  145.7400 C   0  0  0  0  0  3  0  0  0  0  0  0
  194.5600  170.8940  144.6720 C   0  0  2  0  0  3  0  0  0  0  0  0
  196.5020  170.7890  146.1620 C   0  0  0  0  0  3  0  0  0  0  0  0
  194.4430  172.3910  144.9820 C   0  0  0  0  0  2  0  0  0  0  0  0
  190.4440  174.8060  141.8500 N   0  0  0  0  0  2  0  0  0  0  0  0
  191.4660  172.0940  139.6240 C   0  0  0  0  0  3  0  0  0  0  0  0
  191.3820  170.8870  140.5320 C   0  0  0  0  0  0  0  0  0  0  0  0
  190.8850  169.6920  139.7400 C   0  0  0  0  0  1  0  0  0  0  0  0
  190.2940  172.3900  142.1810 C   0  0  0  0  0  3  0  0  0  0  0  0
  191.3270  173.3350  140.1250 C   0  0  0  0  0  3  0  0  0  0  0  0
  191.1030  173.5290  141.6040 C   0  0  1  0  0  3  0  0  0  0  0  0
  192.7570  170.5690  141.0830 C   0  0  0  0  0  1  0  0  0  0  0  0
  190.4340  171.1510  141.6810 C   0  0  0  0  0  3  0  0  0  0  0  0
  1  6  1  0  0  0  0
  1  5  1  0  0  0  0
  2 12  1  6  0  0  0
  2 11  1  0  0  0  0
  3 10  2  0  0  0  0
  3 16  1  0  0  0  0
  4  8  1  0  0  0  0
  4  7  2  0  0  0  0
  7  9  1  0  0  0  0
  8  1  2  0  0  0  0
  9  5  2  0  0  0  0
 11  7  1  6  0  0  0
 11 10  1  0  0  0  0
 12 15  2  0  0  0  0
 13 35  1  6  0  0  0
 13  2  1  0  0  0  0
 13 14  1  0  0  0  0
 14  3  1  0  0  0  0
 15  4  1  0  0  0  0
 16 17  1  1  0  0  0
 18 16  1  0  0  0  0
 19 18  1  0  0  0  0
 19 20  1  1  0  0  0
 21 19  1  0  0  0  0
 22 25  1  0  0  0  0
 22 21  1  0  0  0  0
 23 26  1  0  0  0  0
 24 22  1  0  0  0  0
 25 26  1  6  0  0  0
 25 29  1  0  0  0  0
 27 23  1  0  0  0  0
 27 24  1  0  0  0  0
 28 33  1  0  0  0  0
 29 34  1  6  0  0  0
 29 28  1  0  0  0  0
 31 33  2  0  0  0  0
 32 30  1  1  0  0  0
 32 34  1  0  0  0  0
 32 31  1  0  0  0  0
 36 40  2  0  0  0  0
 36 37  1  0  0  0  0
 37 42  1  0  0  0  0
 37 43  1  0  0  0  0
 38 37  1  0  0  0  0
 40 41  1  0  0  0  0
 41 35  1  6  0  0  0
 41 39  1  0  0  0  0
 43 39  2  0  0  0  0
M  END
>  <MODEL>
4

>  <REMARK>
 VINA RESULT:      -6.8      2.235      5.719
  Name = 
  8 active torsions:
  status: ('A' for Active; 'I' for Inactive)
    1  A    between atoms: N_1  and  C_34
    2  A    between atoms: N_1  and  C_35
    3  A    between atoms: C_2  and  O_6
    4  A    between atoms: C_2  and  C_13
    5  A    between atoms: C_3  and  N_4
    6  A    between atoms: C_3  and  C_12
    7  A    between atoms: O_6  and  C_12
    8  A    between atoms: C_14  and  C_22
                            x       y       z     vdW  Elec       q    Type
                         _______ _______ _______ _____ _____    ______ ____

>  <TORSDO>
F 8

$$$$
=
 OpenBabel11052420473D

 43 48  0  0  1  0  0  0  0  0999 V2000
  196.7830  169.3540  146.0080 C   0  0  0  0  0  0  0  0  0  0  0  0
  192.5590  171.6710  144.5470 C   0  0  2  0  0  3  0  0  0  0  0  0
  192.9290  174.3540  145.2880 C   0  0  0  0  0  0  0  0  0  0  0  0
  194.7710  169.9110  144.8780 C   0  0  0  0  0  0  0  0  0  0  0  0
  196.9910  170.6930  146.3440 C   0  0  0  0  0  3  0  0  0  0  0  0
  197.7210  168.3650  146.4150 N   0  0  0  0  0  1  0  0  0  0  0  0
  194.9380  171.2690  145.2120 C   0  0  0  0  0  0  0  0  0  0  0  0
  195.6940  168.9920  145.2790 N   0  0  0  0  0  0  0  0  0  0  0  0
  196.0700  171.6570  145.9320 C   0  0  0  0  0  3  0  0  0  0  0  0
  193.9400  173.5410  145.3820 N   0  0  0  0  0  0  0  0  0  0  0  0
  193.9680  172.2730  144.6420 C   0  0  2  0  0  3  0  0  0  0  0  0
  192.5900  170.3340  143.8530 C   0  0  0  0  0  3  0  0  0  0  0  0
  191.6660  172.6920  143.8500 C   0  0  2  0  0  3  0  0  0  0  0  0
  191.7390  173.9610  144.5740 N   0  0  0  0  0  2  0  0  0  0  0  0
  193.6110  169.4930  144.0600 C   0  0  0  0  0  3  0  0  0  0  0  0
  192.9650  175.6650  146.0010 C   0  0  1  0  0  3  0  0  0  0  0  0
  194.4000  175.9760  146.4080 C   0  0  0  0  0  1  0  0  0  0  0  0
  192.4490  176.6730  145.1690 O   0  0  0  0  0  0  0  0  0  0  0  0
  191.0830  176.7610  145.4650 C   0  0  1  0  0  3  0  0  0  0  0  0
  190.9040  176.7910  146.9710 C   0  0  0  0  0  1  0  0  0  0  0  0
  190.4670  178.0330  144.8720 C   0  0  0  0  0  2  0  0  0  0  0  0
  189.2700  177.8060  144.0480 N   0  0  0  0  0  0  0  0  0  0  0  0
  187.2820  176.6330  142.4030 C   0  0  0  0  0  2  0  0  0  0  0  0
  189.7170  177.2690  142.7630 C   0  0  0  0  0  2  0  0  0  0  0  0
  188.2800  176.9170  144.7150 C   0  0  2  0  0  3  0  0  0  0  0  0
  187.5490  175.9620  143.7510 C   0  0  0  0  0  2  0  0  0  0  0  0
  188.5530  177.2150  141.7770 C   0  0  0  0  0  2  0  0  0  0  0  0
  186.6260  176.8250  146.6550 C   0  0  0  0  0  2  0  0  0  0  0  0
  187.2810  177.7080  145.5670 C   0  0  2  0  0  3  0  0  0  0  0  0
  183.7580  179.0410  143.8870 Cl  0  0  0  0  0  0  0  0  0  0  0  0
  184.4410  177.8730  146.2080 C   0  0  0  0  0  3  0  0  0  0  0  0
  184.8540  177.9570  144.7690 C   0  0  2  0  0  3  0  0  0  0  0  0
  185.2910  177.3520  147.1020 C   0  0  0  0  0  3  0  0  0  0  0  0
  186.2870  178.4900  144.6720 C   0  0  0  0  0  2  0  0  0  0  0  0
  190.2870  172.2250  143.8140 N   0  0  0  0  0  2  0  0  0  0  0  0
  190.1660  173.7830  140.5110 C   0  0  0  0  0  3  0  0  0  0  0  0
  188.7850  173.3960  140.0260 C   0  0  0  0  0  0  0  0  0  0  0  0
  188.1910  174.5400  139.2260 C   0  0  0  0  0  1  0  0  0  0  0  0
  188.3780  172.5510  142.3240 C   0  0  0  0  0  3  0  0  0  0  0  0
  190.6660  173.2510  141.6400 C   0  0  0  0  0  3  0  0  0  0  0  0
  189.8560  172.2460  142.4220 C   0  0  1  0  0  3  0  0  0  0  0  0
  188.8860  172.1770  139.1320 C   0  0  0  0  0  1  0  0  0  0  0  0
  187.8800  173.0830  141.1960 C   0  0  0  0  0  3  0  0  0  0  0  0
  1  5  1  0  0  0  0
  1  6  1  0  0  0  0
  2 12  1  6  0  0  0
  2 11  1  0  0  0  0
  3 10  2  0  0  0  0
  3 16  1  0  0  0  0
  4  7  2  0  0  0  0
  4  8  1  0  0  0  0
  7  9  1  0  0  0  0
  8  1  2  0  0  0  0
  9  5  2  0  0  0  0
 11  7  1  1  0  0  0
 11 10  1  0  0  0  0
 12 15  2  0  0  0  0
 13 35  1  1  0  0  0
 13  2  1  0  0  0  0
 13 14  1  0  0  0  0
 14  3  1  0  0  0  0
 15  4  1  0  0  0  0
 16 17  1  6  0  0  0
 18 19  1  0  0  0  0
 18 16  1  0  0  0  0
 19 20  1  1  0  0  0
 21 19  1  0  0  0  0
 22 25  1  0  0  0  0
 22 21  1  0  0  0  0
 23 26  1  0  0  0  0
 24 22  1  0  0  0  0
 25 26  1  6  0  0  0
 25 29  1  0  0  0  0
 27 23  1  0  0  0  0
 27 24  1  0  0  0  0
 28 33  1  0  0  0  0
 29 34  1  6  0  0  0
 29 28  1  0  0  0  0
 31 33  2  0  0  0  0
 32 30  1  6  0  0  0
 32 31  1  0  0  0  0
 34 32  1  0  0  0  0
 36 40  2  0  0  0  0
 37 36  1  0  0  0  0
 37 43  1  0  0  0  0
 38 37  1  0  0  0  0
 39 41  1  0  0  0  0
 40 41  1  0  0  0  0
 41 35  1  1  0  0  0
 42 37  1  0  0  0  0
 43 39  2  0  0  0  0
M  END
>  <MODEL>
5

>  <REMARK>
 VINA RESULT:      -6.7      2.813      7.801
  Name = 
  8 active torsions:
  status: ('A' for Active; 'I' for Inactive)
    1  A    between atoms: N_1  and  C_34
    2  A    between atoms: N_1  and  C_35
    3  A    between atoms: C_2  and  O_6
    4  A    between atoms: C_2  and  C_13
    5  A    between atoms: C_3  and  N_4
    6  A    between atoms: C_3  and  C_12
    7  A    between atoms: O_6  and  C_12
    8  A    between atoms: C_14  and  C_22
                            x       y       z     vdW  Elec       q    Type
                         _______ _______ _______ _____ _____    ______ ____

>  <TORSDO>
F 8

$$$$
=
 OpenBabel11052420473D

 43 48  0  0  1  0  0  0  0  0999 V2000
  186.0250  178.8810  143.8230 C   0  0  0  0  0  0  0  0  0  0  0  0
  188.3270  175.3940  141.0150 C   0  0  2  0  0  3  0  0  0  0  0  0
  189.3580  173.5560  142.8700 C   0  0  0  0  0  0  0  0  0  0  0  0
  186.6600  177.4680  142.0240 C   0  0  0  0  0  0  0  0  0  0  0  0
  186.5000  177.9520  144.7500 C   0  0  0  0  0  3  0  0  0  0  0  0
  185.4420  180.0980  144.2720 N   0  0  0  0  0  1  0  0  0  0  0  0
  187.1650  176.5140  142.9280 C   0  0  0  0  0  0  0  0  0  0  0  0
  186.1020  178.6200  142.4900 N   0  0  0  0  0  0  0  0  0  0  0  0
  187.0610  176.7560  144.3000 C   0  0  0  0  0  3  0  0  0  0  0  0
  188.5530  174.4830  143.3000 N   0  0  0  0  0  0  0  0  0  0  0  0
  187.6560  175.1970  142.3820 C   0  0  2  0  0  3  0  0  0  0  0  0
  187.4420  176.1900  140.0900 C   0  0  0  0  0  3  0  0  0  0  0  0
  188.6810  174.0140  140.4710 C   0  0  2  0  0  3  0  0  0  0  0  0
  189.5020  173.3100  141.4570 N   0  0  0  0  0  2  0  0  0  0  0  0
  186.7030  177.1980  140.5700 C   0  0  0  0  0  3  0  0  0  0  0  0
  190.2060  172.8050  143.8420 C   0  0  1  0  0  3  0  0  0  0  0  0
  189.3160  171.9160  144.7040 C   0  0  0  0  0  1  0  0  0  0  0  0
  191.1590  172.0390  143.1480 O   0  0  0  0  0  0  0  0  0  0  0  0
  192.2710  171.9460  143.9940 C   0  0  1  0  0  3  0  0  0  0  0  0
  192.8040  170.5270  143.9580 C   0  0  0  0  0  1  0  0  0  0  0  0
  193.3860  172.9000  143.5500 C   0  0  0  0  0  2  0  0  0  0  0  0
  193.5740  174.0700  144.4220 N   0  0  0  0  0  0  0  0  0  0  0  0
  194.6140  176.3910  145.6750 C   0  0  0  0  0  2  0  0  0  0  0  0
  194.8870  173.9410  145.0530 C   0  0  0  0  0  2  0  0  0  0  0  0
  193.4280  175.3560  143.6880 C   0  0  2  0  0  3  0  0  0  0  0  0
  194.3940  176.4590  144.1630 C   0  0  0  0  0  2  0  0  0  0  0  0
  195.0610  175.0010  146.1380 C   0  0  0  0  0  2  0  0  0  0  0  0
  191.8570  177.2720  143.0760 C   0  0  0  0  0  2  0  0  0  0  0  0
  191.9790  175.8570  143.6900 C   0  0  2  0  0  3  0  0  0  0  0  0
  190.1250  176.7570  147.2630 Cl  0  0  0  0  0  0  0  0  0  0  0  0
  190.2670  177.9160  144.8440 C   0  0  0  0  0  3  0  0  0  0  0  0
  191.0490  177.0360  145.7720 C   0  0  2  0  0  3  0  0  0  0  0  0
  190.6420  178.0110  143.5620 C   0  0  0  0  0  3  0  0  0  0  0  0
  191.3390  175.6940  145.0910 C   0  0  0  0  0  2  0  0  0  0  0  0
  189.4120  174.1310  139.2170 N   0  0  0  0  0  2  0  0  0  0  0  0
  191.4730  171.4850  137.7650 C   0  0  0  0  0  3  0  0  0  0  0  0
  190.4960  170.7910  136.8410 C   0  0  0  0  0  0  0  0  0  0  0  0
  191.2190  170.3440  135.5840 C   0  0  0  0  0  1  0  0  0  0  0  0
  188.9410  172.6660  137.3180 C   0  0  0  0  0  3  0  0  0  0  0  0
  191.0450  172.4270  138.6240 C   0  0  0  0  0  3  0  0  0  0  0  0
  189.5810  172.7850  138.6830 C   0  0  1  0  0  3  0  0  0  0  0  0
  189.9220  169.5710  137.5330 C   0  0  0  0  0  1  0  0  0  0  0  0
  189.3690  171.7250  136.4610 C   0  0  0  0  0  3  0  0  0  0  0  0
  1  6  1  0  0  0  0
  1  5  1  0  0  0  0
  2 12  1  6  0  0  0
  2 11  1  0  0  0  0
  3 10  2  0  0  0  0
  3 16  1  0  0  0  0
  4  8  1  0  0  0  0
  4  7  2  0  0  0  0
  7  9  1  0  0  0  0
  8  1  2  0  0  0  0
  9  5  2  0  0  0  0
 11  7  1  1  0  0  0
 11 10  1  0  0  0  0
 12 15  2  0  0  0  0
 13 35  1  6  0  0  0
 13  2  1  0  0  0  0
 13 14  1  0  0  0  0
 14  3  1  0  0  0  0
 15  4  1  0  0  0  0
 16 17  1  6  0  0  0
 18 16  1  0  0  0  0
 18 19  1  0  0  0  0
 19 20  1  6  0  0  0
 21 19  1  0  0  0  0
 21 22  1  0  0  0  0
 22 24  1  0  0  0  0
 23 27  1  0  0  0  0
 24 27  1  0  0  0  0
 25 29  1  0  0  0  0
 25 26  1  1  0  0  0
 25 22  1  0  0  0  0
 26 23  1  0  0  0  0
 28 33  1  0  0  0  0
 29 28  1  1  0  0  0
 29 34  1  0  0  0  0
 31 32  1  0  0  0  0
 32 30  1  1  0  0  0
 33 31  2  0  0  0  0
 34 32  1  0  0  0  0
 36 40  2  0  0  0  0
 37 42  1  0  0  0  0
 37 36  1  0  0  0  0
 38 37  1  0  0  0  0
 39 41  1  0  0  0  0
 40 41  1  0  0  0  0
 41 35  1  6  0  0  0
 43 37  1  0  0  0  0
 43 39  2  0  0  0  0
M  END
>  <MODEL>
6

>  <REMARK>
 VINA RESULT:      -6.5      2.773      6.728
  Name = 
  8 active torsions:
  status: ('A' for Active; 'I' for Inactive)
    1  A    between atoms: N_1  and  C_34
    2  A    between atoms: N_1  and  C_35
    3  A    between atoms: C_2  and  O_6
    4  A    between atoms: C_2  and  C_13
    5  A    between atoms: C_3  and  N_4
    6  A    between atoms: C_3  and  C_12
    7  A    between atoms: O_6  and  C_12
    8  A    between atoms: C_14  and  C_22
                            x       y       z     vdW  Elec       q    Type
                         _______ _______ _______ _____ _____    ______ ____

>  <TORSDO>
F 8

$$$$
=
 OpenBabel11052420473D

 43 48  0  0  1  0  0  0  0  0999 V2000
  185.2040  178.1600  145.5010 C   0  0  0  0  0  0  0  0  0  0  0  0
  189.5200  175.5750  145.3140 C   0  0  2  0  0  3  0  0  0  0  0  0
  189.3530  174.0860  142.9390 C   0  0  0  0  0  0  0  0  0  0  0  0
  187.4520  177.4660  145.8150 C   0  0  0  0  0  0  0  0  0  0  0  0
  185.1300  177.4530  144.3000 C   0  0  0  0  0  3  0  0  0  0  0  0
  184.0780  178.8950  145.9650 N   0  0  0  0  0  1  0  0  0  0  0  0
  187.4100  176.7270  144.6160 C   0  0  0  0  0  0  0  0  0  0  0  0
  186.3560  178.1630  146.2240 N   0  0  0  0  0  0  0  0  0  0  0  0
  186.2430  176.7440  143.8490 C   0  0  0  0  0  3  0  0  0  0  0  0
  188.4470  174.9920  143.1670 N   0  0  0  0  0  0  0  0  0  0  0  0
  188.6800  176.0750  144.1290 C   0  0  2  0  0  3  0  0  0  0  0  0
  189.7020  176.6610  146.3420 C   0  0  0  0  0  3  0  0  0  0  0  0
  190.8370  175.0460  144.7550 C   0  0  2  0  0  3  0  0  0  0  0  0
  190.5500  174.0330  143.7400 N   0  0  0  0  0  2  0  0  0  0  0  0
  188.7010  177.5110  146.6070 C   0  0  0  0  0  3  0  0  0  0  0  0
  189.1070  173.0390  141.9040 C   0  0  1  0  0  3  0  0  0  0  0  0
  187.6080  172.7830  141.7940 C   0  0  0  0  0  1  0  0  0  0  0  0
  189.6370  173.4560  140.6710 O   0  0  0  0  0  0  0  0  0  0  0  0
  189.4610  172.3820  139.7900 C   0  0  1  0  0  3  0  0  0  0  0  0
  188.7780  172.8800  138.5310 C   0  0  0  0  0  1  0  0  0  0  0  0
  190.8050  171.7540  139.4040 C   0  0  0  0  0  2  0  0  0  0  0  0
  191.8710  171.9300  140.4030 N   0  0  0  0  0  0  0  0  0  0  0  0
  194.1220  171.5280  142.0780 C   0  0  0  0  0  2  0  0  0  0  0  0
  191.8160  170.7830  141.3090 C   0  0  0  0  0  2  0  0  0  0  0  0
  193.2130  172.0900  139.7790 C   0  0  2  0  0  3  0  0  0  0  0  0
  194.3530  171.4170  140.5700 C   0  0  0  0  0  2  0  0  0  0  0  0
  192.7470  171.0030  142.4990 C   0  0  0  0  0  2  0  0  0  0  0  0
  195.0540  173.7790  139.2660 C   0  0  0  0  0  2  0  0  0  0  0  0
  193.5390  173.5590  139.4880 C   0  0  2  0  0  3  0  0  0  0  0  0
  193.1050  176.3830  142.4620 Cl  0  0  0  0  0  0  0  0  0  0  0  0
  194.9590  175.8530  140.5920 C   0  0  0  0  0  3  0  0  0  0  0  0
  193.9210  175.1820  141.4400 C   0  0  2  0  0  3  0  0  0  0  0  0
  195.4820  175.1920  139.5520 C   0  0  0  0  0  3  0  0  0  0  0  0
  192.8890  174.4890  140.5430 C   0  0  0  0  0  2  0  0  0  0  0  0
  191.6450  174.4630  145.8170 N   0  0  0  0  0  2  0  0  0  0  0  0
  194.8390  172.7070  145.5560 C   0  0  0  0  0  3  0  0  0  0  0  0
  195.8260  173.8510  145.4690 C   0  0  0  0  0  0  0  0  0  0  0  0
  197.0930  173.4830  146.2190 C   0  0  0  0  0  1  0  0  0  0  0  0
  193.9170  175.3420  146.0100 C   0  0  0  0  0  3  0  0  0  0  0  0
  193.5160  172.9420  145.4930 C   0  0  0  0  0  3  0  0  0  0  0  0
  193.0090  174.3520  145.3160 C   0  0  1  0  0  3  0  0  0  0  0  0
  196.1760  174.1100  144.0180 C   0  0  0  0  0  1  0  0  0  0  0  0
  195.2370  175.1070  146.0720 C   0  0  0  0  0  3  0  0  0  0  0  0
  1  6  1  0  0  0  0
  1  8  1  0  0  0  0
  2 12  1  1  0  0  0
  3 10  2  0  0  0  0
  3 14  1  0  0  0  0
  4  8  2  0  0  0  0
  4 15  1  0  0  0  0
  5  1  2  0  0  0  0
  7  4  1  0  0  0  0
  9  5  1  0  0  0  0
  9  7  2  0  0  0  0
 11 10  1  6  0  0  0
 11  7  1  0  0  0  0
 11  2  1  0  0  0  0
 12 15  2  0  0  0  0
 13  2  1  0  0  0  0
 13 35  1  1  0  0  0
 14 13  1  0  0  0  0
 16 17  1  6  0  0  0
 16  3  1  0  0  0  0
 18 16  1  0  0  0  0
 19 20  1  6  0  0  0
 19 18  1  0  0  0  0
 21 19  1  0  0  0  0
 21 22  1  0  0  0  0
 22 24  1  0  0  0  0
 23 27  1  0  0  0  0
 24 27  1  0  0  0  0
 25 22  1  0  0  0  0
 25 26  1  1  0  0  0
 26 23  1  0  0  0  0
 28 33  1  0  0  0  0
 29 28  1  1  0  0  0
 29 25  1  0  0  0  0
 29 34  1  0  0  0  0
 31 32  1  0  0  0  0
 32 30  1  6  0  0  0
 33 31  2  0  0  0  0
 34 32  1  0  0  0  0
 37 36  1  0  0  0  0
 37 43  1  0  0  0  0
 37 38  1  0  0  0  0
 39 43  2  0  0  0  0
 40 36  2  0  0  0  0
 41 40  1  0  0  0  0
 41 35  1  1  0  0  0
 41 39  1  0  0  0  0
 42 37  1  0  0  0  0
M  END
>  <MODEL>
7

>  <REMARK>
 VINA RESULT:      -6.5      2.211      4.237
  Name = 
  8 active torsions:
  status: ('A' for Active; 'I' for Inactive)
    1  A    between atoms: N_1  and  C_34
    2  A    between atoms: N_1  and  C_35
    3  A    between atoms: C_2  and  O_6
    4  A    between atoms: C_2  and  C_13
    5  A    between atoms: C_3  and  N_4
    6  A    between atoms: C_3  and  C_12
    7  A    between atoms: O_6  and  C_12
    8  A    between atoms: C_14  and  C_22
                            x       y       z     vdW  Elec       q    Type
                         _______ _______ _______ _____ _____    ______ ____

>  <TORSDO>
F 8

$$$$
=
 OpenBabel11052420473D

 43 48  0  0  1  0  0  0  0  0999 V2000
  185.0990  178.1700  145.6370 C   0  0  0  0  0  0  0  0  0  0  0  0
  189.3570  175.5360  145.1070 C   0  0  2  0  0  3  0  0  0  0  0  0
  189.2610  174.5530  142.4780 C   0  0  0  0  0  0  0  0  0  0  0  0
  187.3140  177.3550  145.8930 C   0  0  0  0  0  0  0  0  0  0  0  0
  185.0620  177.7180  144.3160 C   0  0  0  0  0  3  0  0  0  0  0  0
  183.9710  178.8340  146.1930 N   0  0  0  0  0  1  0  0  0  0  0  0
  187.3080  176.8700  144.5710 C   0  0  0  0  0  0  0  0  0  0  0  0
  186.2180  177.9930  146.3900 N   0  0  0  0  0  0  0  0  0  0  0  0
  186.1780  177.0770  143.7770 C   0  0  0  0  0  3  0  0  0  0  0  0
  188.3670  175.4250  142.8460 N   0  0  0  0  0  0  0  0  0  0  0  0
  188.5830  176.2880  144.0140 C   0  0  2  0  0  3  0  0  0  0  0  0
  189.5180  176.3900  146.3370 C   0  0  0  0  0  3  0  0  0  0  0  0
  190.6840  175.0870  144.5050 C   0  0  2  0  0  3  0  0  0  0  0  0
  190.4200  174.3040  143.2980 N   0  0  0  0  0  2  0  0  0  0  0  0
  188.5270  177.2020  146.7260 C   0  0  0  0  0  3  0  0  0  0  0  0
  189.0370  173.7400  141.2460 C   0  0  1  0  0  3  0  0  0  0  0  0
  188.0000  172.6620  141.5380 C   0  0  0  0  0  1  0  0  0  0  0  0
  188.6130  174.5740  140.1970 O   0  0  0  0  0  0  0  0  0  0  0  0
  188.6750  173.7960  139.0340 C   0  0  1  0  0  3  0  0  0  0  0  0
  187.9870  174.5370  137.9050 C   0  0  0  0  0  1  0  0  0  0  0  0
  190.1270  173.5200  138.6280 C   0  0  0  0  0  2  0  0  0  0  0  0
  190.5110  172.1000  138.6550 N   0  0  0  0  0  0  0  0  0  0  0  0
  191.1530  169.4410  137.9120 C   0  0  0  0  0  2  0  0  0  0  0  0
  189.4770  171.3520  137.9390 C   0  0  0  0  0  2  0  0  0  0  0  0
  191.8670  171.8670  138.0890 C   0  0  2  0  0  3  0  0  0  0  0  0
  191.9920  170.5570  137.2860 C   0  0  0  0  0  2  0  0  0  0  0  0
  189.6920  169.8510  138.1140 C   0  0  0  0  0  2  0  0  0  0  0  0
  192.4140  171.6360  140.5700 C   0  0  0  0  0  2  0  0  0  0  0  0
  192.9600  171.9600  139.1600 C   0  0  2  0  0  3  0  0  0  0  0  0
  194.5670  175.6320  140.1330 Cl  0  0  0  0  0  0  0  0  0  0  0  0
  193.7320  173.4890  141.5200 C   0  0  0  0  0  3  0  0  0  0  0  0
  193.4830  174.2300  140.2400 C   0  0  2  0  0  3  0  0  0  0  0  0
  193.2380  172.2530  141.6660 C   0  0  0  0  0  3  0  0  0  0  0  0
  193.7310  173.2990  139.0470 C   0  0  0  0  0  2  0  0  0  0  0  0
  191.4300  174.2790  145.4610 N   0  0  0  0  0  2  0  0  0  0  0  0
  194.8030  172.8770  145.3470 C   0  0  0  0  0  3  0  0  0  0  0  0
  195.6670  174.1130  145.4760 C   0  0  0  0  0  0  0  0  0  0  0  0
  196.8930  173.7890  146.3080 C   0  0  0  0  0  1  0  0  0  0  0  0
  193.5690  175.3460  145.9690 C   0  0  0  0  0  3  0  0  0  0  0  0
  193.4740  172.9900  145.1750 C   0  0  0  0  0  3  0  0  0  0  0  0
  192.8380  174.3550  145.0910 C   0  0  1  0  0  3  0  0  0  0  0  0
  196.1170  174.5630  144.1000 C   0  0  0  0  0  1  0  0  0  0  0  0
  194.8970  175.2330  146.1400 C   0  0  0  0  0  3  0  0  0  0  0  0
  1  6  1  0  0  0  0
  1  8  1  0  0  0  0
  2 12  1  1  0  0  0
  3 10  2  0  0  0  0
  3 14  1  0  0  0  0
  4  8  2  0  0  0  0
  4 15  1  0  0  0  0
  5  1  2  0  0  0  0
  7  4  1  0  0  0  0
  9  5  1  0  0  0  0
  9  7  2  0  0  0  0
 11 10  1  6  0  0  0
 11  7  1  0  0  0  0
 11  2  1  0  0  0  0
 12 15  2  0  0  0  0
 13  2  1  0  0  0  0
 13 35  1  1  0  0  0
 14 13  1  0  0  0  0
 16 17  1  1  0  0  0
 16  3  1  0  0  0  0
 18 16  1  0  0  0  0
 19 20  1  6  0  0  0
 19 18  1  0  0  0  0
 21 22  1  0  0  0  0
 21 19  1  0  0  0  0
 23 27  1  0  0  0  0
 24 27  1  0  0  0  0
 24 22  1  0  0  0  0
 25 26  1  1  0  0  0
 25 22  1  0  0  0  0
 25 29  1  0  0  0  0
 26 23  1  0  0  0  0
 28 33  1  0  0  0  0
 29 34  1  1  0  0  0
 29 28  1  0  0  0  0
 31 33  2  0  0  0  0
 32 30  1  6  0  0  0
 32 31  1  0  0  0  0
 34 32  1  0  0  0  0
 36 37  1  0  0  0  0
 37 43  1  0  0  0  0
 37 38  1  0  0  0  0
 39 43  2  0  0  0  0
 40 36  2  0  0  0  0
 41 40  1  0  0  0  0
 41 35  1  1  0  0  0
 41 39  1  0  0  0  0
 42 37  1  0  0  0  0
M  END
>  <MODEL>
8

>  <REMARK>
 VINA RESULT:      -6.5      2.651      4.347
  Name = 
  8 active torsions:
  status: ('A' for Active; 'I' for Inactive)
    1  A    between atoms: N_1  and  C_34
    2  A    between atoms: N_1  and  C_35
    3  A    between atoms: C_2  and  O_6
    4  A    between atoms: C_2  and  C_13
    5  A    between atoms: C_3  and  N_4
    6  A    between atoms: C_3  and  C_12
    7  A    between atoms: O_6  and  C_12
    8  A    between atoms: C_14  and  C_22
                            x       y       z     vdW  Elec       q    Type
                         _______ _______ _______ _____ _____    ______ ____

>  <TORSDO>
F 8

$$$$
=
 OpenBabel11052420473D

 43 48  0  0  1  0  0  0  0  0999 V2000
  195.8550  173.7240  145.9390 C   0  0  0  0  0  0  0  0  0  0  0  0
  191.5620  175.7890  144.3100 C   0  0  2  0  0  3  0  0  0  0  0  0
  190.1980  173.6850  143.0440 C   0  0  0  0  0  0  0  0  0  0  0  0
  193.9670  175.1400  145.6880 C   0  0  0  0  0  0  0  0  0  0  0  0
  195.1670  172.6640  145.3460 C   0  0  0  0  0  3  0  0  0  0  0  0
  197.1940  173.5410  146.3840 N   0  0  0  0  0  1  0  0  0  0  0  0
  193.2460  174.1000  145.0700 C   0  0  0  0  0  0  0  0  0  0  0  0
  195.2450  174.9270  146.1080 N   0  0  0  0  0  0  0  0  0  0  0  0
  193.8510  172.8500  144.9220 C   0  0  0  0  0  3  0  0  0  0  0  0
  191.2730  173.4070  143.7230 N   0  0  0  0  0  0  0  0  0  0  0  0
  191.7940  174.3320  144.7370 C   0  0  2  0  0  3  0  0  0  0  0  0
  192.1590  176.7450  145.3100 C   0  0  0  0  0  3  0  0  0  0  0  0
  190.0620  175.9790  144.1130 C   0  0  2  0  0  3  0  0  0  0  0  0
  189.5760  174.9810  143.1610 N   0  0  0  0  0  2  0  0  0  0  0  0
  193.3190  176.4510  145.9110 C   0  0  0  0  0  3  0  0  0  0  0  0
  189.6610  172.6910  142.0700 C   0  0  1  0  0  3  0  0  0  0  0  0
  188.1370  172.7420  142.0880 C   0  0  0  0  0  1  0  0  0  0  0  0
  190.1560  172.9700  140.7840 O   0  0  0  0  0  0  0  0  0  0  0  0
  191.2500  172.1160  140.5960 C   0  0  1  0  0  3  0  0  0  0  0  0
  190.8420  170.7010  140.9580 C   0  0  0  0  0  1  0  0  0  0  0  0
  191.7230  172.1340  139.1390 C   0  0  0  0  0  2  0  0  0  0  0  0
  193.0870  172.6530  138.9440 N   0  0  0  0  0  0  0  0  0  0  0  0
  195.3550  174.0370  137.9580 C   0  0  0  0  0  2  0  0  0  0  0  0
  193.4620  172.3890  137.5550 C   0  0  0  0  0  2  0  0  0  0  0  0
  193.2010  174.0950  139.2920 C   0  0  2  0  0  3  0  0  0  0  0  0
  194.1520  174.8860  138.3720 C   0  0  0  0  0  2  0  0  0  0  0  0
  194.9410  172.6990  137.3380 C   0  0  0  0  0  2  0  0  0  0  0  0
  193.9380  175.7740  141.0670 C   0  0  0  0  0  2  0  0  0  0  0  0
  193.5640  174.3030  140.7670 C   0  0  2  0  0  3  0  0  0  0  0  0
  197.0240  172.6430  142.2790 Cl  0  0  0  0  0  0  0  0  0  0  0  0
  195.7970  175.0220  142.4980 C   0  0  0  0  0  3  0  0  0  0  0  0
  195.9710  173.8730  141.5510 C   0  0  2  0  0  3  0  0  0  0  0  0
  194.8210  175.9120  142.2750 C   0  0  0  0  0  3  0  0  0  0  0  0
  194.6050  173.2540  141.2330 C   0  0  0  0  0  2  0  0  0  0  0  0
  189.7790  177.3170  143.6100 N   0  0  0  0  0  2  0  0  0  0  0  0
  187.4960  177.3170  146.4630 C   0  0  0  0  0  3  0  0  0  0  0  0
  186.1590  177.5770  145.8020 C   0  0  0  0  0  0  0  0  0  0  0  0
  185.0800  176.7830  146.5140 C   0  0  0  0  0  1  0  0  0  0  0  0
  187.3360  177.2640  143.6390 C   0  0  0  0  0  3  0  0  0  0  0  0
  188.6360  177.4120  145.7560 C   0  0  0  0  0  3  0  0  0  0  0  0
  188.5880  177.7980  144.2980 C   0  0  1  0  0  3  0  0  0  0  0  0
  185.8240  179.0520  145.9000 C   0  0  0  0  0  1  0  0  0  0  0  0
  186.1980  177.1700  144.3460 C   0  0  0  0  0  3  0  0  0  0  0  0
  1  8  1  0  0  0  0
  1  6  1  0  0  0  0
  2 11  1  0  0  0  0
  2 12  1  1  0  0  0
  3 14  1  0  0  0  0
  3 10  2  0  0  0  0
  4 15  1  0  0  0  0
  4  8  2  0  0  0  0
  5  1  2  0  0  0  0
  7  4  1  0  0  0  0
  9  7  2  0  0  0  0
  9  5  1  0  0  0  0
 11 10  1  6  0  0  0
 11  7  1  0  0  0  0
 12 15  2  0  0  0  0
 13 35  1  6  0  0  0
 13  2  1  0  0  0  0
 14 13  1  0  0  0  0
 16 17  1  6  0  0  0
 16  3  1  0  0  0  0
 18 16  1  0  0  0  0
 19 18  1  0  0  0  0
 19 20  1  6  0  0  0
 21 19  1  0  0  0  0
 22 21  1  0  0  0  0
 22 25  1  0  0  0  0
 23 26  1  0  0  0  0
 24 22  1  0  0  0  0
 25 26  1  6  0  0  0
 25 29  1  0  0  0  0
 27 24  1  0  0  0  0
 27 23  1  0  0  0  0
 28 33  1  0  0  0  0
 29 28  1  6  0  0  0
 29 34  1  0  0  0  0
 32 30  1  1  0  0  0
 32 31  1  0  0  0  0
 33 31  2  0  0  0  0
 34 32  1  0  0  0  0
 37 42  1  0  0  0  0
 37 36  1  0  0  0  0
 37 38  1  0  0  0  0
 39 41  1  0  0  0  0
 39 43  2  0  0  0  0
 40 36  2  0  0  0  0
 41 35  1  6  0  0  0
 41 40  1  0  0  0  0
 43 37  1  0  0  0  0
M  END
>  <MODEL>
9

>  <REMARK>
 VINA RESULT:      -6.4      2.416      6.969
  Name = 
  8 active torsions:
  status: ('A' for Active; 'I' for Inactive)
    1  A    between atoms: N_1  and  C_34
    2  A    between atoms: N_1  and  C_35
    3  A    between atoms: C_2  and  O_6
    4  A    between atoms: C_2  and  C_13
    5  A    between atoms: C_3  and  N_4
    6  A    between atoms: C_3  and  C_12
    7  A    between atoms: O_6  and  C_12
    8  A    between atoms: C_14  and  C_22
                            x       y       z     vdW  Elec       q    Type
                         _______ _______ _______ _____ _____    ______ ____

>  <TORSDO>
F 8

$$$$
