=
 OpenBabel11052420463D

 43 48  0  0  1  0  0  0  0  0999 V2000
  185.0890  177.9380  145.9540 C   0  0  0  0  0  0  0  0  0  0  0  0
  188.9220  175.0680  144.0540 C   0  0  1  0  0  3  0  0  0  0  0  0
  191.2160  176.0660  145.4200 C   0  0  2  0  0  3  0  0  0  0  0  0
  186.6300  176.7720  144.4820 C   0  0  0  0  0  0  0  0  0  0  0  0
  185.9330  177.6880  147.0400 C   0  0  0  0  0  3  0  0  0  0  0  0
  183.8220  178.6900  146.1530 C   0  0  0  0  0  1  0  0  0  0  0  0
  187.4730  176.5040  145.5830 C   0  0  0  0  0  0  0  0  0  0  0  0
  185.4350  177.4740  144.6800 C   0  0  0  0  0  3  0  0  0  0  0  0
  187.1180  176.9730  146.8550 C   0  0  0  0  0  3  0  0  0  0  0  0
  189.9000  176.7060  145.6370 N   0  0  0  0  0  2  0  0  0  0  0  0
  188.7840  175.7800  145.4160 C   0  0  2  0  0  3  0  0  0  0  0  0
  188.4160  175.9580  142.9270 C   0  0  0  0  0  2  0  0  0  0  0  0
  190.3910  174.7240  143.8020 C   0  0  1  0  0  3  0  0  0  0  0  0
  191.1030  174.7180  145.0130 O   0  0  0  0  0  0  0  0  0  0  0  0
  186.9290  176.2270  143.1160 C   0  0  0  0  0  2  0  0  0  0  0  0
  192.0640  176.1530  146.6890 C   0  0  1  0  0  3  0  0  0  0  0  0
  191.4180  175.3450  147.8030 C   0  0  0  0  0  1  0  0  0  0  0  0
  193.4680  175.6200  146.4340 C   0  0  0  0  0  2  0  0  0  0  0  0
  194.3930  176.7330  146.0580 C   0  0  0  0  0  0  0  0  0  0  0  0
  194.6820  177.6050  146.9190 O   0  0  0  0  0  0  0  0  0  0  0  0
  194.9420  176.8310  144.7780 O   0  0  0  0  0  0  0  0  0  0  0  0
  194.8620  175.7760  143.8220 C   0  0  1  0  0  3  0  0  0  0  0  0
  195.8060  175.0510  141.7350 C   0  0  0  0  0  2  0  0  0  0  0  0
  193.8520  176.1150  142.7430 C   0  0  0  0  0  2  0  0  0  0  0  0
  196.2020  175.5290  143.1170 C   0  0  1  0  0  0  0  0  0  0  0  0
  197.0310  176.8080  142.9370 C   0  0  0  0  0  1  0  0  0  0  0  0
  194.4330  175.6250  141.4300 C   0  0  0  0  0  2  0  0  0  0  0  0
  196.9530  174.5010  143.7390 O   0  0  0  0  0  0  0  0  0  0  0  0
  196.1140  173.7250  144.5570 C   0  0  2  0  0  3  0  0  0  0  0  0
  196.6680  170.0730  145.0570 C   0  0  0  0  0  1  0  0  0  0  0  0
  196.9180  172.2090  146.1910 N   0  0  0  0  0  0  0  0  0  0  0  0
  196.5760  171.5550  145.1390 C   0  0  0  0  0  0  0  0  0  0  0  0
  196.7090  173.6320  145.9650 C   0  0  0  0  0  2  0  0  0  0  0  0
  196.0910  172.3540  144.0780 N   0  0  0  0  0  2  0  0  0  0  0  0
  190.4880  173.4690  143.1960 O   0  0  0  0  0  0  0  0  0  0  0  0
  191.2140  173.1980  139.5980 C   0  0  0  0  0  2  0  0  0  0  0  0
  191.6530  171.7350  139.7720 C   0  0  1  0  0  0  0  0  0  0  0  0
  190.5570  170.8240  139.2530 C   0  0  0  0  0  1  0  0  0  0  0  0
  192.3980  172.5750  142.0450 C   0  0  0  0  0  2  0  0  0  0  0  0
  190.4510  173.7100  140.8170 C   0  0  0  0  0  2  0  0  0  0  0  0
  191.3140  173.6620  142.0860 C   0  0  1  0  0  3  0  0  0  0  0  0
  192.8040  171.5210  139.0160 O   0  0  0  0  0  1  0  0  0  0  0  0
  191.9410  171.3660  141.2350 C   0  0  0  0  0  2  0  0  0  0  0  0
  1  6  1  0  0  0  0
  1  5  1  0  0  0  0
  2 12  1  6  0  0  0
  2 11  1  0  0  0  0
  3 10  1  0  0  0  0
  3 16  1  1  0  0  0
  4  8  1  0  0  0  0
  4  7  2  0  0  0  0
  7  9  1  0  0  0  0
  8  1  2  0  0  0  0
  9  5  2  0  0  0  0
 11  7  1  6  0  0  0
 11 10  1  0  0  0  0
 12 15  1  0  0  0  0
 13 35  1  1  0  0  0
 13  2  1  0  0  0  0
 13 14  1  0  0  0  0
 14  3  1  0  0  0  0
 15  4  1  0  0  0  0
 16 17  1  1  0  0  0
 18 16  1  0  0  0  0
 19 18  1  0  0  0  0
 19 20  2  0  0  0  0
 21 19  1  0  0  0  0
 22 21  1  1  0  0  0
 23 25  1  0  0  0  0
 24 22  1  0  0  0  0
 25 26  1  6  0  0  0
 25 28  1  0  0  0  0
 25 22  1  0  0  0  0
 27 23  1  0  0  0  0
 27 24  1  0  0  0  0
 29 28  1  6  0  0  0
 29 33  1  0  0  0  0
 30 32  1  0  0  0  0
 32 31  2  0  0  0  0
 33 31  1  0  0  0  0
 34 29  1  0  0  0  0
 34 32  1  0  0  0  0
 36 37  1  0  0  0  0
 36 40  1  0  0  0  0
 37 38  1  6  0  0  0
 37 43  1  0  0  0  0
 39 41  1  0  0  0  0
 40 41  1  0  0  0  0
 41 35  1  1  0  0  0
 42 37  1  0  0  0  0
 43 39  1  0  0  0  0
M  END
>  <MODEL>
1

>  <REMARK>
 VINA RESULT:      -8.3      0.000      0.000
  Name = 
  9 active torsions:
  status: ('A' for Active; 'I' for Inactive)
    1  A    between atoms: O_1  and  C_34
    2  A    between atoms: O_1  and  C_35
    3  A    between atoms: C_2  and  C_6
    4  A    between atoms: C_2  and  C_13
    5  A    between atoms: O_3  and  C_4
    6  A    between atoms: O_3  and  C_12
    7  A    between atoms: C_6  and  C_12
    8  A    between atoms: C_11  and  O_14
    9  A    between atoms: O_14  and  C_22
                            x       y       z     vdW  Elec       q    Type
                         _______ _______ _______ _____ _____    ______ ____

>  <TORSDO>
F 9

$$$$
=
 OpenBabel11052420463D

 43 48  0  0  1  0  0  0  0  0999 V2000
  185.2150  178.0530  145.9320 C   0  0  0  0  0  0  0  0  0  0  0  0
  189.4020  176.2340  143.5470 C   0  0  1  0  0  3  0  0  0  0  0  0
  191.4660  176.6260  145.4740 C   0  0  2  0  0  3  0  0  0  0  0  0
  186.9770  177.5960  144.3250 C   0  0  0  0  0  0  0  0  0  0  0  0
  185.9460  177.3980  146.9260 C   0  0  0  0  0  3  0  0  0  0  0  0
  183.8890  178.6460  146.2520 C   0  0  0  0  0  1  0  0  0  0  0  0
  187.7080  176.9170  145.3250 C   0  0  0  0  0  0  0  0  0  0  0  0
  185.7260  178.1450  144.6330 C   0  0  0  0  0  3  0  0  0  0  0  0
  187.1870  176.8320  146.6230 C   0  0  0  0  0  3  0  0  0  0  0  0
  190.0970  177.1090  145.7600 N   0  0  0  0  0  2  0  0  0  0  0  0
  189.0710  176.3370  145.0500 C   0  0  2  0  0  3  0  0  0  0  0  0
  188.9700  177.4970  142.8120 C   0  0  0  0  0  2  0  0  0  0  0  0
  190.9080  176.0380  143.3660 C   0  0  1  0  0  3  0  0  0  0  0  0
  191.4820  175.5550  144.5540 O   0  0  0  0  0  0  0  0  0  0  0  0
  187.4580  177.6500  142.9040 C   0  0  0  0  0  2  0  0  0  0  0  0
  192.1610  176.2060  146.7680 C   0  0  1  0  0  3  0  0  0  0  0  0
  191.2060  175.4020  147.6350 C   0  0  0  0  0  1  0  0  0  0  0  0
  193.3930  175.3630  146.4660 C   0  0  0  0  0  2  0  0  0  0  0  0
  194.5300  176.2290  146.0290 C   0  0  0  0  0  0  0  0  0  0  0  0
  194.6440  177.3830  146.5200 O   0  0  0  0  0  0  0  0  0  0  0  0
  195.4660  175.7930  145.0890 O   0  0  0  0  0  0  0  0  0  0  0  0
  195.2930  174.6030  144.3230 C   0  0  1  0  0  3  0  0  0  0  0  0
  196.5070  172.6960  143.5070 C   0  0  0  0  0  2  0  0  0  0  0  0
  195.5890  174.8660  142.8600 C   0  0  0  0  0  2  0  0  0  0  0  0
  196.2380  173.4810  144.7750 C   0  0  1  0  0  0  0  0  0  0  0  0
  197.5880  174.0020  145.2840 C   0  0  0  0  0  1  0  0  0  0  0  0
  196.3240  173.6470  142.3360 C   0  0  0  0  0  2  0  0  0  0  0  0
  195.6260  172.6080  145.7090 O   0  0  0  0  0  0  0  0  0  0  0  0
  195.8070  171.2740  145.3060 C   0  0  2  0  0  3  0  0  0  0  0  0
  196.5380  168.5540  147.7470 C   0  0  0  0  0  1  0  0  0  0  0  0
  194.7480  169.4340  146.3570 N   0  0  0  0  0  0  0  0  0  0  0  0
  195.9590  169.5210  146.7780 C   0  0  0  0  0  0  0  0  0  0  0  0
  194.4820  170.5150  145.4200 C   0  0  0  0  0  2  0  0  0  0  0  0
  196.6970  170.5970  146.2330 N   0  0  0  0  0  2  0  0  0  0  0  0
  191.1490  175.1350  142.3280 O   0  0  0  0  0  0  0  0  0  0  0  0
  192.1630  171.6040  142.5490 C   0  0  0  0  0  2  0  0  0  0  0  0
  191.1480  171.2180  141.4610 C   0  0  1  0  0  0  0  0  0  0  0  0
  191.8870  170.9760  140.1590 C   0  0  0  0  0  1  0  0  0  0  0  0
  189.8310  173.1310  142.4780 C   0  0  0  0  0  2  0  0  0  0  0  0
  192.3940  173.1120  142.6010 C   0  0  0  0  0  2  0  0  0  0  0  0
  191.0990  173.8720  142.9240 C   0  0  1  0  0  3  0  0  0  0  0  0
  190.5140  170.0360  141.8390 O   0  0  0  0  0  1  0  0  0  0  0  0
  190.0840  172.3010  141.2230 C   0  0  0  0  0  2  0  0  0  0  0  0
  1  6  1  0  0  0  0
  1  5  1  0  0  0  0
  2 12  1  6  0  0  0
  2 11  1  0  0  0  0
  3 10  1  0  0  0  0
  3 16  1  1  0  0  0
  4  8  1  0  0  0  0
  4  7  2  0  0  0  0
  7  9  1  0  0  0  0
  8  1  2  0  0  0  0
  9  5  2  0  0  0  0
 11  7  1  6  0  0  0
 11 10  1  0  0  0  0
 12 15  1  0  0  0  0
 13 35  1  6  0  0  0
 13  2  1  0  0  0  0
 13 14  1  0  0  0  0
 14  3  1  0  0  0  0
 15  4  1  0  0  0  0
 16 17  1  1  0  0  0
 18 16  1  0  0  0  0
 19 18  1  0  0  0  0
 19 20  2  0  0  0  0
 21 19  1  0  0  0  0
 22 25  1  0  0  0  0
 22 21  1  1  0  0  0
 23 25  1  0  0  0  0
 24 22  1  0  0  0  0
 25 26  1  1  0  0  0
 25 28  1  0  0  0  0
 27 24  1  0  0  0  0
 27 23  1  0  0  0  0
 29 33  1  0  0  0  0
 29 28  1  1  0  0  0
 29 34  1  0  0  0  0
 31 32  2  0  0  0  0
 32 30  1  0  0  0  0
 33 31  1  0  0  0  0
 34 32  1  0  0  0  0
 36 40  1  0  0  0  0
 37 38  1  6  0  0  0
 37 42  1  0  0  0  0
 37 36  1  0  0  0  0
 39 41  1  0  0  0  0
 40 41  1  0  0  0  0
 41 35  1  6  0  0  0
 43 37  1  0  0  0  0
 43 39  1  0  0  0  0
M  END
>  <MODEL>
2

>  <REMARK>
 VINA RESULT:      -8.3      1.476      2.074
  Name = 
  9 active torsions:
  status: ('A' for Active; 'I' for Inactive)
    1  A    between atoms: O_1  and  C_34
    2  A    between atoms: O_1  and  C_35
    3  A    between atoms: C_2  and  C_6
    4  A    between atoms: C_2  and  C_13
    5  A    between atoms: O_3  and  C_4
    6  A    between atoms: O_3  and  C_12
    7  A    between atoms: C_6  and  C_12
    8  A    between atoms: C_11  and  O_14
    9  A    between atoms: O_14  and  C_22
                            x       y       z     vdW  Elec       q    Type
                         _______ _______ _______ _____ _____    ______ ____

>  <TORSDO>
F 9

$$$$
=
 OpenBabel11052420463D

 43 48  0  0  1  0  0  0  0  0999 V2000
  196.1320  173.7330  145.7440 C   0  0  0  0  0  0  0  0  0  0  0  0
  191.2800  175.4280  146.0770 C   0  0  1  0  0  3  0  0  0  0  0  0
  190.0360  174.2850  143.7800 C   0  0  2  0  0  3  0  0  0  0  0  0
  194.1490  175.1150  145.9730 C   0  0  0  0  0  0  0  0  0  0  0  0
  195.3410  172.6600  145.3270 C   0  0  0  0  0  3  0  0  0  0  0  0
  197.6080  173.5740  145.8460 C   0  0  0  0  0  1  0  0  0  0  0  0
  193.3470  174.0250  145.5690 C   0  0  0  0  0  0  0  0  0  0  0  0
  195.5360  174.9550  146.0730 C   0  0  0  0  0  3  0  0  0  0  0  0
  193.9540  172.8060  145.2420 C   0  0  0  0  0  3  0  0  0  0  0  0
  191.4870  174.0930  143.9980 N   0  0  0  0  0  2  0  0  0  0  0  0
  191.8540  174.1570  145.4170 C   0  0  2  0  0  3  0  0  0  0  0  0
  192.1660  176.6330  145.7870 C   0  0  0  0  0  2  0  0  0  0  0  0
  189.8740  175.6960  145.5360 C   0  0  1  0  0  3  0  0  0  0  0  0
  189.3340  174.5230  144.9830 O   0  0  0  0  0  0  0  0  0  0  0  0
  193.5400  176.4170  146.4050 C   0  0  0  0  0  2  0  0  0  0  0  0
  189.4420  173.0710  143.0670 C   0  0  1  0  0  3  0  0  0  0  0  0
  189.3190  171.9070  144.0360 C   0  0  0  0  0  1  0  0  0  0  0  0
  188.0660  173.4010  142.5030 C   0  0  0  0  0  2  0  0  0  0  0  0
  188.1750  173.8570  141.0840 C   0  0  0  0  0  0  0  0  0  0  0  0
  188.4810  173.0210  140.1940 O   0  0  0  0  0  0  0  0  0  0  0  0
  187.9480  175.1870  140.7200 O   0  0  0  0  0  0  0  0  0  0  0  0
  187.7570  176.2260  141.6780 C   0  0  1  0  0  3  0  0  0  0  0  0
  187.2680  178.5730  141.8370 C   0  0  0  0  0  2  0  0  0  0  0  0
  189.0690  176.9280  141.9670 C   0  0  0  0  0  2  0  0  0  0  0  0
  186.7770  177.2980  141.1820 C   0  0  1  0  0  0  0  0  0  0  0  0
  186.8380  177.5110  139.6640 C   0  0  0  0  0  1  0  0  0  0  0  0
  188.7550  178.4050  142.1030 C   0  0  0  0  0  2  0  0  0  0  0  0
  185.4520  177.0590  141.6250 O   0  0  0  0  0  0  0  0  0  0  0  0
  184.7040  178.2480  141.5540 C   0  0  2  0  0  3  0  0  0  0  0  0
  181.1410  178.2760  140.4600 C   0  0  0  0  0  1  0  0  0  0  0  0
  182.5220  178.4750  142.4500 N   0  0  0  0  0  0  0  0  0  0  0  0
  182.4410  178.2920  141.1810 C   0  0  0  0  0  0  0  0  0  0  0  0
  183.9200  178.4420  142.8550 C   0  0  0  0  0  2  0  0  0  0  0  0
  183.6840  178.1250  140.5270 N   0  0  0  0  0  2  0  0  0  0  0  0
  189.0480  176.1520  146.5660 O   0  0  0  0  0  0  0  0  0  0  0  0
  186.3820  178.4490  145.4900 C   0  0  0  0  0  2  0  0  0  0  0  0
  185.7740  178.4450  146.9020 C   0  0  1  0  0  0  0  0  0  0  0  0
  186.1230  179.7480  147.5950 C   0  0  0  0  0  1  0  0  0  0  0  0
  186.6730  176.0740  146.9230 C   0  0  0  0  0  2  0  0  0  0  0  0
  187.7960  177.8740  145.4790 C   0  0  0  0  0  2  0  0  0  0  0  0
  187.8180  176.4160  145.9590 C   0  0  1  0  0  3  0  0  0  0  0  0
  184.3880  178.3570  146.7920 O   0  0  0  0  0  1  0  0  0  0  0  0
  186.2800  177.2820  147.7690 C   0  0  0  0  0  2  0  0  0  0  0  0
  1  6  1  0  0  0  0
  1  8  1  0  0  0  0
  2 12  1  6  0  0  0
  3 16  1  1  0  0  0
  3 10  1  0  0  0  0
  3 14  1  0  0  0  0
  4  8  2  0  0  0  0
  4 15  1  0  0  0  0
  5  1  2  0  0  0  0
  7  4  1  0  0  0  0
  9  5  1  0  0  0  0
  9  7  2  0  0  0  0
 11 10  1  6  0  0  0
 11  7  1  0  0  0  0
 11  2  1  0  0  0  0
 12 15  1  0  0  0  0
 13  2  1  0  0  0  0
 13 35  1  1  0  0  0
 14 13  1  0  0  0  0
 16 17  1  1  0  0  0
 18 16  1  0  0  0  0
 19 18  1  0  0  0  0
 20 19  2  0  0  0  0
 21 19  1  0  0  0  0
 22 21  1  6  0  0  0
 22 24  1  0  0  0  0
 23 27  1  0  0  0  0
 24 27  1  0  0  0  0
 25 26  1  6  0  0  0
 25 28  1  0  0  0  0
 25 22  1  0  0  0  0
 25 23  1  0  0  0  0
 29 28  1  1  0  0  0
 29 33  1  0  0  0  0
 30 32  1  0  0  0  0
 31 33  1  0  0  0  0
 32 31  2  0  0  0  0
 34 32  1  0  0  0  0
 34 29  1  0  0  0  0
 36 37  1  0  0  0  0
 37 38  1  1  0  0  0
 37 43  1  0  0  0  0
 39 43  1  0  0  0  0
 40 36  1  0  0  0  0
 40 41  1  0  0  0  0
 41 35  1  1  0  0  0
 41 39  1  0  0  0  0
 42 37  1  0  0  0  0
M  END
>  <MODEL>
3

>  <REMARK>
 VINA RESULT:      -8.2      3.283      9.694
  Name = 
  9 active torsions:
  status: ('A' for Active; 'I' for Inactive)
    1  A    between atoms: O_1  and  C_34
    2  A    between atoms: O_1  and  C_35
    3  A    between atoms: C_2  and  C_6
    4  A    between atoms: C_2  and  C_13
    5  A    between atoms: O_3  and  C_4
    6  A    between atoms: O_3  and  C_12
    7  A    between atoms: C_6  and  C_12
    8  A    between atoms: C_11  and  O_14
    9  A    between atoms: O_14  and  C_22
                            x       y       z     vdW  Elec       q    Type
                         _______ _______ _______ _____ _____    ______ ____

>  <TORSDO>
F 9

$$$$
=
 OpenBabel11052420463D

 43 48  0  0  1  0  0  0  0  0999 V2000
  186.2700  177.6830  146.7620 C   0  0  0  0  0  0  0  0  0  0  0  0
  190.9480  175.9170  145.5280 C   0  0  1  0  0  3  0  0  0  0  0  0
  190.3760  173.5900  143.9840 C   0  0  2  0  0  3  0  0  0  0  0  0
  188.5720  176.9140  146.8320 C   0  0  0  0  0  0  0  0  0  0  0  0
  186.1520  177.2210  145.4480 C   0  0  0  0  0  3  0  0  0  0  0  0
  185.1110  178.3360  147.4280 C   0  0  0  0  0  1  0  0  0  0  0  0
  188.4590  176.4650  145.4970 C   0  0  0  0  0  0  0  0  0  0  0  0
  187.4790  177.5360  147.4490 C   0  0  0  0  0  3  0  0  0  0  0  0
  187.2430  176.6170  144.8190 C   0  0  0  0  0  3  0  0  0  0  0  0
  189.2660  174.3480  144.6040 N   0  0  0  0  0  2  0  0  0  0  0  0
  189.5960  175.7640  144.8020 C   0  0  2  0  0  3  0  0  0  0  0  0
  190.7760  175.7420  147.0320 C   0  0  0  0  0  2  0  0  0  0  0  0
  191.9320  174.8670  145.0090 C   0  0  1  0  0  3  0  0  0  0  0  0
  191.5170  174.3910  143.7540 O   0  0  0  0  0  0  0  0  0  0  0  0
  189.8740  176.8420  147.5740 C   0  0  0  0  0  2  0  0  0  0  0  0
  189.9170  172.9570  142.6720 C   0  0  1  0  0  3  0  0  0  0  0  0
  189.9560  171.4410  142.7840 C   0  0  0  0  0  1  0  0  0  0  0  0
  188.5000  173.3970  142.3290 C   0  0  0  0  0  2  0  0  0  0  0  0
  188.4340  173.9170  140.9290 C   0  0  0  0  0  0  0  0  0  0  0  0
  188.9110  173.2220  139.9950 O   0  0  0  0  0  0  0  0  0  0  0  0
  187.8600  175.1550  140.6320 O   0  0  0  0  0  0  0  0  0  0  0  0
  187.7460  176.2030  141.5930 C   0  0  1  0  0  3  0  0  0  0  0  0
  187.3110  178.5600  141.7650 C   0  0  0  0  0  2  0  0  0  0  0  0
  189.0860  176.8820  141.7960 C   0  0  0  0  0  2  0  0  0  0  0  0
  186.7580  177.2900  141.1500 C   0  0  1  0  0  0  0  0  0  0  0  0
  186.7300  177.4940  139.6300 C   0  0  0  0  0  1  0  0  0  0  0  0
  188.8080  178.3660  141.9410 C   0  0  0  0  0  2  0  0  0  0  0  0
  185.4580  177.0790  141.6750 O   0  0  0  0  0  0  0  0  0  0  0  0
  184.7060  178.2630  141.5790 C   0  0  2  0  0  3  0  0  0  0  0  0
  181.1540  178.2600  140.4510 C   0  0  0  0  0  1  0  0  0  0  0  0
  182.5150  178.4950  142.4510 N   0  0  0  0  0  0  0  0  0  0  0  0
  182.4470  178.2920  141.1840 C   0  0  0  0  0  0  0  0  0  0  0  0
  183.9090  178.4740  142.8690 C   0  0  0  0  0  2  0  0  0  0  0  0
  183.6960  178.1200  140.5440 N   0  0  0  0  0  2  0  0  0  0  0  0
  193.2080  175.4240  144.9000 O   0  0  0  0  0  0  0  0  0  0  0  0
  196.4280  174.0470  146.0310 C   0  0  0  0  0  2  0  0  0  0  0  0
  196.2590  172.8280  145.1100 C   0  0  1  0  0  0  0  0  0  0  0  0
  197.1620  172.9910  143.9030 C   0  0  0  0  0  1  0  0  0  0  0  0
  193.8020  173.2070  145.6100 C   0  0  0  0  0  2  0  0  0  0  0  0
  195.4560  175.1680  145.6730 C   0  0  0  0  0  2  0  0  0  0  0  0
  193.9950  174.7160  145.8120 C   0  0  1  0  0  3  0  0  0  0  0  0
  196.6480  171.6850  145.8050 O   0  0  0  0  0  1  0  0  0  0  0  0
  194.8160  172.6450  144.6170 C   0  0  0  0  0  2  0  0  0  0  0  0
  1  6  1  0  0  0  0
  1  8  1  0  0  0  0
  2 12  1  1  0  0  0
  3 16  1  6  0  0  0
  3 10  1  0  0  0  0
  4  8  2  0  0  0  0
  4 15  1  0  0  0  0
  5  1  2  0  0  0  0
  7  4  1  0  0  0  0
  9  5  1  0  0  0  0
  9  7  2  0  0  0  0
 11 10  1  1  0  0  0
 11  7  1  0  0  0  0
 11  2  1  0  0  0  0
 12 15  1  0  0  0  0
 13 35  1  6  0  0  0
 13  2  1  0  0  0  0
 14  3  1  0  0  0  0
 14 13  1  0  0  0  0
 16 17  1  1  0  0  0
 18 16  1  0  0  0  0
 19 18  1  0  0  0  0
 20 19  2  0  0  0  0
 21 19  1  0  0  0  0
 22 21  1  6  0  0  0
 22 24  1  0  0  0  0
 23 27  1  0  0  0  0
 24 27  1  0  0  0  0
 25 26  1  6  0  0  0
 25 22  1  0  0  0  0
 25 28  1  0  0  0  0
 25 23  1  0  0  0  0
 29 28  1  1  0  0  0
 29 33  1  0  0  0  0
 30 32  1  0  0  0  0
 31 33  1  0  0  0  0
 32 31  2  0  0  0  0
 34 32  1  0  0  0  0
 34 29  1  0  0  0  0
 37 38  1  6  0  0  0
 37 42  1  0  0  0  0
 37 36  1  0  0  0  0
 39 41  1  0  0  0  0
 40 41  1  0  0  0  0
 40 36  1  0  0  0  0
 41 35  1  6  0  0  0
 43 37  1  0  0  0  0
 43 39  1  0  0  0  0
M  END
>  <MODEL>
4

>  <REMARK>
 VINA RESULT:      -7.9      3.045      8.095
  Name = 
  9 active torsions:
  status: ('A' for Active; 'I' for Inactive)
    1  A    between atoms: O_1  and  C_34
    2  A    between atoms: O_1  and  C_35
    3  A    between atoms: C_2  and  C_6
    4  A    between atoms: C_2  and  C_13
    5  A    between atoms: O_3  and  C_4
    6  A    between atoms: O_3  and  C_12
    7  A    between atoms: C_6  and  C_12
    8  A    between atoms: C_11  and  O_14
    9  A    between atoms: O_14  and  C_22
                            x       y       z     vdW  Elec       q    Type
                         _______ _______ _______ _____ _____    ______ ____

>  <TORSDO>
F 9

$$$$
=
 OpenBabel11052420463D

 43 48  0  0  1  0  0  0  0  0999 V2000
  193.7490  173.7760  139.6580 C   0  0  0  0  0  0  0  0  0  0  0  0
  189.6580  175.0450  142.5200 C   0  0  1  0  0  3  0  0  0  0  0  0
  190.7660  175.3600  145.1280 C   0  0  2  0  0  3  0  0  0  0  0  0
  191.5640  173.8380  140.7170 C   0  0  0  0  0  0  0  0  0  0  0  0
  194.2170  174.7370  140.5590 C   0  0  0  0  0  3  0  0  0  0  0  0
  194.6580  173.2290  138.6150 C   0  0  0  0  0  1  0  0  0  0  0  0
  192.0320  174.8220  141.6150 C   0  0  0  0  0  0  0  0  0  0  0  0
  192.4240  173.3340  139.7330 C   0  0  0  0  0  3  0  0  0  0  0  0
  193.3600  175.2580  141.5320 C   0  0  0  0  0  3  0  0  0  0  0  0
  191.6300  174.9050  144.0160 N   0  0  0  0  0  2  0  0  0  0  0  0
  191.1540  175.3720  142.7090 C   0  0  2  0  0  3  0  0  0  0  0  0
  189.4750  173.5990  142.0770 C   0  0  0  0  0  2  0  0  0  0  0  0
  188.9140  175.2650  143.8380 C   0  0  1  0  0  3  0  0  0  0  0  0
  189.6560  176.1100  144.6800 O   0  0  0  0  0  0  0  0  0  0  0  0
  190.1310  173.3940  140.7180 C   0  0  0  0  0  2  0  0  0  0  0  0
  191.5760  176.1830  146.1270 C   0  0  1  0  0  3  0  0  0  0  0  0
  190.6660  176.7140  147.2240 C   0  0  0  0  0  1  0  0  0  0  0  0
  192.6750  175.3360  146.7550 C   0  0  0  0  0  2  0  0  0  0  0  0
  194.0120  175.9720  146.5490 C   0  0  0  0  0  0  0  0  0  0  0  0
  194.1430  177.2050  146.7620 O   0  0  0  0  0  0  0  0  0  0  0  0
  195.1190  175.2330  146.1240 O   0  0  0  0  0  0  0  0  0  0  0  0
  195.3480  174.9070  144.7550 C   0  0  1  0  0  3  0  0  0  0  0  0
  197.0370  174.0380  143.2830 C   0  0  0  0  0  2  0  0  0  0  0  0
  195.9410  176.0930  144.0200 C   0  0  0  0  0  2  0  0  0  0  0  0
  196.3350  173.7430  144.5930 C   0  0  1  0  0  0  0  0  0  0  0  0
  197.4080  173.7090  145.6890 C   0  0  0  0  0  1  0  0  0  0  0  0
  196.9830  175.5410  143.0660 C   0  0  0  0  0  2  0  0  0  0  0  0
  195.6750  172.4950  144.4660 O   0  0  0  0  0  0  0  0  0  0  0  0
  194.3420  172.6980  144.0670 C   0  0  2  0  0  3  0  0  0  0  0  0
  192.5270  170.2490  141.9220 C   0  0  0  0  0  1  0  0  0  0  0  0
  192.6630  171.0340  144.2190 N   0  0  0  0  0  0  0  0  0  0  0  0
  193.0860  171.0980  143.0070 C   0  0  0  0  0  0  0  0  0  0  0  0
  193.3980  171.9850  145.0390 C   0  0  0  0  0  2  0  0  0  0  0  0
  194.1080  172.0500  142.7880 N   0  0  0  0  0  2  0  0  0  0  0  0
  187.6630  175.8330  143.5880 O   0  0  0  0  0  0  0  0  0  0  0  0
  186.2250  178.6820  145.4210 C   0  0  0  0  0  2  0  0  0  0  0  0
  185.4840  179.1530  144.1590 C   0  0  1  0  0  0  0  0  0  0  0  0
  184.0160  178.7930  144.2840 C   0  0  0  0  0  1  0  0  0  0  0  0
  187.5090  178.1580  143.0010 C   0  0  0  0  0  2  0  0  0  0  0  0
  186.7410  177.2530  145.2770 C   0  0  0  0  0  2  0  0  0  0  0  0
  187.7360  177.1250  144.1140 C   0  0  1  0  0  3  0  0  0  0  0  0
  185.5960  180.5380  144.0640 O   0  0  0  0  0  1  0  0  0  0  0  0
  186.0320  178.5190  142.8710 C   0  0  0  0  0  2  0  0  0  0  0  0
  1  8  2  0  0  0  0
  1  5  1  0  0  0  0
  2 12  1  1  0  0  0
  2 11  1  0  0  0  0
  2 13  1  0  0  0  0
  3 16  1  1  0  0  0
  4 15  1  0  0  0  0
  4  7  2  0  0  0  0
  5  9  2  0  0  0  0
  6  1  1  0  0  0  0
  8  4  1  0  0  0  0
  9  7  1  0  0  0  0
 10  3  1  0  0  0  0
 11  7  1  6  0  0  0
 11 10  1  0  0  0  0
 13 35  1  6  0  0  0
 13 14  1  0  0  0  0
 14  3  1  0  0  0  0
 15 12  1  0  0  0  0
 16 18  1  0  0  0  0
 16 17  1  1  0  0  0
 19 18  1  0  0  0  0
 19 20  2  0  0  0  0
 21 19  1  0  0  0  0
 22 21  1  1  0  0  0
 23 25  1  0  0  0  0
 24 22  1  0  0  0  0
 25 22  1  0  0  0  0
 25 26  1  1  0  0  0
 27 23  1  0  0  0  0
 27 24  1  0  0  0  0
 28 25  1  0  0  0  0
 29 28  1  1  0  0  0
 29 33  1  0  0  0  0
 30 32  1  0  0  0  0
 31 33  1  0  0  0  0
 32 31  2  0  0  0  0
 34 32  1  0  0  0  0
 34 29  1  0  0  0  0
 37 38  1  1  0  0  0
 37 36  1  0  0  0  0
 39 41  1  0  0  0  0
 40 36  1  0  0  0  0
 41 35  1  6  0  0  0
 41 40  1  0  0  0  0
 42 37  1  0  0  0  0
 43 39  1  0  0  0  0
 43 37  1  0  0  0  0
M  END
>  <MODEL>
5

>  <REMARK>
 VINA RESULT:      -7.8      2.204      6.184
  Name = 
  9 active torsions:
  status: ('A' for Active; 'I' for Inactive)
    1  A    between atoms: O_1  and  C_34
    2  A    between atoms: O_1  and  C_35
    3  A    between atoms: C_2  and  C_6
    4  A    between atoms: C_2  and  C_13
    5  A    between atoms: O_3  and  C_4
    6  A    between atoms: O_3  and  C_12
    7  A    between atoms: C_6  and  C_12
    8  A    between atoms: C_11  and  O_14
    9  A    between atoms: O_14  and  C_22
                            x       y       z     vdW  Elec       q    Type
                         _______ _______ _______ _____ _____    ______ ____

>  <TORSDO>
F 9

$$$$
=
 OpenBabel11052420463D

 43 48  0  0  1  0  0  0  0  0999 V2000
  184.9420  178.1720  145.6220 C   0  0  0  0  0  0  0  0  0  0  0  0
  188.6320  175.0780  143.7930 C   0  0  1  0  0  3  0  0  0  0  0  0
  191.0150  176.1950  144.8890 C   0  0  2  0  0  3  0  0  0  0  0  0
  186.3780  176.8410  144.1860 C   0  0  0  0  0  0  0  0  0  0  0  0
  185.8560  178.0330  146.6700 C   0  0  0  0  0  3  0  0  0  0  0  0
  183.6930  178.9530  145.8220 C   0  0  0  0  0  1  0  0  0  0  0  0
  187.2920  176.6840  145.2510 C   0  0  0  0  0  0  0  0  0  0  0  0
  185.2010  177.5720  144.3850 C   0  0  0  0  0  3  0  0  0  0  0  0
  187.0240  177.2910  146.4850 C   0  0  0  0  0  3  0  0  0  0  0  0
  189.7180  176.8670  145.1220 N   0  0  0  0  0  2  0  0  0  0  0  0
  188.5870  175.9340  145.0760 C   0  0  2  0  0  3  0  0  0  0  0  0
  188.0540  175.8480  142.6120 C   0  0  0  0  0  2  0  0  0  0  0  0
  190.0800  174.6950  143.4830 C   0  0  1  0  0  3  0  0  0  0  0  0
  190.8720  174.8130  144.6370 O   0  0  0  0  0  0  0  0  0  0  0  0
  186.5840  176.1500  142.8690 C   0  0  0  0  0  2  0  0  0  0  0  0
  191.9460  176.4090  146.0820 C   0  0  1  0  0  3  0  0  0  0  0  0
  191.1310  176.5970  147.3510 C   0  0  0  0  0  1  0  0  0  0  0  0
  192.8780  175.2170  146.2560 C   0  0  0  0  0  2  0  0  0  0  0  0
  194.3060  175.6580  146.2360 C   0  0  0  0  0  0  0  0  0  0  0  0
  194.5660  176.8880  146.1660 O   0  0  0  0  0  0  0  0  0  0  0  0
  195.3580  174.7410  146.2900 O   0  0  0  0  0  0  0  0  0  0  0  0
  196.0700  174.3160  145.1300 C   0  0  1  0  0  3  0  0  0  0  0  0
  196.5530  172.3530  143.8320 C   0  0  0  0  0  2  0  0  0  0  0  0
  197.4750  173.8800  145.5010 C   0  0  0  0  0  2  0  0  0  0  0  0
  195.3980  173.1190  144.4440 C   0  0  1  0  0  0  0  0  0  0  0  0
  194.6970  172.1780  145.4310 C   0  0  0  0  0  1  0  0  0  0  0  0
  197.7920  172.6620  144.6550 C   0  0  0  0  0  2  0  0  0  0  0  0
  194.5330  173.5200  143.3950 O   0  0  0  0  0  0  0  0  0  0  0  0
  195.0660  174.6430  142.7390 C   0  0  2  0  0  3  0  0  0  0  0  0
  194.5520  175.2300  139.0940 C   0  0  0  0  0  1  0  0  0  0  0  0
  193.8120  176.0180  141.2720 N   0  0  0  0  0  0  0  0  0  0  0  0
  194.5350  175.2110  140.5810 C   0  0  0  0  0  0  0  0  0  0  0  0
  194.0170  175.7580  142.6890 C   0  0  0  0  0  2  0  0  0  0  0  0
  195.3240  174.3210  141.3460 N   0  0  0  0  0  2  0  0  0  0  0  0
  190.1330  173.3820  143.0100 O   0  0  0  0  0  0  0  0  0  0  0  0
  191.5500  173.1350  139.6220 C   0  0  0  0  0  2  0  0  0  0  0  0
  191.4430  171.6010  139.6620 C   0  0  1  0  0  0  0  0  0  0  0  0
  190.2640  171.1660  138.8130 C   0  0  0  0  0  1  0  0  0  0  0  0
  191.8670  171.9680  142.1350 C   0  0  0  0  0  2  0  0  0  0  0  0
  190.7310  173.7900  140.7310 C   0  0  0  0  0  2  0  0  0  0  0  0
  191.2120  173.3560  142.1230 C   0  0  1  0  0  3  0  0  0  0  0  0
  192.6060  171.0580  139.1220 O   0  0  0  0  0  1  0  0  0  0  0  0
  191.2480  171.0520  141.0830 C   0  0  0  0  0  2  0  0  0  0  0  0
  1  6  1  0  0  0  0
  1  5  1  0  0  0  0
  2 12  1  6  0  0  0
  2 11  1  0  0  0  0
  3 10  1  0  0  0  0
  3 16  1  1  0  0  0
  4  8  1  0  0  0  0
  4  7  2  0  0  0  0
  7  9  1  0  0  0  0
  8  1  2  0  0  0  0
  9  5  2  0  0  0  0
 11 10  1  6  0  0  0
 11  7  1  0  0  0  0
 12 15  1  0  0  0  0
 13 35  1  1  0  0  0
 13  2  1  0  0  0  0
 13 14  1  0  0  0  0
 14  3  1  0  0  0  0
 15  4  1  0  0  0  0
 16 18  1  0  0  0  0
 16 17  1  1  0  0  0
 19 18  1  0  0  0  0
 19 21  1  0  0  0  0
 20 19  2  0  0  0  0
 22 24  1  0  0  0  0
 22 21  1  1  0  0  0
 23 25  1  0  0  0  0
 23 27  1  0  0  0  0
 25 22  1  0  0  0  0
 25 26  1  1  0  0  0
 27 24  1  0  0  0  0
 28 25  1  0  0  0  0
 29 28  1  1  0  0  0
 30 32  1  0  0  0  0
 31 33  1  0  0  0  0
 32 31  2  0  0  0  0
 32 34  1  0  0  0  0
 33 29  1  0  0  0  0
 34 29  1  0  0  0  0
 36 37  1  0  0  0  0
 36 40  1  0  0  0  0
 37 38  1  6  0  0  0
 37 43  1  0  0  0  0
 40 41  1  0  0  0  0
 41 39  1  0  0  0  0
 41 35  1  1  0  0  0
 42 37  1  0  0  0  0
 43 39  1  0  0  0  0
M  END
>  <MODEL>
6

>  <REMARK>
 VINA RESULT:      -7.6      1.434      2.781
  Name = 
  9 active torsions:
  status: ('A' for Active; 'I' for Inactive)
    1  A    between atoms: O_1  and  C_34
    2  A    between atoms: O_1  and  C_35
    3  A    between atoms: C_2  and  C_6
    4  A    between atoms: C_2  and  C_13
    5  A    between atoms: O_3  and  C_4
    6  A    between atoms: O_3  and  C_12
    7  A    between atoms: C_6  and  C_12
    8  A    between atoms: C_11  and  O_14
    9  A    between atoms: O_14  and  C_22
                            x       y       z     vdW  Elec       q    Type
                         _______ _______ _______ _____ _____    ______ ____

>  <TORSDO>
F 9

$$$$
=
 OpenBabel11052420463D

 43 48  0  0  1  0  0  0  0  0999 V2000
  195.9680  169.2620  146.8250 C   0  0  0  0  0  0  0  0  0  0  0  0
  193.8160  172.1280  143.1250 C   0  0  1  0  0  3  0  0  0  0  0  0
  194.1970  174.7910  144.0660 C   0  0  2  0  0  3  0  0  0  0  0  0
  194.4480  170.1970  145.1780 C   0  0  0  0  0  0  0  0  0  0  0  0
  196.8000  170.3780  146.6970 C   0  0  0  0  0  3  0  0  0  0  0  0
  196.3290  168.1700  147.7680 C   0  0  0  0  0  1  0  0  0  0  0  0
  195.2980  171.3160  145.0340 C   0  0  0  0  0  0  0  0  0  0  0  0
  194.8000  169.1690  146.0620 C   0  0  0  0  0  3  0  0  0  0  0  0
  196.4660  171.3990  145.8040 C   0  0  0  0  0  3  0  0  0  0  0  0
  194.6160  173.6510  144.9100 N   0  0  0  0  0  2  0  0  0  0  0  0
  194.9480  172.4610  144.1200 C   0  0  2  0  0  3  0  0  0  0  0  0
  192.6970  171.3620  143.8200 C   0  0  0  0  0  2  0  0  0  0  0  0
  193.2500  173.4220  142.5390 C   0  0  1  0  0  3  0  0  0  0  0  0
  194.1760  174.4690  142.6910 O   0  0  0  0  0  0  0  0  0  0  0  0
  193.2270  170.0260  144.3230 C   0  0  0  0  0  2  0  0  0  0  0  0
  195.1150  175.9900  144.3010 C   0  0  1  0  0  3  0  0  0  0  0  0
  195.7250  176.4440  142.9840 C   0  0  0  0  0  1  0  0  0  0  0  0
  194.3410  177.1470  144.9190 C   0  0  0  0  0  2  0  0  0  0  0  0
  192.8700  176.9600  144.7230 C   0  0  0  0  0  0  0  0  0  0  0  0
  192.3630  177.2340  143.6050 O   0  0  0  0  0  0  0  0  0  0  0  0
  192.0460  176.4930  145.7490 O   0  0  0  0  0  0  0  0  0  0  0  0
  190.7280  176.0010  145.5160 C   0  0  1  0  0  3  0  0  0  0  0  0
  188.5430  175.9270  146.5120 C   0  0  0  0  0  2  0  0  0  0  0  0
  190.5660  174.6170  146.1120 C   0  0  0  0  0  2  0  0  0  0  0  0
  189.6560  176.8920  146.1570 C   0  0  1  0  0  0  0  0  0  0  0  0
  190.1230  177.5500  147.4620 C   0  0  0  0  0  1  0  0  0  0  0  0
  189.1730  174.5580  146.7100 C   0  0  0  0  0  2  0  0  0  0  0  0
  189.1360  177.8450  145.2460 O   0  0  0  0  0  0  0  0  0  0  0  0
  188.5340  177.1870  144.1580 C   0  0  2  0  0  3  0  0  0  0  0  0
  185.5160  178.5510  142.4490 C   0  0  0  0  0  1  0  0  0  0  0  0
  187.9130  178.2790  142.1500 N   0  0  0  0  0  0  0  0  0  0  0  0
  186.8710  178.1200  142.8840 C   0  0  0  0  0  0  0  0  0  0  0  0
  189.0790  177.7550  142.8450 C   0  0  0  0  0  2  0  0  0  0  0  0
  187.1130  177.4900  144.1260 N   0  0  0  0  0  2  0  0  0  0  0  0
  192.9620  173.2440  141.1840 O   0  0  0  0  0  0  0  0  0  0  0  0
  189.5980  174.0860  142.4160 C   0  0  0  0  0  2  0  0  0  0  0  0
  189.1220  172.6430  142.1750 C   0  0  1  0  0  0  0  0  0  0  0  0
  189.0370  171.9220  143.5070 C   0  0  0  0  0  1  0  0  0  0  0  0
  190.7930  172.7610  140.2720 C   0  0  0  0  0  2  0  0  0  0  0  0
  191.1200  174.1960  142.3750 C   0  0  0  0  0  2  0  0  0  0  0  0
  191.6810  173.7730  141.0100 C   0  0  1  0  0  3  0  0  0  0  0  0
  187.8500  172.6810  141.6080 O   0  0  0  0  0  1  0  0  0  0  0  0
  190.0580  171.8510  141.2510 C   0  0  0  0  0  2  0  0  0  0  0  0
  1  6  1  0  0  0  0
  2 12  1  1  0  0  0
  2 11  1  0  0  0  0
  3 16  1  6  0  0  0
  3 10  1  0  0  0  0
  4  8  1  0  0  0  0
  5  1  1  0  0  0  0
  7  4  2  0  0  0  0
  7  9  1  0  0  0  0
  8  1  2  0  0  0  0
  9  5  2  0  0  0  0
 11 10  1  1  0  0  0
 11  7  1  0  0  0  0
 12 15  1  0  0  0  0
 13 35  1  6  0  0  0
 13 14  1  0  0  0  0
 13  2  1  0  0  0  0
 14  3  1  0  0  0  0
 15  4  1  0  0  0  0
 16 17  1  6  0  0  0
 16 18  1  0  0  0  0
 19 18  1  0  0  0  0
 19 21  1  0  0  0  0
 20 19  2  0  0  0  0
 22 21  1  1  0  0  0
 22 24  1  0  0  0  0
 22 25  1  0  0  0  0
 23 27  1  0  0  0  0
 24 27  1  0  0  0  0
 25 23  1  0  0  0  0
 25 26  1  1  0  0  0
 28 25  1  0  0  0  0
 29 28  1  1  0  0  0
 30 32  1  0  0  0  0
 31 33  1  0  0  0  0
 31 32  2  0  0  0  0
 32 34  1  0  0  0  0
 33 29  1  0  0  0  0
 34 29  1  0  0  0  0
 37 36  1  0  0  0  0
 37 38  1  1  0  0  0
 39 41  1  0  0  0  0
 39 43  1  0  0  0  0
 40 36  1  0  0  0  0
 41 35  1  1  0  0  0
 41 40  1  0  0  0  0
 42 37  1  0  0  0  0
 43 37  1  0  0  0  0
M  END
>  <MODEL>
7

>  <REMARK>
 VINA RESULT:      -7.5      2.200      7.915
  Name = 
  9 active torsions:
  status: ('A' for Active; 'I' for Inactive)
    1  A    between atoms: O_1  and  C_34
    2  A    between atoms: O_1  and  C_35
    3  A    between atoms: C_2  and  C_6
    4  A    between atoms: C_2  and  C_13
    5  A    between atoms: O_3  and  C_4
    6  A    between atoms: O_3  and  C_12
    7  A    between atoms: C_6  and  C_12
    8  A    between atoms: C_11  and  O_14
    9  A    between atoms: O_14  and  C_22
                            x       y       z     vdW  Elec       q    Type
                         _______ _______ _______ _____ _____    ______ ____

>  <TORSDO>
F 9

$$$$
=
 OpenBabel11052420463D

 43 48  0  0  1  0  0  0  0  0999 V2000
  185.0650  177.9720  146.1580 C   0  0  0  0  0  0  0  0  0  0  0  0
  188.8600  175.3360  143.8810 C   0  0  1  0  0  3  0  0  0  0  0  0
  191.2050  176.3600  145.1390 C   0  0  2  0  0  3  0  0  0  0  0  0
  186.5440  176.9320  144.5360 C   0  0  0  0  0  0  0  0  0  0  0  0
  185.9880  177.7070  147.1740 C   0  0  0  0  0  3  0  0  0  0  0  0
  183.7880  178.6650  146.4740 C   0  0  0  0  0  1  0  0  0  0  0  0
  187.4680  176.6470  145.5670 C   0  0  0  0  0  0  0  0  0  0  0  0
  185.3410  177.5780  144.8440 C   0  0  0  0  0  3  0  0  0  0  0  0
  187.1830  177.0470  146.8790 C   0  0  0  0  0  3  0  0  0  0  0  0
  189.8840  176.9390  145.4710 N   0  0  0  0  0  2  0  0  0  0  0  0
  188.7890  175.9820  145.2800 C   0  0  2  0  0  3  0  0  0  0  0  0
  188.2490  176.2550  142.8310 C   0  0  0  0  0  2  0  0  0  0  0  0
  190.3200  175.0600  143.5180 C   0  0  1  0  0  3  0  0  0  0  0  0
  191.1120  175.0280  144.6780 O   0  0  0  0  0  0  0  0  0  0  0  0
  186.7700  176.4590  143.1300 C   0  0  0  0  0  2  0  0  0  0  0  0
  192.1320  176.4230  146.3520 C   0  0  1  0  0  3  0  0  0  0  0  0
  191.3170  176.3670  147.6340 C   0  0  0  0  0  1  0  0  0  0  0  0
  193.1180  175.2630  146.3340 C   0  0  0  0  0  2  0  0  0  0  0  0
  194.5040  175.7540  146.0640 C   0  0  0  0  0  0  0  0  0  0  0  0
  194.7180  176.9940  146.0330 O   0  0  0  0  0  0  0  0  0  0  0  0
  195.5650  174.8740  145.8420 O   0  0  0  0  0  0  0  0  0  0  0  0
  195.6750  174.0810  144.6610 C   0  0  1  0  0  3  0  0  0  0  0  0
  196.9680  172.2950  143.7060 C   0  0  0  0  0  2  0  0  0  0  0  0
  196.6450  174.7170  143.6850 C   0  0  0  0  0  2  0  0  0  0  0  0
  196.2000  172.6700  144.9570 C   0  0  1  0  0  0  0  0  0  0  0  0
  197.1890  172.6310  146.1290 C   0  0  0  0  0  1  0  0  0  0  0  0
  197.4370  173.5860  143.0560 C   0  0  0  0  0  2  0  0  0  0  0  0
  195.1500  171.7320  145.1250 O   0  0  0  0  0  0  0  0  0  0  0  0
  194.2280  171.8530  144.0700 C   0  0  2  0  0  3  0  0  0  0  0  0
  192.3590  168.9200  142.7330 C   0  0  0  0  0  1  0  0  0  0  0  0
  192.0600  170.8990  144.1120 N   0  0  0  0  0  0  0  0  0  0  0  0
  192.8370  170.1530  143.4100 C   0  0  0  0  0  0  0  0  0  0  0  0
  192.8160  172.0270  144.6360 C   0  0  0  0  0  2  0  0  0  0  0  0
  194.1720  170.6100  143.3210 N   0  0  0  0  0  2  0  0  0  0  0  0
  190.4200  173.8380  142.8490 O   0  0  0  0  0  0  0  0  0  0  0  0
  190.2220  173.4440  139.1950 C   0  0  0  0  0  2  0  0  0  0  0  0
  191.1400  172.2120  139.2530 C   0  0  1  0  0  0  0  0  0  0  0  0
  190.3020  170.9610  139.0730 C   0  0  0  0  0  1  0  0  0  0  0  0
  192.1430  173.4640  141.2170 C   0  0  0  0  0  2  0  0  0  0  0  0
  189.6830  173.8160  140.5740 C   0  0  0  0  0  2  0  0  0  0  0  0
  190.8170  174.1630  141.5500 C   0  0  1  0  0  3  0  0  0  0  0  0
  192.0560  172.2880  138.2060 O   0  0  0  0  0  1  0  0  0  0  0  0
  191.9060  172.0980  140.5800 C   0  0  0  0  0  2  0  0  0  0  0  0
  1  6  1  0  0  0  0
  1  5  1  0  0  0  0
  2 12  1  6  0  0  0
  2 11  1  0  0  0  0
  3 10  1  0  0  0  0
  3 16  1  1  0  0  0
  4  8  1  0  0  0  0
  4  7  2  0  0  0  0
  7  9  1  0  0  0  0
  8  1  2  0  0  0  0
  9  5  2  0  0  0  0
 11 10  1  6  0  0  0
 11  7  1  0  0  0  0
 12 15  1  0  0  0  0
 13 35  1  1  0  0  0
 13  2  1  0  0  0  0
 13 14  1  0  0  0  0
 14  3  1  0  0  0  0
 15  4  1  0  0  0  0
 16 17  1  1  0  0  0
 18 16  1  0  0  0  0
 19 18  1  0  0  0  0
 20 19  2  0  0  0  0
 21 19  1  0  0  0  0
 22 25  1  0  0  0  0
 22 21  1  1  0  0  0
 23 25  1  0  0  0  0
 24 22  1  0  0  0  0
 25 28  1  0  0  0  0
 25 26  1  1  0  0  0
 27 24  1  0  0  0  0
 27 23  1  0  0  0  0
 29 33  1  0  0  0  0
 29 28  1  1  0  0  0
 30 32  1  0  0  0  0
 31 33  1  0  0  0  0
 32 31  2  0  0  0  0
 34 32  1  0  0  0  0
 34 29  1  0  0  0  0
 36 37  1  0  0  0  0
 36 40  1  0  0  0  0
 37 38  1  6  0  0  0
 37 43  1  0  0  0  0
 39 41  1  0  0  0  0
 40 41  1  0  0  0  0
 41 35  1  1  0  0  0
 42 37  1  0  0  0  0
 43 39  1  0  0  0  0
M  END
>  <MODEL>
8

>  <REMARK>
 VINA RESULT:      -7.5      1.501      2.272
  Name = 
  9 active torsions:
  status: ('A' for Active; 'I' for Inactive)
    1  A    between atoms: O_1  and  C_34
    2  A    between atoms: O_1  and  C_35
    3  A    between atoms: C_2  and  C_6
    4  A    between atoms: C_2  and  C_13
    5  A    between atoms: O_3  and  C_4
    6  A    between atoms: O_3  and  C_12
    7  A    between atoms: C_6  and  C_12
    8  A    between atoms: C_11  and  O_14
    9  A    between atoms: O_14  and  C_22
                            x       y       z     vdW  Elec       q    Type
                         _______ _______ _______ _____ _____    ______ ____

>  <TORSDO>
F 9

$$$$
=
 OpenBabel11052420463D

 43 48  0  0  1  0  0  0  0  0999 V2000
  191.7140  170.8210  137.0490 C   0  0  0  0  0  0  0  0  0  0  0  0
  189.2250  174.1830  140.0530 C   0  0  1  0  0  3  0  0  0  0  0  0
  189.5210  173.0660  142.6590 C   0  0  2  0  0  3  0  0  0  0  0  0
  190.0630  172.3150  138.0160 C   0  0  0  0  0  0  0  0  0  0  0  0
  192.4800  170.9060  138.2150 C   0  0  0  0  0  3  0  0  0  0  0  0
  192.1800  169.9820  135.9120 C   0  0  0  0  0  1  0  0  0  0  0  0
  190.8460  172.4170  139.1870 C   0  0  0  0  0  0  0  0  0  0  0  0
  190.5130  171.5300  136.9480 C   0  0  0  0  0  3  0  0  0  0  0  0
  192.0480  171.7020  139.2780 C   0  0  0  0  0  3  0  0  0  0  0  0
  190.0410  172.3310  141.4850 N   0  0  0  0  0  2  0  0  0  0  0  0
  190.3900  173.2250  140.3740 C   0  0  2  0  0  3  0  0  0  0  0  0
  188.1840  173.4930  139.1800 C   0  0  0  0  0  2  0  0  0  0  0  0
  188.5640  174.6420  141.3540 C   0  0  1  0  0  3  0  0  0  0  0  0
  189.4420  174.4580  142.4360 O   0  0  0  0  0  0  0  0  0  0  0  0
  188.8070  173.1190  137.8420 C   0  0  0  0  0  2  0  0  0  0  0  0
  190.3890  172.7880  143.8860 C   0  0  1  0  0  3  0  0  0  0  0  0
  189.5300  172.2540  145.0210 C   0  0  0  0  0  1  0  0  0  0  0  0
  191.4730  171.7700  143.5570 C   0  0  0  0  0  2  0  0  0  0  0  0
  192.7810  172.1820  144.1530 C   0  0  0  0  0  0  0  0  0  0  0  0
  193.4730  171.3250  144.7620 O   0  0  0  0  0  0  0  0  0  0  0  0
  193.2520  173.4930  144.0550 O   0  0  0  0  0  0  0  0  0  0  0  0
  193.1270  174.4390  145.1150 C   0  0  1  0  0  3  0  0  0  0  0  0
  193.3000  176.7920  145.5690 C   0  0  0  0  0  2  0  0  0  0  0  0
  194.4660  174.6570  145.7910 C   0  0  0  0  0  2  0  0  0  0  0  0
  192.6500  175.8090  144.6160 C   0  0  1  0  0  0  0  0  0  0  0  0
  193.1520  176.1420  143.2050 C   0  0  0  0  0  1  0  0  0  0  0  0
  194.5600  176.1370  146.1090 C   0  0  0  0  0  2  0  0  0  0  0  0
  191.2450  175.9590  144.7220 O   0  0  0  0  0  0  0  0  0  0  0  0
  190.9080  176.4080  146.0110 C   0  0  2  0  0  3  0  0  0  0  0  0
  187.4660  177.5480  146.8710 C   0  0  0  0  0  1  0  0  0  0  0  0
  188.9870  175.6790  147.1900 N   0  0  0  0  0  0  0  0  0  0  0  0
  188.7550  176.8340  146.6760 C   0  0  0  0  0  0  0  0  0  0  0  0
  190.3290  175.2490  146.8270 C   0  0  0  0  0  2  0  0  0  0  0  0
  189.8260  177.3740  145.9280 N   0  0  0  0  0  2  0  0  0  0  0  0
  188.2130  175.9900  141.2600 O   0  0  0  0  0  0  0  0  0  0  0  0
  185.6770  176.7630  143.8120 C   0  0  0  0  0  2  0  0  0  0  0  0
  185.5340  178.1950  143.2720 C   0  0  1  0  0  0  0  0  0  0  0  0
  184.2460  178.2980  142.4780 C   0  0  0  0  0  1  0  0  0  0  0  0
  187.9900  177.8800  142.7260 C   0  0  0  0  0  2  0  0  0  0  0  0
  186.4150  175.8570  142.8300 C   0  0  0  0  0  2  0  0  0  0  0  0
  187.8380  176.3630  142.5530 C   0  0  1  0  0  3  0  0  0  0  0  0
  185.4630  179.0750  144.3510 O   0  0  0  0  0  1  0  0  0  0  0  0
  186.7010  178.6120  142.3640 C   0  0  0  0  0  2  0  0  0  0  0  0
  1  5  1  0  0  0  0
  2 12  1  6  0  0  0
  2 11  1  0  0  0  0
  2 13  1  0  0  0  0
  3 16  1  1  0  0  0
  4  7  2  0  0  0  0
  5  9  2  0  0  0  0
  6  1  1  0  0  0  0
  7  9  1  0  0  0  0
  8  1  2  0  0  0  0
  8  4  1  0  0  0  0
 10  3  1  0  0  0  0
 11  7  1  6  0  0  0
 11 10  1  0  0  0  0
 13 35  1  6  0  0  0
 13 14  1  0  0  0  0
 14  3  1  0  0  0  0
 15  4  1  0  0  0  0
 15 12  1  0  0  0  0
 16 17  1  1  0  0  0
 18 16  1  0  0  0  0
 18 19  1  0  0  0  0
 19 20  2  0  0  0  0
 21 19  1  0  0  0  0
 22 21  1  6  0  0  0
 22 24  1  0  0  0  0
 23 27  1  0  0  0  0
 24 27  1  0  0  0  0
 25 26  1  6  0  0  0
 25 28  1  0  0  0  0
 25 22  1  0  0  0  0
 25 23  1  0  0  0  0
 29 28  1  6  0  0  0
 29 33  1  0  0  0  0
 32 30  1  0  0  0  0
 32 31  2  0  0  0  0
 33 31  1  0  0  0  0
 34 29  1  0  0  0  0
 34 32  1  0  0  0  0
 37 38  1  6  0  0  0
 37 36  1  0  0  0  0
 37 42  1  0  0  0  0
 40 36  1  0  0  0  0
 41 35  1  6  0  0  0
 41 39  1  0  0  0  0
 41 40  1  0  0  0  0
 43 39  1  0  0  0  0
 43 37  1  0  0  0  0
M  END
>  <MODEL>
9

>  <REMARK>
 VINA RESULT:      -7.4      2.844      7.603
  Name = 
  9 active torsions:
  status: ('A' for Active; 'I' for Inactive)
    1  A    between atoms: O_1  and  C_34
    2  A    between atoms: O_1  and  C_35
    3  A    between atoms: C_2  and  C_6
    4  A    between atoms: C_2  and  C_13
    5  A    between atoms: O_3  and  C_4
    6  A    between atoms: O_3  and  C_12
    7  A    between atoms: C_6  and  C_12
    8  A    between atoms: C_11  and  O_14
    9  A    between atoms: O_14  and  C_22
                            x       y       z     vdW  Elec       q    Type
                         _______ _______ _______ _____ _____    ______ ____

>  <TORSDO>
F 9

$$$$
