=
 OpenBabel11052420133D

 37 38  0  0  1  0  0  0  0  0999 V2000
  192.0400  174.6150  142.7760 O   0  0  0  0  0  0  0  0  0  0  0  0
  189.8420  173.5900  142.1910 C   0  0  2  0  0  0  0  0  0  0  0  0
  192.1060  174.4130  144.1590 C   0  0  2  0  0  3  0  0  0  0  0  0
  190.6870  174.8600  142.4690 C   0  0  1  0  0  3  0  0  0  0  0  0
  193.1070  172.2380  143.8400 O   0  0  0  0  0  1  0  0  0  0  0  0
  188.5420  173.7550  142.6750 O   0  0  0  0  0  1  0  0  0  0  0  0
  190.0250  176.1070  143.1190 C   0  0  2  0  0  3  0  0  0  0  0  0
  189.7410  172.8310  145.0810 C   0  0  0  0  0  1  0  0  0  0  0  0
  190.4500  172.2910  142.7920 C   0  0  0  0  0  2  0  0  0  0  0  0
  191.0110  177.2830  143.2260 C   0  0  0  0  0  2  0  0  0  0  0  0
  190.7970  172.2940  144.2280 N   0  0  0  0  0  0  0  0  0  0  0  0
  193.1760  175.3030  144.8230 C   0  0  2  0  0  3  0  0  0  0  0  0
  193.0560  176.7310  144.2670 C   0  0  0  0  0  2  0  0  0  0  0  0
  191.7250  177.2700  144.5010 N   0  0  0  0  0  2  0  0  0  0  0  0
  192.0930  172.9220  144.5160 C   0  0  2  0  0  3  0  0  0  0  0  0
  188.5760  174.1780  140.0580 C   0  0  0  0  0  1  0  0  0  0  0  0
  189.7590  173.4350  140.6630 C   0  0  2  0  0  3  0  0  0  0  0  0
  189.7020  172.0880  140.2930 O   0  0  0  0  0  1  0  0  0  0  0  0
  195.3720  175.0620  145.7920 O   0  0  0  0  0  1  0  0  0  0  0  0
  194.6110  174.7580  144.6610 C   0  0  2  0  0  3  0  0  0  0  0  0
  196.1210  176.3120  143.5160 C   0  0  0  0  0  0  0  0  0  0  0  0
  195.3220  175.2780  143.4410 C   0  0  0  0  0  0  0  0  0  0  0  0
  196.8770  177.2880  143.5870 O   0  0  0  0  0  0  0  0  0  0  0  0
  195.1710  174.5590  142.1420 C   0  0  0  0  0  2  0  0  0  0  0  0
  197.0320  172.9710  142.2640 C   0  0  0  0  0  2  0  0  0  0  0  0
  197.1230  174.5940  140.4450 C   0  0  0  0  0  1  0  0  0  0  0  0
  196.4850  174.0250  141.6670 C   0  0  0  0  0  0  0  0  0  0  0  0
  189.4620  175.8000  144.3670 O   0  0  0  0  0  0  0  0  0  0  0  0
  187.2350  176.3910  143.6990 C   0  0  0  0  0  1  0  0  0  0  0  0
  188.4330  176.7310  144.5770 C   0  0  1  0  0  3  0  0  0  0  0  0
  188.0510  176.8160  146.0650 C   0  0  2  0  0  0  0  0  0  0  0  0
  189.0830  177.4220  146.7830 O   0  0  0  0  0  1  0  0  0  0  0  0
  187.8770  175.5360  146.5570 F   0  0  0  0  0  0  0  0  0  0  0  0
  186.5040  177.7530  146.3370 P   0  0  0  0  0  0  0  0  0  0  0  0
  186.3150  178.9240  145.1310 O   0  0  0  0  0  0  0  0  0  0  0  0
  186.5330  178.4270  147.6900 O   0  0  0  0  0  1  0  0  0  0  0  0
  185.1940  176.6860  146.2790 O   0  0  0  0  0  1  0  0  0  0  0  0
  2  4  1  0  0  0  0
  2  6  1  1  0  0  0
  2  9  1  0  0  0  0
  3  1  1  6  0  0  0
  3 15  1  0  0  0  0
  3 12  1  0  0  0  0
  4  1  1  1  0  0  0
  4  7  1  0  0  0  0
  7 10  1  0  0  0  0
  7 28  1  1  0  0  0
  9 11  1  0  0  0  0
 10 14  1  0  0  0  0
 11 15  1  0  0  0  0
 11  8  1  0  0  0  0
 12 20  1  6  0  0  0
 13 14  1  0  0  0  0
 13 12  1  0  0  0  0
 15  5  1  6  0  0  0
 17 16  1  1  0  0  0
 17  2  1  0  0  0  0
 18 17  1  0  0  0  0
 20 19  1  1  0  0  0
 21 23  2  0  0  0  0
 22 21  2  0  0  0  0
 22 20  1  0  0  0  0
 24 22  1  0  0  0  0
 26 27  1  0  0  0  0
 27 24  1  0  0  0  0
 27 25  2  0  0  0  0
 28 30  1  0  0  0  0
 30 29  1  6  0  0  0
 30 31  1  0  0  0  0
 31 34  1  0  0  0  0
 31 33  1  1  0  0  0
 31 32  1  0  0  0  0
 34 36  1  0  0  0  0
 35 34  2  0  0  0  0
 37 34  1  0  0  0  0
M  END
>  <MODEL>
1

>  <REMARK>
 VINA RESULT:      -6.4      0.000      0.000
  Name = 
  9 active torsions:
  status: ('A' for Active; 'I' for Inactive)
    1  A    between atoms: C_1  and  P_5
    2  A    between atoms: C_1  and  C_23
    3  A    between atoms: C_6  and  C_8
    4  A    between atoms: C_6  and  C_31
    5  A    between atoms: C_8  and  C_19
    6  A    between atoms: C_9  and  C_30
    7  A    between atoms: C_20  and  O_25
    8  A    between atoms: C_23  and  O_25
    9  A    between atoms: C_29  and  C_31
                            x       y       z     vdW  Elec       q    Type
                         _______ _______ _______ _____ _____    ______ ____

>  <TORSDO>
F 9

$$$$
=
 OpenBabel11052420133D

 37 38  0  0  1  0  0  0  0  0999 V2000
  191.0140  175.4770  144.5600 O   0  0  0  0  0  0  0  0  0  0  0  0
  188.5850  176.0480  144.5740 C   0  0  2  0  0  0  0  0  0  0  0  0
  191.4080  175.8780  143.2790 C   0  0  2  0  0  3  0  0  0  0  0  0
  189.7010  174.9800  144.4400 C   0  0  1  0  0  3  0  0  0  0  0  0
  191.8510  178.1190  144.0660 O   0  0  0  0  0  1  0  0  0  0  0  0
  187.5190  175.7480  143.7220 O   0  0  0  0  0  1  0  0  0  0  0  0
  189.4890  173.7470  143.5190 C   0  0  2  0  0  3  0  0  0  0  0  0
  189.1200  177.1770  141.8570 C   0  0  0  0  0  1  0  0  0  0  0  0
  189.0710  177.4990  144.2910 C   0  0  0  0  0  2  0  0  0  0  0  0
  190.6740  172.7690  143.5970 C   0  0  0  0  0  2  0  0  0  0  0  0
  189.7840  177.7500  143.0230 N   0  0  0  0  0  0  0  0  0  0  0  0
  192.7670  175.2700  142.8760 C   0  0  2  0  0  3  0  0  0  0  0  0
  192.7790  173.7780  143.2440 C   0  0  0  0  0  2  0  0  0  0  0  0
  191.6880  173.0720  142.5890 N   0  0  0  0  0  2  0  0  0  0  0  0
  191.2060  177.3830  143.0670 C   0  0  2  0  0  3  0  0  0  0  0  0
  188.1490  177.3120  146.7440 C   0  0  0  0  0  1  0  0  0  0  0  0
  188.0670  175.9750  146.0200 C   0  0  2  0  0  3  0  0  0  0  0  0
  188.7520  175.0040  146.7550 O   0  0  0  0  0  1  0  0  0  0  0  0
  194.8720  176.3850  142.4920 O   0  0  0  0  0  1  0  0  0  0  0  0
  193.9730  176.0090  143.4940 C   0  0  2  0  0  3  0  0  0  0  0  0
  195.9160  174.7530  144.3030 C   0  0  0  0  0  0  0  0  0  0  0  0
  194.7090  175.2050  144.5310 C   0  0  0  0  0  0  0  0  0  0  0  0
  197.0580  174.3270  144.0870 O   0  0  0  0  0  0  0  0  0  0  0  0
  194.0820  174.9820  145.8670 C   0  0  0  0  0  2  0  0  0  0  0  0
  194.5660  177.3180  146.4230 C   0  0  0  0  0  2  0  0  0  0  0  0
  192.4150  176.4560  147.1870 C   0  0  0  0  0  1  0  0  0  0  0  0
  193.7390  176.2810  146.5240 C   0  0  0  0  0  0  0  0  0  0  0  0
  189.2340  174.1310  142.1930 O   0  0  0  0  0  0  0  0  0  0  0  0
  187.3360  172.6660  142.1200 C   0  0  0  0  0  1  0  0  0  0  0  0
  188.7070  173.0010  141.5480 C   0  0  1  0  0  3  0  0  0  0  0  0
  188.6630  173.1980  140.0220 C   0  0  2  0  0  0  0  0  0  0  0  0
  188.4700  174.5490  139.7280 O   0  0  0  0  0  1  0  0  0  0  0  0
  187.5930  172.4880  139.5100 F   0  0  0  0  0  0  0  0  0  0  0  0
  190.1880  172.6180  139.1980 P   0  0  0  0  0  0  0  0  0  0  0  0
  190.7190  171.1760  139.9070 O   0  0  0  0  0  1  0  0  0  0  0  0
  191.2750  173.6630  139.3150 O   0  0  0  0  0  1  0  0  0  0  0  0
  189.8620  172.3400  137.5630 O   0  0  0  0  0  0  0  0  0  0  0  0
  2  6  1  6  0  0  0
  2 17  1  0  0  0  0
  3  1  1  1  0  0  0
  4  1  1  6  0  0  0
  4  2  1  0  0  0  0
  7 28  1  6  0  0  0
  7 10  1  0  0  0  0
  7  4  1  0  0  0  0
  8 11  1  0  0  0  0
  9  2  1  0  0  0  0
 11 15  1  0  0  0  0
 11  9  1  0  0  0  0
 12 13  1  0  0  0  0
 12  3  1  0  0  0  0
 12 20  1  1  0  0  0
 14 13  1  0  0  0  0
 14 10  1  0  0  0  0
 15  3  1  0  0  0  0
 15  5  1  1  0  0  0
 17 16  1  1  0  0  0
 17 18  1  0  0  0  0
 20 19  1  6  0  0  0
 20 22  1  0  0  0  0
 21 22  2  0  0  0  0
 22 24  1  0  0  0  0
 23 21  2  0  0  0  0
 24 27  1  0  0  0  0
 25 27  2  0  0  0  0
 27 26  1  0  0  0  0
 30 29  1  1  0  0  0
 30 28  1  0  0  0  0
 31 33  1  6  0  0  0
 31 30  1  0  0  0  0
 32 31  1  0  0  0  0
 34 36  1  0  0  0  0
 34 35  1  0  0  0  0
 34 31  1  0  0  0  0
 37 34  2  0  0  0  0
M  END
>  <MODEL>
2

>  <REMARK>
 VINA RESULT:      -6.4      2.923      5.764
  Name = 
  9 active torsions:
  status: ('A' for Active; 'I' for Inactive)
    1  A    between atoms: C_1  and  P_5
    2  A    between atoms: C_1  and  C_23
    3  A    between atoms: C_6  and  C_8
    4  A    between atoms: C_6  and  C_31
    5  A    between atoms: C_8  and  C_19
    6  A    between atoms: C_9  and  C_30
    7  A    between atoms: C_20  and  O_25
    8  A    between atoms: C_23  and  O_25
    9  A    between atoms: C_29  and  C_31
                            x       y       z     vdW  Elec       q    Type
                         _______ _______ _______ _____ _____    ______ ____

>  <TORSDO>
F 9

$$$$
=
 OpenBabel11052420133D

 37 38  0  0  1  0  0  0  0  0999 V2000
  192.5280  173.7460  145.0790 O   0  0  0  0  0  0  0  0  0  0  0  0
  192.3270  176.1630  145.6660 C   0  0  2  0  0  0  0  0  0  0  0  0
  192.4400  173.7680  143.6830 C   0  0  2  0  0  3  0  0  0  0  0  0
  191.6740  174.7610  145.5530 C   0  0  1  0  0  3  0  0  0  0  0  0
  194.8240  174.1020  143.4920 O   0  0  0  0  0  1  0  0  0  0  0  0
  191.4010  177.1590  145.3460 O   0  0  0  0  0  1  0  0  0  0  0  0
  190.1620  174.6340  145.2150 C   0  0  2  0  0  3  0  0  0  0  0  0
  192.2930  176.5920  142.7070 C   0  0  0  0  0  1  0  0  0  0  0  0
  193.5910  176.3360  144.7760 C   0  0  0  0  0  2  0  0  0  0  0  0
  189.6960  173.1680  145.2380 C   0  0  0  0  0  2  0  0  0  0  0  0
  193.4720  176.0100  143.3400 N   0  0  0  0  0  0  0  0  0  0  0  0
  192.1360  172.3730  143.1010 C   0  0  2  0  0  3  0  0  0  0  0  0
  191.0160  171.7180  143.9230 C   0  0  0  0  0  2  0  0  0  0  0  0
  189.8180  172.5440  143.9220 N   0  0  0  0  0  2  0  0  0  0  0  0
  193.5830  174.5730  143.0550 C   0  0  2  0  0  3  0  0  0  0  0  0
  191.5770  176.8270  148.0100 C   0  0  0  0  0  1  0  0  0  0  0  0
  192.7310  176.3500  147.1380 C   0  0  2  0  0  3  0  0  0  0  0  0
  193.8040  177.2370  147.2600 O   0  0  0  0  0  1  0  0  0  0  0  0
  193.3150  170.6590  141.8800 O   0  0  0  0  0  1  0  0  0  0  0  0
  193.3790  171.4610  143.0210 C   0  0  2  0  0  3  0  0  0  0  0  0
  193.1420  169.3390  144.2230 C   0  0  0  0  0  0  0  0  0  0  0  0
  193.5600  170.5790  144.2260 C   0  0  0  0  0  0  0  0  0  0  0  0
  192.7470  168.1660  144.2190 O   0  0  0  0  0  0  0  0  0  0  0  0
  194.2930  171.1030  145.4160 C   0  0  0  0  0  2  0  0  0  0  0  0
  196.6180  170.7270  144.7400 C   0  0  0  0  0  2  0  0  0  0  0  0
  195.8680  169.5220  146.7250 C   0  0  0  0  0  1  0  0  0  0  0  0
  195.6210  170.4310  145.5690 C   0  0  0  0  0  0  0  0  0  0  0  0
  189.8540  175.2460  143.9890 O   0  0  0  0  0  0  0  0  0  0  0  0
  188.3490  176.1820  145.6060 C   0  0  0  0  0  1  0  0  0  0  0  0
  188.5850  175.8250  144.1440 C   0  0  1  0  0  3  0  0  0  0  0  0
  188.4100  177.0420  143.2180 C   0  0  2  0  0  0  0  0  0  0  0  0
  188.8960  176.7390  141.9450 O   0  0  0  0  0  1  0  0  0  0  0  0
  189.1480  178.0970  143.7210 F   0  0  0  0  0  0  0  0  0  0  0  0
  186.6650  177.5710  143.0820 P   0  0  0  0  0  0  0  0  0  0  0  0
  186.3000  178.6860  144.3020 O   0  0  0  0  0  1  0  0  0  0  0  0
  185.7460  176.3760  143.2040 O   0  0  0  0  0  1  0  0  0  0  0  0
  186.4240  178.3020  141.5770 O   0  0  0  0  0  0  0  0  0  0  0  0
  2  6  1  6  0  0  0
  2 17  1  0  0  0  0
  3  1  1  1  0  0  0
  4  1  1  6  0  0  0
  4  2  1  0  0  0  0
  7 28  1  6  0  0  0
  7 10  1  0  0  0  0
  7  4  1  0  0  0  0
  8 11  1  0  0  0  0
  9  2  1  0  0  0  0
 11  9  1  0  0  0  0
 12 20  1  1  0  0  0
 12  3  1  0  0  0  0
 12 13  1  0  0  0  0
 14 13  1  0  0  0  0
 14 10  1  0  0  0  0
 15 11  1  0  0  0  0
 15  5  1  1  0  0  0
 15  3  1  0  0  0  0
 17 18  1  0  0  0  0
 17 16  1  1  0  0  0
 20 19  1  6  0  0  0
 20 22  1  0  0  0  0
 21 22  2  0  0  0  0
 22 24  1  0  0  0  0
 23 21  2  0  0  0  0
 24 27  1  0  0  0  0
 25 27  2  0  0  0  0
 27 26  1  0  0  0  0
 28 30  1  0  0  0  0
 30 29  1  1  0  0  0
 31 32  1  6  0  0  0
 31 33  1  0  0  0  0
 31 30  1  0  0  0  0
 34 36  1  0  0  0  0
 34 31  1  0  0  0  0
 34 35  1  0  0  0  0
 37 34  2  0  0  0  0
M  END
>  <MODEL>
3

>  <REMARK>
 VINA RESULT:      -6.3      2.641      5.135
  Name = 
  9 active torsions:
  status: ('A' for Active; 'I' for Inactive)
    1  A    between atoms: C_1  and  P_5
    2  A    between atoms: C_1  and  C_23
    3  A    between atoms: C_6  and  C_8
    4  A    between atoms: C_6  and  C_31
    5  A    between atoms: C_8  and  C_19
    6  A    between atoms: C_9  and  C_30
    7  A    between atoms: C_20  and  O_25
    8  A    between atoms: C_23  and  O_25
    9  A    between atoms: C_29  and  C_31
                            x       y       z     vdW  Elec       q    Type
                         _______ _______ _______ _____ _____    ______ ____

>  <TORSDO>
F 9

$$$$
=
 OpenBabel11052420133D

 37 38  0  0  1  0  0  0  0  0999 V2000
  189.5150  175.0950  143.6820 O   0  0  0  0  0  0  0  0  0  0  0  0
  191.1020  173.1860  143.4260 C   0  0  2  0  0  0  0  0  0  0  0  0
  189.6970  175.7980  142.4860 C   0  0  2  0  0  3  0  0  0  0  0  0
  190.7750  174.5730  144.0380 C   0  0  1  0  0  3  0  0  0  0  0  0
  188.0270  174.4450  141.3840 O   0  0  0  0  0  1  0  0  0  0  0  0
  192.4620  173.0980  143.1200 O   0  0  0  0  0  1  0  0  0  0  0  0
  191.9170  175.5930  144.3060 C   0  0  2  0  0  3  0  0  0  0  0  0
  191.5980  174.3260  140.7060 C   0  0  0  0  0  1  0  0  0  0  0  0
  190.2700  172.8530  142.1550 C   0  0  0  0  0  2  0  0  0  0  0  0
  191.3930  176.8650  144.9940 C   0  0  0  0  0  2  0  0  0  0  0  0
  190.2670  173.8390  141.0560 N   0  0  0  0  0  0  0  0  0  0  0  0
  189.1300  177.2300  142.5650 C   0  0  2  0  0  3  0  0  0  0  0  0
  189.5600  177.8670  143.8950 C   0  0  0  0  0  2  0  0  0  0  0  0
  191.0100  177.8840  144.0200 N   0  0  0  0  0  2  0  0  0  0  0  0
  189.3260  174.9470  141.2660 C   0  0  2  0  0  3  0  0  0  0  0  0
  191.5020  170.8120  144.2620 C   0  0  0  0  0  1  0  0  0  0  0  0
  190.7930  172.1370  144.5070 C   0  0  2  0  0  3  0  0  0  0  0  0
  189.4180  171.9160  144.6210 O   0  0  0  0  0  1  0  0  0  0  0  0
  187.2620  178.2830  141.4610 O   0  0  0  0  0  1  0  0  0  0  0  0
  187.5980  177.2900  142.3840 C   0  0  2  0  0  3  0  0  0  0  0  0
  186.3230  178.7130  143.9190 C   0  0  0  0  0  0  0  0  0  0  0  0
  186.8480  177.5420  143.6640 C   0  0  0  0  0  0  0  0  0  0  0  0
  185.8260  179.8210  144.1600 O   0  0  0  0  0  0  0  0  0  0  0  0
  186.6350  176.4170  144.6220 C   0  0  0  0  0  2  0  0  0  0  0  0
  185.1670  176.9500  146.5090 C   0  0  0  0  0  2  0  0  0  0  0  0
  187.5540  177.2980  146.8750 C   0  0  0  0  0  1  0  0  0  0  0  0
  186.3980  176.9280  146.0080 C   0  0  0  0  0  0  0  0  0  0  0  0
  192.6190  175.9030  143.1300 O   0  0  0  0  0  0  0  0  0  0  0  0
  194.2410  175.2500  144.7720 C   0  0  0  0  0  1  0  0  0  0  0  0
  193.9660  176.0370  143.4970 C   0  0  1  0  0  3  0  0  0  0  0  0
  194.9020  175.6180  142.3490 C   0  0  2  0  0  0  0  0  0  0  0  0
  194.5740  176.3270  141.1920 O   0  0  0  0  0  1  0  0  0  0  0  0
  194.7240  174.2710  142.0950 F   0  0  0  0  0  0  0  0  0  0  0  0
  196.6640  175.9020  142.7450 P   0  0  0  0  0  0  0  0  0  0  0  0
  197.2690  174.6140  143.6610 O   0  0  0  0  0  1  0  0  0  0  0  0
  196.8240  177.1880  143.5240 O   0  0  0  0  0  1  0  0  0  0  0  0
  197.5440  176.0150  141.3060 O   0  0  0  0  0  0  0  0  0  0  0  0
  2  6  1  6  0  0  0
  2  4  1  0  0  0  0
  2 17  1  0  0  0  0
  3 12  1  0  0  0  0
  3  1  1  1  0  0  0
  4  1  1  6  0  0  0
  4  7  1  0  0  0  0
  7 28  1  6  0  0  0
  7 10  1  0  0  0  0
  8 11  1  0  0  0  0
  9  2  1  0  0  0  0
 11 15  1  0  0  0  0
 11  9  1  0  0  0  0
 12 20  1  1  0  0  0
 12 13  1  0  0  0  0
 13 14  1  0  0  0  0
 14 10  1  0  0  0  0
 15  5  1  1  0  0  0
 15  3  1  0  0  0  0
 17 16  1  6  0  0  0
 17 18  1  0  0  0  0
 20 19  1  6  0  0  0
 20 22  1  0  0  0  0
 21 23  2  0  0  0  0
 22 21  2  0  0  0  0
 22 24  1  0  0  0  0
 24 27  1  0  0  0  0
 27 25  2  0  0  0  0
 27 26  1  0  0  0  0
 28 30  1  0  0  0  0
 30 29  1  1  0  0  0
 31 32  1  6  0  0  0
 31 34  1  0  0  0  0
 31 30  1  0  0  0  0
 33 31  1  0  0  0  0
 34 36  1  0  0  0  0
 34 35  1  0  0  0  0
 37 34  2  0  0  0  0
M  END
>  <MODEL>
4

>  <REMARK>
 VINA RESULT:      -6.1      3.000      7.535
  Name = 
  9 active torsions:
  status: ('A' for Active; 'I' for Inactive)
    1  A    between atoms: C_1  and  P_5
    2  A    between atoms: C_1  and  C_23
    3  A    between atoms: C_6  and  C_8
    4  A    between atoms: C_6  and  C_31
    5  A    between atoms: C_8  and  C_19
    6  A    between atoms: C_9  and  C_30
    7  A    between atoms: C_20  and  O_25
    8  A    between atoms: C_23  and  O_25
    9  A    between atoms: C_29  and  C_31
                            x       y       z     vdW  Elec       q    Type
                         _______ _______ _______ _____ _____    ______ ____

>  <TORSDO>
F 9

$$$$
=
 OpenBabel11052420133D

 37 38  0  0  1  0  0  0  0  0999 V2000
  192.4680  175.6240  143.9340 O   0  0  0  0  0  0  0  0  0  0  0  0
  194.8800  175.1810  143.4720 C   0  0  2  0  0  0  0  0  0  0  0  0
  192.1270  174.5680  144.7860 C   0  0  2  0  0  3  0  0  0  0  0  0
  193.4010  175.1120  143.0100 C   0  0  1  0  0  3  0  0  0  0  0  0
  192.8210  175.8430  146.7170 O   0  0  0  0  0  1  0  0  0  0  0  0
  195.5840  174.0640  143.0160 O   0  0  0  0  0  1  0  0  0  0  0  0
  192.9270  173.9520  142.0910 C   0  0  2  0  0  3  0  0  0  0  0  0
  194.5480  172.9240  145.4050 C   0  0  0  0  0  1  0  0  0  0  0  0
  195.0480  175.2960  145.0140 C   0  0  0  0  0  2  0  0  0  0  0  0
  191.4540  174.1180  141.6790 C   0  0  0  0  0  2  0  0  0  0  0  0
  194.3600  174.2980  145.8580 N   0  0  0  0  0  0  0  0  0  0  0  0
  190.6000  174.3860  144.8970 C   0  0  2  0  0  3  0  0  0  0  0  0
  189.9820  174.4600  143.4920 C   0  0  0  0  0  2  0  0  0  0  0  0
  190.5560  173.4490  142.6170 N   0  0  0  0  0  2  0  0  0  0  0  0
  192.9410  174.6020  146.0850 C   0  0  2  0  0  3  0  0  0  0  0  0
  195.7940  176.2260  141.3340 C   0  0  0  0  0  1  0  0  0  0  0  0
  195.4950  176.4270  142.8140 C   0  0  2  0  0  3  0  0  0  0  0  0
  196.6610  176.8250  143.4740 O   0  0  0  0  0  1  0  0  0  0  0  0
  189.0290  174.7350  146.6940 O   0  0  0  0  0  1  0  0  0  0  0  0
  189.9330  175.3940  145.8570 C   0  0  2  0  0  3  0  0  0  0  0  0
  189.8730  177.5390  144.6740 C   0  0  0  0  0  0  0  0  0  0  0  0
  189.2160  176.5140  145.1540 C   0  0  0  0  0  0  0  0  0  0  0  0
  190.4950  178.5070  144.2190 O   0  0  0  0  0  0  0  0  0  0  0  0
  187.7420  176.4200  144.9360 C   0  0  0  0  0  2  0  0  0  0  0  0
  187.0500  177.6060  146.9640 C   0  0  0  0  0  2  0  0  0  0  0  0
  186.3770  178.6160  144.8470 C   0  0  0  0  0  1  0  0  0  0  0  0
  187.0230  177.5280  145.6370 C   0  0  0  0  0  0  0  0  0  0  0  0
  193.1510  172.6990  142.6840 O   0  0  0  0  0  0  0  0  0  0  0  0
  194.5890  171.6960  141.0470 C   0  0  0  0  0  1  0  0  0  0  0  0
  193.1870  171.7660  141.6360 C   0  0  1  0  0  3  0  0  0  0  0  0
  192.6870  170.3860  142.1000 C   0  0  2  0  0  0  0  0  0  0  0  0
  192.1220  170.4930  143.3720 O   0  0  0  0  0  1  0  0  0  0  0  0
  193.7640  169.5230  142.1770 F   0  0  0  0  0  0  0  0  0  0  0  0
  191.4540  169.6690  140.9570 P   0  0  0  0  0  0  0  0  0  0  0  0
  192.2270  169.0290  139.5940 O   0  0  0  0  0  0  0  0  0  0  0  0
  190.4670  170.7290  140.5210 O   0  0  0  0  0  1  0  0  0  0  0  0
  190.6200  168.4300  141.7490 O   0  0  0  0  0  1  0  0  0  0  0  0
  2  6  1  6  0  0  0
  2  9  1  0  0  0  0
  3  1  1  1  0  0  0
  3 12  1  0  0  0  0
  3 15  1  0  0  0  0
  4  2  1  0  0  0  0
  4  1  1  1  0  0  0
  7 28  1  1  0  0  0
  7  4  1  0  0  0  0
  8 11  1  0  0  0  0
  9 11  1  0  0  0  0
 10  7  1  0  0  0  0
 10 14  1  0  0  0  0
 11 15  1  0  0  0  0
 12 20  1  1  0  0  0
 13 12  1  0  0  0  0
 14 13  1  0  0  0  0
 15  5  1  6  0  0  0
 17 16  1  6  0  0  0
 17  2  1  0  0  0  0
 17 18  1  0  0  0  0
 20 19  1  6  0  0  0
 21 22  2  0  0  0  0
 22 20  1  0  0  0  0
 23 21  2  0  0  0  0
 24 22  1  0  0  0  0
 24 27  1  0  0  0  0
 26 27  1  0  0  0  0
 27 25  2  0  0  0  0
 30 29  1  1  0  0  0
 30 31  1  0  0  0  0
 30 28  1  0  0  0  0
 31 33  1  1  0  0  0
 31 32  1  0  0  0  0
 34 37  1  0  0  0  0
 34 31  1  0  0  0  0
 35 34  2  0  0  0  0
 36 34  1  0  0  0  0
M  END
>  <MODEL>
5

>  <REMARK>
 VINA RESULT:      -6.1      3.312      7.440
  Name = 
  9 active torsions:
  status: ('A' for Active; 'I' for Inactive)
    1  A    between atoms: C_1  and  P_5
    2  A    between atoms: C_1  and  C_23
    3  A    between atoms: C_6  and  C_8
    4  A    between atoms: C_6  and  C_31
    5  A    between atoms: C_8  and  C_19
    6  A    between atoms: C_9  and  C_30
    7  A    between atoms: C_20  and  O_25
    8  A    between atoms: C_23  and  O_25
    9  A    between atoms: C_29  and  C_31
                            x       y       z     vdW  Elec       q    Type
                         _______ _______ _______ _____ _____    ______ ____

>  <TORSDO>
F 9

$$$$
=
 OpenBabel11052420133D

 37 38  0  0  1  0  0  0  0  0999 V2000
  193.0150  175.5830  144.0000 O   0  0  0  0  0  0  0  0  0  0  0  0
  195.1020  175.3640  142.6500 C   0  0  2  0  0  0  0  0  0  0  0  0
  193.3540  174.9200  145.1850 C   0  0  2  0  0  3  0  0  0  0  0  0
  193.6570  174.8920  142.9530 C   0  0  1  0  0  3  0  0  0  0  0  0
  194.2710  176.9510  146.1150 O   0  0  0  0  0  1  0  0  0  0  0  0
  195.9020  174.2800  142.2800 O   0  0  0  0  0  1  0  0  0  0  0  0
  193.2660  173.4030  142.7400 C   0  0  2  0  0  3  0  0  0  0  0  0
  196.2150  174.0510  145.0960 C   0  0  0  0  0  1  0  0  0  0  0  0
  195.7760  176.1130  143.8360 C   0  0  0  0  0  2  0  0  0  0  0  0
  191.7710  173.1630  143.0120 C   0  0  0  0  0  2  0  0  0  0  0  0
  195.7890  175.4460  145.1530 N   0  0  0  0  0  0  0  0  0  0  0  0
  192.1100  174.5660  146.0250 C   0  0  2  0  0  3  0  0  0  0  0  0
  191.0320  173.9750  145.1020 C   0  0  0  0  0  2  0  0  0  0  0  0
  191.5310  172.7980  144.4070 N   0  0  0  0  0  2  0  0  0  0  0  0
  194.5310  175.5950  145.8970 C   0  0  2  0  0  3  0  0  0  0  0  0
  194.7230  175.5970  140.1410 C   0  0  0  0  0  1  0  0  0  0  0  0
  195.0170  176.3200  141.4480 C   0  0  2  0  0  3  0  0  0  0  0  0
  196.1880  177.0690  141.3120 O   0  0  0  0  0  1  0  0  0  0  0  0
  191.3310  175.3790  148.1580 O   0  0  0  0  0  1  0  0  0  0  0  0
  191.5600  175.7600  146.8340 C   0  0  2  0  0  3  0  0  0  0  0  0
  189.1210  175.9390  146.6860 C   0  0  0  0  0  0  0  0  0  0  0  0
  190.2940  176.3430  146.2690 C   0  0  0  0  0  0  0  0  0  0  0  0
  188.0120  175.5570  147.0800 O   0  0  0  0  0  0  0  0  0  0  0  0
  190.3770  177.4500  145.2720 C   0  0  0  0  0  2  0  0  0  0  0  0
  189.6940  176.4950  143.1220 C   0  0  0  0  0  2  0  0  0  0  0  0
  188.0090  177.8140  144.2940 C   0  0  0  0  0  1  0  0  0  0  0  0
  189.3870  177.2570  144.1680 C   0  0  0  0  0  0  0  0  0  0  0  0
  194.0670  172.5430  143.5090 O   0  0  0  0  0  0  0  0  0  0  0  0
  194.3330  171.5380  141.3480 C   0  0  0  0  0  1  0  0  0  0  0  0
  194.0880  171.3130  142.8340 C   0  0  1  0  0  3  0  0  0  0  0  0
  195.1240  170.3560  143.4500 C   0  0  2  0  0  0  0  0  0  0  0  0
  196.3070  171.0480  143.7140 O   0  0  0  0  0  1  0  0  0  0  0  0
  195.4040  169.3540  142.5410 F   0  0  0  0  0  0  0  0  0  0  0  0
  194.5270  169.5820  144.9960 P   0  0  0  0  0  0  0  0  0  0  0  0
  192.9420  169.0260  144.7920 O   0  0  0  0  0  0  0  0  0  0  0  0
  194.5660  170.5820  146.1290 O   0  0  0  0  0  1  0  0  0  0  0  0
  195.5250  168.2720  145.3800 O   0  0  0  0  0  1  0  0  0  0  0  0
  2  6  1  6  0  0  0
  2  4  1  0  0  0  0
  2  9  1  0  0  0  0
  3  1  1  6  0  0  0
  3 15  1  0  0  0  0
  3 12  1  0  0  0  0
  4  1  1  1  0  0  0
  7  4  1  0  0  0  0
  7 10  1  0  0  0  0
  7 28  1  1  0  0  0
  8 11  1  0  0  0  0
  9 11  1  0  0  0  0
 10 14  1  0  0  0  0
 11 15  1  0  0  0  0
 12 20  1  6  0  0  0
 13 12  1  0  0  0  0
 14 13  1  0  0  0  0
 15  5  1  6  0  0  0
 17 16  1  6  0  0  0
 17  2  1  0  0  0  0
 18 17  1  0  0  0  0
 20 19  1  1  0  0  0
 21 23  2  0  0  0  0
 22 21  2  0  0  0  0
 22 20  1  0  0  0  0
 24 22  1  0  0  0  0
 25 27  2  0  0  0  0
 27 26  1  0  0  0  0
 27 24  1  0  0  0  0
 30 29  1  6  0  0  0
 30 31  1  0  0  0  0
 30 28  1  0  0  0  0
 31 33  1  6  0  0  0
 31 32  1  0  0  0  0
 31 34  1  0  0  0  0
 34 37  1  0  0  0  0
 34 36  1  0  0  0  0
 35 34  2  0  0  0  0
M  END
>  <MODEL>
6

>  <REMARK>
 VINA RESULT:      -6.1      3.558      7.464
  Name = 
  9 active torsions:
  status: ('A' for Active; 'I' for Inactive)
    1  A    between atoms: C_1  and  P_5
    2  A    between atoms: C_1  and  C_23
    3  A    between atoms: C_6  and  C_8
    4  A    between atoms: C_6  and  C_31
    5  A    between atoms: C_8  and  C_19
    6  A    between atoms: C_9  and  C_30
    7  A    between atoms: C_20  and  O_25
    8  A    between atoms: C_23  and  O_25
    9  A    between atoms: C_29  and  C_31
                            x       y       z     vdW  Elec       q    Type
                         _______ _______ _______ _____ _____    ______ ____

>  <TORSDO>
F 9

$$$$
=
 OpenBabel11052420133D

 37 38  0  0  1  0  0  0  0  0999 V2000
  189.4930  175.9980  144.5300 O   0  0  0  0  0  0  0  0  0  0  0  0
  190.9620  174.7160  146.0870 C   0  0  2  0  0  0  0  0  0  0  0  0
  189.8850  175.5090  143.2780 C   0  0  2  0  0  3  0  0  0  0  0  0
  190.6530  176.0330  145.3290 C   0  0  1  0  0  3  0  0  0  0  0  0
  188.2890  173.7020  143.4340 O   0  0  0  0  0  1  0  0  0  0  0  0
  192.3420  174.5080  146.1590 O   0  0  0  0  0  1  0  0  0  0  0  0
  191.8170  176.9470  144.8540 C   0  0  2  0  0  3  0  0  0  0  0  0
  191.9020  173.3260  143.6120 C   0  0  0  0  0  1  0  0  0  0  0  0
  190.2890  173.4620  145.4600 C   0  0  0  0  0  2  0  0  0  0  0  0
  191.2950  178.2410  144.2050 C   0  0  0  0  0  2  0  0  0  0  0  0
  190.5050  173.2130  144.0200 N   0  0  0  0  0  0  0  0  0  0  0  0
  189.4140  176.4220  142.1280 C   0  0  2  0  0  3  0  0  0  0  0  0
  189.7040  177.8850  142.4980 C   0  0  0  0  0  2  0  0  0  0  0  0
  191.1200  178.0850  142.7620 N   0  0  0  0  0  2  0  0  0  0  0  0
  189.6240  174.0040  143.1510 C   0  0  2  0  0  3  0  0  0  0  0  0
  188.9410  174.6270  147.6380 C   0  0  0  0  0  1  0  0  0  0  0  0
  190.4360  174.8930  147.5210 C   0  0  2  0  0  3  0  0  0  0  0  0
  190.7220  176.1690  148.0130 O   0  0  0  0  0  1  0  0  0  0  0  0
  187.8160  175.8140  140.4260 O   0  0  0  0  0  1  0  0  0  0  0  0
  187.9290  176.2210  141.7580 C   0  0  2  0  0  3  0  0  0  0  0  0
  186.2820  177.8810  141.0250 C   0  0  0  0  0  0  0  0  0  0  0  0
  187.0830  177.4470  141.9650 C   0  0  0  0  0  0  0  0  0  0  0  0
  185.5250  178.2910  140.1370 O   0  0  0  0  0  0  0  0  0  0  0  0
  187.1020  178.1360  143.2900 C   0  0  0  0  0  2  0  0  0  0  0  0
  186.1370  176.7900  145.0960 C   0  0  0  0  0  2  0  0  0  0  0  0
  184.6250  178.3630  144.0040 C   0  0  0  0  0  1  0  0  0  0  0  0
  185.9520  177.6970  144.1410 C   0  0  0  0  0  0  0  0  0  0  0  0
  192.6920  176.2640  143.9940 O   0  0  0  0  0  0  0  0  0  0  0  0
  194.1440  177.1510  145.6850 C   0  0  0  0  0  1  0  0  0  0  0  0
  193.9660  176.8100  144.2120 C   0  0  1  0  0  3  0  0  0  0  0  0
  195.0720  175.8680  143.7010 C   0  0  2  0  0  0  0  0  0  0  0  0
  194.8790  174.5880  144.2240 O   0  0  0  0  0  1  0  0  0  0  0  0
  196.2960  176.3340  144.1430 F   0  0  0  0  0  0  0  0  0  0  0  0
  195.1160  175.7680  141.8760 P   0  0  0  0  0  0  0  0  0  0  0  0
  193.5430  175.6500  141.2630 O   0  0  0  0  0  1  0  0  0  0  0  0
  195.9160  174.5620  141.4390 O   0  0  0  0  0  1  0  0  0  0  0  0
  195.8430  177.1660  141.2630 O   0  0  0  0  0  0  0  0  0  0  0  0
  2  6  1  1  0  0  0
  2 17  1  0  0  0  0
  3  1  1  1  0  0  0
  4  1  1  6  0  0  0
  4  2  1  0  0  0  0
  7 28  1  6  0  0  0
  7  4  1  0  0  0  0
  8 11  1  0  0  0  0
  9  2  1  0  0  0  0
 10  7  1  0  0  0  0
 11  9  1  0  0  0  0
 12 20  1  1  0  0  0
 12 13  1  0  0  0  0
 12  3  1  0  0  0  0
 13 14  1  0  0  0  0
 14 10  1  0  0  0  0
 15  3  1  0  0  0  0
 15  5  1  1  0  0  0
 15 11  1  0  0  0  0
 17 16  1  6  0  0  0
 17 18  1  0  0  0  0
 20 19  1  6  0  0  0
 20 22  1  0  0  0  0
 21 22  2  0  0  0  0
 22 24  1  0  0  0  0
 23 21  2  0  0  0  0
 24 27  1  0  0  0  0
 26 27  1  0  0  0  0
 27 25  2  0  0  0  0
 28 30  1  0  0  0  0
 30 29  1  1  0  0  0
 31 33  1  1  0  0  0
 31 30  1  0  0  0  0
 31 32  1  0  0  0  0
 34 31  1  0  0  0  0
 35 34  1  0  0  0  0
 36 34  1  0  0  0  0
 37 34  2  0  0  0  0
M  END
>  <MODEL>
7

>  <REMARK>
 VINA RESULT:      -6.0      3.205      7.515
  Name = 
  9 active torsions:
  status: ('A' for Active; 'I' for Inactive)
    1  A    between atoms: C_1  and  P_5
    2  A    between atoms: C_1  and  C_23
    3  A    between atoms: C_6  and  C_8
    4  A    between atoms: C_6  and  C_31
    5  A    between atoms: C_8  and  C_19
    6  A    between atoms: C_9  and  C_30
    7  A    between atoms: C_20  and  O_25
    8  A    between atoms: C_23  and  O_25
    9  A    between atoms: C_29  and  C_31
                            x       y       z     vdW  Elec       q    Type
                         _______ _______ _______ _____ _____    ______ ____

>  <TORSDO>
F 9

$$$$
=
 OpenBabel11052420133D

 37 38  0  0  1  0  0  0  0  0999 V2000
  192.3140  173.4060  143.2260 O   0  0  0  0  0  0  0  0  0  0  0  0
  193.1170  174.8740  145.0780 C   0  0  2  0  0  0  0  0  0  0  0  0
  191.6700  174.3160  142.3800 C   0  0  2  0  0  3  0  0  0  0  0  0
  192.0840  173.8490  144.5440 C   0  0  1  0  0  3  0  0  0  0  0  0
  193.7420  174.7820  141.2290 O   0  0  0  0  0  1  0  0  0  0  0  0
  192.4910  175.8090  145.9070 O   0  0  0  0  0  1  0  0  0  0  0  0
  190.6070  173.9130  145.0240 C   0  0  2  0  0  3  0  0  0  0  0  0
  191.9990  177.1000  143.4230 C   0  0  0  0  0  1  0  0  0  0  0  0
  193.8890  175.6240  143.9550 C   0  0  0  0  0  2  0  0  0  0  0  0
  189.7710  172.7580  144.4470 C   0  0  0  0  0  2  0  0  0  0  0  0
  193.0960  176.2910  142.9020 N   0  0  0  0  0  0  0  0  0  0  0  0
  190.7460  173.6100  141.3680 C   0  0  2  0  0  3  0  0  0  0  0  0
  189.9240  172.5390  142.1020 C   0  0  0  0  0  2  0  0  0  0  0  0
  189.1450  173.1280  143.1800 N   0  0  0  0  0  2  0  0  0  0  0  0
  192.6380  175.3780  141.8470 C   0  0  2  0  0  3  0  0  0  0  0  0
  195.5660  174.5230  145.6880 C   0  0  0  0  0  1  0  0  0  0  0  0
  194.1270  174.0880  145.9300 C   0  0  2  0  0  3  0  0  0  0  0  0
  194.0120  172.7130  145.7120 O   0  0  0  0  0  1  0  0  0  0  0  0
  191.2730  173.7710  139.0200 O   0  0  0  0  0  1  0  0  0  0  0  0
  191.5050  173.0070  140.1660 C   0  0  2  0  0  3  0  0  0  0  0  0
  191.8190  170.5890  140.4110 C   0  0  0  0  0  0  0  0  0  0  0  0
  191.1430  171.5760  139.8790 C   0  0  0  0  0  0  0  0  0  0  0  0
  192.4570  169.6570  140.9150 O   0  0  0  0  0  0  0  0  0  0  0  0
  189.9500  171.2760  139.0320 C   0  0  0  0  0  2  0  0  0  0  0  0
  189.9980  169.2170  137.7060 C   0  0  0  0  0  2  0  0  0  0  0  0
  190.9910  171.1880  136.6650 C   0  0  0  0  0  1  0  0  0  0  0  0
  190.3360  170.4990  137.8140 C   0  0  0  0  0  0  0  0  0  0  0  0
  190.0230  175.1560  144.7350 O   0  0  0  0  0  0  0  0  0  0  0  0
  189.4500  174.8160  147.0390 C   0  0  0  0  0  1  0  0  0  0  0  0
  189.0050  175.3460  145.6820 C   0  0  1  0  0  3  0  0  0  0  0  0
  188.5760  176.8220  145.7530 C   0  0  2  0  0  0  0  0  0  0  0  0
  189.6950  177.6290  145.9640 O   0  0  0  0  0  1  0  0  0  0  0  0
  187.7170  176.9880  146.8230 F   0  0  0  0  0  0  0  0  0  0  0  0
  187.7190  177.3740  144.2350 P   0  0  0  0  0  0  0  0  0  0  0  0
  186.8830  176.0790  143.5370 O   0  0  0  0  0  1  0  0  0  0  0  0
  188.7190  177.9200  143.2400 O   0  0  0  0  0  0  0  0  0  0  0  0
  186.6150  178.5910  144.6340 O   0  0  0  0  0  1  0  0  0  0  0  0
  2  6  1  1  0  0  0
  2 17  1  0  0  0  0
  3  1  1  6  0  0  0
  4  1  1  6  0  0  0
  4  7  1  0  0  0  0
  4  2  1  0  0  0  0
  7 28  1  6  0  0  0
  9  2  1  0  0  0  0
 10  7  1  0  0  0  0
 11  8  1  0  0  0  0
 11  9  1  0  0  0  0
 12 20  1  6  0  0  0
 12 13  1  0  0  0  0
 12  3  1  0  0  0  0
 13 14  1  0  0  0  0
 14 10  1  0  0  0  0
 15  5  1  1  0  0  0
 15  3  1  0  0  0  0
 15 11  1  0  0  0  0
 17 16  1  6  0  0  0
 18 17  1  0  0  0  0
 20 19  1  6  0  0  0
 21 23  2  0  0  0  0
 22 20  1  0  0  0  0
 22 21  2  0  0  0  0
 24 22  1  0  0  0  0
 25 27  2  0  0  0  0
 26 27  1  0  0  0  0
 27 24  1  0  0  0  0
 28 30  1  0  0  0  0
 30 31  1  0  0  0  0
 30 29  1  1  0  0  0
 31 32  1  1  0  0  0
 31 33  1  0  0  0  0
 34 37  1  0  0  0  0
 34 31  1  0  0  0  0
 35 34  1  0  0  0  0
 36 34  2  0  0  0  0
M  END
>  <MODEL>
8

>  <REMARK>
 VINA RESULT:      -5.9      2.310      5.390
  Name = 
  9 active torsions:
  status: ('A' for Active; 'I' for Inactive)
    1  A    between atoms: C_1  and  P_5
    2  A    between atoms: C_1  and  C_23
    3  A    between atoms: C_6  and  C_8
    4  A    between atoms: C_6  and  C_31
    5  A    between atoms: C_8  and  C_19
    6  A    between atoms: C_9  and  C_30
    7  A    between atoms: C_20  and  O_25
    8  A    between atoms: C_23  and  O_25
    9  A    between atoms: C_29  and  C_31
                            x       y       z     vdW  Elec       q    Type
                         _______ _______ _______ _____ _____    ______ ____

>  <TORSDO>
F 9

$$$$
=
 OpenBabel11052420133D

 37 38  0  0  1  0  0  0  0  0999 V2000
  192.2750  173.3510  143.1660 O   0  0  0  0  0  0  0  0  0  0  0  0
  193.1310  174.7590  145.0400 C   0  0  2  0  0  0  0  0  0  0  0  0
  191.6600  174.2960  142.3380 C   0  0  2  0  0  3  0  0  0  0  0  0
  192.0630  173.7780  144.4920 C   0  0  1  0  0  3  0  0  0  0  0  0
  193.7430  174.7120  141.1880 O   0  0  0  0  0  1  0  0  0  0  0  0
  192.5390  175.7000  145.8870 O   0  0  0  0  0  1  0  0  0  0  0  0
  190.5900  173.8830  144.9770 C   0  0  2  0  0  3  0  0  0  0  0  0
  192.0850  177.0500  143.4260 C   0  0  0  0  0  1  0  0  0  0  0  0
  193.9250  175.5020  143.9270 C   0  0  0  0  0  2  0  0  0  0  0  0
  189.7140  172.7670  144.3830 C   0  0  0  0  0  2  0  0  0  0  0  0
  193.1530  176.2130  142.8890 N   0  0  0  0  0  0  0  0  0  0  0  0
  190.7110  173.6380  141.3160 C   0  0  2  0  0  3  0  0  0  0  0  0
  189.8540  172.5830  142.0340 C   0  0  0  0  0  2  0  0  0  0  0  0
  189.0980  173.1800  143.1240 N   0  0  0  0  0  2  0  0  0  0  0  0
  192.6620  175.3340  141.8190 C   0  0  2  0  0  3  0  0  0  0  0  0
  195.5720  174.2490  145.5680 C   0  0  0  0  0  1  0  0  0  0  0  0
  194.1160  173.9260  145.8760 C   0  0  2  0  0  3  0  0  0  0  0  0
  193.8970  172.5570  145.7020 O   0  0  0  0  0  1  0  0  0  0  0  0
  190.9770  173.6080  138.9190 O   0  0  0  0  0  1  0  0  0  0  0  0
  191.4460  173.0320  140.1020 C   0  0  2  0  0  3  0  0  0  0  0  0
  190.4470  170.9890  139.1870 C   0  0  0  0  0  0  0  0  0  0  0  0
  191.3140  171.5370  140.0000 C   0  0  0  0  0  0  0  0  0  0  0  0
  189.6280  170.4720  138.4180 O   0  0  0  0  0  0  0  0  0  0  0  0
  192.2390  170.6650  140.7840 C   0  0  0  0  0  2  0  0  0  0  0  0
  194.5170  171.2770  141.4440 C   0  0  0  0  0  2  0  0  0  0  0  0
  194.1720  170.8190  139.0720 C   0  0  0  0  0  1  0  0  0  0  0  0
  193.6670  170.9730  140.4670 C   0  0  0  0  0  0  0  0  0  0  0  0
  190.0480  175.1500  144.7110 O   0  0  0  0  0  0  0  0  0  0  0  0
  189.4690  174.8060  147.0130 C   0  0  0  0  0  1  0  0  0  0  0  0
  189.0350  175.3550  145.6600 C   0  0  1  0  0  3  0  0  0  0  0  0
  188.6380  176.8400  145.7420 C   0  0  2  0  0  0  0  0  0  0  0  0
  189.7810  177.6260  145.8950 O   0  0  0  0  0  1  0  0  0  0  0  0
  187.8330  177.0280  146.8510 F   0  0  0  0  0  0  0  0  0  0  0  0
  187.7210  177.4000  144.2630 P   0  0  0  0  0  0  0  0  0  0  0  0
  188.8020  177.9600  143.0870 O   0  0  0  0  0  0  0  0  0  0  0  0
  186.7630  178.5100  144.6310 O   0  0  0  0  0  1  0  0  0  0  0  0
  186.8440  176.1000  143.6300 O   0  0  0  0  0  1  0  0  0  0  0  0
  2 17  1  0  0  0  0
  2  6  1  1  0  0  0
  3  1  1  6  0  0  0
  4  1  1  6  0  0  0
  4  7  1  0  0  0  0
  4  2  1  0  0  0  0
  7 28  1  6  0  0  0
  9  2  1  0  0  0  0
 10  7  1  0  0  0  0
 11  8  1  0  0  0  0
 11  9  1  0  0  0  0
 12 20  1  6  0  0  0
 12 13  1  0  0  0  0
 12  3  1  0  0  0  0
 13 14  1  0  0  0  0
 14 10  1  0  0  0  0
 15  5  1  1  0  0  0
 15  3  1  0  0  0  0
 15 11  1  0  0  0  0
 17 16  1  6  0  0  0
 18 17  1  0  0  0  0
 20 19  1  6  0  0  0
 21 22  2  0  0  0  0
 22 20  1  0  0  0  0
 22 24  1  0  0  0  0
 23 21  2  0  0  0  0
 26 27  1  0  0  0  0
 27 24  1  0  0  0  0
 27 25  2  0  0  0  0
 28 30  1  0  0  0  0
 30 31  1  0  0  0  0
 30 29  1  1  0  0  0
 31 32  1  1  0  0  0
 31 33  1  0  0  0  0
 34 36  1  0  0  0  0
 34 31  1  0  0  0  0
 35 34  2  0  0  0  0
 37 34  1  0  0  0  0
M  END
>  <MODEL>
9

>  <REMARK>
 VINA RESULT:      -5.9      2.174      5.035
  Name = 
  9 active torsions:
  status: ('A' for Active; 'I' for Inactive)
    1  A    between atoms: C_1  and  P_5
    2  A    between atoms: C_1  and  C_23
    3  A    between atoms: C_6  and  C_8
    4  A    between atoms: C_6  and  C_31
    5  A    between atoms: C_8  and  C_19
    6  A    between atoms: C_9  and  C_30
    7  A    between atoms: C_20  and  O_25
    8  A    between atoms: C_23  and  O_25
    9  A    between atoms: C_29  and  C_31
                            x       y       z     vdW  Elec       q    Type
                         _______ _______ _______ _____ _____    ______ ____

>  <TORSDO>
F 9

$$$$
