=
 OpenBabel11052418333D

 27 30  0  0  1  0  0  0  0  0999 V2000
  187.5680  177.3180  143.7700 N   0  0  0  0  0  0  0  0  0  0  0  0
  189.0070  177.2710  143.9060 C   0  0  0  0  0  0  0  0  0  0  0  0
  193.1290  176.9530  144.4720 N   0  0  0  0  0  2  0  0  0  0  0  0
  194.1290  176.0950  146.5150 C   0  0  0  0  0  1  0  0  0  0  0  0
  189.8280  178.2750  143.3510 C   0  0  0  0  0  3  0  0  0  0  0  0
  191.7950  174.9160  145.6530 S   0  0  0  0  0  0  0  0  0  0  0  0
  190.9330  176.1890  144.7610 C   0  0  0  0  0  0  0  0  0  0  0  0
  193.3950  175.7380  145.2390 C   0  0  1  0  0  3  0  0  0  0  0  0
  191.7510  177.1450  144.2270 C   0  0  0  0  0  0  0  0  0  0  0  0
  189.5860  176.2490  144.6060 N   0  0  0  0  0  0  0  0  0  0  0  0
  191.2170  178.2130  143.5110 C   0  0  0  0  0  3  0  0  0  0  0  0
  186.4940  177.3720  141.5260 C   0  0  1  0  0  3  0  0  0  0  0  0
  184.5430  178.7100  142.2640 C   0  0  1  0  0  3  0  0  0  0  0  0
  187.4420  177.6090  140.5290 O   0  0  0  0  0  1  0  0  0  0  0  0
  184.4250  177.9160  143.4290 O   0  0  0  0  0  0  0  0  0  0  0  0
  186.8560  178.1370  142.7820 C   0  0  1  0  0  3  0  0  0  0  0  0
  185.1600  178.6530  139.9750 F   0  0  0  0  0  0  0  0  0  0  0  0
  185.5610  179.8800  144.0980 O   0  0  0  0  0  1  0  0  0  0  0  0
  185.5670  178.7240  143.3210 C   0  0  1  0  0  0  0  0  0  0  0  0
  185.1040  177.8730  141.1170 C   0  0  1  0  0  3  0  0  0  0  0  0
  186.7360  176.4360  144.5830 C   0  0  0  0  0  2  0  0  0  0  0  0
  186.6210  176.9620  146.0060 C   0  0  2  0  0  3  0  0  0  0  0  0
  187.4950  176.2640  146.8180 F   0  0  0  0  0  0  0  0  0  0  0  0
  185.1950  176.7910  146.5130 C   0  0  0  0  0  2  0  0  0  0  0  0
  184.5720  178.1330  146.8620 C   0  0  0  0  0  2  0  0  0  0  0  0
  185.5610  179.0130  147.4930 C   0  0  0  0  0  0  0  0  0  0  0  0
  186.3710  179.7370  148.0130 C   0  0  0  0  0  3  0  0  0  0  0  0
  1  2  1  0  0  0  0
  1 21  1  0  0  0  0
  2 10  1  0  0  0  0
  3  8  1  0  0  0  0
  5 11  1  0  0  0  0
  5  2  2  0  0  0  0
  7  6  1  0  0  0  0
  8  6  1  0  0  0  0
  8  4  1  1  0  0  0
  9  3  1  0  0  0  0
  9  7  1  0  0  0  0
 10  7  2  0  0  0  0
 11  9  2  0  0  0  0
 12 14  1  6  0  0  0
 12 16  1  0  0  0  0
 13 19  1  0  0  0  0
 13 15  1  1  0  0  0
 16 19  1  0  0  0  0
 16  1  1  1  0  0  0
 19 15  1  0  0  0  0
 19 18  1  1  0  0  0
 20 17  1  6  0  0  0
 20 12  1  0  0  0  0
 20 13  1  0  0  0  0
 21 22  1  0  0  0  0
 22 24  1  0  0  0  0
 22 23  1  1  0  0  0
 24 25  1  0  0  0  0
 25 26  1  0  0  0  0
 26 27  3  0  0  0  0
M  END
>  <MODEL>
1

>  <REMARK>
 VINA RESULT:      -7.4      0.000      0.000
  Name = 
  6 active torsions:
  status: ('A' for Active; 'I' for Inactive)
    1  A    between atoms: N_1  and  C_15
    2  A    between atoms: N_1  and  C_18
    3  A    between atoms: C_7  and  C_25
    4  A    between atoms: C_9  and  C_15
    5  A    between atoms: C_9  and  C_27
    6  A    between atoms: C_25  and  C_27
                            x       y       z     vdW  Elec       q    Type
                         _______ _______ _______ _____ _____    ______ ____

>  <TORSDO>
F 6

$$$$
=
 OpenBabel11052418333D

 27 30  0  0  1  0  0  0  0  0999 V2000
  188.6780  176.1640  144.2130 N   0  0  0  0  0  0  0  0  0  0  0  0
  187.8480  176.6100  143.1160 C   0  0  0  0  0  0  0  0  0  0  0  0
  185.2590  177.9170  140.1160 N   0  0  0  0  0  2  0  0  0  0  0  0
  182.8420  177.6930  140.2540 C   0  0  0  0  0  1  0  0  0  0  0  0
  188.2700  176.4750  141.7760 C   0  0  0  0  0  3  0  0  0  0  0  0
  184.1970  178.2700  142.5800 S   0  0  0  0  0  0  0  0  0  0  0  0
  185.8130  177.5620  142.3630 C   0  0  0  0  0  0  0  0  0  0  0  0
  184.0550  178.4520  140.7480 C   0  0  1  0  0  3  0  0  0  0  0  0
  186.2010  177.4490  141.0580 C   0  0  0  0  0  0  0  0  0  0  0  0
  186.6180  177.1490  143.3750 N   0  0  0  0  0  0  0  0  0  0  0  0
  187.4390  176.9010  140.7340 C   0  0  0  0  0  3  0  0  0  0  0  0
  190.9680  177.1310  144.3200 C   0  0  1  0  0  3  0  0  0  0  0  0
  191.9310  175.2390  145.5960 C   0  0  1  0  0  3  0  0  0  0  0  0
  191.3300  177.6840  143.0900 O   0  0  0  0  0  1  0  0  0  0  0  0
  190.7960  175.2170  146.4410 O   0  0  0  0  0  0  0  0  0  0  0  0
  190.1170  175.8970  144.1060 C   0  0  1  0  0  3  0  0  0  0  0  0
  193.3370  176.6710  144.3330 F   0  0  0  0  0  0  0  0  0  0  0  0
  190.4560  173.4940  144.8550 O   0  0  0  0  0  1  0  0  0  0  0  0
  190.6000  174.8590  145.0990 C   0  0  1  0  0  0  0  0  0  0  0  0
  192.1930  176.6640  145.1120 C   0  0  1  0  0  3  0  0  0  0  0  0
  188.1080  176.0530  145.5520 C   0  0  0  0  0  2  0  0  0  0  0  0
  187.9900  177.4230  146.2040 C   0  0  2  0  0  3  0  0  0  0  0  0
  189.2040  177.7560  146.7770 F   0  0  0  0  0  0  0  0  0  0  0  0
  186.9030  177.4030  147.2700 C   0  0  0  0  0  2  0  0  0  0  0  0
  185.6130  176.8090  146.7250 C   0  0  0  0  0  2  0  0  0  0  0  0
  184.6620  177.8680  146.3760 C   0  0  0  0  0  0  0  0  0  0  0  0
  183.8800  178.7380  146.0860 C   0  0  0  0  0  3  0  0  0  0  0  0
  1 21  1  0  0  0  0
  2 10  1  0  0  0  0
  2  1  1  0  0  0  0
  3  8  1  0  0  0  0
  3  9  1  0  0  0  0
  5  2  2  0  0  0  0
  7  6  1  0  0  0  0
  7 10  2  0  0  0  0
  8  4  1  6  0  0  0
  8  6  1  0  0  0  0
  9  7  1  0  0  0  0
 11  9  2  0  0  0  0
 11  5  1  0  0  0  0
 12 14  1  6  0  0  0
 12 20  1  0  0  0  0
 13 15  1  1  0  0  0
 16  1  1  1  0  0  0
 16 12  1  0  0  0  0
 16 19  1  0  0  0  0
 19 18  1  6  0  0  0
 19 13  1  0  0  0  0
 19 15  1  0  0  0  0
 20 17  1  6  0  0  0
 20 13  1  0  0  0  0
 21 22  1  0  0  0  0
 22 23  1  1  0  0  0
 22 24  1  0  0  0  0
 25 24  1  0  0  0  0
 26 25  1  0  0  0  0
 27 26  3  0  0  0  0
M  END
>  <MODEL>
2

>  <REMARK>
 VINA RESULT:      -6.8      3.437      6.284
  Name = 
  6 active torsions:
  status: ('A' for Active; 'I' for Inactive)
    1  A    between atoms: N_1  and  C_15
    2  A    between atoms: N_1  and  C_18
    3  A    between atoms: C_7  and  C_25
    4  A    between atoms: C_9  and  C_15
    5  A    between atoms: C_9  and  C_27
    6  A    between atoms: C_25  and  C_27
                            x       y       z     vdW  Elec       q    Type
                         _______ _______ _______ _____ _____    ______ ____

>  <TORSDO>
F 6

$$$$
=
 OpenBabel11052418333D

 27 30  0  0  1  0  0  0  0  0999 V2000
  187.7140  177.4130  144.7360 N   0  0  0  0  0  0  0  0  0  0  0  0
  188.8300  176.7270  145.3490 C   0  0  0  0  0  0  0  0  0  0  0  0
  192.2010  174.8480  146.9370 N   0  0  0  0  0  2  0  0  0  0  0  0
  194.1860  174.3470  145.6260 C   0  0  0  0  0  1  0  0  0  0  0  0
  188.6290  175.7260  146.3230 C   0  0  0  0  0  3  0  0  0  0  0  0
  192.8680  176.7030  145.0830 S   0  0  0  0  0  0  0  0  0  0  0  0
  191.1700  176.3940  145.5110 C   0  0  0  0  0  0  0  0  0  0  0  0
  193.3870  175.4320  146.3180 C   0  0  1  0  0  3  0  0  0  0  0  0
  191.0030  175.4260  146.4600 C   0  0  0  0  0  0  0  0  0  0  0  0
  190.1060  177.0330  144.9620 N   0  0  0  0  0  0  0  0  0  0  0  0
  189.7280  175.0670  146.8880 C   0  0  0  0  0  3  0  0  0  0  0  0
  186.2590  178.1690  146.6070 C   0  0  1  0  0  3  0  0  0  0  0  0
  184.3880  178.8710  145.1420 C   0  0  1  0  0  3  0  0  0  0  0  0
  186.3010  177.2600  147.6660 O   0  0  0  0  0  1  0  0  0  0  0  0
  185.3010  179.4840  144.2520 O   0  0  0  0  0  0  0  0  0  0  0  0
  186.3540  177.4350  145.2860 C   0  0  1  0  0  3  0  0  0  0  0  0
  183.9980  178.3760  147.4280 F   0  0  0  0  0  0  0  0  0  0  0  0
  184.7780  177.3840  143.2960 O   0  0  0  0  0  1  0  0  0  0  0  0
  185.3520  178.0860  144.3540 C   0  0  1  0  0  0  0  0  0  0  0  0
  184.9300  178.9320  146.5680 C   0  0  1  0  0  3  0  0  0  0  0  0
  187.9330  178.2280  143.5460 C   0  0  0  0  0  2  0  0  0  0  0  0
  188.5960  177.4130  142.4460 C   0  0  2  0  0  3  0  0  0  0  0  0
  189.0210  178.2670  141.4450 F   0  0  0  0  0  0  0  0  0  0  0  0
  187.6110  176.4000  141.8790 C   0  0  0  0  0  2  0  0  0  0  0  0
  188.3370  175.1980  141.2960 C   0  0  0  0  0  2  0  0  0  0  0  0
  189.0270  174.4480  142.3490 C   0  0  0  0  0  0  0  0  0  0  0  0
  189.5960  173.8310  143.2140 C   0  0  0  0  0  3  0  0  0  0  0  0
  1  2  1  0  0  0  0
  2  5  1  0  0  0  0
  5 11  2  0  0  0  0
  6  7  1  0  0  0  0
  6  8  1  0  0  0  0
  7  9  2  0  0  0  0
  8  4  1  6  0  0  0
  8  3  1  0  0  0  0
  9 11  1  0  0  0  0
  9  3  1  0  0  0  0
 10  2  2  0  0  0  0
 10  7  1  0  0  0  0
 12 14  1  1  0  0  0
 13 15  1  6  0  0  0
 13 20  1  0  0  0  0
 15 19  1  0  0  0  0
 16  1  1  6  0  0  0
 16 12  1  0  0  0  0
 19 18  1  6  0  0  0
 19 13  1  0  0  0  0
 19 16  1  0  0  0  0
 20 12  1  0  0  0  0
 20 17  1  1  0  0  0
 21  1  1  0  0  0  0
 22 23  1  6  0  0  0
 22 21  1  0  0  0  0
 24 22  1  0  0  0  0
 25 24  1  0  0  0  0
 25 26  1  0  0  0  0
 26 27  3  0  0  0  0
M  END
>  <MODEL>
3

>  <REMARK>
 VINA RESULT:      -6.8      2.274      4.458
  Name = 
  6 active torsions:
  status: ('A' for Active; 'I' for Inactive)
    1  A    between atoms: N_1  and  C_15
    2  A    between atoms: N_1  and  C_18
    3  A    between atoms: C_7  and  C_25
    4  A    between atoms: C_9  and  C_15
    5  A    between atoms: C_9  and  C_27
    6  A    between atoms: C_25  and  C_27
                            x       y       z     vdW  Elec       q    Type
                         _______ _______ _______ _____ _____    ______ ____

>  <TORSDO>
F 6

$$$$
=
 OpenBabel11052418333D

 27 30  0  0  1  0  0  0  0  0999 V2000
  187.4710  177.0980  144.4290 N   0  0  0  0  0  0  0  0  0  0  0  0
  188.0450  176.2510  143.4080 C   0  0  0  0  0  0  0  0  0  0  0  0
  189.9230  173.8150  140.5870 N   0  0  0  0  0  2  0  0  0  0  0  0
  192.3260  173.8210  140.2140 C   0  0  0  0  0  1  0  0  0  0  0  0
  187.3690  176.0050  142.1940 C   0  0  0  0  0  3  0  0  0  0  0  0
  191.4430  174.1380  142.8030 S   0  0  0  0  0  0  0  0  0  0  0  0
  189.8470  174.9070  142.6580 C   0  0  0  0  0  0  0  0  0  0  0  0
  191.2060  173.3830  141.1350 C   0  0  1  0  0  3  0  0  0  0  0  0
  189.2090  174.6480  141.4770 C   0  0  0  0  0  0  0  0  0  0  0  0
  189.2790  175.6950  143.6060 N   0  0  0  0  0  0  0  0  0  0  0  0
  187.9550  175.1930  141.2170 C   0  0  0  0  0  3  0  0  0  0  0  0
  185.5750  177.7350  145.9100 C   0  0  1  0  0  3  0  0  0  0  0  0
  184.7260  179.5090  144.4040 C   0  0  1  0  0  3  0  0  0  0  0  0
  184.9510  176.5990  146.4300 O   0  0  0  0  0  1  0  0  0  0  0  0
  186.0450  179.9710  144.1860 O   0  0  0  0  0  0  0  0  0  0  0  0
  186.0520  177.4650  144.4980 C   0  0  1  0  0  3  0  0  0  0  0  0
  183.2960  178.5210  146.0180 F   0  0  0  0  0  0  0  0  0  0  0  0
  185.5100  178.6340  142.3090 O   0  0  0  0  0  1  0  0  0  0  0  0
  185.7230  178.7010  143.6850 C   0  0  1  0  0  0  0  0  0  0  0  0
  184.6060  178.9170  145.8060 C   0  0  1  0  0  3  0  0  0  0  0  0
  188.3020  177.5600  145.5360 C   0  0  0  0  0  2  0  0  0  0  0  0
  188.8770  176.3830  146.3090 C   0  0  2  0  0  3  0  0  0  0  0  0
  187.9150  175.8990  147.1760 F   0  0  0  0  0  0  0  0  0  0  0  0
  190.1070  176.8210  147.0920 C   0  0  0  0  0  2  0  0  0  0  0  0
  190.8070  175.6290  147.7240 C   0  0  0  0  0  2  0  0  0  0  0  0
  191.9960  175.2570  146.9510 C   0  0  0  0  0  0  0  0  0  0  0  0
  192.9710  174.9500  146.3130 C   0  0  0  0  0  3  0  0  0  0  0  0
  1 21  1  0  0  0  0
  2 10  1  0  0  0  0
  2  1  1  0  0  0  0
  3  8  1  0  0  0  0
  3  9  1  0  0  0  0
  5  2  2  0  0  0  0
  7  6  1  0  0  0  0
  7 10  2  0  0  0  0
  8  4  1  6  0  0  0
  8  6  1  0  0  0  0
  9  7  1  0  0  0  0
 11  9  2  0  0  0  0
 11  5  1  0  0  0  0
 12 14  1  6  0  0  0
 13 15  1  1  0  0  0
 13 20  1  0  0  0  0
 16  1  1  1  0  0  0
 16 12  1  0  0  0  0
 19 18  1  6  0  0  0
 19 15  1  0  0  0  0
 19 13  1  0  0  0  0
 19 16  1  0  0  0  0
 20 12  1  0  0  0  0
 20 17  1  6  0  0  0
 21 22  1  0  0  0  0
 22 24  1  0  0  0  0
 22 23  1  1  0  0  0
 24 25  1  0  0  0  0
 26 25  1  0  0  0  0
 27 26  3  0  0  0  0
M  END
>  <MODEL>
4

>  <REMARK>
 VINA RESULT:      -6.6      2.657      4.480
  Name = 
  6 active torsions:
  status: ('A' for Active; 'I' for Inactive)
    1  A    between atoms: N_1  and  C_15
    2  A    between atoms: N_1  and  C_18
    3  A    between atoms: C_7  and  C_25
    4  A    between atoms: C_9  and  C_15
    5  A    between atoms: C_9  and  C_27
    6  A    between atoms: C_25  and  C_27
                            x       y       z     vdW  Elec       q    Type
                         _______ _______ _______ _____ _____    ______ ____

>  <TORSDO>
F 6

$$$$
=
 OpenBabel11052418333D

 27 30  0  0  1  0  0  0  0  0999 V2000
  187.7060  176.9550  144.7160 N   0  0  0  0  0  0  0  0  0  0  0  0
  189.0610  176.7830  145.1910 C   0  0  0  0  0  0  0  0  0  0  0  0
  193.0120  176.1350  146.3670 N   0  0  0  0  0  2  0  0  0  0  0  0
  194.2850  174.1660  145.7250 C   0  0  0  0  0  1  0  0  0  0  0  0
  189.4420  177.2050  146.4830 C   0  0  0  0  0  3  0  0  0  0  0  0
  192.5470  175.2150  143.8650 S   0  0  0  0  0  0  0  0  0  0  0  0
  191.2620  175.9920  144.8170 C   0  0  0  0  0  0  0  0  0  0  0  0
  193.7200  175.4930  145.2620 C   0  0  1  0  0  3  0  0  0  0  0  0
  191.6580  176.3980  146.0600 C   0  0  0  0  0  0  0  0  0  0  0  0
  189.9870  176.1780  144.3890 N   0  0  0  0  0  0  0  0  0  0  0  0
  190.7570  177.0130  146.9230 C   0  0  0  0  0  3  0  0  0  0  0  0
  185.6650  178.3280  144.3370 C   0  0  1  0  0  3  0  0  0  0  0  0
  184.5940  177.6990  146.4810 C   0  0  1  0  0  3  0  0  0  0  0  0
  186.0000  179.5780  143.8130 O   0  0  0  0  0  1  0  0  0  0  0  0
  184.9620  176.3470  146.2810 O   0  0  0  0  0  0  0  0  0  0  0  0
  186.7280  177.8710  145.3140 C   0  0  1  0  0  3  0  0  0  0  0  0
  183.9470  179.6830  145.3550 F   0  0  0  0  0  0  0  0  0  0  0  0
  186.5690  177.2410  147.7700 O   0  0  0  0  0  1  0  0  0  0  0  0
  186.0000  177.2660  146.4980 C   0  0  1  0  0  0  0  0  0  0  0  0
  184.3580  178.3790  145.1340 C   0  0  1  0  0  3  0  0  0  0  0  0
  187.2720  176.2630  143.5060 C   0  0  0  0  0  2  0  0  0  0  0  0
  188.0690  176.7340  142.2990 C   0  0  2  0  0  3  0  0  0  0  0  0
  188.3120  178.0900  142.4190 F   0  0  0  0  0  0  0  0  0  0  0  0
  187.2910  176.4590  141.0190 C   0  0  0  0  0  2  0  0  0  0  0  0
  186.8900  177.7550  140.3320 C   0  0  0  0  0  2  0  0  0  0  0  0
  185.4660  178.0320  140.5410 C   0  0  0  0  0  0  0  0  0  0  0  0
  184.2960  178.2620  140.7130 C   0  0  0  0  0  3  0  0  0  0  0  0
  1  2  1  0  0  0  0
  2  5  1  0  0  0  0
  5 11  2  0  0  0  0
  6  7  1  0  0  0  0
  6  8  1  0  0  0  0
  7  9  2  0  0  0  0
  8  4  1  1  0  0  0
  8  3  1  0  0  0  0
  9  3  1  0  0  0  0
  9 11  1  0  0  0  0
 10  7  1  0  0  0  0
 10  2  2  0  0  0  0
 12 14  1  1  0  0  0
 12 20  1  0  0  0  0
 12 16  1  0  0  0  0
 13 15  1  6  0  0  0
 13 19  1  0  0  0  0
 15 19  1  0  0  0  0
 16  1  1  6  0  0  0
 16 19  1  0  0  0  0
 19 18  1  1  0  0  0
 20 17  1  1  0  0  0
 20 13  1  0  0  0  0
 21  1  1  0  0  0  0
 22 23  1  1  0  0  0
 22 21  1  0  0  0  0
 24 22  1  0  0  0  0
 25 26  1  0  0  0  0
 25 24  1  0  0  0  0
 26 27  3  0  0  0  0
M  END
>  <MODEL>
5

>  <REMARK>
 VINA RESULT:      -6.6      2.116      3.952
  Name = 
  6 active torsions:
  status: ('A' for Active; 'I' for Inactive)
    1  A    between atoms: N_1  and  C_15
    2  A    between atoms: N_1  and  C_18
    3  A    between atoms: C_7  and  C_25
    4  A    between atoms: C_9  and  C_15
    5  A    between atoms: C_9  and  C_27
    6  A    between atoms: C_25  and  C_27
                            x       y       z     vdW  Elec       q    Type
                         _______ _______ _______ _____ _____    ______ ____

>  <TORSDO>
F 6

$$$$
=
 OpenBabel11052418333D

 27 30  0  0  1  0  0  0  0  0999 V2000
  187.9360  176.5740  142.6390 N   0  0  0  0  0  0  0  0  0  0  0  0
  189.2740  176.7580  143.1560 C   0  0  0  0  0  0  0  0  0  0  0  0
  193.1550  177.0360  144.6640 N   0  0  0  0  0  2  0  0  0  0  0  0
  194.1930  175.2870  145.9970 C   0  0  0  0  0  1  0  0  0  0  0  0
  189.7260  178.0240  143.5850 C   0  0  0  0  0  3  0  0  0  0  0  0
  192.5400  174.5020  143.9390 S   0  0  0  0  0  0  0  0  0  0  0  0
  191.3680  175.8250  143.7550 C   0  0  0  0  0  0  0  0  0  0  0  0
  193.7660  175.7100  144.6060 C   0  0  1  0  0  3  0  0  0  0  0  0
  191.8320  177.0420  144.1690 C   0  0  0  0  0  0  0  0  0  0  0  0
  190.1120  175.6830  143.2590 N   0  0  0  0  0  0  0  0  0  0  0  0
  191.0210  178.1700  144.0960 C   0  0  0  0  0  3  0  0  0  0  0  0
  186.2730  177.2920  140.9330 C   0  0  1  0  0  3  0  0  0  0  0  0
  184.8030  178.4520  142.5550 C   0  0  1  0  0  3  0  0  0  0  0  0
  186.9140  177.7570  139.7830 O   0  0  0  0  0  1  0  0  0  0  0  0
  184.9290  177.3720  143.4590 O   0  0  0  0  0  0  0  0  0  0  0  0
  187.0770  177.6630  142.1620 C   0  0  1  0  0  3  0  0  0  0  0  0
  184.7190  179.0070  140.2500 F   0  0  0  0  0  0  0  0  0  0  0  0
  186.4460  179.0250  144.2110 O   0  0  0  0  0  1  0  0  0  0  0  0
  186.0820  178.1310  143.2060 C   0  0  1  0  0  0  0  0  0  0  0  0
  184.8990  177.9440  141.1180 C   0  0  1  0  0  3  0  0  0  0  0  0
  187.4050  175.2250  142.4730 C   0  0  0  0  0  2  0  0  0  0  0  0
  188.3220  174.3870  141.5950 C   0  0  2  0  0  3  0  0  0  0  0  0
  188.1240  174.7360  140.2720 F   0  0  0  0  0  0  0  0  0  0  0  0
  188.0240  172.9060  141.7900 C   0  0  0  0  0  2  0  0  0  0  0  0
  189.2760  172.1430  142.1890 C   0  0  0  0  0  2  0  0  0  0  0  0
  189.4660  172.1820  143.6420 C   0  0  0  0  0  0  0  0  0  0  0  0
  189.6190  172.2130  144.8370 C   0  0  0  0  0  3  0  0  0  0  0  0
  1  2  1  0  0  0  0
  2 10  2  0  0  0  0
  2  5  1  0  0  0  0
  5 11  2  0  0  0  0
  6  8  1  0  0  0  0
  7  6  1  0  0  0  0
  7  9  2  0  0  0  0
  8  3  1  0  0  0  0
  8  4  1  1  0  0  0
  9  3  1  0  0  0  0
 10  7  1  0  0  0  0
 11  9  1  0  0  0  0
 12 14  1  6  0  0  0
 12 20  1  0  0  0  0
 12 16  1  0  0  0  0
 13 19  1  0  0  0  0
 13 15  1  1  0  0  0
 16  1  1  1  0  0  0
 16 19  1  0  0  0  0
 19 15  1  0  0  0  0
 19 18  1  1  0  0  0
 20 17  1  6  0  0  0
 20 13  1  0  0  0  0
 21  1  1  0  0  0  0
 22 23  1  6  0  0  0
 22 24  1  0  0  0  0
 22 21  1  0  0  0  0
 24 25  1  0  0  0  0
 25 26  1  0  0  0  0
 26 27  3  0  0  0  0
M  END
>  <MODEL>
6

>  <REMARK>
 VINA RESULT:      -6.4      2.374      3.740
  Name = 
  6 active torsions:
  status: ('A' for Active; 'I' for Inactive)
    1  A    between atoms: N_1  and  C_15
    2  A    between atoms: N_1  and  C_18
    3  A    between atoms: C_7  and  C_25
    4  A    between atoms: C_9  and  C_15
    5  A    between atoms: C_9  and  C_27
    6  A    between atoms: C_25  and  C_27
                            x       y       z     vdW  Elec       q    Type
                         _______ _______ _______ _____ _____    ______ ____

>  <TORSDO>
F 6

$$$$
=
 OpenBabel11052418333D

 27 30  0  0  1  0  0  0  0  0999 V2000
  191.1550  176.0170  144.6770 N   0  0  0  0  0  0  0  0  0  0  0  0
  190.0540  176.7210  144.0580 C   0  0  0  0  0  0  0  0  0  0  0  0
  186.7270  178.6630  142.4540 N   0  0  0  0  0  2  0  0  0  0  0  0
  184.4420  177.9280  142.8430 C   0  0  0  0  0  1  0  0  0  0  0  0
  190.1710  177.2690  142.7630 C   0  0  0  0  0  3  0  0  0  0  0  0
  186.2240  177.6920  144.9290 S   0  0  0  0  0  0  0  0  0  0  0  0
  187.8130  177.4830  144.1610 C   0  0  0  0  0  0  0  0  0  0  0  0
  185.6500  178.6200  143.4400 C   0  0  1  0  0  3  0  0  0  0  0  0
  187.9030  178.0280  142.9110 C   0  0  0  0  0  0  0  0  0  0  0  0
  188.8670  176.8390  144.7250 N   0  0  0  0  0  0  0  0  0  0  0  0
  189.0850  177.9320  142.1810 C   0  0  0  0  0  3  0  0  0  0  0  0
  193.5430  176.0090  145.3770 C   0  0  1  0  0  3  0  0  0  0  0  0
  194.3030  174.5890  143.4950 C   0  0  1  0  0  3  0  0  0  0  0  0
  193.9440  177.2830  145.7830 O   0  0  0  0  0  1  0  0  0  0  0  0
  193.1890  173.7360  143.6730 O   0  0  0  0  0  0  0  0  0  0  0  0
  192.5510  176.1140  144.2370 C   0  0  1  0  0  3  0  0  0  0  0  0
  195.8430  175.9770  144.6470 F   0  0  0  0  0  0  0  0  0  0  0  0
  192.6240  175.1720  141.8800 O   0  0  0  0  0  1  0  0  0  0  0  0
  192.9290  175.0430  143.2330 C   0  0  1  0  0  0  0  0  0  0  0  0
  194.7190  175.1900  144.8360 C   0  0  1  0  0  3  0  0  0  0  0  0
  190.9200  175.2250  145.8810 C   0  0  0  0  0  2  0  0  0  0  0  0
  189.8030  174.2170  145.6550 C   0  0  2  0  0  3  0  0  0  0  0  0
  189.2210  173.9090  146.8710 F   0  0  0  0  0  0  0  0  0  0  0  0
  190.3590  172.9540  145.0130 C   0  0  0  0  0  2  0  0  0  0  0  0
  189.3790  172.3740  144.0060 C   0  0  0  0  0  2  0  0  0  0  0  0
  189.3660  173.1730  142.7770 C   0  0  0  0  0  0  0  0  0  0  0  0
  189.3530  173.8310  141.7670 C   0  0  0  0  0  3  0  0  0  0  0  0
  1 21  1  0  0  0  0
  2  1  1  0  0  0  0
  2 10  1  0  0  0  0
  3  9  1  0  0  0  0
  3  8  1  0  0  0  0
  5  2  2  0  0  0  0
  7 10  2  0  0  0  0
  7  6  1  0  0  0  0
  8  4  1  6  0  0  0
  8  6  1  0  0  0  0
  9  7  1  0  0  0  0
 11  5  1  0  0  0  0
 11  9  2  0  0  0  0
 12 14  1  6  0  0  0
 13 15  1  1  0  0  0
 13 20  1  0  0  0  0
 16  1  1  1  0  0  0
 16 12  1  0  0  0  0
 19 18  1  6  0  0  0
 19 13  1  0  0  0  0
 19 15  1  0  0  0  0
 19 16  1  0  0  0  0
 20 17  1  6  0  0  0
 20 12  1  0  0  0  0
 22 21  1  0  0  0  0
 22 23  1  1  0  0  0
 24 22  1  0  0  0  0
 25 24  1  0  0  0  0
 26 25  1  0  0  0  0
 27 26  3  0  0  0  0
M  END
>  <MODEL>
7

>  <REMARK>
 VINA RESULT:      -6.2      3.963      7.245
  Name = 
  6 active torsions:
  status: ('A' for Active; 'I' for Inactive)
    1  A    between atoms: N_1  and  C_15
    2  A    between atoms: N_1  and  C_18
    3  A    between atoms: C_7  and  C_25
    4  A    between atoms: C_9  and  C_15
    5  A    between atoms: C_9  and  C_27
    6  A    between atoms: C_25  and  C_27
                            x       y       z     vdW  Elec       q    Type
                         _______ _______ _______ _____ _____    ______ ____

>  <TORSDO>
F 6

$$$$
=
 OpenBabel11052418333D

 27 30  0  0  1  0  0  0  0  0999 V2000
  188.0550  176.2290  143.7430 N   0  0  0  0  0  0  0  0  0  0  0  0
  188.5150  174.9700  143.2020 C   0  0  0  0  0  0  0  0  0  0  0  0
  190.0630  171.3710  141.7640 N   0  0  0  0  0  2  0  0  0  0  0  0
  192.4460  170.9330  141.5640 C   0  0  0  0  0  1  0  0  0  0  0  0
  187.8160  174.3200  142.1630 C   0  0  0  0  0  3  0  0  0  0  0  0
  191.6040  172.4100  143.7300 S   0  0  0  0  0  0  0  0  0  0  0  0
  190.1250  173.2310  143.1850 C   0  0  0  0  0  0  0  0  0  0  0  0
  191.2750  171.0580  142.5170 C   0  0  1  0  0  3  0  0  0  0  0  0
  189.4630  172.5790  142.1840 C   0  0  0  0  0  0  0  0  0  0  0  0
  189.6630  174.4060  143.6860 N   0  0  0  0  0  0  0  0  0  0  0  0
  188.2930  173.1090  141.6470 C   0  0  0  0  0  3  0  0  0  0  0  0
  186.2210  177.5750  144.7520 C   0  0  1  0  0  3  0  0  0  0  0  0
  185.6620  178.7660  142.6530 C   0  0  1  0  0  3  0  0  0  0  0  0
  185.4350  176.7860  145.5950 O   0  0  0  0  0  1  0  0  0  0  0  0
  187.0370  178.9620  142.3850 O   0  0  0  0  0  0  0  0  0  0  0  0
  186.6970  176.7570  143.5690 C   0  0  1  0  0  3  0  0  0  0  0  0
  184.0670  178.6040  144.4010 F   0  0  0  0  0  0  0  0  0  0  0  0
  186.3800  177.1050  141.0740 O   0  0  0  0  0  1  0  0  0  0  0  0
  186.5610  177.6430  142.3470 C   0  0  1  0  0  0  0  0  0  0  0  0
  185.4230  178.7420  144.1610 C   0  0  1  0  0  3  0  0  0  0  0  0
  188.9360  177.0100  144.6050 C   0  0  0  0  0  2  0  0  0  0  0  0
  189.9290  177.8130  143.7780 C   0  0  2  0  0  3  0  0  0  0  0  0
  189.8060  177.4520  142.4500 F   0  0  0  0  0  0  0  0  0  0  0  0
  191.3490  177.5440  144.2590 C   0  0  0  0  0  2  0  0  0  0  0  0
  191.3460  176.8010  145.5850 C   0  0  0  0  0  2  0  0  0  0  0  0
  192.7000  176.3610  145.9340 C   0  0  0  0  0  0  0  0  0  0  0  0
  193.8130  175.9960  146.2190 C   0  0  0  0  0  3  0  0  0  0  0  0
  1 21  1  0  0  0  0
  2 10  1  0  0  0  0
  2  1  1  0  0  0  0
  3  9  1  0  0  0  0
  3  8  1  0  0  0  0
  5  2  2  0  0  0  0
  7 10  2  0  0  0  0
  7  6  1  0  0  0  0
  8  4  1  6  0  0  0
  8  6  1  0  0  0  0
  9  7  1  0  0  0  0
 11  5  1  0  0  0  0
 11  9  2  0  0  0  0
 12 14  1  1  0  0  0
 13 15  1  1  0  0  0
 13 20  1  0  0  0  0
 16  1  1  1  0  0  0
 16 12  1  0  0  0  0
 19 18  1  6  0  0  0
 19 15  1  0  0  0  0
 19 13  1  0  0  0  0
 19 16  1  0  0  0  0
 20 17  1  6  0  0  0
 20 12  1  0  0  0  0
 22 23  1  6  0  0  0
 22 24  1  0  0  0  0
 22 21  1  0  0  0  0
 24 25  1  0  0  0  0
 25 26  1  0  0  0  0
 26 27  3  0  0  0  0
M  END
>  <MODEL>
8

>  <REMARK>
 VINA RESULT:      -6.2      3.095      4.860
  Name = 
  6 active torsions:
  status: ('A' for Active; 'I' for Inactive)
    1  A    between atoms: N_1  and  C_15
    2  A    between atoms: N_1  and  C_18
    3  A    between atoms: C_7  and  C_25
    4  A    between atoms: C_9  and  C_15
    5  A    between atoms: C_9  and  C_27
    6  A    between atoms: C_25  and  C_27
                            x       y       z     vdW  Elec       q    Type
                         _______ _______ _______ _____ _____    ______ ____

>  <TORSDO>
F 6

$$$$
=
 OpenBabel11052418333D

 27 30  0  0  1  0  0  0  0  0999 V2000
  190.4680  175.1040  143.6200 N   0  0  0  0  0  0  0  0  0  0  0  0
  191.8760  174.7780  143.6790 C   0  0  0  0  0  0  0  0  0  0  0  0
  195.8860  173.6810  144.0430 N   0  0  0  0  0  2  0  0  0  0  0  0
  196.8470  172.8160  146.1020 C   0  0  0  0  0  1  0  0  0  0  0  0
  192.8350  175.5440  142.9830 C   0  0  0  0  0  3  0  0  0  0  0  0
  194.2690  172.0650  145.4910 S   0  0  0  0  0  0  0  0  0  0  0  0
  193.6110  173.4060  144.5270 C   0  0  0  0  0  0  0  0  0  0  0  0
  195.9640  172.5080  144.9100 C   0  0  1  0  0  3  0  0  0  0  0  0
  194.5580  174.1270  143.8580 C   0  0  0  0  0  0  0  0  0  0  0  0
  192.2940  173.7240  144.4430 N   0  0  0  0  0  0  0  0  0  0  0  0
  194.1930  175.2160  143.0710 C   0  0  0  0  0  3  0  0  0  0  0  0
  188.5620  175.4070  142.0490 C   0  0  1  0  0  3  0  0  0  0  0  0
  188.2850  177.8220  142.5280 C   0  0  1  0  0  3  0  0  0  0  0  0
  188.7970  174.7320  140.8500 O   0  0  0  0  0  1  0  0  0  0  0  0
  188.4310  177.5760  143.9130 O   0  0  0  0  0  0  0  0  0  0  0  0
  189.8600  175.9630  142.5970 C   0  0  1  0  0  3  0  0  0  0  0  0
  187.4570  176.8980  140.5060 F   0  0  0  0  0  0  0  0  0  0  0  0
  190.5410  178.3420  143.1650 O   0  0  0  0  0  1  0  0  0  0  0  0
  189.5560  177.3580  143.1040 C   0  0  1  0  0  0  0  0  0  0  0  0
  187.6410  176.6150  141.8490 C   0  0  1  0  0  3  0  0  0  0  0  0
  189.5430  174.4820  144.5610 C   0  0  0  0  0  2  0  0  0  0  0  0
  190.0650  174.5900  145.9860 C   0  0  2  0  0  3  0  0  0  0  0  0
  189.2810  173.8100  146.8150 F   0  0  0  0  0  0  0  0  0  0  0  0
  190.0250  176.0410  146.4480 C   0  0  0  0  0  2  0  0  0  0  0  0
  191.0150  176.2830  147.5760 C   0  0  0  0  0  2  0  0  0  0  0  0
  192.3820  176.3720  147.0540 C   0  0  0  0  0  0  0  0  0  0  0  0
  193.5050  176.4440  146.6230 C   0  0  0  0  0  3  0  0  0  0  0  0
  1  2  1  0  0  0  0
  1 21  1  0  0  0  0
  2 10  1  0  0  0  0
  3  8  1  0  0  0  0
  5 11  1  0  0  0  0
  5  2  2  0  0  0  0
  7  6  1  0  0  0  0
  8  6  1  0  0  0  0
  8  4  1  1  0  0  0
  9  3  1  0  0  0  0
  9  7  1  0  0  0  0
 10  7  2  0  0  0  0
 11  9  2  0  0  0  0
 12 14  1  6  0  0  0
 12 16  1  0  0  0  0
 13 19  1  0  0  0  0
 13 15  1  1  0  0  0
 16 19  1  0  0  0  0
 16  1  1  1  0  0  0
 19 18  1  1  0  0  0
 19 15  1  0  0  0  0
 20 17  1  6  0  0  0
 20 12  1  0  0  0  0
 20 13  1  0  0  0  0
 21 22  1  0  0  0  0
 22 24  1  0  0  0  0
 22 23  1  1  0  0  0
 24 25  1  0  0  0  0
 26 25  1  0  0  0  0
 27 26  3  0  0  0  0
M  END
>  <MODEL>
9

>  <REMARK>
 VINA RESULT:      -6.2      3.277      4.424
  Name = 
  6 active torsions:
  status: ('A' for Active; 'I' for Inactive)
    1  A    between atoms: N_1  and  C_15
    2  A    between atoms: N_1  and  C_18
    3  A    between atoms: C_7  and  C_25
    4  A    between atoms: C_9  and  C_15
    5  A    between atoms: C_9  and  C_27
    6  A    between atoms: C_25  and  C_27
                            x       y       z     vdW  Elec       q    Type
                         _______ _______ _______ _____ _____    ______ ____

>  <TORSDO>
F 6

$$$$
