=
 OpenBabel11052417203D

 30 35  0  0  1  0  0  0  0  0999 V2000
  188.2560  175.4620  143.5070 C   0  0  1  0  0  3  0  0  0  0  0  0
  186.1240  178.4620  142.7320 C   0  0  2  0  0  3  0  0  0  0  0  0
  186.8060  176.8040  147.0160 N   0  0  0  0  0  2  0  0  0  0  0  0
  187.9300  176.9630  143.5340 C   0  0  1  0  0  3  0  0  0  0  0  0
  187.6980  174.8310  142.3230 N   0  0  0  0  0  0  0  0  0  0  0  0
  191.0930  174.0580  141.2170 S   0  0  0  0  0  0  0  0  0  0  0  0
  191.8450  174.4620  144.6660 C   0  0  1  0  0  3  0  0  0  0  0  0
  189.8440  173.9520  142.5450 C   0  0  2  0  0  3  0  0  0  0  0  0
  188.5130  173.5370  140.5180 N   0  0  0  0  0  2  0  0  0  0  0  0
  190.3640  176.3250  145.6110 C   0  0  2  0  0  3  0  0  0  0  0  0
  188.0730  176.2130  146.7020 C   0  0  0  0  0  0  0  0  0  0  0  0
  188.5420  173.9820  141.8590 C   0  0  0  0  0  0  0  0  0  0  0  0
  189.7720  175.2050  143.4150 C   0  0  2  0  0  3  0  0  0  0  0  0
  185.7370  179.5340  143.7320 C   0  0  0  0  0  2  0  0  0  0  0  0
  191.0980  176.2790  146.9620 C   0  0  0  0  0  2  0  0  0  0  0  0
  192.8510  175.0570  145.6520 C   0  0  0  0  0  2  0  0  0  0  0  0
  190.1730  172.6070  139.1290 N   0  0  0  0  0  2  0  0  0  0  0  0
  185.0150  178.2310  141.7190 C   0  0  0  0  0  1  0  0  0  0  0  0
  186.3050  178.0300  146.4170 C   0  0  0  0  0  2  0  0  0  0  0  0
  184.7140  178.9630  144.6830 C   0  0  0  0  0  2  0  0  0  0  0  0
  189.8560  173.4280  140.0730 C   0  0  0  0  0  0  0  0  0  0  0  0
  186.4880  177.1950  143.3820 N   0  0  1  0  0  0  0  0  0  0  0  0
  188.5370  177.7280  144.7210 C   0  0  0  0  0  2  0  0  0  0  0  0
  188.3850  175.1370  147.2790 O   0  0  0  0  0  0  0  0  0  0  0  0
  188.9960  176.8220  145.7700 N   0  0  0  0  0  0  0  0  0  0  0  0
  192.2110  175.2330  147.0190 C   0  0  0  0  0  2  0  0  0  0  0  0
  191.8320  173.0720  144.7930 O   0  0  0  0  0  1  0  0  0  0  0  0
  185.2900  177.7140  145.3260 C   0  0  1  0  0  3  0  0  0  0  0  0
  185.7010  176.7070  144.4060 O   0  0  0  0  0  0  0  0  0  0  0  0
  190.4040  175.0050  144.8060 C   0  0  1  0  0  3  0  0  0  0  0  0
  1  5  1  6  0  0  0
  1  4  1  0  0  0  0
  2 18  1  6  0  0  0
  2 22  1  0  0  0  0
  2 14  1  0  0  0  0
  4 23  1  1  0  0  0
  7 27  1  1  0  0  0
  7 30  1  0  0  0  0
  7 16  1  0  0  0  0
  8  6  1  6  0  0  0
  8 13  1  0  0  0  0
  9 12  1  0  0  0  0
 10 25  1  0  0  0  0
 10 15  1  1  0  0  0
 11  3  1  0  0  0  0
 11 24  2  0  0  0  0
 12  5  2  0  0  0  0
 12  8  1  0  0  0  0
 13  1  1  0  0  0  0
 13 30  1  0  0  0  0
 14 20  1  0  0  0  0
 15 26  1  0  0  0  0
 16 26  1  0  0  0  0
 17 21  2  0  0  0  0
 19  3  1  0  0  0  0
 20 28  1  0  0  0  0
 21  9  1  0  0  0  0
 21  6  1  0  0  0  0
 22  4  1  0  0  0  0
 22 29  1  0  0  0  0
 23 25  1  0  0  0  0
 25 11  1  0  0  0  0
 28 19  1  0  0  0  0
 29 28  1  0  0  0  0
 30 10  1  0  0  0  0
M  END
>  <MODEL>
1

>  <REMARK>
 VINA RESULT:      -9.6      0.000      0.000
  Name = 
  0 active torsions:
  status: ('A' for Active; 'I' for Inactive)
                            x       y       z     vdW  Elec       q    Type
                         _______ _______ _______ _____ _____    ______ ____

>  <TORSDO>
F 0

$$$$
=
 OpenBabel11052417203D

 30 35  0  0  1  0  0  0  0  0999 V2000
  188.8270  176.9190  144.3700 C   0  0  1  0  0  3  0  0  0  0  0  0
  185.8730  177.5520  146.6120 C   0  0  2  0  0  3  0  0  0  0  0  0
  185.9090  178.4520  142.0560 N   0  0  0  0  0  2  0  0  0  0  0  0
  187.4010  176.6530  144.8760 C   0  0  1  0  0  3  0  0  0  0  0  0
  189.6740  177.4140  145.4420 N   0  0  0  0  0  0  0  0  0  0  0  0
  191.7290  174.4120  145.1150 S   0  0  0  0  0  0  0  0  0  0  0  0
  190.2810  174.2980  141.8720 C   0  0  1  0  0  3  0  0  0  0  0  0
  190.9690  175.8550  144.2940 C   0  0  2  0  0  3  0  0  0  0  0  0
  191.7270  176.7910  146.4390 N   0  0  0  0  0  2  0  0  0  0  0  0
  187.8640  175.1290  142.0280 C   0  0  2  0  0  3  0  0  0  0  0  0
  186.9050  177.4660  141.7590 C   0  0  0  0  0  0  0  0  0  0  0  0
  190.8360  176.8760  145.3450 C   0  0  0  0  0  0  0  0  0  0  0  0
  189.5150  175.6290  143.8860 C   0  0  2  0  0  3  0  0  0  0  0  0
  184.4410  177.7040  146.1380 C   0  0  0  0  0  2  0  0  0  0  0  0
  187.6000  174.7640  140.5570 C   0  0  0  0  0  2  0  0  0  0  0  0
  189.6660  173.3700  140.8220 C   0  0  0  0  0  2  0  0  0  0  0  0
  193.5380  175.3540  146.8880 N   0  0  0  0  0  2  0  0  0  0  0  0
  186.1480  178.4290  147.8210 C   0  0  0  0  0  1  0  0  0  0  0  0
  184.9130  178.3170  143.1050 C   0  0  0  0  0  2  0  0  0  0  0  0
  184.2980  179.0410  145.4530 C   0  0  0  0  0  2  0  0  0  0  0  0
  192.3690  175.5270  146.3710 C   0  0  0  0  0  0  0  0  0  0  0  0
  186.8490  177.8350  145.5490 N   0  0  1  0  0  0  0  0  0  0  0  0
  186.4490  176.0630  143.8230 C   0  0  0  0  0  2  0  0  0  0  0  0
  187.7250  177.7090  140.8330 O   0  0  0  0  0  0  0  0  0  0  0  0
  186.9800  176.2090  142.4710 N   0  0  0  0  0  0  0  0  0  0  0  0
  188.8140  174.1660  139.8470 C   0  0  0  0  0  2  0  0  0  0  0  0
  191.4550  174.8600  141.3690 O   0  0  0  0  0  1  0  0  0  0  0  0
  185.3190  179.1260  144.3310 C   0  0  1  0  0  3  0  0  0  0  0  0
  186.6710  178.9430  144.7430 O   0  0  0  0  0  0  0  0  0  0  0  0
  189.3430  175.4220  142.3680 C   0  0  1  0  0  3  0  0  0  0  0  0
  1  4  1  0  0  0  0
  1  5  1  1  0  0  0
  2 18  1  1  0  0  0
  3 19  1  0  0  0  0
  4 23  1  6  0  0  0
  4 22  1  0  0  0  0
  6 21  1  0  0  0  0
  7 27  1  6  0  0  0
  7 30  1  0  0  0  0
  8  6  1  1  0  0  0
  8 12  1  0  0  0  0
 10 15  1  6  0  0  0
 10 30  1  0  0  0  0
 10 25  1  0  0  0  0
 11  3  1  0  0  0  0
 11 25  1  0  0  0  0
 12  5  2  0  0  0  0
 12  9  1  0  0  0  0
 13  8  1  0  0  0  0
 13  1  1  0  0  0  0
 14  2  1  0  0  0  0
 16  7  1  0  0  0  0
 19 28  1  0  0  0  0
 20 14  1  0  0  0  0
 21  9  1  0  0  0  0
 21 17  2  0  0  0  0
 22  2  1  0  0  0  0
 24 11  2  0  0  0  0
 25 23  1  0  0  0  0
 26 15  1  0  0  0  0
 26 16  1  0  0  0  0
 28 29  1  0  0  0  0
 28 20  1  0  0  0  0
 29 22  1  0  0  0  0
 30 13  1  0  0  0  0
M  END
>  <MODEL>
2

>  <REMARK>
 VINA RESULT:      -8.5      2.191      4.799
  Name = 
  0 active torsions:
  status: ('A' for Active; 'I' for Inactive)
                            x       y       z     vdW  Elec       q    Type
                         _______ _______ _______ _____ _____    ______ ____

>  <TORSDO>
F 0

$$$$
=
 OpenBabel11052417203D

 30 35  0  0  1  0  0  0  0  0999 V2000
  190.3620  174.8580  143.6550 C   0  0  1  0  0  3  0  0  0  0  0  0
  187.3120  177.0570  143.7720 C   0  0  2  0  0  3  0  0  0  0  0  0
  190.2730  176.5410  147.3130 N   0  0  0  0  0  2  0  0  0  0  0  0
  189.6450  176.2160  143.7190 C   0  0  1  0  0  3  0  0  0  0  0  0
  189.5590  173.8810  142.9390 N   0  0  0  0  0  0  0  0  0  0  0  0
  192.1790  173.6910  140.3990 S   0  0  0  0  0  0  0  0  0  0  0  0
  194.2090  174.9750  143.0180 C   0  0  1  0  0  3  0  0  0  0  0  0
  191.7380  173.5850  142.1680 C   0  0  2  0  0  3  0  0  0  0  0  0
  189.8460  172.4570  141.0710 N   0  0  0  0  0  2  0  0  0  0  0  0
  192.8100  176.6050  144.4110 C   0  0  2  0  0  3  0  0  0  0  0  0
  191.3850  176.2040  146.4750 C   0  0  0  0  0  0  0  0  0  0  0  0
  190.3260  173.1700  142.1930 C   0  0  0  0  0  0  0  0  0  0  0  0
  191.6810  174.9420  142.8650 C   0  0  2  0  0  3  0  0  0  0  0  0
  187.1020  178.1970  144.7480 C   0  0  0  0  0  2  0  0  0  0  0  0
  194.0390  177.0150  145.2410 C   0  0  0  0  0  2  0  0  0  0  0  0
  195.3150  175.9790  143.3480 C   0  0  0  0  0  2  0  0  0  0  0  0
  190.9210  171.6620  139.1320 N   0  0  0  0  0  2  0  0  0  0  0  0
  185.9990  176.3700  143.4400 C   0  0  0  0  0  1  0  0  0  0  0  0
  189.2160  177.4650  146.9360 C   0  0  0  0  0  2  0  0  0  0  0  0
  186.8260  177.6210  146.1150 C   0  0  0  0  0  2  0  0  0  0  0  0
  190.8200  172.5680  140.0450 C   0  0  0  0  0  0  0  0  0  0  0  0
  188.2890  176.0730  144.2620 N   0  0  1  0  0  0  0  0  0  0  0  0
  190.4500  177.3320  144.4040 C   0  0  0  0  0  2  0  0  0  0  0  0
  192.2270  175.3740  146.9110 O   0  0  0  0  0  0  0  0  0  0  0  0
  191.5730  176.7970  145.1690 N   0  0  0  0  0  0  0  0  0  0  0  0
  195.3210  176.2880  144.8360 C   0  0  0  0  0  2  0  0  0  0  0  0
  194.6740  173.6780  143.2420 O   0  0  0  0  0  1  0  0  0  0  0  0
  187.9730  176.7010  146.4970 C   0  0  1  0  0  3  0  0  0  0  0  0
  188.2200  175.6450  145.5730 O   0  0  0  0  0  0  0  0  0  0  0  0
  192.8880  175.1910  143.7910 C   0  0  1  0  0  3  0  0  0  0  0  0
  1  5  1  6  0  0  0
  1  4  1  0  0  0  0
  2 18  1  1  0  0  0
  2 22  1  0  0  0  0
  2 14  1  0  0  0  0
  4 22  1  0  0  0  0
  4 23  1  1  0  0  0
  7 27  1  1  0  0  0
  7 16  1  0  0  0  0
  7 30  1  0  0  0  0
  8  6  1  6  0  0  0
  8 12  1  0  0  0  0
  8 13  1  0  0  0  0
  9 12  1  0  0  0  0
 10 25  1  0  0  0  0
 10 15  1  1  0  0  0
 11 24  2  0  0  0  0
 11  3  1  0  0  0  0
 12  5  2  0  0  0  0
 13  1  1  0  0  0  0
 13 30  1  0  0  0  0
 14 20  1  0  0  0  0
 16 26  1  0  0  0  0
 17 21  2  0  0  0  0
 19  3  1  0  0  0  0
 20 28  1  0  0  0  0
 21  6  1  0  0  0  0
 21  9  1  0  0  0  0
 22 29  1  0  0  0  0
 23 25  1  0  0  0  0
 25 11  1  0  0  0  0
 26 15  1  0  0  0  0
 28 19  1  0  0  0  0
 29 28  1  0  0  0  0
 30 10  1  0  0  0  0
M  END
>  <MODEL>
3

>  <REMARK>
 VINA RESULT:      -8.1      1.964      2.671
  Name = 
  0 active torsions:
  status: ('A' for Active; 'I' for Inactive)
                            x       y       z     vdW  Elec       q    Type
                         _______ _______ _______ _____ _____    ______ ____

>  <TORSDO>
F 0

$$$$
=
 OpenBabel11052417203D

 30 35  0  0  1  0  0  0  0  0999 V2000
  188.7910  176.8680  144.0270 C   0  0  1  0  0  3  0  0  0  0  0  0
  191.0660  173.8840  143.7780 C   0  0  2  0  0  3  0  0  0  0  0  0
  191.0360  176.8260  147.3710 N   0  0  0  0  0  2  0  0  0  0  0  0
  189.2880  175.4770  144.4490 C   0  0  1  0  0  3  0  0  0  0  0  0
  189.0330  177.0990  142.6130 N   0  0  0  0  0  0  0  0  0  0  0  0
  185.4230  177.3060  142.0970 S   0  0  0  0  0  0  0  0  0  0  0  0
  185.4020  178.0260  145.5770 C   0  0  1  0  0  3  0  0  0  0  0  0
  186.8830  177.9010  143.0170 C   0  0  2  0  0  3  0  0  0  0  0  0
  187.7410  177.6870  140.7210 N   0  0  0  0  0  2  0  0  0  0  0  0
  187.2430  176.6500  146.7060 C   0  0  2  0  0  3  0  0  0  0  0  0
  189.6730  177.2210  147.1750 C   0  0  0  0  0  0  0  0  0  0  0  0
  188.0230  177.7080  142.1060 C   0  0  0  0  0  0  0  0  0  0  0  0
  187.2660  177.0100  144.1960 C   0  0  2  0  0  3  0  0  0  0  0  0
  191.7600  173.2210  144.9520 C   0  0  0  0  0  2  0  0  0  0  0  0
  186.7830  177.1040  148.1020 C   0  0  0  0  0  2  0  0  0  0  0  0
  184.6810  177.7420  146.8960 C   0  0  0  0  0  2  0  0  0  0  0  0
  185.7480  178.0290  139.5130 N   0  0  0  0  0  2  0  0  0  0  0  0
  191.9240  173.8200  142.5260 C   0  0  0  0  0  1  0  0  0  0  0  0
  191.5510  175.4970  147.0890 C   0  0  0  0  0  2  0  0  0  0  0  0
  192.8740  174.1200  145.4270 C   0  0  0  0  0  2  0  0  0  0  0  0
  186.3340  177.5810  140.5720 C   0  0  0  0  0  0  0  0  0  0  0  0
  190.6900  175.2760  144.0630 N   0  0  1  0  0  0  0  0  0  0  0  0
  189.0130  175.1190  145.9190 C   0  0  0  0  0  2  0  0  0  0  0  0
  189.3550  178.4120  147.4410 O   0  0  0  0  0  0  0  0  0  0  0  0
  188.6640  176.2970  146.7060 N   0  0  0  0  0  0  0  0  0  0  0  0
  185.5880  178.0560  148.0730 C   0  0  0  0  0  2  0  0  0  0  0  0
  185.2780  179.3790  145.2580 O   0  0  0  0  0  1  0  0  0  0  0  0
  192.2930  175.4830  145.7590 C   0  0  1  0  0  3  0  0  0  0  0  0
  191.5980  176.1100  144.6840 O   0  0  0  0  0  0  0  0  0  0  0  0
  186.8960  177.6270  145.5590 C   0  0  1  0  0  3  0  0  0  0  0  0
  1  5  1  6  0  0  0
  1 13  1  0  0  0  0
  1  4  1  0  0  0  0
  2 18  1  6  0  0  0
  2 22  1  0  0  0  0
  2 14  1  0  0  0  0
  4 23  1  1  0  0  0
  7 27  1  1  0  0  0
  7 16  1  0  0  0  0
  8  6  1  6  0  0  0
  8 13  1  0  0  0  0
  9 12  1  0  0  0  0
 10 15  1  1  0  0  0
 11  3  1  0  0  0  0
 11 24  2  0  0  0  0
 12  5  2  0  0  0  0
 12  8  1  0  0  0  0
 13 30  1  0  0  0  0
 14 20  1  0  0  0  0
 16 26  1  0  0  0  0
 17 21  2  0  0  0  0
 19  3  1  0  0  0  0
 20 28  1  0  0  0  0
 21  9  1  0  0  0  0
 21  6  1  0  0  0  0
 22  4  1  0  0  0  0
 22 29  1  0  0  0  0
 23 25  1  0  0  0  0
 25 10  1  0  0  0  0
 25 11  1  0  0  0  0
 26 15  1  0  0  0  0
 28 19  1  0  0  0  0
 29 28  1  0  0  0  0
 30  7  1  0  0  0  0
 30 10  1  0  0  0  0
M  END
>  <MODEL>
4

>  <REMARK>
 VINA RESULT:      -8.0      2.523      5.753
  Name = 
  0 active torsions:
  status: ('A' for Active; 'I' for Inactive)
                            x       y       z     vdW  Elec       q    Type
                         _______ _______ _______ _____ _____    ______ ____

>  <TORSDO>
F 0

$$$$
=
 OpenBabel11052417203D

 30 35  0  0  1  0  0  0  0  0999 V2000
  187.7890  176.7170  142.5750 C   0  0  1  0  0  3  0  0  0  0  0  0
  188.9920  173.3640  141.3670 C   0  0  2  0  0  3  0  0  0  0  0  0
  191.3430  176.0430  144.3440 N   0  0  0  0  0  2  0  0  0  0  0  0
  188.1420  175.2330  142.7590 C   0  0  1  0  0  3  0  0  0  0  0  0
  187.3330  176.9770  141.2200 N   0  0  0  0  0  0  0  0  0  0  0  0
  184.0700  177.9160  142.5700 S   0  0  0  0  0  0  0  0  0  0  0  0
  185.9330  178.4230  145.5530 C   0  0  1  0  0  3  0  0  0  0  0  0
  185.8800  178.1590  142.6050 C   0  0  2  0  0  3  0  0  0  0  0  0
  185.4140  177.9160  140.2020 N   0  0  0  0  0  2  0  0  0  0  0  0
  187.7770  176.6510  145.6750 C   0  0  2  0  0  3  0  0  0  0  0  0
  190.1740  176.7080  144.8370 C   0  0  0  0  0  0  0  0  0  0  0  0
  186.3470  177.8010  141.2570 C   0  0  0  0  0  0  0  0  0  0  0  0
  186.6150  177.1440  143.4760 C   0  0  2  0  0  3  0  0  0  0  0  0
  190.0320  172.5120  142.0670 C   0  0  0  0  0  2  0  0  0  0  0  0
  188.1760  177.1040  147.0900 C   0  0  0  0  0  2  0  0  0  0  0  0
  185.9270  178.2100  147.0680 C   0  0  0  0  0  2  0  0  0  0  0  0
  183.1980  178.7100  140.1380 N   0  0  0  0  0  2  0  0  0  0  0  0
  189.0780  173.2060  139.8580 C   0  0  0  0  0  1  0  0  0  0  0  0
  191.3740  174.6570  143.9080 C   0  0  0  0  0  2  0  0  0  0  0  0
  191.3870  173.1460  141.8760 C   0  0  0  0  0  2  0  0  0  0  0  0
  184.1320  178.0950  140.7820 C   0  0  0  0  0  0  0  0  0  0  0  0
  189.0930  174.7840  141.7330 N   0  0  1  0  0  0  0  0  0  0  0  0
  188.5740  174.8510  144.1840 C   0  0  0  0  0  2  0  0  0  0  0  0
  190.2750  177.9200  145.1680 O   0  0  0  0  0  0  0  0  0  0  0  0
  188.9060  176.0270  144.9820 N   0  0  0  0  0  0  0  0  0  0  0  0
  187.3430  178.2720  147.6160 C   0  0  0  0  0  2  0  0  0  0  0  0
  185.9370  179.7910  145.2730 O   0  0  0  0  0  1  0  0  0  0  0  0
  191.3320  174.5750  142.3870 C   0  0  1  0  0  3  0  0  0  0  0  0
  190.3340  175.3880  141.7760 O   0  0  0  0  0  0  0  0  0  0  0  0
  187.1050  177.7410  144.8100 C   0  0  1  0  0  3  0  0  0  0  0  0
  1  5  1  6  0  0  0
  1  4  1  0  0  0  0
  1 13  1  0  0  0  0
  2 18  1  6  0  0  0
  2 22  1  0  0  0  0
  2 14  1  0  0  0  0
  3 11  1  0  0  0  0
  4 23  1  1  0  0  0
  5 12  2  0  0  0  0
  6  8  1  0  0  0  0
  7 27  1  1  0  0  0
  7 16  1  0  0  0  0
  8 12  1  6  0  0  0
  8 13  1  0  0  0  0
  9 21  1  0  0  0  0
  9 12  1  0  0  0  0
 10 15  1  1  0  0  0
 11 25  1  0  0  0  0
 11 24  2  0  0  0  0
 13 30  1  0  0  0  0
 15 26  1  0  0  0  0
 16 26  1  0  0  0  0
 17 21  2  0  0  0  0
 19  3  1  0  0  0  0
 20 14  1  0  0  0  0
 20 28  1  0  0  0  0
 21  6  1  0  0  0  0
 22 29  1  0  0  0  0
 22  4  1  0  0  0  0
 23 25  1  0  0  0  0
 25 10  1  0  0  0  0
 28 19  1  0  0  0  0
 29 28  1  0  0  0  0
 30  7  1  0  0  0  0
 30 10  1  0  0  0  0
M  END
>  <MODEL>
5

>  <REMARK>
 VINA RESULT:      -7.9      2.515      5.828
  Name = 
  0 active torsions:
  status: ('A' for Active; 'I' for Inactive)
                            x       y       z     vdW  Elec       q    Type
                         _______ _______ _______ _____ _____    ______ ____

>  <TORSDO>
F 0

$$$$
=
 OpenBabel11052417203D

 30 35  0  0  1  0  0  0  0  0999 V2000
  188.2540  176.3870  144.5150 C   0  0  1  0  0  3  0  0  0  0  0  0
  191.9450  176.4760  145.2320 C   0  0  2  0  0  3  0  0  0  0  0  0
  190.0500  174.1620  141.6800 N   0  0  0  0  0  2  0  0  0  0  0  0
  189.7060  176.7860  144.2110 C   0  0  1  0  0  3  0  0  0  0  0  0
  188.0360  176.2710  145.9470 N   0  0  0  0  0  0  0  0  0  0  0  0
  185.6520  179.0320  145.7410 S   0  0  0  0  0  0  0  0  0  0  0  0
  185.5100  178.0830  142.3200 C   0  0  1  0  0  3  0  0  0  0  0  0
  186.1690  177.3930  145.1220 C   0  0  2  0  0  3  0  0  0  0  0  0
  186.5590  177.2030  147.5440 N   0  0  0  0  0  2  0  0  0  0  0  0
  187.8420  177.3200  141.5870 C   0  0  2  0  0  3  0  0  0  0  0  0
  188.8980  175.0110  141.6000 C   0  0  0  0  0  0  0  0  0  0  0  0
  186.8860  176.7620  146.2410 C   0  0  0  0  0  0  0  0  0  0  0  0
  187.2530  177.4610  144.0490 C   0  0  2  0  0  3  0  0  0  0  0  0
  193.0320  176.1630  144.2240 C   0  0  0  0  0  2  0  0  0  0  0  0
  187.3840  177.1910  140.1240 C   0  0  0  0  0  2  0  0  0  0  0  0
  185.4710  178.6180  140.8880 C   0  0  0  0  0  2  0  0  0  0  0  0
  184.9470  178.7280  148.3330 N   0  0  0  0  0  2  0  0  0  0  0  0
  192.3490  176.0360  146.6290 C   0  0  0  0  0  1  0  0  0  0  0  0
  191.3750  174.6150  142.0680 C   0  0  0  0  0  2  0  0  0  0  0  0
  193.0450  174.6770  143.9690 C   0  0  0  0  0  2  0  0  0  0  0  0
  185.7850  178.3850  147.4140 C   0  0  0  0  0  0  0  0  0  0  0  0
  190.6530  175.8760  144.8670 N   0  0  1  0  0  0  0  0  0  0  0  0
  190.0120  176.9960  142.7200 C   0  0  0  0  0  2  0  0  0  0  0  0
  187.7990  174.4920  141.2670 O   0  0  0  0  0  0  0  0  0  0  0  0
  188.9690  176.4300  141.8690 N   0  0  0  0  0  0  0  0  0  0  0  0
  185.9120  177.5430  139.9090 C   0  0  0  0  0  2  0  0  0  0  0  0
  184.3230  177.4030  142.5970 O   0  0  0  0  0  1  0  0  0  0  0  0
  191.6600  174.2470  143.5180 C   0  0  1  0  0  3  0  0  0  0  0  0
  190.6120  174.5670  144.4300 O   0  0  0  0  0  0  0  0  0  0  0  0
  186.7150  177.1680  142.6340 C   0  0  1  0  0  3  0  0  0  0  0  0
  1  5  1  1  0  0  0
  2 18  1  1  0  0  0
  3 19  1  0  0  0  0
  4 23  1  6  0  0  0
  4  1  1  0  0  0  0
  4 22  1  0  0  0  0
  5 12  2  0  0  0  0
  6 21  1  0  0  0  0
  7 27  1  6  0  0  0
  7 30  1  0  0  0  0
  8  6  1  1  0  0  0
  8 12  1  0  0  0  0
 10 15  1  6  0  0  0
 10 25  1  0  0  0  0
 10 30  1  0  0  0  0
 11  3  1  0  0  0  0
 11 25  1  0  0  0  0
 12  9  1  0  0  0  0
 13  1  1  0  0  0  0
 13  8  1  0  0  0  0
 14  2  1  0  0  0  0
 16  7  1  0  0  0  0
 19 28  1  0  0  0  0
 20 14  1  0  0  0  0
 21  9  1  0  0  0  0
 21 17  2  0  0  0  0
 22  2  1  0  0  0  0
 24 11  2  0  0  0  0
 25 23  1  0  0  0  0
 26 15  1  0  0  0  0
 26 16  1  0  0  0  0
 28 20  1  0  0  0  0
 28 29  1  0  0  0  0
 29 22  1  0  0  0  0
 30 13  1  0  0  0  0
M  END
>  <MODEL>
6

>  <REMARK>
 VINA RESULT:      -7.8      2.421      7.042
  Name = 
  0 active torsions:
  status: ('A' for Active; 'I' for Inactive)
                            x       y       z     vdW  Elec       q    Type
                         _______ _______ _______ _____ _____    ______ ____

>  <TORSDO>
F 0

$$$$
=
 OpenBabel11052417203D

 30 35  0  0  1  0  0  0  0  0999 V2000
  190.3750  175.2700  142.7780 C   0  0  1  0  0  3  0  0  0  0  0  0
  187.6560  177.7260  141.9300 C   0  0  2  0  0  3  0  0  0  0  0  0
  188.4750  176.1460  146.2190 N   0  0  0  0  0  2  0  0  0  0  0  0
  189.7130  176.6560  142.8100 C   0  0  1  0  0  3  0  0  0  0  0  0
  190.0390  174.5620  141.5540 N   0  0  0  0  0  0  0  0  0  0  0  0
  193.5730  174.6130  140.6330 S   0  0  0  0  0  0  0  0  0  0  0  0
  194.0320  175.0800  144.1260 C   0  0  1  0  0  3  0  0  0  0  0  0
  192.3150  174.1890  141.8850 C   0  0  2  0  0  3  0  0  0  0  0  0
  191.2220  173.5390  139.7790 N   0  0  0  0  0  2  0  0  0  0  0  0
  192.1170  176.5290  145.0130 C   0  0  2  0  0  3  0  0  0  0  0  0
  189.8580  175.8680  145.9690 C   0  0  0  0  0  0  0  0  0  0  0  0
  191.0780  173.9400  141.1260 C   0  0  0  0  0  0  0  0  0  0  0  0
  191.9120  175.3660  142.7690 C   0  0  2  0  0  3  0  0  0  0  0  0
  186.9830  178.6520  142.9230 C   0  0  0  0  0  2  0  0  0  0  0  0
  192.7710  176.6140  146.4030 C   0  0  0  0  0  2  0  0  0  0  0  0
  194.8230  175.8610  145.1770 C   0  0  0  0  0  2  0  0  0  0  0  0
  193.1210  173.0520  138.4740 N   0  0  0  0  0  2  0  0  0  0  0  0
  186.6840  177.2770  140.8520 C   0  0  0  0  0  1  0  0  0  0  0  0
  187.7390  177.2420  145.6120 C   0  0  0  0  0  2  0  0  0  0  0  0
  186.0690  177.8370  143.8040 C   0  0  0  0  0  2  0  0  0  0  0  0
  192.5760  173.7510  139.4110 C   0  0  0  0  0  0  0  0  0  0  0  0
  188.2670  176.5570  142.5790 N   0  0  1  0  0  0  0  0  0  0  0  0
  190.0670  177.5040  144.0420 C   0  0  0  0  0  2  0  0  0  0  0  0
  190.3780  174.8750  146.5460 O   0  0  0  0  0  0  0  0  0  0  0  0
  190.6650  176.6970  145.1010 N   0  0  0  0  0  0  0  0  0  0  0  0
  194.0890  175.8480  146.5080 C   0  0  0  0  0  2  0  0  0  0  0  0
  194.3320  173.7210  144.2290 O   0  0  0  0  0  1  0  0  0  0  0  0
  186.8820  176.7340  144.4600 C   0  0  1  0  0  3  0  0  0  0  0  0
  187.5600  175.8740  143.5490 O   0  0  0  0  0  0  0  0  0  0  0  0
  192.5000  175.2770  144.1910 C   0  0  1  0  0  3  0  0  0  0  0  0
  1  5  1  6  0  0  0
  1  4  1  0  0  0  0
  2 18  1  6  0  0  0
  2 22  1  0  0  0  0
  2 14  1  0  0  0  0
  4 23  1  1  0  0  0
  7 30  1  0  0  0  0
  7 27  1  1  0  0  0
  7 16  1  0  0  0  0
  8  6  1  6  0  0  0
  8 13  1  0  0  0  0
  9 12  1  0  0  0  0
 10 25  1  0  0  0  0
 10 15  1  1  0  0  0
 11  3  1  0  0  0  0
 11 24  2  0  0  0  0
 12  5  2  0  0  0  0
 12  8  1  0  0  0  0
 13  1  1  0  0  0  0
 13 30  1  0  0  0  0
 14 20  1  0  0  0  0
 15 26  1  0  0  0  0
 16 26  1  0  0  0  0
 17 21  2  0  0  0  0
 19  3  1  0  0  0  0
 20 28  1  0  0  0  0
 21  9  1  0  0  0  0
 21  6  1  0  0  0  0
 22  4  1  0  0  0  0
 22 29  1  0  0  0  0
 23 25  1  0  0  0  0
 25 11  1  0  0  0  0
 28 19  1  0  0  0  0
 29 28  1  0  0  0  0
 30 10  1  0  0  0  0
M  END
>  <MODEL>
7

>  <REMARK>
 VINA RESULT:      -7.8      1.894      2.224
  Name = 
  0 active torsions:
  status: ('A' for Active; 'I' for Inactive)
                            x       y       z     vdW  Elec       q    Type
                         _______ _______ _______ _____ _____    ______ ____

>  <TORSDO>
F 0

$$$$
=
 OpenBabel11052417203D

 30 35  0  0  1  0  0  0  0  0999 V2000
  188.8140  175.4420  142.1050 C   0  0  1  0  0  3  0  0  0  0  0  0
  188.9180  172.6220  139.6190 C   0  0  2  0  0  3  0  0  0  0  0  0
  192.4840  173.8010  142.3500 N   0  0  0  0  0  2  0  0  0  0  0  0
  188.8820  173.9600  141.7080 C   0  0  1  0  0  3  0  0  0  0  0  0
  188.0830  176.2130  141.1140 N   0  0  0  0  0  0  0  0  0  0  0  0
  185.5680  176.9670  143.6550 S   0  0  0  0  0  0  0  0  0  0  0  0
  188.2170  176.1800  145.8900 C   0  0  1  0  0  3  0  0  0  0  0  0
  187.3320  176.9820  143.1810 C   0  0  2  0  0  3  0  0  0  0  0  0
  186.2070  177.6550  141.1000 N   0  0  0  0  0  2  0  0  0  0  0  0
  189.6090  174.2880  144.8710 C   0  0  2  0  0  3  0  0  0  0  0  0
  191.6550  174.3730  143.3690 C   0  0  0  0  0  0  0  0  0  0  0  0
  187.3390  177.0730  141.7130 C   0  0  0  0  0  0  0  0  0  0  0  0
  188.0390  175.6500  143.4200 C   0  0  2  0  0  3  0  0  0  0  0  0
  189.9000  171.4680  139.6560 C   0  0  0  0  0  2  0  0  0  0  0  0
  190.4540  174.1660  146.1510 C   0  0  0  0  0  2  0  0  0  0  0  0
  188.5660  175.4490  147.1870 C   0  0  0  0  0  2  0  0  0  0  0  0
  184.2730  178.6590  141.9930 N   0  0  0  0  0  2  0  0  0  0  0  0
  188.5660  172.9980  138.1900 C   0  0  0  0  0  1  0  0  0  0  0  0
  192.1040  172.6640  141.5290 C   0  0  0  0  0  2  0  0  0  0  0  0
  191.2600  171.9760  139.2430 C   0  0  0  0  0  2  0  0  0  0  0  0
  185.1920  177.7580  142.0850 C   0  0  0  0  0  0  0  0  0  0  0  0
  189.4100  173.8010  140.3470 N   0  0  1  0  0  0  0  0  0  0  0  0
  189.5830  173.0550  142.7330 C   0  0  0  0  0  2  0  0  0  0  0  0
  192.0940  175.3710  144.0010 O   0  0  0  0  0  0  0  0  0  0  0  0
  190.3560  173.8290  143.6990 N   0  0  0  0  0  0  0  0  0  0  0  0
  190.0570  175.1570  147.2450 C   0  0  0  0  0  2  0  0  0  0  0  0
  188.4360  177.5490  146.0520 O   0  0  0  0  0  1  0  0  0  0  0  0
  191.6460  173.1290  140.1530 C   0  0  1  0  0  3  0  0  0  0  0  0
  190.7170  174.2100  140.1700 O   0  0  0  0  0  0  0  0  0  0  0  0
  188.9790  175.6800  144.6410 C   0  0  1  0  0  3  0  0  0  0  0  0
  1  5  1  6  0  0  0
  1 13  1  0  0  0  0
  2 18  1  6  0  0  0
  2 14  1  0  0  0  0
  2 22  1  0  0  0  0
  3 11  1  0  0  0  0
  4  1  1  0  0  0  0
  4 23  1  1  0  0  0
  5 12  2  0  0  0  0
  7 27  1  1  0  0  0
  7 16  1  0  0  0  0
  8 12  1  6  0  0  0
  8 13  1  0  0  0  0
  8  6  1  0  0  0  0
  9 12  1  0  0  0  0
  9 21  1  0  0  0  0
 10 15  1  1  0  0  0
 11 25  1  0  0  0  0
 11 24  2  0  0  0  0
 13 30  1  0  0  0  0
 15 26  1  0  0  0  0
 16 26  1  0  0  0  0
 17 21  2  0  0  0  0
 19  3  1  0  0  0  0
 20 14  1  0  0  0  0
 20 28  1  0  0  0  0
 21  6  1  0  0  0  0
 22  4  1  0  0  0  0
 23 25  1  0  0  0  0
 25 10  1  0  0  0  0
 28 29  1  0  0  0  0
 28 19  1  0  0  0  0
 29 22  1  0  0  0  0
 30 10  1  0  0  0  0
 30  7  1  0  0  0  0
M  END
>  <MODEL>
8

>  <REMARK>
 VINA RESULT:      -7.5      2.542      5.958
  Name = 
  0 active torsions:
  status: ('A' for Active; 'I' for Inactive)
                            x       y       z     vdW  Elec       q    Type
                         _______ _______ _______ _____ _____    ______ ____

>  <TORSDO>
F 0

$$$$
=
 OpenBabel11052417203D

 30 35  0  0  1  0  0  0  0  0999 V2000
  190.6310  175.8850  143.0680 C   0  0  1  0  0  3  0  0  0  0  0  0
  189.0360  176.5060  146.4180 C   0  0  2  0  0  3  0  0  0  0  0  0
  186.7450  176.6920  142.3820 N   0  0  0  0  0  2  0  0  0  0  0  0
  189.6890  175.5350  144.2300 C   0  0  1  0  0  3  0  0  0  0  0  0
  191.7820  176.6340  143.5420 N   0  0  0  0  0  0  0  0  0  0  0  0
  193.9310  173.8780  142.4770 S   0  0  0  0  0  0  0  0  0  0  0  0
  191.1630  173.0980  140.3890 C   0  0  1  0  0  3  0  0  0  0  0  0
  192.6300  175.0790  142.0290 C   0  0  2  0  0  3  0  0  0  0  0  0
  194.1360  176.4160  143.4420 N   0  0  0  0  0  2  0  0  0  0  0  0
  189.0060  173.6560  141.6510 C   0  0  2  0  0  3  0  0  0  0  0  0
  187.6390  175.7950  141.7100 C   0  0  0  0  0  0  0  0  0  0  0  0
  192.8340  176.2270  142.9270 C   0  0  0  0  0  0  0  0  0  0  0  0
  191.2230  174.6250  142.4100 C   0  0  2  0  0  3  0  0  0  0  0  0
  187.5500  176.4160  146.7010 C   0  0  0  0  0  2  0  0  0  0  0  0
  188.1450  173.0410  140.5340 C   0  0  0  0  0  2  0  0  0  0  0  0
  190.2990  171.9550  139.8540 C   0  0  0  0  0  2  0  0  0  0  0  0
  196.1650  175.2860  143.0500 N   0  0  0  0  0  2  0  0  0  0  0  0
  189.6910  177.5850  147.2630 C   0  0  0  0  0  1  0  0  0  0  0  0
  186.4090  176.6060  143.7930 C   0  0  0  0  0  2  0  0  0  0  0  0
  186.8640  177.6050  146.0750 C   0  0  0  0  0  2  0  0  0  0  0  0
  194.8810  175.2410  143.1650 C   0  0  0  0  0  0  0  0  0  0  0  0
  189.3220  176.7340  144.9940 N   0  0  1  0  0  0  0  0  0  0  0  0
  188.4720  174.6840  143.8320 C   0  0  0  0  0  2  0  0  0  0  0  0
  187.8630  175.9880  140.4850 O   0  0  0  0  0  0  0  0  0  0  0  0
  188.2640  174.6800  142.3870 N   0  0  0  0  0  0  0  0  0  0  0  0
  188.9610  172.4860  139.3670 C   0  0  0  0  0  2  0  0  0  0  0  0
  191.8380  173.7090  139.3310 O   0  0  0  0  0  1  0  0  0  0  0  0
  187.1970  177.6350  144.5930 C   0  0  1  0  0  3  0  0  0  0  0  0
  188.5910  177.6760  144.2980 O   0  0  0  0  0  0  0  0  0  0  0  0
  190.3910  174.1680  141.1950 C   0  0  1  0  0  3  0  0  0  0  0  0
  1  5  1  1  0  0  0
  1  4  1  0  0  0  0
  2 14  1  0  0  0  0
  2 18  1  1  0  0  0
  3 19  1  0  0  0  0
  4 23  1  6  0  0  0
  4 22  1  0  0  0  0
  6 21  1  0  0  0  0
  7 27  1  6  0  0  0
  7 30  1  0  0  0  0
  8 13  1  0  0  0  0
  8  6  1  1  0  0  0
  8 12  1  0  0  0  0
 10 15  1  6  0  0  0
 10 25  1  0  0  0  0
 11  3  1  0  0  0  0
 11 25  1  0  0  0  0
 12  9  1  0  0  0  0
 12  5  2  0  0  0  0
 13  1  1  0  0  0  0
 16  7  1  0  0  0  0
 17 21  2  0  0  0  0
 19 28  1  0  0  0  0
 20 14  1  0  0  0  0
 21  9  1  0  0  0  0
 22  2  1  0  0  0  0
 24 11  2  0  0  0  0
 25 23  1  0  0  0  0
 26 16  1  0  0  0  0
 26 15  1  0  0  0  0
 28 20  1  0  0  0  0
 29 28  1  0  0  0  0
 29 22  1  0  0  0  0
 30 10  1  0  0  0  0
 30 13  1  0  0  0  0
M  END
>  <MODEL>
9

>  <REMARK>
 VINA RESULT:      -7.5      2.779      5.047
  Name = 
  0 active torsions:
  status: ('A' for Active; 'I' for Inactive)
                            x       y       z     vdW  Elec       q    Type
                         _______ _______ _______ _____ _____    ______ ____

>  <TORSDO>
F 0

$$$$
