=
 OpenBabel11052417253D

 25 29  0  0  1  0  0  0  0  0999 V2000
  185.7410  177.2870  143.9510 C   0  0  0  0  0  0  0  0  0  0  0  0
  186.4790  176.7420  142.8940 C   0  0  0  0  0  0  0  0  0  0  0  0
  184.3900  178.6110  142.4480 C   0  0  0  0  0  3  0  0  0  0  0  0
  185.7730  176.9830  145.4050 C   0  0  2  0  0  3  0  0  0  0  0  0
  185.8290  178.2860  147.9740 C   0  0  0  0  0  3  0  0  0  0  0  0
  185.1260  178.0970  141.3690 C   0  0  0  0  0  3  0  0  0  0  0  0
  184.7090  177.9390  145.8810 C   0  0  0  0  0  0  0  0  0  0  0  0
  184.6820  178.3590  147.2850 C   0  0  0  0  0  3  0  0  0  0  0  0
  186.9570  176.6140  140.4670 C   0  0  0  0  0  0  0  0  0  0  0  0
  186.6480  177.0190  138.9100 S   0  0  0  0  0  0  0  0  0  0  0  0
  187.5300  175.6980  143.1550 C   0  0  0  0  0  2  0  0  0  0  0  0
  187.0880  177.8460  147.3150 C   0  0  0  0  0  3  0  0  0  0  0  0
  184.7150  178.1730  143.7280 C   0  0  0  0  0  0  0  0  0  0  0  0
  184.1120  178.6000  144.9390 N   0  0  0  0  0  0  0  0  0  0  0  0
  188.0590  175.7470  140.7500 N   0  0  0  0  0  0  0  0  0  0  0  0
  187.0790  177.2950  146.0900 C   0  0  0  0  0  3  0  0  0  0  0  0
  188.3630  175.3460  141.9500 C   0  0  0  0  0  0  0  0  0  0  0  0
  186.1660  177.1630  141.5830 C   0  0  0  0  0  0  0  0  0  0  0  0
  189.5260  174.4350  142.1430 C   0  0  0  0  0  2  0  0  0  0  0  0
  189.5990  173.9710  143.5850 C   0  0  2  0  0  3  0  0  0  0  0  0
  190.8010  174.6150  144.2500 C   0  0  2  0  0  3  0  0  0  0  0  0
  190.8660  173.1690  143.7920 C   0  0  0  0  0  2  0  0  0  0  0  0
  190.5870  174.6740  145.7270 C   0  0  0  0  0  0  0  0  0  0  0  0
  189.3130  174.5100  146.2560 O   0  0  0  0  0  0  0  0  0  0  0  0
  191.5540  174.9160  146.4950 O   0  0  0  0  0  1  0  0  0  0  0  0
  1  4  1  0  0  0  0
  2 11  1  0  0  0  0
  2  1  2  0  0  0  0
  3 13  2  0  0  0  0
  4  7  1  0  0  0  0
  4 16  1  1  0  0  0
  6 18  2  0  0  0  0
  6  3  1  0  0  0  0
  7  8  1  0  0  0  0
  8  5  2  0  0  0  0
  9 15  1  0  0  0  0
  9 18  1  0  0  0  0
 10  9  2  0  0  0  0
 12  5  1  0  0  0  0
 13  1  1  0  0  0  0
 13 14  1  0  0  0  0
 14  7  2  0  0  0  0
 15 17  2  0  0  0  0
 16 12  2  0  0  0  0
 17 19  1  0  0  0  0
 17 11  1  0  0  0  0
 18  2  1  0  0  0  0
 20 19  1  6  0  0  0
 20 22  1  0  0  0  0
 20 21  1  0  0  0  0
 21 23  1  1  0  0  0
 22 21  1  0  0  0  0
 23 24  2  0  0  0  0
 23 25  1  0  0  0  0
M  END
>  <MODEL>
1

>  <REMARK>
 VINA RESULT:      -7.4      0.000      0.000
  Name = 
  3 active torsions:
  status: ('A' for Active; 'I' for Inactive)
    1  A    between atoms: C_2  and  C_21
    2  A    between atoms: C_6  and  C_15
    3  A    between atoms: C_6  and  C_23
                            x       y       z     vdW  Elec       q    Type
                         _______ _______ _______ _____ _____    ______ ____

>  <TORSDO>
F 3

$$$$
=
 OpenBabel11052417253D

 25 29  0  0  1  0  0  0  0  0999 V2000
  186.4990  177.9240  142.9500 C   0  0  0  0  0  0  0  0  0  0  0  0
  186.9100  177.8920  144.2870 C   0  0  0  0  0  0  0  0  0  0  0  0
  184.2870  178.6860  143.5510 C   0  0  0  0  0  3  0  0  0  0  0  0
  187.2680  177.6910  141.6990 C   0  0  2  0  0  3  0  0  0  0  0  0
  187.1020  176.2930  139.1860 C   0  0  0  0  0  3  0  0  0  0  0  0
  184.6640  178.6440  144.9020 C   0  0  0  0  0  3  0  0  0  0  0  0
  186.1710  177.9140  140.6890 C   0  0  0  0  0  0  0  0  0  0  0  0
  186.2980  177.3530  139.3410 C   0  0  0  0  0  3  0  0  0  0  0  0
  186.3880  178.1940  146.6890 C   0  0  0  0  0  0  0  0  0  0  0  0
  185.3770  178.6220  147.9050 S   0  0  0  0  0  0  0  0  0  0  0  0
  188.3290  177.5380  144.6400 C   0  0  0  0  0  2  0  0  0  0  0  0
  187.7950  175.6830  140.3520 C   0  0  0  0  0  3  0  0  0  0  0  0
  185.2350  178.3330  142.5960 C   0  0  0  0  0  0  0  0  0  0  0  0
  185.0350  178.2810  141.1930 N   0  0  0  0  0  0  0  0  0  0  0  0
  187.6900  177.6990  147.0140 N   0  0  0  0  0  0  0  0  0  0  0  0
  187.8230  176.2980  141.5460 C   0  0  0  0  0  3  0  0  0  0  0  0
  188.5710  177.3630  146.1180 C   0  0  0  0  0  0  0  0  0  0  0  0
  185.9700  178.2530  145.2760 C   0  0  0  0  0  0  0  0  0  0  0  0
  189.9050  176.8650  146.5560 C   0  0  0  0  0  2  0  0  0  0  0  0
  190.4200  175.8150  145.5900 C   0  0  2  0  0  3  0  0  0  0  0  0
  189.8540  174.4630  145.9840 C   0  0  2  0  0  3  0  0  0  0  0  0
  191.2850  174.8240  146.3380 C   0  0  0  0  0  2  0  0  0  0  0  0
  189.8340  173.5600  144.7940 C   0  0  0  0  0  0  0  0  0  0  0  0
  189.8840  172.1820  144.9630 O   0  0  0  0  0  1  0  0  0  0  0  0
  189.8150  174.0460  143.6330 O   0  0  0  0  0  0  0  0  0  0  0  0
  1  2  1  0  0  0  0
  2 11  1  0  0  0  0
  2 18  2  0  0  0  0
  3  6  2  0  0  0  0
  4 16  1  1  0  0  0
  4  1  1  0  0  0  0
  5  8  2  0  0  0  0
  5 12  1  0  0  0  0
  6 18  1  0  0  0  0
  7 14  2  0  0  0  0
  7  4  1  0  0  0  0
  8  7  1  0  0  0  0
  9 15  1  0  0  0  0
  9 10  2  0  0  0  0
 11 17  1  0  0  0  0
 12 16  2  0  0  0  0
 13  1  2  0  0  0  0
 13  3  1  0  0  0  0
 14 13  1  0  0  0  0
 17 19  1  0  0  0  0
 17 15  2  0  0  0  0
 18  9  1  0  0  0  0
 20 21  1  0  0  0  0
 20 22  1  0  0  0  0
 20 19  1  1  0  0  0
 21 23  1  6  0  0  0
 21 22  1  0  0  0  0
 23 24  1  0  0  0  0
 25 23  2  0  0  0  0
M  END
>  <MODEL>
2

>  <REMARK>
 VINA RESULT:      -7.1      2.633      4.852
  Name = 
  3 active torsions:
  status: ('A' for Active; 'I' for Inactive)
    1  A    between atoms: C_2  and  C_21
    2  A    between atoms: C_6  and  C_15
    3  A    between atoms: C_6  and  C_23
                            x       y       z     vdW  Elec       q    Type
                         _______ _______ _______ _____ _____    ______ ____

>  <TORSDO>
F 3

$$$$
=
 OpenBabel11052417253D

 25 29  0  0  1  0  0  0  0  0999 V2000
  187.0720  177.6230  144.5140 C   0  0  0  0  0  0  0  0  0  0  0  0
  188.4140  177.2920  144.7340 C   0  0  0  0  0  0  0  0  0  0  0  0
  186.4070  176.7470  146.6650 C   0  0  0  0  0  3  0  0  0  0  0  0
  186.4330  178.3630  143.3950 C   0  0  2  0  0  3  0  0  0  0  0  0
  184.1710  178.2340  141.6160 C   0  0  0  0  0  3  0  0  0  0  0  0
  187.7430  176.3850  146.9050 C   0  0  0  0  0  3  0  0  0  0  0  0
  185.0010  178.3330  143.8640 C   0  0  0  0  0  0  0  0  0  0  0  0
  183.9140  178.5200  142.8990 C   0  0  0  0  0  3  0  0  0  0  0  0
  190.1550  176.2810  146.1760 C   0  0  0  0  0  0  0  0  0  0  0  0
  190.6440  175.5670  147.5680 S   0  0  0  0  0  0  0  0  0  0  0  0
  189.4660  177.6610  143.7240 C   0  0  0  0  0  2  0  0  0  0  0  0
  185.4960  177.6960  141.2040 C   0  0  0  0  0  3  0  0  0  0  0  0
  186.1080  177.3790  145.4620 C   0  0  0  0  0  0  0  0  0  0  0  0
  184.8210  177.7870  145.0270 N   0  0  0  0  0  0  0  0  0  0  0  0
  191.1130  176.4930  145.1350 N   0  0  0  0  0  0  0  0  0  0  0  0
  186.5400  177.6940  142.0490 C   0  0  0  0  0  3  0  0  0  0  0  0
  190.8260  177.0780  144.0090 C   0  0  0  0  0  0  0  0  0  0  0  0
  188.7480  176.6570  145.9500 C   0  0  0  0  0  0  0  0  0  0  0  0
  191.8960  177.2610  142.9880 C   0  0  0  0  0  2  0  0  0  0  0  0
  193.0360  176.2920  143.2390 C   0  0  2  0  0  3  0  0  0  0  0  0
  193.9100  176.2280  142.0000 C   0  0  2  0  0  3  0  0  0  0  0  0
  192.9170  175.1180  142.2920 C   0  0  0  0  0  2  0  0  0  0  0  0
  195.2880  175.7940  142.3780 C   0  0  0  0  0  0  0  0  0  0  0  0
  195.7870  176.0750  143.6440 O   0  0  0  0  0  1  0  0  0  0  0  0
  196.0190  175.2110  141.5350 O   0  0  0  0  0  0  0  0  0  0  0  0
  1  2  2  0  0  0  0
  1 13  1  0  0  0  0
  2 18  1  0  0  0  0
  3  6  1  0  0  0  0
  4 16  1  6  0  0  0
  4  7  1  0  0  0  0
  4  1  1  0  0  0  0
  5  8  2  0  0  0  0
  7 14  2  0  0  0  0
  8  7  1  0  0  0  0
  9 10  2  0  0  0  0
 11 17  1  0  0  0  0
 11  2  1  0  0  0  0
 12  5  1  0  0  0  0
 12 16  2  0  0  0  0
 13  3  2  0  0  0  0
 14 13  1  0  0  0  0
 15  9  1  0  0  0  0
 17 15  2  0  0  0  0
 18  9  1  0  0  0  0
 18  6  2  0  0  0  0
 19 17  1  0  0  0  0
 20 19  1  6  0  0  0
 21 22  1  0  0  0  0
 21 23  1  1  0  0  0
 21 20  1  0  0  0  0
 22 20  1  0  0  0  0
 23 24  1  0  0  0  0
 25 23  2  0  0  0  0
M  END
>  <MODEL>
3

>  <REMARK>
 VINA RESULT:      -7.1      3.456      4.958
  Name = 
  3 active torsions:
  status: ('A' for Active; 'I' for Inactive)
    1  A    between atoms: C_2  and  C_21
    2  A    between atoms: C_6  and  C_15
    3  A    between atoms: C_6  and  C_23
                            x       y       z     vdW  Elec       q    Type
                         _______ _______ _______ _____ _____    ______ ____

>  <TORSDO>
F 3

$$$$
=
 OpenBabel11052417253D

 25 29  0  0  1  0  0  0  0  0999 V2000
  186.8030  176.5410  144.7130 C   0  0  0  0  0  0  0  0  0  0  0  0
  187.9310  175.8360  144.2800 C   0  0  0  0  0  0  0  0  0  0  0  0
  185.9710  176.7820  142.4580 C   0  0  0  0  0  3  0  0  0  0  0  0
  186.3270  176.8460  146.0880 C   0  0  2  0  0  3  0  0  0  0  0  0
  185.2940  179.0130  147.6800 C   0  0  0  0  0  3  0  0  0  0  0  0
  187.1030  176.0950  141.9910 C   0  0  0  0  0  3  0  0  0  0  0  0
  185.0690  177.6050  145.7520 C   0  0  0  0  0  0  0  0  0  0  0  0
  184.4820  178.5160  146.7380 C   0  0  0  0  0  3  0  0  0  0  0  0
  189.2830  174.9000  142.4270 C   0  0  0  0  0  0  0  0  0  0  0  0
  189.5300  174.5740  140.8400 S   0  0  0  0  0  0  0  0  0  0  0  0
  188.9150  175.2830  145.2750 C   0  0  0  0  0  2  0  0  0  0  0  0
  186.7460  178.6900  147.6840 C   0  0  0  0  0  3  0  0  0  0  0  0
  185.8440  176.9760  143.8300 C   0  0  0  0  0  0  0  0  0  0  0  0
  184.7960  177.6700  144.4860 N   0  0  0  0  0  0  0  0  0  0  0  0
  190.2870  174.5250  143.3740 N   0  0  0  0  0  0  0  0  0  0  0  0
  187.2470  177.7230  146.8980 C   0  0  0  0  0  3  0  0  0  0  0  0
  190.1660  174.7160  144.6560 C   0  0  0  0  0  0  0  0  0  0  0  0
  188.0820  175.6180  142.8930 C   0  0  0  0  0  0  0  0  0  0  0  0
  191.2640  174.2820  145.5640 C   0  0  0  0  0  2  0  0  0  0  0  0
  192.5260  175.0750  145.2830 C   0  0  2  0  0  3  0  0  0  0  0  0
  192.8290  175.9610  146.4770 C   0  0  2  0  0  3  0  0  0  0  0  0
  192.1940  176.5500  145.2310 C   0  0  0  0  0  2  0  0  0  0  0  0
  194.2870  176.2820  146.5090 C   0  0  0  0  0  0  0  0  0  0  0  0
  194.7100  177.5870  146.7310 O   0  0  0  0  0  1  0  0  0  0  0  0
  195.1370  175.3790  146.2920 O   0  0  0  0  0  0  0  0  0  0  0  0
  1  4  1  0  0  0  0
  2  1  1  0  0  0  0
  2 11  1  0  0  0  0
  3 13  1  0  0  0  0
  4 16  1  6  0  0  0
  5 12  1  0  0  0  0
  6  3  2  0  0  0  0
  6 18  1  0  0  0  0
  7  4  1  0  0  0  0
  7  8  1  0  0  0  0
  8  5  2  0  0  0  0
  9 18  1  0  0  0  0
  9 15  1  0  0  0  0
 10  9  2  0  0  0  0
 13 14  1  0  0  0  0
 13  1  2  0  0  0  0
 14  7  2  0  0  0  0
 15 17  2  0  0  0  0
 16 12  2  0  0  0  0
 17 11  1  0  0  0  0
 17 19  1  0  0  0  0
 18  2  2  0  0  0  0
 20 19  1  1  0  0  0
 20 21  1  0  0  0  0
 21 23  1  6  0  0  0
 22 20  1  0  0  0  0
 22 21  1  0  0  0  0
 23 24  1  0  0  0  0
 25 23  2  0  0  0  0
M  END
>  <MODEL>
4

>  <REMARK>
 VINA RESULT:      -7.0      2.116      2.973
  Name = 
  3 active torsions:
  status: ('A' for Active; 'I' for Inactive)
    1  A    between atoms: C_2  and  C_21
    2  A    between atoms: C_6  and  C_15
    3  A    between atoms: C_6  and  C_23
                            x       y       z     vdW  Elec       q    Type
                         _______ _______ _______ _____ _____    ______ ____

>  <TORSDO>
F 3

$$$$
=
 OpenBabel11052417253D

 25 29  0  0  1  0  0  0  0  0999 V2000
  187.2980  176.4100  145.0400 C   0  0  0  0  0  0  0  0  0  0  0  0
  188.5610  175.8990  144.7230 C   0  0  0  0  0  0  0  0  0  0  0  0
  186.5280  176.1760  142.7620 C   0  0  0  0  0  3  0  0  0  0  0  0
  186.7140  176.7910  146.3530 C   0  0  2  0  0  3  0  0  0  0  0  0
  185.2040  178.8930  147.6170 C   0  0  0  0  0  3  0  0  0  0  0  0
  187.7930  175.6790  142.4100 C   0  0  0  0  0  3  0  0  0  0  0  0
  185.3440  177.2260  145.8980 C   0  0  0  0  0  0  0  0  0  0  0  0
  184.5470  178.1200  146.7420 C   0  0  0  0  0  3  0  0  0  0  0  0
  190.1470  175.0220  143.0350 C   0  0  0  0  0  0  0  0  0  0  0  0
  190.5200  174.5460  141.5120 S   0  0  0  0  0  0  0  0  0  0  0  0
  189.5940  175.6940  145.7980 C   0  0  0  0  0  2  0  0  0  0  0  0
  186.6900  178.8750  147.6860 C   0  0  0  0  0  3  0  0  0  0  0  0
  186.3090  176.5200  144.0920 C   0  0  0  0  0  0  0  0  0  0  0  0
  185.1160  177.0670  144.6320 N   0  0  0  0  0  0  0  0  0  0  0  0
  191.1660  174.9880  144.0380 N   0  0  0  0  0  0  0  0  0  0  0  0
  187.4060  177.9350  147.0470 C   0  0  0  0  0  3  0  0  0  0  0  0
  190.9580  175.3170  145.2800 C   0  0  0  0  0  0  0  0  0  0  0  0
  188.8100  175.5350  143.3820 C   0  0  0  0  0  0  0  0  0  0  0  0
  192.0820  175.2410  146.2540 C   0  0  0  0  0  2  0  0  0  0  0  0
  193.3280  175.8820  145.6750 C   0  0  2  0  0  3  0  0  0  0  0  0
  194.5450  175.1040  146.1380 C   0  0  2  0  0  3  0  0  0  0  0  0
  194.1850  176.4220  146.7980 C   0  0  0  0  0  2  0  0  0  0  0  0
  195.6680  175.3040  145.1740 C   0  0  0  0  0  0  0  0  0  0  0  0
  195.5920  176.3010  144.2100 O   0  0  0  0  0  0  0  0  0  0  0  0
  196.6680  174.5410  145.2040 O   0  0  0  0  0  1  0  0  0  0  0  0
  1  4  1  0  0  0  0
  2  1  1  0  0  0  0
  2 11  1  0  0  0  0
  3 13  1  0  0  0  0
  4 16  1  6  0  0  0
  5 12  1  0  0  0  0
  6  3  2  0  0  0  0
  6 18  1  0  0  0  0
  7  4  1  0  0  0  0
  7  8  1  0  0  0  0
  8  5  2  0  0  0  0
  9 18  1  0  0  0  0
  9 15  1  0  0  0  0
 10  9  2  0  0  0  0
 13 14  1  0  0  0  0
 13  1  2  0  0  0  0
 14  7  2  0  0  0  0
 15 17  2  0  0  0  0
 16 12  2  0  0  0  0
 17 11  1  0  0  0  0
 17 19  1  0  0  0  0
 18  2  2  0  0  0  0
 20 21  1  0  0  0  0
 20 19  1  1  0  0  0
 20 22  1  0  0  0  0
 21 23  1  6  0  0  0
 21 22  1  0  0  0  0
 23 25  1  0  0  0  0
 24 23  2  0  0  0  0
M  END
>  <MODEL>
5

>  <REMARK>
 VINA RESULT:      -7.0      2.761      3.789
  Name = 
  3 active torsions:
  status: ('A' for Active; 'I' for Inactive)
    1  A    between atoms: C_2  and  C_21
    2  A    between atoms: C_6  and  C_15
    3  A    between atoms: C_6  and  C_23
                            x       y       z     vdW  Elec       q    Type
                         _______ _______ _______ _____ _____    ______ ____

>  <TORSDO>
F 3

$$$$
=
 OpenBabel11052417253D

 25 29  0  0  1  0  0  0  0  0999 V2000
  190.5630  176.1570  144.0830 C   0  0  0  0  0  0  0  0  0  0  0  0
  189.5160  176.3030  143.1660 C   0  0  0  0  0  0  0  0  0  0  0  0
  191.4740  174.2680  142.8840 C   0  0  0  0  0  3  0  0  0  0  0  0
  190.9500  176.9980  145.2460 C   0  0  2  0  0  3  0  0  0  0  0  0
  191.7310  176.7890  148.0110 C   0  0  0  0  0  3  0  0  0  0  0  0
  190.4230  174.3770  141.9590 C   0  0  0  0  0  3  0  0  0  0  0  0
  192.1570  176.2280  145.7180 C   0  0  0  0  0  0  0  0  0  0  0  0
  192.6230  176.3790  147.0990 C   0  0  0  0  0  3  0  0  0  0  0  0
  188.3300  175.5210  141.1370 C   0  0  0  0  0  0  0  0  0  0  0  0
  188.1830  174.5280  139.8420 S   0  0  0  0  0  0  0  0  0  0  0  0
  188.5370  177.4370  143.3010 C   0  0  0  0  0  2  0  0  0  0  0  0
  190.3120  177.0280  147.6360 C   0  0  0  0  0  3  0  0  0  0  0  0
  191.5230  175.1850  143.9290 C   0  0  0  0  0  0  0  0  0  0  0  0
  192.4810  175.2160  144.9740 N   0  0  0  0  0  0  0  0  0  0  0  0
  187.3180  176.5040  141.3740 N   0  0  0  0  0  0  0  0  0  0  0  0
  189.9260  177.0640  146.3500 C   0  0  0  0  0  3  0  0  0  0  0  0
  187.3650  177.3550  142.3570 C   0  0  0  0  0  0  0  0  0  0  0  0
  189.4470  175.3910  142.0910 C   0  0  0  0  0  0  0  0  0  0  0  0
  186.2650  178.3480  142.5160 C   0  0  0  0  0  2  0  0  0  0  0  0
  186.1880  178.8240  143.9540 C   0  0  2  0  0  3  0  0  0  0  0  0
  184.9100  178.2960  144.5800 C   0  0  2  0  0  3  0  0  0  0  0  0
  184.9940  179.7390  144.1170 C   0  0  0  0  0  2  0  0  0  0  0  0
  185.0690  178.2250  146.0630 C   0  0  0  0  0  0  0  0  0  0  0  0
  186.2820  177.8370  146.6190 O   0  0  0  0  0  0  0  0  0  0  0  0
  184.0900  178.4730  146.8150 O   0  0  0  0  0  1  0  0  0  0  0  0
  1  4  1  0  0  0  0
  2 11  1  0  0  0  0
  2  1  2  0  0  0  0
  3 13  2  0  0  0  0
  4  7  1  0  0  0  0
  4 16  1  1  0  0  0
  6 18  2  0  0  0  0
  6  3  1  0  0  0  0
  7  8  1  0  0  0  0
  8  5  2  0  0  0  0
  9 15  1  0  0  0  0
  9 18  1  0  0  0  0
 10  9  2  0  0  0  0
 12  5  1  0  0  0  0
 13  1  1  0  0  0  0
 13 14  1  0  0  0  0
 14  7  2  0  0  0  0
 15 17  2  0  0  0  0
 16 12  2  0  0  0  0
 17 19  1  0  0  0  0
 17 11  1  0  0  0  0
 18  2  1  0  0  0  0
 20 19  1  6  0  0  0
 20 22  1  0  0  0  0
 20 21  1  0  0  0  0
 21 23  1  1  0  0  0
 22 21  1  0  0  0  0
 23 24  2  0  0  0  0
 23 25  1  0  0  0  0
M  END
>  <MODEL>
6

>  <REMARK>
 VINA RESULT:      -7.0      2.718      5.826
  Name = 
  3 active torsions:
  status: ('A' for Active; 'I' for Inactive)
    1  A    between atoms: C_2  and  C_21
    2  A    between atoms: C_6  and  C_15
    3  A    between atoms: C_6  and  C_23
                            x       y       z     vdW  Elec       q    Type
                         _______ _______ _______ _____ _____    ______ ____

>  <TORSDO>
F 3

$$$$
=
 OpenBabel11052417253D

 25 29  0  0  1  0  0  0  0  0999 V2000
  185.7450  177.2690  143.9050 C   0  0  0  0  0  0  0  0  0  0  0  0
  186.4530  176.7400  142.8210 C   0  0  0  0  0  0  0  0  0  0  0  0
  184.3790  178.6440  142.4620 C   0  0  0  0  0  3  0  0  0  0  0  0
  185.8030  176.9310  145.3510 C   0  0  2  0  0  3  0  0  0  0  0  0
  185.9290  178.1730  147.9470 C   0  0  0  0  0  3  0  0  0  0  0  0
  185.0860  178.1460  141.3560 C   0  0  0  0  0  3  0  0  0  0  0  0
  184.7610  177.8880  145.8720 C   0  0  0  0  0  0  0  0  0  0  0  0
  184.7690  178.2750  147.2850 C   0  0  0  0  0  3  0  0  0  0  0  0
  186.8800  176.6630  140.3820 C   0  0  0  0  0  0  0  0  0  0  0  0
  186.5430  177.1080  138.8410 S   0  0  0  0  0  0  0  0  0  0  0  0
  187.4970  175.6780  143.0360 C   0  0  0  0  0  2  0  0  0  0  0  0
  187.1680  177.7330  147.2530 C   0  0  0  0  0  3  0  0  0  0  0  0
  184.7250  178.1720  143.7250 C   0  0  0  0  0  0  0  0  0  0  0  0
  184.1520  178.5780  144.9580 N   0  0  0  0  0  0  0  0  0  0  0  0
  187.9770  175.7760  140.6210 N   0  0  0  0  0  0  0  0  0  0  0  0
  187.1260  177.2110  146.0160 C   0  0  0  0  0  3  0  0  0  0  0  0
  188.3000  175.3440  141.8050 C   0  0  0  0  0  0  0  0  0  0  0  0
  186.1180  177.1950  141.5270 C   0  0  0  0  0  0  0  0  0  0  0  0
  189.4560  174.4150  141.9520 C   0  0  0  0  0  2  0  0  0  0  0  0
  189.8640  173.8620  140.6000 C   0  0  2  0  0  3  0  0  0  0  0  0
  189.3230  172.4520  140.4610 C   0  0  2  0  0  3  0  0  0  0  0  0
  190.7850  172.6780  140.7980 C   0  0  0  0  0  2  0  0  0  0  0  0
  189.1780  172.1090  139.0140 C   0  0  0  0  0  0  0  0  0  0  0  0
  188.6960  173.0530  138.1170 O   0  0  0  0  0  0  0  0  0  0  0  0
  189.4530  170.9480  138.6110 O   0  0  0  0  0  1  0  0  0  0  0  0
  1  4  1  0  0  0  0
  2 11  1  0  0  0  0
  2  1  2  0  0  0  0
  3 13  2  0  0  0  0
  4  7  1  0  0  0  0
  4 16  1  1  0  0  0
  6 18  2  0  0  0  0
  6  3  1  0  0  0  0
  7  8  1  0  0  0  0
  8  5  2  0  0  0  0
  9 15  1  0  0  0  0
  9 18  1  0  0  0  0
 10  9  2  0  0  0  0
 12  5  1  0  0  0  0
 13  1  1  0  0  0  0
 13 14  1  0  0  0  0
 14  7  2  0  0  0  0
 15 17  2  0  0  0  0
 16 12  2  0  0  0  0
 17 19  1  0  0  0  0
 17 11  1  0  0  0  0
 18  2  1  0  0  0  0
 20 22  1  0  0  0  0
 20 19  1  1  0  0  0
 21 23  1  6  0  0  0
 21 20  1  0  0  0  0
 21 22  1  0  0  0  0
 24 23  2  0  0  0  0
 25 23  1  0  0  0  0
M  END
>  <MODEL>
7

>  <REMARK>
 VINA RESULT:      -6.9      2.708      3.126
  Name = 
  3 active torsions:
  status: ('A' for Active; 'I' for Inactive)
    1  A    between atoms: C_2  and  C_21
    2  A    between atoms: C_6  and  C_15
    3  A    between atoms: C_6  and  C_23
                            x       y       z     vdW  Elec       q    Type
                         _______ _______ _______ _____ _____    ______ ____

>  <TORSDO>
F 3

$$$$
=
 OpenBabel11052417253D

 25 29  0  0  1  0  0  0  0  0999 V2000
  187.8370  176.5770  145.1820 C   0  0  0  0  0  0  0  0  0  0  0  0
  188.3930  175.7180  144.2270 C   0  0  0  0  0  0  0  0  0  0  0  0
  189.0620  175.5240  146.9790 C   0  0  0  0  0  3  0  0  0  0  0  0
  186.9440  177.7530  145.0160 C   0  0  2  0  0  3  0  0  0  0  0  0
  184.5530  178.9320  146.1070 C   0  0  0  0  0  3  0  0  0  0  0  0
  189.6210  174.6350  146.0460 C   0  0  0  0  0  3  0  0  0  0  0  0
  186.7950  178.1570  146.4610 C   0  0  0  0  0  0  0  0  0  0  0  0
  185.6510  178.9730  146.8750 C   0  0  0  0  0  3  0  0  0  0  0  0
  189.8620  173.8010  143.6770 C   0  0  0  0  0  0  0  0  0  0  0  0
  190.9400  172.6400  144.0960 S   0  0  0  0  0  0  0  0  0  0  0  0
  188.0770  175.8930  142.7670 C   0  0  0  0  0  2  0  0  0  0  0  0
  184.4900  178.0490  144.9120 C   0  0  0  0  0  3  0  0  0  0  0  0
  188.1830  176.4950  146.5100 C   0  0  0  0  0  0  0  0  0  0  0  0
  187.4960  177.4550  147.2960 N   0  0  0  0  0  0  0  0  0  0  0  0
  189.4240  173.8800  142.3180 N   0  0  0  0  0  0  0  0  0  0  0  0
  185.5890  177.4440  144.4330 C   0  0  0  0  0  3  0  0  0  0  0  0
  188.5950  174.7860  141.8860 C   0  0  0  0  0  0  0  0  0  0  0  0
  189.2950  174.7270  144.6740 C   0  0  0  0  0  0  0  0  0  0  0  0
  188.2040  174.7910  140.4490 C   0  0  0  0  0  2  0  0  0  0  0  0
  189.0620  173.8170  139.6640 C   0  0  2  0  0  3  0  0  0  0  0  0
  188.5890  173.7920  138.2230 C   0  0  2  0  0  3  0  0  0  0  0  0
  188.2030  172.6730  139.1720 C   0  0  0  0  0  2  0  0  0  0  0  0
  189.7040  173.3480  137.3340 C   0  0  0  0  0  0  0  0  0  0  0  0
  191.0250  173.5260  137.7280 O   0  0  0  0  0  1  0  0  0  0  0  0
  189.4510  172.8510  136.2060 O   0  0  0  0  0  0  0  0  0  0  0  0
  1 13  1  0  0  0  0
  2 18  1  0  0  0  0
  2  1  2  0  0  0  0
  4 16  1  1  0  0  0
  4  1  1  0  0  0  0
  4  7  1  0  0  0  0
  5  8  2  0  0  0  0
  6  3  1  0  0  0  0
  7  8  1  0  0  0  0
  7 14  2  0  0  0  0
  9 10  2  0  0  0  0
  9 18  1  0  0  0  0
 11  2  1  0  0  0  0
 12  5  1  0  0  0  0
 13  3  2  0  0  0  0
 13 14  1  0  0  0  0
 15  9  1  0  0  0  0
 16 12  2  0  0  0  0
 17 15  2  0  0  0  0
 17 11  1  0  0  0  0
 18  6  2  0  0  0  0
 19 17  1  0  0  0  0
 20 19  1  1  0  0  0
 21 23  1  6  0  0  0
 21 22  1  0  0  0  0
 21 20  1  0  0  0  0
 22 20  1  0  0  0  0
 23 24  1  0  0  0  0
 25 23  2  0  0  0  0
M  END
>  <MODEL>
8

>  <REMARK>
 VINA RESULT:      -6.8      3.765      5.182
  Name = 
  3 active torsions:
  status: ('A' for Active; 'I' for Inactive)
    1  A    between atoms: C_2  and  C_21
    2  A    between atoms: C_6  and  C_15
    3  A    between atoms: C_6  and  C_23
                            x       y       z     vdW  Elec       q    Type
                         _______ _______ _______ _____ _____    ______ ____

>  <TORSDO>
F 3

$$$$
=
 OpenBabel11052417253D

 25 29  0  0  1  0  0  0  0  0999 V2000
  186.6490  177.6270  142.6610 C   0  0  0  0  0  0  0  0  0  0  0  0
  186.9200  177.5640  144.0320 C   0  0  0  0  0  0  0  0  0  0  0  0
  184.5160  178.6970  143.0370 C   0  0  0  0  0  3  0  0  0  0  0  0
  187.4950  177.2660  141.4930 C   0  0  2  0  0  3  0  0  0  0  0  0
  187.3810  175.8550  138.9850 C   0  0  0  0  0  3  0  0  0  0  0  0
  184.7520  178.6300  144.4200 C   0  0  0  0  0  3  0  0  0  0  0  0
  186.5430  177.6170  140.3790 C   0  0  0  0  0  0  0  0  0  0  0  0
  186.7200  177.0180  139.0540 C   0  0  0  0  0  3  0  0  0  0  0  0
  186.2160  177.9820  146.3690 C   0  0  0  0  0  0  0  0  0  0  0  0
  185.1620  178.5690  147.4780 S   0  0  0  0  0  0  0  0  0  0  0  0
  188.2360  177.0260  144.5260 C   0  0  0  0  0  2  0  0  0  0  0  0
  187.8660  175.1790  140.2170 C   0  0  0  0  0  3  0  0  0  0  0  0
  185.4940  178.1980  142.1820 C   0  0  0  0  0  0  0  0  0  0  0  0
  185.4240  178.1470  140.7670 N   0  0  0  0  0  0  0  0  0  0  0  0
  187.3990  177.3200  146.8240 N   0  0  0  0  0  0  0  0  0  0  0  0
  187.8640  175.8070  141.4040 C   0  0  0  0  0  3  0  0  0  0  0  0
  188.3070  176.8480  146.0210 C   0  0  0  0  0  0  0  0  0  0  0  0
  185.9480  178.0700  144.9220 C   0  0  0  0  0  0  0  0  0  0  0  0
  189.5110  176.1810  146.5910 C   0  0  0  0  0  2  0  0  0  0  0  0
  190.7750  176.8070  146.0330 C   0  0  2  0  0  3  0  0  0  0  0  0
  191.6500  175.7140  145.4480 C   0  0  2  0  0  3  0  0  0  0  0  0
  191.9720  176.3020  146.8090 C   0  0  0  0  0  2  0  0  0  0  0  0
  192.5560  176.2940  144.4120 C   0  0  0  0  0  0  0  0  0  0  0  0
  192.1740  177.4270  143.7040 O   0  0  0  0  0  0  0  0  0  0  0  0
  193.6510  175.7330  144.1460 O   0  0  0  0  0  1  0  0  0  0  0  0
  1  2  1  0  0  0  0
  2 11  1  0  0  0  0
  2 18  2  0  0  0  0
  3  6  2  0  0  0  0
  4 16  1  1  0  0  0
  4  1  1  0  0  0  0
  5  8  2  0  0  0  0
  5 12  1  0  0  0  0
  6 18  1  0  0  0  0
  7 14  2  0  0  0  0
  7  4  1  0  0  0  0
  8  7  1  0  0  0  0
  9 15  1  0  0  0  0
  9 10  2  0  0  0  0
 11 17  1  0  0  0  0
 12 16  2  0  0  0  0
 13  1  2  0  0  0  0
 13  3  1  0  0  0  0
 14 13  1  0  0  0  0
 17 19  1  0  0  0  0
 17 15  2  0  0  0  0
 18  9  1  0  0  0  0
 20 19  1  1  0  0  0
 20 22  1  0  0  0  0
 21 23  1  6  0  0  0
 21 20  1  0  0  0  0
 21 22  1  0  0  0  0
 24 23  2  0  0  0  0
 25 23  1  0  0  0  0
M  END
>  <MODEL>
9

>  <REMARK>
 VINA RESULT:      -6.7      2.799      5.016
  Name = 
  3 active torsions:
  status: ('A' for Active; 'I' for Inactive)
    1  A    between atoms: C_2  and  C_21
    2  A    between atoms: C_6  and  C_15
    3  A    between atoms: C_6  and  C_23
                            x       y       z     vdW  Elec       q    Type
                         _______ _______ _______ _____ _____    ______ ____

>  <TORSDO>
F 3

$$$$
