=
 OpenBabel11052420003D

 37 43  0  0  1  0  0  0  0  0999 V2000
  194.0760  172.5550  145.5480 C   0  0  0  0  0  2  0  0  0  0  0  0
  190.8990  175.4630  143.9960 C   0  0  1  0  0  3  0  0  0  0  0  0
  188.1380  174.2020  142.1170 O   0  0  0  0  0  0  0  0  0  0  0  0
  193.2270  174.8880  145.0760 C   0  0  2  0  0  3  0  0  0  0  0  0
  190.4710  174.9220  142.6470 C   0  0  2  0  0  3  0  0  0  0  0  0
  191.8780  174.3810  144.5210 C   0  0  2  0  0  3  0  0  0  0  0  0
  189.0620  175.2710  142.1560 C   0  0  1  0  0  0  0  0  0  0  0  0
  193.5860  176.2300  144.4680 C   0  0  0  0  0  2  0  0  0  0  0  0
  191.9730  173.2900  143.4550 C   0  0  1  0  0  3  0  0  0  0  0  0
  193.5880  170.2980  144.9680 O   0  0  0  0  0  1  0  0  0  0  0  0
  190.2750  178.1440  143.8950 S   0  0  0  0  0  0  0  0  0  0  0  0
  192.5370  177.1190  144.7250 O   0  0  0  0  0  0  0  0  0  0  0  0
  192.0750  171.9310  144.1300 C   0  0  0  0  0  2  0  0  0  0  0  0
  188.6720  174.6140  140.8740 C   0  0  1  0  0  3  0  0  0  0  0  0
  191.5450  176.8440  143.7700 C   0  0  1  0  0  3  0  0  0  0  0  0
  190.6650  173.4330  142.7210 C   0  0  2  0  0  3  0  0  0  0  0  0
  194.3950  173.9120  144.9340 C   0  0  0  0  0  2  0  0  0  0  0  0
  188.4440  176.6570  142.3330 C   0  0  2  0  0  3  0  0  0  0  0  0
  193.5200  171.6060  144.4900 C   0  0  1  0  0  3  0  0  0  0  0  0
  189.7260  173.6100  140.3320 C   0  0  1  0  0  3  0  0  0  0  0  0
  190.6060  172.7890  141.3350 C   0  0  2  0  0  3  0  0  0  0  0  0
  189.4770  177.7950  142.2880 C   0  0  0  0  0  2  0  0  0  0  0  0
  186.7530  178.0740  143.5700 C   0  0  0  0  0  3  0  0  0  0  0  0
  187.4040  176.7200  143.4610 C   0  0  2  0  0  3  0  0  0  0  0  0
  187.9330  176.2590  144.7100 O   0  0  0  0  0  0  0  0  0  0  0  0
  187.8090  176.0040  147.1930 C   0  0  0  0  0  1  0  0  0  0  0  0
  186.7090  177.8270  145.9960 C   0  0  0  0  0  3  0  0  0  0  0  0
  187.4540  176.7230  145.9410 C   0  0  0  0  0  0  0  0  0  0  0  0
  186.4010  178.5620  144.7600 C   0  0  0  0  0  3  0  0  0  0  0  0
  187.9390  172.5960  139.3170 O   0  0  0  0  0  1  0  0  0  0  0  0
  189.2490  172.8980  139.1400 N   0  0  0  0  0  0  0  0  0  0  0  0
  189.3360  173.7250  138.0680 O   0  0  0  0  0  0  0  0  0  0  0  0
  190.6640  173.6280  137.6480 C   0  0  0  0  0  1  0  0  0  0  0  0
  190.1260  171.4220  141.4750 N   0  0  0  0  0  2  0  0  0  0  0  0
  191.1170  170.5870  140.9400 N   0  0  0  0  0  2  0  0  0  0  0  0
  190.9250  169.2710  141.5260 C   0  0  0  0  0  2  0  0  0  0  0  0
  192.2450  168.7450  142.0550 C   0  0  0  0  0  1  0  0  0  0  0  0
  2  6  1  0  0  0  0
  3  7  1  0  0  0  0
  5 16  1  0  0  0  0
  5  2  1  0  0  0  0
  6  4  1  0  0  0  0
  7 18  1  0  0  0  0
  7  5  1  0  0  0  0
  8 12  1  0  0  0  0
  8  4  1  0  0  0  0
  9 13  1  0  0  0  0
  9  6  1  0  0  0  0
 13 19  1  0  0  0  0
 14  3  1  0  0  0  0
 14  7  1  0  0  0  0
 15 11  1  0  0  0  0
 15  2  1  0  0  0  0
 15 12  1  0  0  0  0
 16  9  1  0  0  0  0
 17  4  1  0  0  0  0
 17  1  1  0  0  0  0
 18 24  1  0  0  0  0
 19 10  1  0  0  0  0
 19  1  1  0  0  0  0
 20 14  1  0  0  0  0
 20 21  1  0  0  0  0
 21 34  1  0  0  0  0
 21 16  1  0  0  0  0
 22 18  1  0  0  0  0
 22 11  1  0  0  0  0
 23 29  2  0  0  0  0
 24 23  1  0  0  0  0
 24 25  1  0  0  0  0
 25 28  1  0  0  0  0
 28 27  2  0  0  0  0
 28 26  1  0  0  0  0
 29 27  1  0  0  0  0
 31 30  1  0  0  0  0
 31 20  1  0  0  0  0
 32 31  1  0  0  0  0
 33 32  1  0  0  0  0
 35 34  1  0  0  0  0
 35 36  1  0  0  0  0
 36 37  1  0  0  0  0
M  END
>  <MODEL>
1

>  <REMARK>
 VINA RESULT:      -7.3      0.000      0.000
  Name = 
  6 active torsions:
  status: ('A' for Active; 'I' for Inactive)
    1  A    between atoms: N_1  and  N_23
    2  A    between atoms: N_1  and  C_36
    3  A    between atoms: C_5  and  N_23
    4  A    between atoms: C_6  and  C_31
    5  A    between atoms: O_11  and  N_26
    6  A    between atoms: N_26  and  C_33
                            x       y       z     vdW  Elec       q    Type
                         _______ _______ _______ _____ _____    ______ ____

>  <TORSDO>
F 6

$$$$
=
 OpenBabel11052420003D

 37 43  0  0  1  0  0  0  0  0999 V2000
  185.5690  178.4780  141.8200 C   0  0  0  0  0  2  0  0  0  0  0  0
  188.4780  176.3440  144.6370 C   0  0  1  0  0  3  0  0  0  0  0  0
  191.1350  174.3950  143.2640 O   0  0  0  0  0  0  0  0  0  0  0  0
  186.2720  177.6740  144.1100 C   0  0  2  0  0  3  0  0  0  0  0  0
  188.8220  175.0340  143.9570 C   0  0  2  0  0  3  0  0  0  0  0  0
  187.5940  177.0690  143.5900 C   0  0  2  0  0  3  0  0  0  0  0  0
  190.1700  174.3890  144.2960 C   0  0  1  0  0  0  0  0  0  0  0  0
  185.8050  176.9500  145.3590 C   0  0  0  0  0  2  0  0  0  0  0  0
  187.4640  176.1450  142.3790 C   0  0  1  0  0  3  0  0  0  0  0  0
  186.1090  178.1180  139.5290 O   0  0  0  0  0  1  0  0  0  0  0  0
  188.9720  175.8870  147.3080 S   0  0  0  0  0  0  0  0  0  0  0  0
  186.8310  177.0140  146.3080 O   0  0  0  0  0  0  0  0  0  0  0  0
  187.4770  176.9770  141.1060 C   0  0  0  0  0  2  0  0  0  0  0  0
  190.4860  173.1620  143.5080 C   0  0  1  0  0  3  0  0  0  0  0  0
  187.7550  176.0170  145.9590 C   0  0  1  0  0  3  0  0  0  0  0  0
  188.7010  175.2920  142.4810 C   0  0  2  0  0  3  0  0  0  0  0  0
  185.1410  177.7420  143.0830 C   0  0  0  0  0  2  0  0  0  0  0  0
  190.7380  174.3550  145.7150 C   0  0  2  0  0  3  0  0  0  0  0  0
  186.0800  177.4910  140.7740 C   0  0  1  0  0  3  0  0  0  0  0  0
  189.4390  172.8280  142.4110 C   0  0  1  0  0  3  0  0  0  0  0  0
  188.6790  173.9880  141.6820 C   0  0  2  0  0  3  0  0  0  0  0  0
  189.6540  174.2690  146.8020 C   0  0  0  0  0  2  0  0  0  0  0  0
  191.7680  176.5550  145.0090 C   0  0  0  0  0  3  0  0  0  0  0  0
  191.8600  175.3770  145.9450 C   0  0  2  0  0  3  0  0  0  0  0  0
  193.1560  174.7680  145.9410 O   0  0  0  0  0  0  0  0  0  0  0  0
  195.6500  174.9000  145.8560 C   0  0  0  0  0  1  0  0  0  0  0  0
  194.2040  176.6150  144.8920 C   0  0  0  0  0  3  0  0  0  0  0  0
  194.3090  175.4640  145.5560 C   0  0  0  0  0  0  0  0  0  0  0  0
  192.8730  177.1450  144.5540 C   0  0  0  0  0  3  0  0  0  0  0  0
  191.0260  172.0000  140.9800 O   0  0  0  0  0  1  0  0  0  0  0  0
  189.8520  171.6890  141.5820 N   0  0  0  0  0  0  0  0  0  0  0  0
  190.0750  170.6180  142.3840 O   0  0  0  0  0  0  0  0  0  0  0  0
  190.8390  169.7430  141.6100 C   0  0  0  0  0  1  0  0  0  0  0  0
  189.2290  174.2420  140.3590 N   0  0  0  0  0  2  0  0  0  0  0  0
  188.2160  173.9480  139.4350 N   0  0  0  0  0  2  0  0  0  0  0  0
  188.8120  173.1180  138.4020 C   0  0  0  0  0  2  0  0  0  0  0  0
  190.1040  173.7460  137.9170 C   0  0  0  0  0  1  0  0  0  0  0  0
  1 17  1  0  0  0  0
  2 15  1  0  0  0  0
  3 14  1  0  0  0  0
  3  7  1  0  0  0  0
  4  8  1  0  0  0  0
  5  7  1  0  0  0  0
  5  2  1  0  0  0  0
  6  4  1  0  0  0  0
  6  2  1  0  0  0  0
  7 18  1  0  0  0  0
  8 12  1  0  0  0  0
  9 16  1  0  0  0  0
  9  6  1  0  0  0  0
 10 19  1  0  0  0  0
 13  9  1  0  0  0  0
 14  7  1  0  0  0  0
 15 12  1  0  0  0  0
 15 11  1  0  0  0  0
 16  5  1  0  0  0  0
 17  4  1  0  0  0  0
 18 24  1  0  0  0  0
 18 22  1  0  0  0  0
 19 13  1  0  0  0  0
 19  1  1  0  0  0  0
 20 14  1  0  0  0  0
 21 20  1  0  0  0  0
 21 16  1  0  0  0  0
 22 11  1  0  0  0  0
 23 24  1  0  0  0  0
 25 24  1  0  0  0  0
 27 28  2  0  0  0  0
 28 26  1  0  0  0  0
 28 25  1  0  0  0  0
 29 27  1  0  0  0  0
 29 23  2  0  0  0  0
 30 31  1  0  0  0  0
 31 32  1  0  0  0  0
 31 20  1  0  0  0  0
 33 32  1  0  0  0  0
 34 21  1  0  0  0  0
 35 34  1  0  0  0  0
 36 35  1  0  0  0  0
 37 36  1  0  0  0  0
M  END
>  <MODEL>
2

>  <REMARK>
 VINA RESULT:      -7.1      2.097      6.119
  Name = 
  6 active torsions:
  status: ('A' for Active; 'I' for Inactive)
    1  A    between atoms: N_1  and  N_23
    2  A    between atoms: N_1  and  C_36
    3  A    between atoms: C_5  and  N_23
    4  A    between atoms: C_6  and  C_31
    5  A    between atoms: O_11  and  N_26
    6  A    between atoms: N_26  and  C_33
                            x       y       z     vdW  Elec       q    Type
                         _______ _______ _______ _____ _____    ______ ____

>  <TORSDO>
F 6

$$$$
=
 OpenBabel11052420003D

 37 43  0  0  1  0  0  0  0  0999 V2000
  186.6530  178.2120  146.4130 C   0  0  0  0  0  2  0  0  0  0  0  0
  190.1990  175.6560  145.0500 C   0  0  1  0  0  3  0  0  0  0  0  0
  191.0130  175.4990  141.5770 O   0  0  0  0  0  0  0  0  0  0  0  0
  188.4430  176.4760  146.8280 C   0  0  2  0  0  3  0  0  0  0  0  0
  189.7920  175.0680  143.7140 C   0  0  2  0  0  3  0  0  0  0  0  0
  189.0190  176.5990  145.4000 C   0  0  2  0  0  3  0  0  0  0  0  0
  190.9070  174.6920  142.7330 C   0  0  1  0  0  0  0  0  0  0  0  0
  188.7130  175.0970  147.3980 C   0  0  0  0  0  2  0  0  0  0  0  0
  187.9970  176.4980  144.2670 C   0  0  1  0  0  3  0  0  0  0  0  0
  185.5910  179.3180  144.5920 O   0  0  0  0  0  1  0  0  0  0  0  0
  192.1290  173.9370  146.0020 S   0  0  0  0  0  0  0  0  0  0  0  0
  190.0930  174.8720  147.3590 O   0  0  0  0  0  0  0  0  0  0  0  0
  187.3850  177.8680  144.0150 C   0  0  0  0  0  2  0  0  0  0  0  0
  190.4290  174.2230  141.4000 C   0  0  1  0  0  3  0  0  0  0  0  0
  190.3940  174.4920  146.0410 C   0  0  1  0  0  3  0  0  0  0  0  0
  188.8420  176.0600  143.1000 C   0  0  2  0  0  3  0  0  0  0  0  0
  186.9600  176.8240  146.9620 C   0  0  0  0  0  2  0  0  0  0  0  0
  192.2060  174.0200  143.1750 C   0  0  2  0  0  3  0  0  0  0  0  0
  186.2120  178.1240  144.9550 C   0  0  1  0  0  3  0  0  0  0  0  0
  188.8890  174.3090  141.2150 C   0  0  1  0  0  3  0  0  0  0  0  0
  188.0840  175.4540  141.9180 C   0  0  2  0  0  3  0  0  0  0  0  0
  192.0280  173.0890  144.3860 C   0  0  0  0  0  2  0  0  0  0  0  0
  194.7190  174.2690  143.0320 C   0  0  0  0  0  3  0  0  0  0  0  0
  193.4030  174.9790  143.2190 C   0  0  2  0  0  3  0  0  0  0  0  0
  193.3870  175.8130  144.3840 O   0  0  0  0  0  0  0  0  0  0  0  0
  194.4800  177.4120  145.9620 C   0  0  0  0  0  1  0  0  0  0  0  0
  195.7430  175.8020  144.6290 C   0  0  0  0  0  3  0  0  0  0  0  0
  194.5590  176.3200  144.9580 C   0  0  0  0  0  0  0  0  0  0  0  0
  195.8120  174.6880  143.6710 C   0  0  0  0  0  3  0  0  0  0  0  0
  189.5630  174.0210  139.0430 O   0  0  0  0  0  1  0  0  0  0  0  0
  188.4760  173.9560  139.8510 N   0  0  0  0  0  0  0  0  0  0  0  0
  188.0360  172.6730  139.8410 O   0  0  0  0  0  0  0  0  0  0  0  0
  188.7970  172.0400  138.8570 C   0  0  0  0  0  1  0  0  0  0  0  0
  187.7400  176.5190  140.9880 N   0  0  0  0  0  2  0  0  0  0  0  0
  186.3680  176.7660  141.1410 N   0  0  0  0  0  2  0  0  0  0  0  0
  186.0450  177.9010  140.2930 C   0  0  0  0  0  2  0  0  0  0  0  0
  184.5970  178.3010  140.4990 C   0  0  0  0  0  1  0  0  0  0  0  0
  1 17  1  0  0  0  0
  2  6  1  0  0  0  0
  2 15  1  0  0  0  0
  3  7  1  0  0  0  0
  4 17  1  0  0  0  0
  4  8  1  0  0  0  0
  5  2  1  0  0  0  0
  6  4  1  0  0  0  0
  7 18  1  0  0  0  0
  7  5  1  0  0  0  0
  9  6  1  0  0  0  0
 10 19  1  0  0  0  0
 11 15  1  0  0  0  0
 12  8  1  0  0  0  0
 13  9  1  0  0  0  0
 13 19  1  0  0  0  0
 14  3  1  0  0  0  0
 14  7  1  0  0  0  0
 15 12  1  0  0  0  0
 16  5  1  0  0  0  0
 16  9  1  0  0  0  0
 18 24  1  0  0  0  0
 18 22  1  0  0  0  0
 19  1  1  0  0  0  0
 20 14  1  0  0  0  0
 20 21  1  0  0  0  0
 21 16  1  0  0  0  0
 22 11  1  0  0  0  0
 23 24  1  0  0  0  0
 23 29  2  0  0  0  0
 24 25  1  0  0  0  0
 25 28  1  0  0  0  0
 27 28  2  0  0  0  0
 28 26  1  0  0  0  0
 29 27  1  0  0  0  0
 30 31  1  0  0  0  0
 31 20  1  0  0  0  0
 32 31  1  0  0  0  0
 33 32  1  0  0  0  0
 34 35  1  0  0  0  0
 34 21  1  0  0  0  0
 36 37  1  0  0  0  0
 36 35  1  0  0  0  0
M  END
>  <MODEL>
3

>  <REMARK>
 VINA RESULT:      -7.0      2.392      6.408
  Name = 
  6 active torsions:
  status: ('A' for Active; 'I' for Inactive)
    1  A    between atoms: N_1  and  N_23
    2  A    between atoms: N_1  and  C_36
    3  A    between atoms: C_5  and  N_23
    4  A    between atoms: C_6  and  C_31
    5  A    between atoms: O_11  and  N_26
    6  A    between atoms: N_26  and  C_33
                            x       y       z     vdW  Elec       q    Type
                         _______ _______ _______ _____ _____    ______ ____

>  <TORSDO>
F 6

$$$$
=
 OpenBabel11052420003D

 37 43  0  0  1  0  0  0  0  0999 V2000
  195.6870  172.9550  145.6840 C   0  0  0  0  0  2  0  0  0  0  0  0
  192.0190  175.3300  144.3170 C   0  0  1  0  0  3  0  0  0  0  0  0
  189.4360  173.6710  142.4950 O   0  0  0  0  0  0  0  0  0  0  0  0
  194.4480  175.1250  145.3040 C   0  0  2  0  0  3  0  0  0  0  0  0
  191.6360  174.7550  142.9680 C   0  0  2  0  0  3  0  0  0  0  0  0
  193.1810  174.4150  144.7800 C   0  0  2  0  0  3  0  0  0  0  0  0
  190.1720  174.8770  142.5330 C   0  0  1  0  0  0  0  0  0  0  0  0
  194.5590  176.5210  144.7220 C   0  0  0  0  0  2  0  0  0  0  0  0
  193.4150  173.3770  143.6810 C   0  0  1  0  0  3  0  0  0  0  0  0
  195.5560  170.6620  145.0570 O   0  0  0  0  0  1  0  0  0  0  0  0
  190.9580  177.8720  144.3110 S   0  0  0  0  0  0  0  0  0  0  0  0
  193.3870  177.2190  145.0370 O   0  0  0  0  0  0  0  0  0  0  0  0
  193.7650  172.0400  144.3150 C   0  0  0  0  0  2  0  0  0  0  0  0
  189.8490  174.1930  141.2470 C   0  0  1  0  0  3  0  0  0  0  0  0
  192.4190  176.8040  144.1080 C   0  0  1  0  0  3  0  0  0  0  0  0
  192.0760  173.3180  142.9940 C   0  0  2  0  0  3  0  0  0  0  0  0
  195.7550  174.3590  145.0970 C   0  0  0  0  0  2  0  0  0  0  0  0
  189.3410  176.1370  142.7690 C   0  0  2  0  0  3  0  0  0  0  0  0
  195.2560  171.9510  144.6180 C   0  0  1  0  0  3  0  0  0  0  0  0
  191.0330  173.3890  140.6430 C   0  0  1  0  0  3  0  0  0  0  0  0
  192.0730  172.7030  141.5940 C   0  0  2  0  0  3  0  0  0  0  0  0
  190.1710  177.4310  142.7220 C   0  0  0  0  0  2  0  0  0  0  0  0
  187.6700  177.3060  144.2650 C   0  0  0  0  0  3  0  0  0  0  0  0
  188.3480  176.0020  143.9310 C   0  0  2  0  0  3  0  0  0  0  0  0
  188.9380  175.3770  145.0770 O   0  0  0  0  0  0  0  0  0  0  0  0
  188.9220  174.7540  147.4970 C   0  0  0  0  0  1  0  0  0  0  0  0
  187.7310  176.7010  146.6270 C   0  0  0  0  0  3  0  0  0  0  0  0
  188.4990  175.6390  146.3810 C   0  0  0  0  0  0  0  0  0  0  0  0
  187.3560  177.6020  145.5270 C   0  0  0  0  0  3  0  0  0  0  0  0
  189.3440  172.9290  139.1640 O   0  0  0  0  0  1  0  0  0  0  0  0
  190.6360  172.6340  139.4480 N   0  0  0  0  0  0  0  0  0  0  0  0
  191.3890  173.0460  138.3970 O   0  0  0  0  0  0  0  0  0  0  0  0
  190.5080  173.7590  137.5820 C   0  0  0  0  0  1  0  0  0  0  0  0
  191.8310  171.2730  141.7110 N   0  0  0  0  0  2  0  0  0  0  0  0
  192.9290  170.6260  141.1270 N   0  0  0  0  0  2  0  0  0  0  0  0
  193.0880  169.3560  141.8160 C   0  0  0  0  0  2  0  0  0  0  0  0
  194.5610  169.0660  142.0270 C   0  0  0  0  0  1  0  0  0  0  0  0
  2  6  1  0  0  0  0
  3  7  1  0  0  0  0
  5 16  1  0  0  0  0
  5  2  1  0  0  0  0
  6  4  1  0  0  0  0
  7 18  1  0  0  0  0
  7  5  1  0  0  0  0
  8 12  1  0  0  0  0
  8  4  1  0  0  0  0
  9 13  1  0  0  0  0
  9  6  1  0  0  0  0
 13 19  1  0  0  0  0
 14  3  1  0  0  0  0
 14  7  1  0  0  0  0
 15 11  1  0  0  0  0
 15  2  1  0  0  0  0
 15 12  1  0  0  0  0
 16  9  1  0  0  0  0
 17  4  1  0  0  0  0
 17  1  1  0  0  0  0
 18 24  1  0  0  0  0
 19 10  1  0  0  0  0
 19  1  1  0  0  0  0
 20 14  1  0  0  0  0
 20 21  1  0  0  0  0
 21 34  1  0  0  0  0
 21 16  1  0  0  0  0
 22 18  1  0  0  0  0
 22 11  1  0  0  0  0
 23 29  2  0  0  0  0
 24 23  1  0  0  0  0
 24 25  1  0  0  0  0
 25 28  1  0  0  0  0
 28 27  2  0  0  0  0
 28 26  1  0  0  0  0
 29 27  1  0  0  0  0
 30 31  1  0  0  0  0
 31 20  1  0  0  0  0
 32 31  1  0  0  0  0
 33 32  1  0  0  0  0
 35 34  1  0  0  0  0
 35 36  1  0  0  0  0
 36 37  1  0  0  0  0
M  END
>  <MODEL>
4

>  <REMARK>
 VINA RESULT:      -6.6      1.283      1.488
  Name = 
  6 active torsions:
  status: ('A' for Active; 'I' for Inactive)
    1  A    between atoms: N_1  and  N_23
    2  A    between atoms: N_1  and  C_36
    3  A    between atoms: C_5  and  N_23
    4  A    between atoms: C_6  and  C_31
    5  A    between atoms: O_11  and  N_26
    6  A    between atoms: N_26  and  C_33
                            x       y       z     vdW  Elec       q    Type
                         _______ _______ _______ _____ _____    ______ ____

>  <TORSDO>
F 6

$$$$
=
 OpenBabel11052420003D

 37 43  0  0  1  0  0  0  0  0999 V2000
  186.6090  178.3670  142.5010 C   0  0  0  0  0  2  0  0  0  0  0  0
  190.3800  176.4230  144.2230 C   0  0  1  0  0  3  0  0  0  0  0  0
  192.2800  174.1840  142.1940 O   0  0  0  0  0  0  0  0  0  0  0  0
  188.1480  177.8000  144.4240 C   0  0  2  0  0  3  0  0  0  0  0  0
  190.4250  175.0250  143.6390 C   0  0  2  0  0  3  0  0  0  0  0  0
  189.1600  177.0670  143.5160 C   0  0  2  0  0  3  0  0  0  0  0  0
  191.7960  174.3520  143.5100 C   0  0  1  0  0  0  0  0  0  0  0  0
  188.2040  177.2540  145.8380 C   0  0  0  0  0  2  0  0  0  0  0  0
  188.5630  176.0160  142.5800 C   0  0  1  0  0  3  0  0  0  0  0  0
  186.2110  177.7110  140.2470 O   0  0  0  0  0  1  0  0  0  0  0  0
  191.8760  176.2570  146.5300 S   0  0  0  0  0  0  0  0  0  0  0  0
  189.5190  177.3740  146.3000 O   0  0  0  0  0  0  0  0  0  0  0  0
  188.0800  176.6900  141.3050 C   0  0  0  0  0  2  0  0  0  0  0  0
  191.7730  173.0260  142.8270 C   0  0  1  0  0  3  0  0  0  0  0  0
  190.2290  176.2930  145.7520 C   0  0  1  0  0  3  0  0  0  0  0  0
  189.7380  175.1150  142.3050 C   0  0  2  0  0  3  0  0  0  0  0  0
  186.7070  177.8090  143.9150 C   0  0  0  0  0  2  0  0  0  0  0  0
  192.8720  174.4540  144.5900 C   0  0  2  0  0  3  0  0  0  0  0  0
  186.6680  177.2380  141.4760 C   0  0  1  0  0  3  0  0  0  0  0  0
  190.3790  172.6230  142.2740 C   0  0  1  0  0  3  0  0  0  0  0  0
  189.4000  173.7290  141.7530 C   0  0  2  0  0  3  0  0  0  0  0  0
  192.2990  174.5550  146.0130 C   0  0  0  0  0  2  0  0  0  0  0  0
  193.7710  176.1200  142.9120 C   0  0  0  0  0  3  0  0  0  0  0  0
  193.9990  175.4340  144.2340 C   0  0  2  0  0  3  0  0  0  0  0  0
  195.2930  174.8260  144.3240 O   0  0  0  0  0  0  0  0  0  0  0  0
  197.7530  174.8100  143.8850 C   0  0  0  0  0  1  0  0  0  0  0  0
  196.1690  176.0280  142.4800 C   0  0  0  0  0  3  0  0  0  0  0  0
  196.3760  175.2520  143.5450 C   0  0  0  0  0  0  0  0  0  0  0  0
  194.7990  176.4230  142.1200 C   0  0  0  0  0  3  0  0  0  0  0  0
  191.5960  171.3420  140.8150 O   0  0  0  0  0  1  0  0  0  0  0  0
  190.4300  171.3730  141.5050 N   0  0  0  0  0  0  0  0  0  0  0  0
  190.4360  170.3250  142.3660 O   0  0  0  0  0  0  0  0  0  0  0  0
  190.9960  169.2700  141.6440 C   0  0  0  0  0  1  0  0  0  0  0  0
  189.3900  173.7960  140.2990 N   0  0  0  0  0  2  0  0  0  0  0  0
  188.1910  173.2060  139.8730 N   0  0  0  0  0  2  0  0  0  0  0  0
  188.2090  173.2090  138.4210 C   0  0  0  0  0  2  0  0  0  0  0  0
  187.8730  174.5950  137.9040 C   0  0  0  0  0  1  0  0  0  0  0  0
  1 17  1  0  0  0  0
  2 15  1  0  0  0  0
  3 14  1  0  0  0  0
  3  7  1  0  0  0  0
  4  8  1  0  0  0  0
  5  2  1  0  0  0  0
  6  2  1  0  0  0  0
  6  4  1  0  0  0  0
  7  5  1  0  0  0  0
  7 18  1  0  0  0  0
  8 12  1  0  0  0  0
  9  6  1  0  0  0  0
 10 19  1  0  0  0  0
 13 19  1  0  0  0  0
 13  9  1  0  0  0  0
 14  7  1  0  0  0  0
 15 12  1  0  0  0  0
 15 11  1  0  0  0  0
 16  9  1  0  0  0  0
 16  5  1  0  0  0  0
 17  4  1  0  0  0  0
 18 22  1  0  0  0  0
 19  1  1  0  0  0  0
 20 14  1  0  0  0  0
 21 20  1  0  0  0  0
 21 16  1  0  0  0  0
 22 11  1  0  0  0  0
 23 24  1  0  0  0  0
 24 25  1  0  0  0  0
 24 18  1  0  0  0  0
 27 28  2  0  0  0  0
 28 26  1  0  0  0  0
 28 25  1  0  0  0  0
 29 27  1  0  0  0  0
 29 23  2  0  0  0  0
 30 31  1  0  0  0  0
 31 20  1  0  0  0  0
 31 32  1  0  0  0  0
 33 32  1  0  0  0  0
 34 21  1  0  0  0  0
 35 34  1  0  0  0  0
 36 35  1  0  0  0  0
 37 36  1  0  0  0  0
M  END
>  <MODEL>
5

>  <REMARK>
 VINA RESULT:      -6.6      2.254      6.268
  Name = 
  6 active torsions:
  status: ('A' for Active; 'I' for Inactive)
    1  A    between atoms: N_1  and  N_23
    2  A    between atoms: N_1  and  C_36
    3  A    between atoms: C_5  and  N_23
    4  A    between atoms: C_6  and  C_31
    5  A    between atoms: O_11  and  N_26
    6  A    between atoms: N_26  and  C_33
                            x       y       z     vdW  Elec       q    Type
                         _______ _______ _______ _____ _____    ______ ____

>  <TORSDO>
F 6

$$$$
=
 OpenBabel11052420003D

 37 43  0  0  1  0  0  0  0  0999 V2000
  195.9810  170.3530  145.8410 C   0  0  0  0  0  2  0  0  0  0  0  0
  193.5260  174.1630  145.1940 C   0  0  1  0  0  3  0  0  0  0  0  0
  190.2270  173.9150  143.8520 O   0  0  0  0  0  0  0  0  0  0  0  0
  195.7530  172.8680  145.7200 C   0  0  2  0  0  3  0  0  0  0  0  0
  192.7230  173.9250  143.9300 C   0  0  2  0  0  3  0  0  0  0  0  0
  194.2380  172.8060  145.4260 C   0  0  2  0  0  3  0  0  0  0  0  0
  191.4050  174.6900  143.7700 C   0  0  1  0  0  0  0  0  0  0  0  0
  196.3590  174.1330  145.1440 C   0  0  0  0  0  2  0  0  0  0  0  0
  193.8250  171.8690  144.2910 C   0  0  1  0  0  3  0  0  0  0  0  0
  194.7790  168.3940  145.2210 O   0  0  0  0  0  1  0  0  0  0  0  0
  193.6750  176.9050  145.4120 S   0  0  0  0  0  0  0  0  0  0  0  0
  195.6680  175.2280  145.6760 O   0  0  0  0  0  0  0  0  0  0  0  0
  193.6610  170.4580  144.8340 C   0  0  0  0  0  2  0  0  0  0  0  0
  190.6190  174.3230  142.5560 C   0  0  1  0  0  3  0  0  0  0  0  0
  194.4820  175.3440  144.9330 C   0  0  1  0  0  3  0  0  0  0  0  0
  192.5000  172.4400  143.8580 C   0  0  2  0  0  3  0  0  0  0  0  0
  196.5520  171.6450  145.2690 C   0  0  0  0  0  2  0  0  0  0  0  0
  191.2460  176.1570  144.1680 C   0  0  2  0  0  3  0  0  0  0  0  0
  194.9970  169.7230  144.8600 C   0  0  1  0  0  3  0  0  0  0  0  0
  191.2300  173.1530  141.7370 C   0  0  1  0  0  3  0  0  0  0  0  0
  192.0100  172.0120  142.4740 C   0  0  2  0  0  3  0  0  0  0  0  0
  192.5320  176.9800  143.9870 C   0  0  0  0  0  2  0  0  0  0  0  0
  190.4480  175.0910  146.3180 C   0  0  0  0  0  3  0  0  0  0  0  0
  190.4900  176.3490  145.4900 C   0  0  2  0  0  3  0  0  0  0  0  0
  189.1930  176.9250  145.2930 O   0  0  0  0  0  0  0  0  0  0  0  0
  186.9070  177.5290  146.1020 C   0  0  0  0  0  1  0  0  0  0  0  0
  188.1900  175.6720  147.0360 C   0  0  0  0  0  3  0  0  0  0  0  0
  188.1270  176.6820  146.1680 C   0  0  0  0  0  0  0  0  0  0  0  0
  189.3790  174.8060  147.0640 C   0  0  0  0  0  3  0  0  0  0  0  0
  189.6540  173.8260  140.2150 O   0  0  0  0  0  1  0  0  0  0  0  0
  190.3620  172.7450  140.6250 N   0  0  0  0  0  0  0  0  0  0  0  0
  191.1370  172.3460  139.5850 O   0  0  0  0  0  0  0  0  0  0  0  0
  190.2530  172.1930  138.5160 C   0  0  0  0  0  1  0  0  0  0  0  0
  191.1990  170.8120  142.6170 N   0  0  0  0  0  2  0  0  0  0  0  0
  191.8480  169.7950  141.9020 N   0  0  0  0  0  2  0  0  0  0  0  0
  190.8470  168.7880  141.5930 C   0  0  0  0  0  2  0  0  0  0  0  0
  190.7040  168.6480  140.0910 C   0  0  0  0  0  1  0  0  0  0  0  0
  2  6  1  0  0  0  0
  5  2  1  0  0  0  0
  6  4  1  0  0  0  0
  7  3  1  0  0  0  0
  7  5  1  0  0  0  0
  7 18  1  0  0  0  0
  8 12  1  0  0  0  0
  8  4  1  0  0  0  0
  9 13  1  0  0  0  0
  9  6  1  0  0  0  0
 13 19  1  0  0  0  0
 14  7  1  0  0  0  0
 14  3  1  0  0  0  0
 15  2  1  0  0  0  0
 15 11  1  0  0  0  0
 15 12  1  0  0  0  0
 16  5  1  0  0  0  0
 16  9  1  0  0  0  0
 17  4  1  0  0  0  0
 17  1  1  0  0  0  0
 18 24  1  0  0  0  0
 19 10  1  0  0  0  0
 19  1  1  0  0  0  0
 20 21  1  0  0  0  0
 20 14  1  0  0  0  0
 21 34  1  0  0  0  0
 21 16  1  0  0  0  0
 22 18  1  0  0  0  0
 22 11  1  0  0  0  0
 23 29  2  0  0  0  0
 24 23  1  0  0  0  0
 25 24  1  0  0  0  0
 25 28  1  0  0  0  0
 26 28  1  0  0  0  0
 27 29  1  0  0  0  0
 28 27  2  0  0  0  0
 30 31  1  0  0  0  0
 31 20  1  0  0  0  0
 32 31  1  0  0  0  0
 33 32  1  0  0  0  0
 35 34  1  0  0  0  0
 36 35  1  0  0  0  0
 37 36  1  0  0  0  0
M  END
>  <MODEL>
6

>  <REMARK>
 VINA RESULT:      -6.6      1.847      2.901
  Name = 
  6 active torsions:
  status: ('A' for Active; 'I' for Inactive)
    1  A    between atoms: N_1  and  N_23
    2  A    between atoms: N_1  and  C_36
    3  A    between atoms: C_5  and  N_23
    4  A    between atoms: C_6  and  C_31
    5  A    between atoms: O_11  and  N_26
    6  A    between atoms: N_26  and  C_33
                            x       y       z     vdW  Elec       q    Type
                         _______ _______ _______ _____ _____    ______ ____

>  <TORSDO>
F 6

$$$$
=
 OpenBabel11052420003D

 37 43  0  0  1  0  0  0  0  0999 V2000
  185.8340  177.0970  145.0650 C   0  0  0  0  0  2  0  0  0  0  0  0
  189.0760  174.5950  143.0160 C   0  0  1  0  0  3  0  0  0  0  0  0
  191.7720  173.2910  144.9590 O   0  0  0  0  0  0  0  0  0  0  0  0
  186.9930  176.2010  143.0050 C   0  0  2  0  0  3  0  0  0  0  0  0
  190.3720  174.9470  143.7190 C   0  0  2  0  0  3  0  0  0  0  0  0
  188.0070  175.3740  143.8250 C   0  0  2  0  0  3  0  0  0  0  0  0
  191.4890  173.8990  143.7150 C   0  0  1  0  0  0  0  0  0  0  0  0
  187.5750  176.5780  141.6560 C   0  0  0  0  0  2  0  0  0  0  0  0
  188.7340  176.1370  144.9330 C   0  0  1  0  0  3  0  0  0  0  0  0
  186.2140  177.3170  147.4050 O   0  0  0  0  0  1  0  0  0  0  0  0
  189.8600  173.6620  140.5460 S   0  0  0  0  0  0  0  0  0  0  0  0
  187.9580  175.4020  141.0020 O   0  0  0  0  0  0  0  0  0  0  0  0
  187.8830  176.1300  146.1940 C   0  0  0  0  0  2  0  0  0  0  0  0
  192.6910  174.2710  144.5180 C   0  0  1  0  0  3  0  0  0  0  0  0
  189.2000  175.0360  141.5440 C   0  0  1  0  0  3  0  0  0  0  0  0
  189.9880  175.3250  145.1230 C   0  0  2  0  0  3  0  0  0  0  0  0
  186.4430  177.4400  143.7110 C   0  0  0  0  0  2  0  0  0  0  0  0
  191.8250  173.0520  142.4880 C   0  0  2  0  0  3  0  0  0  0  0  0
  186.8680  177.2680  146.1740 C   0  0  1  0  0  3  0  0  0  0  0  0
  192.5400  175.6040  145.3010 C   0  0  1  0  0  3  0  0  0  0  0  0
  191.1350  176.0300  145.8480 C   0  0  2  0  0  3  0  0  0  0  0  0
  191.5780  173.7840  141.1580 C   0  0  0  0  0  2  0  0  0  0  0  0
  192.1600  170.7510  143.4810 C   0  0  0  0  0  3  0  0  0  0  0  0
  191.3080  171.6110  142.5840 C   0  0  2  0  0  3  0  0  0  0  0  0
  191.0990  171.0240  141.2930 O   0  0  0  0  0  0  0  0  0  0  0  0
  190.6810  169.0550  139.8120 C   0  0  0  0  0  1  0  0  0  0  0  0
  191.7900  168.8650  141.9790 C   0  0  0  0  0  3  0  0  0  0  0  0
  191.2000  169.6440  141.0740 C   0  0  0  0  0  0  0  0  0  0  0  0
  192.3460  169.4600  143.2050 C   0  0  0  0  0  3  0  0  0  0  0  0
  194.6740  174.9840  145.8620 O   0  0  0  0  0  1  0  0  0  0  0  0
  193.6930  175.8670  146.1710 N   0  0  0  0  0  0  0  0  0  0  0  0
  194.1670  177.1110  145.9100 O   0  0  0  0  0  0  0  0  0  0  0  0
  195.1350  176.9270  144.9210 C   0  0  0  0  0  1  0  0  0  0  0  0
  191.0140  175.7720  147.2760 N   0  0  0  0  0  2  0  0  0  0  0  0
  190.7040  176.9960  147.8850 N   0  0  0  0  0  2  0  0  0  0  0  0
  191.8080  177.3200  148.7730 C   0  0  0  0  0  2  0  0  0  0  0  0
  191.3430  178.2910  149.8390 C   0  0  0  0  0  1  0  0  0  0  0  0
  1 19  1  0  0  0  0
  2  5  1  0  0  0  0
  2  6  1  0  0  0  0
  4 17  1  0  0  0  0
  4  6  1  0  0  0  0
  5 16  1  0  0  0  0
  6  9  1  0  0  0  0
  7  5  1  0  0  0  0
  7 14  1  0  0  0  0
  7  3  1  0  0  0  0
  8  4  1  0  0  0  0
  9 16  1  0  0  0  0
  9 13  1  0  0  0  0
 11 22  1  0  0  0  0
 11 15  1  0  0  0  0
 12 15  1  0  0  0  0
 12  8  1  0  0  0  0
 14  3  1  0  0  0  0
 14 20  1  0  0  0  0
 15  2  1  0  0  0  0
 16 21  1  0  0  0  0
 17  1  1  0  0  0  0
 18 24  1  0  0  0  0
 18  7  1  0  0  0  0
 19 13  1  0  0  0  0
 19 10  1  0  0  0  0
 20 21  1  0  0  0  0
 20 31  1  0  0  0  0
 21 34  1  0  0  0  0
 22 18  1  0  0  0  0
 24 23  1  0  0  0  0
 25 24  1  0  0  0  0
 26 28  1  0  0  0  0
 27 29  1  0  0  0  0
 28 25  1  0  0  0  0
 28 27  2  0  0  0  0
 29 23  2  0  0  0  0
 30 31  1  0  0  0  0
 32 31  1  0  0  0  0
 33 32  1  0  0  0  0
 34 35  1  0  0  0  0
 35 36  1  0  0  0  0
 36 37  1  0  0  0  0
M  END
>  <MODEL>
7

>  <REMARK>
 VINA RESULT:      -6.6      3.084      7.670
  Name = 
  6 active torsions:
  status: ('A' for Active; 'I' for Inactive)
    1  A    between atoms: N_1  and  N_23
    2  A    between atoms: N_1  and  C_36
    3  A    between atoms: C_5  and  N_23
    4  A    between atoms: C_6  and  C_31
    5  A    between atoms: O_11  and  N_26
    6  A    between atoms: N_26  and  C_33
                            x       y       z     vdW  Elec       q    Type
                         _______ _______ _______ _____ _____    ______ ____

>  <TORSDO>
F 6

$$$$
=
 OpenBabel11052420003D

 37 43  0  0  1  0  0  0  0  0999 V2000
  190.5950  171.7620  138.6150 C   0  0  0  0  0  2  0  0  0  0  0  0
  190.8140  173.9750  142.6170 C   0  0  1  0  0  3  0  0  0  0  0  0
  192.9800  176.7940  142.9440 O   0  0  0  0  0  0  0  0  0  0  0  0
  190.0960  171.9620  141.0850 C   0  0  2  0  0  3  0  0  0  0  0  0
  192.2590  174.4090  142.7680 C   0  0  2  0  0  3  0  0  0  0  0  0
  190.7770  173.3430  141.2020 C   0  0  2  0  0  3  0  0  0  0  0  0
  192.5440  175.6410  143.6340 C   0  0  1  0  0  0  0  0  0  0  0  0
  190.1360  171.2310  142.4130 C   0  0  0  0  0  2  0  0  0  0  0  0
  192.1880  173.4330  140.6200 C   0  0  1  0  0  3  0  0  0  0  0  0
  192.0050  172.7440  136.9670 O   0  0  0  0  0  1  0  0  0  0  0  0
  189.8420  173.9030  145.1930 S   0  0  0  0  0  0  0  0  0  0  0  0
  189.5290  172.0440  143.3760 O   0  0  0  0  0  0  0  0  0  0  0  0
  192.1020  173.7280  139.1300 C   0  0  0  0  0  2  0  0  0  0  0  0
  193.9730  176.0720  143.6460 C   0  0  1  0  0  3  0  0  0  0  0  0
  190.4940  172.9900  143.7590 C   0  0  1  0  0  3  0  0  0  0  0  0
  192.7790  174.5970  141.3700 C   0  0  2  0  0  3  0  0  0  0  0  0
  190.6340  171.0650  139.9700 C   0  0  0  0  0  2  0  0  0  0  0  0
  191.8240  175.9080  144.9550 C   0  0  2  0  0  3  0  0  0  0  0  0
  191.9290  172.4440  138.3270 C   0  0  1  0  0  3  0  0  0  0  0  0
  194.8870  175.2590  142.6900 C   0  0  1  0  0  3  0  0  0  0  0  0
  194.3050  174.6980  141.3470 C   0  0  2  0  0  3  0  0  0  0  0  0
  191.4410  174.6240  145.7090 C   0  0  0  0  0  2  0  0  0  0  0  0
  189.9690  177.1610  146.1320 C   0  0  0  0  0  3  0  0  0  0  0  0
  190.7410  176.9900  144.8490 C   0  0  2  0  0  3  0  0  0  0  0  0
  189.8890  176.7940  143.7140 O   0  0  0  0  0  0  0  0  0  0  0  0
  187.8160  177.2830  142.4070 C   0  0  0  0  0  1  0  0  0  0  0  0
  187.9470  177.5660  144.8290 C   0  0  0  0  0  3  0  0  0  0  0  0
  188.5580  177.2300  143.6930 C   0  0  0  0  0  0  0  0  0  0  0  0
  188.6710  177.4660  146.1060 C   0  0  0  0  0  3  0  0  0  0  0  0
  196.4350  176.6000  143.7180 O   0  0  0  0  0  1  0  0  0  0  0  0
  196.2530  175.7960  142.6410 N   0  0  0  0  0  0  0  0  0  0  0  0
  197.1340  174.7700  142.7430 O   0  0  0  0  0  0  0  0  0  0  0  0
  197.3210  174.5930  144.1150 C   0  0  0  0  0  1  0  0  0  0  0  0
  194.7030  175.5120  140.2080 N   0  0  0  0  0  2  0  0  0  0  0  0
  195.4860  174.6960  139.3790 N   0  0  0  0  0  2  0  0  0  0  0  0
  196.7480  175.3860  139.1740 C   0  0  0  0  0  2  0  0  0  0  0  0
  197.8800  174.3810  139.1070 C   0  0  0  0  0  1  0  0  0  0  0  0
  1 17  1  0  0  0  0
  2  5  1  0  0  0  0
  2 15  1  0  0  0  0
  3  7  1  0  0  0  0
  3 14  1  0  0  0  0
  4  6  1  0  0  0  0
  4  8  1  0  0  0  0
  5  7  1  0  0  0  0
  6  2  1  0  0  0  0
  7 14  1  0  0  0  0
  7 18  1  0  0  0  0
  8 12  1  0  0  0  0
  9  6  1  0  0  0  0
  9 16  1  0  0  0  0
 10 19  1  0  0  0  0
 11 22  1  0  0  0  0
 12 15  1  0  0  0  0
 13  9  1  0  0  0  0
 15 11  1  0  0  0  0
 16  5  1  0  0  0  0
 17  4  1  0  0  0  0
 18 22  1  0  0  0  0
 19  1  1  0  0  0  0
 19 13  1  0  0  0  0
 20 14  1  0  0  0  0
 21 16  1  0  0  0  0
 21 20  1  0  0  0  0
 24 18  1  0  0  0  0
 24 23  1  0  0  0  0
 25 24  1  0  0  0  0
 26 28  1  0  0  0  0
 27 29  1  0  0  0  0
 28 25  1  0  0  0  0
 28 27  2  0  0  0  0
 29 23  2  0  0  0  0
 31 20  1  0  0  0  0
 31 32  1  0  0  0  0
 31 30  1  0  0  0  0
 32 33  1  0  0  0  0
 34 21  1  0  0  0  0
 35 34  1  0  0  0  0
 36 35  1  0  0  0  0
 37 36  1  0  0  0  0
M  END
>  <MODEL>
8

>  <REMARK>
 VINA RESULT:      -6.3      3.268      5.852
  Name = 
  6 active torsions:
  status: ('A' for Active; 'I' for Inactive)
    1  A    between atoms: N_1  and  N_23
    2  A    between atoms: N_1  and  C_36
    3  A    between atoms: C_5  and  N_23
    4  A    between atoms: C_6  and  C_31
    5  A    between atoms: O_11  and  N_26
    6  A    between atoms: N_26  and  C_33
                            x       y       z     vdW  Elec       q    Type
                         _______ _______ _______ _____ _____    ______ ____

>  <TORSDO>
F 6

$$$$
=
 OpenBabel11052420003D

 37 43  0  0  1  0  0  0  0  0999 V2000
  189.0410  175.9330  146.5220 C   0  0  0  0  0  2  0  0  0  0  0  0
  189.6390  174.0720  142.3830 C   0  0  1  0  0  3  0  0  0  0  0  0
  192.7860  172.5970  141.5630 O   0  0  0  0  0  0  0  0  0  0  0  0
  188.3160  175.5160  144.1370 C   0  0  2  0  0  3  0  0  0  0  0  0
  191.0770  174.3650  142.0040 C   0  0  2  0  0  3  0  0  0  0  0  0
  189.5330  174.6160  143.8300 C   0  0  2  0  0  3  0  0  0  0  0  0
  191.7630  173.4090  141.0230 C   0  0  1  0  0  0  0  0  0  0  0  0
  187.8060  176.1770  142.8710 C   0  0  0  0  0  2  0  0  0  0  0  0
  190.8950  175.1990  144.2050 C   0  0  1  0  0  3  0  0  0  0  0  0
  190.9820  175.7320  147.8870 O   0  0  0  0  0  1  0  0  0  0  0  0
  188.3590  173.6720  139.9770 S   0  0  0  0  0  0  0  0  0  0  0  0
  187.5050  175.1710  141.9460 O   0  0  0  0  0  0  0  0  0  0  0  0
  191.1880  174.9020  145.6670 C   0  0  0  0  0  2  0  0  0  0  0  0
  193.2080  173.6980  140.7830 C   0  0  1  0  0  3  0  0  0  0  0  0
  188.7260  174.7880  141.3680 C   0  0  1  0  0  3  0  0  0  0  0  0
  191.8350  174.4470  143.3000 C   0  0  2  0  0  3  0  0  0  0  0  0
  188.5420  176.5630  145.2280 C   0  0  0  0  0  2  0  0  0  0  0  0
  191.0550  172.8320  139.7980 C   0  0  2  0  0  3  0  0  0  0  0  0
  190.5660  175.9570  146.5750 C   0  0  1  0  0  3  0  0  0  0  0  0
  193.7760  174.8480  141.6590 C   0  0  1  0  0  3  0  0  0  0  0  0
  193.2170  175.0740  143.1050 C   0  0  2  0  0  3  0  0  0  0  0  0
  190.0080  173.7830  139.1960 C   0  0  0  0  0  2  0  0  0  0  0  0
  190.4470  170.9930  141.4240 C   0  0  0  0  0  3  0  0  0  0  0  0
  190.6290  171.3680  139.9760 C   0  0  2  0  0  3  0  0  0  0  0  0
  191.4910  170.4640  139.2750 O   0  0  0  0  0  0  0  0  0  0  0  0
  192.3450  168.1660  138.7920 C   0  0  0  0  0  1  0  0  0  0  0  0
  191.3500  168.7800  140.9350 C   0  0  0  0  0  3  0  0  0  0  0  0
  191.7000  169.1470  139.7020 C   0  0  0  0  0  0  0  0  0  0  0  0
  190.7550  169.7670  141.8500 C   0  0  0  0  0  3  0  0  0  0  0  0
  195.6440  174.1340  140.5390 O   0  0  0  0  0  1  0  0  0  0  0  0
  195.2240  175.0140  141.4800 N   0  0  0  0  0  0  0  0  0  0  0  0
  195.4690  176.2630  141.0100 O   0  0  0  0  0  0  0  0  0  0  0  0
  196.5730  176.7100  141.7390 C   0  0  0  0  0  1  0  0  0  0  0  0
  194.1170  174.5450  144.1180 N   0  0  0  0  0  2  0  0  0  0  0  0
  194.8070  175.6390  144.6600 N   0  0  0  0  0  2  0  0  0  0  0  0
  194.7020  175.5320  146.1050 C   0  0  0  0  0  2  0  0  0  0  0  0
  194.2110  176.8430  146.6850 C   0  0  0  0  0  1  0  0  0  0  0  0
  1 19  1  0  0  0  0
  2  6  1  0  0  0  0
  4 17  1  0  0  0  0
  5  2  1  0  0  0  0
  5 16  1  0  0  0  0
  6  4  1  0  0  0  0
  6  9  1  0  0  0  0
  7  3  1  0  0  0  0
  7  5  1  0  0  0  0
  8  4  1  0  0  0  0
  9 13  1  0  0  0  0
 11 15  1  0  0  0  0
 12  8  1  0  0  0  0
 13 19  1  0  0  0  0
 14  7  1  0  0  0  0
 14  3  1  0  0  0  0
 14 20  1  0  0  0  0
 15 12  1  0  0  0  0
 15  2  1  0  0  0  0
 16  9  1  0  0  0  0
 17  1  1  0  0  0  0
 18 24  1  0  0  0  0
 18  7  1  0  0  0  0
 19 10  1  0  0  0  0
 20 21  1  0  0  0  0
 21 16  1  0  0  0  0
 21 34  1  0  0  0  0
 22 18  1  0  0  0  0
 22 11  1  0  0  0  0
 23 29  2  0  0  0  0
 24 23  1  0  0  0  0
 25 28  1  0  0  0  0
 25 24  1  0  0  0  0
 26 28  1  0  0  0  0
 27 29  1  0  0  0  0
 28 27  2  0  0  0  0
 30 31  1  0  0  0  0
 31 20  1  0  0  0  0
 32 31  1  0  0  0  0
 32 33  1  0  0  0  0
 34 35  1  0  0  0  0
 35 36  1  0  0  0  0
 36 37  1  0  0  0  0
M  END
>  <MODEL>
9

>  <REMARK>
 VINA RESULT:      -6.1      3.142      6.700
  Name = 
  6 active torsions:
  status: ('A' for Active; 'I' for Inactive)
    1  A    between atoms: N_1  and  N_23
    2  A    between atoms: N_1  and  C_36
    3  A    between atoms: C_5  and  N_23
    4  A    between atoms: C_6  and  C_31
    5  A    between atoms: O_11  and  N_26
    6  A    between atoms: N_26  and  C_33
                            x       y       z     vdW  Elec       q    Type
                         _______ _______ _______ _____ _____    ______ ____

>  <TORSDO>
F 6

$$$$
