=
 OpenBabel11052418313D

 27 30  0  0  1  0  0  0  0  0999 V2000
  189.8340  177.0890  145.3690 C   0  0  0  0  0  2  0  0  0  0  0  0
  188.2080  176.1810  143.6600 N   0  0  0  0  0  0  0  0  0  0  0  0
  190.6150  175.9850  142.7070 C   0  0  0  0  0  2  0  0  0  0  0  0
  188.6710  174.3180  142.0500 C   0  0  1  0  0  3  0  0  0  0  0  0
  193.9160  175.2850  144.3870 C   0  0  0  0  0  2  0  0  0  0  0  0
  189.6510  173.8950  140.9670 C   0  0  0  0  0  1  0  0  0  0  0  0
  194.0280  174.9160  145.8700 C   0  0  0  0  0  2  0  0  0  0  0  0
  189.2170  173.8930  143.4070 C   0  0  0  0  0  2  0  0  0  0  0  0
  188.5180  176.3590  145.0910 C   0  0  2  0  0  3  0  0  0  0  0  0
  190.9690  176.0830  145.2860 C   0  0  2  0  0  3  0  0  0  0  0  0
  189.2400  175.3570  143.0110 C   0  0  2  0  0  0  0  0  0  0  0  0
  192.5910  174.8760  143.7600 C   0  0  0  0  0  2  0  0  0  0  0  0
  192.7620  175.1270  146.7080 C   0  0  0  0  0  2  0  0  0  0  0  0
  192.0070  176.4000  146.3540 C   0  0  0  0  0  2  0  0  0  0  0  0
  191.6010  176.0270  143.8840 C   0  0  1  0  0  3  0  0  0  0  0  0
  186.5410  178.3480  147.6380 C   0  0  0  0  0  3  0  0  0  0  0  0
  187.3560  176.9070  145.8660 C   0  0  0  0  0  0  0  0  0  0  0  0
  186.0430  176.4770  145.6230 C   0  0  0  0  0  3  0  0  0  0  0  0
  184.9840  176.9850  146.3810 C   0  0  0  0  0  3  0  0  0  0  0  0
  185.2330  177.9210  147.3880 C   0  0  0  0  0  3  0  0  0  0  0  0
  187.6000  177.8400  146.8810 C   0  0  0  0  0  3  0  0  0  0  0  0
  188.0850  177.7610  142.8320 S   0  0  0  0  0  0  0  0  0  0  0  0
  186.6890  177.4020  140.4630 C   0  0  0  0  0  1  0  0  0  0  0  0
  186.5170  177.3850  141.9720 C   0  0  2  0  0  3  0  0  0  0  0  0
  185.4110  178.3300  142.4120 C   0  0  0  0  0  2  0  0  0  0  0  0
  184.8190  179.8560  144.2940 C   0  0  0  0  0  1  0  0  0  0  0  0
  185.9310  179.3840  143.3770 C   0  0  0  0  0  2  0  0  0  0  0  0
  2  9  1  0  0  0  0
  4  6  1  6  0  0  0
  4 11  1  0  0  0  0
  4  8  1  0  0  0  0
  5  7  1  0  0  0  0
  7 13  1  0  0  0  0
  9  1  1  0  0  0  0
  9 17  1  6  0  0  0
 10  1  1  6  0  0  0
 10 14  1  0  0  0  0
 11  3  1  6  0  0  0
 11  8  1  0  0  0  0
 11  2  1  0  0  0  0
 12 15  1  0  0  0  0
 12  5  1  0  0  0  0
 14 13  1  0  0  0  0
 15  3  1  6  0  0  0
 15 10  1  0  0  0  0
 17 21  1  0  0  0  0
 18 17  2  0  0  0  0
 18 19  1  0  0  0  0
 19 20  2  0  0  0  0
 20 16  1  0  0  0  0
 21 16  2  0  0  0  0
 22  2  1  0  0  0  0
 24 23  1  6  0  0  0
 24 25  1  0  0  0  0
 24 22  1  0  0  0  0
 25 27  1  0  0  0  0
 27 26  1  0  0  0  0
M  END
>  <MODEL>
1

>  <REMARK>
 VINA RESULT:      -7.6      0.000      0.000
  Name = 
  5 active torsions:
  status: ('A' for Active; 'I' for Inactive)
    1  A    between atoms: N_2  and  S_6
    2  A    between atoms: S_6  and  C_21
    3  A    between atoms: C_9  and  C_15
    4  A    between atoms: C_16  and  C_17
    5  A    between atoms: C_17  and  C_21
                            x       y       z     vdW  Elec       q    Type
                         _______ _______ _______ _____ _____    ______ ____

>  <TORSDO>
F 5

$$$$
=
 OpenBabel11052418313D

 27 30  0  0  1  0  0  0  0  0999 V2000
  188.5940  176.2900  145.9120 C   0  0  0  0  0  2  0  0  0  0  0  0
  189.2950  176.3340  143.4840 N   0  0  0  0  0  0  0  0  0  0  0  0
  186.7020  176.2920  143.6020 C   0  0  0  0  0  2  0  0  0  0  0  0
  188.0300  177.4310  141.6200 C   0  0  1  0  0  3  0  0  0  0  0  0
  184.2890  177.8160  146.0650 C   0  0  0  0  0  2  0  0  0  0  0  0
  186.6610  177.4510  140.9600 C   0  0  0  0  0  1  0  0  0  0  0  0
  184.7390  178.7500  147.1930 C   0  0  0  0  0  2  0  0  0  0  0  0
  188.0280  178.3940  142.7980 C   0  0  0  0  0  2  0  0  0  0  0  0
  189.6030  176.7610  144.8620 C   0  0  2  0  0  3  0  0  0  0  0  0
  187.4180  177.2500  145.9160 C   0  0  2  0  0  3  0  0  0  0  0  0
  188.0070  176.8980  143.0490 C   0  0  2  0  0  0  0  0  0  0  0  0
  185.2020  177.8540  144.8480 C   0  0  0  0  0  2  0  0  0  0  0  0
  186.2480  178.8080  147.4520 C   0  0  0  0  0  2  0  0  0  0  0  0
  186.9320  177.4520  147.3450 C   0  0  0  0  0  2  0  0  0  0  0  0
  186.2770  176.7860  144.9930 C   0  0  1  0  0  3  0  0  0  0  0  0
  192.6140  175.5870  146.8390 C   0  0  0  0  0  3  0  0  0  0  0  0
  191.0290  176.4920  145.2410 C   0  0  0  0  0  0  0  0  0  0  0  0
  192.0960  176.9240  144.4400 C   0  0  0  0  0  3  0  0  0  0  0  0
  193.4150  176.6830  144.8350 C   0  0  0  0  0  3  0  0  0  0  0  0
  193.6740  176.0150  146.0340 C   0  0  0  0  0  3  0  0  0  0  0  0
  191.2950  175.8280  146.4450 C   0  0  0  0  0  3  0  0  0  0  0  0
  189.2490  174.5520  143.3630 S   0  0  0  0  0  0  0  0  0  0  0  0
  190.0470  173.8150  140.8110 C   0  0  0  0  0  1  0  0  0  0  0  0
  190.5650  174.4290  142.1010 C   0  0  2  0  0  3  0  0  0  0  0  0
  191.7650  173.6620  142.6340 C   0  0  0  0  0  2  0  0  0  0  0  0
  192.7520  172.6060  144.6660 C   0  0  0  0  0  1  0  0  0  0  0  0
  191.4660  173.0310  143.9840 C   0  0  0  0  0  2  0  0  0  0  0  0
  2  9  1  0  0  0  0
  4  6  1  6  0  0  0
  4  8  1  0  0  0  0
  4 11  1  0  0  0  0
  5  7  1  0  0  0  0
  7 13  1  0  0  0  0
  9 17  1  1  0  0  0
  9  1  1  0  0  0  0
 10  1  1  1  0  0  0
 10 14  1  0  0  0  0
 11  8  1  1  0  0  0
 11  2  1  0  0  0  0
 11  3  1  0  0  0  0
 12 15  1  0  0  0  0
 12  5  1  0  0  0  0
 14 13  1  0  0  0  0
 15  3  1  6  0  0  0
 15 10  1  0  0  0  0
 17 21  2  0  0  0  0
 18 19  2  0  0  0  0
 18 17  1  0  0  0  0
 19 20  1  0  0  0  0
 20 16  2  0  0  0  0
 21 16  1  0  0  0  0
 22  2  1  0  0  0  0
 24 23  1  6  0  0  0
 24 25  1  0  0  0  0
 24 22  1  0  0  0  0
 25 27  1  0  0  0  0
 27 26  1  0  0  0  0
M  END
>  <MODEL>
2

>  <REMARK>
 VINA RESULT:      -7.4      1.475      6.246
  Name = 
  5 active torsions:
  status: ('A' for Active; 'I' for Inactive)
    1  A    between atoms: N_2  and  S_6
    2  A    between atoms: S_6  and  C_21
    3  A    between atoms: C_9  and  C_15
    4  A    between atoms: C_16  and  C_17
    5  A    between atoms: C_17  and  C_21
                            x       y       z     vdW  Elec       q    Type
                         _______ _______ _______ _____ _____    ______ ____

>  <TORSDO>
F 5

$$$$
=
 OpenBabel11052418313D

 27 30  0  0  1  0  0  0  0  0999 V2000
  188.2980  175.8370  145.1550 C   0  0  0  0  0  2  0  0  0  0  0  0
  188.6140  176.1270  142.6640 N   0  0  0  0  0  0  0  0  0  0  0  0
  186.0930  176.3970  143.2220 C   0  0  0  0  0  2  0  0  0  0  0  0
  187.2510  177.6210  141.1850 C   0  0  1  0  0  3  0  0  0  0  0  0
  184.3400  177.8580  146.2220 C   0  0  0  0  0  2  0  0  0  0  0  0
  185.8150  177.9040  140.7770 C   0  0  0  0  0  1  0  0  0  0  0  0
  185.0910  178.5640  147.3550 C   0  0  0  0  0  2  0  0  0  0  0  0
  187.5730  178.4050  142.4490 C   0  0  0  0  0  2  0  0  0  0  0  0
  189.1900  176.3180  144.0090 C   0  0  2  0  0  3  0  0  0  0  0  0
  187.2910  176.9290  145.4720 C   0  0  2  0  0  3  0  0  0  0  0  0
  187.3720  176.9040  142.5260 C   0  0  2  0  0  0  0  0  0  0  0  0
  185.0500  177.9490  144.8780 C   0  0  0  0  0  2  0  0  0  0  0  0
  186.6140  178.3950  147.3550 C   0  0  0  0  0  2  0  0  0  0  0  0
  187.0670  176.9920  146.9770 C   0  0  0  0  0  2  0  0  0  0  0  0
  185.9660  176.7430  144.7120 C   0  0  1  0  0  3  0  0  0  0  0  0
  192.2800  174.5590  145.3190 C   0  0  0  0  0  3  0  0  0  0  0  0
  190.6030  175.8210  144.1040 C   0  0  0  0  0  0  0  0  0  0  0  0
  191.5720  176.1790  143.1550 C   0  0  0  0  0  3  0  0  0  0  0  0
  192.8870  175.7240  143.2860 C   0  0  0  0  0  3  0  0  0  0  0  0
  193.2410  174.9130  144.3680 C   0  0  0  0  0  3  0  0  0  0  0  0
  190.9650  175.0140  145.1890 C   0  0  0  0  0  3  0  0  0  0  0  0
  188.2880  174.3990  142.3490 S   0  0  0  0  0  0  0  0  0  0  0  0
  188.5310  174.0810  139.6040 C   0  0  0  0  0  1  0  0  0  0  0  0
  189.3510  174.2900  140.8660 C   0  0  2  0  0  3  0  0  0  0  0  0
  190.4030  173.2030  141.0270 C   0  0  0  0  0  2  0  0  0  0  0  0
  191.6540  171.9220  142.7630 C   0  0  0  0  0  1  0  0  0  0  0  0
  190.3210  172.5470  142.3950 C   0  0  0  0  0  2  0  0  0  0  0  0
  2  9  1  0  0  0  0
  4  6  1  1  0  0  0
  4  8  1  0  0  0  0
  4 11  1  0  0  0  0
  5  7  1  0  0  0  0
  7 13  1  0  0  0  0
  9 17  1  6  0  0  0
  9  1  1  0  0  0  0
 10  1  1  1  0  0  0
 10 14  1  0  0  0  0
 11  8  1  1  0  0  0
 11  2  1  0  0  0  0
 11  3  1  0  0  0  0
 12  5  1  0  0  0  0
 14 13  1  0  0  0  0
 15  3  1  6  0  0  0
 15 12  1  0  0  0  0
 15 10  1  0  0  0  0
 17 21  2  0  0  0  0
 18 19  2  0  0  0  0
 18 17  1  0  0  0  0
 19 20  1  0  0  0  0
 20 16  2  0  0  0  0
 21 16  1  0  0  0  0
 22  2  1  0  0  0  0
 24 23  1  6  0  0  0
 24 25  1  0  0  0  0
 24 22  1  0  0  0  0
 25 27  1  0  0  0  0
 27 26  1  0  0  0  0
M  END
>  <MODEL>
3

>  <REMARK>
 VINA RESULT:      -7.1      1.436      6.231
  Name = 
  5 active torsions:
  status: ('A' for Active; 'I' for Inactive)
    1  A    between atoms: N_2  and  S_6
    2  A    between atoms: S_6  and  C_21
    3  A    between atoms: C_9  and  C_15
    4  A    between atoms: C_16  and  C_17
    5  A    between atoms: C_17  and  C_21
                            x       y       z     vdW  Elec       q    Type
                         _______ _______ _______ _____ _____    ______ ____

>  <TORSDO>
F 5

$$$$
=
 OpenBabel11052418313D

 27 30  0  0  1  0  0  0  0  0999 V2000
  187.8330  176.6460  143.7900 C   0  0  0  0  0  2  0  0  0  0  0  0
  189.9620  175.4640  144.4700 N   0  0  0  0  0  0  0  0  0  0  0  0
  189.5060  177.3920  146.1480 C   0  0  0  0  0  2  0  0  0  0  0  0
  190.7860  175.1780  146.8180 C   0  0  1  0  0  3  0  0  0  0  0  0
  186.2900  178.8140  147.5050 C   0  0  0  0  0  2  0  0  0  0  0  0
  191.1330  175.9760  148.0640 C   0  0  0  0  0  1  0  0  0  0  0  0
  184.9210  178.1930  147.2080 C   0  0  0  0  0  2  0  0  0  0  0  0
  189.2930  174.8770  146.8210 C   0  0  0  0  0  2  0  0  0  0  0  0
  188.6240  175.3370  143.8630 C   0  0  2  0  0  3  0  0  0  0  0  0
  187.1630  176.8800  145.1330 C   0  0  2  0  0  3  0  0  0  0  0  0
  189.8500  175.9160  145.8660 C   0  0  2  0  0  0  0  0  0  0  0  0
  187.4300  177.8060  147.4740 C   0  0  0  0  0  2  0  0  0  0  0  0
  184.8930  177.1360  146.0980 C   0  0  0  0  0  2  0  0  0  0  0  0
  185.7820  177.4820  144.9120 C   0  0  0  0  0  2  0  0  0  0  0  0
  188.0160  177.7530  146.0700 C   0  0  1  0  0  3  0  0  0  0  0  0
  189.0260  172.4950  141.3900 C   0  0  0  0  0  3  0  0  0  0  0  0
  188.6500  174.5820  142.5670 C   0  0  0  0  0  0  0  0  0  0  0  0
  188.4020  175.2190  141.3420 C   0  0  0  0  0  3  0  0  0  0  0  0
  188.4620  174.4950  140.1480 C   0  0  0  0  0  3  0  0  0  0  0  0
  188.7730  173.1330  140.1720 C   0  0  0  0  0  3  0  0  0  0  0  0
  188.9670  173.2190  142.5840 C   0  0  0  0  0  3  0  0  0  0  0  0
  190.9770  176.6050  143.5420 S   0  0  0  0  0  0  0  0  0  0  0  0
  192.0780  174.0880  143.9200 C   0  0  0  0  0  1  0  0  0  0  0  0
  192.3630  175.4410  143.2910 C   0  0  2  0  0  3  0  0  0  0  0  0
  193.6690  176.0250  143.8080 C   0  0  0  0  0  2  0  0  0  0  0  0
  194.3630  176.4020  146.1740 C   0  0  0  0  0  1  0  0  0  0  0  0
  193.4470  176.8640  145.0560 C   0  0  0  0  0  2  0  0  0  0  0  0
  1  9  1  0  0  0  0
  2 11  1  0  0  0  0
  4  8  1  0  0  0  0
  4  6  1  1  0  0  0
  7  5  1  0  0  0  0
  9 17  1  6  0  0  0
  9  2  1  0  0  0  0
 10  1  1  6  0  0  0
 10 15  1  0  0  0  0
 11  3  1  1  0  0  0
 11  4  1  0  0  0  0
 11  8  1  0  0  0  0
 12  5  1  0  0  0  0
 13  7  1  0  0  0  0
 14 10  1  0  0  0  0
 14 13  1  0  0  0  0
 15  3  1  1  0  0  0
 15 12  1  0  0  0  0
 16 21  1  0  0  0  0
 17 21  2  0  0  0  0
 18 17  1  0  0  0  0
 19 20  1  0  0  0  0
 19 18  2  0  0  0  0
 20 16  2  0  0  0  0
 22  2  1  0  0  0  0
 24 22  1  0  0  0  0
 24 25  1  0  0  0  0
 24 23  1  1  0  0  0
 25 27  1  0  0  0  0
 27 26  1  0  0  0  0
M  END
>  <MODEL>
4

>  <REMARK>
 VINA RESULT:      -7.1      1.688      6.562
  Name = 
  5 active torsions:
  status: ('A' for Active; 'I' for Inactive)
    1  A    between atoms: N_2  and  S_6
    2  A    between atoms: S_6  and  C_21
    3  A    between atoms: C_9  and  C_15
    4  A    between atoms: C_16  and  C_17
    5  A    between atoms: C_17  and  C_21
                            x       y       z     vdW  Elec       q    Type
                         _______ _______ _______ _____ _____    ______ ____

>  <TORSDO>
F 5

$$$$
=
 OpenBabel11052418313D

 27 30  0  0  1  0  0  0  0  0999 V2000
  187.6430  175.4750  142.6930 C   0  0  0  0  0  2  0  0  0  0  0  0
  188.8470  177.1050  144.2030 N   0  0  0  0  0  0  0  0  0  0  0  0
  190.3720  175.0380  143.8240 C   0  0  0  0  0  2  0  0  0  0  0  0
  191.3260  177.4600  144.2860 C   0  0  1  0  0  3  0  0  0  0  0  0
  190.8460  172.8000  140.8280 C   0  0  0  0  0  2  0  0  0  0  0  0
  192.6310  176.7070  144.4850 C   0  0  0  0  0  1  0  0  0  0  0  0
  190.1870  173.0810  139.4740 C   0  0  0  0  0  2  0  0  0  0  0  0
  190.9270  177.3850  142.8190 C   0  0  0  0  0  2  0  0  0  0  0  0
  187.9050  176.9320  143.0820 C   0  0  2  0  0  3  0  0  0  0  0  0
  188.7630  175.0120  141.7760 C   0  0  2  0  0  3  0  0  0  0  0  0
  190.1700  176.5670  143.8480 C   0  0  2  0  0  0  0  0  0  0  0  0
  191.1050  174.0570  141.6460 C   0  0  0  0  0  2  0  0  0  0  0  0
  189.0940  174.1550  139.4720 C   0  0  0  0  0  2  0  0  0  0  0  0
  188.1920  174.1020  140.6970 C   0  0  0  0  0  2  0  0  0  0  0  0
  189.9060  174.3270  142.5460 C   0  0  1  0  0  3  0  0  0  0  0  0
  184.2480  177.9180  142.9800 C   0  0  0  0  0  3  0  0  0  0  0  0
  186.6510  177.7370  143.2550 C   0  0  0  0  0  0  0  0  0  0  0  0
  186.6830  179.0430  143.7680 C   0  0  0  0  0  3  0  0  0  0  0  0
  185.5010  179.7790  143.8910 C   0  0  0  0  0  3  0  0  0  0  0  0
  184.2840  179.2170  143.4970 C   0  0  0  0  0  3  0  0  0  0  0  0
  185.4300  177.1820  142.8560 C   0  0  0  0  0  3  0  0  0  0  0  0
  188.2400  176.2990  145.6780 S   0  0  0  0  0  0  0  0  0  0  0  0
  189.4120  177.8840  147.6280 C   0  0  0  0  0  1  0  0  0  0  0  0
  188.2090  177.8120  146.7030 C   0  0  2  0  0  3  0  0  0  0  0  0
  186.9070  177.9190  147.4810 C   0  0  0  0  0  2  0  0  0  0  0  0
  184.4890  177.8840  146.8710 C   0  0  0  0  0  1  0  0  0  0  0  0
  185.7970  177.1170  146.8210 C   0  0  0  0  0  2  0  0  0  0  0  0
  1  9  1  0  0  0  0
  2 22  1  0  0  0  0
  3 11  1  0  0  0  0
  4  6  1  6  0  0  0
  5 12  1  0  0  0  0
  7  5  1  0  0  0  0
  8  4  1  0  0  0  0
  9 17  1  1  0  0  0
  9  2  1  0  0  0  0
 10 14  1  6  0  0  0
 10 15  1  0  0  0  0
 10  1  1  0  0  0  0
 11  8  1  6  0  0  0
 11  2  1  0  0  0  0
 11  4  1  0  0  0  0
 13  7  1  0  0  0  0
 13 14  1  0  0  0  0
 15 12  1  6  0  0  0
 15  3  1  0  0  0  0
 16 20  1  0  0  0  0
 17 18  2  0  0  0  0
 18 19  1  0  0  0  0
 20 19  2  0  0  0  0
 21 16  2  0  0  0  0
 21 17  1  0  0  0  0
 22 24  1  0  0  0  0
 24 25  1  0  0  0  0
 24 23  1  1  0  0  0
 27 26  1  0  0  0  0
 27 25  1  0  0  0  0
M  END
>  <MODEL>
5

>  <REMARK>
 VINA RESULT:      -6.5      1.678      4.639
  Name = 
  5 active torsions:
  status: ('A' for Active; 'I' for Inactive)
    1  A    between atoms: N_2  and  S_6
    2  A    between atoms: S_6  and  C_21
    3  A    between atoms: C_9  and  C_15
    4  A    between atoms: C_16  and  C_17
    5  A    between atoms: C_17  and  C_21
                            x       y       z     vdW  Elec       q    Type
                         _______ _______ _______ _____ _____    ______ ____

>  <TORSDO>
F 5

$$$$
=
 OpenBabel11052418313D

 27 30  0  0  1  0  0  0  0  0999 V2000
  189.1270  175.4270  142.7220 C   0  0  0  0  0  2  0  0  0  0  0  0
  190.8290  174.5430  144.3690 N   0  0  0  0  0  0  0  0  0  0  0  0
  190.0370  176.8840  145.1640 C   0  0  0  0  0  2  0  0  0  0  0  0
  190.8500  175.0010  146.8320 C   0  0  1  0  0  3  0  0  0  0  0  0
  186.6890  178.6020  144.9270 C   0  0  0  0  0  2  0  0  0  0  0  0
  190.8570  176.1470  147.8300 C   0  0  0  0  0  1  0  0  0  0  0  0
  185.4350  177.8990  144.4000 C   0  0  0  0  0  2  0  0  0  0  0  0
  189.4120  174.6920  146.4400 C   0  0  0  0  0  2  0  0  0  0  0  0
  189.7410  174.2160  143.4280 C   0  0  2  0  0  3  0  0  0  0  0  0
  188.0930  176.0500  143.6440 C   0  0  2  0  0  3  0  0  0  0  0  0
  190.3250  175.3980  145.4560 C   0  0  2  0  0  0  0  0  0  0  0  0
  187.6930  177.6510  145.5640 C   0  0  0  0  0  2  0  0  0  0  0  0
  185.6650  176.5540  143.7030 C   0  0  0  0  0  2  0  0  0  0  0  0
  186.9060  176.5340  142.8220 C   0  0  0  0  0  2  0  0  0  0  0  0
  188.6810  177.1810  144.5060 C   0  0  1  0  0  3  0  0  0  0  0  0
  190.7150  172.3880  140.2550 C   0  0  0  0  0  3  0  0  0  0  0  0
  190.1070  173.1020  142.4920 C   0  0  0  0  0  0  0  0  0  0  0  0
  190.1250  171.7640  142.9150 C   0  0  0  0  0  3  0  0  0  0  0  0
  190.4420  170.7450  142.0120 C   0  0  0  0  0  3  0  0  0  0  0  0
  190.7370  171.0580  140.6830 C   0  0  0  0  0  3  0  0  0  0  0  0
  190.3970  173.4070  141.1570 C   0  0  0  0  0  3  0  0  0  0  0  0
  192.1760  175.3630  143.5270 S   0  0  0  0  0  0  0  0  0  0  0  0
  192.9420  172.9840  144.7300 C   0  0  0  0  0  1  0  0  0  0  0  0
  193.4910  174.3140  144.2420 C   0  0  2  0  0  3  0  0  0  0  0  0
  194.2310  175.0460  145.3510 C   0  0  0  0  0  2  0  0  0  0  0  0
  194.1920  177.1660  146.6640 C   0  0  0  0  0  1  0  0  0  0  0  0
  193.9740  176.5430  145.2980 C   0  0  0  0  0  2  0  0  0  0  0  0
  1  9  1  0  0  0  0
  2 11  1  0  0  0  0
  4  6  1  1  0  0  0
  5 12  1  0  0  0  0
  7  5  1  0  0  0  0
  8  4  1  0  0  0  0
  9 17  1  6  0  0  0
  9  2  1  0  0  0  0
 10  1  1  6  0  0  0
 10 15  1  0  0  0  0
 11  3  1  6  0  0  0
 11  8  1  0  0  0  0
 11  4  1  0  0  0  0
 13  7  1  0  0  0  0
 14 10  1  0  0  0  0
 14 13  1  0  0  0  0
 15  3  1  1  0  0  0
 15 12  1  0  0  0  0
 16 20  2  0  0  0  0
 16 21  1  0  0  0  0
 17 18  1  0  0  0  0
 19 18  2  0  0  0  0
 20 19  1  0  0  0  0
 21 17  2  0  0  0  0
 22 24  1  0  0  0  0
 22  2  1  0  0  0  0
 24 23  1  1  0  0  0
 24 25  1  0  0  0  0
 27 25  1  0  0  0  0
 27 26  1  0  0  0  0
M  END
>  <MODEL>
6

>  <REMARK>
 VINA RESULT:      -6.4      2.028      7.030
  Name = 
  5 active torsions:
  status: ('A' for Active; 'I' for Inactive)
    1  A    between atoms: N_2  and  S_6
    2  A    between atoms: S_6  and  C_21
    3  A    between atoms: C_9  and  C_15
    4  A    between atoms: C_16  and  C_17
    5  A    between atoms: C_17  and  C_21
                            x       y       z     vdW  Elec       q    Type
                         _______ _______ _______ _____ _____    ______ ____

>  <TORSDO>
F 5

$$$$
=
 OpenBabel11052418313D

 27 30  0  0  1  0  0  0  0  0999 V2000
  188.6480  174.5370  142.4660 C   0  0  0  0  0  2  0  0  0  0  0  0
  189.7390  176.2510  143.9710 N   0  0  0  0  0  0  0  0  0  0  0  0
  191.2700  174.1580  143.8440 C   0  0  0  0  0  2  0  0  0  0  0  0
  192.2050  176.5990  144.2380 C   0  0  1  0  0  3  0  0  0  0  0  0
  191.9680  171.7410  141.0370 C   0  0  0  0  0  2  0  0  0  0  0  0
  193.4820  175.8530  144.5890 C   0  0  0  0  0  1  0  0  0  0  0  0
  191.4250  171.9420  139.6180 C   0  0  0  0  0  2  0  0  0  0  0  0
  191.9280  176.4370  142.7500 C   0  0  0  0  0  2  0  0  0  0  0  0
  188.8900  176.0140  142.7880 C   0  0  2  0  0  3  0  0  0  0  0  0
  189.8350  174.0160  141.6750 C   0  0  2  0  0  3  0  0  0  0  0  0
  191.0810  175.6860  143.7600 C   0  0  2  0  0  0  0  0  0  0  0  0
  192.1700  173.0440  141.7970 C   0  0  0  0  0  2  0  0  0  0  0  0
  190.3460  173.0200  139.4620 C   0  0  0  0  0  2  0  0  0  0  0  0
  189.3460  173.0450  140.6090 C   0  0  0  0  0  2  0  0  0  0  0  0
  190.9040  173.3730  142.5760 C   0  0  1  0  0  3  0  0  0  0  0  0
  186.5830  179.0190  142.7430 C   0  0  0  0  0  3  0  0  0  0  0  0
  187.6350  176.8340  142.8090 C   0  0  0  0  0  0  0  0  0  0  0  0
  186.3730  176.2420  142.9730 C   0  0  0  0  0  3  0  0  0  0  0  0
  185.2240  177.0350  143.0170 C   0  0  0  0  0  3  0  0  0  0  0  0
  185.3290  178.4240  142.9010 C   0  0  0  0  0  3  0  0  0  0  0  0
  187.7340  178.2260  142.7000 C   0  0  0  0  0  3  0  0  0  0  0  0
  189.0040  175.5380  145.4360 S   0  0  0  0  0  0  0  0  0  0  0  0
  189.6370  177.5920  147.1890 C   0  0  0  0  0  1  0  0  0  0  0  0
  188.5700  177.1360  146.2090 C   0  0  2  0  0  3  0  0  0  0  0  0
  187.2030  177.0690  146.8720 C   0  0  0  0  0  2  0  0  0  0  0  0
  184.8710  177.9160  146.6180 C   0  0  0  0  0  1  0  0  0  0  0  0
  186.3430  178.2640  146.4940 C   0  0  0  0  0  2  0  0  0  0  0  0
  1  9  1  0  0  0  0
  2 22  1  0  0  0  0
  4  6  1  6  0  0  0
  5 12  1  0  0  0  0
  7  5  1  0  0  0  0
  8  4  1  0  0  0  0
  9 17  1  1  0  0  0
  9  2  1  0  0  0  0
 10 14  1  6  0  0  0
 10  1  1  0  0  0  0
 10 15  1  0  0  0  0
 11  8  1  6  0  0  0
 11  3  1  0  0  0  0
 11  2  1  0  0  0  0
 11  4  1  0  0  0  0
 13  7  1  0  0  0  0
 13 14  1  0  0  0  0
 15 12  1  6  0  0  0
 15  3  1  0  0  0  0
 16 20  1  0  0  0  0
 17 18  2  0  0  0  0
 18 19  1  0  0  0  0
 20 19  2  0  0  0  0
 21 16  2  0  0  0  0
 21 17  1  0  0  0  0
 22 24  1  0  0  0  0
 24 25  1  0  0  0  0
 24 23  1  1  0  0  0
 27 26  1  0  0  0  0
 27 25  1  0  0  0  0
M  END
>  <MODEL>
7

>  <REMARK>
 VINA RESULT:      -6.2      1.668      4.545
  Name = 
  5 active torsions:
  status: ('A' for Active; 'I' for Inactive)
    1  A    between atoms: N_2  and  S_6
    2  A    between atoms: S_6  and  C_21
    3  A    between atoms: C_9  and  C_15
    4  A    between atoms: C_16  and  C_17
    5  A    between atoms: C_17  and  C_21
                            x       y       z     vdW  Elec       q    Type
                         _______ _______ _______ _____ _____    ______ ____

>  <TORSDO>
F 5

$$$$
=
 OpenBabel11052418313D

 27 30  0  0  1  0  0  0  0  0999 V2000
  189.6100  176.0480  142.7840 C   0  0  0  0  0  2  0  0  0  0  0  0
  191.3410  175.4250  144.5170 N   0  0  0  0  0  0  0  0  0  0  0  0
  190.0460  177.5150  145.3480 C   0  0  0  0  0  2  0  0  0  0  0  0
  191.1070  175.7380  146.9920 C   0  0  1  0  0  3  0  0  0  0  0  0
  186.4460  178.5530  144.9290 C   0  0  0  0  0  2  0  0  0  0  0  0
  190.8190  176.8050  148.0350 C   0  0  0  0  0  1  0  0  0  0  0  0
  185.3950  177.6470  144.2790 C   0  0  0  0  0  2  0  0  0  0  0  0
  189.7890  175.1750  146.4790 C   0  0  0  0  0  2  0  0  0  0  0  0
  190.4060  174.9430  143.4830 C   0  0  2  0  0  3  0  0  0  0  0  0
  188.4140  176.4030  143.6500 C   0  0  2  0  0  3  0  0  0  0  0  0
  190.6060  176.1010  145.5980 C   0  0  2  0  0  0  0  0  0  0  0  0
  187.5750  177.7830  145.6010 C   0  0  0  0  0  2  0  0  0  0  0  0
  185.9350  176.4150  143.5460 C   0  0  0  0  0  2  0  0  0  0  0  0
  187.2110  176.6890  142.7620 C   0  0  0  0  0  2  0  0  0  0  0  0
  188.7050  177.5770  144.6020 C   0  0  1  0  0  3  0  0  0  0  0  0
  191.4370  173.2680  140.2460 C   0  0  0  0  0  3  0  0  0  0  0  0
  191.0480  173.9780  142.5320 C   0  0  0  0  0  0  0  0  0  0  0  0
  191.7820  172.8730  142.9910 C   0  0  0  0  0  3  0  0  0  0  0  0
  192.3440  171.9750  142.0800 C   0  0  0  0  0  3  0  0  0  0  0  0
  192.1720  172.1720  140.7080 C   0  0  0  0  0  3  0  0  0  0  0  0
  190.8740  174.1660  141.1560 C   0  0  0  0  0  3  0  0  0  0  0  0
  192.5500  176.5380  143.8160 S   0  0  0  0  0  0  0  0  0  0  0  0
  194.5600  176.5450  145.7260 C   0  0  0  0  0  1  0  0  0  0  0  0
  193.9980  175.7250  144.5770 C   0  0  2  0  0  3  0  0  0  0  0  0
  195.0680  175.4270  143.5380 C   0  0  0  0  0  2  0  0  0  0  0  0
  195.1080  174.3970  141.2670 C   0  0  0  0  0  1  0  0  0  0  0  0
  194.5050  175.4920  142.1270 C   0  0  0  0  0  2  0  0  0  0  0  0
  1  9  1  0  0  0  0
  1 10  1  0  0  0  0
  2 11  1  0  0  0  0
  4  6  1  1  0  0  0
  5 12  1  0  0  0  0
  7  5  1  0  0  0  0
  8  4  1  0  0  0  0
  9 17  1  6  0  0  0
  9  2  1  0  0  0  0
 10 14  1  6  0  0  0
 10 15  1  0  0  0  0
 11  3  1  6  0  0  0
 11  8  1  0  0  0  0
 11  4  1  0  0  0  0
 13  7  1  0  0  0  0
 14 13  1  0  0  0  0
 15  3  1  1  0  0  0
 15 12  1  0  0  0  0
 16 20  2  0  0  0  0
 16 21  1  0  0  0  0
 17 18  1  0  0  0  0
 19 18  2  0  0  0  0
 20 19  1  0  0  0  0
 21 17  2  0  0  0  0
 22  2  1  0  0  0  0
 22 24  1  0  0  0  0
 24 23  1  1  0  0  0
 25 24  1  0  0  0  0
 26 27  1  0  0  0  0
 27 25  1  0  0  0  0
M  END
>  <MODEL>
8

>  <REMARK>
 VINA RESULT:      -6.1      2.122      7.303
  Name = 
  5 active torsions:
  status: ('A' for Active; 'I' for Inactive)
    1  A    between atoms: N_2  and  S_6
    2  A    between atoms: S_6  and  C_21
    3  A    between atoms: C_9  and  C_15
    4  A    between atoms: C_16  and  C_17
    5  A    between atoms: C_17  and  C_21
                            x       y       z     vdW  Elec       q    Type
                         _______ _______ _______ _____ _____    ______ ____

>  <TORSDO>
F 5

$$$$
=
 OpenBabel11052418313D

 27 30  0  0  1  0  0  0  0  0999 V2000
  189.2530  174.1660  143.3910 C   0  0  0  0  0  2  0  0  0  0  0  0
  190.0280  176.1000  144.8220 N   0  0  0  0  0  0  0  0  0  0  0  0
  191.4600  174.0120  145.3960 C   0  0  0  0  0  2  0  0  0  0  0  0
  192.3740  176.4830  145.6110 C   0  0  1  0  0  3  0  0  0  0  0  0
  192.7000  171.1680  143.2550 C   0  0  0  0  0  2  0  0  0  0  0  0
  193.5020  175.8030  146.3700 C   0  0  0  0  0  1  0  0  0  0  0  0
  192.5150  171.1360  141.7350 C   0  0  0  0  0  2  0  0  0  0  0  0
  192.4480  176.0810  144.1450 C   0  0  0  0  0  2  0  0  0  0  0  0
  189.4730  175.6750  143.5230 C   0  0  2  0  0  3  0  0  0  0  0  0
  190.5710  173.5200  142.9980 C   0  0  2  0  0  3  0  0  0  0  0  0
  191.3580  175.5060  145.0290 C   0  0  2  0  0  0  0  0  0  0  0  0
  192.7710  172.5780  143.8260 C   0  0  0  0  0  2  0  0  0  0  0  0
  191.5480  172.1750  141.1570 C   0  0  0  0  0  2  0  0  0  0  0  0
  190.3080  172.3890  142.0130 C   0  0  0  0  0  2  0  0  0  0  0  0
  191.3710  173.0310  144.2180 C   0  0  1  0  0  3  0  0  0  0  0  0
  187.3070  178.6690  142.6860 C   0  0  0  0  0  3  0  0  0  0  0  0
  188.2810  176.4890  143.1130 C   0  0  0  0  0  0  0  0  0  0  0  0
  187.0410  175.8910  142.8430 C   0  0  0  0  0  3  0  0  0  0  0  0
  185.9420  176.6800  142.4910 C   0  0  0  0  0  3  0  0  0  0  0  0
  186.0760  178.0680  142.4120 C   0  0  0  0  0  3  0  0  0  0  0  0
  188.4070  177.8820  143.0390 C   0  0  0  0  0  3  0  0  0  0  0  0
  188.9410  175.6370  146.1630 S   0  0  0  0  0  0  0  0  0  0  0  0
  189.5280  177.9150  147.6310 C   0  0  0  0  0  1  0  0  0  0  0  0
  188.5210  177.3480  146.6450 C   0  0  2  0  0  3  0  0  0  0  0  0
  187.1050  177.4300  147.1950 C   0  0  0  0  0  2  0  0  0  0  0  0
  184.9310  177.7280  146.0100 C   0  0  0  0  0  1  0  0  0  0  0  0
  186.1020  176.7940  146.2460 C   0  0  0  0  0  2  0  0  0  0  0  0
  1  9  1  0  0  0  0
  2 11  1  0  0  0  0
  2 22  1  0  0  0  0
  4  6  1  1  0  0  0
  5 12  1  0  0  0  0
  7  5  1  0  0  0  0
  8  4  1  0  0  0  0
  9 17  1  1  0  0  0
  9  2  1  0  0  0  0
 10 14  1  6  0  0  0
 10  1  1  0  0  0  0
 10 15  1  0  0  0  0
 11  8  1  6  0  0  0
 11  3  1  0  0  0  0
 11  4  1  0  0  0  0
 13  7  1  0  0  0  0
 13 14  1  0  0  0  0
 15 12  1  6  0  0  0
 15  3  1  0  0  0  0
 16 21  1  0  0  0  0
 18 17  1  0  0  0  0
 19 18  2  0  0  0  0
 20 19  1  0  0  0  0
 20 16  2  0  0  0  0
 21 17  2  0  0  0  0
 22 24  1  0  0  0  0
 24 25  1  0  0  0  0
 24 23  1  1  0  0  0
 26 27  1  0  0  0  0
 27 25  1  0  0  0  0
M  END
>  <MODEL>
9

>  <REMARK>
 VINA RESULT:      -6.1      1.967      4.496
  Name = 
  5 active torsions:
  status: ('A' for Active; 'I' for Inactive)
    1  A    between atoms: N_2  and  S_6
    2  A    between atoms: S_6  and  C_21
    3  A    between atoms: C_9  and  C_15
    4  A    between atoms: C_16  and  C_17
    5  A    between atoms: C_17  and  C_21
                            x       y       z     vdW  Elec       q    Type
                         _______ _______ _______ _____ _____    ______ ____

>  <TORSDO>
F 5

$$$$
