=
 OpenBabel11052418583D

 34 38  0  0  1  0  0  0  0  0999 V2000
  195.1490  174.7700  142.8160 C   0  0  0  0  0  0  0  0  0  0  0  0
  195.3640  175.2180  145.2030 C   0  0  0  0  0  0  0  0  0  0  0  0
  193.3930  176.1840  144.0060 C   0  0  1  0  0  3  0  0  0  0  0  0
  191.3410  176.6650  145.3490 N   0  0  0  0  0  0  0  0  0  0  0  0
  197.0890  173.9800  144.0400 C   0  0  0  0  0  3  0  0  0  0  0  0
  196.5830  174.5370  145.2210 C   0  0  0  0  0  3  0  0  0  0  0  0
  193.4880  176.1210  146.4860 C   0  0  0  0  0  3  0  0  0  0  0  0
  194.6610  175.3660  143.9920 C   0  0  0  0  0  0  0  0  0  0  0  0
  190.8140  175.9170  147.5080 O   0  0  0  0  0  0  0  0  0  0  0  0
  196.3710  174.0920  142.8440 C   0  0  0  0  0  3  0  0  0  0  0  0
  192.5720  176.1520  142.7010 C   0  0  2  0  0  3  0  0  0  0  0  0
  194.3910  174.8920  141.5280 C   0  0  0  0  0  2  0  0  0  0  0  0
  194.7790  175.7570  146.4490 C   0  0  0  0  0  3  0  0  0  0  0  0
  190.8200  177.3150  144.1410 C   0  0  0  0  0  2  0  0  0  0  0  0
  191.0730  176.4630  142.8890 C   0  0  2  0  0  3  0  0  0  0  0  0
  190.4920  176.6200  146.5100 C   0  0  0  0  0  0  0  0  0  0  0  0
  192.5950  175.8920  145.2860 C   0  0  2  0  0  3  0  0  0  0  0  0
  192.8890  174.9620  141.7890 C   0  0  0  0  0  2  0  0  0  0  0  0
  188.1160  176.7960  146.2890 C   0  0  0  0  0  3  0  0  0  0  0  0
  189.2610  177.3550  146.5190 N   0  0  0  0  0  0  0  0  0  0  0  0
  187.1840  178.7200  144.2240 F   0  0  0  0  0  0  0  0  0  0  0  0
  186.8720  177.5750  146.2930 C   0  0  0  0  0  0  0  0  0  0  0  0
  186.2510  178.0460  144.9900 C   0  0  1  0  0  3  0  0  0  0  0  0
  184.1460  178.4190  146.3060 C   0  0  0  0  0  2  0  0  0  0  0  0
  184.9460  178.4690  147.6000 C   0  0  0  0  0  2  0  0  0  0  0  0
  186.2370  177.7160  147.4620 C   0  0  0  0  0  3  0  0  0  0  0  0
  185.0230  178.9430  145.1780 C   0  0  0  0  0  2  0  0  0  0  0  0
  190.1260  175.2570  142.7350 C   0  0  1  0  0  3  0  0  0  0  0  0
  190.5180  173.9790  143.5000 C   0  0  1  0  0  3  0  0  0  0  0  0
  189.6560  173.6980  144.7200 C   0  0  0  0  0  1  0  0  0  0  0  0
  190.4820  172.8810  142.6420 O   0  0  0  0  0  1  0  0  0  0  0  0
  187.7770  174.5310  142.0330 C   0  0  0  0  0  1  0  0  0  0  0  0
  188.4400  176.9280  141.8500 C   0  0  0  0  0  1  0  0  0  0  0  0
  188.6390  175.6360  142.6200 C   0  0  0  0  0  3  0  0  0  0  0  0
  1 10  2  0  0  0  0
  1  8  1  0  0  0  0
  2  6  1  0  0  0  0
  2 13  1  0  0  0  0
  3  8  1  6  0  0  0
  3 17  1  0  0  0  0
  4 16  1  0  0  0  0
  5  6  2  0  0  0  0
  8  2  2  0  0  0  0
 10  5  1  0  0  0  0
 11 18  1  1  0  0  0
 11 15  1  0  0  0  0
 11  3  1  0  0  0  0
 12 18  1  0  0  0  0
 12  1  1  0  0  0  0
 13  7  2  0  0  0  0
 14  4  1  0  0  0  0
 15 28  1  1  0  0  0
 15 14  1  0  0  0  0
 16 20  1  0  0  0  0
 16  9  2  0  0  0  0
 17  4  1  0  0  0  0
 17  7  1  1  0  0  0
 19 22  1  0  0  0  0
 19 20  2  0  0  0  0
 22 26  2  0  0  0  0
 23 21  1  1  0  0  0
 23 27  1  0  0  0  0
 23 22  1  0  0  0  0
 24 25  1  0  0  0  0
 26 25  1  0  0  0  0
 27 24  1  0  0  0  0
 28 34  1  1  0  0  0
 28 29  1  0  0  0  0
 29 30  1  1  0  0  0
 31 29  1  0  0  0  0
 32 34  1  0  0  0  0
 33 34  1  0  0  0  0
M  END
>  <MODEL>
1

>  <REMARK>
 VINA RESULT:      -8.5      0.000      0.000
  Name = 
  5 active torsions:
  status: ('A' for Active; 'I' for Inactive)
    1  A    between atoms: C_3  and  C_13
    2  A    between atoms: C_7  and  C_23
    3  A    between atoms: N_17  and  C_29
    4  A    between atoms: C_23  and  C_27
    5  A    between atoms: C_23  and  C_28
                            x       y       z     vdW  Elec       q    Type
                         _______ _______ _______ _____ _____    ______ ____

>  <TORSDO>
F 5

$$$$
=
 OpenBabel11052418583D

 34 38  0  0  1  0  0  0  0  0999 V2000
  194.6970  173.8640  143.1980 C   0  0  0  0  0  0  0  0  0  0  0  0
  195.0470  174.8150  145.4150 C   0  0  0  0  0  0  0  0  0  0  0  0
  193.0410  175.5660  144.1250 C   0  0  1  0  0  3  0  0  0  0  0  0
  191.0750  176.4020  145.4200 N   0  0  0  0  0  0  0  0  0  0  0  0
  196.6780  173.2920  144.4770 C   0  0  0  0  0  3  0  0  0  0  0  0
  196.2480  174.1110  145.5270 C   0  0  0  0  0  3  0  0  0  0  0  0
  193.2640  176.0430  146.5510 C   0  0  0  0  0  3  0  0  0  0  0  0
  194.2860  174.7200  144.2350 C   0  0  0  0  0  0  0  0  0  0  0  0
  190.6410  176.1640  147.7130 O   0  0  0  0  0  0  0  0  0  0  0  0
  195.9020  173.1650  143.3190 C   0  0  0  0  0  3  0  0  0  0  0  0
  192.1530  175.2790  142.8980 C   0  0  2  0  0  3  0  0  0  0  0  0
  193.8770  173.7290  141.9500 C   0  0  0  0  0  2  0  0  0  0  0  0
  194.5410  175.6340  146.5370 C   0  0  0  0  0  3  0  0  0  0  0  0
  190.5080  176.7910  144.1240 C   0  0  0  0  0  2  0  0  0  0  0  0
  190.6750  175.6770  143.0800 C   0  0  2  0  0  3  0  0  0  0  0  0
  190.2860  176.6430  146.6000 C   0  0  0  0  0  0  0  0  0  0  0  0
  192.3040  175.5890  145.4730 C   0  0  2  0  0  3  0  0  0  0  0  0
  192.3920  173.9070  142.2570 C   0  0  0  0  0  2  0  0  0  0  0  0
  187.9160  176.8520  146.3450 C   0  0  0  0  0  3  0  0  0  0  0  0
  189.0760  177.4050  146.5030 N   0  0  0  0  0  0  0  0  0  0  0  0
  187.1350  178.6550  144.1150 F   0  0  0  0  0  0  0  0  0  0  0  0
  186.6940  177.6580  146.2370 C   0  0  0  0  0  0  0  0  0  0  0  0
  186.1490  178.0560  144.8760 C   0  0  1  0  0  3  0  0  0  0  0  0
  183.9940  178.5630  146.0590 C   0  0  0  0  0  2  0  0  0  0  0  0
  184.7320  178.6810  147.3850 C   0  0  0  0  0  2  0  0  0  0  0  0
  186.0080  177.8900  147.3610 C   0  0  0  0  0  3  0  0  0  0  0  0
  184.9370  178.9910  144.9450 C   0  0  0  0  0  2  0  0  0  0  0  0
  189.6910  174.5010  143.2380 C   0  0  1  0  0  3  0  0  0  0  0  0
  188.6320  174.3440  142.1290 C   0  0  1  0  0  3  0  0  0  0  0  0
  187.4280  175.2560  142.2880 C   0  0  0  0  0  1  0  0  0  0  0  0
  189.2160  174.5540  140.8810 O   0  0  0  0  0  1  0  0  0  0  0  0
  189.9630  171.9610  143.1240 C   0  0  0  0  0  1  0  0  0  0  0  0
  189.9660  173.1100  145.3370 C   0  0  0  0  0  1  0  0  0  0  0  0
  190.3120  173.2410  143.8660 C   0  0  0  0  0  3  0  0  0  0  0  0
  1 10  2  0  0  0  0
  1  8  1  0  0  0  0
  2  6  1  0  0  0  0
  2 13  1  0  0  0  0
  3  8  1  1  0  0  0
  3 17  1  0  0  0  0
  4 17  1  0  0  0  0
  4 16  1  0  0  0  0
  5  6  2  0  0  0  0
  8  2  2  0  0  0  0
 10  5  1  0  0  0  0
 11 18  1  1  0  0  0
 11 15  1  0  0  0  0
 11  3  1  0  0  0  0
 12 18  1  0  0  0  0
 12  1  1  0  0  0  0
 13  7  2  0  0  0  0
 14  4  1  0  0  0  0
 15 28  1  1  0  0  0
 15 14  1  0  0  0  0
 16  9  2  0  0  0  0
 17  7  1  1  0  0  0
 19 20  2  0  0  0  0
 20 16  1  0  0  0  0
 22 19  1  0  0  0  0
 22 26  2  0  0  0  0
 23 21  1  6  0  0  0
 23 27  1  0  0  0  0
 23 22  1  0  0  0  0
 24 25  1  0  0  0  0
 26 25  1  0  0  0  0
 27 24  1  0  0  0  0
 28 34  1  6  0  0  0
 29 30  1  1  0  0  0
 29 28  1  0  0  0  0
 31 29  1  0  0  0  0
 32 34  1  0  0  0  0
 34 33  1  0  0  0  0
M  END
>  <MODEL>
2

>  <REMARK>
 VINA RESULT:      -8.4      0.908      1.636
  Name = 
  5 active torsions:
  status: ('A' for Active; 'I' for Inactive)
    1  A    between atoms: C_3  and  C_13
    2  A    between atoms: C_7  and  C_23
    3  A    between atoms: N_17  and  C_29
    4  A    between atoms: C_23  and  C_27
    5  A    between atoms: C_23  and  C_28
                            x       y       z     vdW  Elec       q    Type
                         _______ _______ _______ _____ _____    ______ ____

>  <TORSDO>
F 5

$$$$
=
 OpenBabel11052418583D

 34 38  0  0  1  0  0  0  0  0999 V2000
  195.1570  174.4420  142.9540 C   0  0  0  0  0  0  0  0  0  0  0  0
  195.3020  175.1380  145.2850 C   0  0  0  0  0  0  0  0  0  0  0  0
  193.2970  175.8560  143.9750 C   0  0  1  0  0  3  0  0  0  0  0  0
  191.1970  176.3400  145.2390 N   0  0  0  0  0  0  0  0  0  0  0  0
  197.1190  173.9000  144.2730 C   0  0  0  0  0  3  0  0  0  0  0  0
  196.5600  174.5400  145.3860 C   0  0  0  0  0  3  0  0  0  0  0  0
  193.3530  176.0460  146.4500 C   0  0  0  0  0  3  0  0  0  0  0  0
  194.6130  175.1210  144.0590 C   0  0  0  0  0  0  0  0  0  0  0  0
  190.6780  175.7800  147.4570 O   0  0  0  0  0  0  0  0  0  0  0  0
  196.4180  173.8470  143.0630 C   0  0  0  0  0  3  0  0  0  0  0  0
  192.5030  175.6430  142.6710 C   0  0  2  0  0  3  0  0  0  0  0  0
  194.4160  174.3880  141.6510 C   0  0  0  0  0  2  0  0  0  0  0  0
  194.6640  175.7610  146.4640 C   0  0  0  0  0  3  0  0  0  0  0  0
  190.6590  176.8330  143.9670 C   0  0  0  0  0  2  0  0  0  0  0  0
  190.9860  175.8780  142.8100 C   0  0  2  0  0  3  0  0  0  0  0  0
  190.3320  176.3580  146.3900 C   0  0  0  0  0  0  0  0  0  0  0  0
  192.4960  175.6430  145.2690 C   0  0  2  0  0  3  0  0  0  0  0  0
  192.9080  174.3900  141.8870 C   0  0  0  0  0  2  0  0  0  0  0  0
  187.9610  176.3700  146.0710 C   0  0  0  0  0  3  0  0  0  0  0  0
  189.0580  177.0120  146.3110 N   0  0  0  0  0  0  0  0  0  0  0  0
  186.0020  176.8190  148.2610 F   0  0  0  0  0  0  0  0  0  0  0  0
  186.6710  177.0670  145.9840 C   0  0  0  0  0  0  0  0  0  0  0  0
  186.0620  177.7190  147.2130 C   0  0  1  0  0  3  0  0  0  0  0  0
  184.5930  178.9870  145.6200 C   0  0  0  0  0  2  0  0  0  0  0  0
  184.8400  177.9450  144.5390 C   0  0  0  0  0  2  0  0  0  0  0  0
  186.1420  177.2330  144.7670 C   0  0  0  0  0  3  0  0  0  0  0  0
  184.6640  178.2990  146.9750 C   0  0  0  0  0  2  0  0  0  0  0  0
  190.1160  174.6060  142.7660 C   0  0  1  0  0  3  0  0  0  0  0  0
  190.5580  173.4450  143.6780 C   0  0  1  0  0  3  0  0  0  0  0  0
  189.6720  173.2410  144.8950 C   0  0  0  0  0  1  0  0  0  0  0  0
  190.6220  172.2610  142.9430 O   0  0  0  0  0  1  0  0  0  0  0  0
  187.8720  173.7300  141.9080 C   0  0  0  0  0  1  0  0  0  0  0  0
  188.3610  176.1740  141.8290 C   0  0  0  0  0  1  0  0  0  0  0  0
  188.6130  174.8780  142.5750 C   0  0  0  0  0  3  0  0  0  0  0  0
  1 10  2  0  0  0  0
  1  8  1  0  0  0  0
  2  6  1  0  0  0  0
  2 13  1  0  0  0  0
  3  8  1  1  0  0  0
  3 17  1  0  0  0  0
  4 17  1  0  0  0  0
  4 16  1  0  0  0  0
  5  6  2  0  0  0  0
  7 13  2  0  0  0  0
  8  2  2  0  0  0  0
 10  5  1  0  0  0  0
 11 18  1  1  0  0  0
 11 15  1  0  0  0  0
 11  3  1  0  0  0  0
 12 18  1  0  0  0  0
 12  1  1  0  0  0  0
 14  4  1  0  0  0  0
 15 28  1  1  0  0  0
 15 14  1  0  0  0  0
 16  9  2  0  0  0  0
 17  7  1  1  0  0  0
 19 20  2  0  0  0  0
 20 16  1  0  0  0  0
 22 19  1  0  0  0  0
 22 23  1  0  0  0  0
 23 21  1  1  0  0  0
 24 27  1  0  0  0  0
 25 26  1  0  0  0  0
 25 24  1  0  0  0  0
 26 22  2  0  0  0  0
 27 23  1  0  0  0  0
 28 34  1  1  0  0  0
 28 29  1  0  0  0  0
 29 30  1  1  0  0  0
 31 29  1  0  0  0  0
 32 34  1  0  0  0  0
 33 34  1  0  0  0  0
M  END
>  <MODEL>
3

>  <REMARK>
 VINA RESULT:      -8.3      0.955      1.271
  Name = 
  5 active torsions:
  status: ('A' for Active; 'I' for Inactive)
    1  A    between atoms: C_3  and  C_13
    2  A    between atoms: C_7  and  C_23
    3  A    between atoms: N_17  and  C_29
    4  A    between atoms: C_23  and  C_27
    5  A    between atoms: C_23  and  C_28
                            x       y       z     vdW  Elec       q    Type
                         _______ _______ _______ _____ _____    ______ ____

>  <TORSDO>
F 5

$$$$
=
 OpenBabel11052418583D

 34 38  0  0  1  0  0  0  0  0999 V2000
  186.2430  177.2460  143.7450 C   0  0  0  0  0  0  0  0  0  0  0  0
  186.9720  177.8410  145.9930 C   0  0  0  0  0  0  0  0  0  0  0  0
  188.1110  175.9210  144.8650 C   0  0  1  0  0  3  0  0  0  0  0  0
  190.4420  175.3720  145.5790 N   0  0  0  0  0  0  0  0  0  0  0  0
  185.1190  179.0130  144.9690 C   0  0  0  0  0  3  0  0  0  0  0  0
  185.9820  178.8230  146.0550 C   0  0  0  0  0  3  0  0  0  0  0  0
  189.0600  176.9590  146.9120 C   0  0  0  0  0  3  0  0  0  0  0  0
  187.0820  177.0260  144.8510 C   0  0  0  0  0  0  0  0  0  0  0  0
  191.9170  176.6840  146.8460 O   0  0  0  0  0  0  0  0  0  0  0  0
  185.2520  178.2300  143.8170 C   0  0  0  0  0  3  0  0  0  0  0  0
  188.3130  175.1890  143.5240 C   0  0  2  0  0  3  0  0  0  0  0  0
  186.3730  176.4060  142.5100 C   0  0  0  0  0  2  0  0  0  0  0  0
  187.9370  177.6670  147.1000 C   0  0  0  0  0  3  0  0  0  0  0  0
  190.3170  174.1800  144.7330 C   0  0  0  0  0  2  0  0  0  0  0  0
  189.6930  174.5190  143.3720 C   0  0  2  0  0  3  0  0  0  0  0  0
  191.6920  175.5900  146.2580 C   0  0  0  0  0  0  0  0  0  0  0  0
  189.4000  176.4150  145.5410 C   0  0  2  0  0  3  0  0  0  0  0  0
  187.8220  175.9720  142.3010 C   0  0  0  0  0  2  0  0  0  0  0  0
  193.7540  174.6440  145.4980 C   0  0  0  0  0  3  0  0  0  0  0  0
  192.6970  174.5670  146.2410 N   0  0  0  0  0  0  0  0  0  0  0  0
  196.6630  174.9130  144.9510 F   0  0  0  0  0  0  0  0  0  0  0  0
  194.7620  173.5770  145.4910 C   0  0  0  0  0  0  0  0  0  0  0  0
  196.2210  173.8910  145.7700 C   0  0  1  0  0  3  0  0  0  0  0  0
  196.5130  171.4320  146.1800 C   0  0  0  0  0  2  0  0  0  0  0  0
  195.2490  171.1340  145.3850 C   0  0  0  0  0  2  0  0  0  0  0  0
  194.3250  172.3170  145.3840 C   0  0  0  0  0  3  0  0  0  0  0  0
  197.1550  172.6870  145.6090 C   0  0  0  0  0  2  0  0  0  0  0  0
  190.6540  175.2070  142.3830 C   0  0  1  0  0  3  0  0  0  0  0  0
  191.5120  176.3550  142.9500 C   0  0  1  0  0  3  0  0  0  0  0  0
  192.9430  176.3690  142.4400 C   0  0  0  0  0  1  0  0  0  0  0  0
  190.9070  177.5810  142.6780 O   0  0  0  0  0  1  0  0  0  0  0  0
  190.2570  173.7260  140.3360 C   0  0  0  0  0  1  0  0  0  0  0  0
  192.0240  173.1130  141.9870 C   0  0  0  0  0  1  0  0  0  0  0  0
  191.2690  174.2580  141.3390 C   0  0  0  0  0  3  0  0  0  0  0  0
  1 10  2  0  0  0  0
  1  8  1  0  0  0  0
  2  6  1  0  0  0  0
  2 13  1  0  0  0  0
  3  8  1  6  0  0  0
  3 17  1  0  0  0  0
  4 16  1  0  0  0  0
  5  6  2  0  0  0  0
  7 13  2  0  0  0  0
  8  2  2  0  0  0  0
 10  5  1  0  0  0  0
 11 18  1  6  0  0  0
 11  3  1  0  0  0  0
 12  1  1  0  0  0  0
 14  4  1  0  0  0  0
 15 28  1  1  0  0  0
 15 11  1  0  0  0  0
 15 14  1  0  0  0  0
 16  9  2  0  0  0  0
 17  4  1  0  0  0  0
 17  7  1  1  0  0  0
 18 12  1  0  0  0  0
 19 20  2  0  0  0  0
 20 16  1  0  0  0  0
 22 19  1  0  0  0  0
 22 23  1  0  0  0  0
 23 21  1  6  0  0  0
 25 24  1  0  0  0  0
 26 25  1  0  0  0  0
 26 22  2  0  0  0  0
 27 23  1  0  0  0  0
 27 24  1  0  0  0  0
 28 34  1  1  0  0  0
 28 29  1  0  0  0  0
 29 30  1  6  0  0  0
 31 29  1  0  0  0  0
 32 34  1  0  0  0  0
 34 33  1  0  0  0  0
M  END
>  <MODEL>
4

>  <REMARK>
 VINA RESULT:      -8.2      2.579      7.720
  Name = 
  5 active torsions:
  status: ('A' for Active; 'I' for Inactive)
    1  A    between atoms: C_3  and  C_13
    2  A    between atoms: C_7  and  C_23
    3  A    between atoms: N_17  and  C_29
    4  A    between atoms: C_23  and  C_27
    5  A    between atoms: C_23  and  C_28
                            x       y       z     vdW  Elec       q    Type
                         _______ _______ _______ _____ _____    ______ ____

>  <TORSDO>
F 5

$$$$
=
 OpenBabel11052418583D

 34 38  0  0  1  0  0  0  0  0999 V2000
  193.0860  170.9740  143.4430 C   0  0  0  0  0  0  0  0  0  0  0  0
  191.3230  170.9270  141.7600 C   0  0  0  0  0  0  0  0  0  0  0  0
  191.0110  172.4250  143.7380 C   0  0  1  0  0  3  0  0  0  0  0  0
  189.5330  174.4210  143.4600 N   0  0  0  0  0  0  0  0  0  0  0  0
  193.2400  169.4630  141.5510 C   0  0  0  0  0  3  0  0  0  0  0  0
  192.0190  169.9390  141.0590 C   0  0  0  0  0  3  0  0  0  0  0  0
  189.5760  172.6370  141.7220 C   0  0  0  0  0  3  0  0  0  0  0  0
  191.8390  171.4220  142.9720 C   0  0  0  0  0  0  0  0  0  0  0  0
  188.7410  175.3720  141.4670 O   0  0  0  0  0  0  0  0  0  0  0  0
  193.7740  169.9830  142.7360 C   0  0  0  0  0  3  0  0  0  0  0  0
  191.7080  173.0680  144.9530 C   0  0  2  0  0  3  0  0  0  0  0  0
  193.6610  171.5180  144.7160 C   0  0  0  0  0  2  0  0  0  0  0  0
  190.0660  171.4920  141.2260 C   0  0  0  0  0  3  0  0  0  0  0  0
  189.6790  174.6100  144.9070 C   0  0  0  0  0  2  0  0  0  0  0  0
  191.1390  174.4450  145.3520 C   0  0  2  0  0  3  0  0  0  0  0  0
  188.7470  175.3810  142.7300 C   0  0  0  0  0  0  0  0  0  0  0  0
  190.3540  173.4140  142.7620 C   0  0  2  0  0  3  0  0  0  0  0  0
  193.2370  172.9700  144.9240 C   0  0  0  0  0  2  0  0  0  0  0  0
  186.6990  176.4190  143.4040 C   0  0  0  0  0  3  0  0  0  0  0  0
  187.9920  176.3700  143.4420 N   0  0  0  0  0  0  0  0  0  0  0  0
  186.5240  179.3160  142.7630 F   0  0  0  0  0  0  0  0  0  0  0  0
  185.9520  177.4490  144.1340 C   0  0  0  0  0  0  0  0  0  0  0  0
  185.4760  178.7060  143.4270 C   0  0  1  0  0  3  0  0  0  0  0  0
  183.9240  179.0290  145.3730 C   0  0  0  0  0  2  0  0  0  0  0  0
  184.7940  178.1260  146.2360 C   0  0  0  0  0  2  0  0  0  0  0  0
  185.5800  177.1680  145.3880 C   0  0  0  0  0  3  0  0  0  0  0  0
  184.8160  179.7280  144.3580 C   0  0  0  0  0  2  0  0  0  0  0  0
  192.0450  175.6500  145.0320 C   0  0  1  0  0  3  0  0  0  0  0  0
  191.7070  176.4360  143.7500 C   0  0  1  0  0  3  0  0  0  0  0  0
  191.3420  177.8900  143.9930 C   0  0  0  0  0  1  0  0  0  0  0  0
  192.7740  176.3660  142.8550 O   0  0  0  0  0  1  0  0  0  0  0  0
  194.0350  176.3110  146.4950 C   0  0  0  0  0  1  0  0  0  0  0  0
  191.7850  176.0060  147.5260 C   0  0  0  0  0  1  0  0  0  0  0  0
  192.5350  176.4160  146.2730 C   0  0  0  0  0  3  0  0  0  0  0  0
  1 12  1  0  0  0  0
  2  8  2  0  0  0  0
  3  8  1  6  0  0  0
  3 11  1  0  0  0  0
  4 14  1  0  0  0  0
  5 10  1  0  0  0  0
  6  5  2  0  0  0  0
  6  2  1  0  0  0  0
  8  1  1  0  0  0  0
  9 16  2  0  0  0  0
 10  1  2  0  0  0  0
 11 18  1  6  0  0  0
 11 15  1  0  0  0  0
 12 18  1  0  0  0  0
 13  7  2  0  0  0  0
 13  2  1  0  0  0  0
 14 15  1  0  0  0  0
 15 28  1  6  0  0  0
 16 20  1  0  0  0  0
 16  4  1  0  0  0  0
 17  7  1  6  0  0  0
 17  4  1  0  0  0  0
 17  3  1  0  0  0  0
 19 20  2  0  0  0  0
 19 22  1  0  0  0  0
 22 26  2  0  0  0  0
 23 21  1  1  0  0  0
 23 22  1  0  0  0  0
 23 27  1  0  0  0  0
 24 25  1  0  0  0  0
 26 25  1  0  0  0  0
 27 24  1  0  0  0  0
 28 34  1  1  0  0  0
 29 30  1  1  0  0  0
 29 28  1  0  0  0  0
 31 29  1  0  0  0  0
 34 32  1  0  0  0  0
 34 33  1  0  0  0  0
M  END
>  <MODEL>
5

>  <REMARK>
 VINA RESULT:      -8.1      2.688      4.687
  Name = 
  5 active torsions:
  status: ('A' for Active; 'I' for Inactive)
    1  A    between atoms: C_3  and  C_13
    2  A    between atoms: C_7  and  C_23
    3  A    between atoms: N_17  and  C_29
    4  A    between atoms: C_23  and  C_27
    5  A    between atoms: C_23  and  C_28
                            x       y       z     vdW  Elec       q    Type
                         _______ _______ _______ _____ _____    ______ ____

>  <TORSDO>
F 5

$$$$
=
 OpenBabel11052418583D

 34 38  0  0  1  0  0  0  0  0999 V2000
  187.3750  178.0590  146.8420 C   0  0  0  0  0  0  0  0  0  0  0  0
  185.7140  177.4500  145.1650 C   0  0  0  0  0  0  0  0  0  0  0  0
  188.1280  177.2940  144.5300 C   0  0  1  0  0  3  0  0  0  0  0  0
  188.7490  175.6850  142.7220 N   0  0  0  0  0  0  0  0  0  0  0  0
  185.0080  178.2950  147.3210 C   0  0  0  0  0  3  0  0  0  0  0  0
  184.6920  177.8070  146.0480 C   0  0  0  0  0  3  0  0  0  0  0  0
  186.3590  176.2460  143.1370 C   0  0  0  0  0  3  0  0  0  0  0  0
  187.0590  177.6090  145.5490 C   0  0  0  0  0  0  0  0  0  0  0  0
  187.4610  173.9420  141.8260 O   0  0  0  0  0  0  0  0  0  0  0  0
  186.3450  178.4150  147.7190 C   0  0  0  0  0  3  0  0  0  0  0  0
  189.5740  177.3040  145.0650 C   0  0  2  0  0  3  0  0  0  0  0  0
  188.8040  178.2000  147.2730 C   0  0  0  0  0  2  0  0  0  0  0  0
  185.4040  176.8710  143.8410 C   0  0  0  0  0  3  0  0  0  0  0  0
  190.0910  176.2750  142.7910 C   0  0  0  0  0  2  0  0  0  0  0  0
  190.5570  176.4450  144.2440 C   0  0  2  0  0  3  0  0  0  0  0  0
  188.5350  174.6040  141.7950 C   0  0  0  0  0  0  0  0  0  0  0  0
  187.7360  176.0400  143.7320 C   0  0  2  0  0  3  0  0  0  0  0  0
  189.6820  177.1570  146.5860 C   0  0  0  0  0  2  0  0  0  0  0  0
  189.3660  173.4210  139.8890 C   0  0  0  0  0  3  0  0  0  0  0  0
  189.5600  174.2620  140.8530 N   0  0  0  0  0  0  0  0  0  0  0  0
  191.8410  171.8740  140.4500 F   0  0  0  0  0  0  0  0  0  0  0  0
  190.4370  173.0800  138.9450 C   0  0  0  0  0  0  0  0  0  0  0  0
  191.3090  171.8580  139.1750 C   0  0  1  0  0  3  0  0  0  0  0  0
  191.9720  172.0700  136.7630 C   0  0  0  0  0  2  0  0  0  0  0  0
  191.5450  173.5300  136.7570 C   0  0  0  0  0  2  0  0  0  0  0  0
  190.5110  173.7910  137.8140 C   0  0  0  0  0  3  0  0  0  0  0  0
  192.4500  171.7140  138.1620 C   0  0  0  0  0  2  0  0  0  0  0  0
  191.0190  175.1420  144.9230 C   0  0  1  0  0  3  0  0  0  0  0  0
  190.4080  173.8350  144.3800 C   0  0  1  0  0  3  0  0  0  0  0  0
  191.4260  172.8760  143.7870 C   0  0  0  0  0  1  0  0  0  0  0  0
  189.6910  173.1910  145.3870 O   0  0  0  0  0  1  0  0  0  0  0  0
  192.6690  175.0350  146.8740 C   0  0  0  0  0  1  0  0  0  0  0  0
  193.2360  176.3640  144.8410 C   0  0  0  0  0  1  0  0  0  0  0  0
  192.4920  175.1520  145.3690 C   0  0  0  0  0  3  0  0  0  0  0  0
  1 12  1  0  0  0  0
  1 10  1  0  0  0  0
  2  8  1  0  0  0  0
  2  6  2  0  0  0  0
  3 11  1  0  0  0  0
  3  8  1  1  0  0  0
  4 14  1  0  0  0  0
  4 17  1  0  0  0  0
  5 10  2  0  0  0  0
  6  5  1  0  0  0  0
  7 13  2  0  0  0  0
  8  1  2  0  0  0  0
 11 18  1  1  0  0  0
 13  2  1  0  0  0  0
 14 15  1  0  0  0  0
 15 28  1  1  0  0  0
 15 11  1  0  0  0  0
 16  9  2  0  0  0  0
 16  4  1  0  0  0  0
 17  7  1  6  0  0  0
 17  3  1  0  0  0  0
 18 12  1  0  0  0  0
 19 20  2  0  0  0  0
 20 16  1  0  0  0  0
 22 23  1  0  0  0  0
 22 19  1  0  0  0  0
 23 21  1  1  0  0  0
 24 27  1  0  0  0  0
 25 24  1  0  0  0  0
 25 26  1  0  0  0  0
 26 22  2  0  0  0  0
 27 23  1  0  0  0  0
 28 34  1  6  0  0  0
 29 30  1  1  0  0  0
 29 28  1  0  0  0  0
 29 31  1  0  0  0  0
 33 34  1  0  0  0  0
 34 32  1  0  0  0  0
M  END
>  <MODEL>
6

>  <REMARK>
 VINA RESULT:      -8.1      3.152      8.240
  Name = 
  5 active torsions:
  status: ('A' for Active; 'I' for Inactive)
    1  A    between atoms: C_3  and  C_13
    2  A    between atoms: C_7  and  C_23
    3  A    between atoms: N_17  and  C_29
    4  A    between atoms: C_23  and  C_27
    5  A    between atoms: C_23  and  C_28
                            x       y       z     vdW  Elec       q    Type
                         _______ _______ _______ _____ _____    ______ ____

>  <TORSDO>
F 5

$$$$
=
 OpenBabel11052418583D

 34 38  0  0  1  0  0  0  0  0999 V2000
  195.6690  173.3520  143.5550 C   0  0  0  0  0  0  0  0  0  0  0  0
  195.2390  174.6670  145.5620 C   0  0  0  0  0  0  0  0  0  0  0  0
  193.6530  174.9100  143.6440 C   0  0  1  0  0  3  0  0  0  0  0  0
  191.3150  175.6310  144.1550 N   0  0  0  0  0  0  0  0  0  0  0  0
  197.2160  173.2790  145.4220 C   0  0  0  0  0  3  0  0  0  0  0  0
  196.4120  174.1730  146.1370 C   0  0  0  0  0  3  0  0  0  0  0  0
  193.0850  175.7730  145.9010 C   0  0  0  0  0  3  0  0  0  0  0  0
  194.8830  174.2830  144.2550 C   0  0  0  0  0  0  0  0  0  0  0  0
  190.2350  175.6770  146.2360 O   0  0  0  0  0  0  0  0  0  0  0  0
  196.8430  172.8660  144.1370 C   0  0  0  0  0  3  0  0  0  0  0  0
  193.2100  174.3140  142.2930 C   0  0  2  0  0  3  0  0  0  0  0  0
  195.2820  172.9110  142.1750 C   0  0  0  0  0  2  0  0  0  0  0  0
  194.3400  175.5600  146.3230 C   0  0  0  0  0  3  0  0  0  0  0  0
  191.1320  175.7320  142.7030 C   0  0  0  0  0  2  0  0  0  0  0  0
  191.7140  174.5110  141.9750 C   0  0  2  0  0  3  0  0  0  0  0  0
  190.1870  175.9260  144.9990 C   0  0  0  0  0  0  0  0  0  0  0  0
  192.5440  175.0260  144.7020 C   0  0  2  0  0  3  0  0  0  0  0  0
  193.7640  172.9120  142.0130 C   0  0  0  0  0  2  0  0  0  0  0  0
  188.4250  177.5400  144.8930 C   0  0  0  0  0  3  0  0  0  0  0  0
  188.9950  176.4770  144.4250 N   0  0  0  0  0  0  0  0  0  0  0  0
  187.9990  178.3300  142.0600 F   0  0  0  0  0  0  0  0  0  0  0  0
  187.1980  178.0770  144.2920 C   0  0  0  0  0  0  0  0  0  0  0  0
  186.9220  177.8980  142.8100 C   0  0  1  0  0  3  0  0  0  0  0  0
  184.5370  178.4720  143.3430 C   0  0  0  0  0  2  0  0  0  0  0  0
  184.9720  179.1450  144.6370 C   0  0  0  0  0  2  0  0  0  0  0  0
  186.2780  178.5850  145.1200 C   0  0  0  0  0  3  0  0  0  0  0  0
  185.6580  178.6170  142.3250 C   0  0  0  0  0  2  0  0  0  0  0  0
  190.8480  173.2400  142.0670 C   0  0  1  0  0  3  0  0  0  0  0  0
  189.8130  173.1990  143.2090 C   0  0  1  0  0  3  0  0  0  0  0  0
  188.4120  172.8200  142.7620 C   0  0  0  0  0  1  0  0  0  0  0  0
  190.2390  172.3220  144.2050 O   0  0  0  0  0  1  0  0  0  0  0  0
  190.8670  171.1620  140.5770 C   0  0  0  0  0  1  0  0  0  0  0  0
  191.0570  173.4270  139.5500 C   0  0  0  0  0  1  0  0  0  0  0  0
  190.4830  172.6270  140.7040 C   0  0  0  0  0  3  0  0  0  0  0  0
  1 10  2  0  0  0  0
  1  8  1  0  0  0  0
  2  6  1  0  0  0  0
  2 13  1  0  0  0  0
  3  8  1  1  0  0  0
  3 17  1  0  0  0  0
  4 17  1  0  0  0  0
  4 16  1  0  0  0  0
  5  6  2  0  0  0  0
  7 13  2  0  0  0  0
  8  2  2  0  0  0  0
 10  5  1  0  0  0  0
 11 18  1  1  0  0  0
 11  3  1  0  0  0  0
 12  1  1  0  0  0  0
 14  4  1  0  0  0  0
 15 28  1  1  0  0  0
 15 11  1  0  0  0  0
 15 14  1  0  0  0  0
 16  9  2  0  0  0  0
 17  7  1  1  0  0  0
 18 12  1  0  0  0  0
 20 19  2  0  0  0  0
 20 16  1  0  0  0  0
 22 19  1  0  0  0  0
 22 26  2  0  0  0  0
 23 21  1  6  0  0  0
 23 22  1  0  0  0  0
 24 25  1  0  0  0  0
 25 26  1  0  0  0  0
 27 23  1  0  0  0  0
 27 24  1  0  0  0  0
 28 34  1  6  0  0  0
 28 29  1  0  0  0  0
 29 30  1  6  0  0  0
 29 31  1  0  0  0  0
 32 34  1  0  0  0  0
 33 34  1  0  0  0  0
M  END
>  <MODEL>
7

>  <REMARK>
 VINA RESULT:      -7.7      1.778      2.308
  Name = 
  5 active torsions:
  status: ('A' for Active; 'I' for Inactive)
    1  A    between atoms: C_3  and  C_13
    2  A    between atoms: C_7  and  C_23
    3  A    between atoms: N_17  and  C_29
    4  A    between atoms: C_23  and  C_27
    5  A    between atoms: C_23  and  C_28
                            x       y       z     vdW  Elec       q    Type
                         _______ _______ _______ _____ _____    ______ ____

>  <TORSDO>
F 5

$$$$
=
 OpenBabel11052418583D

 34 38  0  0  1  0  0  0  0  0999 V2000
  195.7740  174.4960  141.6180 C   0  0  0  0  0  0  0  0  0  0  0  0
  195.9180  176.0240  143.5110 C   0  0  0  0  0  0  0  0  0  0  0  0
  193.6590  175.5880  142.5300 C   0  0  1  0  0  3  0  0  0  0  0  0
  191.6720  175.8820  144.0170 N   0  0  0  0  0  0  0  0  0  0  0  0
  197.9330  175.0780  142.5600 C   0  0  0  0  0  3  0  0  0  0  0  0
  197.3090  175.8970  143.5090 C   0  0  0  0  0  3  0  0  0  0  0  0
  193.9120  176.6980  144.7370 C   0  0  0  0  0  3  0  0  0  0  0  0
  195.1500  175.3500  142.5430 C   0  0  0  0  0  0  0  0  0  0  0  0
  191.6250  176.0690  146.3540 O   0  0  0  0  0  0  0  0  0  0  0  0
  197.1680  174.3760  141.6220 C   0  0  0  0  0  3  0  0  0  0  0  0
  192.8540  174.6830  141.5770 C   0  0  2  0  0  3  0  0  0  0  0  0
  194.9640  173.7470  140.6030 C   0  0  0  0  0  2  0  0  0  0  0  0
  195.2330  176.8300  144.5440 C   0  0  0  0  0  3  0  0  0  0  0  0
  190.8610  175.6850  142.8100 C   0  0  0  0  0  2  0  0  0  0  0  0
  191.3750  174.5040  141.9730 C   0  0  2  0  0  3  0  0  0  0  0  0
  190.9850  176.0790  145.2660 C   0  0  0  0  0  0  0  0  0  0  0  0
  193.1290  175.6540  143.9710 C   0  0  2  0  0  3  0  0  0  0  0  0
  193.5850  173.4020  141.1600 C   0  0  0  0  0  2  0  0  0  0  0  0
  189.0030  177.3620  145.6540 C   0  0  0  0  0  3  0  0  0  0  0  0
  189.5630  176.2590  145.2740 N   0  0  0  0  0  0  0  0  0  0  0  0
  187.0500  175.9280  147.3750 F   0  0  0  0  0  0  0  0  0  0  0  0
  187.5430  177.5140  145.6630 C   0  0  0  0  0  0  0  0  0  0  0  0
  186.7410  177.1930  146.9110 C   0  0  1  0  0  3  0  0  0  0  0  0
  184.8740  178.5030  145.8620 C   0  0  0  0  0  2  0  0  0  0  0  0
  185.4970  178.3180  144.4860 C   0  0  0  0  0  2  0  0  0  0  0  0
  186.9770  178.0850  144.5930 C   0  0  0  0  0  3  0  0  0  0  0  0
  185.2240  177.2930  146.7150 C   0  0  0  0  0  2  0  0  0  0  0  0
  191.0070  173.1160  142.5340 C   0  0  1  0  0  3  0  0  0  0  0  0
  190.8310  173.0210  144.0620 C   0  0  1  0  0  3  0  0  0  0  0  0
  189.5580  172.3160  144.4960 C   0  0  0  0  0  1  0  0  0  0  0  0
  191.9350  172.3850  144.6280 O   0  0  0  0  0  1  0  0  0  0  0  0
  190.7380  171.0480  141.0550 C   0  0  0  0  0  1  0  0  0  0  0  0
  189.4920  173.1370  140.5030 C   0  0  0  0  0  1  0  0  0  0  0  0
  190.0800  172.2950  141.6200 C   0  0  0  0  0  3  0  0  0  0  0  0
  1 10  2  0  0  0  0
  1  8  1  0  0  0  0
  2 13  1  0  0  0  0
  3  8  1  1  0  0  0
  3 17  1  0  0  0  0
  4 16  1  0  0  0  0
  5  6  2  0  0  0  0
  6  2  1  0  0  0  0
  8  2  2  0  0  0  0
 10  5  1  0  0  0  0
 11 18  1  1  0  0  0
 11 15  1  0  0  0  0
 11  3  1  0  0  0  0
 12 18  1  0  0  0  0
 12  1  1  0  0  0  0
 13  7  2  0  0  0  0
 14  4  1  0  0  0  0
 15 28  1  1  0  0  0
 15 14  1  0  0  0  0
 16 20  1  0  0  0  0
 16  9  2  0  0  0  0
 17  4  1  0  0  0  0
 17  7  1  1  0  0  0
 19 22  1  0  0  0  0
 20 19  2  0  0  0  0
 22 23  1  0  0  0  0
 23 21  1  6  0  0  0
 24 27  1  0  0  0  0
 25 26  1  0  0  0  0
 25 24  1  0  0  0  0
 26 22  2  0  0  0  0
 27 23  1  0  0  0  0
 28 34  1  6  0  0  0
 28 29  1  0  0  0  0
 29 30  1  6  0  0  0
 29 31  1  0  0  0  0
 32 34  1  0  0  0  0
 33 34  1  0  0  0  0
M  END
>  <MODEL>
8

>  <REMARK>
 VINA RESULT:      -7.7      1.739      2.293
  Name = 
  5 active torsions:
  status: ('A' for Active; 'I' for Inactive)
    1  A    between atoms: C_3  and  C_13
    2  A    between atoms: C_7  and  C_23
    3  A    between atoms: N_17  and  C_29
    4  A    between atoms: C_23  and  C_27
    5  A    between atoms: C_23  and  C_28
                            x       y       z     vdW  Elec       q    Type
                         _______ _______ _______ _____ _____    ______ ____

>  <TORSDO>
F 5

$$$$
=
 OpenBabel11052418583D

 34 38  0  0  1  0  0  0  0  0999 V2000
  192.1120  171.8440  140.6210 C   0  0  0  0  0  0  0  0  0  0  0  0
  190.4570  172.6720  139.0350 C   0  0  0  0  0  0  0  0  0  0  0  0
  189.9770  172.9450  141.4730 C   0  0  1  0  0  3  0  0  0  0  0  0
  188.4540  174.8050  142.1560 N   0  0  0  0  0  0  0  0  0  0  0  0
  192.4290  171.5170  138.2380 C   0  0  0  0  0  3  0  0  0  0  0  0
  191.2250  172.1810  137.9760 C   0  0  0  0  0  3  0  0  0  0  0  0
  188.6600  174.1650  139.7580 C   0  0  0  0  0  3  0  0  0  0  0  0
  190.8830  172.4740  140.3610 C   0  0  0  0  0  0  0  0  0  0  0  0
  187.7540  176.6460  140.8820 O   0  0  0  0  0  0  0  0  0  0  0  0
  192.8740  171.3540  139.5550 C   0  0  0  0  0  3  0  0  0  0  0  0
  190.5780  172.8720  142.8910 C   0  0  2  0  0  3  0  0  0  0  0  0
  192.5920  171.6570  142.0290 C   0  0  0  0  0  2  0  0  0  0  0  0
  189.2160  173.4350  138.7800 C   0  0  0  0  0  3  0  0  0  0  0  0
  188.5070  174.2250  143.5020 C   0  0  0  0  0  2  0  0  0  0  0  0
  189.9420  173.8510  143.8980 C   0  0  2  0  0  3  0  0  0  0  0  0
  187.6830  176.0060  141.9680 C   0  0  0  0  0  0  0  0  0  0  0  0
  189.3490  174.2970  141.0990 C   0  0  2  0  0  3  0  0  0  0  0  0
  192.1090  172.7980  142.9200 C   0  0  0  0  0  2  0  0  0  0  0  0
  187.0860  177.6120  143.6390 C   0  0  0  0  0  3  0  0  0  0  0  0
  186.8550  176.4920  143.0330 N   0  0  0  0  0  0  0  0  0  0  0  0
  184.7030  179.3760  143.4350 F   0  0  0  0  0  0  0  0  0  0  0  0
  186.2280  178.0800  144.7330 C   0  0  0  0  0  0  0  0  0  0  0  0
  184.7820  178.4640  144.4710 C   0  0  1  0  0  3  0  0  0  0  0  0
  184.4420  178.2680  146.9500 C   0  0  0  0  0  2  0  0  0  0  0  0
  185.9360  178.4320  147.1850 C   0  0  0  0  0  2  0  0  0  0  0  0
  186.7190  178.0070  145.9760 C   0  0  0  0  0  3  0  0  0  0  0  0
  184.0640  179.0410  145.6960 C   0  0  0  0  0  2  0  0  0  0  0  0
  190.8260  175.0470  144.3030 C   0  0  1  0  0  3  0  0  0  0  0  0
  190.8260  176.2510  143.3420 C   0  0  1  0  0  3  0  0  0  0  0  0
  190.6580  177.5950  144.0310 C   0  0  0  0  0  1  0  0  0  0  0  0
  191.9980  176.2570  142.5870 O   0  0  0  0  0  1  0  0  0  0  0  0
  192.2300  174.9420  146.4370 C   0  0  0  0  0  1  0  0  0  0  0  0
  189.7630  174.5990  146.5580 C   0  0  0  0  0  1  0  0  0  0  0  0
  190.8880  175.2990  145.8200 C   0  0  0  0  0  3  0  0  0  0  0  0
  1 12  1  0  0  0  0
  2  8  2  0  0  0  0
  3  8  1  6  0  0  0
  3 11  1  0  0  0  0
  4 14  1  0  0  0  0
  5 10  1  0  0  0  0
  6  5  2  0  0  0  0
  6  2  1  0  0  0  0
  8  1  1  0  0  0  0
  9 16  2  0  0  0  0
 10  1  2  0  0  0  0
 11 18  1  6  0  0  0
 11 15  1  0  0  0  0
 12 18  1  0  0  0  0
 13  2  1  0  0  0  0
 13  7  2  0  0  0  0
 14 15  1  0  0  0  0
 15 28  1  6  0  0  0
 16  4  1  0  0  0  0
 16 20  1  0  0  0  0
 17  7  1  6  0  0  0
 17  3  1  0  0  0  0
 17  4  1  0  0  0  0
 19 22  1  0  0  0  0
 20 19  2  0  0  0  0
 22 26  2  0  0  0  0
 23 21  1  6  0  0  0
 23 22  1  0  0  0  0
 23 27  1  0  0  0  0
 24 25  1  0  0  0  0
 26 25  1  0  0  0  0
 27 24  1  0  0  0  0
 28 34  1  1  0  0  0
 29 30  1  1  0  0  0
 29 28  1  0  0  0  0
 31 29  1  0  0  0  0
 34 32  1  0  0  0  0
 34 33  1  0  0  0  0
M  END
>  <MODEL>
9

>  <REMARK>
 VINA RESULT:      -7.7      2.788      5.045
  Name = 
  5 active torsions:
  status: ('A' for Active; 'I' for Inactive)
    1  A    between atoms: C_3  and  C_13
    2  A    between atoms: C_7  and  C_23
    3  A    between atoms: N_17  and  C_29
    4  A    between atoms: C_23  and  C_27
    5  A    between atoms: C_23  and  C_28
                            x       y       z     vdW  Elec       q    Type
                         _______ _______ _______ _____ _____    ______ ____

>  <TORSDO>
F 5

$$$$
