=
 OpenBabel11052417263D

 25 27  0  0  1  0  0  0  0  0999 V2000
  187.9320  176.0990  146.2550 C   0  0  0  0  0  0  0  0  0  0  0  0
  188.4430  175.9820  144.9390 C   0  0  0  0  0  0  0  0  0  0  0  0
  189.5340  174.4280  147.0080 C   0  0  0  0  0  3  0  0  0  0  0  0
  190.0390  174.3100  145.7150 C   0  0  0  0  0  3  0  0  0  0  0  0
  190.0250  174.9660  143.3730 C   0  0  0  0  0  0  0  0  0  0  0  0
  191.0640  174.0860  143.0930 O   0  0  0  0  0  1  0  0  0  0  0  0
  187.9390  176.7620  143.8870 C   0  0  0  0  0  3  0  0  0  0  0  0
  188.4910  175.3140  147.2750 C   0  0  0  0  0  3  0  0  0  0  0  0
  189.4990  175.7490  142.3420 C   0  0  0  0  0  3  0  0  0  0  0  0
  188.4560  176.6420  142.5960 C   0  0  0  0  0  0  0  0  0  0  0  0
  189.5070  175.0790  144.6740 C   0  0  0  0  0  0  0  0  0  0  0  0
  186.8050  177.0030  146.5940 C   0  0  0  0  0  0  0  0  0  0  0  0
  184.6620  178.6530  147.2570 C   0  0  0  0  0  3  0  0  0  0  0  0
  186.9860  178.1640  147.3740 C   0  0  0  0  0  0  0  0  0  0  0  0
  185.9200  178.9520  147.6790 N   0  0  0  0  0  0  0  0  0  0  0  0
  184.4350  177.5140  146.4860 C   0  0  0  0  0  3  0  0  0  0  0  0
  188.2820  178.5490  147.8260 N   0  0  0  0  0  1  0  0  0  0  0  0
  185.5110  176.6900  146.1580 C   0  0  0  0  0  3  0  0  0  0  0  0
  187.9170  177.4900  141.4970 C   0  0  0  0  0  2  0  0  0  0  0  0
  186.4370  177.2110  141.3010 C   0  0  0  0  0  2  0  0  0  0  0  0
  185.6430  178.5050  141.3710 C   0  0  1  0  0  3  0  0  0  0  0  0
  184.6660  178.5160  140.3720 O   0  0  0  0  0  1  0  0  0  0  0  0
  185.0250  178.6550  142.7320 C   0  0  0  0  0  0  0  0  0  0  0  0
  185.5790  179.6090  143.7400 C   0  0  0  0  0  1  0  0  0  0  0  0
  184.0590  177.9730  143.0300 O   0  0  0  0  0  0  0  0  0  0  0  0
  1 12  1  0  0  0  0
  1  8  1  0  0  0  0
  2  1  2  0  0  0  0
  3  8  2  0  0  0  0
  4  3  1  0  0  0  0
  5 11  1  0  0  0  0
  6  5  1  0  0  0  0
  7  2  1  0  0  0  0
  9 10  1  0  0  0  0
  9  5  2  0  0  0  0
 10  7  2  0  0  0  0
 11  2  1  0  0  0  0
 11  4  2  0  0  0  0
 12 14  1  0  0  0  0
 13 15  1  0  0  0  0
 14 15  2  0  0  0  0
 14 17  1  0  0  0  0
 16 13  2  0  0  0  0
 18 16  1  0  0  0  0
 18 12  2  0  0  0  0
 19 10  1  0  0  0  0
 20 21  1  0  0  0  0
 20 19  1  0  0  0  0
 21 22  1  6  0  0  0
 21 23  1  0  0  0  0
 23 25  2  0  0  0  0
 23 24  1  0  0  0  0
M  END
>  <MODEL>
1

>  <REMARK>
 VINA RESULT:      -7.4      0.000      0.000
  Name = 
  5 active torsions:
  status: ('A' for Active; 'I' for Inactive)
    1  A    between atoms: C_1  and  C_5
    2  A    between atoms: C_2  and  C_21
    3  A    between atoms: C_6  and  C_15
    4  A    between atoms: C_6  and  C_23
    5  A    between atoms: C_15  and  C_21
                            x       y       z     vdW  Elec       q    Type
                         _______ _______ _______ _____ _____    ______ ____

>  <TORSDO>
F 5

$$$$
=
 OpenBabel11052417263D

 25 27  0  0  1  0  0  0  0  0999 V2000
  188.9440  175.8610  143.6380 C   0  0  0  0  0  0  0  0  0  0  0  0
  187.8760  176.7270  143.2950 C   0  0  0  0  0  0  0  0  0  0  0  0
  188.9050  174.9480  141.3810 C   0  0  0  0  0  3  0  0  0  0  0  0
  187.8540  175.7980  141.0410 C   0  0  0  0  0  3  0  0  0  0  0  0
  186.2810  177.5550  141.6350 C   0  0  0  0  0  0  0  0  0  0  0  0
  185.7340  177.5320  140.3570 O   0  0  0  0  0  1  0  0  0  0  0  0
  187.3560  177.6460  144.2200 C   0  0  0  0  0  3  0  0  0  0  0  0
  189.4430  174.9790  142.6670 C   0  0  0  0  0  3  0  0  0  0  0  0
  185.7760  178.4540  142.5770 C   0  0  0  0  0  3  0  0  0  0  0  0
  186.3080  178.4990  143.8670 C   0  0  0  0  0  0  0  0  0  0  0  0
  187.3330  176.6910  141.9840 C   0  0  0  0  0  0  0  0  0  0  0  0
  189.5390  175.8290  144.9970 C   0  0  0  0  0  0  0  0  0  0  0  0
  190.6660  175.7100  147.5410 C   0  0  0  0  0  3  0  0  0  0  0  0
  190.6530  176.6210  145.3440 C   0  0  0  0  0  0  0  0  0  0  0  0
  191.1790  176.5430  146.5960 N   0  0  0  0  0  0  0  0  0  0  0  0
  189.5670  174.9070  147.2420 C   0  0  0  0  0  3  0  0  0  0  0  0
  191.2230  177.5350  144.4100 N   0  0  0  0  0  1  0  0  0  0  0  0
  189.0070  174.9680  145.9660 C   0  0  0  0  0  3  0  0  0  0  0  0
  185.7800  179.4770  144.8580 C   0  0  0  0  0  2  0  0  0  0  0  0
  184.4410  179.0030  145.3970 C   0  0  0  0  0  2  0  0  0  0  0  0
  184.6360  178.2530  146.7040 C   0  0  1  0  0  3  0  0  0  0  0  0
  184.7330  176.8810  146.4520 O   0  0  0  0  0  1  0  0  0  0  0  0
  185.8600  178.7610  147.4100 C   0  0  0  0  0  0  0  0  0  0  0  0
  187.0600  177.8930  147.6130 C   0  0  0  0  0  1  0  0  0  0  0  0
  185.8740  179.9010  147.8410 O   0  0  0  0  0  0  0  0  0  0  0  0
  1 12  1  0  0  0  0
  2  1  1  0  0  0  0
  2  7  1  0  0  0  0
  3  8  1  0  0  0  0
  4  3  2  0  0  0  0
  4 11  1  0  0  0  0
  5 11  1  0  0  0  0
  5  9  2  0  0  0  0
  6  5  1  0  0  0  0
  8  1  2  0  0  0  0
  9 10  1  0  0  0  0
 10  7  2  0  0  0  0
 10 19  1  0  0  0  0
 11  2  2  0  0  0  0
 12 14  2  0  0  0  0
 12 18  1  0  0  0  0
 14 15  1  0  0  0  0
 15 13  2  0  0  0  0
 16 13  1  0  0  0  0
 17 14  1  0  0  0  0
 18 16  2  0  0  0  0
 19 20  1  0  0  0  0
 20 21  1  0  0  0  0
 21 22  1  6  0  0  0
 21 23  1  0  0  0  0
 23 24  1  0  0  0  0
 23 25  2  0  0  0  0
M  END
>  <MODEL>
2

>  <REMARK>
 VINA RESULT:      -7.2      2.283      4.817
  Name = 
  5 active torsions:
  status: ('A' for Active; 'I' for Inactive)
    1  A    between atoms: C_1  and  C_5
    2  A    between atoms: C_2  and  C_21
    3  A    between atoms: C_6  and  C_15
    4  A    between atoms: C_6  and  C_23
    5  A    between atoms: C_15  and  C_21
                            x       y       z     vdW  Elec       q    Type
                         _______ _______ _______ _____ _____    ______ ____

>  <TORSDO>
F 5

$$$$
=
 OpenBabel11052417263D

 25 27  0  0  1  0  0  0  0  0999 V2000
  187.2760  177.2650  146.2210 C   0  0  0  0  0  0  0  0  0  0  0  0
  186.6440  177.3340  144.9540 C   0  0  0  0  0  0  0  0  0  0  0  0
  185.4830  178.6110  147.1700 C   0  0  0  0  0  3  0  0  0  0  0  0
  184.8590  178.6810  145.9270 C   0  0  0  0  0  3  0  0  0  0  0  0
  184.7870  178.1110  143.5630 C   0  0  0  0  0  0  0  0  0  0  0  0
  183.5950  178.8090  143.4060 O   0  0  0  0  0  1  0  0  0  0  0  0
  187.1830  176.6850  143.8330 C   0  0  0  0  0  3  0  0  0  0  0  0
  186.6800  177.9090  147.3150 C   0  0  0  0  0  3  0  0  0  0  0  0
  185.3500  177.4640  142.4610 C   0  0  0  0  0  3  0  0  0  0  0  0
  186.5460  176.7550  142.5920 C   0  0  0  0  0  0  0  0  0  0  0  0
  185.4250  178.0480  144.8150 C   0  0  0  0  0  0  0  0  0  0  0  0
  188.5640  176.5570  146.4300 C   0  0  0  0  0  0  0  0  0  0  0  0
  190.9570  175.1810  146.7950 C   0  0  0  0  0  3  0  0  0  0  0  0
  189.7770  177.0390  145.8960 C   0  0  0  0  0  0  0  0  0  0  0  0
  190.9300  176.3460  146.0950 N   0  0  0  0  0  0  0  0  0  0  0  0
  189.7810  174.6650  147.3380 C   0  0  0  0  0  3  0  0  0  0  0  0
  189.8240  178.2680  145.1750 N   0  0  0  0  0  1  0  0  0  0  0  0
  188.5850  175.3560  147.1510 C   0  0  0  0  0  3  0  0  0  0  0  0
  187.1260  176.0480  141.4170 C   0  0  0  0  0  2  0  0  0  0  0  0
  188.5380  175.5850  141.7320 C   0  0  0  0  0  2  0  0  0  0  0  0
  188.7160  174.1300  141.3310 C   0  0  1  0  0  3  0  0  0  0  0  0
  189.8020  174.0080  140.4600 O   0  0  0  0  0  1  0  0  0  0  0  0
  188.9080  173.2810  142.5550 C   0  0  0  0  0  0  0  0  0  0  0  0
  189.7090  173.7620  143.7210 C   0  0  0  0  0  1  0  0  0  0  0  0
  188.4120  172.1670  142.5970 O   0  0  0  0  0  0  0  0  0  0  0  0
  1 12  1  0  0  0  0
  1  8  1  0  0  0  0
  2  1  2  0  0  0  0
  3  8  2  0  0  0  0
  4  3  1  0  0  0  0
  5 11  1  0  0  0  0
  6  5  1  0  0  0  0
  7  2  1  0  0  0  0
  9 10  1  0  0  0  0
  9  5  2  0  0  0  0
 10  7  2  0  0  0  0
 11  2  1  0  0  0  0
 11  4  2  0  0  0  0
 12 18  1  0  0  0  0
 13 16  1  0  0  0  0
 14 15  1  0  0  0  0
 14 12  2  0  0  0  0
 15 13  2  0  0  0  0
 17 14  1  0  0  0  0
 18 16  2  0  0  0  0
 19 20  1  0  0  0  0
 19 10  1  0  0  0  0
 21 22  1  6  0  0  0
 21 20  1  0  0  0  0
 21 23  1  0  0  0  0
 23 25  2  0  0  0  0
 23 24  1  0  0  0  0
M  END
>  <MODEL>
3

>  <REMARK>
 VINA RESULT:      -7.0      1.822      5.121
  Name = 
  5 active torsions:
  status: ('A' for Active; 'I' for Inactive)
    1  A    between atoms: C_1  and  C_5
    2  A    between atoms: C_2  and  C_21
    3  A    between atoms: C_6  and  C_15
    4  A    between atoms: C_6  and  C_23
    5  A    between atoms: C_15  and  C_21
                            x       y       z     vdW  Elec       q    Type
                         _______ _______ _______ _____ _____    ______ ____

>  <TORSDO>
F 5

$$$$
=
 OpenBabel11052417263D

 25 27  0  0  1  0  0  0  0  0999 V2000
  186.5550  176.7360  142.6030 C   0  0  0  0  0  0  0  0  0  0  0  0
  186.2200  177.0590  143.9410 C   0  0  0  0  0  0  0  0  0  0  0  0
  184.6750  178.0740  141.8280 C   0  0  0  0  0  3  0  0  0  0  0  0
  184.3420  178.3930  143.1430 C   0  0  0  0  0  3  0  0  0  0  0  0
  184.7740  178.2280  145.5310 C   0  0  0  0  0  0  0  0  0  0  0  0
  183.6830  179.0440  145.8100 O   0  0  0  0  0  1  0  0  0  0  0  0
  186.9870  176.5900  145.0190 C   0  0  0  0  0  3  0  0  0  0  0  0
  185.7700  177.2530  141.5610 C   0  0  0  0  0  3  0  0  0  0  0  0
  185.5490  177.7410  146.5860 C   0  0  0  0  0  3  0  0  0  0  0  0
  186.6510  176.9210  146.3330 C   0  0  0  0  0  0  0  0  0  0  0  0
  185.1050  177.8960  144.2050 C   0  0  0  0  0  0  0  0  0  0  0  0
  187.6920  175.8460  142.2590 C   0  0  0  0  0  0  0  0  0  0  0  0
  189.7970  174.1610  141.5610 C   0  0  0  0  0  3  0  0  0  0  0  0
  189.0120  176.3300  142.1400 C   0  0  0  0  0  0  0  0  0  0  0  0
  190.0190  175.4810  141.8000 N   0  0  0  0  0  0  0  0  0  0  0  0
  188.5080  173.6390  141.6640 C   0  0  0  0  0  3  0  0  0  0  0  0
  189.3180  177.6970  142.4030 N   0  0  0  0  0  1  0  0  0  0  0  0
  187.4570  174.4870  142.0110 C   0  0  0  0  0  3  0  0  0  0  0  0
  187.4860  176.4250  147.4620 C   0  0  0  0  0  2  0  0  0  0  0  0
  188.9550  176.6820  147.1760 C   0  0  0  0  0  2  0  0  0  0  0  0
  189.7280  175.3730  147.1810 C   0  0  1  0  0  3  0  0  0  0  0  0
  188.9250  174.3510  147.6950 O   0  0  0  0  0  1  0  0  0  0  0  0
  190.1930  175.0470  145.7900 C   0  0  0  0  0  0  0  0  0  0  0  0
  189.8480  173.7490  145.1360 C   0  0  0  0  0  1  0  0  0  0  0  0
  190.8800  175.8520  145.1830 O   0  0  0  0  0  0  0  0  0  0  0  0
  1  2  1  0  0  0  0
  2 11  2  0  0  0  0
  2  7  1  0  0  0  0
  3  4  2  0  0  0  0
  4 11  1  0  0  0  0
  5  6  1  0  0  0  0
  5  9  2  0  0  0  0
  7 10  2  0  0  0  0
  8  3  1  0  0  0  0
  8  1  2  0  0  0  0
 10  9  1  0  0  0  0
 10 19  1  0  0  0  0
 11  5  1  0  0  0  0
 12  1  1  0  0  0  0
 13 16  2  0  0  0  0
 13 15  1  0  0  0  0
 14 12  1  0  0  0  0
 14 17  1  0  0  0  0
 15 14  2  0  0  0  0
 16 18  1  0  0  0  0
 18 12  2  0  0  0  0
 20 21  1  0  0  0  0
 20 19  1  0  0  0  0
 21 22  1  6  0  0  0
 23 21  1  0  0  0  0
 24 23  1  0  0  0  0
 25 23  2  0  0  0  0
M  END
>  <MODEL>
4

>  <REMARK>
 VINA RESULT:      -6.9      2.533      6.623
  Name = 
  5 active torsions:
  status: ('A' for Active; 'I' for Inactive)
    1  A    between atoms: C_1  and  C_5
    2  A    between atoms: C_2  and  C_21
    3  A    between atoms: C_6  and  C_15
    4  A    between atoms: C_6  and  C_23
    5  A    between atoms: C_15  and  C_21
                            x       y       z     vdW  Elec       q    Type
                         _______ _______ _______ _____ _____    ______ ____

>  <TORSDO>
F 5

$$$$
=
 OpenBabel11052417263D

 25 27  0  0  1  0  0  0  0  0999 V2000
  187.4520  177.5920  144.8090 C   0  0  0  0  0  0  0  0  0  0  0  0
  187.2620  177.3150  143.4330 C   0  0  0  0  0  0  0  0  0  0  0  0
  185.7900  179.3650  144.6660 C   0  0  0  0  0  3  0  0  0  0  0  0
  185.6010  179.0960  143.3120 C   0  0  0  0  0  3  0  0  0  0  0  0
  186.1250  177.8000  141.3210 C   0  0  0  0  0  0  0  0  0  0  0  0
  185.2150  178.5370  140.5710 O   0  0  0  0  0  1  0  0  0  0  0  0
  187.9620  176.2810  142.7920 C   0  0  0  0  0  3  0  0  0  0  0  0
  186.7070  178.6190  145.4070 C   0  0  0  0  0  3  0  0  0  0  0  0
  186.8410  176.7710  140.7060 C   0  0  0  0  0  3  0  0  0  0  0  0
  187.7600  176.0150  141.4360 C   0  0  0  0  0  0  0  0  0  0  0  0
  186.3260  178.0770  142.6850 C   0  0  0  0  0  0  0  0  0  0  0  0
  188.4330  176.8520  145.6420 C   0  0  0  0  0  0  0  0  0  0  0  0
  190.2550  175.4110  147.1780 C   0  0  0  0  0  3  0  0  0  0  0  0
  189.8180  177.1100  145.5730 C   0  0  0  0  0  0  0  0  0  0  0  0
  190.6830  176.3920  146.3390 N   0  0  0  0  0  0  0  0  0  0  0  0
  188.8960  175.1180  147.2770 C   0  0  0  0  0  3  0  0  0  0  0  0
  190.3300  178.1430  144.7350 N   0  0  0  0  0  1  0  0  0  0  0  0
  187.9880  175.8410  146.5040 C   0  0  0  0  0  3  0  0  0  0  0  0
  188.5020  174.9040  140.7780 C   0  0  0  0  0  2  0  0  0  0  0  0
  188.4700  173.6640  141.6550 C   0  0  0  0  0  2  0  0  0  0  0  0
  189.8830  173.1730  141.9230 C   0  0  1  0  0  3  0  0  0  0  0  0
  190.7540  173.6860  140.9570 O   0  0  0  0  0  1  0  0  0  0  0  0
  190.3130  173.5760  143.3050 C   0  0  0  0  0  0  0  0  0  0  0  0
  189.8320  172.8430  144.5150 C   0  0  0  0  0  1  0  0  0  0  0  0
  191.0590  174.5300  143.4470 O   0  0  0  0  0  0  0  0  0  0  0  0
  1  8  1  0  0  0  0
  1 12  1  0  0  0  0
  2  1  2  0  0  0  0
  3  8  2  0  0  0  0
  4  3  1  0  0  0  0
  5 11  1  0  0  0  0
  6  5  1  0  0  0  0
  7  2  1  0  0  0  0
  9  5  2  0  0  0  0
  9 10  1  0  0  0  0
 10  7  2  0  0  0  0
 11  4  2  0  0  0  0
 11  2  1  0  0  0  0
 12 18  1  0  0  0  0
 13 16  1  0  0  0  0
 14 12  2  0  0  0  0
 14 15  1  0  0  0  0
 15 13  2  0  0  0  0
 17 14  1  0  0  0  0
 18 16  2  0  0  0  0
 19 10  1  0  0  0  0
 19 20  1  0  0  0  0
 20 21  1  0  0  0  0
 21 22  1  6  0  0  0
 21 23  1  0  0  0  0
 23 25  2  0  0  0  0
 23 24  1  0  0  0  0
M  END
>  <MODEL>
5

>  <REMARK>
 VINA RESULT:      -6.9      1.992      5.263
  Name = 
  5 active torsions:
  status: ('A' for Active; 'I' for Inactive)
    1  A    between atoms: C_1  and  C_5
    2  A    between atoms: C_2  and  C_21
    3  A    between atoms: C_6  and  C_15
    4  A    between atoms: C_6  and  C_23
    5  A    between atoms: C_15  and  C_21
                            x       y       z     vdW  Elec       q    Type
                         _______ _______ _______ _____ _____    ______ ____

>  <TORSDO>
F 5

$$$$
=
 OpenBabel11052417263D

 25 27  0  0  1  0  0  0  0  0999 V2000
  190.0250  176.7360  143.5180 C   0  0  0  0  0  0  0  0  0  0  0  0
  189.7480  176.8790  144.9010 C   0  0  0  0  0  0  0  0  0  0  0  0
  192.3770  176.3870  144.0420 C   0  0  0  0  0  3  0  0  0  0  0  0
  192.1080  176.5260  145.4020 C   0  0  0  0  0  3  0  0  0  0  0  0
  190.5330  176.8980  147.2180 C   0  0  0  0  0  0  0  0  0  0  0  0
  191.5540  176.7980  148.1570 O   0  0  0  0  0  1  0  0  0  0  0  0
  188.4420  177.0980  145.3650 C   0  0  0  0  0  3  0  0  0  0  0  0
  191.3440  176.4910  143.1100 C   0  0  0  0  0  3  0  0  0  0  0  0
  189.2260  177.1260  147.6530 C   0  0  0  0  0  3  0  0  0  0  0  0
  188.1820  177.2290  146.7310 C   0  0  0  0  0  0  0  0  0  0  0  0
  190.8030  176.7690  145.8440 C   0  0  0  0  0  0  0  0  0  0  0  0
  188.9740  176.8650  142.4790 C   0  0  0  0  0  0  0  0  0  0  0  0
  187.0400  177.1380  140.4930 C   0  0  0  0  0  3  0  0  0  0  0  0
  188.3760  175.7390  141.8750 C   0  0  0  0  0  0  0  0  0  0  0  0
  187.4320  175.9050  140.9100 N   0  0  0  0  0  0  0  0  0  0  0  0
  187.6050  178.2800  141.0590 C   0  0  0  0  0  3  0  0  0  0  0  0
  188.7220  174.4180  142.2850 N   0  0  0  0  0  1  0  0  0  0  0  0
  188.5740  178.1380  142.0510 C   0  0  0  0  0  3  0  0  0  0  0  0
  186.7880  177.4480  147.2050 C   0  0  0  0  0  2  0  0  0  0  0  0
  185.8020  176.8180  146.2350 C   0  0  0  0  0  2  0  0  0  0  0  0
  184.8340  177.8670  145.7130 C   0  0  1  0  0  3  0  0  0  0  0  0
  184.8650  178.9940  146.5410 O   0  0  0  0  0  1  0  0  0  0  0  0
  185.1820  178.2280  144.2970 C   0  0  0  0  0  0  0  0  0  0  0  0
  185.5590  179.6230  143.9170 C   0  0  0  0  0  1  0  0  0  0  0  0
  185.1440  177.3680  143.4330 O   0  0  0  0  0  0  0  0  0  0  0  0
  1  2  1  0  0  0  0
  2  7  2  0  0  0  0
  2 11  1  0  0  0  0
  3  4  2  0  0  0  0
  4 11  1  0  0  0  0
  5  9  1  0  0  0  0
  5  6  1  0  0  0  0
  7 10  1  0  0  0  0
  8  1  2  0  0  0  0
  8  3  1  0  0  0  0
 10 19  1  0  0  0  0
 10  9  2  0  0  0  0
 11  5  2  0  0  0  0
 12  1  1  0  0  0  0
 13 15  2  0  0  0  0
 13 16  1  0  0  0  0
 14 17  1  0  0  0  0
 14 12  2  0  0  0  0
 15 14  1  0  0  0  0
 16 18  2  0  0  0  0
 18 12  1  0  0  0  0
 20 19  1  0  0  0  0
 21 20  1  0  0  0  0
 21 22  1  1  0  0  0
 23 21  1  0  0  0  0
 24 23  1  0  0  0  0
 25 23  2  0  0  0  0
M  END
>  <MODEL>
6

>  <REMARK>
 VINA RESULT:      -6.9      2.880      4.851
  Name = 
  5 active torsions:
  status: ('A' for Active; 'I' for Inactive)
    1  A    between atoms: C_1  and  C_5
    2  A    between atoms: C_2  and  C_21
    3  A    between atoms: C_6  and  C_15
    4  A    between atoms: C_6  and  C_23
    5  A    between atoms: C_15  and  C_21
                            x       y       z     vdW  Elec       q    Type
                         _______ _______ _______ _____ _____    ______ ____

>  <TORSDO>
F 5

$$$$
=
 OpenBabel11052417263D

 25 27  0  0  1  0  0  0  0  0999 V2000
  187.4270  177.3190  141.9080 C   0  0  0  0  0  0  0  0  0  0  0  0
  186.2300  177.6960  142.5660 C   0  0  0  0  0  0  0  0  0  0  0  0
  186.2990  177.5410  139.7630 C   0  0  0  0  0  3  0  0  0  0  0  0
  185.1200  177.9120  140.4060 C   0  0  0  0  0  3  0  0  0  0  0  0
  183.8840  178.3800  142.4480 C   0  0  0  0  0  0  0  0  0  0  0  0
  182.7380  178.6740  141.7170 O   0  0  0  0  0  1  0  0  0  0  0  0
  186.1690  177.8090  143.9630 C   0  0  0  0  0  3  0  0  0  0  0  0
  187.4410  177.2480  140.5070 C   0  0  0  0  0  3  0  0  0  0  0  0
  183.8480  178.4760  143.8410 C   0  0  0  0  0  3  0  0  0  0  0  0
  184.9850  178.1880  144.5990 C   0  0  0  0  0  0  0  0  0  0  0  0
  185.0720  177.9950  141.8020 C   0  0  0  0  0  0  0  0  0  0  0  0
  188.6650  176.9690  142.6480 C   0  0  0  0  0  0  0  0  0  0  0  0
  190.9690  176.3430  144.0830 C   0  0  0  0  0  3  0  0  0  0  0  0
  189.0190  175.6310  142.9220 C   0  0  0  0  0  0  0  0  0  0  0  0
  190.1530  175.3570  143.6230 N   0  0  0  0  0  0  0  0  0  0  0  0
  190.6570  177.6800  143.8390 C   0  0  0  0  0  3  0  0  0  0  0  0
  188.2230  174.5500  142.4460 N   0  0  0  0  0  1  0  0  0  0  0  0
  189.5020  177.9880  143.1210 C   0  0  0  0  0  3  0  0  0  0  0  0
  184.9440  178.3160  146.0820 C   0  0  0  0  0  2  0  0  0  0  0  0
  186.2430  178.9190  146.5890 C   0  0  0  0  0  2  0  0  0  0  0  0
  186.8750  178.0090  147.6290 C   0  0  1  0  0  3  0  0  0  0  0  0
  185.9400  177.0640  148.0620 O   0  0  0  0  0  1  0  0  0  0  0  0
  188.0920  177.3410  147.0550 C   0  0  0  0  0  0  0  0  0  0  0  0
  188.0190  175.9810  146.4420 C   0  0  0  0  0  1  0  0  0  0  0  0
  189.1680  177.9140  147.1010 O   0  0  0  0  0  0  0  0  0  0  0  0
  1  2  1  0  0  0  0
  1 12  1  0  0  0  0
  2  7  1  0  0  0  0
  3  4  2  0  0  0  0
  3  8  1  0  0  0  0
  4 11  1  0  0  0  0
  5  9  2  0  0  0  0
  6  5  1  0  0  0  0
  7 10  2  0  0  0  0
  8  1  2  0  0  0  0
  9 10  1  0  0  0  0
 10 19  1  0  0  0  0
 11  5  1  0  0  0  0
 11  2  2  0  0  0  0
 12 14  2  0  0  0  0
 12 18  1  0  0  0  0
 14 15  1  0  0  0  0
 15 13  2  0  0  0  0
 16 13  1  0  0  0  0
 17 14  1  0  0  0  0
 18 16  2  0  0  0  0
 19 20  1  0  0  0  0
 20 21  1  0  0  0  0
 21 22  1  6  0  0  0
 23 25  2  0  0  0  0
 23 21  1  0  0  0  0
 24 23  1  0  0  0  0
M  END
>  <MODEL>
7

>  <REMARK>
 VINA RESULT:      -6.8      2.705      6.323
  Name = 
  5 active torsions:
  status: ('A' for Active; 'I' for Inactive)
    1  A    between atoms: C_1  and  C_5
    2  A    between atoms: C_2  and  C_21
    3  A    between atoms: C_6  and  C_15
    4  A    between atoms: C_6  and  C_23
    5  A    between atoms: C_15  and  C_21
                            x       y       z     vdW  Elec       q    Type
                         _______ _______ _______ _____ _____    ______ ____

>  <TORSDO>
F 5

$$$$
=
 OpenBabel11052417263D

 25 27  0  0  1  0  0  0  0  0999 V2000
  187.9930  177.4190  146.1880 C   0  0  0  0  0  0  0  0  0  0  0  0
  187.1270  177.5530  145.0750 C   0  0  0  0  0  0  0  0  0  0  0  0
  186.3640  178.5800  147.5750 C   0  0  0  0  0  3  0  0  0  0  0  0
  185.5090  178.7140  146.4830 C   0  0  0  0  0  3  0  0  0  0  0  0
  185.0070  178.3310  144.1340 C   0  0  0  0  0  0  0  0  0  0  0  0
  183.7790  178.9700  144.2670 O   0  0  0  0  0  1  0  0  0  0  0  0
  187.4650  177.0280  143.8190 C   0  0  0  0  0  3  0  0  0  0  0  0
  187.5940  177.9390  147.4280 C   0  0  0  0  0  3  0  0  0  0  0  0
  185.3720  177.8080  142.8920 C   0  0  0  0  0  3  0  0  0  0  0  0
  186.5990  177.1600  142.7320 C   0  0  0  0  0  0  0  0  0  0  0  0
  185.8750  178.2050  145.2320 C   0  0  0  0  0  0  0  0  0  0  0  0
  189.3250  176.7720  146.0870 C   0  0  0  0  0  0  0  0  0  0  0  0
  191.8490  175.6070  145.9230 C   0  0  0  0  0  3  0  0  0  0  0  0
  189.6010  175.5290  146.6940 C   0  0  0  0  0  0  0  0  0  0  0  0
  190.8430  174.9840  146.5930 N   0  0  0  0  0  0  0  0  0  0  0  0
  191.6230  176.8380  145.3100 C   0  0  0  0  0  3  0  0  0  0  0  0
  188.5840  174.8110  147.3880 N   0  0  0  0  0  1  0  0  0  0  0  0
  190.3580  177.4180  145.3970 C   0  0  0  0  0  3  0  0  0  0  0  0
  186.9710  176.5840  141.4100 C   0  0  0  0  0  2  0  0  0  0  0  0
  188.3230  175.8990  141.5010 C   0  0  0  0  0  2  0  0  0  0  0  0
  188.1960  174.4310  141.1310 C   0  0  1  0  0  3  0  0  0  0  0  0
  188.9450  174.1650  139.9800 O   0  0  0  0  0  1  0  0  0  0  0  0
  188.6460  173.5720  142.2780 C   0  0  0  0  0  0  0  0  0  0  0  0
  189.6450  174.0620  143.2740 C   0  0  0  0  0  1  0  0  0  0  0  0
  188.1990  172.4430  142.3930 O   0  0  0  0  0  0  0  0  0  0  0  0
  1  8  1  0  0  0  0
  2 11  1  0  0  0  0
  2  1  2  0  0  0  0
  4  3  1  0  0  0  0
  5  6  1  0  0  0  0
  5 11  1  0  0  0  0
  7  2  1  0  0  0  0
  8  3  2  0  0  0  0
  9  5  2  0  0  0  0
 10  9  1  0  0  0  0
 10  7  2  0  0  0  0
 11  4  2  0  0  0  0
 12  1  1  0  0  0  0
 12 14  1  0  0  0  0
 13 15  1  0  0  0  0
 14 17  1  0  0  0  0
 15 14  2  0  0  0  0
 16 18  1  0  0  0  0
 16 13  2  0  0  0  0
 18 12  2  0  0  0  0
 19 20  1  0  0  0  0
 19 10  1  0  0  0  0
 21 22  1  6  0  0  0
 21 20  1  0  0  0  0
 21 23  1  0  0  0  0
 23 25  2  0  0  0  0
 23 24  1  0  0  0  0
M  END
>  <MODEL>
8

>  <REMARK>
 VINA RESULT:      -6.8      2.142      5.160
  Name = 
  5 active torsions:
  status: ('A' for Active; 'I' for Inactive)
    1  A    between atoms: C_1  and  C_5
    2  A    between atoms: C_2  and  C_21
    3  A    between atoms: C_6  and  C_15
    4  A    between atoms: C_6  and  C_23
    5  A    between atoms: C_15  and  C_21
                            x       y       z     vdW  Elec       q    Type
                         _______ _______ _______ _____ _____    ______ ____

>  <TORSDO>
F 5

$$$$
=
 OpenBabel11052417263D

 25 27  0  0  1  0  0  0  0  0999 V2000
  188.5820  177.2180  142.9520 C   0  0  0  0  0  0  0  0  0  0  0  0
  187.8720  177.0710  144.1690 C   0  0  0  0  0  0  0  0  0  0  0  0
  186.7680  178.5890  142.0800 C   0  0  0  0  0  3  0  0  0  0  0  0
  186.0670  178.4460  143.2750 C   0  0  0  0  0  3  0  0  0  0  0  0
  185.9020  177.5620  145.5350 C   0  0  0  0  0  0  0  0  0  0  0  0
  184.6590  178.1620  145.7060 O   0  0  0  0  0  1  0  0  0  0  0  0
  188.4060  176.3420  145.2430 C   0  0  0  0  0  3  0  0  0  0  0  0
  188.0130  177.9800  141.9200 C   0  0  0  0  0  3  0  0  0  0  0  0
  186.4530  176.8230  146.5850 C   0  0  0  0  0  3  0  0  0  0  0  0
  187.7000  176.2110  146.4400 C   0  0  0  0  0  0  0  0  0  0  0  0
  186.6060  177.6950  144.3260 C   0  0  0  0  0  0  0  0  0  0  0  0
  189.8960  176.5720  142.7140 C   0  0  0  0  0  0  0  0  0  0  0  0
  192.3490  175.3540  142.2080 C   0  0  0  0  0  3  0  0  0  0  0  0
  191.1130  177.2190  143.0120 C   0  0  0  0  0  0  0  0  0  0  0  0
  192.2950  176.5960  142.7560 N   0  0  0  0  0  0  0  0  0  0  0  0
  191.1710  174.6770  141.8940 C   0  0  0  0  0  3  0  0  0  0  0  0
  191.1280  178.5110  143.6130 N   0  0  0  0  0  1  0  0  0  0  0  0
  189.9460  175.2920  142.1470 C   0  0  0  0  0  3  0  0  0  0  0  0
  188.2900  175.4450  147.5720 C   0  0  0  0  0  2  0  0  0  0  0  0
  189.5270  174.6960  147.1070 C   0  0  0  0  0  2  0  0  0  0  0  0
  190.7770  175.5070  147.4050 C   0  0  1  0  0  3  0  0  0  0  0  0
  191.2970  175.1350  148.6480 O   0  0  0  0  0  1  0  0  0  0  0  0
  191.7900  175.3070  146.3140 C   0  0  0  0  0  0  0  0  0  0  0  0
  193.0140  176.1590  146.2200 C   0  0  0  0  0  1  0  0  0  0  0  0
  191.6060  174.4400  145.4760 O   0  0  0  0  0  0  0  0  0  0  0  0
  1  2  1  0  0  0  0
  2 11  2  0  0  0  0
  2  7  1  0  0  0  0
  3  4  2  0  0  0  0
  4 11  1  0  0  0  0
  5  6  1  0  0  0  0
  5  9  2  0  0  0  0
  7 10  2  0  0  0  0
  8  3  1  0  0  0  0
  8  1  2  0  0  0  0
 10  9  1  0  0  0  0
 10 19  1  0  0  0  0
 11  5  1  0  0  0  0
 12  1  1  0  0  0  0
 12 14  1  0  0  0  0
 13 15  1  0  0  0  0
 14 17  1  0  0  0  0
 15 14  2  0  0  0  0
 16 18  1  0  0  0  0
 16 13  2  0  0  0  0
 18 12  2  0  0  0  0
 20 21  1  0  0  0  0
 20 19  1  0  0  0  0
 21 22  1  1  0  0  0
 23 21  1  0  0  0  0
 24 23  1  0  0  0  0
 25 23  2  0  0  0  0
M  END
>  <MODEL>
9

>  <REMARK>
 VINA RESULT:      -6.8      2.555      6.823
  Name = 
  5 active torsions:
  status: ('A' for Active; 'I' for Inactive)
    1  A    between atoms: C_1  and  C_5
    2  A    between atoms: C_2  and  C_21
    3  A    between atoms: C_6  and  C_15
    4  A    between atoms: C_6  and  C_23
    5  A    between atoms: C_15  and  C_21
                            x       y       z     vdW  Elec       q    Type
                         _______ _______ _______ _____ _____    ______ ____

>  <TORSDO>
F 5

$$$$
