=
 OpenBabel11052418473D

 34 38  0  0  0  0  0  0  0  0999 V2000
  186.8940  177.0160  146.5680 C   0  0  0  0  0  0  0  0  0  0  0  0
  185.8150  178.6780  145.1650 C   0  0  0  0  0  0  0  0  0  0  0  0
  187.4170  176.9810  144.1730 C   0  0  0  0  0  0  0  0  0  0  0  0
  187.8960  176.5860  141.8270 C   0  0  0  0  0  0  0  0  0  0  0  0
  185.1730  178.4410  147.4910 C   0  0  0  0  0  3  0  0  0  0  0  0
  192.7290  176.5340  143.0120 C   0  0  0  0  0  2  0  0  0  0  0  0
  193.1530  175.2150  142.3740 C   0  0  0  0  0  2  0  0  0  0  0  0
  185.0420  179.0750  146.2590 C   0  0  0  0  0  3  0  0  0  0  0  0
  185.9260  177.6520  142.3170 N   0  0  0  0  0  0  0  0  0  0  0  0
  190.5300  174.8370  143.6690 N   0  0  0  0  0  0  0  0  0  0  0  0
  186.6850  177.5540  145.2670 C   0  0  0  0  0  0  0  0  0  0  0  0
  191.9600  174.5660  141.6810 C   0  0  0  0  0  2  0  0  0  0  0  0
  184.7920  178.0670  140.1870 N   0  0  0  0  0  2  0  0  0  0  0  0
  187.2340  176.8140  140.3020 S   0  0  0  0  0  0  0  0  0  0  0  0
  186.1180  177.4350  147.6510 C   0  0  0  0  0  3  0  0  0  0  0  0
  188.7270  175.6730  145.7700 C   0  0  0  0  0  3  0  0  0  0  0  0
  191.4400  175.1440  144.7680 C   0  0  0  0  0  2  0  0  0  0  0  0
  187.9040  176.0940  146.8050 C   0  0  0  0  0  3  0  0  0  0  0  0
  185.7710  179.4880  144.0390 O   0  0  0  0  0  1  0  0  0  0  0  0
  189.0020  175.8690  142.1140 N   0  0  0  0  0  0  0  0  0  0  0  0
  191.0160  173.8870  142.6730 C   0  0  0  0  0  2  0  0  0  0  0  0
  189.3500  175.6250  143.4080 C   0  0  0  0  0  0  0  0  0  0  0  0
  185.8820  177.5770  140.9650 C   0  0  0  0  0  0  0  0  0  0  0  0
  192.2840  176.3870  144.4730 C   0  0  0  0  0  2  0  0  0  0  0  0
  187.0790  177.1260  142.8060 C   0  0  0  0  0  0  0  0  0  0  0  0
  188.5220  176.1140  144.4600 C   0  0  0  0  0  0  0  0  0  0  0  0
  183.6440  178.7080  140.8030 C   0  0  0  0  0  2  0  0  0  0  0  0
  182.3880  177.9450  140.4470 C   0  0  0  0  0  2  0  0  0  0  0  0
  181.4340  178.0480  141.5380 N   0  0  0  0  0  2  0  0  0  0  0  0
  179.4880  177.9730  139.7580 O   0  0  0  0  0  0  0  0  0  0  0  0
  180.3060  180.1790  140.4390 O   0  0  0  0  0  0  0  0  0  0  0  0
  179.9980  178.7860  140.9140 S   0  0  0  0  0  0  0  0  0  0  0  0
  178.5040  177.5760  142.6700 O   0  0  0  0  0  1  0  0  0  0  0  0
  178.7430  178.8570  142.1760 C   0  0  0  0  0  2  0  0  0  0  0  0
  1 18  1  0  0  0  0
  1 15  2  0  0  0  0
  2 11  2  0  0  0  0
  2  8  1  0  0  0  0
  3 26  1  0  0  0  0
  3 11  1  0  0  0  0
  4 20  2  0  0  0  0
  4 25  1  0  0  0  0
  5 15  1  0  0  0  0
  6 24  1  0  0  0  0
  7  6  1  0  0  0  0
  8  5  2  0  0  0  0
  9 25  1  0  0  0  0
 10 17  1  0  0  0  0
 11  1  1  0  0  0  0
 12  7  1  0  0  0  0
 12 21  1  0  0  0  0
 13 27  1  0  0  0  0
 13 23  1  0  0  0  0
 14 23  1  0  0  0  0
 14  4  1  0  0  0  0
 16 18  2  0  0  0  0
 19  2  1  0  0  0  0
 20 22  1  0  0  0  0
 21 10  1  0  0  0  0
 22 10  1  0  0  0  0
 22 26  2  0  0  0  0
 23  9  2  0  0  0  0
 24 17  1  0  0  0  0
 25  3  2  0  0  0  0
 26 16  1  0  0  0  0
 28 27  1  0  0  0  0
 28 29  1  0  0  0  0
 30 32  2  0  0  0  0
 31 32  2  0  0  0  0
 32 29  1  0  0  0  0
 32 34  1  0  0  0  0
 34 33  1  0  0  0  0
M  END
>  <MODEL>
1

>  <REMARK>
 VINA RESULT:      -9.1      0.000      0.000
  Name = 
  5 active torsions:
  status: ('A' for Active; 'I' for Inactive)
    1  A    between atoms: C_3  and  C_13
    2  A    between atoms: C_3  and  N_17
    3  A    between atoms: C_13  and  N_33
    4  A    between atoms: C_14  and  S_34
    5  A    between atoms: N_33  and  S_34
                            x       y       z     vdW  Elec       q    Type
                         _______ _______ _______ _____ _____    ______ ____

>  <TORSDO>
F 5

$$$$
=
 OpenBabel11052418473D

 34 38  0  0  0  0  0  0  0  0999 V2000
  189.1820  174.3440  141.4360 C   0  0  0  0  0  0  0  0  0  0  0  0
  191.3980  175.0330  142.1500 C   0  0  0  0  0  0  0  0  0  0  0  0
  189.3430  175.6670  143.4940 C   0  0  0  0  0  0  0  0  0  0  0  0
  189.2660  176.7390  145.6690 C   0  0  0  0  0  0  0  0  0  0  0  0
  191.1350  173.5000  140.2890 C   0  0  0  0  0  3  0  0  0  0  0  0
  185.7690  179.7740  143.8440 C   0  0  0  0  0  2  0  0  0  0  0  0
  184.6860  179.6130  144.9050 C   0  0  0  0  0  2  0  0  0  0  0  0
  191.9500  174.2470  141.1340 C   0  0  0  0  0  3  0  0  0  0  0  0
  191.2230  175.6890  145.1020 N   0  0  0  0  0  0  0  0  0  0  0  0
  185.8610  176.9660  144.3480 N   0  0  0  0  0  0  0  0  0  0  0  0
  189.9950  175.0090  142.3970 C   0  0  0  0  0  0  0  0  0  0  0  0
  185.1640  178.6590  145.9950 C   0  0  0  0  0  2  0  0  0  0  0  0
  192.7440  175.9410  147.0040 N   0  0  0  0  0  2  0  0  0  0  0  0
  190.2070  176.9920  147.0360 S   0  0  0  0  0  0  0  0  0  0  0  0
  189.7540  173.5730  140.4220 C   0  0  0  0  0  3  0  0  0  0  0  0
  187.1850  175.2650  142.4180 C   0  0  0  0  0  3  0  0  0  0  0  0
  185.2350  177.3610  143.0900 C   0  0  0  0  0  2  0  0  0  0  0  0
  187.8000  174.4810  141.4540 C   0  0  0  0  0  3  0  0  0  0  0  0
  192.2580  175.8980  142.8120 O   0  0  0  0  0  1  0  0  0  0  0  0
  187.9570  177.0400  145.5390 N   0  0  0  0  0  0  0  0  0  0  0  0
  185.0800  177.1970  145.5590 C   0  0  0  0  0  2  0  0  0  0  0  0
  187.2650  176.6410  144.4360 C   0  0  0  0  0  0  0  0  0  0  0  0
  191.4990  176.1570  146.3430 C   0  0  0  0  0  0  0  0  0  0  0  0
  185.6330  178.7820  142.6820 C   0  0  0  0  0  2  0  0  0  0  0  0
  189.9750  176.0470  144.7030 C   0  0  0  0  0  0  0  0  0  0  0  0
  187.9280  175.8830  143.4280 C   0  0  0  0  0  0  0  0  0  0  0  0
  193.8260  175.2070  146.3710 C   0  0  0  0  0  2  0  0  0  0  0  0
  194.9460  176.1620  146.0210 C   0  0  0  0  0  2  0  0  0  0  0  0
  194.8450  176.5350  144.6210 N   0  0  0  0  0  2  0  0  0  0  0  0
  195.2820  174.6030  142.8770 O   0  0  0  0  0  0  0  0  0  0  0  0
  196.8980  174.8620  144.7000 O   0  0  0  0  0  0  0  0  0  0  0  0
  196.0050  175.5980  143.7410 S   0  0  0  0  0  0  0  0  0  0  0  0
  196.2960  176.9590  141.5390 O   0  0  0  0  0  1  0  0  0  0  0  0
  196.9940  176.6580  142.7070 C   0  0  0  0  0  2  0  0  0  0  0  0
  1 18  2  0  0  0  0
  1 11  1  0  0  0  0
  2 11  1  0  0  0  0
  2 19  1  0  0  0  0
  3 25  1  0  0  0  0
  4 14  1  0  0  0  0
  5 15  2  0  0  0  0
  5  8  1  0  0  0  0
  6  7  1  0  0  0  0
  7 12  1  0  0  0  0
  8  2  2  0  0  0  0
  9 23  2  0  0  0  0
 10 22  1  0  0  0  0
 10 21  1  0  0  0  0
 11  3  2  0  0  0  0
 15  1  1  0  0  0  0
 16 26  2  0  0  0  0
 17 10  1  0  0  0  0
 18 16  1  0  0  0  0
 20  4  1  0  0  0  0
 21 12  1  0  0  0  0
 22 20  2  0  0  0  0
 23 13  1  0  0  0  0
 23 14  1  0  0  0  0
 24 17  1  0  0  0  0
 24  6  1  0  0  0  0
 25  9  1  0  0  0  0
 25  4  2  0  0  0  0
 26  3  1  0  0  0  0
 26 22  1  0  0  0  0
 27 13  1  0  0  0  0
 28 27  1  0  0  0  0
 29 28  1  0  0  0  0
 30 32  2  0  0  0  0
 32 29  1  0  0  0  0
 32 31  2  0  0  0  0
 33 34  1  0  0  0  0
 34 32  1  0  0  0  0
M  END
>  <MODEL>
2

>  <REMARK>
 VINA RESULT:      -8.2      5.358      9.867
  Name = 
  5 active torsions:
  status: ('A' for Active; 'I' for Inactive)
    1  A    between atoms: C_3  and  C_13
    2  A    between atoms: C_3  and  N_17
    3  A    between atoms: C_13  and  N_33
    4  A    between atoms: C_14  and  S_34
    5  A    between atoms: N_33  and  S_34
                            x       y       z     vdW  Elec       q    Type
                         _______ _______ _______ _____ _____    ______ ____

>  <TORSDO>
F 5

$$$$
=
 OpenBabel11052418473D

 34 38  0  0  0  0  0  0  0  0999 V2000
  189.6040  174.1120  145.1460 C   0  0  0  0  0  0  0  0  0  0  0  0
  189.1630  176.5000  145.1340 C   0  0  0  0  0  0  0  0  0  0  0  0
  188.8610  175.1120  143.0330 C   0  0  0  0  0  0  0  0  0  0  0  0
  187.9080  175.8140  140.9150 C   0  0  0  0  0  0  0  0  0  0  0  0
  189.6370  175.3550  147.2190 C   0  0  0  0  0  3  0  0  0  0  0  0
  191.7520  173.5970  138.6610 C   0  0  0  0  0  2  0  0  0  0  0  0
  191.0110  172.7210  137.6550 C   0  0  0  0  0  2  0  0  0  0  0  0
  189.3480  176.5220  146.5190 C   0  0  0  0  0  3  0  0  0  0  0  0
  187.3720  177.0680  142.7580 N   0  0  0  0  0  0  0  0  0  0  0  0
  189.5720  172.6280  140.2280 N   0  0  0  0  0  0  0  0  0  0  0  0
  189.1750  175.2630  144.4260 C   0  0  0  0  0  0  0  0  0  0  0  0
  189.5070  172.9390  137.7860 C   0  0  0  0  0  2  0  0  0  0  0  0
  185.8590  178.8380  142.0000 N   0  0  0  0  0  2  0  0  0  0  0  0
  186.8910  176.9770  140.2620 S   0  0  0  0  0  0  0  0  0  0  0  0
  189.7940  174.1590  146.5280 C   0  0  0  0  0  3  0  0  0  0  0  0
  189.7500  172.8360  143.1080 C   0  0  0  0  0  3  0  0  0  0  0  0
  190.8710  172.0260  140.5130 C   0  0  0  0  0  2  0  0  0  0  0  0
  189.8870  172.9240  144.4850 C   0  0  0  0  0  3  0  0  0  0  0  0
  189.0800  177.7270  144.4920 O   0  0  0  0  0  1  0  0  0  0  0  0
  188.3970  174.7340  140.2710 N   0  0  0  0  0  0  0  0  0  0  0  0
  188.9210  172.2060  138.9920 C   0  0  0  0  0  2  0  0  0  0  0  0
  189.0840  173.7770  140.9540 C   0  0  0  0  0  0  0  0  0  0  0  0
  186.6870  177.6990  141.7740 C   0  0  0  0  0  0  0  0  0  0  0  0
  192.0220  172.8940  139.9970 C   0  0  0  0  0  2  0  0  0  0  0  0
  188.0920  176.0240  142.2710 C   0  0  0  0  0  0  0  0  0  0  0  0
  189.2650  173.9120  142.3610 C   0  0  0  0  0  0  0  0  0  0  0  0
  185.7080  179.4190  143.3220 C   0  0  0  0  0  2  0  0  0  0  0  0
  184.5300  178.7790  144.0230 C   0  0  0  0  0  2  0  0  0  0  0  0
  184.5140  179.1900  145.4160 N   0  0  0  0  0  2  0  0  0  0  0  0
  185.6850  176.8260  145.4530 O   0  0  0  0  0  0  0  0  0  0  0  0
  183.9360  177.2420  147.1170 O   0  0  0  0  0  0  0  0  0  0  0  0
  185.0830  177.8580  146.3640 S   0  0  0  0  0  0  0  0  0  0  0  0
  186.0980  179.7460  147.8430 O   0  0  0  0  0  1  0  0  0  0  0  0
  186.3200  178.4090  147.5200 C   0  0  0  0  0  2  0  0  0  0  0  0
  1 15  2  0  0  0  0
  2  8  1  0  0  0  0
  3 11  1  0  0  0  0
  4 25  1  0  0  0  0
  6 24  1  0  0  0  0
  7 12  1  0  0  0  0
  7  6  1  0  0  0  0
  8  5  2  0  0  0  0
 10 17  1  0  0  0  0
 10 22  1  0  0  0  0
 11  2  2  0  0  0  0
 11  1  1  0  0  0  0
 12 21  1  0  0  0  0
 13 27  1  0  0  0  0
 14  4  1  0  0  0  0
 14 23  1  0  0  0  0
 15  5  1  0  0  0  0
 16 18  2  0  0  0  0
 18  1  1  0  0  0  0
 19  2  1  0  0  0  0
 20  4  2  0  0  0  0
 20 22  1  0  0  0  0
 21 10  1  0  0  0  0
 22 26  2  0  0  0  0
 23 13  1  0  0  0  0
 23  9  2  0  0  0  0
 24 17  1  0  0  0  0
 25  9  1  0  0  0  0
 25  3  2  0  0  0  0
 26  3  1  0  0  0  0
 26 16  1  0  0  0  0
 27 28  1  0  0  0  0
 28 29  1  0  0  0  0
 29 32  1  0  0  0  0
 30 32  2  0  0  0  0
 32 31  2  0  0  0  0
 32 34  1  0  0  0  0
 34 33  1  0  0  0  0
M  END
>  <MODEL>
3

>  <REMARK>
 VINA RESULT:      -8.0      3.612      4.940
  Name = 
  5 active torsions:
  status: ('A' for Active; 'I' for Inactive)
    1  A    between atoms: C_3  and  C_13
    2  A    between atoms: C_3  and  N_17
    3  A    between atoms: C_13  and  N_33
    4  A    between atoms: C_14  and  S_34
    5  A    between atoms: N_33  and  S_34
                            x       y       z     vdW  Elec       q    Type
                         _______ _______ _______ _____ _____    ______ ____

>  <TORSDO>
F 5

$$$$
=
 OpenBabel11052418473D

 34 38  0  0  0  0  0  0  0  0999 V2000
  191.4370  175.9050  146.2080 C   0  0  0  0  0  0  0  0  0  0  0  0
  191.3380  174.0230  144.6780 C   0  0  0  0  0  0  0  0  0  0  0  0
  189.5920  175.8600  144.5930 C   0  0  0  0  0  0  0  0  0  0  0  0
  187.8390  176.1670  142.9440 C   0  0  0  0  0  0  0  0  0  0  0  0
  193.2560  174.3160  146.1310 C   0  0  0  0  0  3  0  0  0  0  0  0
  184.6880  176.9700  146.7120 C   0  0  0  0  0  2  0  0  0  0  0  0
  184.0670  178.2910  146.2720 C   0  0  0  0  0  2  0  0  0  0  0  0
  192.5790  173.5930  145.1540 C   0  0  0  0  0  3  0  0  0  0  0  0
  189.6260  174.8700  142.3270 N   0  0  0  0  0  0  0  0  0  0  0  0
  186.9630  178.3810  145.7220 N   0  0  0  0  0  0  0  0  0  0  0  0
  190.7870  175.2610  145.1170 C   0  0  0  0  0  0  0  0  0  0  0  0
  184.6550  178.7220  144.9330 C   0  0  0  0  0  2  0  0  0  0  0  0
  189.2300  174.1660  140.0150 N   0  0  0  0  0  2  0  0  0  0  0  0
  187.4410  175.7520  141.3680 S   0  0  0  0  0  0  0  0  0  0  0  0
  192.6710  175.4520  146.6770 C   0  0  0  0  0  3  0  0  0  0  0  0
  189.5950  177.4370  146.4620 C   0  0  0  0  0  3  0  0  0  0  0  0
  186.8690  178.2750  147.1760 C   0  0  0  0  0  2  0  0  0  0  0  0
  190.8390  176.9730  146.8650 C   0  0  0  0  0  3  0  0  0  0  0  0
  190.6400  173.1440  143.8600 O   0  0  0  0  0  1  0  0  0  0  0  0
  187.1790  177.0480  143.7240 N   0  0  0  0  0  0  0  0  0  0  0  0
  186.0510  179.3240  145.0830 C   0  0  0  0  0  2  0  0  0  0  0  0
  187.6920  177.4210  144.9300 C   0  0  0  0  0  0  0  0  0  0  0  0
  188.8600  174.8520  141.2090 C   0  0  0  0  0  0  0  0  0  0  0  0
  185.9260  177.1460  147.6000 C   0  0  0  0  0  2  0  0  0  0  0  0
  189.0350  175.5820  143.3210 C   0  0  0  0  0  0  0  0  0  0  0  0
  188.9450  176.8900  145.3530 C   0  0  0  0  0  0  0  0  0  0  0  0
  190.4670  173.4110  139.9230 C   0  0  0  0  0  2  0  0  0  0  0  0
  190.1510  171.9390  139.7780 C   0  0  0  0  0  2  0  0  0  0  0  0
  190.0840  171.3260  141.0940 N   0  0  0  0  0  2  0  0  0  0  0  0
  191.9840  169.9930  139.8400 O   0  0  0  0  0  0  0  0  0  0  0  0
  190.7940  168.8330  141.6390 O   0  0  0  0  0  0  0  0  0  0  0  0
  191.3550  170.1550  141.1940 S   0  0  0  0  0  0  0  0  0  0  0  0
  193.1210  171.9150  141.9460 O   0  0  0  0  0  1  0  0  0  0  0  0
  192.5950  170.6900  142.3540 C   0  0  0  0  0  2  0  0  0  0  0  0
  1 15  2  0  0  0  0
  1 18  1  0  0  0  0
  2 11  2  0  0  0  0
  2  8  1  0  0  0  0
  3 11  1  0  0  0  0
  3 26  1  0  0  0  0
  4 25  1  0  0  0  0
  4 20  2  0  0  0  0
  5 15  1  0  0  0  0
  6 24  1  0  0  0  0
  7  6  1  0  0  0  0
  8  5  2  0  0  0  0
  9 25  1  0  0  0  0
 10 17  1  0  0  0  0
 11  1  1  0  0  0  0
 12 21  1  0  0  0  0
 12  7  1  0  0  0  0
 13 23  1  0  0  0  0
 14  4  1  0  0  0  0
 16 18  2  0  0  0  0
 17 24  1  0  0  0  0
 19  2  1  0  0  0  0
 20 22  1  0  0  0  0
 21 10  1  0  0  0  0
 22 26  2  0  0  0  0
 22 10  1  0  0  0  0
 23 14  1  0  0  0  0
 23  9  2  0  0  0  0
 25  3  2  0  0  0  0
 26 16  1  0  0  0  0
 27 13  1  0  0  0  0
 28 27  1  0  0  0  0
 28 29  1  0  0  0  0
 29 32  1  0  0  0  0
 30 32  2  0  0  0  0
 32 31  2  0  0  0  0
 32 34  1  0  0  0  0
 33 34  1  0  0  0  0
M  END
>  <MODEL>
4

>  <REMARK>
 VINA RESULT:      -7.8      4.993      8.411
  Name = 
  5 active torsions:
  status: ('A' for Active; 'I' for Inactive)
    1  A    between atoms: C_3  and  C_13
    2  A    between atoms: C_3  and  N_17
    3  A    between atoms: C_13  and  N_33
    4  A    between atoms: C_14  and  S_34
    5  A    between atoms: N_33  and  S_34
                            x       y       z     vdW  Elec       q    Type
                         _______ _______ _______ _____ _____    ______ ____

>  <TORSDO>
F 5

$$$$
=
 OpenBabel11052418473D

 34 38  0  0  0  0  0  0  0  0999 V2000
  191.4980  175.7830  146.1870 C   0  0  0  0  0  0  0  0  0  0  0  0
  191.4010  173.9070  144.6500 C   0  0  0  0  0  0  0  0  0  0  0  0
  189.6550  175.7450  144.5700 C   0  0  0  0  0  0  0  0  0  0  0  0
  187.9050  176.0580  142.9190 C   0  0  0  0  0  0  0  0  0  0  0  0
  193.3170  174.1940  146.1070 C   0  0  0  0  0  3  0  0  0  0  0  0
  184.7490  176.8470  146.6860 C   0  0  0  0  0  2  0  0  0  0  0  0
  184.1280  178.1700  146.2510 C   0  0  0  0  0  2  0  0  0  0  0  0
  192.6410  173.4750  145.1260 C   0  0  0  0  0  3  0  0  0  0  0  0
  189.6920  174.7630  142.2990 N   0  0  0  0  0  0  0  0  0  0  0  0
  187.0260  178.2620  145.7050 N   0  0  0  0  0  0  0  0  0  0  0  0
  190.8500  175.1440  145.0930 C   0  0  0  0  0  0  0  0  0  0  0  0
  184.7190  178.6060  144.9140 C   0  0  0  0  0  2  0  0  0  0  0  0
  189.2990  174.0680  139.9850 N   0  0  0  0  0  2  0  0  0  0  0  0
  187.5090  175.6490  141.3410 S   0  0  0  0  0  0  0  0  0  0  0  0
  192.7320  175.3280  146.6560 C   0  0  0  0  0  3  0  0  0  0  0  0
  189.6570  177.3150  146.4440 C   0  0  0  0  0  3  0  0  0  0  0  0
  186.9300  178.1500  147.1580 C   0  0  0  0  0  2  0  0  0  0  0  0
  190.9000  176.8490  146.8470 C   0  0  0  0  0  3  0  0  0  0  0  0
  190.7040  173.0320  143.8280 O   0  0  0  0  0  1  0  0  0  0  0  0
  187.2440  176.9370  143.7020 N   0  0  0  0  0  0  0  0  0  0  0  0
  186.1150  179.2080  145.0690 C   0  0  0  0  0  2  0  0  0  0  0  0
  187.7550  177.3040  144.9100 C   0  0  0  0  0  0  0  0  0  0  0  0
  188.9280  174.7500  141.1810 C   0  0  0  0  0  0  0  0  0  0  0  0
  185.9860  177.0200  147.5770 C   0  0  0  0  0  2  0  0  0  0  0  0
  189.1010  175.4720  143.2960 C   0  0  0  0  0  0  0  0  0  0  0  0
  189.0080  176.7710  145.3320 C   0  0  0  0  0  0  0  0  0  0  0  0
  190.5360  173.3140  139.8910 C   0  0  0  0  0  2  0  0  0  0  0  0
  190.2570  171.9600  139.2770 C   0  0  0  0  0  2  0  0  0  0  0  0
  189.2030  172.0880  138.2840 N   0  0  0  0  0  2  0  0  0  0  0  0
  189.2190  171.3040  135.7650 O   0  0  0  0  0  0  0  0  0  0  0  0
  191.3850  171.7380  136.8230 O   0  0  0  0  0  0  0  0  0  0  0  0
  189.9550  172.1920  136.7290 S   0  0  0  0  0  0  0  0  0  0  0  0
  188.8200  174.5350  136.6970 O   0  0  0  0  0  1  0  0  0  0  0  0
  189.9060  173.8680  136.1320 C   0  0  0  0  0  2  0  0  0  0  0  0
  1 15  2  0  0  0  0
  1 18  1  0  0  0  0
  2 11  2  0  0  0  0
  2  8  1  0  0  0  0
  3 11  1  0  0  0  0
  3 26  1  0  0  0  0
  4 25  1  0  0  0  0
  4 20  2  0  0  0  0
  5 15  1  0  0  0  0
  6 24  1  0  0  0  0
  7  6  1  0  0  0  0
  8  5  2  0  0  0  0
  9 25  1  0  0  0  0
 10 17  1  0  0  0  0
 11  1  1  0  0  0  0
 12 21  1  0  0  0  0
 12  7  1  0  0  0  0
 13 23  1  0  0  0  0
 14  4  1  0  0  0  0
 16 18  2  0  0  0  0
 17 24  1  0  0  0  0
 19  2  1  0  0  0  0
 20 22  1  0  0  0  0
 21 10  1  0  0  0  0
 22 26  2  0  0  0  0
 22 10  1  0  0  0  0
 23 14  1  0  0  0  0
 23  9  2  0  0  0  0
 25  3  2  0  0  0  0
 26 16  1  0  0  0  0
 27 13  1  0  0  0  0
 28 27  1  0  0  0  0
 29 28  1  0  0  0  0
 30 32  2  0  0  0  0
 32 31  2  0  0  0  0
 32 29  1  0  0  0  0
 34 33  1  0  0  0  0
 34 32  1  0  0  0  0
M  END
>  <MODEL>
5

>  <REMARK>
 VINA RESULT:      -7.8      4.640      7.842
  Name = 
  5 active torsions:
  status: ('A' for Active; 'I' for Inactive)
    1  A    between atoms: C_3  and  C_13
    2  A    between atoms: C_3  and  N_17
    3  A    between atoms: C_13  and  N_33
    4  A    between atoms: C_14  and  S_34
    5  A    between atoms: N_33  and  S_34
                            x       y       z     vdW  Elec       q    Type
                         _______ _______ _______ _____ _____    ______ ____

>  <TORSDO>
F 5

$$$$
=
 OpenBabel11052418473D

 34 38  0  0  0  0  0  0  0  0999 V2000
  191.5960  176.0830  146.3500 C   0  0  0  0  0  0  0  0  0  0  0  0
  191.6470  174.0930  144.9610 C   0  0  0  0  0  0  0  0  0  0  0  0
  189.8230  175.8320  144.6740 C   0  0  0  0  0  0  0  0  0  0  0  0
  188.1290  175.9330  142.9410 C   0  0  0  0  0  0  0  0  0  0  0  0
  193.4880  174.5830  146.4610 C   0  0  0  0  0  3  0  0  0  0  0  0
  184.7910  176.8500  146.5160 C   0  0  0  0  0  2  0  0  0  0  0  0
  184.1270  178.1040  145.9570 C   0  0  0  0  0  2  0  0  0  0  0  0
  192.8860  173.7590  145.5150 C   0  0  0  0  0  3  0  0  0  0  0  0
  189.9970  174.6830  142.4900 N   0  0  0  0  0  0  0  0  0  0  0  0
  187.0370  178.2960  145.5120 N   0  0  0  0  0  0  0  0  0  0  0  0
  191.0220  175.3310  145.2860 C   0  0  0  0  0  0  0  0  0  0  0  0
  184.7510  178.4650  144.6130 C   0  0  0  0  0  2  0  0  0  0  0  0
  189.7310  173.7960  140.2240 N   0  0  0  0  0  2  0  0  0  0  0  0
  187.8160  175.3860  141.3860 S   0  0  0  0  0  0  0  0  0  0  0  0
  192.8290  175.7270  146.8980 C   0  0  0  0  0  3  0  0  0  0  0  0
  189.6770  177.5380  146.4190 C   0  0  0  0  0  3  0  0  0  0  0  0
  186.8880  178.2910  146.9650 C   0  0  0  0  0  2  0  0  0  0  0  0
  190.9230  177.1650  146.9030 C   0  0  0  0  0  3  0  0  0  0  0  0
  191.0250  173.1250  144.1850 O   0  0  0  0  0  1  0  0  0  0  0  0
  187.3970  176.8350  143.6280 N   0  0  0  0  0  0  0  0  0  0  0  0
  186.1100  179.1450  144.7710 C   0  0  0  0  0  2  0  0  0  0  0  0
  187.8420  177.3180  144.8210 C   0  0  0  0  0  0  0  0  0  0  0  0
  189.2800  174.5470  141.3490 C   0  0  0  0  0  0  0  0  0  0  0  0
  185.9810  177.1500  147.4360 C   0  0  0  0  0  2  0  0  0  0  0  0
  189.3340  175.4360  143.4060 C   0  0  0  0  0  0  0  0  0  0  0  0
  189.0990  176.8800  145.3300 C   0  0  0  0  0  0  0  0  0  0  0  0
  191.0040  173.0980  140.2350 C   0  0  0  0  0  2  0  0  0  0  0  0
  192.1320  174.1040  140.1900 C   0  0  0  0  0  2  0  0  0  0  0  0
  193.1440  173.7410  141.1670 N   0  0  0  0  0  2  0  0  0  0  0  0
  192.9040  176.1190  142.2850 O   0  0  0  0  0  0  0  0  0  0  0  0
  194.5670  175.8750  140.5040 O   0  0  0  0  0  0  0  0  0  0  0  0
  193.9260  175.1970  141.6820 S   0  0  0  0  0  0  0  0  0  0  0  0
  195.4100  175.9570  143.6830 O   0  0  0  0  0  1  0  0  0  0  0  0
  195.1710  174.8290  142.9010 C   0  0  0  0  0  2  0  0  0  0  0  0
  1 15  2  0  0  0  0
  1 18  1  0  0  0  0
  2 11  2  0  0  0  0
  2  8  1  0  0  0  0
  3 11  1  0  0  0  0
  3 26  1  0  0  0  0
  4 25  1  0  0  0  0
  4 20  2  0  0  0  0
  5 15  1  0  0  0  0
  6 24  1  0  0  0  0
  7  6  1  0  0  0  0
  8  5  2  0  0  0  0
  9 25  1  0  0  0  0
 10 17  1  0  0  0  0
 11  1  1  0  0  0  0
 12 21  1  0  0  0  0
 12  7  1  0  0  0  0
 13 27  1  0  0  0  0
 13 23  1  0  0  0  0
 14  4  1  0  0  0  0
 16 18  2  0  0  0  0
 17 24  1  0  0  0  0
 19  2  1  0  0  0  0
 20 22  1  0  0  0  0
 21 10  1  0  0  0  0
 22 26  2  0  0  0  0
 22 10  1  0  0  0  0
 23 14  1  0  0  0  0
 23  9  2  0  0  0  0
 25  3  2  0  0  0  0
 26 16  1  0  0  0  0
 28 27  1  0  0  0  0
 28 29  1  0  0  0  0
 29 32  1  0  0  0  0
 31 32  2  0  0  0  0
 32 30  2  0  0  0  0
 32 34  1  0  0  0  0
 34 33  1  0  0  0  0
M  END
>  <MODEL>
6

>  <REMARK>
 VINA RESULT:      -7.7      5.100      8.579
  Name = 
  5 active torsions:
  status: ('A' for Active; 'I' for Inactive)
    1  A    between atoms: C_3  and  C_13
    2  A    between atoms: C_3  and  N_17
    3  A    between atoms: C_13  and  N_33
    4  A    between atoms: C_14  and  S_34
    5  A    between atoms: N_33  and  S_34
                            x       y       z     vdW  Elec       q    Type
                         _______ _______ _______ _____ _____    ______ ____

>  <TORSDO>
F 5

$$$$
=
 OpenBabel11052418473D

 34 38  0  0  0  0  0  0  0  0999 V2000
  187.6820  176.2880  145.0820 C   0  0  0  0  0  0  0  0  0  0  0  0
  187.4620  176.7280  142.7050 C   0  0  0  0  0  0  0  0  0  0  0  0
  189.4380  175.4180  143.6070 C   0  0  0  0  0  0  0  0  0  0  0  0
  191.1480  174.2530  142.3420 C   0  0  0  0  0  0  0  0  0  0  0  0
  185.6610  177.2990  144.2240 C   0  0  0  0  0  3  0  0  0  0  0  0
  194.5280  176.3370  145.3420 C   0  0  0  0  0  2  0  0  0  0  0  0
  195.3060  175.1000  145.7790 C   0  0  0  0  0  2  0  0  0  0  0  0
  186.1940  177.2650  142.9400 C   0  0  0  0  0  3  0  0  0  0  0  0
  189.1780  174.6940  141.2560 N   0  0  0  0  0  0  0  0  0  0  0  0
  192.4290  174.4480  145.7640 N   0  0  0  0  0  0  0  0  0  0  0  0
  188.1940  176.1180  143.7650 C   0  0  0  0  0  0  0  0  0  0  0  0
  194.7290  173.8590  145.1070 C   0  0  0  0  0  2  0  0  0  0  0  0
  189.3800  173.7580  139.0030 N   0  0  0  0  0  2  0  0  0  0  0  0
  191.4220  173.5750  140.8310 S   0  0  0  0  0  0  0  0  0  0  0  0
  186.4170  176.8390  145.2960 C   0  0  0  0  0  3  0  0  0  0  0  0
  189.7250  175.4370  146.0350 C   0  0  0  0  0  3  0  0  0  0  0  0
  192.5660  175.4790  146.7890 C   0  0  0  0  0  2  0  0  0  0  0  0
  188.4460  175.9530  146.1930 C   0  0  0  0  0  3  0  0  0  0  0  0
  188.0000  176.9160  141.4390 O   0  0  0  0  0  1  0  0  0  0  0  0
  191.9530  174.1440  143.4190 N   0  0  0  0  0  0  0  0  0  0  0  0
  193.4350  173.3910  145.7720 C   0  0  0  0  0  2  0  0  0  0  0  0
  191.5450  174.6040  144.6340 C   0  0  0  0  0  0  0  0  0  0  0  0
  189.8880  174.0420  140.3050 C   0  0  0  0  0  0  0  0  0  0  0  0
  193.3620  176.6830  146.2770 C   0  0  0  0  0  2  0  0  0  0  0  0
  189.8990  174.8470  142.3970 C   0  0  0  0  0  0  0  0  0  0  0  0
  190.2490  175.1830  144.7650 C   0  0  0  0  0  0  0  0  0  0  0  0
  188.0490  174.1730  138.5980 C   0  0  0  0  0  2  0  0  0  0  0  0
  188.0690  174.5790  137.1410 C   0  0  0  0  0  2  0  0  0  0  0  0
  187.2740  175.7820  136.9630 N   0  0  0  0  0  2  0  0  0  0  0  0
  188.1970  175.2410  134.5520 O   0  0  0  0  0  0  0  0  0  0  0  0
  188.2480  177.5790  135.2770 O   0  0  0  0  0  0  0  0  0  0  0  0
  187.4600  176.3000  135.3220 S   0  0  0  0  0  0  0  0  0  0  0  0
  184.8710  176.0260  135.3920 O   0  0  0  0  0  1  0  0  0  0  0  0
  185.8650  176.5610  134.5740 C   0  0  0  0  0  2  0  0  0  0  0  0
  1 15  1  0  0  0  0
  1 18  1  0  0  0  0
  2  8  2  0  0  0  0
  2 11  1  0  0  0  0
  3 11  1  0  0  0  0
  3 26  1  0  0  0  0
  4 25  1  0  0  0  0
  4 20  2  0  0  0  0
  5 15  2  0  0  0  0
  6  7  1  0  0  0  0
  6 24  1  0  0  0  0
  8  5  1  0  0  0  0
  9 25  1  0  0  0  0
 10 21  1  0  0  0  0
 10 17  1  0  0  0  0
 11  1  2  0  0  0  0
 12 21  1  0  0  0  0
 12  7  1  0  0  0  0
 13 23  1  0  0  0  0
 14  4  1  0  0  0  0
 16 18  2  0  0  0  0
 19  2  1  0  0  0  0
 20 22  1  0  0  0  0
 22 26  2  0  0  0  0
 22 10  1  0  0  0  0
 23 14  1  0  0  0  0
 23  9  2  0  0  0  0
 24 17  1  0  0  0  0
 25  3  2  0  0  0  0
 26 16  1  0  0  0  0
 27 13  1  0  0  0  0
 28 27  1  0  0  0  0
 29 28  1  0  0  0  0
 30 32  2  0  0  0  0
 31 32  2  0  0  0  0
 32 29  1  0  0  0  0
 34 32  1  0  0  0  0
 34 33  1  0  0  0  0
M  END
>  <MODEL>
7

>  <REMARK>
 VINA RESULT:      -7.6      4.182      5.435
  Name = 
  5 active torsions:
  status: ('A' for Active; 'I' for Inactive)
    1  A    between atoms: C_3  and  C_13
    2  A    between atoms: C_3  and  N_17
    3  A    between atoms: C_13  and  N_33
    4  A    between atoms: C_14  and  S_34
    5  A    between atoms: N_33  and  S_34
                            x       y       z     vdW  Elec       q    Type
                         _______ _______ _______ _____ _____    ______ ____

>  <TORSDO>
F 5

$$$$
=
 OpenBabel11052418473D

 34 38  0  0  0  0  0  0  0  0999 V2000
  192.3260  176.3030  146.7460 C   0  0  0  0  0  0  0  0  0  0  0  0
  190.3470  176.8930  145.4690 C   0  0  0  0  0  0  0  0  0  0  0  0
  192.2420  175.5870  144.4020 C   0  0  0  0  0  0  0  0  0  0  0  0
  192.2830  174.5610  142.2040 C   0  0  0  0  0  0  0  0  0  0  0  0
  190.4280  177.3060  147.8570 C   0  0  0  0  0  3  0  0  0  0  0  0
  196.8030  176.5430  141.5680 C   0  0  0  0  0  2  0  0  0  0  0  0
  197.5890  175.3040  141.1500 C   0  0  0  0  0  2  0  0  0  0  0  0
  189.7560  177.3740  146.6410 C   0  0  0  0  0  3  0  0  0  0  0  0
  190.2200  175.0140  143.0970 N   0  0  0  0  0  0  0  0  0  0  0  0
  195.7600  174.5680  143.3440 N   0  0  0  0  0  0  0  0  0  0  0  0
  191.6110  176.2370  145.5170 C   0  0  0  0  0  0  0  0  0  0  0  0
  196.6630  174.0940  141.1020 C   0  0  0  0  0  2  0  0  0  0  0  0
  188.5570  174.2360  141.4770 N   0  0  0  0  0  2  0  0  0  0  0  0
  191.2530  173.9950  141.0070 S   0  0  0  0  0  0  0  0  0  0  0  0
  191.7210  176.7990  147.9030 C   0  0  0  0  0  3  0  0  0  0  0  0
  194.3160  175.4530  145.6890 C   0  0  0  0  0  3  0  0  0  0  0  0
  196.6790  175.5320  143.9420 C   0  0  0  0  0  2  0  0  0  0  0  0
  193.6580  175.9180  146.8180 C   0  0  0  0  0  3  0  0  0  0  0  0
  189.7010  177.1810  144.2760 O   0  0  0  0  0  1  0  0  0  0  0  0
  193.6230  174.4050  142.2390 N   0  0  0  0  0  0  0  0  0  0  0  0
  196.3600  173.5430  142.4950 C   0  0  0  0  0  2  0  0  0  0  0  0
  194.3310  174.7710  143.3430 C   0  0  0  0  0  0  0  0  0  0  0  0
  189.9000  174.4490  141.9080 C   0  0  0  0  0  0  0  0  0  0  0  0
  196.8170  176.7900  143.0810 C   0  0  0  0  0  2  0  0  0  0  0  0
  191.5660  175.1120  143.2520 C   0  0  0  0  0  0  0  0  0  0  0  0
  193.6440  175.3000  144.4730 C   0  0  0  0  0  0  0  0  0  0  0  0
  187.4230  174.6360  142.2910 C   0  0  0  0  0  2  0  0  0  0  0  0
  187.0850  176.0830  142.0090 C   0  0  0  0  0  2  0  0  0  0  0  0
  186.1510  176.5660  143.0120 N   0  0  0  0  0  2  0  0  0  0  0  0
  183.9600  177.9160  142.4310 O   0  0  0  0  0  0  0  0  0  0  0  0
  185.9220  178.2910  141.0150 O   0  0  0  0  0  0  0  0  0  0  0  0
  185.4570  178.0380  142.4220 S   0  0  0  0  0  0  0  0  0  0  0  0
  184.8670  179.7780  144.2670 O   0  0  0  0  0  1  0  0  0  0  0  0
  185.9380  179.4040  143.4580 C   0  0  0  0  0  2  0  0  0  0  0  0
  1 18  1  0  0  0  0
  1 15  2  0  0  0  0
  2 11  2  0  0  0  0
  2  8  1  0  0  0  0
  3 26  1  0  0  0  0
  3 11  1  0  0  0  0
  4 20  2  0  0  0  0
  4 25  1  0  0  0  0
  5 15  1  0  0  0  0
  6 24  1  0  0  0  0
  7  6  1  0  0  0  0
  8  5  2  0  0  0  0
  9 25  1  0  0  0  0
 10 17  1  0  0  0  0
 11  1  1  0  0  0  0
 12  7  1  0  0  0  0
 12 21  1  0  0  0  0
 13 23  1  0  0  0  0
 13 27  1  0  0  0  0
 14 23  1  0  0  0  0
 14  4  1  0  0  0  0
 16 18  2  0  0  0  0
 19  2  1  0  0  0  0
 20 22  1  0  0  0  0
 21 10  1  0  0  0  0
 22 10  1  0  0  0  0
 22 26  2  0  0  0  0
 23  9  2  0  0  0  0
 24 17  1  0  0  0  0
 25  3  2  0  0  0  0
 26 16  1  0  0  0  0
 28 27  1  0  0  0  0
 28 29  1  0  0  0  0
 31 32  2  0  0  0  0
 32 30  2  0  0  0  0
 32 29  1  0  0  0  0
 32 34  1  0  0  0  0
 34 33  1  0  0  0  0
M  END
>  <MODEL>
8

>  <REMARK>
 VINA RESULT:      -7.6      3.236      5.321
  Name = 
  5 active torsions:
  status: ('A' for Active; 'I' for Inactive)
    1  A    between atoms: C_3  and  C_13
    2  A    between atoms: C_3  and  N_17
    3  A    between atoms: C_13  and  N_33
    4  A    between atoms: C_14  and  S_34
    5  A    between atoms: N_33  and  S_34
                            x       y       z     vdW  Elec       q    Type
                         _______ _______ _______ _____ _____    ______ ____

>  <TORSDO>
F 5

$$$$
=
 OpenBabel11052418473D

 34 38  0  0  0  0  0  0  0  0999 V2000
  185.1400  177.6430  143.2380 C   0  0  0  0  0  0  0  0  0  0  0  0
  186.1730  177.5680  141.0420 C   0  0  0  0  0  0  0  0  0  0  0  0
  187.2340  176.3850  143.0190 C   0  0  0  0  0  0  0  0  0  0  0  0
  189.1420  174.8870  143.0020 C   0  0  0  0  0  0  0  0  0  0  0  0
  183.9720  178.5470  141.3250 C   0  0  0  0  0  3  0  0  0  0  0  0
  190.9120  177.3940  146.9200 C   0  0  0  0  0  2  0  0  0  0  0  0
  191.1800  176.2430  147.8840 C   0  0  0  0  0  2  0  0  0  0  0  0
  185.0500  178.2090  140.5120 C   0  0  0  0  0  3  0  0  0  0  0  0
  188.0420  175.1840  141.0130 N   0  0  0  0  0  0  0  0  0  0  0  0
  188.6120  175.7520  146.5180 N   0  0  0  0  0  0  0  0  0  0  0  0
  186.1940  177.1660  142.4090 C   0  0  0  0  0  0  0  0  0  0  0  0
  190.8190  174.9170  147.2220 C   0  0  0  0  0  2  0  0  0  0  0  0
  189.1670  173.7740  139.3580 N   0  0  0  0  0  2  0  0  0  0  0  0
  190.0080  173.8860  141.9710 S   0  0  0  0  0  0  0  0  0  0  0  0
  184.0320  178.2910  142.6900 C   0  0  0  0  0  3  0  0  0  0  0  0
  186.3040  176.9140  145.2180 C   0  0  0  0  0  3  0  0  0  0  0  0
  188.3900  176.9720  147.2890 C   0  0  0  0  0  2  0  0  0  0  0  0
  185.2070  177.5170  144.6200 C   0  0  0  0  0  3  0  0  0  0  0  0
  187.2790  177.4510  140.2130 O   0  0  0  0  0  1  0  0  0  0  0  0
  189.2940  174.9730  144.3400 N   0  0  0  0  0  0  0  0  0  0  0  0
  189.3110  174.6720  147.2050 C   0  0  0  0  0  2  0  0  0  0  0  0
  188.4230  175.7050  145.0880 C   0  0  0  0  0  0  0  0  0  0  0  0
  189.0150  174.3060  140.6720 C   0  0  0  0  0  0  0  0  0  0  0  0
  189.5080  177.9940  147.0650 C   0  0  0  0  0  2  0  0  0  0  0  0
  188.1320  175.5430  142.3200 C   0  0  0  0  0  0  0  0  0  0  0  0
  187.3330  176.3650  144.4490 C   0  0  0  0  0  0  0  0  0  0  0  0
  188.2820  174.1590  138.2740 C   0  0  0  0  0  2  0  0  0  0  0  0
  188.9360  173.8340  136.9490 C   0  0  0  0  0  2  0  0  0  0  0  0
  190.3490  174.1630  137.0130 N   0  0  0  0  0  2  0  0  0  0  0  0
  191.2390  173.8050  134.5550 O   0  0  0  0  0  0  0  0  0  0  0  0
  191.9200  175.8540  135.7120 O   0  0  0  0  0  0  0  0  0  0  0  0
  190.7920  174.8830  135.5020 S   0  0  0  0  0  0  0  0  0  0  0  0
  189.6090  177.1150  134.8700 O   0  0  0  0  0  1  0  0  0  0  0  0
  189.3990  175.7390  134.7970 C   0  0  0  0  0  2  0  0  0  0  0  0
  1 18  1  0  0  0  0
  2 11  1  0  0  0  0
  3 26  1  0  0  0  0
  4 20  2  0  0  0  0
  5 15  2  0  0  0  0
  6 24  1  0  0  0  0
  6  7  1  0  0  0  0
  8  2  2  0  0  0  0
  8  5  1  0  0  0  0
  9 25  1  0  0  0  0
 10 21  1  0  0  0  0
 10 17  1  0  0  0  0
 11  3  1  0  0  0  0
 11  1  2  0  0  0  0
 12  7  1  0  0  0  0
 13 23  1  0  0  0  0
 14  4  1  0  0  0  0
 15  1  1  0  0  0  0
 18 16  2  0  0  0  0
 19  2  1  0  0  0  0
 20 22  1  0  0  0  0
 21 12  1  0  0  0  0
 22 10  1  0  0  0  0
 23  9  2  0  0  0  0
 23 14  1  0  0  0  0
 24 17  1  0  0  0  0
 25  4  1  0  0  0  0
 25  3  2  0  0  0  0
 26 22  2  0  0  0  0
 26 16  1  0  0  0  0
 27 13  1  0  0  0  0
 28 29  1  0  0  0  0
 28 27  1  0  0  0  0
 30 32  2  0  0  0  0
 32 31  2  0  0  0  0
 32 29  1  0  0  0  0
 34 33  1  0  0  0  0
 34 32  1  0  0  0  0
M  END
>  <MODEL>
9

>  <REMARK>
 VINA RESULT:      -7.5      4.477      6.810
  Name = 
  5 active torsions:
  status: ('A' for Active; 'I' for Inactive)
    1  A    between atoms: C_3  and  C_13
    2  A    between atoms: C_3  and  N_17
    3  A    between atoms: C_13  and  N_33
    4  A    between atoms: C_14  and  S_34
    5  A    between atoms: N_33  and  S_34
                            x       y       z     vdW  Elec       q    Type
                         _______ _______ _______ _____ _____    ______ ____

>  <TORSDO>
F 5

$$$$
