=
 OpenBabel11052417513D

 31 35  0  0  1  0  0  0  0  0999 V2000
  185.2380  177.9970  140.9270 C   0  0  0  0  0  0  0  0  0  0  0  0
  187.1110  177.2140  144.1780 C   0  0  0  0  0  0  0  0  0  0  0  0
  186.2670  177.4700  145.2170 C   0  0  1  0  0  3  0  0  0  0  0  0
  184.2080  178.4790  146.0850 C   0  0  0  0  0  0  0  0  0  0  0  0
  186.7590  177.3860  142.7320 C   0  0  0  0  0  0  0  0  0  0  0  0
  186.1930  177.6200  139.9830 C   0  0  0  0  0  3  0  0  0  0  0  0
  184.9110  178.0350  145.0390 C   0  0  0  0  0  3  0  0  0  0  0  0
  189.3540  176.4310  143.5040 C   0  0  0  0  0  0  0  0  0  0  0  0
  184.0370  178.4750  140.5230 F   0  0  0  0  0  0  0  0  0  0  0  0
  188.1070  176.9510  146.8900 C   0  0  0  0  0  3  0  0  0  0  0  0
  182.9790  179.0100  145.8860 F   0  0  0  0  0  0  0  0  0  0  0  0
  188.9620  176.5230  142.1620 O   0  0  0  0  0  0  0  0  0  0  0  0
  188.4990  176.7550  144.4910 C   0  0  0  0  0  0  0  0  0  0  0  0
  185.5190  177.8780  142.2900 C   0  0  0  0  0  3  0  0  0  0  0  0
  184.7910  178.4790  147.4400 C   0  0  0  0  0  3  0  0  0  0  0  0
  187.7140  177.0110  141.7680 C   0  0  2  0  0  3  0  0  0  0  0  0
  187.4300  177.1280  140.4040 C   0  0  0  0  0  3  0  0  0  0  0  0
  188.9640  176.7650  145.8920 C   0  0  0  0  0  3  0  0  0  0  0  0
  186.6360  177.0450  146.6320 C   0  0  1  0  0  3  0  0  0  0  0  0
  185.9430  177.8510  147.6940 C   0  0  0  0  0  3  0  0  0  0  0  0
  191.7120  178.0920  143.7730 O   0  0  0  0  0  0  0  0  0  0  0  0
  191.8310  176.8490  143.9500 C   0  0  0  0  0  0  0  0  0  0  0  0
  190.6840  175.9960  143.8250 N   0  0  0  0  0  2  0  0  0  0  0  0
  195.6770  175.1160  144.7870 C   0  0  0  0  0  0  0  0  0  0  0  0
  194.0200  175.9380  143.2340 C   0  0  0  0  0  3  0  0  0  0  0  0
  192.7240  176.2780  146.8130 C   0  0  0  0  0  1  0  0  0  0  0  0
  196.9240  174.5560  145.0320 O   0  0  0  0  0  1  0  0  0  0  0  0
  195.2730  175.3750  143.4780 C   0  0  0  0  0  3  0  0  0  0  0  0
  193.5690  175.9840  145.6190 C   0  0  0  0  0  0  0  0  0  0  0  0
  193.1480  176.2530  144.2900 C   0  0  0  0  0  0  0  0  0  0  0  0
  194.8280  175.4200  145.8510 C   0  0  0  0  0  3  0  0  0  0  0  0
  1 14  2  0  0  0  0
  2 13  1  0  0  0  0
  2  3  1  0  0  0  0
  3  7  1  6  0  0  0
  3 19  1  0  0  0  0
  4 15  1  0  0  0  0
  5  2  2  0  0  0  0
  6 17  2  0  0  0  0
  6  1  1  0  0  0  0
  7  4  2  0  0  0  0
  8 23  1  0  0  0  0
  8 13  2  0  0  0  0
  9  1  1  0  0  0  0
 11  4  1  0  0  0  0
 12  8  1  0  0  0  0
 13 18  1  0  0  0  0
 14  5  1  0  0  0  0
 15 20  2  0  0  0  0
 16 17  1  6  0  0  0
 16 12  1  0  0  0  0
 16  5  1  0  0  0  0
 18 10  2  0  0  0  0
 19 10  1  6  0  0  0
 19 20  1  0  0  0  0
 21 22  2  0  0  0  0
 22 30  1  0  0  0  0
 23 22  1  0  0  0  0
 24 27  1  0  0  0  0
 24 31  1  0  0  0  0
 25 28  1  0  0  0  0
 25 30  2  0  0  0  0
 28 24  2  0  0  0  0
 29 31  2  0  0  0  0
 29 26  1  0  0  0  0
 30 29  1  0  0  0  0
M  END
>  <MODEL>
1

>  <REMARK>
 VINA RESULT:     -10.3      0.000      0.000
  Name = 
  2 active torsions:
  status: ('A' for Active; 'I' for Inactive)
    1  A    between atoms: C_9  and  C_22
    2  A    between atoms: C_15  and  N_23
                            x       y       z     vdW  Elec       q    Type
                         _______ _______ _______ _____ _____    ______ ____

>  <TORSDO>
F 2

$$$$
=
 OpenBabel11052417513D

 31 35  0  0  1  0  0  0  0  0999 V2000
  185.1550  178.0660  141.0210 C   0  0  0  0  0  0  0  0  0  0  0  0
  187.2600  177.4920  144.1720 C   0  0  0  0  0  0  0  0  0  0  0  0
  186.4540  177.6880  145.2530 C   0  0  1  0  0  3  0  0  0  0  0  0
  184.3640  178.5270  146.2230 C   0  0  0  0  0  0  0  0  0  0  0  0
  186.8180  177.6130  142.7460 C   0  0  0  0  0  0  0  0  0  0  0  0
  186.0870  177.7590  140.0300 C   0  0  0  0  0  3  0  0  0  0  0  0
  185.0460  178.1320  145.1440 C   0  0  0  0  0  3  0  0  0  0  0  0
  189.5240  176.8970  143.3840 C   0  0  0  0  0  0  0  0  0  0  0  0
  183.8970  178.4320  140.6780 F   0  0  0  0  0  0  0  0  0  0  0  0
  188.4190  177.3540  146.8280 C   0  0  0  0  0  3  0  0  0  0  0  0
  183.0840  178.9470  146.0870 F   0  0  0  0  0  0  0  0  0  0  0  0
  189.0540  176.9360  142.0640 O   0  0  0  0  0  0  0  0  0  0  0  0
  188.6980  177.1590  144.4130 C   0  0  0  0  0  0  0  0  0  0  0  0
  185.5180  177.9900  142.3670 C   0  0  0  0  0  3  0  0  0  0  0  0
  185.0170  178.5960  147.5440 C   0  0  0  0  0  3  0  0  0  0  0  0
  187.7490  177.3100  141.7350 C   0  0  2  0  0  3  0  0  0  0  0  0
  187.3830  177.3830  140.3870 C   0  0  0  0  0  3  0  0  0  0  0  0
  189.2340  177.2290  145.7860 C   0  0  0  0  0  3  0  0  0  0  0  0
  186.9340  177.3170  146.6500 C   0  0  1  0  0  3  0  0  0  0  0  0
  186.2300  178.0750  147.7410 C   0  0  0  0  0  3  0  0  0  0  0  0
  190.6920  174.2590  143.6450 O   0  0  0  0  0  0  0  0  0  0  0  0
  191.4470  175.2630  143.7590 C   0  0  0  0  0  0  0  0  0  0  0  0
  190.9020  176.5840  143.6360 N   0  0  0  0  0  2  0  0  0  0  0  0
  195.6240  174.7800  144.6630 C   0  0  0  0  0  0  0  0  0  0  0  0
  193.3240  175.0300  145.3580 C   0  0  0  0  0  3  0  0  0  0  0  0
  193.5350  175.0560  141.5420 C   0  0  0  0  0  1  0  0  0  0  0  0
  196.9660  174.6240  144.9800 O   0  0  0  0  0  1  0  0  0  0  0  0
  194.6730  174.8740  145.6790 C   0  0  0  0  0  3  0  0  0  0  0  0
  193.8750  174.9990  142.9940 C   0  0  0  0  0  0  0  0  0  0  0  0
  192.8990  175.0950  144.0200 C   0  0  0  0  0  0  0  0  0  0  0  0
  195.2240  174.8420  143.3280 C   0  0  0  0  0  3  0  0  0  0  0  0
  1 14  2  0  0  0  0
  2 13  1  0  0  0  0
  2  3  1  0  0  0  0
  3  7  1  6  0  0  0
  3 19  1  0  0  0  0
  4 15  1  0  0  0  0
  5  2  2  0  0  0  0
  6 17  2  0  0  0  0
  6  1  1  0  0  0  0
  7  4  2  0  0  0  0
  8 23  1  0  0  0  0
  8 13  2  0  0  0  0
  9  1  1  0  0  0  0
 11  4  1  0  0  0  0
 12  8  1  0  0  0  0
 13 18  1  0  0  0  0
 14  5  1  0  0  0  0
 15 20  2  0  0  0  0
 16 17  1  6  0  0  0
 16 12  1  0  0  0  0
 16  5  1  0  0  0  0
 18 10  2  0  0  0  0
 19 10  1  6  0  0  0
 19 20  1  0  0  0  0
 21 22  2  0  0  0  0
 22 30  1  0  0  0  0
 23 22  1  0  0  0  0
 24 27  1  0  0  0  0
 24 28  1  0  0  0  0
 25 28  2  0  0  0  0
 26 29  1  0  0  0  0
 29 31  1  0  0  0  0
 29 30  2  0  0  0  0
 30 25  1  0  0  0  0
 31 24  2  0  0  0  0
M  END
>  <MODEL>
2

>  <REMARK>
 VINA RESULT:      -9.6      0.898      1.594
  Name = 
  2 active torsions:
  status: ('A' for Active; 'I' for Inactive)
    1  A    between atoms: C_9  and  C_22
    2  A    between atoms: C_15  and  N_23
                            x       y       z     vdW  Elec       q    Type
                         _______ _______ _______ _____ _____    ______ ____

>  <TORSDO>
F 2

$$$$
=
 OpenBabel11052417513D

 31 35  0  0  1  0  0  0  0  0999 V2000
  184.3750  178.5810  146.4390 C   0  0  0  0  0  0  0  0  0  0  0  0
  187.0730  177.7700  143.8400 C   0  0  0  0  0  0  0  0  0  0  0  0
  186.5270  177.9490  142.6040 C   0  0  1  0  0  3  0  0  0  0  0  0
  184.5610  178.2500  141.1710 C   0  0  0  0  0  0  0  0  0  0  0  0
  186.3470  177.9910  145.1320 C   0  0  0  0  0  0  0  0  0  0  0  0
  185.1010  178.4250  147.6200 C   0  0  0  0  0  3  0  0  0  0  0  0
  185.1070  178.3070  142.3890 C   0  0  0  0  0  3  0  0  0  0  0  0
  189.0950  177.1590  145.1210 C   0  0  0  0  0  0  0  0  0  0  0  0
  183.0700  178.9420  146.4880 F   0  0  0  0  0  0  0  0  0  0  0  0
  188.6580  177.1120  141.5010 C   0  0  0  0  0  3  0  0  0  0  0  0
  183.2530  178.5630  141.0110 F   0  0  0  0  0  0  0  0  0  0  0  0
  188.4100  177.4570  146.3060 O   0  0  0  0  0  0  0  0  0  0  0  0
  188.4870  177.2940  143.9270 C   0  0  0  0  0  0  0  0  0  0  0  0
  184.9950  178.3680  145.2060 C   0  0  0  0  0  2  0  0  0  0  0  0
  185.3410  177.7660  140.0160 C   0  0  0  0  0  3  0  0  0  0  0  0
  187.0660  177.8360  146.3320 C   0  0  0  0  0  0  0  0  0  0  0  0
  186.4440  178.0520  147.5660 C   0  0  0  0  0  3  0  0  0  0  0  0
  189.1810  176.8660  142.6970 C   0  0  0  0  0  3  0  0  0  0  0  0
  187.4080  177.9240  141.3630 C   0  0  1  0  0  3  0  0  0  0  0  0
  186.6590  177.5690  140.1090 C   0  0  0  0  0  3  0  0  0  0  0  0
  190.0870  174.8670  146.5870 O   0  0  0  0  0  0  0  0  0  0  0  0
  190.9080  175.5530  145.9210 C   0  0  0  0  0  0  0  0  0  0  0  0
  190.4520  176.6960  145.1830 N   0  0  0  0  0  2  0  0  0  0  0  0
  195.1130  174.6450  145.8980 C   0  0  0  0  0  0  0  0  0  0  0  0
  193.2660  176.1010  146.4490 C   0  0  0  0  0  3  0  0  0  0  0  0
  191.9640  172.9610  144.7040 C   0  0  0  0  0  1  0  0  0  0  0  0
  196.4740  174.3740  145.9030 O   0  0  0  0  0  1  0  0  0  0  0  0
  194.6350  175.8310  146.4540 C   0  0  0  0  0  3  0  0  0  0  0  0
  192.8470  173.9910  145.3240 C   0  0  0  0  0  0  0  0  0  0  0  0
  192.3490  175.1950  145.8890 C   0  0  0  0  0  0  0  0  0  0  0  0
  194.2210  173.7310  145.3360 C   0  0  0  0  0  3  0  0  0  0  0  0
  1  9  1  0  0  0  0
  1  6  2  0  0  0  0
  2 13  1  0  0  0  0
  2  5  2  0  0  0  0
  3  7  1  1  0  0  0
  3  2  1  0  0  0  0
  4  7  2  0  0  0  0
  5 14  1  0  0  0  0
  5 16  1  0  0  0  0
  8 23  1  0  0  0  0
  8 12  1  0  0  0  0
 10 18  2  0  0  0  0
 11  4  1  0  0  0  0
 12 16  1  0  0  0  0
 13  8  2  0  0  0  0
 14  1  1  0  0  0  0
 15 20  2  0  0  0  0
 15  4  1  0  0  0  0
 16 17  2  0  0  0  0
 17  6  1  0  0  0  0
 18 13  1  0  0  0  0
 19 20  1  6  0  0  0
 19 10  1  0  0  0  0
 19  3  1  0  0  0  0
 22 21  2  0  0  0  0
 23 22  1  0  0  0  0
 24 27  1  0  0  0  0
 24 28  1  0  0  0  0
 25 28  2  0  0  0  0
 26 29  1  0  0  0  0
 29 31  1  0  0  0  0
 29 30  2  0  0  0  0
 30 22  1  0  0  0  0
 30 25  1  0  0  0  0
 31 24  2  0  0  0  0
M  END
>  <MODEL>
3

>  <REMARK>
 VINA RESULT:      -9.5      1.619      4.281
  Name = 
  2 active torsions:
  status: ('A' for Active; 'I' for Inactive)
    1  A    between atoms: C_9  and  C_22
    2  A    between atoms: C_15  and  N_23
                            x       y       z     vdW  Elec       q    Type
                         _______ _______ _______ _____ _____    ______ ____

>  <TORSDO>
F 2

$$$$
=
 OpenBabel11052417513D

 31 35  0  0  1  0  0  0  0  0999 V2000
  184.6930  178.1390  146.9570 C   0  0  0  0  0  0  0  0  0  0  0  0
  186.8740  177.9810  143.8090 C   0  0  0  0  0  0  0  0  0  0  0  0
  186.0590  178.1380  142.7290 C   0  0  1  0  0  3  0  0  0  0  0  0
  183.8110  178.1800  141.7500 C   0  0  0  0  0  0  0  0  0  0  0  0
  186.4130  177.9890  145.2340 C   0  0  0  0  0  0  0  0  0  0  0  0
  185.6680  178.0390  147.9500 C   0  0  0  0  0  3  0  0  0  0  0  0
  184.5870  178.2540  142.8350 C   0  0  0  0  0  3  0  0  0  0  0  0
  189.1920  177.6550  144.5980 C   0  0  0  0  0  0  0  0  0  0  0  0
  183.3880  178.2620  147.2980 F   0  0  0  0  0  0  0  0  0  0  0  0
  188.0130  177.7600  141.1500 C   0  0  0  0  0  3  0  0  0  0  0  0
  182.4670  178.2680  141.8830 F   0  0  0  0  0  0  0  0  0  0  0  0
  188.7350  177.7520  145.9190 O   0  0  0  0  0  0  0  0  0  0  0  0
  188.3330  177.7560  143.5680 C   0  0  0  0  0  0  0  0  0  0  0  0
  185.0640  178.1170  145.6110 C   0  0  0  0  0  2  0  0  0  0  0  0
  184.3960  177.9140  140.4220 C   0  0  0  0  0  3  0  0  0  0  0  0
  187.3850  177.8870  146.2470 C   0  0  0  0  0  0  0  0  0  0  0  0
  187.0120  177.9120  147.5950 C   0  0  0  0  0  3  0  0  0  0  0  0
  188.8090  177.5350  142.1890 C   0  0  0  0  0  3  0  0  0  0  0  0
  186.6490  178.3470  141.3410 C   0  0  1  0  0  3  0  0  0  0  0  0
  185.7180  177.9470  140.2320 C   0  0  0  0  0  3  0  0  0  0  0  0
  190.6330  175.1540  144.8450 O   0  0  0  0  0  0  0  0  0  0  0  0
  191.2700  176.1790  144.4780 C   0  0  0  0  0  0  0  0  0  0  0  0
  190.5880  177.4340  144.3450 N   0  0  0  0  0  2  0  0  0  0  0  0
  195.4430  175.9390  143.4670 C   0  0  0  0  0  0  0  0  0  0  0  0
  193.1090  175.8720  142.8480 C   0  0  0  0  0  3  0  0  0  0  0  0
  193.4370  176.5040  146.6030 C   0  0  0  0  0  1  0  0  0  0  0  0
  196.7840  175.8580  143.1150 O   0  0  0  0  0  1  0  0  0  0  0  0
  194.4560  175.7890  142.4930 C   0  0  0  0  0  3  0  0  0  0  0  0
  193.7350  176.2550  145.1620 C   0  0  0  0  0  0  0  0  0  0  0  0
  192.7220  176.1050  144.1790 C   0  0  0  0  0  0  0  0  0  0  0  0
  195.0820  176.1700  144.7940 C   0  0  0  0  0  3  0  0  0  0  0  0
  1  9  1  0  0  0  0
  1  6  2  0  0  0  0
  2  5  2  0  0  0  0
  3  7  1  1  0  0  0
  3  2  1  0  0  0  0
  4 11  1  0  0  0  0
  4  7  2  0  0  0  0
  5 14  1  0  0  0  0
  5 16  1  0  0  0  0
  8 12  1  0  0  0  0
 10 19  1  0  0  0  0
 10 18  2  0  0  0  0
 12 16  1  0  0  0  0
 13  2  1  0  0  0  0
 13  8  2  0  0  0  0
 14  1  1  0  0  0  0
 15  4  1  0  0  0  0
 16 17  2  0  0  0  0
 17  6  1  0  0  0  0
 18 13  1  0  0  0  0
 19 20  1  6  0  0  0
 19  3  1  0  0  0  0
 20 15  2  0  0  0  0
 22 21  2  0  0  0  0
 23 22  1  0  0  0  0
 23  8  1  0  0  0  0
 24 31  1  0  0  0  0
 25 30  2  0  0  0  0
 27 24  1  0  0  0  0
 28 25  1  0  0  0  0
 28 24  2  0  0  0  0
 29 26  1  0  0  0  0
 30 22  1  0  0  0  0
 30 29  1  0  0  0  0
 31 29  2  0  0  0  0
M  END
>  <MODEL>
4

>  <REMARK>
 VINA RESULT:      -9.5      1.434      4.088
  Name = 
  2 active torsions:
  status: ('A' for Active; 'I' for Inactive)
    1  A    between atoms: C_9  and  C_22
    2  A    between atoms: C_15  and  N_23
                            x       y       z     vdW  Elec       q    Type
                         _______ _______ _______ _____ _____    ______ ____

>  <TORSDO>
F 2

$$$$
=
 OpenBabel11052417513D

 31 35  0  0  1  0  0  0  0  0999 V2000
  191.4320  176.6940  147.6760 C   0  0  0  0  0  0  0  0  0  0  0  0
  188.7520  176.4420  144.9470 C   0  0  0  0  0  0  0  0  0  0  0  0
  187.6070  176.9940  145.4360 C   0  0  1  0  0  3  0  0  0  0  0  0
  186.2850  177.8240  147.3270 C   0  0  0  0  0  0  0  0  0  0  0  0
  190.0430  176.3480  145.7020 C   0  0  0  0  0  0  0  0  0  0  0  0
  192.5340  176.1650  147.0040 C   0  0  0  0  0  3  0  0  0  0  0  0
  187.4780  177.5010  146.8210 C   0  0  0  0  0  3  0  0  0  0  0  0
  189.8420  175.3530  143.0160 C   0  0  0  0  0  0  0  0  0  0  0  0
  191.5600  177.1230  148.9540 F   0  0  0  0  0  0  0  0  0  0  0  0
  186.3470  176.3430  143.3280 C   0  0  0  0  0  3  0  0  0  0  0  0
  186.1980  178.2640  148.6040 F   0  0  0  0  0  0  0  0  0  0  0  0
  191.0530  175.3600  143.7210 O   0  0  0  0  0  0  0  0  0  0  0  0
  188.7250  175.8580  143.5710 C   0  0  0  0  0  0  0  0  0  0  0  0
  190.1990  176.7870  147.0280 C   0  0  0  0  0  3  0  0  0  0  0  0
  185.0530  177.6230  146.5400 C   0  0  0  0  0  3  0  0  0  0  0  0
  191.1630  175.8140  145.0370 C   0  0  2  0  0  3  0  0  0  0  0  0
  192.3980  175.7250  145.6860 C   0  0  0  0  0  3  0  0  0  0  0  0
  187.4350  175.7380  142.8640 C   0  0  0  0  0  3  0  0  0  0  0  0
  186.4210  177.2510  144.5150 C   0  0  1  0  0  3  0  0  0  0  0  0
  185.1070  177.3130  145.2420 C   0  0  0  0  0  3  0  0  0  0  0  0
  189.2420  172.6100  142.3080 O   0  0  0  0  0  0  0  0  0  0  0  0
  189.4920  173.4270  141.3810 C   0  0  0  0  0  0  0  0  0  0  0  0
  189.7940  174.7930  141.6960 N   0  0  0  0  0  2  0  0  0  0  0  0
  189.3430  172.2690  137.2420 C   0  0  0  0  0  0  0  0  0  0  0  0
  188.5760  173.6230  139.0890 C   0  0  0  0  0  3  0  0  0  0  0  0
  191.3190  171.2440  140.2790 C   0  0  0  0  0  1  0  0  0  0  0  0
  189.2770  171.9130  135.9010 O   0  0  0  0  0  1  0  0  0  0  0  0
  188.5070  173.2660  137.7410 C   0  0  0  0  0  3  0  0  0  0  0  0
  190.3250  171.9770  139.4420 C   0  0  0  0  0  0  0  0  0  0  0  0
  189.4780  172.9920  139.9610 C   0  0  0  0  0  0  0  0  0  0  0  0
  190.2470  171.6290  138.0900 C   0  0  0  0  0  3  0  0  0  0  0  0
  1  9  1  0  0  0  0
  2  3  1  0  0  0  0
  2  5  2  0  0  0  0
  3  7  1  6  0  0  0
  4 11  1  0  0  0  0
  5 14  1  0  0  0  0
  6  1  1  0  0  0  0
  7  4  2  0  0  0  0
  8 13  2  0  0  0  0
  8 12  1  0  0  0  0
 12 16  1  0  0  0  0
 13  2  1  0  0  0  0
 14  1  2  0  0  0  0
 15  4  1  0  0  0  0
 16 17  1  1  0  0  0
 16  5  1  0  0  0  0
 17  6  2  0  0  0  0
 18 10  2  0  0  0  0
 18 13  1  0  0  0  0
 19 10  1  6  0  0  0
 19 20  1  0  0  0  0
 19  3  1  0  0  0  0
 20 15  2  0  0  0  0
 22 23  1  0  0  0  0
 22 21  2  0  0  0  0
 23  8  1  0  0  0  0
 24 28  2  0  0  0  0
 24 31  1  0  0  0  0
 25 30  2  0  0  0  0
 27 24  1  0  0  0  0
 28 25  1  0  0  0  0
 29 30  1  0  0  0  0
 29 26  1  0  0  0  0
 30 22  1  0  0  0  0
 31 29  2  0  0  0  0
M  END
>  <MODEL>
5

>  <REMARK>
 VINA RESULT:      -8.6      3.800      6.418
  Name = 
  2 active torsions:
  status: ('A' for Active; 'I' for Inactive)
    1  A    between atoms: C_9  and  C_22
    2  A    between atoms: C_15  and  N_23
                            x       y       z     vdW  Elec       q    Type
                         _______ _______ _______ _____ _____    ______ ____

>  <TORSDO>
F 2

$$$$
=
 OpenBabel11052417513D

 31 35  0  0  1  0  0  0  0  0999 V2000
  186.2910  178.7580  144.1240 C   0  0  0  0  0  0  0  0  0  0  0  0
  188.7210  175.8380  144.6260 C   0  0  0  0  0  0  0  0  0  0  0  0
  189.3860  176.0460  145.7960 C   0  0  1  0  0  3  0  0  0  0  0  0
  190.0370  177.5290  147.6370 C   0  0  0  0  0  0  0  0  0  0  0  0
  187.6720  176.7500  144.0670 C   0  0  0  0  0  0  0  0  0  0  0  0
  185.6510  178.3620  142.9490 C   0  0  0  0  0  3  0  0  0  0  0  0
  189.2080  177.2600  146.6250 C   0  0  0  0  0  3  0  0  0  0  0  0
  188.4060  174.3440  142.6840 C   0  0  0  0  0  0  0  0  0  0  0  0
  185.9390  179.9180  144.7290 F   0  0  0  0  0  0  0  0  0  0  0  0
  190.8240  173.9910  145.3900 C   0  0  0  0  0  3  0  0  0  0  0  0
  189.8600  178.6580  148.3630 F   0  0  0  0  0  0  0  0  0  0  0  0
  187.3710  175.1760  142.2360 O   0  0  0  0  0  0  0  0  0  0  0  0
  189.0720  174.6300  143.8170 C   0  0  0  0  0  0  0  0  0  0  0  0
  187.2900  177.9570  144.6790 C   0  0  0  0  0  3  0  0  0  0  0  0
  191.1940  176.6580  147.9170 C   0  0  0  0  0  3  0  0  0  0  0  0
  187.0200  176.3640  142.8810 C   0  0  2  0  0  3  0  0  0  0  0  0
  186.0170  177.1660  142.3290 C   0  0  0  0  0  3  0  0  0  0  0  0
  190.2350  173.8110  144.2130 C   0  0  0  0  0  3  0  0  0  0  0  0
  190.2610  174.9510  146.3910 C   0  0  1  0  0  3  0  0  0  0  0  0
  191.3290  175.4760  147.3090 C   0  0  0  0  0  3  0  0  0  0  0  0
  190.4410  174.1660  140.6310 O   0  0  0  0  0  0  0  0  0  0  0  0
  189.7780  173.1300  140.9080 C   0  0  0  0  0  0  0  0  0  0  0  0
  188.7620  173.1820  141.9200 N   0  0  0  0  0  2  0  0  0  0  0  0
  190.4420  169.4750  138.7410 C   0  0  0  0  0  0  0  0  0  0  0  0
  189.4910  171.6890  138.9150 C   0  0  0  0  0  3  0  0  0  0  0  0
  191.4190  170.8520  142.1060 C   0  0  0  0  0  1  0  0  0  0  0  0
  190.6430  168.3050  138.0210 O   0  0  0  0  0  1  0  0  0  0  0  0
  189.6910  170.5130  138.1900 C   0  0  0  0  0  3  0  0  0  0  0  0
  190.7970  170.7870  140.7520 C   0  0  0  0  0  0  0  0  0  0  0  0
  190.0350  171.8510  140.2000 C   0  0  0  0  0  0  0  0  0  0  0  0
  190.9910  169.6140  140.0150 C   0  0  0  0  0  3  0  0  0  0  0  0
  1 14  2  0  0  0  0
  1  9  1  0  0  0  0
  2  3  1  0  0  0  0
  3 19  1  0  0  0  0
  3  7  1  1  0  0  0
  4 15  1  0  0  0  0
  4 11  1  0  0  0  0
  5  2  2  0  0  0  0
  5 14  1  0  0  0  0
  6  1  1  0  0  0  0
  7  4  2  0  0  0  0
  8 13  2  0  0  0  0
 12  8  1  0  0  0  0
 12 16  1  0  0  0  0
 13 18  1  0  0  0  0
 13  2  1  0  0  0  0
 16 17  1  6  0  0  0
 16  5  1  0  0  0  0
 17  6  2  0  0  0  0
 18 10  2  0  0  0  0
 19 10  1  6  0  0  0
 19 20  1  0  0  0  0
 20 15  2  0  0  0  0
 21 22  2  0  0  0  0
 22 23  1  0  0  0  0
 23  8  1  0  0  0  0
 24 31  1  0  0  0  0
 25 30  2  0  0  0  0
 27 24  1  0  0  0  0
 28 24  2  0  0  0  0
 28 25  1  0  0  0  0
 29 26  1  0  0  0  0
 30 29  1  0  0  0  0
 30 22  1  0  0  0  0
 31 29  2  0  0  0  0
M  END
>  <MODEL>
6

>  <REMARK>
 VINA RESULT:      -8.6      4.329      5.710
  Name = 
  2 active torsions:
  status: ('A' for Active; 'I' for Inactive)
    1  A    between atoms: C_9  and  C_22
    2  A    between atoms: C_15  and  N_23
                            x       y       z     vdW  Elec       q    Type
                         _______ _______ _______ _____ _____    ______ ____

>  <TORSDO>
F 2

$$$$
=
 OpenBabel11052417513D

 31 35  0  0  1  0  0  0  0  0999 V2000
  184.9700  177.8360  146.8570 C   0  0  0  0  0  0  0  0  0  0  0  0
  186.4460  177.2610  143.3670 C   0  0  0  0  0  0  0  0  0  0  0  0
  185.5420  177.7130  142.4530 C   0  0  1  0  0  3  0  0  0  0  0  0
  183.2740  178.4580  141.8940 C   0  0  0  0  0  0  0  0  0  0  0  0
  186.2540  177.3100  144.8520 C   0  0  0  0  0  0  0  0  0  0  0  0
  186.0250  177.3990  147.6570 C   0  0  0  0  0  3  0  0  0  0  0  0
  184.2090  178.2380  142.8220 C   0  0  0  0  0  3  0  0  0  0  0  0
  188.6650  176.2360  143.7220 C   0  0  0  0  0  0  0  0  0  0  0  0
  183.8350  178.3060  147.4280 F   0  0  0  0  0  0  0  0  0  0  0  0
  187.0040  176.8930  140.5440 C   0  0  0  0  0  3  0  0  0  0  0  0
  182.0560  178.9180  142.2670 F   0  0  0  0  0  0  0  0  0  0  0  0
  188.4860  176.3760  145.1050 O   0  0  0  0  0  0  0  0  0  0  0  0
  187.7120  176.6440  142.8650 C   0  0  0  0  0  0  0  0  0  0  0  0
  185.0860  177.7950  145.4660 C   0  0  0  0  0  2  0  0  0  0  0  0
  183.5230  178.1200  140.4790 C   0  0  0  0  0  3  0  0  0  0  0  0
  187.3100  176.8700  145.6720 C   0  0  0  0  0  0  0  0  0  0  0  0
  187.1930  176.9160  147.0650 C   0  0  0  0  0  3  0  0  0  0  0  0
  187.8630  176.3840  141.4200 C   0  0  0  0  0  3  0  0  0  0  0  0
  185.9260  177.8320  140.9840 C   0  0  1  0  0  3  0  0  0  0  0  0
  184.7440  177.7860  140.0560 C   0  0  0  0  0  3  0  0  0  0  0  0
  191.0750  177.6160  142.9010 O   0  0  0  0  0  0  0  0  0  0  0  0
  191.0490  176.3580  142.8220 C   0  0  0  0  0  0  0  0  0  0  0  0
  189.8710  175.6420  143.2200 N   0  0  0  0  0  2  0  0  0  0  0  0
  194.5460  174.2670  141.4460 C   0  0  0  0  0  0  0  0  0  0  0  0
  193.5020  176.0390  142.7130 C   0  0  0  0  0  3  0  0  0  0  0  0
  190.8240  173.9240  140.9950 C   0  0  0  0  0  1  0  0  0  0  0  0
  195.6900  173.6090  141.0160 O   0  0  0  0  0  1  0  0  0  0  0  0
  194.6530  175.3790  142.2810 C   0  0  0  0  0  3  0  0  0  0  0  0
  192.1280  174.4710  141.4710 C   0  0  0  0  0  0  0  0  0  0  0  0
  192.2250  175.6030  142.3210 C   0  0  0  0  0  0  0  0  0  0  0  0
  193.2890  173.8170  141.0450 C   0  0  0  0  0  3  0  0  0  0  0  0
  1  9  1  0  0  0  0
  1  6  2  0  0  0  0
  2  5  2  0  0  0  0
  3  7  1  1  0  0  0
  3  2  1  0  0  0  0
  4 11  1  0  0  0  0
  4  7  2  0  0  0  0
  5 14  1  0  0  0  0
  5 16  1  0  0  0  0
  8 12  1  0  0  0  0
 10 19  1  0  0  0  0
 10 18  2  0  0  0  0
 12 16  1  0  0  0  0
 13  2  1  0  0  0  0
 13  8  2  0  0  0  0
 14  1  1  0  0  0  0
 15  4  1  0  0  0  0
 16 17  2  0  0  0  0
 17  6  1  0  0  0  0
 18 13  1  0  0  0  0
 19 20  1  6  0  0  0
 19  3  1  0  0  0  0
 20 15  2  0  0  0  0
 22 21  2  0  0  0  0
 22 23  1  0  0  0  0
 23  8  1  0  0  0  0
 24 28  1  0  0  0  0
 26 29  1  0  0  0  0
 27 24  1  0  0  0  0
 28 25  2  0  0  0  0
 29 30  2  0  0  0  0
 30 25  1  0  0  0  0
 30 22  1  0  0  0  0
 31 24  2  0  0  0  0
 31 29  1  0  0  0  0
M  END
>  <MODEL>
7

>  <REMARK>
 VINA RESULT:      -8.4      1.858      4.469
  Name = 
  2 active torsions:
  status: ('A' for Active; 'I' for Inactive)
    1  A    between atoms: C_9  and  C_22
    2  A    between atoms: C_15  and  N_23
                            x       y       z     vdW  Elec       q    Type
                         _______ _______ _______ _____ _____    ______ ____

>  <TORSDO>
F 2

$$$$
=
 OpenBabel11052417513D

 31 35  0  0  1  0  0  0  0  0999 V2000
  191.5520  173.3450  141.9260 C   0  0  0  0  0  0  0  0  0  0  0  0
  189.3910  175.7270  144.0100 C   0  0  0  0  0  0  0  0  0  0  0  0
  190.1050  176.0770  145.1160 C   0  0  1  0  0  3  0  0  0  0  0  0
  192.0040  175.7130  146.6250 C   0  0  0  0  0  0  0  0  0  0  0  0
  189.8840  174.8110  142.9320 C   0  0  0  0  0  0  0  0  0  0  0  0
  190.7240  173.1470  140.8210 C   0  0  0  0  0  3  0  0  0  0  0  0
  191.4410  175.5200  145.4290 C   0  0  0  0  0  3  0  0  0  0  0  0
  187.2770  176.0020  142.7620 C   0  0  0  0  0  0  0  0  0  0  0  0
  192.7620  172.7380  141.9840 F   0  0  0  0  0  0  0  0  0  0  0  0
  188.1300  177.3910  146.0240 C   0  0  0  0  0  3  0  0  0  0  0  0
  193.2170  175.1720  146.8870 F   0  0  0  0  0  0  0  0  0  0  0  0
  187.8040  175.2090  141.7340 O   0  0  0  0  0  0  0  0  0  0  0  0
  188.0050  176.2670  143.8630 C   0  0  0  0  0  0  0  0  0  0  0  0
  191.1360  174.1720  142.9700 C   0  0  0  0  0  3  0  0  0  0  0  0
  191.2810  176.4330  147.6910 C   0  0  0  0  0  3  0  0  0  0  0  0
  189.0580  174.6000  141.8120 C   0  0  2  0  0  3  0  0  0  0  0  0
  189.4780  173.7730  140.7650 C   0  0  0  0  0  3  0  0  0  0  0  0
  187.3950  177.0030  144.9870 C   0  0  0  0  0  3  0  0  0  0  0  0
  189.6120  177.1890  146.0320 C   0  0  1  0  0  3  0  0  0  0  0  0
  190.1450  177.0860  147.4330 C   0  0  0  0  0  3  0  0  0  0  0  0
  186.4430  178.2990  141.2080 O   0  0  0  0  0  0  0  0  0  0  0  0
  185.5680  177.6680  141.8610 C   0  0  0  0  0  0  0  0  0  0  0  0
  185.9460  176.5260  142.6420 N   0  0  0  0  0  2  0  0  0  0  0  0
  181.4400  178.8530  141.6370 C   0  0  0  0  0  0  0  0  0  0  0  0
  183.4290  177.9160  140.6380 C   0  0  0  0  0  3  0  0  0  0  0  0
  184.1390  178.8980  144.2620 C   0  0  0  0  0  1  0  0  0  0  0  0
  180.1060  179.2270  141.5400 O   0  0  0  0  0  1  0  0  0  0  0  0
  182.0890  178.2920  140.5380 C   0  0  0  0  0  3  0  0  0  0  0  0
  183.4750  178.6660  142.9460 C   0  0  0  0  0  0  0  0  0  0  0  0
  184.1460  178.0920  141.8340 C   0  0  0  0  0  0  0  0  0  0  0  0
  182.1320  179.0380  142.8340 C   0  0  0  0  0  3  0  0  0  0  0  0
  1  9  1  0  0  0  0
  1 14  2  0  0  0  0
  2  3  1  0  0  0  0
  3  7  1  6  0  0  0
  3 19  1  0  0  0  0
  4 11  1  0  0  0  0
  4 15  1  0  0  0  0
  5 14  1  0  0  0  0
  5  2  2  0  0  0  0
  6  1  1  0  0  0  0
  7  4  2  0  0  0  0
  8 13  2  0  0  0  0
 12 16  1  0  0  0  0
 12  8  1  0  0  0  0
 13  2  1  0  0  0  0
 13 18  1  0  0  0  0
 16 17  1  1  0  0  0
 16  5  1  0  0  0  0
 17  6  2  0  0  0  0
 18 10  2  0  0  0  0
 19 10  1  1  0  0  0
 19 20  1  0  0  0  0
 20 15  2  0  0  0  0
 21 22  2  0  0  0  0
 22 23  1  0  0  0  0
 23  8  1  0  0  0  0
 24 31  1  0  0  0  0
 25 30  2  0  0  0  0
 27 24  1  0  0  0  0
 28 25  1  0  0  0  0
 28 24  2  0  0  0  0
 29 26  1  0  0  0  0
 30 22  1  0  0  0  0
 30 29  1  0  0  0  0
 31 29  2  0  0  0  0
M  END
>  <MODEL>
8

>  <REMARK>
 VINA RESULT:      -8.3      4.009      8.206
  Name = 
  2 active torsions:
  status: ('A' for Active; 'I' for Inactive)
    1  A    between atoms: C_9  and  C_22
    2  A    between atoms: C_15  and  N_23
                            x       y       z     vdW  Elec       q    Type
                         _______ _______ _______ _____ _____    ______ ____

>  <TORSDO>
F 2

$$$$
=
 OpenBabel11052417513D

 31 35  0  0  1  0  0  0  0  0999 V2000
  186.3710  177.9490  146.8090 C   0  0  0  0  0  0  0  0  0  0  0  0
  189.3780  176.2930  145.1040 C   0  0  0  0  0  0  0  0  0  0  0  0
  190.4080  176.2800  145.9970 C   0  0  1  0  0  3  0  0  0  0  0  0
  191.4180  177.0620  148.0890 C   0  0  0  0  0  0  0  0  0  0  0  0
  188.0160  176.8500  145.3830 C   0  0  0  0  0  0  0  0  0  0  0  0
  185.4060  177.8180  145.8110 C   0  0  0  0  0  3  0  0  0  0  0  0
  190.3250  176.8980  147.3390 C   0  0  0  0  0  3  0  0  0  0  0  0
  188.6230  175.6740  142.8350 C   0  0  0  0  0  0  0  0  0  0  0  0
  186.0540  178.5400  147.9850 F   0  0  0  0  0  0  0  0  0  0  0  0
  191.9650  175.2990  144.2450 C   0  0  0  0  0  3  0  0  0  0  0  0
  191.3120  177.6510  149.3040 F   0  0  0  0  0  0  0  0  0  0  0  0
  187.3380  176.1270  143.1600 O   0  0  0  0  0  0  0  0  0  0  0  0
  189.6210  175.7400  143.7360 C   0  0  0  0  0  0  0  0  0  0  0  0
  187.6640  177.4660  146.5960 C   0  0  0  0  0  3  0  0  0  0  0  0
  192.7490  176.6900  147.5740 C   0  0  0  0  0  3  0  0  0  0  0  0
  187.0320  176.7270  144.3840 C   0  0  2  0  0  3  0  0  0  0  0  0
  185.7370  177.2080  144.5990 C   0  0  0  0  0  3  0  0  0  0  0  0
  190.9940  175.3690  143.3420 C   0  0  0  0  0  3  0  0  0  0  0  0
  191.6740  175.4870  145.7010 C   0  0  1  0  0  3  0  0  0  0  0  0
  192.8790  175.9950  146.4410 C   0  0  0  0  0  3  0  0  0  0  0  0
  187.7520  173.1160  141.7910 O   0  0  0  0  0  0  0  0  0  0  0  0
  188.4290  173.8700  141.0410 C   0  0  0  0  0  0  0  0  0  0  0  0
  188.8780  175.1440  141.5260 N   0  0  0  0  0  2  0  0  0  0  0  0
  189.3330  172.7850  136.9790 C   0  0  0  0  0  0  0  0  0  0  0  0
  188.2270  174.1990  138.5950 C   0  0  0  0  0  3  0  0  0  0  0  0
  190.2430  171.5000  140.3990 C   0  0  0  0  0  1  0  0  0  0  0  0
  189.6100  172.4550  135.6590 O   0  0  0  0  0  1  0  0  0  0  0  0
  188.5040  173.8690  137.2680 C   0  0  0  0  0  3  0  0  0  0  0  0
  189.6130  172.3550  139.3510 C   0  0  0  0  0  0  0  0  0  0  0  0
  188.7710  173.4570  139.6570 C   0  0  0  0  0  0  0  0  0  0  0  0
  189.8840  172.0340  138.0170 C   0  0  0  0  0  3  0  0  0  0  0  0
  1  9  1  0  0  0  0
  2  5  2  0  0  0  0
  2  3  1  0  0  0  0
  3  7  1  1  0  0  0
  4 11  1  0  0  0  0
  5 14  1  0  0  0  0
  6  1  1  0  0  0  0
  7  4  2  0  0  0  0
  8 12  1  0  0  0  0
  8 13  2  0  0  0  0
 12 16  1  0  0  0  0
 13  2  1  0  0  0  0
 14  1  2  0  0  0  0
 15  4  1  0  0  0  0
 16 17  1  6  0  0  0
 16  5  1  0  0  0  0
 17  6  2  0  0  0  0
 18 13  1  0  0  0  0
 18 10  2  0  0  0  0
 19 10  1  6  0  0  0
 19  3  1  0  0  0  0
 19 20  1  0  0  0  0
 20 15  2  0  0  0  0
 22 23  1  0  0  0  0
 22 21  2  0  0  0  0
 23  8  1  0  0  0  0
 24 28  2  0  0  0  0
 24 31  1  0  0  0  0
 25 30  2  0  0  0  0
 27 24  1  0  0  0  0
 28 25  1  0  0  0  0
 29 30  1  0  0  0  0
 29 26  1  0  0  0  0
 30 22  1  0  0  0  0
 31 29  2  0  0  0  0
M  END
>  <MODEL>
9

>  <REMARK>
 VINA RESULT:      -8.3      3.619      6.601
  Name = 
  2 active torsions:
  status: ('A' for Active; 'I' for Inactive)
    1  A    between atoms: C_9  and  C_22
    2  A    between atoms: C_15  and  N_23
                            x       y       z     vdW  Elec       q    Type
                         _______ _______ _______ _____ _____    ______ ____

>  <TORSDO>
F 2

$$$$
