=
 OpenBabel11052419533D

 37 42  0  0  1  0  0  0  0  0999 V2000
  189.4890  173.3430  141.4970 C   0  0  0  0  0  2  0  0  0  0  0  0
  190.7500  176.4550  145.0880 C   0  0  1  0  0  3  0  0  0  0  0  0
  189.8610  172.0800  140.6960 C   0  0  2  0  0  3  0  0  0  0  0  0
  193.2720  174.8020  143.2150 C   0  0  0  0  0  3  0  0  0  0  0  0
  188.4630  175.8770  144.5090 O   0  0  0  0  0  0  0  0  0  0  0  0
  191.0250  175.1490  144.3360 C   0  0  2  0  0  3  0  0  0  0  0  0
  189.3230  176.9500  144.8390 C   0  0  1  0  0  3  0  0  0  0  0  0
  192.5070  174.8050  144.3270 C   0  0  0  0  0  0  0  0  0  0  0  0
  188.8650  177.5720  146.1460 C   0  0  0  0  0  2  0  0  0  0  0  0
  191.3120  171.6210  140.9180 C   0  0  0  0  0  2  0  0  0  0  0  0
  188.7750  175.4030  143.2070 C   0  0  2  0  0  3  0  0  0  0  0  0
  192.2410  176.5000  147.1550 C   0  0  0  0  0  2  0  0  0  0  0  0
  189.8240  177.1170  147.2320 C   0  0  0  0  0  2  0  0  0  0  0  0
  192.3350  172.7720  140.9090 C   0  0  2  0  0  3  0  0  0  0  0  0
  192.7880  175.0970  141.8260 C   0  0  0  0  0  2  0  0  0  0  0  0
  190.8490  176.2120  146.5830 C   0  0  1  0  0  3  0  0  0  0  0  0
  190.2900  175.1260  142.9890 C   0  0  2  0  0  3  0  0  0  0  0  0
  193.1500  174.6080  145.6850 C   0  0  2  0  0  3  0  0  0  0  0  0
  191.7170  174.1100  141.3290 C   0  0  2  0  0  3  0  0  0  0  0  0
  190.6170  173.8750  142.2780 N   0  0  2  0  0  0  0  0  0  0  0  0
  193.4220  175.9670  146.3300 C   0  0  0  0  0  2  0  0  0  0  0  0
  195.6370  174.3160  145.8030 C   0  0  0  0  0  3  0  0  0  0  0  0
  194.3730  173.7300  145.6720 C   0  0  0  0  0  0  0  0  0  0  0  0
  194.2650  172.3320  145.5700 C   0  0  0  0  0  3  0  0  0  0  0  0
  195.3000  170.1910  145.4790 F   0  0  0  0  0  0  0  0  0  0  0  0
  196.6730  172.1290  145.7060 C   0  0  0  0  0  3  0  0  0  0  0  0
  195.4120  171.5360  145.5860 C   0  0  0  0  0  0  0  0  0  0  0  0
  196.7860  173.5160  145.8160 C   0  0  0  0  0  3  0  0  0  0  0  0
  193.0700  172.8720  139.5760 C   0  0  0  0  0  2  0  0  0  0  0  0
  192.4310  173.7680  138.7140 O   0  0  0  0  0  1  0  0  0  0  0  0
  188.6060  173.2460  139.2940 C   0  0  0  0  0  1  0  0  0  0  0  0
  189.6290  172.3000  139.3380 O   0  0  0  0  0  0  0  0  0  0  0  0
  188.2360  176.3340  142.1220 C   0  0  0  0  0  2  0  0  0  0  0  0
  186.7520  176.6110  142.3350 C   0  0  0  0  0  2  0  0  0  0  0  0
  186.4360  178.1020  142.3160 C   0  0  2  0  0  3  0  0  0  0  0  0
  186.1840  178.6290  143.7180 C   0  0  0  0  0  1  0  0  0  0  0  0
  185.3390  178.3710  141.4930 O   0  0  0  0  0  1  0  0  0  0  0  0
  1 20  1  0  0  0  0
  2 16  1  0  0  0  0
  3 10  1  0  0  0  0
  3  1  1  0  0  0  0
  4  8  2  0  0  0  0
  5  7  1  0  0  0  0
  6  2  1  0  0  0  0
  7  2  1  0  0  0  0
  7  9  1  0  0  0  0
  8  6  1  0  0  0  0
  8 18  1  0  0  0  0
  9 13  1  0  0  0  0
 11  5  1  0  0  0  0
 14 10  1  0  0  0  0
 14 19  1  0  0  0  0
 15  4  1  0  0  0  0
 16 12  1  0  0  0  0
 16 13  1  0  0  0  0
 17 11  1  0  0  0  0
 17  6  1  0  0  0  0
 18 21  1  0  0  0  0
 19 15  1  0  0  0  0
 19 20  1  0  0  0  0
 20 17  1  0  0  0  0
 21 12  1  0  0  0  0
 22 28  1  0  0  0  0
 23 18  1  0  0  0  0
 23 22  2  0  0  0  0
 24 27  2  0  0  0  0
 24 23  1  0  0  0  0
 25 27  1  0  0  0  0
 26 28  2  0  0  0  0
 27 26  1  0  0  0  0
 29 14  1  0  0  0  0
 30 29  1  0  0  0  0
 31 32  1  0  0  0  0
 32  3  1  0  0  0  0
 33 34  1  0  0  0  0
 33 11  1  0  0  0  0
 35 34  1  0  0  0  0
 35 36  1  0  0  0  0
 37 35  1  0  0  0  0
M  END
>  <MODEL>
1

>  <REMARK>
 VINA RESULT:      -7.6      0.000      0.000
  Name = 
  6 active torsions:
  status: ('A' for Active; 'I' for Inactive)
    1  A    between atoms: C_3  and  C_21
    2  A    between atoms: C_5  and  O_23
    3  A    between atoms: C_6  and  C_31
    4  A    between atoms: C_11  and  C_26
    5  A    between atoms: C_20  and  C_25
    6  A    between atoms: C_21  and  C_25
                            x       y       z     vdW  Elec       q    Type
                         _______ _______ _______ _____ _____    ______ ____

>  <TORSDO>
F 6

$$$$
=
 OpenBabel11052419533D

 37 42  0  0  1  0  0  0  0  0999 V2000
  191.7230  173.7390  140.9710 C   0  0  0  0  0  2  0  0  0  0  0  0
  192.8360  174.9170  145.6130 C   0  0  1  0  0  3  0  0  0  0  0  0
  190.6680  173.7780  139.8490 C   0  0  2  0  0  3  0  0  0  0  0  0
  189.4680  174.2310  144.7210 C   0  0  0  0  0  3  0  0  0  0  0  0
  194.4420  174.8280  143.7940 O   0  0  0  0  0  0  0  0  0  0  0  0
  191.8600  175.0240  144.4370 C   0  0  2  0  0  3  0  0  0  0  0  0
  194.2230  174.4730  145.1450 C   0  0  1  0  0  3  0  0  0  0  0  0
  190.4210  175.1700  144.9090 C   0  0  0  0  0  0  0  0  0  0  0  0
  195.2150  175.2140  146.0230 C   0  0  0  0  0  2  0  0  0  0  0  0
  189.2680  174.1790  140.3400 C   0  0  0  0  0  2  0  0  0  0  0  0
  193.6410  174.0110  142.9530 C   0  0  2  0  0  3  0  0  0  0  0  0
  192.0800  176.5590  147.4120 C   0  0  0  0  0  2  0  0  0  0  0  0
  194.4650  176.3410  146.7120 C   0  0  0  0  0  2  0  0  0  0  0  0
  188.8520  173.4960  141.6550 C   0  0  2  0  0  3  0  0  0  0  0  0
  189.6600  172.9320  143.9980 C   0  0  0  0  0  2  0  0  0  0  0  0
  193.0290  176.2860  146.2390 C   0  0  1  0  0  3  0  0  0  0  0  0
  192.1480  173.9450  143.3850 C   0  0  2  0  0  3  0  0  0  0  0  0
  190.1240  176.3850  145.7650 C   0  0  2  0  0  3  0  0  0  0  0  0
  190.0560  173.1060  142.5210 C   0  0  2  0  0  3  0  0  0  0  0  0
  191.1600  174.0530  142.2930 N   0  0  2  0  0  0  0  0  0  0  0  0
  190.6170  176.1440  147.1920 C   0  0  0  0  0  2  0  0  0  0  0  0
  187.8170  176.4280  146.7460 C   0  0  0  0  0  3  0  0  0  0  0  0
  188.6880  176.8340  145.7280 C   0  0  0  0  0  0  0  0  0  0  0  0
  188.2160  177.6850  144.7130 C   0  0  0  0  0  3  0  0  0  0  0  0
  186.4390  178.9230  143.7280 F   0  0  0  0  0  0  0  0  0  0  0  0
  186.0190  177.6910  145.7270 C   0  0  0  0  0  3  0  0  0  0  0  0
  186.8870  178.1100  144.7130 C   0  0  0  0  0  0  0  0  0  0  0  0
  186.4830  176.8530  146.7430 C   0  0  0  0  0  3  0  0  0  0  0  0
  187.9130  172.3180  141.4160 C   0  0  0  0  0  2  0  0  0  0  0  0
  186.7980  172.3840  142.2550 O   0  0  0  0  0  1  0  0  0  0  0  0
  191.8650  171.9600  139.4380 C   0  0  0  0  0  1  0  0  0  0  0  0
  190.6160  172.5390  139.2090 O   0  0  0  0  0  0  0  0  0  0  0  0
  194.2220  172.6050  142.8090 C   0  0  0  0  0  2  0  0  0  0  0  0
  193.3040  171.5710  143.4480 C   0  0  0  0  0  2  0  0  0  0  0  0
  193.9750  170.8420  144.6070 C   0  0  2  0  0  3  0  0  0  0  0  0
  195.4790  171.0550  144.5940 C   0  0  0  0  0  1  0  0  0  0  0  0
  193.6790  169.4770  144.5790 O   0  0  0  0  0  1  0  0  0  0  0  0
  1 20  1  0  0  0  0
  2 16  1  0  0  0  0
  3 10  1  0  0  0  0
  3  1  1  0  0  0  0
  4  8  2  0  0  0  0
  5  7  1  0  0  0  0
  6  8  1  0  0  0  0
  6  2  1  0  0  0  0
  7  2  1  0  0  0  0
  7  9  1  0  0  0  0
  8 18  1  0  0  0  0
  9 13  1  0  0  0  0
 10 14  1  0  0  0  0
 11 17  1  0  0  0  0
 11  5  1  0  0  0  0
 14 19  1  0  0  0  0
 15  4  1  0  0  0  0
 16 13  1  0  0  0  0
 16 12  1  0  0  0  0
 17  6  1  0  0  0  0
 18 21  1  0  0  0  0
 19 15  1  0  0  0  0
 20 19  1  0  0  0  0
 20 17  1  0  0  0  0
 21 12  1  0  0  0  0
 23 18  1  0  0  0  0
 23 22  2  0  0  0  0
 24 27  2  0  0  0  0
 24 23  1  0  0  0  0
 25 27  1  0  0  0  0
 26 28  2  0  0  0  0
 27 26  1  0  0  0  0
 28 22  1  0  0  0  0
 29 14  1  0  0  0  0
 29 30  1  0  0  0  0
 32 31  1  0  0  0  0
 32  3  1  0  0  0  0
 33 11  1  0  0  0  0
 33 34  1  0  0  0  0
 34 35  1  0  0  0  0
 36 35  1  0  0  0  0
 37 35  1  0  0  0  0
M  END
>  <MODEL>
2

>  <REMARK>
 VINA RESULT:      -7.3      2.966      6.616
  Name = 
  6 active torsions:
  status: ('A' for Active; 'I' for Inactive)
    1  A    between atoms: C_3  and  C_21
    2  A    between atoms: C_5  and  O_23
    3  A    between atoms: C_6  and  C_31
    4  A    between atoms: C_11  and  C_26
    5  A    between atoms: C_20  and  C_25
    6  A    between atoms: C_21  and  C_25
                            x       y       z     vdW  Elec       q    Type
                         _______ _______ _______ _____ _____    ______ ____

>  <TORSDO>
F 6

$$$$
=
 OpenBabel11052419533D

 37 42  0  0  1  0  0  0  0  0999 V2000
  191.7870  173.5250  141.2050 C   0  0  0  0  0  2  0  0  0  0  0  0
  189.6220  175.2440  145.2700 C   0  0  1  0  0  3  0  0  0  0  0  0
  191.7680  173.4530  139.6660 C   0  0  2  0  0  3  0  0  0  0  0  0
  187.6710  174.5490  142.3860 C   0  0  0  0  0  3  0  0  0  0  0  0
  192.0120  174.8810  145.0340 O   0  0  0  0  0  0  0  0  0  0  0  0
  189.7040  175.2310  143.7410 C   0  0  2  0  0  3  0  0  0  0  0  0
  190.9080  174.7050  145.9000 C   0  0  1  0  0  3  0  0  0  0  0  0
  188.3450  175.4760  143.1020 C   0  0  0  0  0  0  0  0  0  0  0  0
  191.1280  175.5210  147.1610 C   0  0  0  0  0  2  0  0  0  0  0  0
  190.4520  173.9530  139.0480 C   0  0  0  0  0  2  0  0  0  0  0  0
  191.8990  173.9880  143.9350 C   0  0  2  0  0  3  0  0  0  0  0  0
  188.0360  177.1200  145.9560 C   0  0  0  0  0  2  0  0  0  0  0  0
  190.2350  176.7470  147.0750 C   0  0  0  0  0  2  0  0  0  0  0  0
  189.1930  173.4530  139.7790 C   0  0  2  0  0  3  0  0  0  0  0  0
  188.1590  173.1640  142.0820 C   0  0  0  0  0  2  0  0  0  0  0  0
  189.4900  176.6750  145.7600 C   0  0  1  0  0  3  0  0  0  0  0  0
  190.5060  174.0200  143.2450 C   0  0  2  0  0  3  0  0  0  0  0  0
  187.6830  176.7970  143.4380 C   0  0  2  0  0  3  0  0  0  0  0  0
  189.4570  173.1410  141.2570 C   0  0  2  0  0  3  0  0  0  0  0  0
  190.5220  174.0190  141.7690 N   0  0  2  0  0  0  0  0  0  0  0  0
  187.0650  176.7230  144.8340 C   0  0  0  0  0  2  0  0  0  0  0  0
  187.1260  177.4550  141.0840 C   0  0  0  0  0  3  0  0  0  0  0  0
  186.6990  177.2800  142.4050 C   0  0  0  0  0  0  0  0  0  0  0  0
  185.3550  177.5200  142.7360 C   0  0  0  0  0  3  0  0  0  0  0  0
  183.1630  178.1790  142.0850 F   0  0  0  0  0  0  0  0  0  0  0  0
  184.8900  178.1260  140.4400 C   0  0  0  0  0  3  0  0  0  0  0  0
  184.4540  177.9430  141.7560 C   0  0  0  0  0  0  0  0  0  0  0  0
  186.2220  177.8800  140.1030 C   0  0  0  0  0  3  0  0  0  0  0  0
  188.5380  172.2820  139.0530 C   0  0  0  0  0  2  0  0  0  0  0  0
  188.9490  172.2230  137.7190 O   0  0  0  0  0  1  0  0  0  0  0  0
  192.4700  172.2620  137.9360 C   0  0  0  0  0  1  0  0  0  0  0  0
  192.0260  172.1460  139.2540 O   0  0  0  0  0  0  0  0  0  0  0  0
  192.2740  172.5600  144.3260 C   0  0  0  0  0  2  0  0  0  0  0  0
  193.7730  172.3320  144.1730 C   0  0  0  0  0  2  0  0  0  0  0  0
  194.5170  172.4810  145.4950 C   0  0  2  0  0  3  0  0  0  0  0  0
  195.3570  173.7460  145.5150 C   0  0  0  0  0  1  0  0  0  0  0  0
  195.3180  171.3640  145.7480 O   0  0  0  0  0  1  0  0  0  0  0  0
  1 20  1  0  0  0  0
  2 16  1  0  0  0  0
  2  7  1  0  0  0  0
  3  1  1  0  0  0  0
  4  8  2  0  0  0  0
  5  7  1  0  0  0  0
  6  2  1  0  0  0  0
  7  9  1  0  0  0  0
  8 18  1  0  0  0  0
  8  6  1  0  0  0  0
 10  3  1  0  0  0  0
 10 14  1  0  0  0  0
 11 33  1  0  0  0  0
 11  5  1  0  0  0  0
 13  9  1  0  0  0  0
 14 19  1  0  0  0  0
 15  4  1  0  0  0  0
 16 12  1  0  0  0  0
 16 13  1  0  0  0  0
 17  6  1  0  0  0  0
 17 11  1  0  0  0  0
 18 21  1  0  0  0  0
 19 20  1  0  0  0  0
 19 15  1  0  0  0  0
 20 17  1  0  0  0  0
 21 12  1  0  0  0  0
 22 23  1  0  0  0  0
 23 24  2  0  0  0  0
 23 18  1  0  0  0  0
 26 27  2  0  0  0  0
 27 25  1  0  0  0  0
 27 24  1  0  0  0  0
 28 26  1  0  0  0  0
 28 22  2  0  0  0  0
 29 14  1  0  0  0  0
 30 29  1  0  0  0  0
 31 32  1  0  0  0  0
 32  3  1  0  0  0  0
 34 33  1  0  0  0  0
 34 35  1  0  0  0  0
 35 36  1  0  0  0  0
 35 37  1  0  0  0  0
M  END
>  <MODEL>
3

>  <REMARK>
 VINA RESULT:      -7.2      3.162      7.147
  Name = 
  6 active torsions:
  status: ('A' for Active; 'I' for Inactive)
    1  A    between atoms: C_3  and  C_21
    2  A    between atoms: C_5  and  O_23
    3  A    between atoms: C_6  and  C_31
    4  A    between atoms: C_11  and  C_26
    5  A    between atoms: C_20  and  C_25
    6  A    between atoms: C_21  and  C_25
                            x       y       z     vdW  Elec       q    Type
                         _______ _______ _______ _____ _____    ______ ____

>  <TORSDO>
F 6

$$$$
=
 OpenBabel11052419533D

 37 42  0  0  1  0  0  0  0  0999 V2000
  194.6930  173.7080  143.9690 C   0  0  0  0  0  2  0  0  0  0  0  0
  190.8500  173.9720  140.9150 C   0  0  1  0  0  3  0  0  0  0  0  0
  195.2420  174.0000  145.3790 C   0  0  2  0  0  3  0  0  0  0  0  0
  191.2550  176.4110  143.4630 C   0  0  0  0  0  3  0  0  0  0  0  0
  192.5210  172.2100  140.8720 O   0  0  0  0  0  0  0  0  0  0  0  0
  191.4060  174.1470  142.3310 C   0  0  2  0  0  3  0  0  0  0  0  0
  191.7650  173.0900  140.0630 C   0  0  1  0  0  3  0  0  0  0  0  0
  190.6790  175.2480  143.0900 C   0  0  0  0  0  0  0  0  0  0  0  0
  190.8460  172.2790  139.1680 C   0  0  0  0  0  2  0  0  0  0  0  0
  194.3360  174.9260  146.2070 C   0  0  0  0  0  2  0  0  0  0  0  0
  193.5050  172.9480  141.5840 C   0  0  2  0  0  3  0  0  0  0  0  0
  188.3120  174.1920  141.0350 C   0  0  0  0  0  2  0  0  0  0  0  0
  189.4410  172.3850  139.7360 C   0  0  0  0  0  2  0  0  0  0  0  0
  193.7880  176.1280  145.4170 C   0  0  2  0  0  3  0  0  0  0  0  0
  192.6870  176.7880  143.2240 C   0  0  0  0  0  2  0  0  0  0  0  0
  189.5180  173.2470  140.9780 C   0  0  1  0  0  3  0  0  0  0  0  0
  192.9390  174.1990  142.3160 C   0  0  2  0  0  3  0  0  0  0  0  0
  189.1900  175.0460  143.2860 C   0  0  2  0  0  3  0  0  0  0  0  0
  193.6890  175.8460  143.9130 C   0  0  2  0  0  3  0  0  0  0  0  0
  193.4330  174.4130  143.6900 N   0  0  2  0  0  0  0  0  0  0  0  0
  188.4500  175.3850  141.9920 C   0  0  0  0  0  2  0  0  0  0  0  0
  188.9320  175.3220  145.7640 C   0  0  0  0  0  3  0  0  0  0  0  0
  188.6170  175.7690  144.4760 C   0  0  0  0  0  0  0  0  0  0  0  0
  187.8040  176.9040  144.3160 C   0  0  0  0  0  3  0  0  0  0  0  0
  186.5150  178.6610  145.2730 F   0  0  0  0  0  0  0  0  0  0  0  0
  187.6140  177.1150  146.7200 C   0  0  0  0  0  3  0  0  0  0  0  0
  187.3030  177.5730  145.4350 C   0  0  0  0  0  0  0  0  0  0  0  0
  188.4290  175.9930  146.8850 C   0  0  0  0  0  3  0  0  0  0  0  0
  194.5650  177.4070  145.7110 C   0  0  0  0  0  2  0  0  0  0  0  0
  195.6550  177.5450  144.8470 O   0  0  0  0  0  1  0  0  0  0  0  0
  197.0000  174.1250  144.0390 C   0  0  0  0  0  1  0  0  0  0  0  0
  196.5230  174.5420  145.2820 O   0  0  0  0  0  0  0  0  0  0  0  0
  194.6800  173.3340  140.6880 C   0  0  0  0  0  2  0  0  0  0  0  0
  194.7120  174.8400  140.4550 C   0  0  0  0  0  2  0  0  0  0  0  0
  196.1130  175.4190  140.6140 C   0  0  2  0  0  3  0  0  0  0  0  0
  196.0710  176.7890  141.2680 C   0  0  0  0  0  1  0  0  0  0  0  0
  196.7690  175.4900  139.3830 O   0  0  0  0  0  1  0  0  0  0  0  0
  1  3  1  0  0  0  0
  2 16  1  0  0  0  0
  2  6  1  0  0  0  0
  3 10  1  0  0  0  0
  5 11  1  0  0  0  0
  6  8  1  0  0  0  0
  7  5  1  0  0  0  0
  7  2  1  0  0  0  0
  8 18  1  0  0  0  0
  8  4  2  0  0  0  0
  9 13  1  0  0  0  0
  9  7  1  0  0  0  0
 11 17  1  0  0  0  0
 12 21  1  0  0  0  0
 13 16  1  0  0  0  0
 14 29  1  0  0  0  0
 14 10  1  0  0  0  0
 15  4  1  0  0  0  0
 15 19  1  0  0  0  0
 16 12  1  0  0  0  0
 17  6  1  0  0  0  0
 17 20  1  0  0  0  0
 18 23  1  0  0  0  0
 19 14  1  0  0  0  0
 20 19  1  0  0  0  0
 20  1  1  0  0  0  0
 21 18  1  0  0  0  0
 22 28  1  0  0  0  0
 23 22  2  0  0  0  0
 24 23  1  0  0  0  0
 24 27  2  0  0  0  0
 25 27  1  0  0  0  0
 26 28  2  0  0  0  0
 27 26  1  0  0  0  0
 30 29  1  0  0  0  0
 31 32  1  0  0  0  0
 32  3  1  0  0  0  0
 33 11  1  0  0  0  0
 34 35  1  0  0  0  0
 34 33  1  0  0  0  0
 35 36  1  0  0  0  0
 37 35  1  0  0  0  0
M  END
>  <MODEL>
4

>  <REMARK>
 VINA RESULT:      -7.0      3.258      7.455
  Name = 
  6 active torsions:
  status: ('A' for Active; 'I' for Inactive)
    1  A    between atoms: C_3  and  C_21
    2  A    between atoms: C_5  and  O_23
    3  A    between atoms: C_6  and  C_31
    4  A    between atoms: C_11  and  C_26
    5  A    between atoms: C_20  and  C_25
    6  A    between atoms: C_21  and  C_25
                            x       y       z     vdW  Elec       q    Type
                         _______ _______ _______ _____ _____    ______ ____

>  <TORSDO>
F 6

$$$$
=
 OpenBabel11052419533D

 37 42  0  0  1  0  0  0  0  0999 V2000
  195.2290  173.6130  143.4370 C   0  0  0  0  0  2  0  0  0  0  0  0
  191.2030  173.7770  140.6200 C   0  0  1  0  0  3  0  0  0  0  0  0
  195.8340  173.8410  144.8360 C   0  0  2  0  0  3  0  0  0  0  0  0
  191.5540  176.0360  143.3370 C   0  0  0  0  0  3  0  0  0  0  0  0
  193.0090  172.1770  140.3450 O   0  0  0  0  0  0  0  0  0  0  0  0
  191.8260  173.8890  142.0160 C   0  0  2  0  0  3  0  0  0  0  0  0
  192.1370  173.0470  139.6520 C   0  0  1  0  0  3  0  0  0  0  0  0
  191.0570  174.8590  142.9000 C   0  0  0  0  0  0  0  0  0  0  0  0
  191.2370  172.2310  138.7420 C   0  0  0  0  0  2  0  0  0  0  0  0
  194.9050  174.6170  145.7840 C   0  0  0  0  0  2  0  0  0  0  0  0
  193.9690  172.9400  141.0630 C   0  0  2  0  0  3  0  0  0  0  0  0
  188.6680  173.7640  140.8910 C   0  0  0  0  0  2  0  0  0  0  0  0
  189.8640  172.1690  139.3890 C   0  0  0  0  0  2  0  0  0  0  0  0
  194.2140  175.8240  145.1250 C   0  0  2  0  0  3  0  0  0  0  0  0
  192.9330  176.5540  143.0550 C   0  0  0  0  0  2  0  0  0  0  0  0
  189.9420  172.9350  140.6920 C   0  0  1  0  0  3  0  0  0  0  0  0
  193.3460  174.0750  141.9240 C   0  0  2  0  0  3  0  0  0  0  0  0
  189.6040  174.5140  143.1560 C   0  0  2  0  0  3  0  0  0  0  0  0
  194.0500  175.6520  143.6110 C   0  0  2  0  0  3  0  0  0  0  0  0
  193.9000  174.2250  143.2840 N   0  0  2  0  0  0  0  0  0  0  0  0
  188.7620  174.8860  141.9350 C   0  0  0  0  0  2  0  0  0  0  0  0
  188.1390  176.1540  144.3600 C   0  0  0  0  0  3  0  0  0  0  0  0
  189.0430  175.0880  144.4300 C   0  0  0  0  0  0  0  0  0  0  0  0
  189.3820  174.5480  145.6830 C   0  0  0  0  0  3  0  0  0  0  0  0
  189.1670  174.5600  148.0530 F   0  0  0  0  0  0  0  0  0  0  0  0
  187.9350  176.1530  146.7730 C   0  0  0  0  0  3  0  0  0  0  0  0
  188.8300  175.0800  146.8490 C   0  0  0  0  0  0  0  0  0  0  0  0
  187.5880  176.6880  145.5310 C   0  0  0  0  0  3  0  0  0  0  0  0
  194.8980  177.1400  145.4830 C   0  0  0  0  0  2  0  0  0  0  0  0
  194.5500  177.5540  146.7710 O   0  0  0  0  0  1  0  0  0  0  0  0
  197.5890  174.0610  143.5040 C   0  0  0  0  0  1  0  0  0  0  0  0
  197.0580  174.4990  144.7170 O   0  0  0  0  0  0  0  0  0  0  0  0
  195.0530  173.4960  140.1410 C   0  0  0  0  0  2  0  0  0  0  0  0
  194.9590  175.0150  140.0490 C   0  0  0  0  0  2  0  0  0  0  0  0
  196.3310  175.6790  140.0710 C   0  0  2  0  0  3  0  0  0  0  0  0
  197.4410  174.6540  139.9200 C   0  0  0  0  0  1  0  0  0  0  0  0
  196.5110  176.4190  141.2420 O   0  0  0  0  0  1  0  0  0  0  0  0
  1  3  1  0  0  0  0
  2 16  1  0  0  0  0
  2  6  1  0  0  0  0
  3 10  1  0  0  0  0
  5 11  1  0  0  0  0
  6  8  1  0  0  0  0
  7  5  1  0  0  0  0
  7  2  1  0  0  0  0
  8 18  1  0  0  0  0
  8  4  2  0  0  0  0
  9 13  1  0  0  0  0
  9  7  1  0  0  0  0
 11 17  1  0  0  0  0
 12 21  1  0  0  0  0
 13 16  1  0  0  0  0
 14 29  1  0  0  0  0
 14 10  1  0  0  0  0
 15  4  1  0  0  0  0
 15 19  1  0  0  0  0
 16 12  1  0  0  0  0
 17  6  1  0  0  0  0
 17 20  1  0  0  0  0
 18 23  1  0  0  0  0
 19 14  1  0  0  0  0
 20  1  1  0  0  0  0
 20 19  1  0  0  0  0
 21 18  1  0  0  0  0
 22 23  2  0  0  0  0
 22 28  1  0  0  0  0
 23 24  1  0  0  0  0
 24 27  2  0  0  0  0
 26 27  1  0  0  0  0
 27 25  1  0  0  0  0
 28 26  2  0  0  0  0
 29 30  1  0  0  0  0
 31 32  1  0  0  0  0
 32  3  1  0  0  0  0
 33 11  1  0  0  0  0
 34 35  1  0  0  0  0
 34 33  1  0  0  0  0
 35 37  1  0  0  0  0
 36 35  1  0  0  0  0
M  END
>  <MODEL>
5

>  <REMARK>
 VINA RESULT:      -7.0      3.027      7.392
  Name = 
  6 active torsions:
  status: ('A' for Active; 'I' for Inactive)
    1  A    between atoms: C_3  and  C_21
    2  A    between atoms: C_5  and  O_23
    3  A    between atoms: C_6  and  C_31
    4  A    between atoms: C_11  and  C_26
    5  A    between atoms: C_20  and  C_25
    6  A    between atoms: C_21  and  C_25
                            x       y       z     vdW  Elec       q    Type
                         _______ _______ _______ _____ _____    ______ ____

>  <TORSDO>
F 6

$$$$
=
 OpenBabel11052419533D

 37 42  0  0  1  0  0  0  0  0999 V2000
  191.9950  173.8080  140.8080 C   0  0  0  0  0  2  0  0  0  0  0  0
  192.6580  174.9820  145.5360 C   0  0  1  0  0  3  0  0  0  0  0  0
  191.0440  173.8280  139.5960 C   0  0  2  0  0  3  0  0  0  0  0  0
  189.4020  174.2200  144.3430 C   0  0  0  0  0  3  0  0  0  0  0  0
  194.4230  174.9440  143.8680 O   0  0  0  0  0  0  0  0  0  0  0  0
  191.7890  175.0730  144.2780 C   0  0  2  0  0  3  0  0  0  0  0  0
  194.0920  174.5740  145.1920 C   0  0  1  0  0  3  0  0  0  0  0  0
  190.3100  175.1800  144.6200 C   0  0  0  0  0  0  0  0  0  0  0  0
  194.9830  175.3340  146.1590 C   0  0  0  0  0  2  0  0  0  0  0  0
  189.5960  174.1920  139.9620 C   0  0  0  0  0  2  0  0  0  0  0  0
  193.7210  174.1130  142.9550 C   0  0  2  0  0  3  0  0  0  0  0  0
  191.7040  176.5920  147.2670 C   0  0  0  0  0  2  0  0  0  0  0  0
  194.1470  176.4380  146.7830 C   0  0  0  0  0  2  0  0  0  0  0  0
  189.0820  173.4900  141.2310 C   0  0  2  0  0  3  0  0  0  0  0  0
  189.6900  172.9310  143.6340 C   0  0  0  0  0  2  0  0  0  0  0  0
  192.7600  176.3510  146.1830 C   0  0  1  0  0  3  0  0  0  0  0  0
  192.1970  174.0080  143.2510 C   0  0  2  0  0  3  0  0  0  0  0  0
  189.9080  176.3820  145.4510 C   0  0  2  0  0  3  0  0  0  0  0  0
  190.2120  173.1250  142.1990 C   0  0  2  0  0  3  0  0  0  0  0  0
  191.3090  174.0990  142.0760 N   0  0  2  0  0  0  0  0  0  0  0  0
  190.2780  176.1440  146.9150 C   0  0  0  0  0  2  0  0  0  0  0  0
  187.5280  176.3920  146.2410 C   0  0  0  0  0  3  0  0  0  0  0  0
  188.4700  176.7970  145.2870 C   0  0  0  0  0  0  0  0  0  0  0  0
  188.0650  177.6140  144.2180 C   0  0  0  0  0  3  0  0  0  0  0  0
  186.3460  178.7880  143.0630 F   0  0  0  0  0  0  0  0  0  0  0  0
  185.7930  177.5900  145.0510 C   0  0  0  0  0  3  0  0  0  0  0  0
  186.7300  178.0070  144.1010 C   0  0  0  0  0  0  0  0  0  0  0  0
  186.1900  176.7860  146.1210 C   0  0  0  0  0  3  0  0  0  0  0  0
  188.1970  172.2920  140.9030 C   0  0  0  0  0  2  0  0  0  0  0  0
  187.8220  172.2960  139.5570 O   0  0  0  0  0  1  0  0  0  0  0  0
  190.8050  172.8760  137.6110 C   0  0  0  0  0  1  0  0  0  0  0  0
  191.0810  172.5930  138.9490 O   0  0  0  0  0  0  0  0  0  0  0  0
  194.3470  172.7230  142.8570 C   0  0  0  0  0  2  0  0  0  0  0  0
  195.7850  172.8110  142.3590 C   0  0  0  0  0  2  0  0  0  0  0  0
  196.7890  172.3560  143.4120 C   0  0  2  0  0  3  0  0  0  0  0  0
  196.1330  171.4570  144.4450 C   0  0  0  0  0  1  0  0  0  0  0  0
  197.3930  173.4510  144.0350 O   0  0  0  0  0  1  0  0  0  0  0  0
  1 20  1  0  0  0  0
  2 16  1  0  0  0  0
  3 10  1  0  0  0  0
  3  1  1  0  0  0  0
  4  8  2  0  0  0  0
  5  7  1  0  0  0  0
  6  8  1  0  0  0  0
  6  2  1  0  0  0  0
  7  2  1  0  0  0  0
  7  9  1  0  0  0  0
  8 18  1  0  0  0  0
  9 13  1  0  0  0  0
 10 14  1  0  0  0  0
 11 17  1  0  0  0  0
 11  5  1  0  0  0  0
 14 19  1  0  0  0  0
 15  4  1  0  0  0  0
 16 13  1  0  0  0  0
 16 12  1  0  0  0  0
 17  6  1  0  0  0  0
 18 21  1  0  0  0  0
 19 15  1  0  0  0  0
 20 19  1  0  0  0  0
 20 17  1  0  0  0  0
 21 12  1  0  0  0  0
 23 18  1  0  0  0  0
 23 22  2  0  0  0  0
 24 23  1  0  0  0  0
 25 27  1  0  0  0  0
 26 28  2  0  0  0  0
 27 24  2  0  0  0  0
 27 26  1  0  0  0  0
 28 22  1  0  0  0  0
 29 14  1  0  0  0  0
 30 29  1  0  0  0  0
 31 32  1  0  0  0  0
 32  3  1  0  0  0  0
 33 11  1  0  0  0  0
 34 33  1  0  0  0  0
 34 35  1  0  0  0  0
 35 37  1  0  0  0  0
 35 36  1  0  0  0  0
M  END
>  <MODEL>
6

>  <REMARK>
 VINA RESULT:      -7.0      2.982      6.739
  Name = 
  6 active torsions:
  status: ('A' for Active; 'I' for Inactive)
    1  A    between atoms: C_3  and  C_21
    2  A    between atoms: C_5  and  O_23
    3  A    between atoms: C_6  and  C_31
    4  A    between atoms: C_11  and  C_26
    5  A    between atoms: C_20  and  C_25
    6  A    between atoms: C_21  and  C_25
                            x       y       z     vdW  Elec       q    Type
                         _______ _______ _______ _____ _____    ______ ____

>  <TORSDO>
F 6

$$$$
=
 OpenBabel11052419533D

 37 42  0  0  1  0  0  0  0  0999 V2000
  189.8620  176.4760  143.7430 C   0  0  0  0  0  2  0  0  0  0  0  0
  189.4440  172.2560  141.2560 C   0  0  1  0  0  3  0  0  0  0  0  0
  190.6390  177.2730  144.8080 C   0  0  2  0  0  3  0  0  0  0  0  0
  190.7650  172.2430  144.5520 C   0  0  0  0  0  3  0  0  0  0  0  0
  188.8670  174.4390  140.3650 O   0  0  0  0  0  0  0  0  0  0  0  0
  190.2480  173.1220  142.2310 C   0  0  2  0  0  3  0  0  0  0  0  0
  188.4410  173.0950  140.4630 C   0  0  1  0  0  3  0  0  0  0  0  0
  191.0260  172.2770  143.2280 C   0  0  0  0  0  0  0  0  0  0  0  0
  188.3930  172.4840  139.0740 C   0  0  0  0  0  2  0  0  0  0  0  0
  191.6090  176.4080  145.6310 C   0  0  0  0  0  2  0  0  0  0  0  0
  188.7460  175.0690  141.6320 C   0  0  2  0  0  3  0  0  0  0  0  0
  190.8870  170.2530  140.6150 C   0  0  0  0  0  2  0  0  0  0  0  0
  189.6000  171.5730  138.9320 C   0  0  0  0  0  2  0  0  0  0  0  0
  191.0150  175.0600  146.0750 C   0  0  2  0  0  3  0  0  0  0  0  0
  189.7060  173.0450  145.2490 C   0  0  0  0  0  2  0  0  0  0  0  0
  190.3800  171.6470  140.2270 C   0  0  1  0  0  3  0  0  0  0  0  0
  189.3830  174.2570  142.7960 C   0  0  2  0  0  3  0  0  0  0  0  0
  192.0440  171.3230  142.6350 C   0  0  2  0  0  3  0  0  0  0  0  0
  189.9130  174.5650  145.1310 C   0  0  2  0  0  3  0  0  0  0  0  0
  190.1780  175.0390  143.7630 N   0  0  2  0  0  0  0  0  0  0  0  0
  191.3320  170.0910  142.0760 C   0  0  0  0  0  2  0  0  0  0  0  0
  194.1760  171.8920  143.8250 C   0  0  0  0  0  3  0  0  0  0  0  0
  193.1670  170.9560  143.5680 C   0  0  0  0  0  0  0  0  0  0  0  0
  193.2000  169.7080  144.2130 C   0  0  0  0  0  3  0  0  0  0  0  0
  194.2670  168.1920  145.7050 F   0  0  0  0  0  0  0  0  0  0  0  0
  195.2500  170.3340  145.3380 C   0  0  0  0  0  3  0  0  0  0  0  0
  194.2390  169.3990  145.0940 C   0  0  0  0  0  0  0  0  0  0  0  0
  195.2180  171.5790  144.7070 C   0  0  0  0  0  3  0  0  0  0  0  0
  190.5550  175.0890  147.5290 C   0  0  0  0  0  2  0  0  0  0  0  0
  191.2160  176.0890  148.2470 O   0  0  0  0  0  1  0  0  0  0  0  0
  188.5010  177.8050  145.0290 C   0  0  0  0  0  1  0  0  0  0  0  0
  189.7430  177.9260  145.6540 O   0  0  0  0  0  0  0  0  0  0  0  0
  187.2950  175.4220  141.9520 C   0  0  0  0  0  2  0  0  0  0  0  0
  186.9790  176.8510  141.5280 C   0  0  0  0  0  2  0  0  0  0  0  0
  185.7830  177.4250  142.2810 C   0  0  2  0  0  3  0  0  0  0  0  0
  185.9810  178.9000  142.5840 C   0  0  0  0  0  1  0  0  0  0  0  0
  185.5470  176.7160  143.4610 O   0  0  0  0  0  1  0  0  0  0  0  0
  1 20  1  0  0  0  0
  1  3  1  0  0  0  0
  2  6  1  0  0  0  0
  3 10  1  0  0  0  0
  3 32  1  0  0  0  0
  4 15  1  0  0  0  0
  5  7  1  0  0  0  0
  5 11  1  0  0  0  0
  6 17  1  0  0  0  0
  6  8  1  0  0  0  0
  7  2  1  0  0  0  0
  8  4  2  0  0  0  0
  9  7  1  0  0  0  0
 10 14  1  0  0  0  0
 11 33  1  0  0  0  0
 11 17  1  0  0  0  0
 12 21  1  0  0  0  0
 13  9  1  0  0  0  0
 13 16  1  0  0  0  0
 14 29  1  0  0  0  0
 16 12  1  0  0  0  0
 16  2  1  0  0  0  0
 17 20  1  0  0  0  0
 18  8  1  0  0  0  0
 18 23  1  0  0  0  0
 19 15  1  0  0  0  0
 19 14  1  0  0  0  0
 20 19  1  0  0  0  0
 21 18  1  0  0  0  0
 22 28  1  0  0  0  0
 23 22  2  0  0  0  0
 23 24  1  0  0  0  0
 24 27  2  0  0  0  0
 27 26  1  0  0  0  0
 27 25  1  0  0  0  0
 28 26  2  0  0  0  0
 29 30  1  0  0  0  0
 31 32  1  0  0  0  0
 34 33  1  0  0  0  0
 34 35  1  0  0  0  0
 35 36  1  0  0  0  0
 35 37  1  0  0  0  0
M  END
>  <MODEL>
7

>  <REMARK>
 VINA RESULT:      -6.8      2.033      5.400
  Name = 
  6 active torsions:
  status: ('A' for Active; 'I' for Inactive)
    1  A    between atoms: C_3  and  C_21
    2  A    between atoms: C_5  and  O_23
    3  A    between atoms: C_6  and  C_31
    4  A    between atoms: C_11  and  C_26
    5  A    between atoms: C_20  and  C_25
    6  A    between atoms: C_21  and  C_25
                            x       y       z     vdW  Elec       q    Type
                         _______ _______ _______ _____ _____    ______ ____

>  <TORSDO>
F 6

$$$$
=
 OpenBabel11052419533D

 37 42  0  0  1  0  0  0  0  0999 V2000
  194.7170  175.1560  143.9580 C   0  0  0  0  0  2  0  0  0  0  0  0
  189.8690  175.8100  143.4770 C   0  0  1  0  0  3  0  0  0  0  0  0
  195.9880  174.4800  143.4080 C   0  0  2  0  0  3  0  0  0  0  0  0
  191.3550  172.7610  142.4270 C   0  0  0  0  0  3  0  0  0  0  0  0
  191.4030  177.4830  144.3400 O   0  0  0  0  0  0  0  0  0  0  0  0
  191.1730  175.2450  142.9050 C   0  0  2  0  0  3  0  0  0  0  0  0
  190.1440  176.8730  144.5430 C   0  0  1  0  0  3  0  0  0  0  0  0
  190.9290  173.9930  142.0750 C   0  0  0  0  0  0  0  0  0  0  0  0
  189.0530  177.9160  144.3820 C   0  0  0  0  0  2  0  0  0  0  0  0
  195.6950  173.3800  142.3730 C   0  0  0  0  0  2  0  0  0  0  0  0
  192.4340  176.5610  144.6600 C   0  0  2  0  0  3  0  0  0  0  0  0
  188.0740  175.6160  141.6760 C   0  0  0  0  0  2  0  0  0  0  0  0
  188.3940  177.6860  143.0320 C   0  0  0  0  0  2  0  0  0  0  0  0
  194.5340  172.4510  142.7660 C   0  0  2  0  0  3  0  0  0  0  0  0
  192.1530  172.4360  143.6540 C   0  0  0  0  0  2  0  0  0  0  0  0
  189.0970  176.5170  142.3770 C   0  0  1  0  0  3  0  0  0  0  0  0
  192.2580  175.1690  143.9870 C   0  0  2  0  0  3  0  0  0  0  0  0
  190.0250  174.1630  140.8710 C   0  0  2  0  0  3  0  0  0  0  0  0
  193.5230  173.1340  143.6950 C   0  0  2  0  0  3  0  0  0  0  0  0
  193.4810  174.5780  143.4100 N   0  0  2  0  0  0  0  0  0  0  0  0
  188.5650  174.2050  141.3220 C   0  0  0  0  0  2  0  0  0  0  0  0
  189.3080  172.1440  139.5690 C   0  0  0  0  0  3  0  0  0  0  0  0
  190.2530  173.1550  139.7760 C   0  0  0  0  0  0  0  0  0  0  0  0
  191.3770  173.2350  138.9350 C   0  0  0  0  0  3  0  0  0  0  0  0
  192.6440  172.3830  137.1090 F   0  0  0  0  0  0  0  0  0  0  0  0
  190.6120  171.2900  137.7150 C   0  0  0  0  0  3  0  0  0  0  0  0
  191.5550  172.3040  137.9090 C   0  0  0  0  0  0  0  0  0  0  0  0
  189.4890  171.2110  138.5410 C   0  0  0  0  0  3  0  0  0  0  0  0
  195.0290  171.1250  143.3340 C   0  0  0  0  0  2  0  0  0  0  0  0
  196.3730  170.9110  143.0140 O   0  0  0  0  0  1  0  0  0  0  0  0
  196.2010  174.5410  145.6110 C   0  0  0  0  0  1  0  0  0  0  0  0
  196.7380  173.9590  144.4630 O   0  0  0  0  0  0  0  0  0  0  0  0
  192.6100  176.4110  146.1700 C   0  0  0  0  0  2  0  0  0  0  0  0
  191.9960  175.1040  146.6600 C   0  0  0  0  0  2  0  0  0  0  0  0
  190.9230  175.3330  147.7180 C   0  0  2  0  0  3  0  0  0  0  0  0
  189.5780  174.7930  147.2630 C   0  0  0  0  0  1  0  0  0  0  0  0
  190.8170  176.6890  148.0390 O   0  0  0  0  0  1  0  0  0  0  0  0
  2  7  1  0  0  0  0
  3  1  1  0  0  0  0
  3 32  1  0  0  0  0
  4 15  1  0  0  0  0
  5  7  1  0  0  0  0
  5 11  1  0  0  0  0
  6  2  1  0  0  0  0
  6 17  1  0  0  0  0
  8  4  2  0  0  0  0
  8  6  1  0  0  0  0
  9  7  1  0  0  0  0
 10 14  1  0  0  0  0
 10  3  1  0  0  0  0
 11 33  1  0  0  0  0
 12 16  1  0  0  0  0
 13  9  1  0  0  0  0
 14 29  1  0  0  0  0
 14 19  1  0  0  0  0
 15 19  1  0  0  0  0
 16 13  1  0  0  0  0
 16  2  1  0  0  0  0
 17 11  1  0  0  0  0
 18 21  1  0  0  0  0
 18  8  1  0  0  0  0
 20 19  1  0  0  0  0
 20  1  1  0  0  0  0
 20 17  1  0  0  0  0
 21 12  1  0  0  0  0
 22 23  1  0  0  0  0
 23 18  1  0  0  0  0
 24 23  2  0  0  0  0
 25 27  1  0  0  0  0
 26 27  2  0  0  0  0
 26 28  1  0  0  0  0
 27 24  1  0  0  0  0
 28 22  2  0  0  0  0
 30 29  1  0  0  0  0
 32 31  1  0  0  0  0
 33 34  1  0  0  0  0
 34 35  1  0  0  0  0
 35 37  1  0  0  0  0
 36 35  1  0  0  0  0
M  END
>  <MODEL>
8

>  <REMARK>
 VINA RESULT:      -6.6      2.962      6.238
  Name = 
  6 active torsions:
  status: ('A' for Active; 'I' for Inactive)
    1  A    between atoms: C_3  and  C_21
    2  A    between atoms: C_5  and  O_23
    3  A    between atoms: C_6  and  C_31
    4  A    between atoms: C_11  and  C_26
    5  A    between atoms: C_20  and  C_25
    6  A    between atoms: C_21  and  C_25
                            x       y       z     vdW  Elec       q    Type
                         _______ _______ _______ _____ _____    ______ ____

>  <TORSDO>
F 6

$$$$
=
 OpenBabel11052419533D

 37 42  0  0  1  0  0  0  0  0999 V2000
  189.6030  172.8690  142.8150 C   0  0  0  0  0  2  0  0  0  0  0  0
  187.4460  176.8530  140.9060 C   0  0  1  0  0  3  0  0  0  0  0  0
  189.9390  172.0700  144.0890 C   0  0  2  0  0  3  0  0  0  0  0  0
  188.8210  176.9820  144.1780 C   0  0  0  0  0  3  0  0  0  0  0  0
  187.5970  174.7030  139.7880 O   0  0  0  0  0  0  0  0  0  0  0  0
  187.7120  175.9730  142.1320 C   0  0  2  0  0  3  0  0  0  0  0  0
  187.7350  176.0980  139.6070 C   0  0  1  0  0  3  0  0  0  0  0  0
  187.7210  176.7860  143.4180 C   0  0  0  0  0  0  0  0  0  0  0  0
  186.6970  176.5770  138.6090 C   0  0  0  0  0  2  0  0  0  0  0  0
  189.6900  172.8570  145.3860 C   0  0  0  0  0  2  0  0  0  0  0  0
  188.6710  174.2190  140.5810 C   0  0  2  0  0  3  0  0  0  0  0  0
  185.6550  178.5550  141.5360 C   0  0  0  0  0  2  0  0  0  0  0  0
  185.6020  177.2840  139.3880 C   0  0  0  0  0  2  0  0  0  0  0  0
  190.1850  174.3130  145.3340 C   0  0  2  0  0  3  0  0  0  0  0  0
  190.1800  176.4120  143.9010 C   0  0  0  0  0  2  0  0  0  0  0  0
  185.9740  177.2200  140.8540 C   0  0  1  0  0  3  0  0  0  0  0  0
  188.9010  175.0350  141.8860 C   0  0  2  0  0  3  0  0  0  0  0  0
  186.4380  177.5220  143.7460 C   0  0  2  0  0  3  0  0  0  0  0  0
  190.2110  174.8730  143.9070 C   0  0  2  0  0  3  0  0  0  0  0  0
  189.1530  174.2390  143.1030 N   0  0  2  0  0  0  0  0  0  0  0  0
  186.3350  178.7860  142.8930 C   0  0  0  0  0  2  0  0  0  0  0  0
  185.9390  179.1110  145.6210 C   0  0  0  0  0  3  0  0  0  0  0  0
  186.2420  177.8070  145.2120 C   0  0  0  0  0  0  0  0  0  0  0  0
  186.3200  176.7810  146.1700 C   0  0  0  0  0  3  0  0  0  0  0  0
  186.1950  176.0730  148.4390 F   0  0  0  0  0  0  0  0  0  0  0  0
  185.8180  178.3720  147.9240 C   0  0  0  0  0  3  0  0  0  0  0  0
  186.1100  177.0640  147.5210 C   0  0  0  0  0  0  0  0  0  0  0  0
  185.7310  179.3930  146.9760 C   0  0  0  0  0  3  0  0  0  0  0  0
  191.5230  174.4880  146.0430 C   0  0  0  0  0  2  0  0  0  0  0  0
  192.5900  174.3140  145.1570 O   0  0  0  0  0  1  0  0  0  0  0  0
  191.5730  171.5790  142.6780 C   0  0  0  0  0  1  0  0  0  0  0  0
  191.2630  171.6370  144.0370 O   0  0  0  0  0  0  0  0  0  0  0  0
  189.9650  174.1130  139.7770 C   0  0  0  0  0  2  0  0  0  0  0  0
  190.0000  172.8180  138.9750 C   0  0  0  0  0  2  0  0  0  0  0  0
  190.8950  172.9250  137.7450 C   0  0  2  0  0  3  0  0  0  0  0  0
  190.5180  174.1250  136.8940 C   0  0  0  0  0  1  0  0  0  0  0  0
  190.8410  171.7550  136.9830 O   0  0  0  0  0  1  0  0  0  0  0  0
  1 20  1  0  0  0  0
  1  3  1  0  0  0  0
  2  6  1  0  0  0  0
  3 10  1  0  0  0  0
  5 11  1  0  0  0  0
  6  8  1  0  0  0  0
  7  5  1  0  0  0  0
  7  2  1  0  0  0  0
  8 18  1  0  0  0  0
  8  4  2  0  0  0  0
  9 13  1  0  0  0  0
  9  7  1  0  0  0  0
 11 17  1  0  0  0  0
 12 21  1  0  0  0  0
 13 16  1  0  0  0  0
 14 10  1  0  0  0  0
 14 29  1  0  0  0  0
 15 19  1  0  0  0  0
 15  4  1  0  0  0  0
 16  2  1  0  0  0  0
 16 12  1  0  0  0  0
 17  6  1  0  0  0  0
 17 20  1  0  0  0  0
 18 23  1  0  0  0  0
 19 14  1  0  0  0  0
 20 19  1  0  0  0  0
 21 18  1  0  0  0  0
 22 28  1  0  0  0  0
 23 22  2  0  0  0  0
 23 24  1  0  0  0  0
 24 27  2  0  0  0  0
 27 26  1  0  0  0  0
 27 25  1  0  0  0  0
 28 26  2  0  0  0  0
 30 29  1  0  0  0  0
 31 32  1  0  0  0  0
 32  3  1  0  0  0  0
 33 11  1  0  0  0  0
 34 33  1  0  0  0  0
 35 34  1  0  0  0  0
 36 35  1  0  0  0  0
 37 35  1  0  0  0  0
M  END
>  <MODEL>
9

>  <REMARK>
 VINA RESULT:      -6.4      3.314      7.249
  Name = 
  6 active torsions:
  status: ('A' for Active; 'I' for Inactive)
    1  A    between atoms: C_3  and  C_21
    2  A    between atoms: C_5  and  O_23
    3  A    between atoms: C_6  and  C_31
    4  A    between atoms: C_11  and  C_26
    5  A    between atoms: C_20  and  C_25
    6  A    between atoms: C_21  and  C_25
                            x       y       z     vdW  Elec       q    Type
                         _______ _______ _______ _____ _____    ______ ____

>  <TORSDO>
F 6

$$$$
