=
 OpenBabel11052417133D

 30 33  0  0  1  0  0  0  0  0999 V2000
  188.4010  176.8170  144.4200 C   0  0  1  0  0  0  0  0  0  0  0  0
  187.1100  177.4060  143.8010 C   0  0  2  0  0  3  0  0  0  0  0  0
  186.0630  177.3240  147.4410 C   0  0  0  0  0  2  0  0  0  0  0  0
  190.0320  175.3470  146.7500 C   0  0  1  0  0  3  0  0  0  0  0  0
  186.7970  177.2720  146.1270 C   0  0  0  0  0  0  0  0  0  0  0  0
  185.0690  178.6400  144.9580 C   0  0  0  0  0  2  0  0  0  0  0  0
  190.7860  175.3740  145.4590 C   0  0  1  0  0  3  0  0  0  0  0  0
  186.2900  177.7590  144.9970 C   0  0  0  0  0  0  0  0  0  0  0  0
  187.9720  176.4050  145.8480 C   0  0  2  0  0  3  0  0  0  0  0  0
  192.0590  174.6530  145.8520 C   0  0  0  0  0  2  0  0  0  0  0  0
  191.1310  175.4070  147.7770 C   0  0  0  0  0  2  0  0  0  0  0  0
  184.1880  178.4230  146.1900 C   0  0  0  0  0  2  0  0  0  0  0  0
  185.0380  178.4590  147.4600 C   0  0  0  0  0  2  0  0  0  0  0  0
  188.9930  175.6360  143.6240 C   0  0  0  0  0  2  0  0  0  0  0  0
  189.9570  174.6820  144.3560 C   0  0  1  0  0  3  0  0  0  0  0  0
  192.3090  174.8750  147.2200 O   0  0  0  0  0  0  0  0  0  0  0  0
  189.4220  177.9540  144.4220 C   0  0  0  0  0  1  0  0  0  0  0  0
  189.0780  176.5230  146.8940 C   0  0  0  0  0  2  0  0  0  0  0  0
  190.7950  174.0080  143.3130 C   0  0  0  0  0  3  0  0  0  0  0  0
  190.3410  173.7770  142.2050 O   0  0  0  0  0  0  0  0  0  0  0  0
  186.3230  176.4180  142.9380 C   0  0  0  0  0  2  0  0  0  0  0  0
  186.2770  176.8910  141.4920 C   0  0  0  0  0  2  0  0  0  0  0  0
  185.8000  178.3310  141.3970 C   0  0  0  0  0  2  0  0  0  0  0  0
  184.5160  178.4090  140.5840 C   0  0  0  0  0  2  0  0  0  0  0  0
  183.3120  178.1650  141.4740 C   0  0  0  0  0  2  0  0  0  0  0  0
  182.0270  178.2640  140.6710 C   0  0  0  0  0  2  0  0  0  0  0  0
  179.5530  178.5510  141.1980 N   0  0  0  0  0  2  0  0  0  0  0  0
  179.1480  177.8590  139.9840 C   0  0  0  0  0  1  0  0  0  0  0  0
  180.9230  178.7650  141.5410 C   0  0  0  0  0  0  0  0  0  0  0  0
  181.2050  179.3630  142.6120 O   0  0  0  0  0  0  0  0  0  0  0  0
  1 17  1  1  0  0  0
  1  9  1  0  0  0  0
  2 21  1  6  0  0  0
  2  1  1  0  0  0  0
  2  8  1  0  0  0  0
  3 13  1  0  0  0  0
  4 18  1  6  0  0  0
  4 11  1  0  0  0  0
  5  3  1  0  0  0  0
  6  8  1  0  0  0  0
  6 12  1  0  0  0  0
  7 10  1  1  0  0  0
  7  4  1  0  0  0  0
  8  5  2  0  0  0  0
  9  5  1  0  0  0  0
  9 18  1  1  0  0  0
 10 16  1  0  0  0  0
 12 13  1  0  0  0  0
 14 15  1  0  0  0  0
 14  1  1  0  0  0  0
 15 19  1  6  0  0  0
 15  7  1  0  0  0  0
 16 11  1  0  0  0  0
 20 19  2  0  0  0  0
 22 21  1  0  0  0  0
 23 22  1  0  0  0  0
 24 23  1  0  0  0  0
 24 25  1  0  0  0  0
 26 25  1  0  0  0  0
 26 29  1  0  0  0  0
 27 29  1  0  0  0  0
 28 27  1  0  0  0  0
 29 30  2  0  0  0  0
M  END
>  <MODEL>
1

>  <REMARK>
 VINA RESULT:      -7.9      0.000      0.000
  Name = 
  8 active torsions:
  status: ('A' for Active; 'I' for Inactive)
    1  A    between atoms: C_1  and  C_5
    2  A    between atoms: C_1  and  C_22
    3  A    between atoms: C_2  and  C_18
    4  A    between atoms: C_2  and  C_22
    5  A    between atoms: C_11  and  C_25
    6  A    between atoms: C_14  and  C_18
    7  A    between atoms: C_14  and  C_20
    8  A    between atoms: C_20  and  C_28
                            x       y       z     vdW  Elec       q    Type
                         _______ _______ _______ _____ _____    ______ ____

>  <TORSDO>
F 8

$$$$
=
 OpenBabel11052417133D

 30 33  0  0  1  0  0  0  0  0999 V2000
  188.2090  176.4930  144.8380 C   0  0  1  0  0  0  0  0  0  0  0  0
  189.4790  175.6650  145.1520 C   0  0  2  0  0  3  0  0  0  0  0  0
  188.5630  174.1430  141.8050 C   0  0  0  0  0  2  0  0  0  0  0  0
  185.4510  177.0110  143.2970 C   0  0  1  0  0  3  0  0  0  0  0  0
  188.6720  174.9800  143.0530 C   0  0  0  0  0  0  0  0  0  0  0  0
  190.9720  174.1590  143.5620 C   0  0  0  0  0  2  0  0  0  0  0  0
  185.6070  177.8950  144.4930 C   0  0  1  0  0  3  0  0  0  0  0  0
  189.6990  174.8920  143.8940 C   0  0  0  0  0  0  0  0  0  0  0  0
  187.5440  175.7250  143.6720 C   0  0  2  0  0  3  0  0  0  0  0  0
  184.3180  178.6880  144.4380 C   0  0  0  0  0  2  0  0  0  0  0  0
  184.6550  177.8710  142.3510 C   0  0  0  0  0  2  0  0  0  0  0  0
  190.7350  173.0920  142.4910 C   0  0  0  0  0  2  0  0  0  0  0  0
  189.9400  173.6810  141.3250 C   0  0  0  0  0  2  0  0  0  0  0  0
  187.2600  176.6640  146.0420 C   0  0  0  0  0  2  0  0  0  0  0  0
  185.7910  177.0310  145.7600 C   0  0  1  0  0  3  0  0  0  0  0  0
  183.9020  178.7980  143.0970 O   0  0  0  0  0  0  0  0  0  0  0  0
  188.7040  177.8780  144.4180 C   0  0  0  0  0  1  0  0  0  0  0  0
  186.7860  176.6120  142.6880 C   0  0  0  0  0  2  0  0  0  0  0  0
  185.2430  177.6670  147.0010 C   0  0  0  0  0  3  0  0  0  0  0  0
  185.9090  178.4690  147.6340 O   0  0  0  0  0  0  0  0  0  0  0  0
  189.3130  174.6830  146.3120 C   0  0  0  0  0  2  0  0  0  0  0  0
  190.2550  175.0400  147.4530 C   0  0  0  0  0  2  0  0  0  0  0  0
  190.7240  176.4830  147.3520 C   0  0  0  0  0  2  0  0  0  0  0  0
  192.2280  176.5650  147.5640 C   0  0  0  0  0  2  0  0  0  0  0  0
  192.9530  175.6890  146.5600 C   0  0  0  0  0  2  0  0  0  0  0  0
  193.1920  176.4460  145.2660 C   0  0  0  0  0  2  0  0  0  0  0  0
  195.5830  176.2030  144.4250 N   0  0  0  0  0  2  0  0  0  0  0  0
  195.2650  175.0000  143.6730 C   0  0  0  0  0  1  0  0  0  0  0  0
  194.6110  176.9050  145.2030 C   0  0  0  0  0  0  0  0  0  0  0  0
  194.9500  177.9460  145.8230 O   0  0  0  0  0  0  0  0  0  0  0  0
  1 17  1  6  0  0  0
  1  2  1  0  0  0  0
  1 14  1  0  0  0  0
  2 21  1  1  0  0  0
  3  5  1  0  0  0  0
  4 11  1  6  0  0  0
  4  7  1  0  0  0  0
  5  9  1  0  0  0  0
  5  8  2  0  0  0  0
  6  8  1  0  0  0  0
  7 10  1  1  0  0  0
  7 15  1  0  0  0  0
  8  2  1  0  0  0  0
  9 18  1  6  0  0  0
  9  1  1  0  0  0  0
 11 16  1  0  0  0  0
 12  6  1  0  0  0  0
 13  3  1  0  0  0  0
 13 12  1  0  0  0  0
 15 14  1  0  0  0  0
 15 19  1  1  0  0  0
 16 10  1  0  0  0  0
 18  4  1  0  0  0  0
 19 20  2  0  0  0  0
 21 22  1  0  0  0  0
 23 22  1  0  0  0  0
 23 24  1  0  0  0  0
 25 24  1  0  0  0  0
 26 25  1  0  0  0  0
 27 29  1  0  0  0  0
 28 27  1  0  0  0  0
 29 26  1  0  0  0  0
 29 30  2  0  0  0  0
M  END
>  <MODEL>
2

>  <REMARK>
 VINA RESULT:      -7.8      3.841      8.817
  Name = 
  8 active torsions:
  status: ('A' for Active; 'I' for Inactive)
    1  A    between atoms: C_1  and  C_5
    2  A    between atoms: C_1  and  C_22
    3  A    between atoms: C_2  and  C_18
    4  A    between atoms: C_2  and  C_22
    5  A    between atoms: C_11  and  C_25
    6  A    between atoms: C_14  and  C_18
    7  A    between atoms: C_14  and  C_20
    8  A    between atoms: C_20  and  C_28
                            x       y       z     vdW  Elec       q    Type
                         _______ _______ _______ _____ _____    ______ ____

>  <TORSDO>
F 8

$$$$
=
 OpenBabel11052417133D

 30 33  0  0  1  0  0  0  0  0999 V2000
  187.9680  176.9320  143.9290 C   0  0  1  0  0  0  0  0  0  0  0  0
  186.7060  177.7630  143.5910 C   0  0  2  0  0  3  0  0  0  0  0  0
  186.1530  177.2910  147.3090 C   0  0  0  0  0  2  0  0  0  0  0  0
  189.6630  174.9490  145.7840 C   0  0  1  0  0  3  0  0  0  0  0  0
  186.6900  177.3370  145.9020 C   0  0  0  0  0  0  0  0  0  0  0  0
  185.0390  179.0650  145.1870 C   0  0  0  0  0  2  0  0  0  0  0  0
  190.2350  175.0660  144.4070 C   0  0  1  0  0  3  0  0  0  0  0  0
  186.1130  178.0410  144.9320 C   0  0  0  0  0  0  0  0  0  0  0  0
  187.6780  176.3770  145.3430 C   0  0  2  0  0  3  0  0  0  0  0  0
  191.4300  174.1410  144.5100 C   0  0  0  0  0  2  0  0  0  0  0  0
  190.8870  174.7220  146.6320 C   0  0  0  0  0  2  0  0  0  0  0  0
  184.3080  178.7870  146.5020 C   0  0  0  0  0  2  0  0  0  0  0  0
  185.3160  178.5330  147.6230 C   0  0  0  0  0  2  0  0  0  0  0  0
  188.2710  175.8130  142.9120 C   0  0  0  0  0  2  0  0  0  0  0  0
  189.1740  174.6500  143.3650 C   0  0  1  0  0  3  0  0  0  0  0  0
  191.8900  174.1300  145.8410 O   0  0  0  0  0  0  0  0  0  0  0  0
  189.1360  177.9190  143.9170 C   0  0  0  0  0  1  0  0  0  0  0  0
  188.9190  176.2030  146.2150 C   0  0  0  0  0  2  0  0  0  0  0  0
  189.7590  174.0320  142.1310 C   0  0  0  0  0  3  0  0  0  0  0  0
  190.2370  174.7310  141.2540 O   0  0  0  0  0  0  0  0  0  0  0  0
  185.6760  177.0160  142.7410 C   0  0  0  0  0  2  0  0  0  0  0  0
  185.1440  177.9160  141.6350 C   0  0  0  0  0  2  0  0  0  0  0  0
  183.6490  178.1460  141.7800 C   0  0  0  0  0  2  0  0  0  0  0  0
  182.9620  178.0220  140.4290 C   0  0  0  0  0  2  0  0  0  0  0  0
  181.4550  177.9860  140.6030 C   0  0  0  0  0  2  0  0  0  0  0  0
  181.0120  179.0110  141.6320 C   0  0  0  0  0  2  0  0  0  0  0  0
  178.5590  179.6540  141.4050 N   0  0  0  0  0  2  0  0  0  0  0  0
  178.1310  178.5910  142.3000 C   0  0  0  0  0  1  0  0  0  0  0  0
  179.9300  179.8670  141.0630 C   0  0  0  0  0  0  0  0  0  0  0  0
  180.2350  180.8110  140.2900 O   0  0  0  0  0  0  0  0  0  0  0  0
  1 17  1  1  0  0  0
  1  9  1  0  0  0  0
  2 21  1  6  0  0  0
  2  1  1  0  0  0  0
  2  8  1  0  0  0  0
  3 13  1  0  0  0  0
  4 18  1  1  0  0  0
  4 11  1  0  0  0  0
  5  3  1  0  0  0  0
  6 12  1  0  0  0  0
  7 10  1  1  0  0  0
  7  4  1  0  0  0  0
  8  6  1  0  0  0  0
  8  5  2  0  0  0  0
  9  5  1  0  0  0  0
  9 18  1  1  0  0  0
 10 16  1  0  0  0  0
 12 13  1  0  0  0  0
 14 15  1  0  0  0  0
 14  1  1  0  0  0  0
 15 19  1  6  0  0  0
 15  7  1  0  0  0  0
 16 11  1  0  0  0  0
 20 19  2  0  0  0  0
 22 23  1  0  0  0  0
 22 21  1  0  0  0  0
 24 25  1  0  0  0  0
 24 23  1  0  0  0  0
 25 26  1  0  0  0  0
 27 28  1  0  0  0  0
 29 27  1  0  0  0  0
 29 26  1  0  0  0  0
 30 29  2  0  0  0  0
M  END
>  <MODEL>
3

>  <REMARK>
 VINA RESULT:      -7.3      1.148      1.376
  Name = 
  8 active torsions:
  status: ('A' for Active; 'I' for Inactive)
    1  A    between atoms: C_1  and  C_5
    2  A    between atoms: C_1  and  C_22
    3  A    between atoms: C_2  and  C_18
    4  A    between atoms: C_2  and  C_22
    5  A    between atoms: C_11  and  C_25
    6  A    between atoms: C_14  and  C_18
    7  A    between atoms: C_14  and  C_20
    8  A    between atoms: C_20  and  C_28
                            x       y       z     vdW  Elec       q    Type
                         _______ _______ _______ _____ _____    ______ ____

>  <TORSDO>
F 8

$$$$
=
 OpenBabel11052417133D

 30 33  0  0  1  0  0  0  0  0999 V2000
  188.3980  176.8030  144.5120 C   0  0  1  0  0  0  0  0  0  0  0  0
  187.1060  177.3910  143.8950 C   0  0  2  0  0  3  0  0  0  0  0  0
  186.0980  177.3930  147.5470 C   0  0  0  0  0  2  0  0  0  0  0  0
  190.0420  175.3680  146.8550 C   0  0  1  0  0  3  0  0  0  0  0  0
  186.8180  177.3080  146.2260 C   0  0  0  0  0  0  0  0  0  0  0  0
  185.0880  178.6660  145.0470 C   0  0  0  0  0  2  0  0  0  0  0  0
  190.7830  175.3620  145.5550 C   0  0  1  0  0  3  0  0  0  0  0  0
  186.3020  177.7760  145.0920 C   0  0  0  0  0  0  0  0  0  0  0  0
  187.9820  176.4250  145.9530 C   0  0  2  0  0  3  0  0  0  0  0  0
  192.0540  174.6380  145.9490 C   0  0  0  0  0  2  0  0  0  0  0  0
  191.1530  175.4400  147.8680 C   0  0  0  0  0  2  0  0  0  0  0  0
  184.2190  178.4820  146.2940 C   0  0  0  0  0  2  0  0  0  0  0  0
  185.0830  178.5370  147.5530 C   0  0  0  0  0  2  0  0  0  0  0  0
  188.9720  175.6010  143.7350 C   0  0  0  0  0  2  0  0  0  0  0  0
  189.9350  174.6540  144.4750 C   0  0  1  0  0  3  0  0  0  0  0  0
  192.3210  174.8860  147.3100 O   0  0  0  0  0  0  0  0  0  0  0  0
  189.4290  177.9310  144.4800 C   0  0  0  0  0  1  0  0  0  0  0  0
  189.1000  176.5550  146.9840 C   0  0  0  0  0  2  0  0  0  0  0  0
  190.7570  173.9510  143.4380 C   0  0  0  0  0  3  0  0  0  0  0  0
  190.3390  172.9420  142.8950 O   0  0  0  0  0  0  0  0  0  0  0  0
  186.3010  176.3920  143.0610 C   0  0  0  0  0  2  0  0  0  0  0  0
  186.0410  176.9460  141.6680 C   0  0  0  0  0  2  0  0  0  0  0  0
  187.3290  177.0650  140.8700 C   0  0  0  0  0  2  0  0  0  0  0  0
  187.4620  175.8960  139.9060 C   0  0  0  0  0  2  0  0  0  0  0  0
  188.4490  174.8770  140.4440 C   0  0  0  0  0  2  0  0  0  0  0  0
  188.4420  173.6230  139.5870 C   0  0  0  0  0  2  0  0  0  0  0  0
  189.9890  173.8130  137.5750 N   0  0  0  0  0  2  0  0  0  0  0  0
  188.9350  174.3590  136.7340 C   0  0  0  0  0  1  0  0  0  0  0  0
  189.7740  173.4450  138.9380 C   0  0  0  0  0  0  0  0  0  0  0  0
  190.7310  172.9870  139.6130 O   0  0  0  0  0  0  0  0  0  0  0  0
  1 17  1  1  0  0  0
  1  9  1  0  0  0  0
  2 21  1  1  0  0  0
  2  1  1  0  0  0  0
  2  8  1  0  0  0  0
  3 13  1  0  0  0  0
  4 18  1  6  0  0  0
  4 11  1  0  0  0  0
  5  3  1  0  0  0  0
  6  8  1  0  0  0  0
  6 12  1  0  0  0  0
  7 10  1  1  0  0  0
  7  4  1  0  0  0  0
  8  5  2  0  0  0  0
  9  5  1  0  0  0  0
  9 18  1  1  0  0  0
 10 16  1  0  0  0  0
 12 13  1  0  0  0  0
 14 15  1  0  0  0  0
 14  1  1  0  0  0  0
 15 19  1  6  0  0  0
 15  7  1  0  0  0  0
 16 11  1  0  0  0  0
 20 19  2  0  0  0  0
 22 21  1  0  0  0  0
 23 22  1  0  0  0  0
 24 25  1  0  0  0  0
 24 23  1  0  0  0  0
 26 25  1  0  0  0  0
 27 29  1  0  0  0  0
 28 27  1  0  0  0  0
 29 26  1  0  0  0  0
 29 30  2  0  0  0  0
M  END
>  <MODEL>
4

>  <REMARK>
 VINA RESULT:      -7.1      3.591      4.620
  Name = 
  8 active torsions:
  status: ('A' for Active; 'I' for Inactive)
    1  A    between atoms: C_1  and  C_5
    2  A    between atoms: C_1  and  C_22
    3  A    between atoms: C_2  and  C_18
    4  A    between atoms: C_2  and  C_22
    5  A    between atoms: C_11  and  C_25
    6  A    between atoms: C_14  and  C_18
    7  A    between atoms: C_14  and  C_20
    8  A    between atoms: C_20  and  C_28
                            x       y       z     vdW  Elec       q    Type
                         _______ _______ _______ _____ _____    ______ ____

>  <TORSDO>
F 8

$$$$
=
 OpenBabel11052417133D

 30 33  0  0  1  0  0  0  0  0999 V2000
  191.8010  175.8130  143.1940 C   0  0  1  0  0  0  0  0  0  0  0  0
  190.3450  175.4770  143.5990 C   0  0  2  0  0  3  0  0  0  0  0  0
  191.9960  175.2520  147.0010 C   0  0  0  0  0  2  0  0  0  0  0  0
  194.9640  175.8380  143.6870 C   0  0  1  0  0  3  0  0  0  0  0  0
  191.6550  175.4710  145.5510 C   0  0  0  0  0  0  0  0  0  0  0  0
  189.1980  175.4480  145.9890 C   0  0  0  0  0  2  0  0  0  0  0  0
  194.6090  176.1360  142.2650 C   0  0  1  0  0  3  0  0  0  0  0  0
  190.4070  175.4380  145.0900 C   0  0  0  0  0  0  0  0  0  0  0  0
  192.6330  175.4070  144.4330 C   0  0  2  0  0  3  0  0  0  0  0  0
  195.9820  176.3280  141.6580 C   0  0  0  0  0  2  0  0  0  0  0  0
  196.2210  176.6420  143.8900 C   0  0  0  0  0  2  0  0  0  0  0  0
  189.5390  174.9170  147.3830 C   0  0  0  0  0  2  0  0  0  0  0  0
  190.8090  175.5870  147.9070 C   0  0  0  0  0  2  0  0  0  0  0  0
  192.2740  175.0990  141.9120 C   0  0  0  0  0  2  0  0  0  0  0  0
  193.7910  174.9660  141.6760 C   0  0  1  0  0  3  0  0  0  0  0  0
  196.8580  176.8170  142.6460 O   0  0  0  0  0  0  0  0  0  0  0  0
  191.8280  177.3200  142.9410 C   0  0  0  0  0  1  0  0  0  0  0  0
  193.8760  176.2630  144.6620 C   0  0  0  0  0  2  0  0  0  0  0  0
  193.9990  174.7730  140.2050 C   0  0  0  0  0  3  0  0  0  0  0  0
  193.0590  174.5080  139.4740 O   0  0  0  0  0  0  0  0  0  0  0  0
  189.8530  174.1200  143.0910 C   0  0  0  0  0  2  0  0  0  0  0  0
  188.6310  174.2950  142.2000 C   0  0  0  0  0  2  0  0  0  0  0  0
  188.2640  175.7620  142.0460 C   0  0  0  0  0  2  0  0  0  0  0  0
  186.9630  176.0600  142.7740 C   0  0  0  0  0  2  0  0  0  0  0  0
  187.0770  177.3580  143.5510 C   0  0  0  0  0  2  0  0  0  0  0  0
  186.0130  177.4290  144.6310 C   0  0  0  0  0  2  0  0  0  0  0  0
  185.5420  179.3060  146.2850 N   0  0  0  0  0  2  0  0  0  0  0  0
  185.6600  178.4150  147.4290 C   0  0  0  0  0  1  0  0  0  0  0  0
  185.6960  178.8540  144.9390 C   0  0  0  0  0  0  0  0  0  0  0  0
  185.5910  179.6790  143.9950 O   0  0  0  0  0  0  0  0  0  0  0  0
  1 17  1  6  0  0  0
  1  2  1  0  0  0  0
  1  9  1  0  0  0  0
  2 21  1  6  0  0  0
  2  8  1  0  0  0  0
  3 13  1  0  0  0  0
  4 11  1  1  0  0  0
  4 18  1  0  0  0  0
  5  3  1  0  0  0  0
  6 12  1  0  0  0  0
  7 10  1  6  0  0  0
  7  4  1  0  0  0  0
  8  5  2  0  0  0  0
  8  6  1  0  0  0  0
  9 18  1  1  0  0  0
  9  5  1  0  0  0  0
 10 16  1  0  0  0  0
 12 13  1  0  0  0  0
 14  1  1  0  0  0  0
 15 19  1  6  0  0  0
 15 14  1  0  0  0  0
 15  7  1  0  0  0  0
 16 11  1  0  0  0  0
 20 19  2  0  0  0  0
 22 21  1  0  0  0  0
 23 22  1  0  0  0  0
 23 24  1  0  0  0  0
 24 25  1  0  0  0  0
 25 26  1  0  0  0  0
 26 29  1  0  0  0  0
 27 28  1  0  0  0  0
 29 27  1  0  0  0  0
 30 29  2  0  0  0  0
M  END
>  <MODEL>
5

>  <REMARK>
 VINA RESULT:      -6.9      3.431      5.396
  Name = 
  8 active torsions:
  status: ('A' for Active; 'I' for Inactive)
    1  A    between atoms: C_1  and  C_5
    2  A    between atoms: C_1  and  C_22
    3  A    between atoms: C_2  and  C_18
    4  A    between atoms: C_2  and  C_22
    5  A    between atoms: C_11  and  C_25
    6  A    between atoms: C_14  and  C_18
    7  A    between atoms: C_14  and  C_20
    8  A    between atoms: C_20  and  C_28
                            x       y       z     vdW  Elec       q    Type
                         _______ _______ _______ _____ _____    ______ ____

>  <TORSDO>
F 8

$$$$
=
 OpenBabel11052417133D

 30 33  0  0  1  0  0  0  0  0999 V2000
  192.2120  176.3770  144.1700 C   0  0  1  0  0  0  0  0  0  0  0  0
  191.0290  177.3510  144.3910 C   0  0  2  0  0  3  0  0  0  0  0  0
  189.7060  174.3390  146.2710 C   0  0  0  0  0  2  0  0  0  0  0  0
  193.5250  173.4580  144.0860 C   0  0  1  0  0  3  0  0  0  0  0  0
  190.5310  175.3450  145.5110 C   0  0  0  0  0  0  0  0  0  0  0  0
  189.0230  177.2380  146.1200 C   0  0  0  0  0  2  0  0  0  0  0  0
  194.3750  174.4830  143.4040 C   0  0  1  0  0  3  0  0  0  0  0  0
  190.1550  176.6110  145.3490 C   0  0  0  0  0  0  0  0  0  0  0  0
  191.6410  175.0010  144.5850 C   0  0  2  0  0  3  0  0  0  0  0  0
  195.5450  173.6340  142.9530 C   0  0  0  0  0  2  0  0  0  0  0  0
  194.5440  172.4970  144.6380 C   0  0  0  0  0  2  0  0  0  0  0  0
  188.0350  176.1790  146.6150 C   0  0  0  0  0  2  0  0  0  0  0  0
  188.7870  175.0270  147.2820 C   0  0  0  0  0  2  0  0  0  0  0  0
  192.7570  176.3730  142.7270 C   0  0  0  0  0  2  0  0  0  0  0  0
  193.5740  175.1510  142.2660 C   0  0  1  0  0  3  0  0  0  0  0  0
  195.7100  172.5620  143.8510 O   0  0  0  0  0  0  0  0  0  0  0  0
  193.3270  176.8520  145.1020 C   0  0  0  0  0  1  0  0  0  0  0  0
  192.6710  174.0530  145.1950 C   0  0  0  0  0  2  0  0  0  0  0  0
  194.4260  175.5910  141.1150 C   0  0  0  0  0  3  0  0  0  0  0  0
  194.8610  176.7300  141.0640 O   0  0  0  0  0  0  0  0  0  0  0  0
  190.2260  177.6570  143.1260 C   0  0  0  0  0  2  0  0  0  0  0  0
  189.2080  176.5560  142.8610 C   0  0  0  0  0  2  0  0  0  0  0  0
  188.0570  177.0620  142.0060 C   0  0  0  0  0  2  0  0  0  0  0  0
  187.4350  178.2980  142.6370 C   0  0  0  0  0  2  0  0  0  0  0  0
  186.4150  177.9000  143.6860 C   0  0  0  0  0  2  0  0  0  0  0  0
  185.8450  179.1290  144.3710 C   0  0  0  0  0  2  0  0  0  0  0  0
  183.9990  178.5830  146.0360 N   0  0  0  0  0  2  0  0  0  0  0  0
  184.9430  178.4340  147.1330 C   0  0  0  0  0  1  0  0  0  0  0  0
  184.4090  178.9040  144.7060 C   0  0  0  0  0  0  0  0  0  0  0  0
  183.5400  179.0280  143.8050 O   0  0  0  0  0  0  0  0  0  0  0  0
  1  2  1  0  0  0  0
  1  9  1  0  0  0  0
  1 17  1  1  0  0  0
  2 21  1  6  0  0  0
  2  8  1  0  0  0  0
  3 13  1  0  0  0  0
  4 11  1  1  0  0  0
  4 18  1  0  0  0  0
  5  3  1  0  0  0  0
  6 12  1  0  0  0  0
  7 10  1  6  0  0  0
  7  4  1  0  0  0  0
  8  5  2  0  0  0  0
  8  6  1  0  0  0  0
  9 18  1  1  0  0  0
  9  5  1  0  0  0  0
 10 16  1  0  0  0  0
 12 13  1  0  0  0  0
 14  1  1  0  0  0  0
 15 19  1  6  0  0  0
 15 14  1  0  0  0  0
 15  7  1  0  0  0  0
 16 11  1  0  0  0  0
 20 19  2  0  0  0  0
 22 21  1  0  0  0  0
 23 24  1  0  0  0  0
 23 22  1  0  0  0  0
 24 25  1  0  0  0  0
 25 26  1  0  0  0  0
 26 29  1  0  0  0  0
 27 28  1  0  0  0  0
 29 27  1  0  0  0  0
 30 29  2  0  0  0  0
M  END
>  <MODEL>
6

>  <REMARK>
 VINA RESULT:      -6.9      3.013      4.698
  Name = 
  8 active torsions:
  status: ('A' for Active; 'I' for Inactive)
    1  A    between atoms: C_1  and  C_5
    2  A    between atoms: C_1  and  C_22
    3  A    between atoms: C_2  and  C_18
    4  A    between atoms: C_2  and  C_22
    5  A    between atoms: C_11  and  C_25
    6  A    between atoms: C_14  and  C_18
    7  A    between atoms: C_14  and  C_20
    8  A    between atoms: C_20  and  C_28
                            x       y       z     vdW  Elec       q    Type
                         _______ _______ _______ _____ _____    ______ ____

>  <TORSDO>
F 8

$$$$
=
 OpenBabel11052417133D

 30 33  0  0  1  0  0  0  0  0999 V2000
  190.4740  175.0670  143.6330 C   0  0  1  0  0  0  0  0  0  0  0  0
  190.6370  175.5360  145.0990 C   0  0  2  0  0  3  0  0  0  0  0  0
  194.2870  175.0780  144.1910 C   0  0  0  0  0  2  0  0  0  0  0  0
  191.5200  173.6520  140.9590 C   0  0  1  0  0  3  0  0  0  0  0  0
  192.7860  175.2070  144.2050 C   0  0  0  0  0  0  0  0  0  0  0  0
  192.7790  176.4300  146.3790 C   0  0  0  0  0  2  0  0  0  0  0  0
  190.0390  173.8580  140.9490 C   0  0  1  0  0  3  0  0  0  0  0  0
  192.1140  175.7040  145.2400 C   0  0  0  0  0  0  0  0  0  0  0  0
  191.8690  174.5100  143.2650 C   0  0  2  0  0  3  0  0  0  0  0  0
  189.6730  173.2730  139.6010 C   0  0  0  0  0  2  0  0  0  0  0  0
  191.8810  173.7750  139.5020 C   0  0  0  0  0  2  0  0  0  0  0  0
  194.2490  176.0240  146.5140 C   0  0  0  0  0  2  0  0  0  0  0  0
  194.9380  176.0760  145.1500 C   0  0  0  0  0  2  0  0  0  0  0  0
  189.3560  174.0240  143.4300 C   0  0  0  0  0  2  0  0  0  0  0  0
  189.4050  173.1470  142.1650 C   0  0  1  0  0  3  0  0  0  0  0  0
  190.7620  173.4300  138.7210 O   0  0  0  0  0  0  0  0  0  0  0  0
  190.1140  176.3180  142.8310 C   0  0  0  0  0  1  0  0  0  0  0  0
  192.2490  174.6900  141.7970 C   0  0  0  0  0  2  0  0  0  0  0  0
  188.0140  172.6530  141.9090 C   0  0  0  0  0  3  0  0  0  0  0  0
  187.0600  173.4050  142.0110 O   0  0  0  0  0  0  0  0  0  0  0  0
  190.1560  174.5200  146.1370 C   0  0  0  0  0  2  0  0  0  0  0  0
  189.0570  175.1210  147.0030 C   0  0  0  0  0  2  0  0  0  0  0  0
  188.7220  176.5380  146.5650 C   0  0  0  0  0  2  0  0  0  0  0  0
  187.2360  176.6580  146.2620 C   0  0  0  0  0  2  0  0  0  0  0  0
  187.0120  176.8200  144.7700 C   0  0  0  0  0  2  0  0  0  0  0  0
  187.0090  178.2890  144.3870 C   0  0  0  0  0  2  0  0  0  0  0  0
  184.9370  178.8350  143.0130 N   0  0  0  0  0  2  0  0  0  0  0  0
  184.1200  179.0300  144.2010 C   0  0  0  0  0  1  0  0  0  0  0  0
  186.3170  178.4700  143.0780 C   0  0  0  0  0  0  0  0  0  0  0  0
  186.9680  178.3260  142.0110 O   0  0  0  0  0  0  0  0  0  0  0  0
  1 17  1  6  0  0  0
  1  2  1  0  0  0  0
  2  8  1  0  0  0  0
  2 21  1  1  0  0  0
  3  5  1  0  0  0  0
  3 13  1  0  0  0  0
  4 11  1  6  0  0  0
  4 18  1  0  0  0  0
  5  8  2  0  0  0  0
  6 12  1  0  0  0  0
  7 10  1  6  0  0  0
  7  4  1  0  0  0  0
  7 15  1  0  0  0  0
  8  6  1  0  0  0  0
  9 18  1  6  0  0  0
  9  1  1  0  0  0  0
  9  5  1  0  0  0  0
 13 12  1  0  0  0  0
 14  1  1  0  0  0  0
 15 19  1  6  0  0  0
 15 14  1  0  0  0  0
 16 11  1  0  0  0  0
 16 10  1  0  0  0  0
 19 20  2  0  0  0  0
 21 22  1  0  0  0  0
 23 22  1  0  0  0  0
 24 23  1  0  0  0  0
 25 24  1  0  0  0  0
 26 25  1  0  0  0  0
 27 29  1  0  0  0  0
 27 28  1  0  0  0  0
 29 26  1  0  0  0  0
 30 29  2  0  0  0  0
M  END
>  <MODEL>
7

>  <REMARK>
 VINA RESULT:      -6.9      3.088      6.303
  Name = 
  8 active torsions:
  status: ('A' for Active; 'I' for Inactive)
    1  A    between atoms: C_1  and  C_5
    2  A    between atoms: C_1  and  C_22
    3  A    between atoms: C_2  and  C_18
    4  A    between atoms: C_2  and  C_22
    5  A    between atoms: C_11  and  C_25
    6  A    between atoms: C_14  and  C_18
    7  A    between atoms: C_14  and  C_20
    8  A    between atoms: C_20  and  C_28
                            x       y       z     vdW  Elec       q    Type
                         _______ _______ _______ _____ _____    ______ ____

>  <TORSDO>
F 8

$$$$
=
 OpenBabel11052417133D

 30 33  0  0  1  0  0  0  0  0999 V2000
  189.6480  174.8810  142.3300 C   0  0  1  0  0  0  0  0  0  0  0  0
  189.2430  176.2340  142.9650 C   0  0  2  0  0  3  0  0  0  0  0  0
  189.6300  174.1660  146.1170 C   0  0  0  0  0  2  0  0  0  0  0  0
  190.0170  171.7020  142.3870 C   0  0  1  0  0  3  0  0  0  0  0  0
  189.6190  174.7030  144.7090 C   0  0  0  0  0  0  0  0  0  0  0  0
  189.4400  177.0710  145.4720 C   0  0  0  0  0  2  0  0  0  0  0  0
  190.0860  172.2560  140.9990 C   0  0  1  0  0  3  0  0  0  0  0  0
  189.4140  175.9870  144.4280 C   0  0  0  0  0  0  0  0  0  0  0  0
  189.4890  173.8670  143.4870 C   0  0  2  0  0  3  0  0  0  0  0  0
  190.3140  170.9950  140.1940 C   0  0  0  0  0  2  0  0  0  0  0  0
  190.9480  170.5200  142.3170 C   0  0  0  0  0  2  0  0  0  0  0  0
  189.1360  176.5090  146.8630 C   0  0  0  0  0  2  0  0  0  0  0  0
  189.9810  175.2620  147.1250 C   0  0  0  0  0  2  0  0  0  0  0  0
  188.8100  174.4950  141.0940 C   0  0  0  0  0  2  0  0  0  0  0  0
  188.7800  173.0130  140.6750 C   0  0  1  0  0  3  0  0  0  0  0  0
  191.0080  170.0610  140.9870 O   0  0  0  0  0  0  0  0  0  0  0  0
  191.1030  175.0430  141.8910 C   0  0  0  0  0  1  0  0  0  0  0  0
  190.4740  172.7010  143.4380 C   0  0  0  0  0  2  0  0  0  0  0  0
  188.4070  172.9660  139.2250 C   0  0  0  0  0  3  0  0  0  0  0  0
  188.5430  173.9500  138.5170 O   0  0  0  0  0  0  0  0  0  0  0  0
  187.7920  176.6390  142.7000 C   0  0  0  0  0  2  0  0  0  0  0  0
  187.7130  178.1050  142.2990 C   0  0  0  0  0  2  0  0  0  0  0  0
  186.2820  178.6160  142.3510 C   0  0  0  0  0  2  0  0  0  0  0  0
  185.4330  177.7190  143.2390 C   0  0  0  0  0  2  0  0  0  0  0  0
  184.9430  178.4880  144.4520 C   0  0  0  0  0  2  0  0  0  0  0  0
  186.0000  178.4950  145.5420 C   0  0  0  0  0  2  0  0  0  0  0  0
  185.9640  177.9140  148.0210 N   0  0  0  0  0  2  0  0  0  0  0  0
  186.8290  179.0330  148.3620 C   0  0  0  0  0  1  0  0  0  0  0  0
  185.5640  177.6320  146.6780 C   0  0  0  0  0  0  0  0  0  0  0  0
  184.8060  176.6530  146.4530 O   0  0  0  0  0  0  0  0  0  0  0  0
  1 17  1  6  0  0  0
  1  2  1  0  0  0  0
  1  9  1  0  0  0  0
  2 21  1  1  0  0  0
  2  8  1  0  0  0  0
  3 13  1  0  0  0  0
  4 11  1  6  0  0  0
  4 18  1  0  0  0  0
  5  3  1  0  0  0  0
  6 12  1  0  0  0  0
  7 10  1  6  0  0  0
  7  4  1  0  0  0  0
  8  5  2  0  0  0  0
  8  6  1  0  0  0  0
  9 18  1  1  0  0  0
  9  5  1  0  0  0  0
 10 16  1  0  0  0  0
 12 13  1  0  0  0  0
 14  1  1  0  0  0  0
 15 19  1  6  0  0  0
 15  7  1  0  0  0  0
 15 14  1  0  0  0  0
 16 11  1  0  0  0  0
 20 19  2  0  0  0  0
 22 23  1  0  0  0  0
 22 21  1  0  0  0  0
 23 24  1  0  0  0  0
 24 25  1  0  0  0  0
 25 26  1  0  0  0  0
 26 29  1  0  0  0  0
 27 28  1  0  0  0  0
 29 27  1  0  0  0  0
 30 29  2  0  0  0  0
M  END
>  <MODEL>
8

>  <REMARK>
 VINA RESULT:      -6.8      3.382      5.418
  Name = 
  8 active torsions:
  status: ('A' for Active; 'I' for Inactive)
    1  A    between atoms: C_1  and  C_5
    2  A    between atoms: C_1  and  C_22
    3  A    between atoms: C_2  and  C_18
    4  A    between atoms: C_2  and  C_22
    5  A    between atoms: C_11  and  C_25
    6  A    between atoms: C_14  and  C_18
    7  A    between atoms: C_14  and  C_20
    8  A    between atoms: C_20  and  C_28
                            x       y       z     vdW  Elec       q    Type
                         _______ _______ _______ _____ _____    ______ ____

>  <TORSDO>
F 8

$$$$
=
 OpenBabel11052417133D

 30 33  0  0  1  0  0  0  0  0999 V2000
  189.2210  176.4990  143.7150 C   0  0  1  0  0  0  0  0  0  0  0  0
  190.7180  176.1280  143.8480 C   0  0  2  0  0  3  0  0  0  0  0  0
  190.1260  177.5410  147.3130 C   0  0  0  0  0  2  0  0  0  0  0  0
  186.5860  178.0800  144.6100 C   0  0  1  0  0  3  0  0  0  0  0  0
  190.0090  177.0080  145.9090 C   0  0  0  0  0  0  0  0  0  0  0  0
  192.2330  175.8830  146.0090 C   0  0  0  0  0  2  0  0  0  0  0  0
  186.4510  177.4770  143.2480 C   0  0  1  0  0  3  0  0  0  0  0  0
  191.0020  176.3720  145.2930 C   0  0  0  0  0  0  0  0  0  0  0  0
  188.9550  177.4060  144.9390 C   0  0  2  0  0  3  0  0  0  0  0  0
  185.0470  177.9080  142.8780 C   0  0  0  0  0  2  0  0  0  0  0  0
  185.1760  178.0240  145.1380 C   0  0  0  0  0  2  0  0  0  0  0  0
  192.4810  176.6770  147.2930 C   0  0  0  0  0  2  0  0  0  0  0  0
  191.1910  176.7810  148.1070 C   0  0  0  0  0  2  0  0  0  0  0  0
  188.8640  177.1920  142.3850 C   0  0  0  0  0  2  0  0  0  0  0  0
  187.5650  178.0180  142.3260 C   0  0  1  0  0  3  0  0  0  0  0  0
  184.2790  178.0330  144.0530 O   0  0  0  0  0  0  0  0  0  0  0  0
  188.4540  175.1780  143.7890 C   0  0  0  0  0  1  0  0  0  0  0  0
  187.5390  177.3010  145.5020 C   0  0  0  0  0  2  0  0  0  0  0  0
  187.1580  178.1080  140.8870 C   0  0  0  0  0  3  0  0  0  0  0  0
  187.0640  177.1020  140.2040 O   0  0  0  0  0  0  0  0  0  0  0  0
  191.6540  176.9990  143.0070 C   0  0  0  0  0  2  0  0  0  0  0  0
  192.7620  176.1540  142.3930 C   0  0  0  0  0  2  0  0  0  0  0  0
  192.3130  174.7160  142.1920 C   0  0  0  0  0  2  0  0  0  0  0  0
  193.5070  173.7760  142.2610 C   0  0  0  0  0  2  0  0  0  0  0  0
  194.0570  173.7220  143.6740 C   0  0  0  0  0  2  0  0  0  0  0  0
  195.5510  173.9870  143.6750 C   0  0  0  0  0  2  0  0  0  0  0  0
  196.2560  176.4340  143.7180 N   0  0  0  0  0  2  0  0  0  0  0  0
  196.4430  176.4730  142.2760 C   0  0  0  0  0  1  0  0  0  0  0  0
  195.8410  175.2540  144.4090 C   0  0  0  0  0  0  0  0  0  0  0  0
  195.6890  175.2910  145.6570 O   0  0  0  0  0  0  0  0  0  0  0  0
  1 17  1  1  0  0  0
  1  2  1  0  0  0  0
  1  9  1  0  0  0  0
  2 21  1  6  0  0  0
  2  8  1  0  0  0  0
  3 13  1  0  0  0  0
  4 11  1  1  0  0  0
  4 18  1  0  0  0  0
  5  3  1  0  0  0  0
  6 12  1  0  0  0  0
  7 10  1  6  0  0  0
  7  4  1  0  0  0  0
  8  5  2  0  0  0  0
  8  6  1  0  0  0  0
  9 18  1  1  0  0  0
  9  5  1  0  0  0  0
 10 16  1  0  0  0  0
 12 13  1  0  0  0  0
 14  1  1  0  0  0  0
 15 19  1  6  0  0  0
 15 14  1  0  0  0  0
 15  7  1  0  0  0  0
 16 11  1  0  0  0  0
 20 19  2  0  0  0  0
 22 21  1  0  0  0  0
 23 24  1  0  0  0  0
 23 22  1  0  0  0  0
 24 25  1  0  0  0  0
 25 26  1  0  0  0  0
 26 29  1  0  0  0  0
 27 29  1  0  0  0  0
 28 27  1  0  0  0  0
 29 30  2  0  0  0  0
M  END
>  <MODEL>
9

>  <REMARK>
 VINA RESULT:      -6.8      4.016      8.675
  Name = 
  8 active torsions:
  status: ('A' for Active; 'I' for Inactive)
    1  A    between atoms: C_1  and  C_5
    2  A    between atoms: C_1  and  C_22
    3  A    between atoms: C_2  and  C_18
    4  A    between atoms: C_2  and  C_22
    5  A    between atoms: C_11  and  C_25
    6  A    between atoms: C_14  and  C_18
    7  A    between atoms: C_14  and  C_20
    8  A    between atoms: C_20  and  C_28
                            x       y       z     vdW  Elec       q    Type
                         _______ _______ _______ _____ _____    ______ ____

>  <TORSDO>
F 8

$$$$
