=
 OpenBabel11052417523D

 31 35  0  0  1  0  0  0  0  0999 V2000
  185.1480  178.2150  146.5420 N   0  0  0  0  0  0  0  0  0  0  0  0
  187.5700  177.3330  143.7410 C   0  0  0  0  0  0  0  0  0  0  0  0
  186.8790  177.4170  142.5030 C   0  0  0  0  0  0  0  0  0  0  0  0
  191.4340  176.2580  147.2660 O   0  0  0  0  0  0  0  0  0  0  0  0
  191.7400  175.7830  146.1380 C   0  0  0  0  0  0  0  0  0  0  0  0
  184.9460  177.9840  141.1540 C   0  0  0  0  0  0  0  0  0  0  0  0
  186.9960  177.7220  145.0610 C   0  0  0  0  0  0  0  0  0  0  0  0
  186.0250  178.6520  147.6240 C   0  0  0  0  0  2  0  0  0  0  0  0
  185.5740  177.9190  142.3990 C   0  0  0  0  0  3  0  0  0  0  0  0
  189.6540  176.7320  144.9980 C   0  0  0  0  0  0  0  0  0  0  0  0
  183.7110  178.2600  146.7320 C   0  0  0  0  0  1  0  0  0  0  0  0
  188.8330  176.5180  141.3800 C   0  0  0  0  0  3  0  0  0  0  0  0
  183.5620  178.5130  141.0490 C   0  0  0  0  0  1  0  0  0  0  0  0
  189.1820  177.2380  146.1020 N   0  0  0  0  0  0  0  0  0  0  0  0
  188.8980  176.8530  143.7340 C   0  0  0  0  0  0  0  0  0  0  0  0
  190.8890  176.0030  145.0020 N   0  0  0  0  0  2  0  0  0  0  0  0
  185.6760  177.8270  145.2680 C   0  0  0  0  0  3  0  0  0  0  0  0
  185.5980  177.5640  140.0370 N   0  0  0  0  0  0  0  0  0  0  0  0
  187.9650  178.0460  146.1830 C   0  0  2  0  0  3  0  0  0  0  0  0
  187.3380  177.8830  147.5650 C   0  0  0  0  0  2  0  0  0  0  0  0
  189.4790  176.4560  142.5700 N   0  0  0  0  0  0  0  0  0  0  0  0
  187.5290  177.0000  141.3210 C   0  0  0  0  0  0  0  0  0  0  0  0
  186.8670  177.0800  140.0950 C   0  0  0  0  0  3  0  0  0  0  0  0
  195.2700  173.6000  145.0000 C   0  0  1  0  0  3  0  0  0  0  0  0
  192.8980  173.6840  145.7500 C   0  0  0  0  0  3  0  0  0  0  0  0
  194.4440  176.5750  147.0270 F   0  0  0  0  0  0  0  0  0  0  0  0
  196.7410  172.5440  144.9350 S   0  0  0  0  0  1  0  0  0  0  0  0
  194.1020  172.8070  145.5660 C   0  0  0  0  0  2  0  0  0  0  0  0
  194.3210  175.7200  145.9470 C   0  0  2  0  0  3  0  0  0  0  0  0
  192.9840  175.0020  145.9870 C   0  0  0  0  0  0  0  0  0  0  0  0
  195.5320  174.7840  145.9170 C   0  0  0  0  0  2  0  0  0  0  0  0
  1 11  1  0  0  0  0
  1  8  1  0  0  0  0
  2  7  1  0  0  0  0
  3  2  2  0  0  0  0
  5  4  2  0  0  0  0
  6  9  2  0  0  0  0
  7 17  2  0  0  0  0
  7 19  1  0  0  0  0
  9  3  1  0  0  0  0
 10 16  1  0  0  0  0
 10 14  2  0  0  0  0
 12 21  1  0  0  0  0
 13  6  1  0  0  0  0
 14 19  1  0  0  0  0
 15  2  1  0  0  0  0
 15 10  1  0  0  0  0
 16  5  1  0  0  0  0
 17  1  1  0  0  0  0
 18 23  2  0  0  0  0
 18  6  1  0  0  0  0
 19 20  1  1  0  0  0
 20  8  1  0  0  0  0
 21 15  2  0  0  0  0
 22 12  2  0  0  0  0
 22  3  1  0  0  0  0
 23 22  1  0  0  0  0
 24 27  1  1  0  0  0
 24 28  1  0  0  0  0
 24 31  1  0  0  0  0
 25 30  2  0  0  0  0
 28 25  1  0  0  0  0
 29 30  1  0  0  0  0
 29 26  1  1  0  0  0
 30  5  1  0  0  0  0
 31 29  1  0  0  0  0
M  END
>  <MODEL>
1

>  <REMARK>
 VINA RESULT:      -8.3      0.000      0.000
  Name = 
  1 active torsions:
  status: ('A' for Active; 'I' for Inactive)
    1  A    between atoms: C_9  and  C_22
                            x       y       z     vdW  Elec       q    Type
                         _______ _______ _______ _____ _____    ______ ____

>  <TORSDO>
F 1

$$$$
=
 OpenBabel11052417523D

 31 35  0  0  1  0  0  0  0  0999 V2000
  186.4790  177.2120  140.9230 N   0  0  0  0  0  0  0  0  0  0  0  0
  187.6190  176.2240  144.4190 C   0  0  0  0  0  0  0  0  0  0  0  0
  186.7960  176.8880  145.3670 C   0  0  0  0  0  0  0  0  0  0  0  0
  191.6420  173.3420  142.4160 O   0  0  0  0  0  0  0  0  0  0  0  0
  191.8320  173.5420  143.6460 C   0  0  0  0  0  0  0  0  0  0  0  0
  184.8880  178.2540  145.9740 C   0  0  0  0  0  0  0  0  0  0  0  0
  187.4110  176.2590  142.9420 C   0  0  0  0  0  0  0  0  0  0  0  0
  186.9480  176.1100  140.0900 C   0  0  0  0  0  2  0  0  0  0  0  0
  185.6640  177.6280  144.9970 C   0  0  0  0  0  3  0  0  0  0  0  0
  189.6070  174.7710  143.9480 C   0  0  0  0  0  0  0  0  0  0  0  0
  185.7230  178.2910  140.3160 C   0  0  0  0  0  1  0  0  0  0  0  0
  188.2120  176.0460  147.1490 C   0  0  0  0  0  3  0  0  0  0  0  0
  183.6910  179.0410  145.5780 C   0  0  0  0  0  1  0  0  0  0  0  0
  189.2960  174.6850  142.6860 N   0  0  0  0  0  0  0  0  0  0  0  0
  188.7120  175.4680  144.8950 C   0  0  0  0  0  0  0  0  0  0  0  0
  190.8480  174.2360  144.4290 N   0  0  0  0  0  2  0  0  0  0  0  0
  186.6760  177.2060  142.3430 C   0  0  0  0  0  3  0  0  0  0  0  0
  185.2250  178.1480  147.2870 N   0  0  0  0  0  0  0  0  0  0  0  0
  188.0290  175.1460  142.1170 C   0  0  2  0  0  3  0  0  0  0  0  0
  188.2430  175.5470  140.6590 C   0  0  0  0  0  2  0  0  0  0  0  0
  188.9790  175.4100  146.2290 N   0  0  0  0  0  0  0  0  0  0  0  0
  187.1100  176.7900  146.7410 C   0  0  0  0  0  0  0  0  0  0  0  0
  186.3100  177.4330  147.6860 C   0  0  0  0  0  3  0  0  0  0  0  0
  195.6290  171.9150  144.8540 C   0  0  1  0  0  3  0  0  0  0  0  0
  193.1540  171.7630  144.6380 C   0  0  0  0  0  3  0  0  0  0  0  0
  193.9120  175.1840  144.9530 F   0  0  0  0  0  0  0  0  0  0  0  0
  197.0550  171.2640  145.7630 S   0  0  0  0  0  1  0  0  0  0  0  0
  194.3740  171.1670  145.2780 C   0  0  0  0  0  2  0  0  0  0  0  0
  194.2750  173.9740  144.3880 C   0  0  2  0  0  3  0  0  0  0  0  0
  193.0710  173.0540  144.2850 C   0  0  0  0  0  0  0  0  0  0  0  0
  195.4430  173.3870  145.1850 C   0  0  0  0  0  2  0  0  0  0  0  0
  1 17  1  0  0  0  0
  2 15  2  0  0  0  0
  2  3  1  0  0  0  0
  3 22  1  0  0  0  0
  4  5  2  0  0  0  0
  5 30  1  0  0  0  0
  5 16  1  0  0  0  0
  6 18  2  0  0  0  0
  7  2  1  0  0  0  0
  8 20  1  0  0  0  0
  8  1  1  0  0  0  0
  9  3  2  0  0  0  0
  9  6  1  0  0  0  0
 10 16  1  0  0  0  0
 10 15  1  0  0  0  0
 11  1  1  0  0  0  0
 13  6  1  0  0  0  0
 14 10  2  0  0  0  0
 15 21  1  0  0  0  0
 17  7  2  0  0  0  0
 18 23  1  0  0  0  0
 19 20  1  6  0  0  0
 19 14  1  0  0  0  0
 19  7  1  0  0  0  0
 21 12  2  0  0  0  0
 22 12  1  0  0  0  0
 22 23  2  0  0  0  0
 24 31  1  0  0  0  0
 24 28  1  0  0  0  0
 24 27  1  1  0  0  0
 25 28  1  0  0  0  0
 29 26  1  1  0  0  0
 29 31  1  0  0  0  0
 30 29  1  0  0  0  0
 30 25  2  0  0  0  0
M  END
>  <MODEL>
2

>  <REMARK>
 VINA RESULT:      -7.8      1.884      4.390
  Name = 
  1 active torsions:
  status: ('A' for Active; 'I' for Inactive)
    1  A    between atoms: C_9  and  C_22
                            x       y       z     vdW  Elec       q    Type
                         _______ _______ _______ _____ _____    ______ ____

>  <TORSDO>
F 1

$$$$
=
 OpenBabel11052417523D

 31 35  0  0  1  0  0  0  0  0999 V2000
  187.4290  176.4060  140.5800 N   0  0  0  0  0  0  0  0  0  0  0  0
  188.4470  175.7050  144.1800 C   0  0  0  0  0  0  0  0  0  0  0  0
  187.7510  176.6050  145.0310 C   0  0  0  0  0  0  0  0  0  0  0  0
  191.9440  171.9970  142.5910 O   0  0  0  0  0  0  0  0  0  0  0  0
  192.1790  172.3200  143.7870 C   0  0  0  0  0  0  0  0  0  0  0  0
  186.0880  178.3200  145.4450 C   0  0  0  0  0  0  0  0  0  0  0  0
  188.2270  175.5840  142.7110 C   0  0  0  0  0  0  0  0  0  0  0  0
  187.7090  175.1470  139.8970 C   0  0  0  0  0  2  0  0  0  0  0  0
  186.7430  177.4600  144.5610 C   0  0  0  0  0  3  0  0  0  0  0  0
  190.1770  173.9110  143.9130 C   0  0  0  0  0  0  0  0  0  0  0  0
  186.8430  177.5030  139.8340 C   0  0  0  0  0  1  0  0  0  0  0  0
  189.0410  175.7860  146.9150 C   0  0  0  0  0  3  0  0  0  0  0  0
  185.0240  179.2270  144.9420 C   0  0  0  0  0  1  0  0  0  0  0  0
  189.8400  173.7150  142.6700 N   0  0  0  0  0  0  0  0  0  0  0  0
  189.4150  174.8540  144.7580 C   0  0  0  0  0  0  0  0  0  0  0  0
  191.3250  173.2540  144.4680 N   0  0  0  0  0  2  0  0  0  0  0  0
  187.6420  176.5500  141.9900 C   0  0  0  0  0  3  0  0  0  0  0  0
  186.4220  178.3310  146.7630 N   0  0  0  0  0  0  0  0  0  0  0  0
  188.6530  174.2920  142.0390 C   0  0  2  0  0  3  0  0  0  0  0  0
  188.9080  174.4650  140.5430 C   0  0  0  0  0  2  0  0  0  0  0  0
  189.6870  174.9260  146.0890 N   0  0  0  0  0  0  0  0  0  0  0  0
  188.0640  176.6360  146.4070 C   0  0  0  0  0  0  0  0  0  0  0  0
  187.3870  177.5110  147.2570 C   0  0  0  0  0  3  0  0  0  0  0  0
  195.8120  170.4900  145.1900 C   0  0  1  0  0  3  0  0  0  0  0  0
  193.3820  170.4000  144.6590 C   0  0  0  0  0  3  0  0  0  0  0  0
  194.0780  173.7290  145.5590 F   0  0  0  0  0  0  0  0  0  0  0  0
  197.1220  169.6960  146.1590 S   0  0  0  0  0  1  0  0  0  0  0  0
  194.5190  169.7030  145.3480 C   0  0  0  0  0  2  0  0  0  0  0  0
  194.5120  172.6110  144.8710 C   0  0  2  0  0  3  0  0  0  0  0  0
  193.3340  171.7300  144.4910 C   0  0  0  0  0  0  0  0  0  0  0  0
  195.5790  171.9000  145.7080 C   0  0  0  0  0  2  0  0  0  0  0  0
  1 17  1  0  0  0  0
  2 15  2  0  0  0  0
  2  3  1  0  0  0  0
  3 22  1  0  0  0  0
  4  5  2  0  0  0  0
  5 16  1  0  0  0  0
  5 30  1  0  0  0  0
  6 18  2  0  0  0  0
  7  2  1  0  0  0  0
  8 20  1  0  0  0  0
  8  1  1  0  0  0  0
  9  3  2  0  0  0  0
  9  6  1  0  0  0  0
 10 16  1  0  0  0  0
 10 15  1  0  0  0  0
 11  1  1  0  0  0  0
 13  6  1  0  0  0  0
 14 10  2  0  0  0  0
 15 21  1  0  0  0  0
 17  7  2  0  0  0  0
 18 23  1  0  0  0  0
 19 20  1  6  0  0  0
 19 14  1  0  0  0  0
 19  7  1  0  0  0  0
 21 12  2  0  0  0  0
 22 12  1  0  0  0  0
 22 23  2  0  0  0  0
 24 28  1  0  0  0  0
 24 31  1  0  0  0  0
 24 27  1  1  0  0  0
 25 28  1  0  0  0  0
 29 26  1  1  0  0  0
 29 31  1  0  0  0  0
 30 25  2  0  0  0  0
 30 29  1  0  0  0  0
M  END
>  <MODEL>
3

>  <REMARK>
 VINA RESULT:      -7.8      2.366      4.804
  Name = 
  1 active torsions:
  status: ('A' for Active; 'I' for Inactive)
    1  A    between atoms: C_9  and  C_22
                            x       y       z     vdW  Elec       q    Type
                         _______ _______ _______ _____ _____    ______ ____

>  <TORSDO>
F 1

$$$$
=
 OpenBabel11052417523D

 31 35  0  0  1  0  0  0  0  0999 V2000
  191.4290  176.4170  146.9710 N   0  0  0  0  0  0  0  0  0  0  0  0
  188.7040  176.4280  144.3130 C   0  0  0  0  0  0  0  0  0  0  0  0
  187.5230  176.9770  144.8790 C   0  0  0  0  0  0  0  0  0  0  0  0
  191.9290  173.9770  140.8340 O   0  0  0  0  0  0  0  0  0  0  0  0
  190.7350  173.9070  140.4320 C   0  0  0  0  0  0  0  0  0  0  0  0
  186.3060  178.0870  146.6580 C   0  0  0  0  0  0  0  0  0  0  0  0
  190.0260  176.3660  145.0010 C   0  0  0  0  0  0  0  0  0  0  0  0
  192.6630  176.4000  146.1920 C   0  0  0  0  0  2  0  0  0  0  0  0
  187.4960  177.5570  146.1550 C   0  0  0  0  0  3  0  0  0  0  0  0
  189.8360  175.3110  142.3750 C   0  0  0  0  0  0  0  0  0  0  0  0
  191.5040  176.4740  148.4180 C   0  0  0  0  0  1  0  0  0  0  0  0
  186.3190  176.4160  142.8490 C   0  0  0  0  0  3  0  0  0  0  0  0
  186.2820  178.6960  148.0130 C   0  0  0  0  0  1  0  0  0  0  0  0
  191.0050  175.4270  142.9390 N   0  0  0  0  0  0  0  0  0  0  0  0
  188.6380  175.9060  143.0020 C   0  0  0  0  0  0  0  0  0  0  0  0
  189.6840  174.5570  141.1640 N   0  0  0  0  0  2  0  0  0  0  0  0
  190.1470  176.4670  146.3320 C   0  0  0  0  0  3  0  0  0  0  0  0
  185.1700  178.0450  145.9120 N   0  0  0  0  0  0  0  0  0  0  0  0
  191.2650  176.2240  144.1370 C   0  0  2  0  0  3  0  0  0  0  0  0
  192.4450  175.6260  144.8990 C   0  0  0  0  0  2  0  0  0  0  0  0
  187.4590  175.9070  142.3210 N   0  0  0  0  0  0  0  0  0  0  0  0
  186.3270  176.9610  144.1280 C   0  0  0  0  0  0  0  0  0  0  0  0
  185.1580  177.5000  144.6670 C   0  0  0  0  0  3  0  0  0  0  0  0
  190.3830  172.0560  136.5640 C   0  0  1  0  0  3  0  0  0  0  0  0
  189.6910  173.7550  138.2450 C   0  0  0  0  0  3  0  0  0  0  0  0
  190.8580  170.9780  140.0640 F   0  0  0  0  0  0  0  0  0  0  0  0
  189.8380  171.1660  135.0820 S   0  0  0  0  0  1  0  0  0  0  0  0
  189.3310  173.0840  136.9520 C   0  0  0  0  0  2  0  0  0  0  0  0
  191.0530  171.7970  138.9670 C   0  0  2  0  0  3  0  0  0  0  0  0
  190.4210  173.1580  139.1990 C   0  0  0  0  0  0  0  0  0  0  0  0
  190.5420  171.0770  137.7160 C   0  0  0  0  0  2  0  0  0  0  0  0
  1 11  1  0  0  0  0
  2  3  1  0  0  0  0
  2  7  1  0  0  0  0
  3  9  1  0  0  0  0
  5  4  2  0  0  0  0
  5 16  1  0  0  0  0
  6 13  1  0  0  0  0
  7 17  2  0  0  0  0
  8  1  1  0  0  0  0
  9  6  2  0  0  0  0
 10 14  2  0  0  0  0
 10 15  1  0  0  0  0
 12 22  1  0  0  0  0
 14 19  1  0  0  0  0
 15  2  2  0  0  0  0
 16 10  1  0  0  0  0
 17  1  1  0  0  0  0
 18  6  1  0  0  0  0
 19 20  1  1  0  0  0
 19  7  1  0  0  0  0
 20  8  1  0  0  0  0
 21 12  2  0  0  0  0
 21 15  1  0  0  0  0
 22 23  1  0  0  0  0
 22  3  2  0  0  0  0
 23 18  2  0  0  0  0
 24 27  1  6  0  0  0
 24 28  1  0  0  0  0
 24 31  1  0  0  0  0
 25 30  2  0  0  0  0
 28 25  1  0  0  0  0
 29 30  1  0  0  0  0
 29 26  1  1  0  0  0
 30  5  1  0  0  0  0
 31 29  1  0  0  0  0
M  END
>  <MODEL>
4

>  <REMARK>
 VINA RESULT:      -7.7      4.158      6.510
  Name = 
  1 active torsions:
  status: ('A' for Active; 'I' for Inactive)
    1  A    between atoms: C_9  and  C_22
                            x       y       z     vdW  Elec       q    Type
                         _______ _______ _______ _____ _____    ______ ____

>  <TORSDO>
F 1

$$$$
=
 OpenBabel11052417523D

 31 35  0  0  1  0  0  0  0  0999 V2000
  194.1320  174.8590  145.5950 N   0  0  0  0  0  0  0  0  0  0  0  0
  191.0860  173.3740  143.8600 C   0  0  0  0  0  0  0  0  0  0  0  0
  191.4290  172.0870  143.3660 C   0  0  0  0  0  0  0  0  0  0  0  0
  188.2970  177.8530  144.6740 O   0  0  0  0  0  0  0  0  0  0  0  0
  187.7190  177.1420  143.8080 C   0  0  0  0  0  0  0  0  0  0  0  0
  192.9310  170.1960  143.1560 C   0  0  0  0  0  0  0  0  0  0  0  0
  191.9740  174.2240  144.7040 C   0  0  0  0  0  0  0  0  0  0  0  0
  193.5570  175.8360  146.5120 C   0  0  0  0  0  2  0  0  0  0  0  0
  192.6510  171.4660  143.6640 C   0  0  0  0  0  3  0  0  0  0  0  0
  189.4150  175.2360  144.0160 C   0  0  0  0  0  0  0  0  0  0  0  0
  195.5680  174.6530  145.5850 C   0  0  0  0  0  1  0  0  0  0  0  0
  189.2720  171.9610  142.2640 C   0  0  0  0  0  3  0  0  0  0  0  0
  194.2290  169.5430  143.4700 C   0  0  0  0  0  1  0  0  0  0  0  0
  190.1460  175.8730  144.8860 N   0  0  0  0  0  0  0  0  0  0  0  0
  189.8130  173.8950  143.5400 C   0  0  0  0  0  0  0  0  0  0  0  0
  188.2400  175.8480  143.4660 N   0  0  0  0  0  2  0  0  0  0  0  0
  193.3000  174.0370  144.7660 C   0  0  0  0  0  3  0  0  0  0  0  0
  192.0210  169.5560  142.3750 N   0  0  0  0  0  0  0  0  0  0  0  0
  191.3230  175.3060  145.5440 C   0  0  2  0  0  3  0  0  0  0  0  0
  192.2910  176.4300  145.9070 C   0  0  0  0  0  2  0  0  0  0  0  0
  188.9580  173.1860  142.7530 N   0  0  0  0  0  0  0  0  0  0  0  0
  190.5040  171.3880  142.5610 C   0  0  0  0  0  0  0  0  0  0  0  0
  190.8230  170.1210  142.0710 C   0  0  0  0  0  3  0  0  0  0  0  0
  184.0120  177.9160  141.7630 C   0  0  1  0  0  3  0  0  0  0  0  0
  186.4980  177.8030  141.8150 C   0  0  0  0  0  3  0  0  0  0  0  0
  185.4710  178.5660  145.0930 F   0  0  0  0  0  0  0  0  0  0  0  0
  182.6050  178.6500  140.8880 S   0  0  0  0  0  1  0  0  0  0  0  0
  185.3030  178.2900  141.0490 C   0  0  0  0  0  2  0  0  0  0  0  0
  185.2240  177.8170  143.9570 C   0  0  2  0  0  3  0  0  0  0  0  0
  186.4970  177.6430  143.1470 C   0  0  0  0  0  0  0  0  0  0  0  0
  184.0730  178.4630  143.1800 C   0  0  0  0  0  2  0  0  0  0  0  0
  1  8  1  0  0  0  0
  2  7  1  0  0  0  0
  3  9  1  0  0  0  0
  3  2  2  0  0  0  0
  5  4  2  0  0  0  0
  6 13  1  0  0  0  0
  6  9  2  0  0  0  0
  7 17  2  0  0  0  0
  7 19  1  0  0  0  0
 10 14  2  0  0  0  0
 11  1  1  0  0  0  0
 12 22  2  0  0  0  0
 12 21  1  0  0  0  0
 14 19  1  0  0  0  0
 15  2  1  0  0  0  0
 15 10  1  0  0  0  0
 16  5  1  0  0  0  0
 16 10  1  0  0  0  0
 17  1  1  0  0  0  0
 18  6  1  0  0  0  0
 19 20  1  6  0  0  0
 20  8  1  0  0  0  0
 21 15  2  0  0  0  0
 22  3  1  0  0  0  0
 23 18  2  0  0  0  0
 23 22  1  0  0  0  0
 24 27  1  6  0  0  0
 24 31  1  0  0  0  0
 25 30  2  0  0  0  0
 28 24  1  0  0  0  0
 28 25  1  0  0  0  0
 29 26  1  1  0  0  0
 30  5  1  0  0  0  0
 30 29  1  0  0  0  0
 31 29  1  0  0  0  0
M  END
>  <MODEL>
5

>  <REMARK>
 VINA RESULT:      -7.6      4.365      8.602
  Name = 
  1 active torsions:
  status: ('A' for Active; 'I' for Inactive)
    1  A    between atoms: C_9  and  C_22
                            x       y       z     vdW  Elec       q    Type
                         _______ _______ _______ _____ _____    ______ ____

>  <TORSDO>
F 1

$$$$
=
 OpenBabel11052417523D

 31 35  0  0  1  0  0  0  0  0999 V2000
  196.0640  173.8120  144.7220 N   0  0  0  0  0  0  0  0  0  0  0  0
  192.5590  172.5510  143.9360 C   0  0  0  0  0  0  0  0  0  0  0  0
  192.6680  171.3750  143.1470 C   0  0  0  0  0  0  0  0  0  0  0  0
  190.3710  176.7510  146.4020 O   0  0  0  0  0  0  0  0  0  0  0  0
  189.5050  176.1780  145.6860 C   0  0  0  0  0  0  0  0  0  0  0  0
  193.9420  169.5880  142.1160 C   0  0  0  0  0  0  0  0  0  0  0  0
  193.7120  173.2740  144.5460 C   0  0  0  0  0  0  0  0  0  0  0  0
  195.8750  174.6060  145.9310 C   0  0  0  0  0  2  0  0  0  0  0  0
  193.8960  170.7470  142.8930 C   0  0  0  0  0  3  0  0  0  0  0  0
  191.1070  174.3130  144.9710 C   0  0  0  0  0  0  0  0  0  0  0  0
  197.3990  173.6520  144.1780 C   0  0  0  0  0  1  0  0  0  0  0  0
  190.2590  171.3730  142.8610 C   0  0  0  0  0  3  0  0  0  0  0  0
  195.2460  168.9300  141.8450 C   0  0  0  0  0  1  0  0  0  0  0  0
  192.1140  174.8160  145.6250 N   0  0  0  0  0  0  0  0  0  0  0  0
  191.2710  173.0820  144.1700 C   0  0  0  0  0  0  0  0  0  0  0  0
  189.8330  174.9740  144.9740 N   0  0  0  0  0  2  0  0  0  0  0  0
  194.9690  173.1170  144.1110 C   0  0  0  0  0  3  0  0  0  0  0  0
  192.7970  169.0610  141.6060 N   0  0  0  0  0  0  0  0  0  0  0  0
  193.4280  174.1820  145.7280 C   0  0  2  0  0  3  0  0  0  0  0  0
  194.4980  175.2560  145.9120 C   0  0  0  0  0  2  0  0  0  0  0  0
  190.1740  172.4900  143.6240 N   0  0  0  0  0  0  0  0  0  0  0  0
  191.4980  170.7930  142.6100 C   0  0  0  0  0  0  0  0  0  0  0  0
  191.5870  169.6350  141.8380 C   0  0  0  0  0  3  0  0  0  0  0  0
  185.7670  178.3010  145.8780 C   0  0  1  0  0  3  0  0  0  0  0  0
  187.2160  176.3670  146.4740 C   0  0  0  0  0  3  0  0  0  0  0  0
  188.3100  177.4930  143.3250 F   0  0  0  0  0  0  0  0  0  0  0  0
  184.0420  178.8430  145.7470 S   0  0  0  0  0  1  0  0  0  0  0  0
  185.8120  176.8970  146.4650 C   0  0  0  0  0  2  0  0  0  0  0  0
  187.8690  177.8550  144.5850 C   0  0  2  0  0  3  0  0  0  0  0  0
  188.1460  176.7460  145.5850 C   0  0  0  0  0  0  0  0  0  0  0  0
  186.3950  178.2600  144.4950 C   0  0  0  0  0  2  0  0  0  0  0  0
  1  8  1  0  0  0  0
  2 15  1  0  0  0  0
  2  7  1  0  0  0  0
  3  2  2  0  0  0  0
  5  4  2  0  0  0  0
  6  9  2  0  0  0  0
  7 19  1  0  0  0  0
  9  3  1  0  0  0  0
 10 16  1  0  0  0  0
 10 14  2  0  0  0  0
 11  1  1  0  0  0  0
 12 21  1  0  0  0  0
 13  6  1  0  0  0  0
 14 19  1  0  0  0  0
 15 10  1  0  0  0  0
 16  5  1  0  0  0  0
 17  7  2  0  0  0  0
 17  1  1  0  0  0  0
 18 23  2  0  0  0  0
 18  6  1  0  0  0  0
 19 20  1  6  0  0  0
 20  8  1  0  0  0  0
 21 15  2  0  0  0  0
 22 12  2  0  0  0  0
 22  3  1  0  0  0  0
 23 22  1  0  0  0  0
 24 27  1  6  0  0  0
 24 28  1  0  0  0  0
 28 25  1  0  0  0  0
 29 26  1  6  0  0  0
 29 30  1  0  0  0  0
 30  5  1  0  0  0  0
 30 25  2  0  0  0  0
 31 29  1  0  0  0  0
 31 24  1  0  0  0  0
M  END
>  <MODEL>
6

>  <REMARK>
 VINA RESULT:      -7.5      4.210      8.806
  Name = 
  1 active torsions:
  status: ('A' for Active; 'I' for Inactive)
    1  A    between atoms: C_9  and  C_22
                            x       y       z     vdW  Elec       q    Type
                         _______ _______ _______ _____ _____    ______ ____

>  <TORSDO>
F 1

$$$$
=
 OpenBabel11052417523D

 31 35  0  0  1  0  0  0  0  0999 V2000
  192.4500  169.6140  143.0300 N   0  0  0  0  0  0  0  0  0  0  0  0
  192.7400  173.2420  144.1470 C   0  0  0  0  0  0  0  0  0  0  0  0
  193.9810  173.4110  144.8180 C   0  0  0  0  0  0  0  0  0  0  0  0
  187.8380  174.3150  142.3250 O   0  0  0  0  0  0  0  0  0  0  0  0
  188.2180  175.2380  143.0960 C   0  0  0  0  0  0  0  0  0  0  0  0
  196.1620  172.6290  145.5310 C   0  0  0  0  0  0  0  0  0  0  0  0
  192.3110  171.9910  143.4570 C   0  0  0  0  0  0  0  0  0  0  0  0
  191.5020  169.6750  141.9220 C   0  0  0  0  0  2  0  0  0  0  0  0
  194.9570  172.4040  144.8630 C   0  0  0  0  0  3  0  0  0  0  0  0
  190.5310  174.2000  143.4500 C   0  0  0  0  0  0  0  0  0  0  0  0
  193.0450  168.3400  143.3860 C   0  0  0  0  0  1  0  0  0  0  0  0
  193.3280  175.6720  145.4050 C   0  0  0  0  0  3  0  0  0  0  0  0
  197.1910  171.5590  145.5820 C   0  0  0  0  0  1  0  0  0  0  0  0
  190.2650  173.1570  142.7160 N   0  0  0  0  0  0  0  0  0  0  0  0
  191.8410  174.3310  144.1210 C   0  0  0  0  0  0  0  0  0  0  0  0
  189.5390  175.2140  143.6610 N   0  0  0  0  0  2  0  0  0  0  0  0
  192.8690  170.8010  143.7150 C   0  0  0  0  0  3  0  0  0  0  0  0
  196.3950  173.8240  146.1380 N   0  0  0  0  0  0  0  0  0  0  0  0
  191.2310  172.1060  142.3980 C   0  0  2  0  0  3  0  0  0  0  0  0
  190.4930  170.7900  142.1670 C   0  0  0  0  0  2  0  0  0  0  0  0
  192.1540  175.4960  144.7510 N   0  0  0  0  0  0  0  0  0  0  0  0
  194.2620  174.6420  145.4490 C   0  0  0  0  0  0  0  0  0  0  0  0
  195.4780  174.8260  146.1080 C   0  0  0  0  0  3  0  0  0  0  0  0
  185.1910  178.0020  144.4060 C   0  0  1  0  0  3  0  0  0  0  0  0
  186.1810  176.4950  142.6900 C   0  0  0  0  0  3  0  0  0  0  0  0
  188.8630  177.6740  144.6380 F   0  0  0  0  0  0  0  0  0  0  0  0
  184.0810  179.4160  144.6380 S   0  0  0  0  0  1  0  0  0  0  0  0
  185.1790  177.5830  142.9430 C   0  0  0  0  0  2  0  0  0  0  0  0
  187.5600  177.2100  144.6380 C   0  0  2  0  0  3  0  0  0  0  0  0
  187.3010  176.3510  143.4130 C   0  0  0  0  0  0  0  0  0  0  0  0
  186.6100  178.4030  144.7760 C   0  0  0  0  0  2  0  0  0  0  0  0
  1 11  1  0  0  0  0
  1 17  1  0  0  0  0
  2  3  1  0  0  0  0
  3  9  2  0  0  0  0
  3 22  1  0  0  0  0
  4  5  2  0  0  0  0
  5 30  1  0  0  0  0
  5 16  1  0  0  0  0
  6 13  1  0  0  0  0
  6 18  2  0  0  0  0
  7 17  2  0  0  0  0
  7  2  1  0  0  0  0
  8 20  1  0  0  0  0
  8  1  1  0  0  0  0
  9  6  1  0  0  0  0
 10 16  1  0  0  0  0
 10 15  1  0  0  0  0
 12 22  1  0  0  0  0
 14 10  2  0  0  0  0
 15  2  2  0  0  0  0
 15 21  1  0  0  0  0
 19 20  1  1  0  0  0
 19 14  1  0  0  0  0
 19  7  1  0  0  0  0
 21 12  2  0  0  0  0
 22 23  2  0  0  0  0
 23 18  1  0  0  0  0
 24 27  1  6  0  0  0
 24 31  1  0  0  0  0
 25 28  1  0  0  0  0
 25 30  2  0  0  0  0
 28 24  1  0  0  0  0
 29 26  1  6  0  0  0
 29 31  1  0  0  0  0
 30 29  1  0  0  0  0
M  END
>  <MODEL>
7

>  <REMARK>
 VINA RESULT:      -7.5      4.187      9.350
  Name = 
  1 active torsions:
  status: ('A' for Active; 'I' for Inactive)
    1  A    between atoms: C_9  and  C_22
                            x       y       z     vdW  Elec       q    Type
                         _______ _______ _______ _____ _____    ______ ____

>  <TORSDO>
F 1

$$$$
=
 OpenBabel11052417523D

 31 35  0  0  1  0  0  0  0  0999 V2000
  193.5200  176.1340  143.7070 N   0  0  0  0  0  0  0  0  0  0  0  0
  190.5260  174.4240  142.0930 C   0  0  0  0  0  0  0  0  0  0  0  0
  190.9810  173.2610  141.4150 C   0  0  0  0  0  0  0  0  0  0  0  0
  187.2740  178.3370  143.7090 O   0  0  0  0  0  0  0  0  0  0  0  0
  186.7040  177.6490  142.8180 C   0  0  0  0  0  0  0  0  0  0  0  0
  192.6890  171.6410  140.8350 C   0  0  0  0  0  0  0  0  0  0  0  0
  191.3810  175.2960  142.9490 C   0  0  0  0  0  0  0  0  0  0  0  0
  192.9240  176.9120  144.7880 C   0  0  0  0  0  2  0  0  0  0  0  0
  192.3000  172.7940  141.5190 C   0  0  0  0  0  3  0  0  0  0  0  0
  188.6510  175.9960  142.6320 C   0  0  0  0  0  0  0  0  0  0  0  0
  194.9600  176.1400  143.5390 C   0  0  0  0  0  1  0  0  0  0  0  0
  188.7520  172.9460  140.5100 C   0  0  0  0  0  3  0  0  0  0  0  0
  194.0880  171.1520  140.9440 C   0  0  0  0  0  1  0  0  0  0  0  0
  189.3810  176.6330  143.5020 N   0  0  0  0  0  0  0  0  0  0  0  0
  189.1680  174.7870  141.9590 C   0  0  0  0  0  0  0  0  0  0  0  0
  187.3520  176.4880  142.2730 N   0  0  0  0  0  2  0  0  0  0  0  0
  192.7180  175.2960  142.8650 C   0  0  0  0  0  3  0  0  0  0  0  0
  191.7920  170.9650  140.0690 N   0  0  0  0  0  0  0  0  0  0  0  0
  190.6880  176.1740  143.9730 C   0  0  2  0  0  3  0  0  0  0  0  0
  191.5320  177.3790  144.3810 C   0  0  0  0  0  2  0  0  0  0  0  0
  188.3340  174.0520  141.1740 N   0  0  0  0  0  0  0  0  0  0  0  0
  190.0740  172.5280  140.6190 C   0  0  0  0  0  0  0  0  0  0  0  0
  190.5030  171.3810  139.9500 C   0  0  0  0  0  3  0  0  0  0  0  0
  182.6600  178.0810  141.4130 C   0  0  1  0  0  3  0  0  0  0  0  0
  185.1180  178.0380  141.0220 C   0  0  0  0  0  3  0  0  0  0  0  0
  184.6590  179.1570  144.3260 F   0  0  0  0  0  0  0  0  0  0  0  0
  181.0860  178.6720  140.7340 S   0  0  0  0  0  1  0  0  0  0  0  0
  183.7840  178.4020  140.4380 C   0  0  0  0  0  2  0  0  0  0  0  0
  184.2470  178.2730  143.3450 C   0  0  2  0  0  3  0  0  0  0  0  0
  185.3620  178.0370  142.3410 C   0  0  0  0  0  0  0  0  0  0  0  0
  182.9480  178.7940  142.7240 C   0  0  0  0  0  2  0  0  0  0  0  0
  1  8  1  0  0  0  0
  2  7  1  0  0  0  0
  3  9  1  0  0  0  0
  3  2  2  0  0  0  0
  5  4  2  0  0  0  0
  6 13  1  0  0  0  0
  6  9  2  0  0  0  0
  7 19  1  0  0  0  0
 10 14  2  0  0  0  0
 11  1  1  0  0  0  0
 12 22  2  0  0  0  0
 12 21  1  0  0  0  0
 14 19  1  0  0  0  0
 15  2  1  0  0  0  0
 15 10  1  0  0  0  0
 16 10  1  0  0  0  0
 16  5  1  0  0  0  0
 17  7  2  0  0  0  0
 17  1  1  0  0  0  0
 18  6  1  0  0  0  0
 19 20  1  6  0  0  0
 20  8  1  0  0  0  0
 21 15  2  0  0  0  0
 22  3  1  0  0  0  0
 23 18  2  0  0  0  0
 23 22  1  0  0  0  0
 24 27  1  6  0  0  0
 24 31  1  0  0  0  0
 25 30  2  0  0  0  0
 28 25  1  0  0  0  0
 28 24  1  0  0  0  0
 29 26  1  1  0  0  0
 30  5  1  0  0  0  0
 30 29  1  0  0  0  0
 31 29  1  0  0  0  0
M  END
>  <MODEL>
8

>  <REMARK>
 VINA RESULT:      -7.5      4.798      8.709
  Name = 
  1 active torsions:
  status: ('A' for Active; 'I' for Inactive)
    1  A    between atoms: C_9  and  C_22
                            x       y       z     vdW  Elec       q    Type
                         _______ _______ _______ _____ _____    ______ ____

>  <TORSDO>
F 1

$$$$
=
 OpenBabel11052417523D

 31 35  0  0  1  0  0  0  0  0999 V2000
  186.1550  178.5200  143.7140 N   0  0  0  0  0  0  0  0  0  0  0  0
  189.1170  176.1460  144.0000 C   0  0  0  0  0  0  0  0  0  0  0  0
  189.7950  176.4140  145.2200 C   0  0  0  0  0  0  0  0  0  0  0  0
  188.0980  174.1080  139.1720 O   0  0  0  0  0  0  0  0  0  0  0  0
  189.2620  173.7840  139.5350 C   0  0  0  0  0  0  0  0  0  0  0  0
  189.9980  177.5180  147.3690 C   0  0  0  0  0  0  0  0  0  0  0  0
  187.8360  176.7850  143.5840 C   0  0  0  0  0  0  0  0  0  0  0  0
  185.2510  177.8250  142.8040 C   0  0  0  0  0  2  0  0  0  0  0  0
  189.2920  177.2990  146.1850 C   0  0  0  0  0  3  0  0  0  0  0  0
  189.0260  174.9040  141.8260 C   0  0  0  0  0  0  0  0  0  0  0  0
  185.7500  179.7900  144.2850 C   0  0  0  0  0  1  0  0  0  0  0  0
  191.5330  174.8500  144.5700 C   0  0  0  0  0  3  0  0  0  0  0  0
  189.4640  178.4600  148.3860 C   0  0  0  0  0  1  0  0  0  0  0  0
  187.8290  175.3510  141.5740 N   0  0  0  0  0  0  0  0  0  0  0  0
  189.6840  175.2050  143.1130 C   0  0  0  0  0  0  0  0  0  0  0  0
  189.7460  174.1550  140.8360 N   0  0  0  0  0  2  0  0  0  0  0  0
  187.3970  177.9310  144.1210 C   0  0  0  0  0  3  0  0  0  0  0  0
  191.1740  176.8730  147.5930 N   0  0  0  0  0  0  0  0  0  0  0  0
  186.9990  176.0690  142.5400 C   0  0  2  0  0  3  0  0  0  0  0  0
  186.0550  177.0120  141.7980 C   0  0  0  0  0  2  0  0  0  0  0  0
  190.8650  174.6000  143.4160 N   0  0  0  0  0  0  0  0  0  0  0  0
  191.0140  175.7540  145.4910 C   0  0  0  0  0  0  0  0  0  0  0  0
  191.6900  176.0020  146.6860 C   0  0  0  0  0  3  0  0  0  0  0  0
  191.2600  171.0620  136.8670 C   0  0  1  0  0  3  0  0  0  0  0  0
  190.9160  172.0550  139.1240 C   0  0  0  0  0  3  0  0  0  0  0  0
  190.0690  174.5570  136.8000 F   0  0  0  0  0  0  0  0  0  0  0  0
  192.4500  170.1640  135.8360 S   0  0  0  0  0  1  0  0  0  0  0  0
  191.8190  171.2090  138.2750 C   0  0  0  0  0  2  0  0  0  0  0  0
  189.9950  173.2140  137.1190 C   0  0  2  0  0  3  0  0  0  0  0  0
  190.1270  173.0150  138.6190 C   0  0  0  0  0  0  0  0  0  0  0  0
  191.0380  172.4530  136.2940 C   0  0  0  0  0  2  0  0  0  0  0  0
  1 17  1  0  0  0  0
  1 11  1  0  0  0  0
  2  3  1  0  0  0  0
  3 22  2  0  0  0  0
  3  9  1  0  0  0  0
  4  5  2  0  0  0  0
  5 16  1  0  0  0  0
  6 18  1  0  0  0  0
  6 13  1  0  0  0  0
  7  2  1  0  0  0  0
  7 17  2  0  0  0  0
  8  1  1  0  0  0  0
  9  6  2  0  0  0  0
 10 15  1  0  0  0  0
 12 22  1  0  0  0  0
 14 10  2  0  0  0  0
 14 19  1  0  0  0  0
 15 21  1  0  0  0  0
 15  2  2  0  0  0  0
 16 10  1  0  0  0  0
 19 20  1  6  0  0  0
 19  7  1  0  0  0  0
 20  8  1  0  0  0  0
 21 12  2  0  0  0  0
 22 23  1  0  0  0  0
 23 18  2  0  0  0  0
 24 27  1  6  0  0  0
 24 28  1  0  0  0  0
 28 25  1  0  0  0  0
 29 26  1  1  0  0  0
 29 30  1  0  0  0  0
 30 25  2  0  0  0  0
 30  5  1  0  0  0  0
 31 24  1  0  0  0  0
 31 29  1  0  0  0  0
M  END
>  <MODEL>
9

>  <REMARK>
 VINA RESULT:      -7.3      4.494      6.832
  Name = 
  1 active torsions:
  status: ('A' for Active; 'I' for Inactive)
    1  A    between atoms: C_9  and  C_22
                            x       y       z     vdW  Elec       q    Type
                         _______ _______ _______ _____ _____    ______ ____

>  <TORSDO>
F 1

$$$$
