=
 OpenBabel11052417233D

 30 35  0  0  1  0  0  0  0  0999 V2000
  191.2080  175.9740  142.9600 C   0  0  1  0  0  3  0  0  0  0  0  0
  193.6680  176.4720  145.1110 C   0  0  1  0  0  3  0  0  0  0  0  0
  190.3110  176.6380  147.2520 O   0  0  0  0  0  1  0  0  0  0  0  0
  190.3420  174.8550  142.3790 C   0  0  2  0  0  3  0  0  0  0  0  0
  190.6220  176.4770  144.2710 C   0  0  1  0  0  3  0  0  0  0  0  0
  188.2310  176.0010  143.0060 C   0  0  2  0  0  3  0  0  0  0  0  0
  189.3240  172.5440  142.7140 C   0  0  0  0  0  2  0  0  0  0  0  0
  189.7300  173.0050  145.6290 O   0  0  0  0  0  1  0  0  0  0  0  0
  189.0990  177.3890  143.8810 S   0  0  0  0  0  0  0  0  0  0  0  0
  189.0450  175.4090  141.9110 N   0  0  2  0  0  0  0  0  0  0  0  0
  194.5020  176.0530  146.3050 C   0  0  0  0  0  2  0  0  0  0  0  0
  188.1340  173.0980  142.0000 C   0  0  0  0  0  0  0  0  0  0  0  0
  193.3270  175.2540  144.2600 C   0  0  0  0  0  2  0  0  0  0  0  0
  190.3420  175.3150  145.2370 C   0  0  2  0  0  3  0  0  0  0  0  0
  193.0610  176.4650  146.5210 C   0  0  2  0  0  3  0  0  0  0  0  0
  192.7210  175.7000  142.9330 C   0  0  0  0  0  2  0  0  0  0  0  0
  191.4680  173.0620  143.5240 O   0  0  0  0  0  1  0  0  0  0  0  0
  189.6410  174.0540  144.7080 C   0  0  1  0  0  3  0  0  0  0  0  0
  190.2060  173.6300  143.3380 C   0  0  1  0  0  0  0  0  0  0  0  0
  187.0910  172.3700  141.8540 N   0  0  0  0  0  2  0  0  0  0  0  0
  190.7400  175.4270  146.7050 C   0  0  1  0  0  3  0  0  0  0  0  0
  192.2430  175.2270  146.8970 C   0  0  0  0  0  2  0  0  0  0  0  0
  188.2740  174.3700  141.2040 C   0  0  2  0  0  3  0  0  0  0  0  0
  186.7870  176.3400  142.5420 C   0  0  2  0  0  3  0  0  0  0  0  0
  186.4770  177.8150  142.7070 C   0  0  1  0  0  3  0  0  0  0  0  0
  185.4610  178.2190  141.6600 C   0  0  0  0  0  1  0  0  0  0  0  0
  185.8530  176.7970  143.6450 C   0  0  0  0  0  2  0  0  0  0  0  0
  187.9280  174.9470  138.8970 O   0  0  0  0  0  1  0  0  0  0  0  0
  188.7200  172.7340  139.2960 C   0  0  0  0  0  1  0  0  0  0  0  0
  188.7280  174.1860  139.7480 C   0  0  2  0  0  3  0  0  0  0  0  0
  1 16  1  1  0  0  0
  1  5  1  0  0  0  0
  2 13  1  6  0  0  0
  2 11  1  0  0  0  0
  2 15  1  0  0  0  0
  4  1  1  0  0  0  0
  4 19  1  0  0  0  0
  5 14  1  0  0  0  0
  6  9  1  0  0  0  0
  7 19  1  0  0  0  0
  9  5  1  0  0  0  0
 10  4  1  0  0  0  0
 10  6  1  0  0  0  0
 11 15  1  0  0  0  0
 12  7  1  0  0  0  0
 14 21  1  0  0  0  0
 15 22  1  0  0  0  0
 16 13  1  0  0  0  0
 18 14  1  0  0  0  0
 18  8  1  0  0  0  0
 19 17  1  0  0  0  0
 19 18  1  0  0  0  0
 20 12  2  0  0  0  0
 21 22  1  0  0  0  0
 21  3  1  0  0  0  0
 23 10  1  0  0  0  0
 23 12  1  0  0  0  0
 24 25  1  0  0  0  0
 24  6  1  0  0  0  0
 24 27  1  0  0  0  0
 25 27  1  0  0  0  0
 26 25  1  0  0  0  0
 28 30  1  0  0  0  0
 29 30  1  0  0  0  0
 30 23  1  0  0  0  0
M  END
>  <MODEL>
1

>  <REMARK>
 VINA RESULT:      -7.9      0.000      0.000
  Name = 
  2 active torsions:
  status: ('A' for Active; 'I' for Inactive)
    1  A    between atoms: C_6  and  C_8
    2  A    between atoms: C_27  and  C_30
                            x       y       z     vdW  Elec       q    Type
                         _______ _______ _______ _____ _____    ______ ____

>  <TORSDO>
F 2

$$$$
=
 OpenBabel11052417233D

 30 35  0  0  1  0  0  0  0  0999 V2000
  190.8250  177.3920  144.1590 C   0  0  1  0  0  3  0  0  0  0  0  0
  193.8090  177.2120  145.5710 C   0  0  1  0  0  3  0  0  0  0  0  0
  191.3390  175.2540  148.0100 O   0  0  0  0  0  1  0  0  0  0  0  0
  189.9050  176.6180  143.2130 C   0  0  2  0  0  3  0  0  0  0  0  0
  190.6650  176.8930  145.5880 C   0  0  1  0  0  3  0  0  0  0  0  0
  188.0360  176.6090  144.8460 C   0  0  2  0  0  3  0  0  0  0  0  0
  189.2370  174.3530  142.2570 C   0  0  0  0  0  2  0  0  0  0  0  0
  190.5420  173.1750  144.6610 O   0  0  0  0  0  1  0  0  0  0  0  0
  189.0330  177.4290  146.1800 S   0  0  0  0  0  0  0  0  0  0  0  0
  188.4880  176.9770  143.4780 N   0  0  2  0  0  0  0  0  0  0  0  0
  195.0180  176.4280  146.0380 C   0  0  0  0  0  2  0  0  0  0  0  0
  187.8400  174.8790  142.3120 C   0  0  0  0  0  0  0  0  0  0  0  0
  193.3030  176.6490  144.2470 C   0  0  0  0  0  2  0  0  0  0  0  0
  190.8090  175.3650  145.6610 C   0  0  2  0  0  3  0  0  0  0  0  0
  193.7020  176.2520  146.7630 C   0  0  2  0  0  3  0  0  0  0  0  0
  192.2620  177.5900  143.6470 C   0  0  0  0  0  2  0  0  0  0  0  0
  191.4820  174.8630  142.7330 O   0  0  0  0  0  1  0  0  0  0  0  0
  190.0740  174.4930  144.6320 C   0  0  1  0  0  3  0  0  0  0  0  0
  190.1880  175.0820  143.2120 C   0  0  1  0  0  0  0  0  0  0  0  0
  186.8660  174.1190  141.9750 N   0  0  0  0  0  2  0  0  0  0  0  0
  191.6570  174.7270  146.7560 C   0  0  1  0  0  3  0  0  0  0  0  0
  193.1510  174.8560  146.4580 C   0  0  0  0  0  2  0  0  0  0  0  0
  187.6110  176.3610  142.4650 C   0  0  2  0  0  3  0  0  0  0  0  0
  186.4980  176.7580  145.0120 C   0  0  2  0  0  3  0  0  0  0  0  0
  186.1230  178.1220  145.5600 C   0  0  1  0  0  3  0  0  0  0  0  0
  184.7450  178.4880  145.0520 C   0  0  0  0  0  1  0  0  0  0  0  0
  186.0200  176.8920  146.4450 C   0  0  0  0  0  2  0  0  0  0  0  0
  188.3290  178.3240  141.2790 O   0  0  0  0  0  1  0  0  0  0  0  0
  186.1650  177.5080  140.7030 C   0  0  0  0  0  1  0  0  0  0  0  0
  187.5750  177.1580  141.1530 C   0  0  2  0  0  3  0  0  0  0  0  0
  1 16  1  6  0  0  0
  1  5  1  0  0  0  0
  2 13  1  6  0  0  0
  2 11  1  0  0  0  0
  2 15  1  0  0  0  0
  4 10  1  0  0  0  0
  4  1  1  0  0  0  0
  5 14  1  0  0  0  0
  5  9  1  0  0  0  0
  6 24  1  0  0  0  0
  6  9  1  0  0  0  0
  7 12  1  0  0  0  0
  7 19  1  0  0  0  0
 10  6  1  0  0  0  0
 11 15  1  0  0  0  0
 12 23  1  0  0  0  0
 14 21  1  0  0  0  0
 16 13  1  0  0  0  0
 17 19  1  0  0  0  0
 18  8  1  0  0  0  0
 18 14  1  0  0  0  0
 19  4  1  0  0  0  0
 19 18  1  0  0  0  0
 20 12  2  0  0  0  0
 21  3  1  0  0  0  0
 22 21  1  0  0  0  0
 22 15  1  0  0  0  0
 23 10  1  0  0  0  0
 24 25  1  0  0  0  0
 24 27  1  0  0  0  0
 25 27  1  0  0  0  0
 26 25  1  0  0  0  0
 29 30  1  0  0  0  0
 30 28  1  0  0  0  0
 30 23  1  0  0  0  0
M  END
>  <MODEL>
2

>  <REMARK>
 VINA RESULT:      -7.8      1.723      2.292
  Name = 
  2 active torsions:
  status: ('A' for Active; 'I' for Inactive)
    1  A    between atoms: C_6  and  C_8
    2  A    between atoms: C_27  and  C_30
                            x       y       z     vdW  Elec       q    Type
                         _______ _______ _______ _____ _____    ______ ____

>  <TORSDO>
F 2

$$$$
=
 OpenBabel11052417233D

 30 35  0  0  1  0  0  0  0  0999 V2000
  191.2860  175.3480  145.9920 C   0  0  1  0  0  3  0  0  0  0  0  0
  188.5030  176.9450  146.7890 C   0  0  1  0  0  3  0  0  0  0  0  0
  189.0440  177.5950  142.8940 O   0  0  0  0  0  1  0  0  0  0  0  0
  191.7750  174.0020  145.4550 C   0  0  2  0  0  3  0  0  0  0  0  0
  190.9020  176.2720  144.8450 C   0  0  1  0  0  3  0  0  0  0  0  0
  193.0270  175.0640  143.5940 C   0  0  2  0  0  3  0  0  0  0  0  0
  191.2440  171.9290  144.0720 C   0  0  0  0  0  2  0  0  0  0  0  0
  189.1240  173.5760  142.7810 O   0  0  0  0  0  1  0  0  0  0  0  0
  192.4330  176.7740  144.0050 S   0  0  0  0  0  0  0  0  0  0  0  0
  193.0880  174.1710  144.7820 N   0  0  2  0  0  0  0  0  0  0  0  0
  187.0040  177.1410  146.6940 C   0  0  0  0  0  2  0  0  0  0  0  0
  192.6680  172.0110  143.6270 C   0  0  0  0  0  0  0  0  0  0  0  0
  188.8330  175.4560  146.8120 C   0  0  0  0  0  2  0  0  0  0  0  0
  189.9350  175.5800  143.8730 C   0  0  2  0  0  3  0  0  0  0  0  0
  187.8640  177.4440  145.4860 C   0  0  2  0  0  3  0  0  0  0  0  0
  190.3020  175.2550  147.1710 C   0  0  0  0  0  2  0  0  0  0  0  0
  189.6030  172.9640  145.3980 O   0  0  0  0  0  1  0  0  0  0  0  0
  190.2340  174.1440  143.4150 C   0  0  1  0  0  3  0  0  0  0  0  0
  190.7030  173.2640  144.5910 C   0  0  1  0  0  0  0  0  0  0  0  0
  193.1060  171.1760  142.7610 N   0  0  0  0  0  2  0  0  0  0  0  0
  188.7060  176.3210  143.3570 C   0  0  1  0  0  3  0  0  0  0  0  0
  187.6030  176.3830  144.4130 C   0  0  0  0  0  2  0  0  0  0  0  0
  193.6410  172.8560  144.4080 C   0  0  2  0  0  3  0  0  0  0  0  0
  194.3410  175.0240  142.7650 C   0  0  2  0  0  3  0  0  0  0  0  0
  195.2980  176.1240  143.1790 C   0  0  1  0  0  3  0  0  0  0  0  0
  196.7160  175.6560  142.9290 C   0  0  0  0  0  1  0  0  0  0  0  0
  194.5590  176.2160  141.8550 C   0  0  0  0  0  2  0  0  0  0  0  0
  195.5980  172.6860  145.7910 O   0  0  0  0  0  1  0  0  0  0  0  0
  194.4340  170.6430  145.4000 C   0  0  0  0  0  1  0  0  0  0  0  0
  194.3280  172.1490  145.5840 C   0  0  2  0  0  3  0  0  0  0  0  0
  1 16  1  1  0  0  0
  2 11  1  1  0  0  0
  2 13  1  0  0  0  0
  3 21  1  0  0  0  0
  4  1  1  0  0  0  0
  5  1  1  0  0  0  0
  6  9  1  0  0  0  0
  6 10  1  0  0  0  0
  7 19  1  0  0  0  0
  8 18  1  0  0  0  0
  9  5  1  0  0  0  0
 10  4  1  0  0  0  0
 12  7  1  0  0  0  0
 12 23  1  0  0  0  0
 13 16  1  0  0  0  0
 14  5  1  0  0  0  0
 15 11  1  0  0  0  0
 15  2  1  0  0  0  0
 18 14  1  0  0  0  0
 18 19  1  0  0  0  0
 19 17  1  0  0  0  0
 19  4  1  0  0  0  0
 20 12  2  0  0  0  0
 21 14  1  0  0  0  0
 21 22  1  0  0  0  0
 22 15  1  0  0  0  0
 23 10  1  0  0  0  0
 23 30  1  0  0  0  0
 24 25  1  0  0  0  0
 24  6  1  0  0  0  0
 26 25  1  0  0  0  0
 27 24  1  0  0  0  0
 27 25  1  0  0  0  0
 29 30  1  0  0  0  0
 30 28  1  0  0  0  0
M  END
>  <MODEL>
3

>  <REMARK>
 VINA RESULT:      -7.3      2.873      5.942
  Name = 
  2 active torsions:
  status: ('A' for Active; 'I' for Inactive)
    1  A    between atoms: C_6  and  C_8
    2  A    between atoms: C_27  and  C_30
                            x       y       z     vdW  Elec       q    Type
                         _______ _______ _______ _____ _____    ______ ____

>  <TORSDO>
F 2

$$$$
=
 OpenBabel11052417233D

 30 35  0  0  1  0  0  0  0  0999 V2000
  192.6240  175.5420  142.3900 C   0  0  1  0  0  3  0  0  0  0  0  0
  195.8070  176.3550  142.0190 C   0  0  1  0  0  3  0  0  0  0  0  0
  194.9630  177.0150  145.8580 O   0  0  0  0  0  1  0  0  0  0  0  0
  191.7340  174.3620  142.7810 C   0  0  2  0  0  3  0  0  0  0  0  0
  193.0870  176.2960  143.6270 C   0  0  1  0  0  3  0  0  0  0  0  0
  190.5780  175.6670  144.5480 C   0  0  2  0  0  3  0  0  0  0  0  0
  191.5200  172.1840  144.0860 C   0  0  0  0  0  2  0  0  0  0  0  0
  193.8150  173.1630  145.7120 O   0  0  0  0  0  1  0  0  0  0  0  0
  191.6470  177.1660  144.3150 S   0  0  0  0  0  0  0  0  0  0  0  0
  190.4360  174.8580  143.3080 N   0  0  2  0  0  0  0  0  0  0  0  0
  197.2800  176.1390  142.2990 C   0  0  0  0  0  2  0  0  0  0  0  0
  190.1230  172.6320  144.3680 C   0  0  0  0  0  0  0  0  0  0  0  0
  195.1030  175.0110  141.8670 C   0  0  0  0  0  2  0  0  0  0  0  0
  193.7060  175.3420  144.6600 C   0  0  2  0  0  3  0  0  0  0  0  0
  196.3820  176.6270  143.4150 C   0  0  2  0  0  3  0  0  0  0  0  0
  193.6910  175.2220  141.3280 C   0  0  0  0  0  2  0  0  0  0  0  0
  193.5310  172.7780  143.0250 O   0  0  0  0  0  1  0  0  0  0  0  0
  192.9840  174.0260  144.9910 C   0  0  1  0  0  3  0  0  0  0  0  0
  192.4550  173.3390  143.7170 C   0  0  1  0  0  0  0  0  0  0  0  0
  189.3740  171.9210  145.1250 N   0  0  0  0  0  2  0  0  0  0  0  0
  195.0100  175.7110  145.3590 C   0  0  1  0  0  3  0  0  0  0  0  0
  196.2170  175.5050  144.4440 C   0  0  0  0  0  2  0  0  0  0  0  0
  189.5140  173.7300  143.5340 C   0  0  2  0  0  3  0  0  0  0  0  0
  189.2050  175.9570  145.2150 C   0  0  2  0  0  3  0  0  0  0  0  0
  188.5410  177.1840  144.6200 C   0  0  1  0  0  3  0  0  0  0  0  0
  187.0390  177.0270  144.7300 C   0  0  0  0  0  1  0  0  0  0  0  0
  189.1420  177.2440  146.0140 C   0  0  0  0  0  2  0  0  0  0  0  0
  189.5830  172.2810  141.6170 O   0  0  0  0  0  1  0  0  0  0  0  0
  188.5510  174.4010  141.2680 C   0  0  0  0  0  1  0  0  0  0  0  0
  188.8210  173.2670  142.2440 C   0  0  2  0  0  3  0  0  0  0  0  0
  1 16  1  1  0  0  0
  1  4  1  0  0  0  0
  1  5  1  0  0  0  0
  2 13  1  1  0  0  0
  2 11  1  0  0  0  0
  2 15  1  0  0  0  0
  4 10  1  0  0  0  0
  4 19  1  0  0  0  0
  5  9  1  0  0  0  0
  5 14  1  0  0  0  0
  6 24  1  0  0  0  0
  7 12  1  0  0  0  0
  9  6  1  0  0  0  0
 10 23  1  0  0  0  0
 10  6  1  0  0  0  0
 11 15  1  0  0  0  0
 12 20  2  0  0  0  0
 14 18  1  0  0  0  0
 14 21  1  0  0  0  0
 15 22  1  0  0  0  0
 16 13  1  0  0  0  0
 17 19  1  0  0  0  0
 18  8  1  0  0  0  0
 19  7  1  0  0  0  0
 19 18  1  0  0  0  0
 21  3  1  0  0  0  0
 22 21  1  0  0  0  0
 23 12  1  0  0  0  0
 24 27  1  0  0  0  0
 25 26  1  0  0  0  0
 25 24  1  0  0  0  0
 25 27  1  0  0  0  0
 28 30  1  0  0  0  0
 29 30  1  0  0  0  0
 30 23  1  0  0  0  0
M  END
>  <MODEL>
4

>  <REMARK>
 VINA RESULT:      -7.3      2.360      3.363
  Name = 
  2 active torsions:
  status: ('A' for Active; 'I' for Inactive)
    1  A    between atoms: C_6  and  C_8
    2  A    between atoms: C_27  and  C_30
                            x       y       z     vdW  Elec       q    Type
                         _______ _______ _______ _____ _____    ______ ____

>  <TORSDO>
F 2

$$$$
=
 OpenBabel11052417233D

 30 35  0  0  1  0  0  0  0  0999 V2000
  192.1190  174.8360  145.5050 C   0  0  1  0  0  3  0  0  0  0  0  0
  195.2190  173.8390  146.0680 C   0  0  1  0  0  3  0  0  0  0  0  0
  194.3660  172.6690  142.3550 O   0  0  0  0  0  1  0  0  0  0  0  0
  191.3320  176.0100  144.9180 C   0  0  2  0  0  3  0  0  0  0  0  0
  192.5320  173.8670  144.4060 C   0  0  1  0  0  3  0  0  0  0  0  0
  190.0930  174.5460  143.3430 C   0  0  2  0  0  3  0  0  0  0  0  0
  191.3120  177.9720  143.2940 C   0  0  0  0  0  2  0  0  0  0  0  0
  193.5370  176.5770  141.8880 O   0  0  0  0  0  1  0  0  0  0  0  0
  191.0330  173.0200  143.8260 S   0  0  0  0  0  0  0  0  0  0  0  0
  190.0050  175.5430  144.4430 N   0  0  2  0  0  0  0  0  0  0  0  0
  196.7090  173.8920  145.7930 C   0  0  0  0  0  2  0  0  0  0  0  0
  189.8870  177.5990  143.0510 C   0  0  0  0  0  0  0  0  0  0  0  0
  194.6270  175.2420  145.9990 C   0  0  0  0  0  2  0  0  0  0  0  0
  193.2380  174.6000  143.2560 C   0  0  2  0  0  3  0  0  0  0  0  0
  195.7860  173.3120  144.7430 C   0  0  2  0  0  3  0  0  0  0  0  0
  193.1960  175.2280  146.5300 C   0  0  0  0  0  2  0  0  0  0  0  0
  193.2560  177.3890  144.4800 O   0  0  0  0  0  1  0  0  0  0  0  0
  192.6300  175.9030  142.7120 C   0  0  1  0  0  3  0  0  0  0  0  0
  192.1450  176.8170  143.8560 C   0  0  1  0  0  0  0  0  0  0  0  0
  189.2060  178.2430  142.1780 N   0  0  0  0  0  2  0  0  0  0  0  0
  194.5150  174.0260  142.6510 C   0  0  1  0  0  3  0  0  0  0  0  0
  195.7240  174.2730  143.5530 C   0  0  0  0  0  2  0  0  0  0  0  0
  189.1810  176.6930  144.0270 C   0  0  2  0  0  3  0  0  0  0  0  0
  188.7080  174.2670  142.6960 C   0  0  2  0  0  3  0  0  0  0  0  0
  188.7410  173.0390  141.8060 C   0  0  1  0  0  3  0  0  0  0  0  0
  187.3650  172.4080  141.7950 C   0  0  0  0  0  1  0  0  0  0  0  0
  188.6630  174.4240  141.1890 C   0  0  0  0  0  2  0  0  0  0  0  0
  188.3640  176.5140  146.2800 O   0  0  0  0  0  1  0  0  0  0  0  0
  187.1670  178.0150  144.8690 C   0  0  0  0  0  1  0  0  0  0  0  0
  188.5140  177.4020  145.2150 C   0  0  2  0  0  3  0  0  0  0  0  0
  1 16  1  6  0  0  0
  2 11  1  1  0  0  0
  3 21  1  0  0  0  0
  4  1  1  0  0  0  0
  5  1  1  0  0  0  0
  6  9  1  0  0  0  0
  6 10  1  0  0  0  0
  7 19  1  0  0  0  0
  8 18  1  0  0  0  0
  9  5  1  0  0  0  0
 10  4  1  0  0  0  0
 12  7  1  0  0  0  0
 12 23  1  0  0  0  0
 13  2  1  0  0  0  0
 13 16  1  0  0  0  0
 14  5  1  0  0  0  0
 15 11  1  0  0  0  0
 15  2  1  0  0  0  0
 18 14  1  0  0  0  0
 18 19  1  0  0  0  0
 19 17  1  0  0  0  0
 19  4  1  0  0  0  0
 20 12  2  0  0  0  0
 21 14  1  0  0  0  0
 21 22  1  0  0  0  0
 22 15  1  0  0  0  0
 23 10  1  0  0  0  0
 23 30  1  0  0  0  0
 24  6  1  0  0  0  0
 25 24  1  0  0  0  0
 26 25  1  0  0  0  0
 27 25  1  0  0  0  0
 27 24  1  0  0  0  0
 29 30  1  0  0  0  0
 30 28  1  0  0  0  0
M  END
>  <MODEL>
5

>  <REMARK>
 VINA RESULT:      -7.3      2.535      4.854
  Name = 
  2 active torsions:
  status: ('A' for Active; 'I' for Inactive)
    1  A    between atoms: C_6  and  C_8
    2  A    between atoms: C_27  and  C_30
                            x       y       z     vdW  Elec       q    Type
                         _______ _______ _______ _____ _____    ______ ____

>  <TORSDO>
F 2

$$$$
=
 OpenBabel11052417233D

 30 35  0  0  1  0  0  0  0  0999 V2000
  192.0630  176.4540  143.1730 C   0  0  1  0  0  3  0  0  0  0  0  0
  189.0170  177.3290  144.1130 C   0  0  1  0  0  3  0  0  0  0  0  0
  189.3060  173.4290  144.8820 O   0  0  0  0  0  1  0  0  0  0  0  0
  193.4790  176.2890  143.7260 C   0  0  2  0  0  3  0  0  0  0  0  0
  191.2430  175.1960  143.4200 C   0  0  1  0  0  3  0  0  0  0  0  0
  193.6370  173.9380  142.9470 C   0  0  2  0  0  3  0  0  0  0  0  0
  194.9410  175.8370  145.7620 C   0  0  0  0  0  2  0  0  0  0  0  0
  192.5120  174.6300  146.9920 O   0  0  0  0  0  1  0  0  0  0  0  0
  191.8880  173.8940  142.3290 S   0  0  0  0  0  0  0  0  0  0  0  0
  194.2300  175.3010  142.9090 N   0  0  2  0  0  0  0  0  0  0  0  0
  187.9580  177.5400  145.1760 C   0  0  0  0  0  2  0  0  0  0  0  0
  195.8010  175.0600  144.8200 C   0  0  0  0  0  0  0  0  0  0  0  0
  190.3800  177.7600  144.6430 C   0  0  0  0  0  2  0  0  0  0  0  0
  191.3090  174.7700  144.8940 C   0  0  2  0  0  3  0  0  0  0  0  0
  188.3920  176.1300  144.8390 C   0  0  2  0  0  3  0  0  0  0  0  0
  191.3920  177.7990  143.5020 C   0  0  0  0  0  2  0  0  0  0  0  0
  192.9690  177.1040  145.9330 O   0  0  0  0  0  1  0  0  0  0  0  0
  192.6710  174.7520  145.6080 C   0  0  1  0  0  3  0  0  0  0  0  0
  193.5040  176.0020  145.2610 C   0  0  1  0  0  0  0  0  0  0  0  0
  196.8260  174.4370  145.2700 N   0  0  0  0  0  2  0  0  0  0  0  0
  190.0400  174.3530  145.6290 C   0  0  1  0  0  3  0  0  0  0  0  0
  189.1900  175.5630  146.0160 C   0  0  0  0  0  2  0  0  0  0  0  0
  195.6410  175.2580  143.3350 C   0  0  2  0  0  3  0  0  0  0  0  0
  194.5710  172.8770  142.3020 C   0  0  2  0  0  3  0  0  0  0  0  0
  193.8300  171.5910  141.9910 C   0  0  1  0  0  3  0  0  0  0  0  0
  194.4870  170.9250  140.8020 C   0  0  0  0  0  1  0  0  0  0  0  0
  194.8150  171.6410  143.1460 C   0  0  0  0  0  2  0  0  0  0  0  0
  195.9350  176.7910  141.5070 O   0  0  0  0  0  1  0  0  0  0  0  0
  197.9410  176.0420  142.5530 C   0  0  0  0  0  1  0  0  0  0  0  0
  196.4740  176.3990  142.7320 C   0  0  2  0  0  3  0  0  0  0  0  0
  1  5  1  0  0  0  0
  1 16  1  1  0  0  0
  1  4  1  0  0  0  0
  2 13  1  1  0  0  0
  2 15  1  0  0  0  0
  2 11  1  0  0  0  0
  3 21  1  0  0  0  0
  4 19  1  0  0  0  0
  5 14  1  0  0  0  0
  9  6  1  0  0  0  0
  9  5  1  0  0  0  0
 10  6  1  0  0  0  0
 10 23  1  0  0  0  0
 10  4  1  0  0  0  0
 12 20  2  0  0  0  0
 12  7  1  0  0  0  0
 14 18  1  0  0  0  0
 14 21  1  0  0  0  0
 15 11  1  0  0  0  0
 15 22  1  0  0  0  0
 16 13  1  0  0  0  0
 18  8  1  0  0  0  0
 19 18  1  0  0  0  0
 19  7  1  0  0  0  0
 19 17  1  0  0  0  0
 21 22  1  0  0  0  0
 23 12  1  0  0  0  0
 24  6  1  0  0  0  0
 24 27  1  0  0  0  0
 25 24  1  0  0  0  0
 25 27  1  0  0  0  0
 26 25  1  0  0  0  0
 28 30  1  0  0  0  0
 29 30  1  0  0  0  0
 30 23  1  0  0  0  0
M  END
>  <MODEL>
6

>  <REMARK>
 VINA RESULT:      -7.2      3.361      6.511
  Name = 
  2 active torsions:
  status: ('A' for Active; 'I' for Inactive)
    1  A    between atoms: C_6  and  C_8
    2  A    between atoms: C_27  and  C_30
                            x       y       z     vdW  Elec       q    Type
                         _______ _______ _______ _____ _____    ______ ____

>  <TORSDO>
F 2

$$$$
=
 OpenBabel11052417233D

 30 35  0  0  1  0  0  0  0  0999 V2000
  190.3770  175.6700  143.2480 C   0  0  1  0  0  3  0  0  0  0  0  0
  187.6040  176.9290  144.5340 C   0  0  1  0  0  3  0  0  0  0  0  0
  188.9410  174.2990  147.2140 O   0  0  0  0  0  1  0  0  0  0  0  0
  191.8920  175.8790  143.2480 C   0  0  2  0  0  3  0  0  0  0  0  0
  189.9550  174.8190  144.4370 C   0  0  1  0  0  3  0  0  0  0  0  0
  192.3340  173.5380  143.9480 C   0  0  2  0  0  3  0  0  0  0  0  0
  193.9300  176.7610  144.4970 C   0  0  0  0  0  2  0  0  0  0  0  0
  192.2700  176.5430  146.9600 O   0  0  0  0  0  1  0  0  0  0  0  0
  190.5350  173.1230  144.1360 S   0  0  0  0  0  0  0  0  0  0  0  0
  192.5800  174.6000  142.9350 N   0  0  2  0  0  0  0  0  0  0  0  0
  186.8670  177.7400  145.5810 C   0  0  0  0  0  2  0  0  0  0  0  0
  194.6390  175.5730  143.9320 C   0  0  0  0  0  0  0  0  0  0  0  0
  188.9330  177.5960  144.1990 C   0  0  0  0  0  2  0  0  0  0  0  0
  190.5250  175.3770  145.7500 C   0  0  2  0  0  3  0  0  0  0  0  0
  187.4860  176.4160  145.9760 C   0  0  2  0  0  3  0  0  0  0  0  0
  189.5500  176.9370  142.9690 C   0  0  0  0  0  2  0  0  0  0  0  0
  191.8590  177.8660  144.6070 O   0  0  0  0  0  1  0  0  0  0  0  0
  192.0010  175.8000  145.8060 C   0  0  1  0  0  3  0  0  0  0  0  0
  192.4100  176.5840  144.5430 C   0  0  1  0  0  0  0  0  0  0  0  0
  195.8590  175.3540  144.2540 N   0  0  0  0  0  2  0  0  0  0  0  0
  189.6370  175.4890  146.9840 C   0  0  1  0  0  3  0  0  0  0  0  0
  188.6870  176.6830  146.8880 C   0  0  0  0  0  2  0  0  0  0  0  0
  194.0280  174.8280  142.7730 C   0  0  2  0  0  3  0  0  0  0  0  0
  193.2570  172.3060  143.7370 C   0  0  2  0  0  3  0  0  0  0  0  0
  192.6230  171.0340  144.2650 C   0  0  1  0  0  3  0  0  0  0  0  0
  193.1370  169.8620  143.4570 C   0  0  0  0  0  1  0  0  0  0  0  0
  193.7800  171.6740  145.0120 C   0  0  0  0  0  2  0  0  0  0  0  0
  193.4670  174.9160  140.4380 O   0  0  0  0  0  1  0  0  0  0  0  0
  195.7960  175.0020  140.9400 C   0  0  0  0  0  1  0  0  0  0  0  0
  194.3880  175.3700  141.3820 C   0  0  2  0  0  3  0  0  0  0  0  0
  1 16  1  1  0  0  0
  1  5  1  0  0  0  0
  2 13  1  1  0  0  0
  2 11  1  0  0  0  0
  2 15  1  0  0  0  0
  4  1  1  0  0  0  0
  4 19  1  0  0  0  0
  5 14  1  0  0  0  0
  6  9  1  0  0  0  0
  7 19  1  0  0  0  0
  9  5  1  0  0  0  0
 10  4  1  0  0  0  0
 10  6  1  0  0  0  0
 11 15  1  0  0  0  0
 12 20  2  0  0  0  0
 12  7  1  0  0  0  0
 14 18  1  0  0  0  0
 14 21  1  0  0  0  0
 15 22  1  0  0  0  0
 16 13  1  0  0  0  0
 18  8  1  0  0  0  0
 19 17  1  0  0  0  0
 19 18  1  0  0  0  0
 21  3  1  0  0  0  0
 22 21  1  0  0  0  0
 23 10  1  0  0  0  0
 23 12  1  0  0  0  0
 24  6  1  0  0  0  0
 24 25  1  0  0  0  0
 24 27  1  0  0  0  0
 25 27  1  0  0  0  0
 26 25  1  0  0  0  0
 28 30  1  0  0  0  0
 29 30  1  0  0  0  0
 30 23  1  0  0  0  0
M  END
>  <MODEL>
7

>  <REMARK>
 VINA RESULT:      -7.2      2.919      5.901
  Name = 
  2 active torsions:
  status: ('A' for Active; 'I' for Inactive)
    1  A    between atoms: C_6  and  C_8
    2  A    between atoms: C_27  and  C_30
                            x       y       z     vdW  Elec       q    Type
                         _______ _______ _______ _____ _____    ______ ____

>  <TORSDO>
F 2

$$$$
=
 OpenBabel11052417233D

 30 35  0  0  1  0  0  0  0  0999 V2000
  189.4180  173.6050  143.4970 C   0  0  1  0  0  3  0  0  0  0  0  0
  190.4410  170.6640  142.3880 C   0  0  1  0  0  3  0  0  0  0  0  0
  190.5090  173.0930  139.2290 O   0  0  0  0  0  1  0  0  0  0  0  0
  189.9590  174.9220  144.0540 C   0  0  2  0  0  3  0  0  0  0  0  0
  189.4210  173.6260  141.9750 C   0  0  1  0  0  3  0  0  0  0  0  0
  188.7780  176.2710  142.3370 C   0  0  2  0  0  3  0  0  0  0  0  0
  191.9100  176.5570  144.1650 C   0  0  0  0  0  2  0  0  0  0  0  0
  192.8590  175.2890  141.6420 O   0  0  0  0  0  1  0  0  0  0  0  0
  188.1290  174.7830  141.4360 S   0  0  0  0  0  0  0  0  0  0  0  0
  188.9940  176.0200  143.7870 N   0  0  2  0  0  0  0  0  0  0  0  0
  191.5050  169.7530  141.8090 C   0  0  0  0  0  2  0  0  0  0  0  0
  190.8600  177.6210  144.1510 C   0  0  0  0  0  0  0  0  0  0  0  0
  191.0650  171.6100  143.4070 C   0  0  0  0  0  2  0  0  0  0  0  0
  190.7980  174.0350  141.4290 C   0  0  2  0  0  3  0  0  0  0  0  0
  190.9300  170.8550  140.9460 C   0  0  2  0  0  3  0  0  0  0  0  0
  189.9690  172.3400  144.1780 C   0  0  0  0  0  2  0  0  0  0  0  0
  192.2660  174.2350  144.0900 O   0  0  0  0  0  1  0  0  0  0  0  0
  191.5220  175.2400  142.0500 C   0  0  1  0  0  3  0  0  0  0  0  0
  191.4190  175.2260  143.5880 C   0  0  1  0  0  0  0  0  0  0  0  0
  191.2110  178.8520  144.1340 N   0  0  0  0  0  2  0  0  0  0  0  0
  191.4230  173.2640  140.2710 C   0  0  1  0  0  3  0  0  0  0  0  0
  192.0020  171.9280  140.7330 C   0  0  0  0  0  2  0  0  0  0  0  0
  189.4320  177.2560  144.4620 C   0  0  2  0  0  3  0  0  0  0  0  0
  187.9710  177.5750  142.0850 C   0  0  2  0  0  3  0  0  0  0  0  0
  186.4830  177.3620  142.2860 C   0  0  1  0  0  3  0  0  0  0  0  0
  185.8610  178.6660  142.7360 C   0  0  0  0  0  1  0  0  0  0  0  0
  187.0450  177.5310  140.8850 C   0  0  0  0  0  2  0  0  0  0  0  0
  190.1240  176.8170  146.7210 O   0  0  0  0  0  1  0  0  0  0  0  0
  187.8090  176.4710  146.2680 C   0  0  0  0  0  1  0  0  0  0  0  0
  189.0570  177.2800  145.9510 C   0  0  2  0  0  3  0  0  0  0  0  0
  1  4  1  0  0  0  0
  1 16  1  6  0  0  0
  2 11  1  1  0  0  0
  2 13  1  0  0  0  0
  3 21  1  0  0  0  0
  5  1  1  0  0  0  0
  6 10  1  0  0  0  0
  8 18  1  0  0  0  0
  9  5  1  0  0  0  0
  9  6  1  0  0  0  0
 10  4  1  0  0  0  0
 10 23  1  0  0  0  0
 12  7  1  0  0  0  0
 12 23  1  0  0  0  0
 13 16  1  0  0  0  0
 14  5  1  0  0  0  0
 14 18  1  0  0  0  0
 15 11  1  0  0  0  0
 15  2  1  0  0  0  0
 18 19  1  0  0  0  0
 19  4  1  0  0  0  0
 19 17  1  0  0  0  0
 19  7  1  0  0  0  0
 20 12  2  0  0  0  0
 21 22  1  0  0  0  0
 21 14  1  0  0  0  0
 22 15  1  0  0  0  0
 23 30  1  0  0  0  0
 24 25  1  0  0  0  0
 24  6  1  0  0  0  0
 25 26  1  0  0  0  0
 27 24  1  0  0  0  0
 27 25  1  0  0  0  0
 30 29  1  0  0  0  0
 30 28  1  0  0  0  0
M  END
>  <MODEL>
8

>  <REMARK>
 VINA RESULT:      -7.1      2.251      5.317
  Name = 
  2 active torsions:
  status: ('A' for Active; 'I' for Inactive)
    1  A    between atoms: C_6  and  C_8
    2  A    between atoms: C_27  and  C_30
                            x       y       z     vdW  Elec       q    Type
                         _______ _______ _______ _____ _____    ______ ____

>  <TORSDO>
F 2

$$$$
=
 OpenBabel11052417233D

 30 35  0  0  1  0  0  0  0  0999 V2000
  192.4440  173.9300  143.3440 C   0  0  1  0  0  3  0  0  0  0  0  0
  189.5070  174.9340  144.4820 C   0  0  1  0  0  3  0  0  0  0  0  0
  191.9410  174.9160  147.6380 O   0  0  0  0  0  1  0  0  0  0  0  0
  193.7620  174.4810  142.7980 C   0  0  2  0  0  3  0  0  0  0  0  0
  192.4670  173.8960  144.8650 C   0  0  1  0  0  3  0  0  0  0  0  0
  195.1100  173.2540  144.4830 C   0  0  2  0  0  3  0  0  0  0  0  0
  195.4020  176.4300  142.7340 C   0  0  0  0  0  2  0  0  0  0  0  0
  194.1400  177.3200  145.2800 O   0  0  0  0  0  1  0  0  0  0  0  0
  193.6220  172.5870  145.3700 S   0  0  0  0  0  0  0  0  0  0  0  0
  194.8570  173.5070  143.0390 N   0  0  2  0  0  0  0  0  0  0  0  0
  188.6000  175.9850  145.0880 C   0  0  0  0  0  2  0  0  0  0  0  0
  196.4630  175.3780  142.7200 C   0  0  0  0  0  0  0  0  0  0  0  0
  190.4540  175.5800  143.4770 C   0  0  0  0  0  2  0  0  0  0  0  0
  192.8810  175.2570  145.4450 C   0  0  2  0  0  3  0  0  0  0  0  0
  189.7020  175.3860  145.9360 C   0  0  2  0  0  3  0  0  0  0  0  0
  191.1800  174.5010  142.6780 C   0  0  0  0  0  2  0  0  0  0  0  0
  193.0820  176.7910  142.8200 O   0  0  0  0  0  1  0  0  0  0  0  0
  194.0870  175.9930  144.8400 C   0  0  1  0  0  3  0  0  0  0  0  0
  194.0710  175.9280  143.3000 C   0  0  1  0  0  0  0  0  0  0  0  0
  197.6950  175.7240  142.7440 N   0  0  0  0  0  2  0  0  0  0  0  0
  192.1140  175.8550  146.6180 C   0  0  1  0  0  3  0  0  0  0  0  0
  190.7780  176.4500  146.1730 C   0  0  0  0  0  2  0  0  0  0  0  0
  196.0940  173.9580  142.3740 C   0  0  2  0  0  3  0  0  0  0  0  0
  196.4120  172.4380  144.7140 C   0  0  2  0  0  3  0  0  0  0  0  0
  196.3190  171.5720  145.9550 C   0  0  1  0  0  3  0  0  0  0  0  0
  197.1910  170.3500  145.7630 C   0  0  0  0  0  1  0  0  0  0  0  0
  197.1910  172.8150  145.9580 C   0  0  0  0  0  2  0  0  0  0  0  0
  195.4220  172.4320  140.6430 O   0  0  0  0  0  1  0  0  0  0  0  0
  197.5200  173.5130  140.3040 C   0  0  0  0  0  1  0  0  0  0  0  0
  196.1140  173.6200  140.8760 C   0  0  2  0  0  3  0  0  0  0  0  0
  1 16  1  1  0  0  0
  1  5  1  0  0  0  0
  2 13  1  6  0  0  0
  2 11  1  0  0  0  0
  2 15  1  0  0  0  0
  4 10  1  0  0  0  0
  4 19  1  0  0  0  0
  4  1  1  0  0  0  0
  5  9  1  0  0  0  0
  5 14  1  0  0  0  0
  6 24  1  0  0  0  0
  6  9  1  0  0  0  0
  7 19  1  0  0  0  0
 10  6  1  0  0  0  0
 11 15  1  0  0  0  0
 12  7  1  0  0  0  0
 12 20  2  0  0  0  0
 14 21  1  0  0  0  0
 15 22  1  0  0  0  0
 16 13  1  0  0  0  0
 17 19  1  0  0  0  0
 18  8  1  0  0  0  0
 18 14  1  0  0  0  0
 19 18  1  0  0  0  0
 21  3  1  0  0  0  0
 22 21  1  0  0  0  0
 23 12  1  0  0  0  0
 23 10  1  0  0  0  0
 24 25  1  0  0  0  0
 24 27  1  0  0  0  0
 25 27  1  0  0  0  0
 26 25  1  0  0  0  0
 28 30  1  0  0  0  0
 29 30  1  0  0  0  0
 30 23  1  0  0  0  0
M  END
>  <MODEL>
9

>  <REMARK>
 VINA RESULT:      -6.7      3.838      7.093
  Name = 
  2 active torsions:
  status: ('A' for Active; 'I' for Inactive)
    1  A    between atoms: C_6  and  C_8
    2  A    between atoms: C_27  and  C_30
                            x       y       z     vdW  Elec       q    Type
                         _______ _______ _______ _____ _____    ______ ____

>  <TORSDO>
F 2

$$$$
