=
 OpenBabel11052419123D

 32 37  0  0  1  0  0  0  0  0999 V2000
  190.8960  176.1950  144.6560 C   0  0  0  0  0  0  0  0  0  0  0  0
  188.9690  177.8170  144.6860 C   0  0  2  0  0  3  0  0  0  0  0  0
  191.9050  175.5040  145.3470 C   0  0  0  0  0  3  0  0  0  0  0  0
  189.9930  176.9770  145.3790 C   0  0  0  0  0  0  0  0  0  0  0  0
  187.6070  177.5210  145.3230 C   0  0  2  0  0  3  0  0  0  0  0  0
  186.1680  178.0140  140.5030 C   0  0  0  0  0  2  0  0  0  0  0  0
  188.9860  177.6090  143.1560 C   0  0  1  0  0  3  0  0  0  0  0  0
  185.1600  178.2160  142.7860 C   0  0  0  0  0  2  0  0  0  0  0  0
  186.4510  177.7060  143.4170 C   0  0  2  0  0  3  0  0  0  0  0  0
  186.5850  178.2420  147.5840 N   0  0  0  0  0  2  0  0  0  0  0  0
  189.9500  176.9210  146.7750 C   0  0  0  0  0  0  0  0  0  0  0  0
  186.6170  178.2870  144.6880 O   0  0  0  0  0  0  0  0  0  0  0  0
  188.8030  177.4600  147.4590 N   0  0  0  0  0  0  0  0  0  0  0  0
  190.9430  176.2200  147.4660 C   0  0  0  0  0  3  0  0  0  0  0  0
  189.3400  176.2830  142.8260 O   0  0  0  0  0  0  0  0  0  0  0  0
  185.3670  178.4440  147.0290 O   0  0  0  0  0  1  0  0  0  0  0  0
  190.7090  176.1350  143.1510 C   0  0  2  0  0  3  0  0  0  0  0  0
  187.6570  178.0550  142.5190 C   0  0  2  0  0  3  0  0  0  0  0  0
  187.7070  177.7850  146.8230 C   0  0  0  0  0  0  0  0  0  0  0  0
  191.9360  175.5350  146.7500 C   0  0  0  0  0  3  0  0  0  0  0  0
  184.9870  177.6270  141.3890 C   0  0  0  0  0  2  0  0  0  0  0  0
  187.4730  177.5000  141.1050 C   0  0  0  0  0  2  0  0  0  0  0  0
  193.0260  173.6460  141.4420 C   0  0  0  0  0  0  0  0  0  0  0  0
  194.2990  173.6050  140.8870 O   0  0  0  0  0  1  0  0  0  0  0  0
  191.2420  174.8680  142.5460 C   0  0  0  0  0  0  0  0  0  0  0  0
  192.2400  172.4910  141.4510 C   0  0  0  0  0  3  0  0  0  0  0  0
  190.4630  173.7010  142.5550 C   0  0  0  0  0  3  0  0  0  0  0  0
  192.5310  174.8360  141.9900 C   0  0  0  0  0  0  0  0  0  0  0  0
  193.3210  175.9820  141.9810 O   0  0  0  0  0  1  0  0  0  0  0  0
  190.9530  172.5120  142.0090 C   0  0  0  0  0  0  0  0  0  0  0  0
  190.6480  170.0690  141.7740 C   0  0  0  0  0  1  0  0  0  0  0  0
  190.1450  171.3730  142.0350 O   0  0  0  0  0  0  0  0  0  0  0  0
  1  3  2  0  0  0  0
  1  4  1  0  0  0  0
  2  5  1  0  0  0  0
  2  4  1  1  0  0  0
  3 20  1  0  0  0  0
  4 11  2  0  0  0  0
  5 12  1  6  0  0  0
  5 19  1  0  0  0  0
  6 22  1  0  0  0  0
  6 21  1  0  0  0  0
  7 15  1  1  0  0  0
  7  2  1  0  0  0  0
  9  8  1  6  0  0  0
  9 12  1  0  0  0  0
 11 13  1  0  0  0  0
 11 14  1  0  0  0  0
 15 17  1  0  0  0  0
 16 10  1  0  0  0  0
 17 25  1  1  0  0  0
 17  1  1  0  0  0  0
 18 22  1  6  0  0  0
 18  7  1  0  0  0  0
 18  9  1  0  0  0  0
 19 13  2  0  0  0  0
 19 10  1  0  0  0  0
 20 14  2  0  0  0  0
 21  8  1  0  0  0  0
 23 26  2  0  0  0  0
 23 28  1  0  0  0  0
 24 23  1  0  0  0  0
 25 27  1  0  0  0  0
 26 30  1  0  0  0  0
 28 25  2  0  0  0  0
 29 28  1  0  0  0  0
 30 32  1  0  0  0  0
 30 27  2  0  0  0  0
 31 32  1  0  0  0  0
M  END
>  <MODEL>
1

>  <REMARK>
 VINA RESULT:      -8.1      0.000      0.000
  Name = 
  2 active torsions:
  status: ('A' for Active; 'I' for Inactive)
    1  A    between atoms: O_15  and  C_26
    2  A    between atoms: C_16  and  C_27
                            x       y       z     vdW  Elec       q    Type
                         _______ _______ _______ _____ _____    ______ ____

>  <TORSDO>
F 2

$$$$
=
 OpenBabel11052419123D

 32 37  0  0  1  0  0  0  0  0999 V2000
  189.1720  174.8520  142.6020 C   0  0  0  0  0  0  0  0  0  0  0  0
  191.5880  174.1680  142.7960 C   0  0  2  0  0  3  0  0  0  0  0  0
  187.8580  174.5500  142.2090 C   0  0  0  0  0  3  0  0  0  0  0  0
  190.1560  173.8670  142.4940 C   0  0  0  0  0  0  0  0  0  0  0  0
  192.1030  173.0940  143.7620 C   0  0  2  0  0  3  0  0  0  0  0  0
  194.5080  177.1160  145.6520 C   0  0  0  0  0  2  0  0  0  0  0  0
  191.7820  175.6070  143.3230 C   0  0  1  0  0  3  0  0  0  0  0  0
  194.7750  174.6280  145.6090 C   0  0  0  0  0  2  0  0  0  0  0  0
  193.4250  174.4800  144.9160 C   0  0  2  0  0  3  0  0  0  0  0  0
  192.7600  170.6250  143.3780 N   0  0  0  0  0  2  0  0  0  0  0  0
  189.8180  172.5430  142.2000 C   0  0  0  0  0  0  0  0  0  0  0  0
  193.4460  173.3520  144.0760 O   0  0  0  0  0  0  0  0  0  0  0  0
  190.7900  171.5070  142.4350 N   0  0  0  0  0  0  0  0  0  0  0  0
  188.5070  172.2350  141.8250 C   0  0  0  0  0  3  0  0  0  0  0  0
  190.6640  176.0280  144.0760 O   0  0  0  0  0  0  0  0  0  0  0  0
  193.8210  170.7230  144.2120 O   0  0  0  0  0  1  0  0  0  0  0  0
  189.5990  176.1980  143.1600 C   0  0  2  0  0  3  0  0  0  0  0  0
  193.1110  175.7450  144.0880 C   0  0  2  0  0  3  0  0  0  0  0  0
  191.8820  171.7250  143.1240 C   0  0  0  0  0  0  0  0  0  0  0  0
  187.5340  173.2460  141.8030 C   0  0  0  0  0  3  0  0  0  0  0  0
  194.7820  175.8720  146.4920 C   0  0  0  0  0  2  0  0  0  0  0  0
  193.1540  177.0010  144.9600 C   0  0  0  0  0  2  0  0  0  0  0  0
  186.6440  178.5330  143.7110 C   0  0  0  0  0  0  0  0  0  0  0  0
  185.8770  179.4440  142.9940 O   0  0  0  0  0  1  0  0  0  0  0  0
  188.4730  176.9400  143.8220 C   0  0  0  0  0  0  0  0  0  0  0  0
  186.3530  178.2930  145.0550 C   0  0  0  0  0  3  0  0  0  0  0  0
  188.1690  176.7020  145.1710 C   0  0  0  0  0  3  0  0  0  0  0  0
  187.7020  177.8570  143.0890 C   0  0  0  0  0  0  0  0  0  0  0  0
  187.9840  178.0990  141.7480 O   0  0  0  0  0  1  0  0  0  0  0  0
  187.1150  177.3740  145.7940 C   0  0  0  0  0  0  0  0  0  0  0  0
  185.9760  177.9200  147.9200 C   0  0  0  0  0  1  0  0  0  0  0  0
  186.8460  177.1120  147.1390 O   0  0  0  0  0  0  0  0  0  0  0  0
  1 17  1  0  0  0  0
  2  4  1  1  0  0  0
  2  7  1  0  0  0  0
  2  5  1  0  0  0  0
  3  1  2  0  0  0  0
  4  1  1  0  0  0  0
  5 19  1  6  0  0  0
  5 12  1  0  0  0  0
  6 21  1  0  0  0  0
  7 15  1  1  0  0  0
  7 18  1  0  0  0  0
  8 21  1  0  0  0  0
  9  8  1  6  0  0  0
 10 16  1  0  0  0  0
 11 13  1  0  0  0  0
 11  4  2  0  0  0  0
 12  9  1  0  0  0  0
 13 19  2  0  0  0  0
 14 11  1  0  0  0  0
 17 25  1  1  0  0  0
 17 15  1  0  0  0  0
 18  9  1  0  0  0  0
 18 22  1  1  0  0  0
 19 10  1  0  0  0  0
 20 14  2  0  0  0  0
 20  3  1  0  0  0  0
 22  6  1  0  0  0  0
 23 26  1  0  0  0  0
 24 23  1  0  0  0  0
 25 27  2  0  0  0  0
 26 30  2  0  0  0  0
 27 30  1  0  0  0  0
 28 23  2  0  0  0  0
 28 25  1  0  0  0  0
 29 28  1  0  0  0  0
 30 32  1  0  0  0  0
 32 31  1  0  0  0  0
M  END
>  <MODEL>
2

>  <REMARK>
 VINA RESULT:      -7.9      3.018      7.548
  Name = 
  2 active torsions:
  status: ('A' for Active; 'I' for Inactive)
    1  A    between atoms: O_15  and  C_26
    2  A    between atoms: C_16  and  C_27
                            x       y       z     vdW  Elec       q    Type
                         _______ _______ _______ _____ _____    ______ ____

>  <TORSDO>
F 2

$$$$
=
 OpenBabel11052419123D

 32 37  0  0  1  0  0  0  0  0999 V2000
  188.9870  175.3760  143.8160 C   0  0  0  0  0  0  0  0  0  0  0  0
  187.3880  177.2760  144.2420 C   0  0  2  0  0  3  0  0  0  0  0  0
  189.9080  174.4390  144.3100 C   0  0  0  0  0  3  0  0  0  0  0  0
  188.2990  176.1900  144.7190 C   0  0  0  0  0  0  0  0  0  0  0  0
  186.0510  177.1250  144.9750 C   0  0  2  0  0  3  0  0  0  0  0  0
  184.3420  178.5120  140.4260 C   0  0  0  0  0  2  0  0  0  0  0  0
  187.2460  177.2820  142.7050 C   0  0  1  0  0  3  0  0  0  0  0  0
  183.5720  178.5620  142.8070 C   0  0  0  0  0  2  0  0  0  0  0  0
  184.7980  177.7610  143.2350 C   0  0  2  0  0  3  0  0  0  0  0  0
  185.3590  177.6860  147.4000 N   0  0  0  0  0  2  0  0  0  0  0  0
  188.3580  175.9490  146.0940 C   0  0  0  0  0  0  0  0  0  0  0  0
  185.1660  178.1250  144.5440 O   0  0  0  0  0  0  0  0  0  0  0  0
  187.3850  176.5710  146.9530 N   0  0  0  0  0  0  0  0  0  0  0  0
  189.2620  175.0040  146.5880 C   0  0  0  0  0  3  0  0  0  0  0  0
  187.3300  175.9740  142.1800 O   0  0  0  0  0  0  0  0  0  0  0  0
  184.1560  178.1630  147.0030 O   0  0  0  0  0  1  0  0  0  0  0  0
  188.6730  175.5570  142.3430 C   0  0  2  0  0  3  0  0  0  0  0  0
  185.9700  178.0260  142.2670 C   0  0  2  0  0  3  0  0  0  0  0  0
  186.3160  177.1590  146.4780 C   0  0  0  0  0  0  0  0  0  0  0  0
  190.0570  174.2690  145.6950 C   0  0  0  0  0  3  0  0  0  0  0  0
  183.1860  178.2090  141.3740 C   0  0  0  0  0  2  0  0  0  0  0  0
  185.5780  177.7110  140.8230 C   0  0  0  0  0  2  0  0  0  0  0  0
  188.7730  173.0970  139.4400 C   0  0  0  0  0  0  0  0  0  0  0  0
  188.3810  173.0270  138.1080 O   0  0  0  0  0  1  0  0  0  0  0  0
  188.9210  174.3150  141.5350 C   0  0  0  0  0  0  0  0  0  0  0  0
  189.4190  172.0080  140.0280 C   0  0  0  0  0  3  0  0  0  0  0  0
  189.5740  173.2170  142.1150 C   0  0  0  0  0  3  0  0  0  0  0  0
  188.5230  174.2540  140.1890 C   0  0  0  0  0  0  0  0  0  0  0  0
  187.8820  175.3380  139.5970 O   0  0  0  0  0  1  0  0  0  0  0  0
  189.8240  172.0620  141.3700 C   0  0  0  0  0  0  0  0  0  0  0  0
  191.3360  171.1520  143.1030 C   0  0  0  0  0  1  0  0  0  0  0  0
  190.4750  170.9890  141.9840 O   0  0  0  0  0  0  0  0  0  0  0  0
  1  3  2  0  0  0  0
  1  4  1  0  0  0  0
  2  4  1  6  0  0  0
  2  5  1  0  0  0  0
  3 20  1  0  0  0  0
  4 11  2  0  0  0  0
  5 12  1  6  0  0  0
  5 19  1  0  0  0  0
  6 22  1  0  0  0  0
  6 21  1  0  0  0  0
  7 15  1  1  0  0  0
  7  2  1  0  0  0  0
  9  8  1  6  0  0  0
  9 12  1  0  0  0  0
 11 14  1  0  0  0  0
 11 13  1  0  0  0  0
 15 17  1  0  0  0  0
 16 10  1  0  0  0  0
 17 25  1  6  0  0  0
 17  1  1  0  0  0  0
 18 22  1  6  0  0  0
 18  7  1  0  0  0  0
 18  9  1  0  0  0  0
 19 13  2  0  0  0  0
 19 10  1  0  0  0  0
 20 14  2  0  0  0  0
 21  8  1  0  0  0  0
 23 26  2  0  0  0  0
 23 28  1  0  0  0  0
 24 23  1  0  0  0  0
 25 27  1  0  0  0  0
 26 30  1  0  0  0  0
 28 25  2  0  0  0  0
 29 28  1  0  0  0  0
 30 32  1  0  0  0  0
 30 27  2  0  0  0  0
 32 31  1  0  0  0  0
M  END
>  <MODEL>
3

>  <REMARK>
 VINA RESULT:      -7.9      2.224      2.645
  Name = 
  2 active torsions:
  status: ('A' for Active; 'I' for Inactive)
    1  A    between atoms: O_15  and  C_26
    2  A    between atoms: C_16  and  C_27
                            x       y       z     vdW  Elec       q    Type
                         _______ _______ _______ _____ _____    ______ ____

>  <TORSDO>
F 2

$$$$
=
 OpenBabel11052419123D

 32 37  0  0  1  0  0  0  0  0999 V2000
  192.1010  175.0260  145.9740 C   0  0  0  0  0  0  0  0  0  0  0  0
  193.2710  173.1130  144.8280 C   0  0  2  0  0  3  0  0  0  0  0  0
  192.1710  176.1940  146.7510 C   0  0  0  0  0  3  0  0  0  0  0  0
  193.2870  174.4140  145.5630 C   0  0  0  0  0  0  0  0  0  0  0  0
  194.1470  173.2650  143.5790 C   0  0  2  0  0  3  0  0  0  0  0  0
  190.4720  170.3790  141.6560 C   0  0  0  0  0  2  0  0  0  0  0  0
  191.8360  172.6400  144.5140 C   0  0  1  0  0  3  0  0  0  0  0  0
  192.8740  170.9050  141.1890 C   0  0  0  0  0  2  0  0  0  0  0  0
  192.8680  171.9710  142.2800 C   0  0  2  0  0  3  0  0  0  0  0  0
  196.7140  173.3330  143.2900 N   0  0  0  0  0  2  0  0  0  0  0  0
  194.5200  175.0500  145.7330 C   0  0  0  0  0  0  0  0  0  0  0  0
  194.1470  172.0620  142.8580 O   0  0  0  0  0  0  0  0  0  0  0  0
  195.6610  174.5640  145.0010 N   0  0  0  0  0  0  0  0  0  0  0  0
  194.5920  176.2220  146.4910 C   0  0  0  0  0  3  0  0  0  0  0  0
  190.9770  173.7370  144.2860 O   0  0  0  0  0  0  0  0  0  0  0  0
  196.6600  172.5860  142.1630 O   0  0  0  0  0  1  0  0  0  0  0  0
  190.8010  174.3810  145.5340 C   0  0  2  0  0  3  0  0  0  0  0  0
  191.8260  171.6180  143.3620 C   0  0  2  0  0  3  0  0  0  0  0  0
  195.5410  173.7090  144.0170 C   0  0  0  0  0  0  0  0  0  0  0  0
  193.4180  176.7780  147.0220 C   0  0  0  0  0  3  0  0  0  0  0  0
  191.4820  170.7660  140.5800 C   0  0  0  0  0  2  0  0  0  0  0  0
  190.4340  171.4380  142.7530 C   0  0  0  0  0  2  0  0  0  0  0  0
  187.6780  176.3760  146.4040 C   0  0  0  0  0  0  0  0  0  0  0  0
  186.7450  176.4730  147.4290 O   0  0  0  0  0  1  0  0  0  0  0  0
  189.6630  175.3590  145.4460 C   0  0  0  0  0  0  0  0  0  0  0  0
  187.5670  177.2080  145.2880 C   0  0  0  0  0  3  0  0  0  0  0  0
  189.5460  176.2030  144.3310 C   0  0  0  0  0  3  0  0  0  0  0  0
  188.7260  175.4510  146.4870 C   0  0  0  0  0  0  0  0  0  0  0  0
  188.8330  174.6260  147.6040 O   0  0  0  0  0  1  0  0  0  0  0  0
  188.5010  177.1270  144.2440 C   0  0  0  0  0  0  0  0  0  0  0  0
  188.3100  177.4320  141.7980 C   0  0  0  0  0  1  0  0  0  0  0  0
  188.4170  177.9490  143.1180 O   0  0  0  0  0  0  0  0  0  0  0  0
  1  3  1  0  0  0  0
  2  4  1  6  0  0  0
  3 20  2  0  0  0  0
  4 11  1  0  0  0  0
  4  1  2  0  0  0  0
  5 12  1  1  0  0  0
  5 19  1  0  0  0  0
  5  2  1  0  0  0  0
  6 22  1  0  0  0  0
  7 15  1  6  0  0  0
  7  2  1  0  0  0  0
  9  8  1  6  0  0  0
  9 12  1  0  0  0  0
  9 18  1  0  0  0  0
 10 19  1  0  0  0  0
 11 14  2  0  0  0  0
 13 11  1  0  0  0  0
 14 20  1  0  0  0  0
 15 17  1  0  0  0  0
 16 10  1  0  0  0  0
 17 25  1  6  0  0  0
 17  1  1  0  0  0  0
 18 22  1  6  0  0  0
 18  7  1  0  0  0  0
 19 13  2  0  0  0  0
 21  8  1  0  0  0  0
 21  6  1  0  0  0  0
 23 28  1  0  0  0  0
 23 24  1  0  0  0  0
 25 28  2  0  0  0  0
 26 23  2  0  0  0  0
 27 25  1  0  0  0  0
 28 29  1  0  0  0  0
 30 27  2  0  0  0  0
 30 26  1  0  0  0  0
 31 32  1  0  0  0  0
 32 30  1  0  0  0  0
M  END
>  <MODEL>
4

>  <REMARK>
 VINA RESULT:      -7.7      3.082      7.391
  Name = 
  2 active torsions:
  status: ('A' for Active; 'I' for Inactive)
    1  A    between atoms: O_15  and  C_26
    2  A    between atoms: C_16  and  C_27
                            x       y       z     vdW  Elec       q    Type
                         _______ _______ _______ _____ _____    ______ ____

>  <TORSDO>
F 2

$$$$
=
 OpenBabel11052419123D

 32 37  0  0  1  0  0  0  0  0999 V2000
  189.5240  174.5910  143.4000 C   0  0  0  0  0  0  0  0  0  0  0  0
  187.3340  175.4890  142.5380 C   0  0  2  0  0  3  0  0  0  0  0  0
  190.6870  173.8340  143.1870 C   0  0  0  0  0  3  0  0  0  0  0  0
  188.6370  174.7840  142.3390 C   0  0  0  0  0  0  0  0  0  0  0  0
  187.2140  176.5720  141.4610 C   0  0  2  0  0  3  0  0  0  0  0  0
  185.1330  179.0450  145.3450 C   0  0  0  0  0  2  0  0  0  0  0  0
  187.1820  176.0360  143.9740 C   0  0  1  0  0  3  0  0  0  0  0  0
  185.0750  179.1050  142.8430 C   0  0  0  0  0  2  0  0  0  0  0  0
  186.1730  178.0490  142.7780 C   0  0  2  0  0  3  0  0  0  0  0  0
  186.6820  176.4200  138.9370 N   0  0  0  0  0  2  0  0  0  0  0  0
  188.9850  174.4170  141.0360 C   0  0  0  0  0  0  0  0  0  0  0  0
  186.0040  177.2620  141.6240 O   0  0  0  0  0  0  0  0  0  0  0  0
  188.2130  174.9340  139.9370 N   0  0  0  0  0  0  0  0  0  0  0  0
  190.1510  173.6770  140.8170 C   0  0  0  0  0  3  0  0  0  0  0  0
  188.4310  176.4250  144.5050 O   0  0  0  0  0  0  0  0  0  0  0  0
  185.9050  177.5270  138.9800 O   0  0  0  0  0  1  0  0  0  0  0  0
  189.1670  175.2360  144.7260 C   0  0  2  0  0  3  0  0  0  0  0  0
  186.1260  177.1540  144.0350 C   0  0  2  0  0  3  0  0  0  0  0  0
  187.3540  175.9100  140.0920 C   0  0  0  0  0  0  0  0  0  0  0  0
  190.9870  173.3640  141.8990 C   0  0  0  0  0  3  0  0  0  0  0  0
  185.2210  179.9400  144.1120 C   0  0  0  0  0  2  0  0  0  0  0  0
  186.2330  177.9890  145.3120 C   0  0  0  0  0  2  0  0  0  0  0  0
  191.5200  175.4390  147.7120 C   0  0  0  0  0  0  0  0  0  0  0  0
  191.5440  175.0870  149.0550 O   0  0  0  0  0  1  0  0  0  0  0  0
  190.3700  175.5330  145.5750 C   0  0  0  0  0  0  0  0  0  0  0  0
  192.6320  176.0600  147.1400 C   0  0  0  0  0  3  0  0  0  0  0  0
  191.4950  176.1520  145.0090 C   0  0  0  0  0  3  0  0  0  0  0  0
  190.3870  175.1720  146.9320 C   0  0  0  0  0  0  0  0  0  0  0  0
  189.2830  174.5500  147.5060 O   0  0  0  0  0  1  0  0  0  0  0  0
  192.6260  176.4210  145.7840 C   0  0  0  0  0  0  0  0  0  0  0  0
  194.8240  177.5450  145.9320 C   0  0  0  0  0  1  0  0  0  0  0  0
  193.7250  177.0410  145.1850 O   0  0  0  0  0  0  0  0  0  0  0  0
  1 17  1  0  0  0  0
  2  4  1  1  0  0  0
  2  7  1  0  0  0  0
  3  1  1  0  0  0  0
  4  1  2  0  0  0  0
  5 19  1  6  0  0  0
  5 12  1  0  0  0  0
  5  2  1  0  0  0  0
  7 18  1  0  0  0  0
  7 15  1  6  0  0  0
  8 21  1  0  0  0  0
  9  8  1  1  0  0  0
  9 18  1  0  0  0  0
 10 16  1  0  0  0  0
 10 19  1  0  0  0  0
 11  4  1  0  0  0  0
 12  9  1  0  0  0  0
 13 19  2  0  0  0  0
 13 11  1  0  0  0  0
 14 11  2  0  0  0  0
 14 20  1  0  0  0  0
 15 17  1  0  0  0  0
 17 25  1  6  0  0  0
 18 22  1  1  0  0  0
 20  3  2  0  0  0  0
 21  6  1  0  0  0  0
 22  6  1  0  0  0  0
 23 24  1  0  0  0  0
 25 28  1  0  0  0  0
 26 23  1  0  0  0  0
 27 25  2  0  0  0  0
 27 30  1  0  0  0  0
 28 29  1  0  0  0  0
 28 23  2  0  0  0  0
 30 26  2  0  0  0  0
 32 30  1  0  0  0  0
 32 31  1  0  0  0  0
M  END
>  <MODEL>
5

>  <REMARK>
 VINA RESULT:      -7.6      3.244      5.516
  Name = 
  2 active torsions:
  status: ('A' for Active; 'I' for Inactive)
    1  A    between atoms: O_15  and  C_26
    2  A    between atoms: C_16  and  C_27
                            x       y       z     vdW  Elec       q    Type
                         _______ _______ _______ _____ _____    ______ ____

>  <TORSDO>
F 2

$$$$
=
 OpenBabel11052419123D

 32 37  0  0  1  0  0  0  0  0999 V2000
  190.5390  176.2560  144.5820 C   0  0  0  0  0  0  0  0  0  0  0  0
  188.6470  177.9160  144.6730 C   0  0  2  0  0  3  0  0  0  0  0  0
  191.5380  175.5250  145.2450 C   0  0  0  0  0  3  0  0  0  0  0  0
  189.6590  177.0360  145.3350 C   0  0  0  0  0  0  0  0  0  0  0  0
  187.2840  177.6310  145.3130 C   0  0  2  0  0  3  0  0  0  0  0  0
  185.8200  178.2890  140.5210 C   0  0  0  0  0  2  0  0  0  0  0  0
  188.6480  177.7520  143.1380 C   0  0  1  0  0  3  0  0  0  0  0  0
  184.8340  178.4490  142.8160 C   0  0  0  0  0  2  0  0  0  0  0  0
  186.1180  177.8940  143.4230 C   0  0  2  0  0  3  0  0  0  0  0  0
  186.2950  178.3100  147.6020 N   0  0  0  0  0  2  0  0  0  0  0  0
  189.6250  176.9410  146.7290 C   0  0  0  0  0  0  0  0  0  0  0  0
  186.3060  178.4350  144.7080 O   0  0  0  0  0  0  0  0  0  0  0  0
  188.4960  177.4850  147.4370 N   0  0  0  0  0  0  0  0  0  0  0  0
  190.6080  176.2010  147.3920 C   0  0  0  0  0  3  0  0  0  0  0  0
  188.9710  176.4280  142.7680 O   0  0  0  0  0  0  0  0  0  0  0  0
  185.0770  178.5530  147.0630 O   0  0  0  0  0  1  0  0  0  0  0  0
  190.3400  176.2430  143.0780 C   0  0  2  0  0  3  0  0  0  0  0  0
  187.3240  178.2420  142.5250 C   0  0  2  0  0  3  0  0  0  0  0  0
  187.4010  177.8510  146.8190 C   0  0  0  0  0  0  0  0  0  0  0  0
  191.5810  175.5150  146.6480 C   0  0  0  0  0  3  0  0  0  0  0  0
  184.6380  177.9030  141.4050 C   0  0  0  0  0  2  0  0  0  0  0  0
  187.1180  177.7320  141.0980 C   0  0  0  0  0  2  0  0  0  0  0  0
  190.5370  172.6430  141.8560 C   0  0  0  0  0  0  0  0  0  0  0  0
  189.7810  171.4780  141.8930 O   0  0  0  0  0  1  0  0  0  0  0  0
  190.8410  174.9820  142.4330 C   0  0  0  0  0  0  0  0  0  0  0  0
  191.7690  172.6460  141.1980 C   0  0  0  0  0  3  0  0  0  0  0  0
  192.0750  174.9760  141.7650 C   0  0  0  0  0  3  0  0  0  0  0  0
  190.0690  173.8100  142.4730 C   0  0  0  0  0  0  0  0  0  0  0  0
  188.8390  173.8020  143.1250 O   0  0  0  0  0  1  0  0  0  0  0  0
  192.5460  173.8140  141.1480 C   0  0  0  0  0  0  0  0  0  0  0  0
  194.1690  174.9150  139.6420 C   0  0  0  0  0  1  0  0  0  0  0  0
  193.7800  173.8470  140.4950 O   0  0  0  0  0  0  0  0  0  0  0  0
  1  3  2  0  0  0  0
  1  4  1  0  0  0  0
  2  5  1  0  0  0  0
  2  4  1  1  0  0  0
  3 20  1  0  0  0  0
  4 11  2  0  0  0  0
  5 12  1  6  0  0  0
  5 19  1  0  0  0  0
  6 22  1  0  0  0  0
  6 21  1  0  0  0  0
  7 15  1  1  0  0  0
  7  2  1  0  0  0  0
  9  8  1  6  0  0  0
  9 12  1  0  0  0  0
 11 14  1  0  0  0  0
 11 13  1  0  0  0  0
 15 17  1  0  0  0  0
 16 10  1  0  0  0  0
 17 25  1  1  0  0  0
 17  1  1  0  0  0  0
 18 22  1  6  0  0  0
 18  7  1  0  0  0  0
 18  9  1  0  0  0  0
 19 13  2  0  0  0  0
 19 10  1  0  0  0  0
 20 14  2  0  0  0  0
 21  8  1  0  0  0  0
 23 24  1  0  0  0  0
 23 28  1  0  0  0  0
 25 28  2  0  0  0  0
 26 23  2  0  0  0  0
 27 25  1  0  0  0  0
 28 29  1  0  0  0  0
 30 26  1  0  0  0  0
 30 27  2  0  0  0  0
 31 32  1  0  0  0  0
 32 30  1  0  0  0  0
M  END
>  <MODEL>
6

>  <REMARK>
 VINA RESULT:      -7.6      0.765      2.108
  Name = 
  2 active torsions:
  status: ('A' for Active; 'I' for Inactive)
    1  A    between atoms: O_15  and  C_26
    2  A    between atoms: C_16  and  C_27
                            x       y       z     vdW  Elec       q    Type
                         _______ _______ _______ _____ _____    ______ ____

>  <TORSDO>
F 2

$$$$
=
 OpenBabel11052419123D

 32 37  0  0  1  0  0  0  0  0999 V2000
  189.4630  176.3920  146.7450 C   0  0  0  0  0  0  0  0  0  0  0  0
  190.9650  174.5790  145.8500 C   0  0  2  0  0  3  0  0  0  0  0  0
  189.2680  177.4830  147.6060 C   0  0  0  0  0  3  0  0  0  0  0  0
  190.7290  175.8070  146.6680 C   0  0  0  0  0  0  0  0  0  0  0  0
  192.1820  174.8350  144.9530 C   0  0  2  0  0  3  0  0  0  0  0  0
  189.3360  172.1770  141.7330 C   0  0  0  0  0  2  0  0  0  0  0  0
  189.7060  174.1520  145.0640 C   0  0  1  0  0  3  0  0  0  0  0  0
  191.7540  172.7180  142.0830 C   0  0  0  0  0  2  0  0  0  0  0  0
  191.3910  173.6790  143.2100 C   0  0  2  0  0  3  0  0  0  0  0  0
  194.7100  174.9010  145.4820 N   0  0  0  0  0  2  0  0  0  0  0  0
  191.8370  176.4110  147.2680 C   0  0  0  0  0  0  0  0  0  0  0  0
  192.4270  173.7030  144.1620 O   0  0  0  0  0  0  0  0  0  0  0  0
  193.1570  175.9820  146.8860 N   0  0  0  0  0  0  0  0  0  0  0  0
  191.6490  177.5090  148.1130 C   0  0  0  0  0  3  0  0  0  0  0  0
  188.9400  175.2750  144.6810 O   0  0  0  0  0  0  0  0  0  0  0  0
  195.0210  174.2610  144.3310 O   0  0  0  0  0  1  0  0  0  0  0  0
  188.3750  175.8040  145.8660 C   0  0  2  0  0  3  0  0  0  0  0  0
  190.0720  173.2400  143.8790 C   0  0  2  0  0  3  0  0  0  0  0  0
  193.3630  175.2220  145.8400 C   0  0  0  0  0  0  0  0  0  0  0  0
  190.3590  178.0270  148.3030 C   0  0  0  0  0  3  0  0  0  0  0  0
  190.6220  172.6500  141.0620 C   0  0  0  0  0  2  0  0  0  0  0  0
  188.9410  173.1320  142.8550 C   0  0  0  0  0  2  0  0  0  0  0  0
  185.3030  178.0370  146.1150 C   0  0  0  0  0  0  0  0  0  0  0  0
  184.2940  178.3390  147.0220 O   0  0  0  0  0  1  0  0  0  0  0  0
  187.3030  176.7980  145.5180 C   0  0  0  0  0  0  0  0  0  0  0  0
  185.3300  178.6780  144.8750 C   0  0  0  0  0  3  0  0  0  0  0  0
  187.3250  177.4500  144.2770 C   0  0  0  0  0  3  0  0  0  0  0  0
  186.2890  177.0980  146.4420 C   0  0  0  0  0  0  0  0  0  0  0  0
  186.2580  176.4660  147.6810 O   0  0  0  0  0  1  0  0  0  0  0  0
  186.3420  178.3880  143.9470 C   0  0  0  0  0  0  0  0  0  0  0  0
  186.5450  178.2930  141.4840 C   0  0  0  0  0  1  0  0  0  0  0  0
  186.3970  179.0150  142.7000 O   0  0  0  0  0  0  0  0  0  0  0  0
  1  3  1  0  0  0  0
  2  4  1  6  0  0  0
  3 20  2  0  0  0  0
  4  1  2  0  0  0  0
  4 11  1  0  0  0  0
  5 12  1  1  0  0  0
  5 19  1  0  0  0  0
  5  2  1  0  0  0  0
  6 22  1  0  0  0  0
  7 15  1  6  0  0  0
  7  2  1  0  0  0  0
  9  8  1  6  0  0  0
  9 18  1  0  0  0  0
  9 12  1  0  0  0  0
 10 19  1  0  0  0  0
 11 14  2  0  0  0  0
 13 11  1  0  0  0  0
 14 20  1  0  0  0  0
 15 17  1  0  0  0  0
 16 10  1  0  0  0  0
 17 25  1  6  0  0  0
 17  1  1  0  0  0  0
 18 22  1  6  0  0  0
 18  7  1  0  0  0  0
 19 13  2  0  0  0  0
 21  6  1  0  0  0  0
 21  8  1  0  0  0  0
 23 28  1  0  0  0  0
 23 24  1  0  0  0  0
 25 28  2  0  0  0  0
 26 23  2  0  0  0  0
 27 25  1  0  0  0  0
 28 29  1  0  0  0  0
 30 27  2  0  0  0  0
 30 26  1  0  0  0  0
 31 32  1  0  0  0  0
 32 30  1  0  0  0  0
M  END
>  <MODEL>
7

>  <REMARK>
 VINA RESULT:      -7.5      2.336      6.816
  Name = 
  2 active torsions:
  status: ('A' for Active; 'I' for Inactive)
    1  A    between atoms: O_15  and  C_26
    2  A    between atoms: C_16  and  C_27
                            x       y       z     vdW  Elec       q    Type
                         _______ _______ _______ _____ _____    ______ ____

>  <TORSDO>
F 2

$$$$
=
 OpenBabel11052419123D

 32 37  0  0  1  0  0  0  0  0999 V2000
  192.2990  176.0520  145.7180 C   0  0  0  0  0  0  0  0  0  0  0  0
  190.2470  176.4470  144.3110 C   0  0  2  0  0  3  0  0  0  0  0  0
  192.9950  176.2500  146.9220 C   0  0  0  0  0  3  0  0  0  0  0  0
  190.9940  176.5340  145.6040 C   0  0  0  0  0  0  0  0  0  0  0  0
  188.8760  175.8270  144.6000 C   0  0  2  0  0  3  0  0  0  0  0  0
  189.8410  173.6470  140.1440 C   0  0  0  0  0  2  0  0  0  0  0  0
  191.0460  175.6890  143.2290 C   0  0  1  0  0  3  0  0  0  0  0  0
  187.8530  174.2350  141.5460 C   0  0  0  0  0  2  0  0  0  0  0  0
  188.7670  174.6820  142.6810 C   0  0  2  0  0  3  0  0  0  0  0  0
  186.7520  176.8100  145.6950 N   0  0  0  0  0  2  0  0  0  0  0  0
  190.3060  177.0190  146.7200 C   0  0  0  0  0  0  0  0  0  0  0  0
  188.1500  175.7200  143.4040 O   0  0  0  0  0  0  0  0  0  0  0  0
  188.8770  177.1790  146.6420 N   0  0  0  0  0  0  0  0  0  0  0  0
  190.9910  177.2010  147.9250 C   0  0  0  0  0  3  0  0  0  0  0  0
  191.8440  174.6740  143.8020 O   0  0  0  0  0  0  0  0  0  0  0  0
  185.9410  176.1820  144.8110 O   0  0  0  0  0  1  0  0  0  0  0  0
  192.8760  175.3260  144.5170 C   0  0  2  0  0  3  0  0  0  0  0  0
  190.1190  175.1690  142.1150 C   0  0  2  0  0  3  0  0  0  0  0  0
  188.1750  176.6730  145.6600 C   0  0  0  0  0  0  0  0  0  0  0  0
  192.3440  176.8400  148.0160 C   0  0  0  0  0  3  0  0  0  0  0  0
  188.5270  173.1370  140.7270 C   0  0  0  0  0  2  0  0  0  0  0  0
  190.7820  174.0870  141.2610 C   0  0  0  0  0  2  0  0  0  0  0  0
  196.2750  173.7920  145.2850 C   0  0  0  0  0  0  0  0  0  0  0  0
  197.6130  174.1650  145.3150 O   0  0  0  0  0  1  0  0  0  0  0  0
  193.9410  174.3330  144.8910 C   0  0  0  0  0  0  0  0  0  0  0  0
  195.9140  172.4860  145.6220 C   0  0  0  0  0  3  0  0  0  0  0  0
  193.5890  173.0200  145.2360 C   0  0  0  0  0  3  0  0  0  0  0  0
  195.2910  174.7200  144.9210 C   0  0  0  0  0  0  0  0  0  0  0  0
  195.6560  176.0220  144.5900 O   0  0  0  0  0  1  0  0  0  0  0  0
  194.5680  172.0920  145.5990 C   0  0  0  0  0  0  0  0  0  0  0  0
  195.1060  169.7850  146.3110 C   0  0  0  0  0  1  0  0  0  0  0  0
  194.1770  170.7930  145.9340 O   0  0  0  0  0  0  0  0  0  0  0  0
  1  3  1  0  0  0  0
  2  5  1  0  0  0  0
  2  4  1  1  0  0  0
  3 20  2  0  0  0  0
  4  1  2  0  0  0  0
  4 11  1  0  0  0  0
  5 12  1  6  0  0  0
  5 19  1  0  0  0  0
  6 21  1  0  0  0  0
  6 22  1  0  0  0  0
  7 15  1  1  0  0  0
  7  2  1  0  0  0  0
  9  8  1  6  0  0  0
  9 12  1  0  0  0  0
 11 14  2  0  0  0  0
 13 11  1  0  0  0  0
 14 20  1  0  0  0  0
 15 17  1  0  0  0  0
 16 10  1  0  0  0  0
 17 25  1  1  0  0  0
 17  1  1  0  0  0  0
 18 22  1  1  0  0  0
 18  9  1  0  0  0  0
 18  7  1  0  0  0  0
 19 10  1  0  0  0  0
 19 13  2  0  0  0  0
 21  8  1  0  0  0  0
 23 24  1  0  0  0  0
 23 26  1  0  0  0  0
 25 28  1  0  0  0  0
 25 27  2  0  0  0  0
 27 30  1  0  0  0  0
 28 23  2  0  0  0  0
 29 28  1  0  0  0  0
 30 26  2  0  0  0  0
 30 32  1  0  0  0  0
 32 31  1  0  0  0  0
M  END
>  <MODEL>
8

>  <REMARK>
 VINA RESULT:      -7.4      2.909      3.810
  Name = 
  2 active torsions:
  status: ('A' for Active; 'I' for Inactive)
    1  A    between atoms: O_15  and  C_26
    2  A    between atoms: C_16  and  C_27
                            x       y       z     vdW  Elec       q    Type
                         _______ _______ _______ _____ _____    ______ ____

>  <TORSDO>
F 2

$$$$
=
 OpenBabel11052419123D

 32 37  0  0  1  0  0  0  0  0999 V2000
  189.1880  174.9710  142.5740 C   0  0  0  0  0  0  0  0  0  0  0  0
  191.6440  174.4160  142.5130 C   0  0  2  0  0  3  0  0  0  0  0  0
  187.8690  174.6590  142.2070 C   0  0  0  0  0  3  0  0  0  0  0  0
  190.2120  174.0820  142.2420 C   0  0  0  0  0  0  0  0  0  0  0  0
  192.2750  173.2280  143.2470 C   0  0  2  0  0  3  0  0  0  0  0  0
  194.5860  177.0120  145.6720 C   0  0  0  0  0  2  0  0  0  0  0  0
  191.7960  175.7540  143.2700 C   0  0  1  0  0  3  0  0  0  0  0  0
  194.9780  174.5880  145.1820 C   0  0  0  0  0  2  0  0  0  0  0  0
  193.5950  174.4770  144.5500 C   0  0  2  0  0  3  0  0  0  0  0  0
  193.0340  170.9070  142.4040 N   0  0  0  0  0  2  0  0  0  0  0  0
  189.9250  172.8090  141.7420 C   0  0  0  0  0  0  0  0  0  0  0  0
  193.6200  173.5120  143.5260 O   0  0  0  0  0  0  0  0  0  0  0  0
  190.9630  171.8110  141.7390 N   0  0  0  0  0  0  0  0  0  0  0  0
  188.6100  172.4880  141.3920 C   0  0  0  0  0  3  0  0  0  0  0  0
  190.7100  175.9700  144.1450 O   0  0  0  0  0  0  0  0  0  0  0  0
  194.1400  170.9270  143.1830 O   0  0  0  0  0  1  0  0  0  0  0  0
  189.5790  176.2260  143.3320 C   0  0  2  0  0  3  0  0  0  0  0  0
  193.1630  175.8420  143.9730 C   0  0  2  0  0  3  0  0  0  0  0  0
  192.0840  171.9760  142.3940 C   0  0  0  0  0  0  0  0  0  0  0  0
  187.5870  173.4250  141.6000 C   0  0  0  0  0  3  0  0  0  0  0  0
  194.9780  175.6620  146.2660 C   0  0  0  0  0  2  0  0  0  0  0  0
  193.1970  176.9320  145.0460 C   0  0  0  0  0  2  0  0  0  0  0  0
  187.1820  176.7750  146.2370 C   0  0  0  0  0  0  0  0  0  0  0  0
  186.9300  176.2600  147.5030 O   0  0  0  0  0  1  0  0  0  0  0  0
  188.4610  176.7730  144.1740 C   0  0  0  0  0  0  0  0  0  0  0  0
  186.3980  177.8230  145.7500 C   0  0  0  0  0  3  0  0  0  0  0  0
  187.6710  177.8290  143.6960 C   0  0  0  0  0  3  0  0  0  0  0  0
  188.2160  176.2480  145.4540 C   0  0  0  0  0  0  0  0  0  0  0  0
  188.9960  175.2060  145.9460 O   0  0  0  0  0  1  0  0  0  0  0  0
  186.6390  178.3570  144.4750 C   0  0  0  0  0  0  0  0  0  0  0  0
  184.4750  179.5200  144.1910 C   0  0  0  0  0  1  0  0  0  0  0  0
  185.8730  179.4070  143.9620 O   0  0  0  0  0  0  0  0  0  0  0  0
  1 17  1  0  0  0  0
  2  4  1  1  0  0  0
  2  5  1  0  0  0  0
  2  7  1  0  0  0  0
  3  1  2  0  0  0  0
  4  1  1  0  0  0  0
  5 19  1  6  0  0  0
  5 12  1  0  0  0  0
  6 21  1  0  0  0  0
  7 18  1  0  0  0  0
  7 15  1  1  0  0  0
  8 21  1  0  0  0  0
  9  8  1  6  0  0  0
 10 16  1  0  0  0  0
 11  4  2  0  0  0  0
 12  9  1  0  0  0  0
 13 11  1  0  0  0  0
 13 19  2  0  0  0  0
 14 20  2  0  0  0  0
 14 11  1  0  0  0  0
 17 15  1  0  0  0  0
 17 25  1  1  0  0  0
 18  9  1  0  0  0  0
 18 22  1  1  0  0  0
 19 10  1  0  0  0  0
 20  3  1  0  0  0  0
 22  6  1  0  0  0  0
 23 24  1  0  0  0  0
 25 28  1  0  0  0  0
 26 23  1  0  0  0  0
 27 25  2  0  0  0  0
 27 30  1  0  0  0  0
 28 29  1  0  0  0  0
 28 23  2  0  0  0  0
 30 26  2  0  0  0  0
 32 31  1  0  0  0  0
 32 30  1  0  0  0  0
M  END
>  <MODEL>
9

>  <REMARK>
 VINA RESULT:      -7.2      3.086      7.709
  Name = 
  2 active torsions:
  status: ('A' for Active; 'I' for Inactive)
    1  A    between atoms: O_15  and  C_26
    2  A    between atoms: C_16  and  C_27
                            x       y       z     vdW  Elec       q    Type
                         _______ _______ _______ _____ _____    ______ ____

>  <TORSDO>
F 2

$$$$
