=
 OpenBabel11052421173D

 43 48  0  0  1  0  0  0  0  0999 V2000
  191.3380  176.8570  144.2170 C   0  0  0  0  0  2  0  0  0  0  0  0
  190.6810  177.1120  145.5840 C   0  0  1  0  0  3  0  0  0  0  0  0
  190.3320  176.7820  143.0690 C   0  0  0  0  0  2  0  0  0  0  0  0
  189.1490  177.1410  145.5320 C   0  0  0  0  0  2  0  0  0  0  0  0
  188.5860  175.9450  144.7610 C   0  0  0  0  0  2  0  0  0  0  0  0
  189.2490  175.7480  143.3830 C   0  0  1  0  0  3  0  0  0  0  0  0
  190.2290  174.8320  146.9210 O   0  0  0  0  0  0  0  0  0  0  0  0
  191.2620  175.9140  146.7760 S   0  0  0  0  0  0  0  0  0  0  0  0
  191.4620  176.5720  148.1130 O   0  0  0  0  0  0  0  0  0  0  0  0
  192.7710  175.2330  146.2340 N   0  0  0  0  0  0  0  0  0  0  0  0
  192.7800  173.9770  145.5300 C   0  0  0  0  0  0  0  0  0  0  0  0
  193.8400  173.2960  145.4640 O   0  0  0  0  0  0  0  0  0  0  0  0
  194.8360  176.3360  145.5120 C   0  0  0  0  0  2  0  0  0  0  0  0
  194.0300  175.8200  146.6950 C   0  0  0  0  0  3  0  0  0  0  0  0
  194.0650  177.3060  146.3700 C   0  0  0  0  0  2  0  0  0  0  0  0
  191.5540  173.4690  144.8360 C   0  0  0  0  0  2  0  0  0  0  0  0
  191.9070  172.8590  143.5210 C   0  0  0  0  0  0  0  0  0  0  0  0
  192.2020  170.9140  142.1290 C   0  0  0  0  0  3  0  0  0  0  0  0
  192.6720  173.0690  141.2440 C   0  0  0  0  0  3  0  0  0  0  0  0
  192.6030  171.7170  141.1050 N   0  0  0  0  0  0  0  0  0  0  0  0
  192.3260  173.6660  142.4590 C   0  0  0  0  0  3  0  0  0  0  0  0
  191.8480  171.4720  143.3590 C   0  0  0  0  0  3  0  0  0  0  0  0
  188.2350  175.6320  142.2400 C   0  0  2  0  0  3  0  0  0  0  0  0
  189.0710  171.7060  137.0760 C   0  0  1  0  0  3  0  0  0  0  0  0
  188.5590  174.5350  141.2660 C   0  0  0  0  0  0  0  0  0  0  0  0
  189.0940  172.4860  139.4660 C   0  0  0  0  0  0  0  0  0  0  0  0
  189.5740  173.0990  136.7130 C   0  0  0  0  0  2  0  0  0  0  0  0
  189.6430  170.7660  136.2200 O   0  0  0  0  0  1  0  0  0  0  0  0
  188.8830  173.8090  139.0220 C   0  0  0  0  0  0  0  0  0  0  0  0
  189.4650  171.3820  138.5140 C   0  0  0  0  0  2  0  0  0  0  0  0
  188.8490  174.1440  137.5560 C   0  0  0  0  0  2  0  0  0  0  0  0
  188.6030  174.7850  139.9260 N   0  0  0  0  0  0  0  0  0  0  0  0
  188.7760  173.2400  141.7410 C   0  0  0  0  0  3  0  0  0  0  0  0
  189.0490  172.2150  140.8350 C   0  0  0  0  0  3  0  0  0  0  0  0
  188.0450  176.9750  141.5380 C   0  0  0  0  0  2  0  0  0  0  0  0
  184.7360  177.8360  142.9770 C   0  0  0  0  0  3  0  0  0  0  0  0
  183.9440  178.0780  141.7590 C   0  0  0  0  0  0  0  0  0  0  0  0
  186.0320  177.9470  140.4040 C   0  0  0  0  0  2  0  0  0  0  0  0
  186.0240  177.5100  142.8930 C   0  0  0  0  0  3  0  0  0  0  0  0
  186.6590  177.4060  141.6110 N   0  0  0  0  0  0  0  0  0  0  0  0
  184.5420  178.0910  140.5580 C   0  0  0  0  0  3  0  0  0  0  0  0
  181.7110  178.5350  140.7830 C   0  0  0  0  0  1  0  0  0  0  0  0
  182.5650  178.2690  141.8880 O   0  0  0  0  0  0  0  0  0  0  0  0
  1  2  1  0  0  0  0
  2  8  1  1  0  0  0
  3  6  1  0  0  0  0
  3  1  1  0  0  0  0
  4  2  1  0  0  0  0
  5  4  1  0  0  0  0
  6 23  1  6  0  0  0
  6  5  1  0  0  0  0
  8  7  2  0  0  0  0
  8  9  2  0  0  0  0
 10 14  1  0  0  0  0
 10  8  1  0  0  0  0
 11 10  1  0  0  0  0
 12 11  2  0  0  0  0
 13 15  1  0  0  0  0
 13 14  1  0  0  0  0
 15 14  1  0  0  0  0
 16 11  1  0  0  0  0
 17 16  1  0  0  0  0
 18 22  2  0  0  0  0
 19 21  1  0  0  0  0
 20 19  2  0  0  0  0
 20 18  1  0  0  0  0
 21 17  2  0  0  0  0
 22 17  1  0  0  0  0
 23 35  1  6  0  0  0
 24 28  1  6  0  0  0
 24 30  1  0  0  0  0
 25 33  1  0  0  0  0
 25 23  1  0  0  0  0
 26 34  1  0  0  0  0
 27 24  1  0  0  0  0
 27 31  1  0  0  0  0
 29 26  2  0  0  0  0
 29 32  1  0  0  0  0
 30 26  1  0  0  0  0
 31 29  1  0  0  0  0
 32 25  2  0  0  0  0
 34 33  2  0  0  0  0
 35 40  1  0  0  0  0
 37 43  1  0  0  0  0
 37 36  1  0  0  0  0
 38 41  1  0  0  0  0
 38 40  1  0  0  0  0
 39 36  2  0  0  0  0
 40 39  1  0  0  0  0
 41 37  2  0  0  0  0
 42 43  1  0  0  0  0
M  END
>  <MODEL>
1

>  <REMARK>
 VINA RESULT:      -7.1      0.000      0.000
  Name = 
  10 active torsions:
  status: ('A' for Active; 'I' for Inactive)
    1  A    between atoms: C_1  and  C_34
    2  A    between atoms: C_1  and  N_35
    3  A    between atoms: N_4  and  S_12
    4  A    between atoms: N_4  and  C_15
    5  A    between atoms: C_6  and  S_12
    6  A    between atoms: C_8  and  C_34
    7  A    between atoms: C_11  and  C_14
    8  A    between atoms: C_14  and  C_22
    9  A    between atoms: C_19  and  O_37
   10  A    between atoms: C_34  and  C_38
                            x       y       z     vdW  Elec       q    Type
                         _______ _______ _______ _____ _____    ______ ____

>  <TORSDO>
F 10

$$$$
=
 OpenBabel11052421173D

 43 48  0  0  1  0  0  0  0  0999 V2000
  191.9050  174.1720  141.2570 C   0  0  0  0  0  2  0  0  0  0  0  0
  192.4960  172.8210  141.6930 C   0  0  1  0  0  3  0  0  0  0  0  0
  191.9890  175.2450  142.3410 C   0  0  0  0  0  2  0  0  0  0  0  0
  192.9570  172.7970  143.1560 C   0  0  0  0  0  2  0  0  0  0  0  0
  191.8920  173.3660  144.0940 C   0  0  0  0  0  2  0  0  0  0  0  0
  191.3530  174.7370  143.6370 C   0  0  1  0  0  3  0  0  0  0  0  0
  190.6270  171.1500  142.6450 O   0  0  0  0  0  0  0  0  0  0  0  0
  191.3300  171.5070  141.3650 S   0  0  0  0  0  0  0  0  0  0  0  0
  192.0530  170.2910  140.8560 O   0  0  0  0  0  0  0  0  0  0  0  0
  190.1740  172.0350  140.1740 N   0  0  0  0  0  0  0  0  0  0  0  0
  188.9190  172.6030  140.5940 C   0  0  0  0  0  0  0  0  0  0  0  0
  187.9420  172.6390  139.7960 O   0  0  0  0  0  0  0  0  0  0  0  0
  190.6100  172.9480  137.9430 C   0  0  0  0  0  2  0  0  0  0  0  0
  190.3840  171.6890  138.7670 C   0  0  0  0  0  3  0  0  0  0  0  0
  191.7860  172.0900  138.3340 C   0  0  0  0  0  2  0  0  0  0  0  0
  188.7530  173.1900  141.9610 C   0  0  0  0  0  2  0  0  0  0  0  0
  188.0170  174.4850  141.8930 C   0  0  0  0  0  0  0  0  0  0  0  0
  186.3280  175.9790  142.7430 C   0  0  0  0  0  3  0  0  0  0  0  0
  187.5800  176.6010  140.8220 C   0  0  0  0  0  3  0  0  0  0  0  0
  186.6180  176.8620  141.7480 N   0  0  0  0  0  0  0  0  0  0  0  0
  188.2980  175.4040  140.8770 C   0  0  0  0  0  3  0  0  0  0  0  0
  187.0220  174.7710  142.8320 C   0  0  0  0  0  3  0  0  0  0  0  0
  191.4000  175.7990  144.7410 C   0  0  2  0  0  3  0  0  0  0  0  0
  185.3560  177.7590  146.2890 C   0  0  1  0  0  3  0  0  0  0  0  0
  190.0920  176.5110  144.9370 C   0  0  0  0  0  0  0  0  0  0  0  0
  187.6450  177.7910  145.2490 C   0  0  0  0  0  0  0  0  0  0  0  0
  186.0370  177.2430  147.5520 C   0  0  0  0  0  2  0  0  0  0  0  0
  184.2950  178.5930  146.6400 O   0  0  0  0  0  1  0  0  0  0  0  0
  188.0370  176.7460  146.1140 C   0  0  0  0  0  0  0  0  0  0  0  0
  186.3610  178.5470  145.4550 C   0  0  0  0  0  2  0  0  0  0  0  0
  187.1110  176.2250  147.1790 C   0  0  0  0  0  2  0  0  0  0  0  0
  189.2310  176.1270  145.9220 N   0  0  0  0  0  0  0  0  0  0  0  0
  189.7410  177.5500  144.0710 C   0  0  0  0  0  3  0  0  0  0  0  0
  188.5140  178.1930  144.2340 C   0  0  0  0  0  3  0  0  0  0  0  0
  192.5490  176.7780  144.5090 C   0  0  0  0  0  2  0  0  0  0  0  0
  196.0500  175.6440  144.0450 C   0  0  0  0  0  3  0  0  0  0  0  0
  196.2480  174.8140  145.2450 C   0  0  0  0  0  0  0  0  0  0  0  0
  194.0680  175.6270  146.1380 C   0  0  0  0  0  2  0  0  0  0  0  0
  194.8930  176.2690  143.8380 C   0  0  0  0  0  3  0  0  0  0  0  0
  193.8290  176.1500  144.7920 N   0  0  0  0  0  0  0  0  0  0  0  0
  195.3070  174.7770  146.2010 C   0  0  0  0  0  3  0  0  0  0  0  0
  197.8430  173.1410  144.3470 C   0  0  0  0  0  1  0  0  0  0  0  0
  197.4210  174.0580  145.3470 O   0  0  0  0  0  0  0  0  0  0  0  0
  1  2  1  0  0  0  0
  1  3  1  0  0  0  0
  2  8  1  1  0  0  0
  2  4  1  0  0  0  0
  3  6  1  0  0  0  0
  4  5  1  0  0  0  0
  6  5  1  0  0  0  0
  6 23  1  1  0  0  0
  8  7  2  0  0  0  0
  9  8  2  0  0  0  0
 10 11  1  0  0  0  0
 10  8  1  0  0  0  0
 11 16  1  0  0  0  0
 12 11  2  0  0  0  0
 13 15  1  0  0  0  0
 13 14  1  0  0  0  0
 14 10  1  0  0  0  0
 15 14  1  0  0  0  0
 17 16  1  0  0  0  0
 17 22  1  0  0  0  0
 18 22  2  0  0  0  0
 19 21  1  0  0  0  0
 19 20  2  0  0  0  0
 20 18  1  0  0  0  0
 21 17  2  0  0  0  0
 23 35  1  6  0  0  0
 23 25  1  0  0  0  0
 24 28  1  1  0  0  0
 24 27  1  0  0  0  0
 25 32  1  0  0  0  0
 26 30  1  0  0  0  0
 26 29  1  0  0  0  0
 29 31  1  0  0  0  0
 30 24  1  0  0  0  0
 31 27  1  0  0  0  0
 32 29  2  0  0  0  0
 33 34  1  0  0  0  0
 33 25  2  0  0  0  0
 34 26  2  0  0  0  0
 35 40  1  0  0  0  0
 36 37  1  0  0  0  0
 37 43  1  0  0  0  0
 37 41  2  0  0  0  0
 38 41  1  0  0  0  0
 39 36  2  0  0  0  0
 39 40  1  0  0  0  0
 40 38  1  0  0  0  0
 42 43  1  0  0  0  0
M  END
>  <MODEL>
2

>  <REMARK>
 VINA RESULT:      -6.9      2.764      8.685
  Name = 
  10 active torsions:
  status: ('A' for Active; 'I' for Inactive)
    1  A    between atoms: C_1  and  C_34
    2  A    between atoms: C_1  and  N_35
    3  A    between atoms: N_4  and  S_12
    4  A    between atoms: N_4  and  C_15
    5  A    between atoms: C_6  and  S_12
    6  A    between atoms: C_8  and  C_34
    7  A    between atoms: C_11  and  C_14
    8  A    between atoms: C_14  and  C_22
    9  A    between atoms: C_19  and  O_37
   10  A    between atoms: C_34  and  C_38
                            x       y       z     vdW  Elec       q    Type
                         _______ _______ _______ _____ _____    ______ ____

>  <TORSDO>
F 10

$$$$
=
 OpenBabel11052421173D

 43 48  0  0  1  0  0  0  0  0999 V2000
  192.2240  173.4590  144.5160 C   0  0  0  0  0  2  0  0  0  0  0  0
  193.3860  174.0000  143.6650 C   0  0  1  0  0  3  0  0  0  0  0  0
  190.8900  173.4390  143.7720 C   0  0  0  0  0  2  0  0  0  0  0  0
  192.9520  174.5010  142.2820 C   0  0  0  0  0  2  0  0  0  0  0  0
  191.7350  175.4240  142.3710 C   0  0  0  0  0  2  0  0  0  0  0  0
  190.5820  174.8270  143.2040 C   0  0  1  0  0  3  0  0  0  0  0  0
  193.9130  175.1660  146.0220 O   0  0  0  0  0  0  0  0  0  0  0  0
  194.2630  175.2720  144.5640 S   0  0  0  0  0  0  0  0  0  0  0  0
  193.8540  176.6300  144.0670 O   0  0  0  0  0  0  0  0  0  0  0  0
  195.9790  175.0660  144.3430 N   0  0  0  0  0  0  0  0  0  0  0  0
  196.6850  174.0670  145.1030 C   0  0  0  0  0  0  0  0  0  0  0  0
  197.9370  174.1470  145.2430 O   0  0  0  0  0  0  0  0  0  0  0  0
  197.3240  175.4070  142.3230 C   0  0  0  0  0  2  0  0  0  0  0  0
  196.7260  176.0540  143.5640 C   0  0  0  0  0  3  0  0  0  0  0  0
  196.0780  176.2460  142.2020 C   0  0  0  0  0  2  0  0  0  0  0  0
  195.9670  172.9020  145.7090 C   0  0  0  0  0  2  0  0  0  0  0  0
  196.3740  171.6290  145.0470 C   0  0  0  0  0  0  0  0  0  0  0  0
  196.3440  170.1630  143.1340 C   0  0  0  0  0  3  0  0  0  0  0  0
  197.4790  169.4870  145.1090 C   0  0  0  0  0  3  0  0  0  0  0  0
  197.0830  169.2550  143.8280 N   0  0  0  0  0  0  0  0  0  0  0  0
  197.1300  170.6810  145.7430 C   0  0  0  0  0  3  0  0  0  0  0  0
  195.9730  171.3690  143.7340 C   0  0  0  0  0  3  0  0  0  0  0  0
  189.2380  174.8470  142.4690 C   0  0  2  0  0  3  0  0  0  0  0  0
  185.2380  177.6360  146.8280 C   0  0  1  0  0  3  0  0  0  0  0  0
  188.1650  175.5910  143.2130 C   0  0  0  0  0  0  0  0  0  0  0  0
  186.1480  176.9070  144.6010 C   0  0  0  0  0  0  0  0  0  0  0  0
  186.6760  177.9780  147.2010 C   0  0  0  0  0  2  0  0  0  0  0  0
  184.3720  178.5580  147.4150 O   0  0  0  0  0  1  0  0  0  0  0  0
  187.3800  176.6030  145.2200 C   0  0  0  0  0  0  0  0  0  0  0  0
  185.0790  177.6900  145.3120 C   0  0  0  0  0  2  0  0  0  0  0  0
  187.6160  176.8960  146.6760 C   0  0  0  0  0  2  0  0  0  0  0  0
  188.3380  175.9400  144.5200 N   0  0  0  0  0  0  0  0  0  0  0  0
  186.9630  175.8880  142.5660 C   0  0  0  0  0  3  0  0  0  0  0  0
  185.9550  176.5540  143.2640 C   0  0  0  0  0  3  0  0  0  0  0  0
  188.7940  173.4340  142.0990 C   0  0  0  0  0  2  0  0  0  0  0  0
  188.5470  173.8200  138.4180 C   0  0  0  0  0  3  0  0  0  0  0  0
  189.2600  172.6190  137.9510 C   0  0  0  0  0  0  0  0  0  0  0  0
  189.9890  172.1710  140.2920 C   0  0  0  0  0  2  0  0  0  0  0  0
  188.4270  174.0720  139.7190 C   0  0  0  0  0  3  0  0  0  0  0  0
  189.0030  173.1800  140.6830 N   0  0  0  0  0  0  0  0  0  0  0  0
  189.8980  171.8310  138.8300 C   0  0  0  0  0  3  0  0  0  0  0  0
  190.1010  171.3640  135.9850 C   0  0  0  0  0  1  0  0  0  0  0  0
  189.2330  172.3160  136.5860 O   0  0  0  0  0  0  0  0  0  0  0  0
  2  1  1  0  0  0  0
  2  8  1  1  0  0  0
  3  1  1  0  0  0  0
  4  5  1  0  0  0  0
  4  2  1  0  0  0  0
  5  6  1  0  0  0  0
  6 23  1  6  0  0  0
  6  3  1  0  0  0  0
  8  7  2  0  0  0  0
  9  8  2  0  0  0  0
 10  8  1  0  0  0  0
 10 11  1  0  0  0  0
 11 12  2  0  0  0  0
 11 16  1  0  0  0  0
 13 14  1  0  0  0  0
 14 10  1  0  0  0  0
 15 13  1  0  0  0  0
 15 14  1  0  0  0  0
 17 16  1  0  0  0  0
 17 21  1  0  0  0  0
 18 22  1  0  0  0  0
 18 20  2  0  0  0  0
 19 21  2  0  0  0  0
 20 19  1  0  0  0  0
 22 17  2  0  0  0  0
 23 35  1  1  0  0  0
 23 25  1  0  0  0  0
 24 27  1  0  0  0  0
 24 28  1  1  0  0  0
 25 32  1  0  0  0  0
 26 29  1  0  0  0  0
 26 30  1  0  0  0  0
 29 31  1  0  0  0  0
 30 24  1  0  0  0  0
 31 27  1  0  0  0  0
 32 29  2  0  0  0  0
 33 25  2  0  0  0  0
 33 34  1  0  0  0  0
 34 26  2  0  0  0  0
 36 39  2  0  0  0  0
 37 36  1  0  0  0  0
 37 41  2  0  0  0  0
 38 40  1  0  0  0  0
 39 40  1  0  0  0  0
 40 35  1  0  0  0  0
 41 38  1  0  0  0  0
 42 43  1  0  0  0  0
 43 37  1  0  0  0  0
M  END
>  <MODEL>
3

>  <REMARK>
 VINA RESULT:      -6.7      3.026      6.640
  Name = 
  10 active torsions:
  status: ('A' for Active; 'I' for Inactive)
    1  A    between atoms: C_1  and  C_34
    2  A    between atoms: C_1  and  N_35
    3  A    between atoms: N_4  and  S_12
    4  A    between atoms: N_4  and  C_15
    5  A    between atoms: C_6  and  S_12
    6  A    between atoms: C_8  and  C_34
    7  A    between atoms: C_11  and  C_14
    8  A    between atoms: C_14  and  C_22
    9  A    between atoms: C_19  and  O_37
   10  A    between atoms: C_34  and  C_38
                            x       y       z     vdW  Elec       q    Type
                         _______ _______ _______ _____ _____    ______ ____

>  <TORSDO>
F 10

$$$$
=
 OpenBabel11052421173D

 43 48  0  0  1  0  0  0  0  0999 V2000
  189.6500  172.2480  143.2550 C   0  0  0  0  0  2  0  0  0  0  0  0
  189.4640  172.8130  141.8360 C   0  0  1  0  0  3  0  0  0  0  0  0
  189.6220  173.3230  144.3400 C   0  0  0  0  0  2  0  0  0  0  0  0
  189.3870  174.3440  141.7910 C   0  0  0  0  0  2  0  0  0  0  0  0
  190.5150  174.9900  142.5980 C   0  0  0  0  0  2  0  0  0  0  0  0
  190.6430  174.4180  144.0240 C   0  0  1  0  0  3  0  0  0  0  0  0
  190.5330  170.7310  140.5270 O   0  0  0  0  0  0  0  0  0  0  0  0
  190.7510  172.2010  140.7580 S   0  0  0  0  0  0  0  0  0  0  0  0
  192.0970  172.3940  141.3990 O   0  0  0  0  0  0  0  0  0  0  0  0
  190.7020  173.0590  139.2430 N   0  0  0  0  0  0  0  0  0  0  0  0
  191.9300  173.4190  138.5820 C   0  0  0  0  0  0  0  0  0  0  0  0
  191.9370  174.3370  137.7160 O   0  0  0  0  0  0  0  0  0  0  0  0
  188.9930  172.9050  137.4940 C   0  0  0  0  0  2  0  0  0  0  0  0
  189.4310  173.6090  138.7700 C   0  0  0  0  0  3  0  0  0  0  0  0
  188.3520  172.5370  138.8070 C   0  0  0  0  0  2  0  0  0  0  0  0
  193.2080  172.6970  138.8750 C   0  0  0  0  0  2  0  0  0  0  0  0
  194.3480  173.6560  138.9570 C   0  0  0  0  0  0  0  0  0  0  0  0
  196.4170  174.5260  138.0790 C   0  0  0  0  0  3  0  0  0  0  0  0
  195.5280  175.4280  140.0890 C   0  0  0  0  0  3  0  0  0  0  0  0
  196.4860  175.3950  139.1240 N   0  0  0  0  0  0  0  0  0  0  0  0
  194.4390  174.5550  140.0230 C   0  0  0  0  0  3  0  0  0  0  0  0
  195.3450  173.6360  137.9780 C   0  0  0  0  0  3  0  0  0  0  0  0
  190.6570  175.5020  145.1070 C   0  0  2  0  0  3  0  0  0  0  0  0
  184.9700  178.6960  145.6030 C   0  0  1  0  0  3  0  0  0  0  0  0
  189.2870  176.0210  145.4450 C   0  0  0  0  0  0  0  0  0  0  0  0
  186.7840  177.0300  146.1090 C   0  0  0  0  0  0  0  0  0  0  0  0
  185.2310  178.3960  144.1310 C   0  0  0  0  0  2  0  0  0  0  0  0
  183.6100  178.9350  145.7960 O   0  0  0  0  0  1  0  0  0  0  0  0
  187.3830  177.3250  144.8650 C   0  0  0  0  0  0  0  0  0  0  0  0
  185.3970  177.5000  146.4500 C   0  0  0  0  0  2  0  0  0  0  0  0
  186.7330  178.2690  143.8900 C   0  0  0  0  0  2  0  0  0  0  0  0
  188.6180  176.8340  144.5790 N   0  0  0  0  0  0  0  0  0  0  0  0
  188.7190  175.6980  146.6800 C   0  0  0  0  0  3  0  0  0  0  0  0
  187.4600  176.2020  147.0070 C   0  0  0  0  0  3  0  0  0  0  0  0
  191.6150  176.6320  144.7390 C   0  0  0  0  0  2  0  0  0  0  0  0
  195.0830  175.6990  143.8120 C   0  0  0  0  0  3  0  0  0  0  0  0
  195.6130  175.2310  145.1040 C   0  0  0  0  0  0  0  0  0  0  0  0
  193.5540  176.0730  146.2270 C   0  0  0  0  0  2  0  0  0  0  0  0
  193.8360  176.1540  143.7170 C   0  0  0  0  0  3  0  0  0  0  0  0
  192.9970  176.2050  144.8790 N   0  0  0  0  0  0  0  0  0  0  0  0
  194.8840  175.3710  146.2210 C   0  0  0  0  0  3  0  0  0  0  0  0
  197.1730  173.4860  145.9230 C   0  0  0  0  0  1  0  0  0  0  0  0
  196.8740  174.6250  145.1270 O   0  0  0  0  0  0  0  0  0  0  0  0
  1  3  1  0  0  0  0
  2  8  1  6  0  0  0
  2  1  1  0  0  0  0
  4  2  1  0  0  0  0
  4  5  1  0  0  0  0
  5  6  1  0  0  0  0
  6  3  1  0  0  0  0
  6 23  1  1  0  0  0
  7  8  2  0  0  0  0
  8  9  2  0  0  0  0
 10  8  1  0  0  0  0
 11 16  1  0  0  0  0
 11 10  1  0  0  0  0
 12 11  2  0  0  0  0
 13 14  1  0  0  0  0
 13 15  1  0  0  0  0
 14 15  1  0  0  0  0
 14 10  1  0  0  0  0
 16 17  1  0  0  0  0
 17 21  1  0  0  0  0
 18 20  2  0  0  0  0
 20 19  1  0  0  0  0
 21 19  2  0  0  0  0
 22 18  1  0  0  0  0
 22 17  2  0  0  0  0
 23 35  1  6  0  0  0
 23 25  1  0  0  0  0
 24 28  1  6  0  0  0
 24 30  1  0  0  0  0
 25 33  1  0  0  0  0
 26 30  1  0  0  0  0
 26 34  1  0  0  0  0
 27 24  1  0  0  0  0
 29 26  2  0  0  0  0
 31 27  1  0  0  0  0
 31 29  1  0  0  0  0
 32 29  1  0  0  0  0
 32 25  2  0  0  0  0
 33 34  2  0  0  0  0
 35 40  1  0  0  0  0
 36 37  1  0  0  0  0
 37 43  1  0  0  0  0
 37 41  2  0  0  0  0
 39 36  2  0  0  0  0
 39 40  1  0  0  0  0
 40 38  1  0  0  0  0
 41 38  1  0  0  0  0
 43 42  1  0  0  0  0
M  END
>  <MODEL>
4

>  <REMARK>
 VINA RESULT:      -6.6      2.942      8.391
  Name = 
  10 active torsions:
  status: ('A' for Active; 'I' for Inactive)
    1  A    between atoms: C_1  and  C_34
    2  A    between atoms: C_1  and  N_35
    3  A    between atoms: N_4  and  S_12
    4  A    between atoms: N_4  and  C_15
    5  A    between atoms: C_6  and  S_12
    6  A    between atoms: C_8  and  C_34
    7  A    between atoms: C_11  and  C_14
    8  A    between atoms: C_14  and  C_22
    9  A    between atoms: C_19  and  O_37
   10  A    between atoms: C_34  and  C_38
                            x       y       z     vdW  Elec       q    Type
                         _______ _______ _______ _____ _____    ______ ____

>  <TORSDO>
F 10

$$$$
=
 OpenBabel11052421173D

 43 48  0  0  1  0  0  0  0  0999 V2000
  190.8150  173.9530  141.3060 C   0  0  0  0  0  2  0  0  0  0  0  0
  191.6820  172.7160  141.5930 C   0  0  1  0  0  3  0  0  0  0  0  0
  190.9150  175.0250  142.3910 C   0  0  0  0  0  2  0  0  0  0  0  0
  192.3910  172.7660  142.9530 C   0  0  0  0  0  2  0  0  0  0  0  0
  191.4300  173.1530  144.0780 C   0  0  0  0  0  2  0  0  0  0  0  0
  190.6060  174.4180  143.7610 C   0  0  1  0  0  3  0  0  0  0  0  0
  189.2550  171.5770  141.6420 O   0  0  0  0  0  0  0  0  0  0  0  0
  190.7030  171.2290  141.4330 S   0  0  0  0  0  0  0  0  0  0  0  0
  191.1130  170.2260  142.4740 O   0  0  0  0  0  0  0  0  0  0  0  0
  190.9320  170.5460  139.8470 N   0  0  0  0  0  0  0  0  0  0  0  0
  190.0630  170.9350  138.7660 C   0  0  0  0  0  0  0  0  0  0  0  0
  189.9610  170.2040  137.7430 O   0  0  0  0  0  0  0  0  0  0  0  0
  193.0420  169.8320  138.8280 C   0  0  0  0  0  2  0  0  0  0  0  0
  191.8490  169.4190  139.6770 C   0  0  0  0  0  3  0  0  0  0  0  0
  193.1890  169.7320  140.3240 C   0  0  0  0  0  2  0  0  0  0  0  0
  189.2940  172.2180  138.8120 C   0  0  0  0  0  2  0  0  0  0  0  0
  189.8170  173.1830  137.8020 C   0  0  0  0  0  0  0  0  0  0  0  0
  189.4460  174.6740  135.9450 C   0  0  0  0  0  3  0  0  0  0  0  0
  191.6530  174.3520  136.7640 C   0  0  0  0  0  3  0  0  0  0  0  0
  190.7810  174.9350  135.8970 N   0  0  0  0  0  0  0  0  0  0  0  0
  191.1860  173.4620  137.7340 C   0  0  0  0  0  3  0  0  0  0  0  0
  188.9390  173.7890  136.8990 C   0  0  0  0  0  3  0  0  0  0  0  0
  190.6760  175.4730  144.8710 C   0  0  2  0  0  3  0  0  0  0  0  0
  185.0710  178.7730  145.5580 C   0  0  1  0  0  3  0  0  0  0  0  0
  189.3310  176.0190  145.2570 C   0  0  0  0  0  0  0  0  0  0  0  0
  186.8740  177.0790  146.0080 C   0  0  0  0  0  0  0  0  0  0  0  0
  185.2700  178.4570  144.0790 C   0  0  0  0  0  2  0  0  0  0  0  0
  183.7240  179.0390  145.8010 O   0  0  0  0  0  1  0  0  0  0  0  0
  187.4290  177.3530  144.7390 C   0  0  0  0  0  0  0  0  0  0  0  0
  185.5090  177.5770  146.3980 C   0  0  0  0  0  2  0  0  0  0  0  0
  186.7580  178.3000  143.7820 C   0  0  0  0  0  2  0  0  0  0  0  0
  188.6420  176.8360  144.4100 N   0  0  0  0  0  0  0  0  0  0  0  0
  188.8040  175.7170  146.5150 C   0  0  0  0  0  3  0  0  0  0  0  0
  187.5690  176.2460  146.8870 C   0  0  0  0  0  3  0  0  0  0  0  0
  191.6560  176.5860  144.5070 C   0  0  0  0  0  2  0  0  0  0  0  0
  195.1940  175.7430  143.7790 C   0  0  0  0  0  3  0  0  0  0  0  0
  195.6310  175.1830  145.0690 C   0  0  0  0  0  0  0  0  0  0  0  0
  193.4840  175.9280  146.0920 C   0  0  0  0  0  2  0  0  0  0  0  0
  193.9520  176.1970  143.6240 C   0  0  0  0  0  3  0  0  0  0  0  0
  193.0280  176.1560  144.7200 N   0  0  0  0  0  0  0  0  0  0  0  0
  194.8190  175.2350  146.1350 C   0  0  0  0  0  3  0  0  0  0  0  0
  197.1960  173.5200  146.0340 C   0  0  0  0  0  1  0  0  0  0  0  0
  196.8930  174.5840  145.1420 O   0  0  0  0  0  0  0  0  0  0  0  0
  1  2  1  0  0  0  0
  1  3  1  0  0  0  0
  2  8  1  1  0  0  0
  2  4  1  0  0  0  0
  3  6  1  0  0  0  0
  4  5  1  0  0  0  0
  6  5  1  0  0  0  0
  6 23  1  1  0  0  0
  8  7  2  0  0  0  0
  8  9  2  0  0  0  0
 10  8  1  0  0  0  0
 11 16  1  0  0  0  0
 11 10  1  0  0  0  0
 12 11  2  0  0  0  0
 13 14  1  0  0  0  0
 13 15  1  0  0  0  0
 14 10  1  0  0  0  0
 14 15  1  0  0  0  0
 17 16  1  0  0  0  0
 18 22  1  0  0  0  0
 19 21  2  0  0  0  0
 20 18  2  0  0  0  0
 20 19  1  0  0  0  0
 21 17  1  0  0  0  0
 22 17  2  0  0  0  0
 23 35  1  6  0  0  0
 23 25  1  0  0  0  0
 24 28  1  6  0  0  0
 24 30  1  0  0  0  0
 25 33  1  0  0  0  0
 26 30  1  0  0  0  0
 26 34  1  0  0  0  0
 27 24  1  0  0  0  0
 29 26  2  0  0  0  0
 31 27  1  0  0  0  0
 31 29  1  0  0  0  0
 32 29  1  0  0  0  0
 32 25  2  0  0  0  0
 33 34  2  0  0  0  0
 35 40  1  0  0  0  0
 36 37  1  0  0  0  0
 37 43  1  0  0  0  0
 37 41  2  0  0  0  0
 38 41  1  0  0  0  0
 39 36  2  0  0  0  0
 39 40  1  0  0  0  0
 40 38  1  0  0  0  0
 43 42  1  0  0  0  0
M  END
>  <MODEL>
5

>  <REMARK>
 VINA RESULT:      -6.6      2.793      8.473
  Name = 
  10 active torsions:
  status: ('A' for Active; 'I' for Inactive)
    1  A    between atoms: C_1  and  C_34
    2  A    between atoms: C_1  and  N_35
    3  A    between atoms: N_4  and  S_12
    4  A    between atoms: N_4  and  C_15
    5  A    between atoms: C_6  and  S_12
    6  A    between atoms: C_8  and  C_34
    7  A    between atoms: C_11  and  C_14
    8  A    between atoms: C_14  and  C_22
    9  A    between atoms: C_19  and  O_37
   10  A    between atoms: C_34  and  C_38
                            x       y       z     vdW  Elec       q    Type
                         _______ _______ _______ _____ _____    ______ ____

>  <TORSDO>
F 10

$$$$
=
 OpenBabel11052421173D

 43 48  0  0  1  0  0  0  0  0999 V2000
  192.6830  172.8410  143.5930 C   0  0  0  0  0  2  0  0  0  0  0  0
  193.5810  172.9350  142.3480 C   0  0  1  0  0  3  0  0  0  0  0  0
  191.2240  173.1990  143.3120 C   0  0  0  0  0  2  0  0  0  0  0  0
  192.8530  173.4610  141.1050 C   0  0  0  0  0  2  0  0  0  0  0  0
  192.0490  174.7250  141.4140 C   0  0  0  0  0  2  0  0  0  0  0  0
  191.1370  174.5750  142.6480 C   0  0  1  0  0  3  0  0  0  0  0  0
  194.7340  175.3550  142.3920 O   0  0  0  0  0  0  0  0  0  0  0  0
  195.0300  173.9160  142.7090 S   0  0  0  0  0  0  0  0  0  0  0  0
  196.1850  173.4630  141.8600 O   0  0  0  0  0  0  0  0  0  0  0  0
  195.4460  173.7470  144.3930 N   0  0  0  0  0  0  0  0  0  0  0  0
  195.0880  174.7820  145.3280 C   0  0  0  0  0  0  0  0  0  0  0  0
  195.6850  174.8670  146.4360 O   0  0  0  0  0  0  0  0  0  0  0  0
  195.6040  171.6390  145.6320 C   0  0  0  0  0  2  0  0  0  0  0  0
  196.3520  172.6730  144.8030 C   0  0  0  0  0  3  0  0  0  0  0  0
  195.9140  171.3540  144.1850 C   0  0  0  0  0  2  0  0  0  0  0  0
  193.9860  175.7500  145.0280 C   0  0  0  0  0  2  0  0  0  0  0  0
  193.0550  175.8650  146.1870 C   0  0  0  0  0  0  0  0  0  0  0  0
  191.3520  174.9160  147.6040 C   0  0  0  0  0  3  0  0  0  0  0  0
  192.0810  177.1450  147.9830 C   0  0  0  0  0  3  0  0  0  0  0  0
  191.2940  176.0820  148.3030 N   0  0  0  0  0  0  0  0  0  0  0  0
  192.9770  177.0550  146.9160 C   0  0  0  0  0  3  0  0  0  0  0  0
  192.2340  174.7860  146.5290 C   0  0  0  0  0  3  0  0  0  0  0  0
  189.6830  174.9750  142.3730 C   0  0  2  0  0  3  0  0  0  0  0  0
  185.9150  178.5400  146.3560 C   0  0  1  0  0  3  0  0  0  0  0  0
  189.0690  175.7820  143.4810 C   0  0  0  0  0  0  0  0  0  0  0  0
  187.9460  177.3340  145.4950 C   0  0  0  0  0  0  0  0  0  0  0  0
  185.1090  177.3390  145.8730 C   0  0  0  0  0  2  0  0  0  0  0  0
  185.3470  179.0420  147.5260 O   0  0  0  0  0  1  0  0  0  0  0  0
  187.1360  176.6800  144.5410 C   0  0  0  0  0  0  0  0  0  0  0  0
  187.3510  178.1090  146.6380 C   0  0  0  0  0  2  0  0  0  0  0  0
  185.6440  176.8700  144.5220 C   0  0  0  0  0  2  0  0  0  0  0  0
  187.7170  175.9460  143.5560 N   0  0  0  0  0  0  0  0  0  0  0  0
  189.8990  176.4050  144.4160 C   0  0  0  0  0  3  0  0  0  0  0  0
  189.3320  177.1780  145.4290 C   0  0  0  0  0  3  0  0  0  0  0  0
  188.8360  173.7530  142.0260 C   0  0  0  0  0  2  0  0  0  0  0  0
  189.4670  171.9820  138.8280 C   0  0  0  0  0  3  0  0  0  0  0  0
  189.1020  173.0160  137.8460 C   0  0  0  0  0  0  0  0  0  0  0  0
  188.1920  174.4170  139.6960 C   0  0  0  0  0  2  0  0  0  0  0  0
  189.3600  172.2200  140.1340 C   0  0  0  0  0  3  0  0  0  0  0  0
  188.8730  173.4870  140.5980 N   0  0  0  0  0  0  0  0  0  0  0  0
  188.5430  174.1650  138.2550 C   0  0  0  0  0  3  0  0  0  0  0  0
  190.3080  173.5370  135.7430 C   0  0  0  0  0  1  0  0  0  0  0  0
  189.3710  172.7760  136.4950 O   0  0  0  0  0  0  0  0  0  0  0  0
  2  8  1  1  0  0  0
  2  1  1  0  0  0  0
  3  1  1  0  0  0  0
  4  5  1  0  0  0  0
  4  2  1  0  0  0  0
  5  6  1  0  0  0  0
  6 23  1  6  0  0  0
  6  3  1  0  0  0  0
  7  8  2  0  0  0  0
  8 10  1  0  0  0  0
  9  8  2  0  0  0  0
 10 14  1  0  0  0  0
 10 11  1  0  0  0  0
 11 12  2  0  0  0  0
 14 13  1  0  0  0  0
 15 14  1  0  0  0  0
 15 13  1  0  0  0  0
 16 11  1  0  0  0  0
 16 17  1  0  0  0  0
 17 22  2  0  0  0  0
 17 21  1  0  0  0  0
 18 20  2  0  0  0  0
 19 20  1  0  0  0  0
 21 19  2  0  0  0  0
 22 18  1  0  0  0  0
 23 35  1  1  0  0  0
 23 25  1  0  0  0  0
 24 30  1  0  0  0  0
 24 28  1  1  0  0  0
 25 32  2  0  0  0  0
 25 33  1  0  0  0  0
 26 30  1  0  0  0  0
 27 24  1  0  0  0  0
 29 26  2  0  0  0  0
 31 29  1  0  0  0  0
 31 27  1  0  0  0  0
 32 29  1  0  0  0  0
 33 34  2  0  0  0  0
 34 26  1  0  0  0  0
 36 39  2  0  0  0  0
 37 41  2  0  0  0  0
 37 36  1  0  0  0  0
 38 40  1  0  0  0  0
 39 40  1  0  0  0  0
 40 35  1  0  0  0  0
 41 38  1  0  0  0  0
 42 43  1  0  0  0  0
 43 37  1  0  0  0  0
M  END
>  <MODEL>
6

>  <REMARK>
 VINA RESULT:      -6.4      2.668      6.861
  Name = 
  10 active torsions:
  status: ('A' for Active; 'I' for Inactive)
    1  A    between atoms: C_1  and  C_34
    2  A    between atoms: C_1  and  N_35
    3  A    between atoms: N_4  and  S_12
    4  A    between atoms: N_4  and  C_15
    5  A    between atoms: C_6  and  S_12
    6  A    between atoms: C_8  and  C_34
    7  A    between atoms: C_11  and  C_14
    8  A    between atoms: C_14  and  C_22
    9  A    between atoms: C_19  and  O_37
   10  A    between atoms: C_34  and  C_38
                            x       y       z     vdW  Elec       q    Type
                         _______ _______ _______ _____ _____    ______ ____

>  <TORSDO>
F 10

$$$$
=
 OpenBabel11052421173D

 43 48  0  0  1  0  0  0  0  0999 V2000
  189.4240  172.4620  143.0420 C   0  0  0  0  0  2  0  0  0  0  0  0
  189.8380  172.6220  141.5700 C   0  0  1  0  0  3  0  0  0  0  0  0
  189.4270  173.7800  143.8160 C   0  0  0  0  0  2  0  0  0  0  0  0
  190.2640  174.0500  141.2040 C   0  0  0  0  0  2  0  0  0  0  0  0
  191.2580  174.6200  142.2180 C   0  0  0  0  0  2  0  0  0  0  0  0
  190.7860  174.4690  143.6780 C   0  0  1  0  0  3  0  0  0  0  0  0
  190.4940  170.0870  140.9910 O   0  0  0  0  0  0  0  0  0  0  0  0
  191.1180  171.4440  141.1610 S   0  0  0  0  0  0  0  0  0  0  0  0
  192.1290  171.3740  142.2720 O   0  0  0  0  0  0  0  0  0  0  0  0
  191.9100  171.9280  139.6860 N   0  0  0  0  0  0  0  0  0  0  0  0
  191.2110  171.8280  138.4310 C   0  0  0  0  0  0  0  0  0  0  0  0
  191.8570  171.8080  137.3480 O   0  0  0  0  0  0  0  0  0  0  0  0
  193.5930  173.6900  139.4360 C   0  0  0  0  0  2  0  0  0  0  0  0
  193.3450  172.2130  139.7020 C   0  0  0  0  0  3  0  0  0  0  0  0
  193.6780  173.1610  140.8450 C   0  0  0  0  0  2  0  0  0  0  0  0
  189.7160  171.7820  138.3770 C   0  0  0  0  0  2  0  0  0  0  0  0
  189.1740  172.9950  137.7000 C   0  0  0  0  0  0  0  0  0  0  0  0
  189.1640  174.5200  135.8330 C   0  0  0  0  0  3  0  0  0  0  0  0
  187.7230  174.9210  137.6800 C   0  0  0  0  0  3  0  0  0  0  0  0
  188.2110  175.2650  136.4570 N   0  0  0  0  0  0  0  0  0  0  0  0
  188.1980  173.7770  138.3250 C   0  0  0  0  0  3  0  0  0  0  0  0
  189.6650  173.3690  136.4460 C   0  0  0  0  0  3  0  0  0  0  0  0
  190.8300  175.7850  144.4630 C   0  0  2  0  0  3  0  0  0  0  0  0
  184.7790  177.9810  145.6170 C   0  0  1  0  0  3  0  0  0  0  0  0
  189.5090  176.4990  144.5000 C   0  0  0  0  0  0  0  0  0  0  0  0
  187.0370  177.7690  144.5320 C   0  0  0  0  0  0  0  0  0  0  0  0
  185.5080  177.8450  146.9500 C   0  0  0  0  0  2  0  0  0  0  0  0
  183.7050  178.8590  145.7610 O   0  0  0  0  0  1  0  0  0  0  0  0
  187.4810  177.0100  145.6360 C   0  0  0  0  0  0  0  0  0  0  0  0
  185.7390  178.5280  144.5650 C   0  0  0  0  0  2  0  0  0  0  0  0
  186.5990  176.7840  146.8330 C   0  0  0  0  0  2  0  0  0  0  0  0
  188.6860  176.3840  145.5810 N   0  0  0  0  0  0  0  0  0  0  0  0
  189.1060  177.2530  143.3950 C   0  0  0  0  0  3  0  0  0  0  0  0
  187.8670  177.8930  143.4170 C   0  0  0  0  0  3  0  0  0  0  0  0
  191.9490  176.6900  143.9510 C   0  0  0  0  0  2  0  0  0  0  0  0
  195.4680  175.5300  143.7900 C   0  0  0  0  0  3  0  0  0  0  0  0
  195.7040  175.1210  145.1850 C   0  0  0  0  0  0  0  0  0  0  0  0
  193.5180  176.1340  145.8250 C   0  0  0  0  0  2  0  0  0  0  0  0
  194.2940  176.0380  143.4230 C   0  0  0  0  0  3  0  0  0  0  0  0
  193.2470  176.2050  144.3890 N   0  0  0  0  0  0  0  0  0  0  0  0
  194.7790  175.3690  146.1240 C   0  0  0  0  0  3  0  0  0  0  0  0
  196.9460  173.0860  145.8630 C   0  0  0  0  0  1  0  0  0  0  0  0
  196.8960  174.4570  145.4930 O   0  0  0  0  0  0  0  0  0  0  0  0
  1  3  1  0  0  0  0
  2  8  1  1  0  0  0
  2  1  1  0  0  0  0
  4  2  1  0  0  0  0
  4  5  1  0  0  0  0
  5  6  1  0  0  0  0
  6  3  1  0  0  0  0
  6 23  1  6  0  0  0
  7  8  2  0  0  0  0
  8  9  2  0  0  0  0
 10 14  1  0  0  0  0
 10  8  1  0  0  0  0
 11 10  1  0  0  0  0
 12 11  2  0  0  0  0
 13 14  1  0  0  0  0
 13 15  1  0  0  0  0
 14 15  1  0  0  0  0
 16 11  1  0  0  0  0
 17 21  1  0  0  0  0
 17 16  1  0  0  0  0
 18 22  1  0  0  0  0
 18 20  2  0  0  0  0
 19 21  2  0  0  0  0
 20 19  1  0  0  0  0
 22 17  2  0  0  0  0
 23 35  1  6  0  0  0
 23 25  1  0  0  0  0
 24 28  1  1  0  0  0
 24 27  1  0  0  0  0
 25 32  1  0  0  0  0
 26 30  1  0  0  0  0
 26 29  1  0  0  0  0
 29 31  1  0  0  0  0
 30 24  1  0  0  0  0
 31 27  1  0  0  0  0
 32 29  2  0  0  0  0
 33 34  1  0  0  0  0
 33 25  2  0  0  0  0
 34 26  2  0  0  0  0
 35 40  1  0  0  0  0
 36 37  1  0  0  0  0
 37 43  1  0  0  0  0
 37 41  2  0  0  0  0
 38 41  1  0  0  0  0
 39 36  2  0  0  0  0
 39 40  1  0  0  0  0
 40 38  1  0  0  0  0
 43 42  1  0  0  0  0
M  END
>  <MODEL>
7

>  <REMARK>
 VINA RESULT:      -6.3      2.859      8.414
  Name = 
  10 active torsions:
  status: ('A' for Active; 'I' for Inactive)
    1  A    between atoms: C_1  and  C_34
    2  A    between atoms: C_1  and  N_35
    3  A    between atoms: N_4  and  S_12
    4  A    between atoms: N_4  and  C_15
    5  A    between atoms: C_6  and  S_12
    6  A    between atoms: C_8  and  C_34
    7  A    between atoms: C_11  and  C_14
    8  A    between atoms: C_14  and  C_22
    9  A    between atoms: C_19  and  O_37
   10  A    between atoms: C_34  and  C_38
                            x       y       z     vdW  Elec       q    Type
                         _______ _______ _______ _____ _____    ______ ____

>  <TORSDO>
F 10

$$$$
=
 OpenBabel11052421173D

 43 48  0  0  1  0  0  0  0  0999 V2000
  193.5050  175.9600  143.8080 C   0  0  0  0  0  2  0  0  0  0  0  0
  194.0560  175.2760  145.0710 C   0  0  1  0  0  3  0  0  0  0  0  0
  191.9930  175.8010  143.6480 C   0  0  0  0  0  2  0  0  0  0  0  0
  192.9980  174.4940  145.8570 C   0  0  0  0  0  2  0  0  0  0  0  0
  192.1710  173.5860  144.9440 C   0  0  0  0  0  2  0  0  0  0  0  0
  191.6090  174.3210  143.7090 C   0  0  1  0  0  3  0  0  0  0  0  0
  195.0020  172.7970  144.6860 O   0  0  0  0  0  0  0  0  0  0  0  0
  195.4440  174.2330  144.6470 S   0  0  0  0  0  0  0  0  0  0  0  0
  196.5550  174.4230  145.6420 O   0  0  0  0  0  0  0  0  0  0  0  0
  196.0170  174.6410  143.0530 N   0  0  0  0  0  0  0  0  0  0  0  0
  195.6000  173.8580  141.9190 C   0  0  0  0  0  0  0  0  0  0  0  0
  196.2690  173.8870  140.8500 O   0  0  0  0  0  0  0  0  0  0  0  0
  196.6330  176.7810  142.0320 C   0  0  0  0  0  2  0  0  0  0  0  0
  197.0920  175.6230  142.9060 C   0  0  0  0  0  3  0  0  0  0  0  0
  196.6780  176.9480  143.5290 C   0  0  0  0  0  2  0  0  0  0  0  0
  194.3550  173.0270  141.9660 C   0  0  0  0  0  2  0  0  0  0  0  0
  193.7380  172.9250  140.6120 C   0  0  0  0  0  0  0  0  0  0  0  0
  193.4600  171.7580  138.5220 C   0  0  0  0  0  3  0  0  0  0  0  0
  192.3430  173.8270  138.8640 C   0  0  0  0  0  3  0  0  0  0  0  0
  192.6360  172.7500  138.0860 N   0  0  0  0  0  0  0  0  0  0  0  0
  192.8910  173.9350  140.1440 C   0  0  0  0  0  3  0  0  0  0  0  0
  194.0290  171.8290  139.7950 C   0  0  0  0  0  3  0  0  0  0  0  0
  190.1000  174.1250  143.5300 C   0  0  2  0  0  3  0  0  0  0  0  0
  186.5320  178.5550  146.7570 C   0  0  1  0  0  3  0  0  0  0  0  0
  189.2770  174.9240  144.5000 C   0  0  0  0  0  0  0  0  0  0  0  0
  187.8120  176.4370  146.3130 C   0  0  0  0  0  0  0  0  0  0  0  0
  185.9470  178.3870  145.3590 C   0  0  0  0  0  2  0  0  0  0  0  0
  185.5670  179.1020  147.6020 O   0  0  0  0  0  1  0  0  0  0  0  0
  187.7850  176.7270  144.9320 C   0  0  0  0  0  0  0  0  0  0  0  0
  186.9620  177.1940  147.2960 C   0  0  0  0  0  2  0  0  0  0  0  0
  187.0370  177.9180  144.3980 C   0  0  0  0  0  2  0  0  0  0  0  0
  188.5290  175.9810  144.0730 N   0  0  0  0  0  0  0  0  0  0  0  0
  189.3170  174.6010  145.8590 C   0  0  0  0  0  3  0  0  0  0  0  0
  188.5760  175.3600  146.7650 C   0  0  0  0  0  3  0  0  0  0  0  0
  189.7330  172.6430  143.5610 C   0  0  0  0  0  2  0  0  0  0  0  0
  189.4770  172.0360  139.9110 C   0  0  0  0  0  3  0  0  0  0  0  0
  190.2180  170.7710  139.7740 C   0  0  0  0  0  0  0  0  0  0  0  0
  190.9570  170.9750  142.1450 C   0  0  0  0  0  2  0  0  0  0  0  0
  189.3500  172.6210  141.1000 C   0  0  0  0  0  3  0  0  0  0  0  0
  189.9480  172.0290  142.2620 N   0  0  0  0  0  0  0  0  0  0  0  0
  190.8750  170.2580  140.8250 C   0  0  0  0  0  3  0  0  0  0  0  0
  190.4280  168.7220  138.3930 C   0  0  0  0  0  1  0  0  0  0  0  0
  190.1990  170.1180  138.5370 O   0  0  0  0  0  0  0  0  0  0  0  0
  1  2  1  0  0  0  0
  2  8  1  6  0  0  0
  2  4  1  0  0  0  0
  3  6  1  0  0  0  0
  3  1  1  0  0  0  0
  5  4  1  0  0  0  0
  6 23  1  1  0  0  0
  6  5  1  0  0  0  0
  8  7  2  0  0  0  0
  8  9  2  0  0  0  0
 10  8  1  0  0  0  0
 11 16  1  0  0  0  0
 11 10  1  0  0  0  0
 12 11  2  0  0  0  0
 13 14  1  0  0  0  0
 13 15  1  0  0  0  0
 14 10  1  0  0  0  0
 14 15  1  0  0  0  0
 17 16  1  0  0  0  0
 18 22  1  0  0  0  0
 19 21  2  0  0  0  0
 20 18  2  0  0  0  0
 20 19  1  0  0  0  0
 21 17  1  0  0  0  0
 22 17  2  0  0  0  0
 23 35  1  1  0  0  0
 23 25  1  0  0  0  0
 24 30  1  0  0  0  0
 24 28  1  1  0  0  0
 25 33  1  0  0  0  0
 26 34  1  0  0  0  0
 26 30  1  0  0  0  0
 27 24  1  0  0  0  0
 29 26  2  0  0  0  0
 31 29  1  0  0  0  0
 31 27  1  0  0  0  0
 32 25  2  0  0  0  0
 32 29  1  0  0  0  0
 33 34  2  0  0  0  0
 36 39  2  0  0  0  0
 37 36  1  0  0  0  0
 37 41  2  0  0  0  0
 38 40  1  0  0  0  0
 39 40  1  0  0  0  0
 40 35  1  0  0  0  0
 41 38  1  0  0  0  0
 42 43  1  0  0  0  0
 43 37  1  0  0  0  0
M  END
>  <MODEL>
8

>  <REMARK>
 VINA RESULT:      -6.3      3.068      6.822
  Name = 
  10 active torsions:
  status: ('A' for Active; 'I' for Inactive)
    1  A    between atoms: C_1  and  C_34
    2  A    between atoms: C_1  and  N_35
    3  A    between atoms: N_4  and  S_12
    4  A    between atoms: N_4  and  C_15
    5  A    between atoms: C_6  and  S_12
    6  A    between atoms: C_8  and  C_34
    7  A    between atoms: C_11  and  C_14
    8  A    between atoms: C_14  and  C_22
    9  A    between atoms: C_19  and  O_37
   10  A    between atoms: C_34  and  C_38
                            x       y       z     vdW  Elec       q    Type
                         _______ _______ _______ _____ _____    ______ ____

>  <TORSDO>
F 10

$$$$
=
 OpenBabel11052421173D

 43 48  0  0  1  0  0  0  0  0999 V2000
  192.8060  172.9140  143.2420 C   0  0  0  0  0  2  0  0  0  0  0  0
  193.9390  173.1670  142.2330 C   0  0  1  0  0  3  0  0  0  0  0  0
  191.4170  172.9290  142.6060 C   0  0  0  0  0  2  0  0  0  0  0  0
  193.4400  173.4810  140.8170 C   0  0  0  0  0  2  0  0  0  0  0  0
  192.3390  174.5420  140.8270 C   0  0  0  0  0  2  0  0  0  0  0  0
  191.2080  174.2310  141.8280 C   0  0  1  0  0  3  0  0  0  0  0  0
  194.5300  175.7820  142.3180 O   0  0  0  0  0  0  0  0  0  0  0  0
  195.0200  174.4570  142.8350 S   0  0  0  0  0  0  0  0  0  0  0  0
  196.4200  174.2330  142.3350 O   0  0  0  0  0  0  0  0  0  0  0  0
  195.0180  174.4560  144.5770 N   0  0  0  0  0  0  0  0  0  0  0  0
  194.1800  175.3810  145.2940 C   0  0  0  0  0  0  0  0  0  0  0  0
  194.4310  175.6570  146.5000 O   0  0  0  0  0  0  0  0  0  0  0  0
  195.4480  172.3560  145.7640 C   0  0  0  0  0  2  0  0  0  0  0  0
  196.0310  173.6810  145.2940 C   0  0  0  0  0  3  0  0  0  0  0  0
  196.3330  172.3920  144.5440 C   0  0  0  0  0  2  0  0  0  0  0  0
  192.9830  176.0060  144.6480 C   0  0  0  0  0  2  0  0  0  0  0  0
  191.8100  175.9750  145.5680 C   0  0  0  0  0  0  0  0  0  0  0  0
  190.2070  174.7370  146.8740 C   0  0  0  0  0  3  0  0  0  0  0  0
  190.0710  177.1080  146.7950 C   0  0  0  0  0  3  0  0  0  0  0  0
  189.6100  175.9050  147.2360 N   0  0  0  0  0  0  0  0  0  0  0  0
  191.1810  177.1640  145.9500 C   0  0  0  0  0  3  0  0  0  0  0  0
  191.3190  174.7500  146.0290 C   0  0  0  0  0  3  0  0  0  0  0  0
  189.8130  174.2880  141.1940 C   0  0  2  0  0  3  0  0  0  0  0  0
  185.5730  178.8300  143.2350 C   0  0  1  0  0  3  0  0  0  0  0  0
  188.8580  175.1770  141.9390 C   0  0  0  0  0  0  0  0  0  0  0  0
  187.1410  176.8670  143.3250 C   0  0  0  0  0  0  0  0  0  0  0  0
  185.0640  178.2470  141.9210 C   0  0  0  0  0  2  0  0  0  0  0  0
  184.5160  179.4270  143.9210 O   0  0  0  0  0  1  0  0  0  0  0  0
  187.1220  176.8050  141.9150 C   0  0  0  0  0  0  0  0  0  0  0  0
  186.1640  177.7150  144.0920 C   0  0  0  0  0  2  0  0  0  0  0  0
  186.2390  177.7150  141.1050 C   0  0  0  0  0  2  0  0  0  0  0  0
  187.9890  175.9840  141.2660 N   0  0  0  0  0  0  0  0  0  0  0  0
  188.8950  175.2030  143.3350 C   0  0  0  0  0  3  0  0  0  0  0  0
  188.0280  176.0490  144.0280 C   0  0  0  0  0  3  0  0  0  0  0  0
  189.2440  172.8850  140.9960 C   0  0  0  0  0  2  0  0  0  0  0  0
  189.2660  172.8930  137.2860 C   0  0  0  0  0  3  0  0  0  0  0  0
  189.6990  171.5160  136.9950 C   0  0  0  0  0  0  0  0  0  0  0  0
  190.1930  171.1850  139.4160 C   0  0  0  0  0  2  0  0  0  0  0  0
  189.1470  173.3140  138.5440 C   0  0  0  0  0  3  0  0  0  0  0  0
  189.4540  172.4300  139.6310 N   0  0  0  0  0  0  0  0  0  0  0  0
  190.0940  170.7090  137.9920 C   0  0  0  0  0  3  0  0  0  0  0  0
  189.3180  171.9160  134.5780 C   0  0  0  0  0  1  0  0  0  0  0  0
  189.6660  171.0730  135.6690 O   0  0  0  0  0  0  0  0  0  0  0  0
  2  8  1  1  0  0  0
  2  1  1  0  0  0  0
  3  1  1  0  0  0  0
  4  5  1  0  0  0  0
  4  2  1  0  0  0  0
  5  6  1  0  0  0  0
  6 23  1  6  0  0  0
  6  3  1  0  0  0  0
  7  8  2  0  0  0  0
  8 10  1  0  0  0  0
  9  8  2  0  0  0  0
 10 14  1  0  0  0  0
 10 11  1  0  0  0  0
 11 12  2  0  0  0  0
 14 13  1  0  0  0  0
 15 14  1  0  0  0  0
 15 13  1  0  0  0  0
 16 11  1  0  0  0  0
 16 17  1  0  0  0  0
 17 21  2  0  0  0  0
 17 22  1  0  0  0  0
 18 20  1  0  0  0  0
 19 20  2  0  0  0  0
 21 19  1  0  0  0  0
 22 18  2  0  0  0  0
 23 35  1  1  0  0  0
 23 25  1  0  0  0  0
 24 28  1  1  0  0  0
 24 30  1  0  0  0  0
 25 33  1  0  0  0  0
 26 34  1  0  0  0  0
 26 30  1  0  0  0  0
 27 24  1  0  0  0  0
 29 26  2  0  0  0  0
 31 29  1  0  0  0  0
 31 27  1  0  0  0  0
 32 29  1  0  0  0  0
 32 25  2  0  0  0  0
 33 34  2  0  0  0  0
 36 39  2  0  0  0  0
 37 36  1  0  0  0  0
 37 41  2  0  0  0  0
 38 40  1  0  0  0  0
 39 40  1  0  0  0  0
 40 35  1  0  0  0  0
 41 38  1  0  0  0  0
 42 43  1  0  0  0  0
 43 37  1  0  0  0  0
M  END
>  <MODEL>
9

>  <REMARK>
 VINA RESULT:      -6.2      2.151      6.597
  Name = 
  10 active torsions:
  status: ('A' for Active; 'I' for Inactive)
    1  A    between atoms: C_1  and  C_34
    2  A    between atoms: C_1  and  N_35
    3  A    between atoms: N_4  and  S_12
    4  A    between atoms: N_4  and  C_15
    5  A    between atoms: C_6  and  S_12
    6  A    between atoms: C_8  and  C_34
    7  A    between atoms: C_11  and  C_14
    8  A    between atoms: C_14  and  C_22
    9  A    between atoms: C_19  and  O_37
   10  A    between atoms: C_34  and  C_38
                            x       y       z     vdW  Elec       q    Type
                         _______ _______ _______ _____ _____    ______ ____

>  <TORSDO>
F 10

$$$$
