=
 OpenBabel11052417303D

 25 28  0  0  0  0  0  0  0  0999 V2000
  186.4960  177.0300  144.0470 C   0  0  0  0  0  0  0  0  0  0  0  0
  187.6660  176.2720  144.1700 C   0  0  0  0  0  0  0  0  0  0  0  0
  186.6560  176.8490  141.6400 C   0  0  0  0  0  3  0  0  0  0  0  0
  185.6720  177.5970  145.0270 C   0  0  0  0  0  0  0  0  0  0  0  0
  184.4620  178.4350  146.7060 C   0  0  0  0  0  3  0  0  0  0  0  0
  187.7680  176.1270  141.7820 O   0  0  0  0  0  0  0  0  0  0  0  0
  184.6170  178.2710  144.5250 C   0  0  0  0  0  0  0  0  0  0  0  0
  183.8300  178.8120  145.5140 C   0  0  0  0  0  3  0  0  0  0  0  0
  189.4590  175.0600  143.0750 C   0  0  0  0  0  0  0  0  0  0  0  0
  190.1540  174.5600  141.8560 C   0  0  0  0  0  1  0  0  0  0  0  0
  188.2050  175.9610  145.3780 N   0  0  0  0  0  0  0  0  0  0  0  0
  186.5260  177.1050  147.4090 C   0  0  0  0  0  1  0  0  0  0  0  0
  186.0010  177.3140  142.7740 C   0  0  0  0  0  0  0  0  0  0  0  0
  184.5780  178.2440  142.8420 S   0  0  0  0  0  0  0  0  0  0  0  0
  189.9860  174.7570  144.3330 C   0  0  0  0  0  3  0  0  0  0  0  0
  185.5990  177.6840  146.4000 C   0  0  0  0  0  0  0  0  0  0  0  0
  189.3430  175.2240  145.4830 C   0  0  0  0  0  0  0  0  0  0  0  0
  188.2890  175.8250  142.9780 C   0  0  0  0  0  0  0  0  0  0  0  0
  189.8890  174.8870  146.8250 C   0  0  0  0  0  2  0  0  0  0  0  0
  191.4050  174.8400  146.7700 C   0  0  0  0  0  2  0  0  0  0  0  0
  191.9660  176.1840  147.1010 C   0  0  0  0  0  0  0  0  0  0  0  0
  191.4270  176.8650  148.0110 O   0  0  0  0  0  0  0  0  0  0  0  0
  193.0560  176.7150  146.4060 O   0  0  0  0  0  0  0  0  0  0  0  0
  193.1050  176.7530  145.0140 C   0  0  0  0  0  3  0  0  0  0  0  0
  192.2750  177.4500  144.3750 O   0  0  0  0  0  0  0  0  0  0  0  0
  1  2  1  0  0  0  0
  1  4  2  0  0  0  0
  2 11  1  0  0  0  0
  3  6  1  0  0  0  0
  3 13  2  0  0  0  0
  4 16  1  0  0  0  0
  6 18  1  0  0  0  0
  7  4  1  0  0  0  0
  7  8  2  0  0  0  0
  8  5  1  0  0  0  0
  9 15  2  0  0  0  0
 10  9  1  0  0  0  0
 11 17  2  0  0  0  0
 13 14  1  0  0  0  0
 13  1  1  0  0  0  0
 14  7  1  0  0  0  0
 15 17  1  0  0  0  0
 16  5  2  0  0  0  0
 16 12  1  0  0  0  0
 17 19  1  0  0  0  0
 18  9  1  0  0  0  0
 18  2  2  0  0  0  0
 20 19  1  0  0  0  0
 20 21  1  0  0  0  0
 21 22  2  0  0  0  0
 23 21  1  0  0  0  0
 24 23  1  0  0  0  0
 25 24  2  0  0  0  0
M  END
>  <MODEL>
1

>  <REMARK>
 VINA RESULT:      -7.2      0.000      0.000
  Name = 
  5 active torsions:
  status: ('A' for Active; 'I' for Inactive)
    1  A    between atoms: C_2  and  O_12
    2  A    between atoms: C_6  and  C_15
    3  A    between atoms: C_6  and  C_23
    4  A    between atoms: O_12  and  C_21
    5  A    between atoms: C_15  and  C_21
                            x       y       z     vdW  Elec       q    Type
                         _______ _______ _______ _____ _____    ______ ____

>  <TORSDO>
F 5

$$$$
=
 OpenBabel11052417303D

 25 28  0  0  0  0  0  0  0  0999 V2000
  187.3230  178.0700  144.0620 C   0  0  0  0  0  0  0  0  0  0  0  0
  188.6290  177.7110  144.4150 C   0  0  0  0  0  0  0  0  0  0  0  0
  188.0200  178.2510  141.7520 C   0  0  0  0  0  3  0  0  0  0  0  0
  186.1760  178.2190  144.8510 C   0  0  0  0  0  0  0  0  0  0  0  0
  184.4400  178.4130  146.2420 C   0  0  0  0  0  3  0  0  0  0  0  0
  189.2560  177.9060  142.1130 O   0  0  0  0  0  0  0  0  0  0  0  0
  185.0800  178.5820  144.1510 C   0  0  0  0  0  0  0  0  0  0  0  0
  183.9750  178.7170  144.9560 C   0  0  0  0  0  3  0  0  0  0  0  0
  190.9080  177.2760  143.7080 C   0  0  0  0  0  0  0  0  0  0  0  0
  191.9630  177.1790  142.6610 C   0  0  0  0  0  1  0  0  0  0  0  0
  188.9850  177.4380  145.6980 N   0  0  0  0  0  0  0  0  0  0  0  0
  186.6430  177.7290  147.3380 C   0  0  0  0  0  1  0  0  0  0  0  0
  187.0300  178.3390  142.7240 C   0  0  0  0  0  0  0  0  0  0  0  0
  185.3950  178.7550  142.5070 S   0  0  0  0  0  0  0  0  0  0  0  0
  191.2400  177.0010  145.0370 C   0  0  0  0  0  3  0  0  0  0  0  0
  185.8010  178.1060  146.1720 C   0  0  0  0  0  0  0  0  0  0  0  0
  190.2580  177.0930  146.0270 C   0  0  0  0  0  0  0  0  0  0  0  0
  189.5950  177.6370  143.3800 C   0  0  0  0  0  0  0  0  0  0  0  0
  190.6000  176.7810  147.4410 C   0  0  0  0  0  2  0  0  0  0  0  0
  190.7950  175.2850  147.6090 C   0  0  0  0  0  2  0  0  0  0  0  0
  189.5640  174.5610  147.1720 C   0  0  0  0  0  0  0  0  0  0  0  0
  188.5220  174.6510  147.8700 O   0  0  0  0  0  0  0  0  0  0  0  0
  189.5500  173.7650  146.0240 O   0  0  0  0  0  0  0  0  0  0  0  0
  190.6830  173.5760  145.2340 C   0  0  0  0  0  3  0  0  0  0  0  0
  190.6070  173.7060  143.9860 O   0  0  0  0  0  0  0  0  0  0  0  0
  1  2  1  0  0  0  0
  1  4  2  0  0  0  0
  2 11  1  0  0  0  0
  3  6  1  0  0  0  0
  3 13  2  0  0  0  0
  4 16  1  0  0  0  0
  6 18  1  0  0  0  0
  7  4  1  0  0  0  0
  7  8  2  0  0  0  0
  8  5  1  0  0  0  0
  9 15  2  0  0  0  0
 10  9  1  0  0  0  0
 11 17  2  0  0  0  0
 13  1  1  0  0  0  0
 14 13  1  0  0  0  0
 14  7  1  0  0  0  0
 15 17  1  0  0  0  0
 16  5  2  0  0  0  0
 16 12  1  0  0  0  0
 17 19  1  0  0  0  0
 18  9  1  0  0  0  0
 18  2  2  0  0  0  0
 19 20  1  0  0  0  0
 21 20  1  0  0  0  0
 21 22  2  0  0  0  0
 23 21  1  0  0  0  0
 24 23  1  0  0  0  0
 25 24  2  0  0  0  0
M  END
>  <MODEL>
2

>  <REMARK>
 VINA RESULT:      -7.1      2.070      2.360
  Name = 
  5 active torsions:
  status: ('A' for Active; 'I' for Inactive)
    1  A    between atoms: C_2  and  O_12
    2  A    between atoms: C_6  and  C_15
    3  A    between atoms: C_6  and  C_23
    4  A    between atoms: O_12  and  C_21
    5  A    between atoms: C_15  and  C_21
                            x       y       z     vdW  Elec       q    Type
                         _______ _______ _______ _____ _____    ______ ____

>  <TORSDO>
F 5

$$$$
=
 OpenBabel11052417303D

 25 28  0  0  0  0  0  0  0  0999 V2000
  186.7320  177.7420  144.1410 C   0  0  0  0  0  0  0  0  0  0  0  0
  185.9710  177.8140  142.9690 C   0  0  0  0  0  0  0  0  0  0  0  0
  188.6710  177.1490  142.8220 C   0  0  0  0  0  3  0  0  0  0  0  0
  186.3690  177.9590  145.4770 C   0  0  0  0  0  0  0  0  0  0  0  0
  185.6330  178.3390  147.5500 C   0  0  0  0  0  3  0  0  0  0  0  0
  187.9260  177.2250  141.7190 O   0  0  0  0  0  0  0  0  0  0  0  0
  187.3850  177.7950  146.3480 C   0  0  0  0  0  0  0  0  0  0  0  0
  186.9930  178.0160  147.6470 C   0  0  0  0  0  3  0  0  0  0  0  0
  185.8860  177.6110  140.5540 C   0  0  0  0  0  0  0  0  0  0  0  0
  186.5230  177.3390  139.2340 C   0  0  0  0  0  1  0  0  0  0  0  0
  184.6500  178.1320  142.9800 N   0  0  0  0  0  0  0  0  0  0  0  0
  183.8800  178.5910  145.7100 C   0  0  0  0  0  1  0  0  0  0  0  0
  188.0840  177.4070  144.0550 C   0  0  0  0  0  0  0  0  0  0  0  0
  188.8260  177.3740  145.5860 S   0  0  0  0  0  0  0  0  0  0  0  0
  184.5300  177.9430  140.6000 C   0  0  0  0  0  3  0  0  0  0  0  0
  185.2520  178.3020  146.2070 C   0  0  0  0  0  0  0  0  0  0  0  0
  183.9220  178.1970  141.8330 C   0  0  0  0  0  0  0  0  0  0  0  0
  186.6260  177.5410  141.7410 C   0  0  0  0  0  0  0  0  0  0  0  0
  182.4830  178.5700  141.8870 C   0  0  0  0  0  2  0  0  0  0  0  0
  181.7590  178.0160  140.6730 C   0  0  0  0  0  2  0  0  0  0  0  0
  180.3260  178.4340  140.7040 C   0  0  0  0  0  0  0  0  0  0  0  0
  179.6200  178.2720  139.6750 O   0  0  0  0  0  0  0  0  0  0  0  0
  179.7590  179.0280  141.8340 O   0  0  0  0  0  0  0  0  0  0  0  0
  178.9040  178.3350  142.6890 C   0  0  0  0  0  3  0  0  0  0  0  0
  178.7190  177.1020  142.5290 O   0  0  0  0  0  0  0  0  0  0  0  0
  1  4  2  0  0  0  0
  2 11  1  0  0  0  0
  2  1  1  0  0  0  0
  3 13  2  0  0  0  0
  4 16  1  0  0  0  0
  4  7  1  0  0  0  0
  5  8  1  0  0  0  0
  6 18  1  0  0  0  0
  6  3  1  0  0  0  0
  7  8  2  0  0  0  0
  9 15  2  0  0  0  0
  9 18  1  0  0  0  0
 10  9  1  0  0  0  0
 12 16  1  0  0  0  0
 13  1  1  0  0  0  0
 13 14  1  0  0  0  0
 14  7  1  0  0  0  0
 15 17  1  0  0  0  0
 16  5  2  0  0  0  0
 17 19  1  0  0  0  0
 17 11  2  0  0  0  0
 18  2  2  0  0  0  0
 20 21  1  0  0  0  0
 20 19  1  0  0  0  0
 21 23  1  0  0  0  0
 22 21  2  0  0  0  0
 23 24  1  0  0  0  0
 25 24  2  0  0  0  0
M  END
>  <MODEL>
3

>  <REMARK>
 VINA RESULT:      -6.9      4.073      7.753
  Name = 
  5 active torsions:
  status: ('A' for Active; 'I' for Inactive)
    1  A    between atoms: C_2  and  O_12
    2  A    between atoms: C_6  and  C_15
    3  A    between atoms: C_6  and  C_23
    4  A    between atoms: O_12  and  C_21
    5  A    between atoms: C_15  and  C_21
                            x       y       z     vdW  Elec       q    Type
                         _______ _______ _______ _____ _____    ______ ____

>  <TORSDO>
F 5

$$$$
=
 OpenBabel11052417303D

 25 28  0  0  0  0  0  0  0  0999 V2000
  187.1680  176.8480  143.0160 C   0  0  0  0  0  0  0  0  0  0  0  0
  187.2270  176.9230  144.4120 C   0  0  0  0  0  0  0  0  0  0  0  0
  185.7480  178.8060  142.9900 C   0  0  0  0  0  3  0  0  0  0  0  0
  187.7570  175.9380  142.1280 C   0  0  0  0  0  0  0  0  0  0  0  0
  188.7640  174.4120  140.8470 C   0  0  0  0  0  3  0  0  0  0  0  0
  185.8200  178.8580  144.3210 O   0  0  0  0  0  0  0  0  0  0  0  0
  187.4720  176.1840  140.8320 C   0  0  0  0  0  0  0  0  0  0  0  0
  188.0660  175.2730  139.9910 C   0  0  0  0  0  3  0  0  0  0  0  0
  186.5660  178.0740  146.4420 C   0  0  0  0  0  0  0  0  0  0  0  0
  185.8450  179.1620  147.1600 C   0  0  0  0  0  1  0  0  0  0  0  0
  187.9310  176.0320  145.1580 N   0  0  0  0  0  0  0  0  0  0  0  0
  189.1580  174.1570  143.3580 C   0  0  0  0  0  1  0  0  0  0  0  0
  186.4230  177.7960  142.3150 C   0  0  0  0  0  0  0  0  0  0  0  0
  186.4800  177.5290  140.6350 S   0  0  0  0  0  0  0  0  0  0  0  0
  187.3010  177.1420  147.1790 C   0  0  0  0  0  3  0  0  0  0  0  0
  188.5690  174.8270  142.1670 C   0  0  0  0  0  0  0  0  0  0  0  0
  187.9780  176.1160  146.5140 C   0  0  0  0  0  0  0  0  0  0  0  0
  186.5190  177.9750  145.0450 C   0  0  0  0  0  0  0  0  0  0  0  0
  188.7790  175.1320  147.2920 C   0  0  0  0  0  2  0  0  0  0  0  0
  190.1300  174.9270  146.6320 C   0  0  0  0  0  2  0  0  0  0  0  0
  191.0340  176.0690  146.9620 C   0  0  0  0  0  0  0  0  0  0  0  0
  191.0680  176.5000  148.1440 O   0  0  0  0  0  0  0  0  0  0  0  0
  191.8200  176.6880  145.9880 O   0  0  0  0  0  0  0  0  0  0  0  0
  191.3480  176.9450  144.7020 C   0  0  0  0  0  3  0  0  0  0  0  0
  190.6190  177.9490  144.4900 O   0  0  0  0  0  0  0  0  0  0  0  0
  1  2  1  0  0  0  0
  2 18  2  0  0  0  0
  2 11  1  0  0  0  0
  3  6  1  0  0  0  0
  4 16  1  0  0  0  0
  4  1  2  0  0  0  0
  5 16  2  0  0  0  0
  6 18  1  0  0  0  0
  7  4  1  0  0  0  0
  8  7  2  0  0  0  0
  8  5  1  0  0  0  0
  9 10  1  0  0  0  0
  9 15  2  0  0  0  0
 11 17  2  0  0  0  0
 13  3  2  0  0  0  0
 13  1  1  0  0  0  0
 14  7  1  0  0  0  0
 14 13  1  0  0  0  0
 16 12  1  0  0  0  0
 17 15  1  0  0  0  0
 17 19  1  0  0  0  0
 18  9  1  0  0  0  0
 20 21  1  0  0  0  0
 20 19  1  0  0  0  0
 21 22  2  0  0  0  0
 23 21  1  0  0  0  0
 24 23  1  0  0  0  0
 25 24  2  0  0  0  0
M  END
>  <MODEL>
4

>  <REMARK>
 VINA RESULT:      -6.7      1.641      4.101
  Name = 
  5 active torsions:
  status: ('A' for Active; 'I' for Inactive)
    1  A    between atoms: C_2  and  O_12
    2  A    between atoms: C_6  and  C_15
    3  A    between atoms: C_6  and  C_23
    4  A    between atoms: O_12  and  C_21
    5  A    between atoms: C_15  and  C_21
                            x       y       z     vdW  Elec       q    Type
                         _______ _______ _______ _____ _____    ______ ____

>  <TORSDO>
F 5

$$$$
=
 OpenBabel11052417303D

 25 28  0  0  0  0  0  0  0  0999 V2000
  186.4130  177.1360  144.8670 C   0  0  0  0  0  0  0  0  0  0  0  0
  187.6000  176.3950  144.8690 C   0  0  0  0  0  0  0  0  0  0  0  0
  186.4500  177.1650  147.2850 C   0  0  0  0  0  3  0  0  0  0  0  0
  185.6330  177.6020  143.8000 C   0  0  0  0  0  0  0  0  0  0  0  0
  184.5030  178.2750  141.9960 C   0  0  0  0  0  3  0  0  0  0  0  0
  187.5820  176.4590  147.2620 O   0  0  0  0  0  0  0  0  0  0  0  0
  184.5400  178.2920  144.1890 C   0  0  0  0  0  0  0  0  0  0  0  0
  183.8010  178.7340  143.1180 C   0  0  0  0  0  3  0  0  0  0  0  0
  189.3610  175.3300  146.1530 C   0  0  0  0  0  0  0  0  0  0  0  0
  190.0070  174.9620  147.4440 C   0  0  0  0  0  1  0  0  0  0  0  0
  188.2050  175.9910  143.7210 N   0  0  0  0  0  0  0  0  0  0  0  0
  186.6290  176.9430  141.5160 C   0  0  0  0  0  1  0  0  0  0  0  0
  185.8460  177.5160  146.0840 C   0  0  0  0  0  0  0  0  0  0  0  0
  184.4130  178.4060  145.8640 S   0  0  0  0  0  0  0  0  0  0  0  0
  189.9580  174.9320  144.9550 C   0  0  0  0  0  3  0  0  0  0  0  0
  185.6350  177.5760  142.4230 C   0  0  0  0  0  0  0  0  0  0  0  0
  189.3580  175.2690  143.7380 C   0  0  0  0  0  0  0  0  0  0  0  0
  188.1700  176.0680  146.1250 C   0  0  0  0  0  0  0  0  0  0  0  0
  189.9990  174.8650  142.4580 C   0  0  0  0  0  2  0  0  0  0  0  0
  189.7070  173.4030  142.1720 C   0  0  0  0  0  2  0  0  0  0  0  0
  188.4050  173.2780  141.4510 C   0  0  0  0  0  0  0  0  0  0  0  0
  187.4540  172.6700  142.0070 O   0  0  0  0  0  0  0  0  0  0  0  0
  188.2270  173.7930  140.1650 O   0  0  0  0  0  0  0  0  0  0  0  0
  188.1920  172.9790  139.0350 C   0  0  0  0  0  3  0  0  0  0  0  0
  188.8860  171.9310  138.9940 O   0  0  0  0  0  0  0  0  0  0  0  0
  1  2  1  0  0  0  0
  1 13  1  0  0  0  0
  2 18  1  0  0  0  0
  4  7  1  0  0  0  0
  4  1  2  0  0  0  0
  5 16  2  0  0  0  0
  5  8  1  0  0  0  0
  6  3  1  0  0  0  0
  7 14  1  0  0  0  0
  8  7  2  0  0  0  0
  9 10  1  0  0  0  0
 11 17  1  0  0  0  0
 11  2  2  0  0  0  0
 12 16  1  0  0  0  0
 13  3  2  0  0  0  0
 14 13  1  0  0  0  0
 15  9  1  0  0  0  0
 16  4  1  0  0  0  0
 17 15  2  0  0  0  0
 18  9  2  0  0  0  0
 18  6  1  0  0  0  0
 19 17  1  0  0  0  0
 20 19  1  0  0  0  0
 21 22  2  0  0  0  0
 21 20  1  0  0  0  0
 23 21  1  0  0  0  0
 24 23  1  0  0  0  0
 25 24  2  0  0  0  0
M  END
>  <MODEL>
5

>  <REMARK>
 VINA RESULT:      -6.7      2.294      4.917
  Name = 
  5 active torsions:
  status: ('A' for Active; 'I' for Inactive)
    1  A    between atoms: C_2  and  O_12
    2  A    between atoms: C_6  and  C_15
    3  A    between atoms: C_6  and  C_23
    4  A    between atoms: O_12  and  C_21
    5  A    between atoms: C_15  and  C_21
                            x       y       z     vdW  Elec       q    Type
                         _______ _______ _______ _____ _____    ______ ____

>  <TORSDO>
F 5

$$$$
=
 OpenBabel11052417303D

 25 28  0  0  0  0  0  0  0  0999 V2000
  186.7010  177.2210  144.0640 C   0  0  0  0  0  0  0  0  0  0  0  0
  187.5960  176.2740  143.5530 C   0  0  0  0  0  0  0  0  0  0  0  0
  185.7880  177.5270  141.8450 C   0  0  0  0  0  3  0  0  0  0  0  0
  186.5270  177.6950  145.3710 C   0  0  0  0  0  0  0  0  0  0  0  0
  186.3710  178.3460  147.5010 C   0  0  0  0  0  3  0  0  0  0  0  0
  186.6490  176.6200  141.3810 O   0  0  0  0  0  0  0  0  0  0  0  0
  185.5530  178.6220  145.4850 C   0  0  0  0  0  0  0  0  0  0  0  0
  185.4080  179.0630  146.7790 C   0  0  0  0  0  3  0  0  0  0  0  0
  188.4170  175.0440  141.6300 C   0  0  0  0  0  0  0  0  0  0  0  0
  188.3940  174.7060  140.1790 C   0  0  0  0  0  1  0  0  0  0  0  0
  188.5000  175.6320  144.3380 N   0  0  0  0  0  0  0  0  0  0  0  0
  188.1560  176.5810  147.0290 C   0  0  0  0  0  1  0  0  0  0  0  0
  185.8010  177.8430  143.1980 C   0  0  0  0  0  0  0  0  0  0  0  0
  184.8060  178.9570  144.0140 S   0  0  0  0  0  0  0  0  0  0  0  0
  189.3330  174.4020  142.4660 C   0  0  0  0  0  3  0  0  0  0  0  0
  187.0590  177.5020  146.6260 C   0  0  0  0  0  0  0  0  0  0  0  0
  189.3640  174.7150  143.8280 C   0  0  0  0  0  0  0  0  0  0  0  0
  187.5350  175.9930  142.1650 C   0  0  0  0  0  0  0  0  0  0  0  0
  190.3250  174.0190  144.7260 C   0  0  0  0  0  2  0  0  0  0  0  0
  191.7360  174.5010  144.4470 C   0  0  0  0  0  2  0  0  0  0  0  0
  191.9130  175.8870  144.9740 C   0  0  0  0  0  0  0  0  0  0  0  0
  191.6190  176.1270  146.1730 O   0  0  0  0  0  0  0  0  0  0  0  0
  192.3680  176.9290  144.1620 O   0  0  0  0  0  0  0  0  0  0  0  0
  191.6770  177.3430  143.0250 C   0  0  0  0  0  3  0  0  0  0  0  0
  190.6370  178.0420  143.1420 O   0  0  0  0  0  0  0  0  0  0  0  0
  1  4  2  0  0  0  0
  2  1  1  0  0  0  0
  2 11  1  0  0  0  0
  3 13  2  0  0  0  0
  4  7  1  0  0  0  0
  4 16  1  0  0  0  0
  6  3  1  0  0  0  0
  6 18  1  0  0  0  0
  7  8  2  0  0  0  0
  8  5  1  0  0  0  0
  9 18  1  0  0  0  0
  9 15  2  0  0  0  0
 10  9  1  0  0  0  0
 13 14  1  0  0  0  0
 13  1  1  0  0  0  0
 14  7  1  0  0  0  0
 15 17  1  0  0  0  0
 16 12  1  0  0  0  0
 16  5  2  0  0  0  0
 17 11  2  0  0  0  0
 17 19  1  0  0  0  0
 18  2  2  0  0  0  0
 20 19  1  0  0  0  0
 20 21  1  0  0  0  0
 21 22  2  0  0  0  0
 23 21  1  0  0  0  0
 24 25  2  0  0  0  0
 24 23  1  0  0  0  0
M  END
>  <MODEL>
6

>  <REMARK>
 VINA RESULT:      -6.7      1.368      1.755
  Name = 
  5 active torsions:
  status: ('A' for Active; 'I' for Inactive)
    1  A    between atoms: C_2  and  O_12
    2  A    between atoms: C_6  and  C_15
    3  A    between atoms: C_6  and  C_23
    4  A    between atoms: O_12  and  C_21
    5  A    between atoms: C_15  and  C_21
                            x       y       z     vdW  Elec       q    Type
                         _______ _______ _______ _____ _____    ______ ____

>  <TORSDO>
F 5

$$$$
=
 OpenBabel11052417303D

 25 28  0  0  0  0  0  0  0  0999 V2000
  186.6740  177.9170  144.7300 C   0  0  0  0  0  0  0  0  0  0  0  0
  188.0210  177.5680  144.8770 C   0  0  0  0  0  0  0  0  0  0  0  0
  186.4910  178.1430  147.1310 C   0  0  0  0  0  3  0  0  0  0  0  0
  185.8880  178.0430  143.5780 C   0  0  0  0  0  0  0  0  0  0  0  0
  184.7710  178.2040  141.6510 C   0  0  0  0  0  3  0  0  0  0  0  0
  187.7780  177.8100  147.2460 O   0  0  0  0  0  0  0  0  0  0  0  0
  184.6110  178.4010  143.8290 C   0  0  0  0  0  0  0  0  0  0  0  0
  183.8700  178.5170  142.6770 C   0  0  0  0  0  3  0  0  0  0  0  0
  189.8990  177.1840  146.3640 C   0  0  0  0  0  0  0  0  0  0  0  0
  190.5100  177.1280  147.7220 C   0  0  0  0  0  1  0  0  0  0  0  0
  188.8160  177.2760  143.8130 N   0  0  0  0  0  0  0  0  0  0  0  0
  187.2270  177.5370  141.4340 C   0  0  0  0  0  1  0  0  0  0  0  0
  185.9170  178.2020  145.8670 C   0  0  0  0  0  0  0  0  0  0  0  0
  184.3110  178.6010  145.4740 S   0  0  0  0  0  0  0  0  0  0  0  0
  190.6880  176.8910  145.2490 C   0  0  0  0  0  3  0  0  0  0  0  0
  186.0160  177.9120  142.2130 C   0  0  0  0  0  0  0  0  0  0  0  0
  190.1230  176.9370  143.9710 C   0  0  0  0  0  0  0  0  0  0  0  0
  188.5510  177.5260  146.1910 C   0  0  0  0  0  0  0  0  0  0  0  0
  190.9630  176.6460  142.7790 C   0  0  0  0  0  2  0  0  0  0  0  0
  191.3020  175.1670  142.7330 C   0  0  0  0  0  2  0  0  0  0  0  0
  190.0740  174.3750  142.4220 C   0  0  0  0  0  0  0  0  0  0  0  0
  189.5750  174.4480  141.2700 O   0  0  0  0  0  0  0  0  0  0  0  0
  189.4500  173.5800  143.3870 O   0  0  0  0  0  0  0  0  0  0  0  0
  190.0840  173.2090  144.5710 C   0  0  0  0  0  3  0  0  0  0  0  0
  189.6900  173.6820  145.6680 O   0  0  0  0  0  0  0  0  0  0  0  0
  1  2  1  0  0  0  0
  1 13  1  0  0  0  0
  2 18  1  0  0  0  0
  3  6  1  0  0  0  0
  4  7  1  0  0  0  0
  4  1  2  0  0  0  0
  5 16  2  0  0  0  0
  5  8  1  0  0  0  0
  7 14  1  0  0  0  0
  8  7  2  0  0  0  0
  9 10  1  0  0  0  0
 11 17  1  0  0  0  0
 11  2  2  0  0  0  0
 12 16  1  0  0  0  0
 13  3  2  0  0  0  0
 14 13  1  0  0  0  0
 15  9  1  0  0  0  0
 16  4  1  0  0  0  0
 17 15  2  0  0  0  0
 18  9  2  0  0  0  0
 18  6  1  0  0  0  0
 19 17  1  0  0  0  0
 20 19  1  0  0  0  0
 21 20  1  0  0  0  0
 21 23  1  0  0  0  0
 22 21  2  0  0  0  0
 23 24  1  0  0  0  0
 24 25  2  0  0  0  0
M  END
>  <MODEL>
7

>  <REMARK>
 VINA RESULT:      -6.6      2.259      4.287
  Name = 
  5 active torsions:
  status: ('A' for Active; 'I' for Inactive)
    1  A    between atoms: C_2  and  O_12
    2  A    between atoms: C_6  and  C_15
    3  A    between atoms: C_6  and  C_23
    4  A    between atoms: O_12  and  C_21
    5  A    between atoms: C_15  and  C_21
                            x       y       z     vdW  Elec       q    Type
                         _______ _______ _______ _____ _____    ______ ____

>  <TORSDO>
F 5

$$$$
=
 OpenBabel11052417303D

 25 28  0  0  0  0  0  0  0  0999 V2000
  185.8990  177.6060  144.2340 C   0  0  0  0  0  0  0  0  0  0  0  0
  186.6790  177.0040  143.2410 C   0  0  0  0  0  0  0  0  0  0  0  0
  184.5140  178.5980  142.5170 C   0  0  0  0  0  3  0  0  0  0  0  0
  186.0060  177.5570  145.6300 C   0  0  0  0  0  0  0  0  0  0  0  0
  186.3100  177.3760  147.8350 C   0  0  0  0  0  3  0  0  0  0  0  0
  185.2710  178.0120  141.5880 O   0  0  0  0  0  0  0  0  0  0  0  0
  185.0620  178.2760  146.2720 C   0  0  0  0  0  0  0  0  0  0  0  0
  185.1960  178.2030  147.6380 C   0  0  0  0  0  3  0  0  0  0  0  0
  187.0840  176.6410  140.8770 C   0  0  0  0  0  0  0  0  0  0  0  0
  186.7500  176.8480  139.4400 C   0  0  0  0  0  1  0  0  0  0  0  0
  187.7480  176.2180  143.5350 N   0  0  0  0  0  0  0  0  0  0  0  0
  187.9840  176.0920  146.3960 C   0  0  0  0  0  1  0  0  0  0  0  0
  184.8170  178.4040  143.8590 C   0  0  0  0  0  0  0  0  0  0  0  0
  184.0030  179.0410  145.2100 S   0  0  0  0  0  0  0  0  0  0  0  0
  188.1750  175.8380  141.2140 C   0  0  0  0  0  3  0  0  0  0  0  0
  186.8060  176.9790  146.5910 C   0  0  0  0  0  0  0  0  0  0  0  0
  188.4980  175.6400  142.5590 C   0  0  0  0  0  0  0  0  0  0  0  0
  186.3200  177.2370  141.8890 C   0  0  0  0  0  0  0  0  0  0  0  0
  189.6480  174.7690  142.9250 C   0  0  0  0  0  2  0  0  0  0  0  0
  190.5500  175.4880  143.9110 C   0  0  0  0  0  2  0  0  0  0  0  0
  191.0760  174.5180  144.9170 C   0  0  0  0  0  0  0  0  0  0  0  0
  190.4920  173.4140  145.0660 O   0  0  0  0  0  0  0  0  0  0  0  0
  192.1810  174.8190  145.7170 O   0  0  0  0  0  0  0  0  0  0  0  0
  192.0720  175.5670  146.8870 C   0  0  0  0  0  3  0  0  0  0  0  0
  191.1790  175.2910  147.7290 O   0  0  0  0  0  0  0  0  0  0  0  0
  1  4  2  0  0  0  0
  2 11  1  0  0  0  0
  2  1  1  0  0  0  0
  3 13  2  0  0  0  0
  4  7  1  0  0  0  0
  4 16  1  0  0  0  0
  6 18  1  0  0  0  0
  6  3  1  0  0  0  0
  7  8  2  0  0  0  0
  8  5  1  0  0  0  0
  9 15  2  0  0  0  0
  9 18  1  0  0  0  0
 10  9  1  0  0  0  0
 12 16  1  0  0  0  0
 13  1  1  0  0  0  0
 13 14  1  0  0  0  0
 14  7  1  0  0  0  0
 15 17  1  0  0  0  0
 16  5  2  0  0  0  0
 17 19  1  0  0  0  0
 17 11  2  0  0  0  0
 18  2  2  0  0  0  0
 19 20  1  0  0  0  0
 20 21  1  0  0  0  0
 21 22  2  0  0  0  0
 21 23  1  0  0  0  0
 23 24  1  0  0  0  0
 24 25  2  0  0  0  0
M  END
>  <MODEL>
8

>  <REMARK>
 VINA RESULT:      -6.5      1.699      2.874
  Name = 
  5 active torsions:
  status: ('A' for Active; 'I' for Inactive)
    1  A    between atoms: C_2  and  O_12
    2  A    between atoms: C_6  and  C_15
    3  A    between atoms: C_6  and  C_23
    4  A    between atoms: O_12  and  C_21
    5  A    between atoms: C_15  and  C_21
                            x       y       z     vdW  Elec       q    Type
                         _______ _______ _______ _____ _____    ______ ____

>  <TORSDO>
F 5

$$$$
=
 OpenBabel11052417303D

 25 28  0  0  0  0  0  0  0  0999 V2000
  186.6990  177.7370  144.7570 C   0  0  0  0  0  0  0  0  0  0  0  0
  188.0370  177.3380  144.8500 C   0  0  0  0  0  0  0  0  0  0  0  0
  186.6440  178.0420  147.1560 C   0  0  0  0  0  3  0  0  0  0  0  0
  185.8620  177.8610  143.6400 C   0  0  0  0  0  0  0  0  0  0  0  0
  184.6590  178.0100  141.7650 C   0  0  0  0  0  3  0  0  0  0  0  0
  187.9200  177.6600  147.2200 O   0  0  0  0  0  0  0  0  0  0  0  0
  184.6150  178.2790  143.9420 C   0  0  0  0  0  0  0  0  0  0  0  0
  183.8230  178.3910  142.8230 C   0  0  0  0  0  3  0  0  0  0  0  0
  189.9680  176.9200  146.2570 C   0  0  0  0  0  0  0  0  0  0  0  0
  190.6420  176.8800  147.5850 C   0  0  0  0  0  1  0  0  0  0  0  0
  188.7650  176.9810  143.7600 N   0  0  0  0  0  0  0  0  0  0  0  0
  187.0730  177.2360  141.4520 C   0  0  0  0  0  1  0  0  0  0  0  0
  186.0110  178.0870  145.9190 C   0  0  0  0  0  0  0  0  0  0  0  0
  184.4040  178.5410  145.5910 S   0  0  0  0  0  0  0  0  0  0  0  0
  190.6890  176.5620  145.1160 C   0  0  0  0  0  3  0  0  0  0  0  0
  185.9180  177.6840  142.2760 C   0  0  0  0  0  0  0  0  0  0  0  0
  190.0640  176.5930  143.8660 C   0  0  0  0  0  0  0  0  0  0  0  0
  188.6280  177.3130  146.1390 C   0  0  0  0  0  0  0  0  0  0  0  0
  190.8330  176.2310  142.6450 C   0  0  0  0  0  2  0  0  0  0  0  0
  191.0680  174.7320  142.6060 C   0  0  0  0  0  2  0  0  0  0  0  0
  190.3600  174.1380  141.4330 C   0  0  0  0  0  0  0  0  0  0  0  0
  191.0250  173.5030  140.5740 O   0  0  0  0  0  0  0  0  0  0  0  0
  188.9840  174.2950  141.2500 O   0  0  0  0  0  0  0  0  0  0  0  0
  188.0490  173.5040  141.9140 C   0  0  0  0  0  3  0  0  0  0  0  0
  188.4010  172.4100  142.4230 O   0  0  0  0  0  0  0  0  0  0  0  0
  1  2  1  0  0  0  0
  1 13  1  0  0  0  0
  2 18  1  0  0  0  0
  3  6  1  0  0  0  0
  4  7  1  0  0  0  0
  4  1  2  0  0  0  0
  5 16  2  0  0  0  0
  5  8  1  0  0  0  0
  7 14  1  0  0  0  0
  8  7  2  0  0  0  0
  9 10  1  0  0  0  0
 11 17  1  0  0  0  0
 11  2  2  0  0  0  0
 12 16  1  0  0  0  0
 13  3  2  0  0  0  0
 14 13  1  0  0  0  0
 15  9  1  0  0  0  0
 16  4  1  0  0  0  0
 17 15  2  0  0  0  0
 18  9  2  0  0  0  0
 18  6  1  0  0  0  0
 19 17  1  0  0  0  0
 20 19  1  0  0  0  0
 21 20  1  0  0  0  0
 22 21  2  0  0  0  0
 23 21  1  0  0  0  0
 23 24  1  0  0  0  0
 24 25  2  0  0  0  0
M  END
>  <MODEL>
9

>  <REMARK>
 VINA RESULT:      -6.5      2.296      4.614
  Name = 
  5 active torsions:
  status: ('A' for Active; 'I' for Inactive)
    1  A    between atoms: C_2  and  O_12
    2  A    between atoms: C_6  and  C_15
    3  A    between atoms: C_6  and  C_23
    4  A    between atoms: O_12  and  C_21
    5  A    between atoms: C_15  and  C_21
                            x       y       z     vdW  Elec       q    Type
                         _______ _______ _______ _____ _____    ______ ____

>  <TORSDO>
F 5

$$$$
