=
 OpenBabel11052421323D

 32 36  0  0  0  0  0  0  0  0999 V2000
  181.0010  179.1590  142.2430 C   0  0  0  0  0  3  0  0  0  0  0  0
  185.9750  177.6600  143.1450 C   0  0  0  0  0  0  0  0  0  0  0  0
  186.4600  178.7180  147.8720 C   0  0  0  0  0  3  0  0  0  0  0  0
  187.7740  178.2510  147.8290 C   0  0  0  0  0  3  0  0  0  0  0  0
  183.9210  178.0600  141.9180 N   0  0  0  0  0  0  0  0  0  0  0  0
  184.1310  178.6090  144.3390 C   0  0  0  0  0  3  0  0  0  0  0  0
  182.0720  179.0410  143.2320 C   0  0  0  0  0  3  0  0  0  0  0  0
  185.6700  178.6910  146.7220 C   0  0  0  0  0  3  0  0  0  0  0  0
  185.3990  178.1660  144.3350 C   0  0  0  0  0  0  0  0  0  0  0  0
  186.1840  178.1960  145.5080 C   0  0  0  0  0  0  0  0  0  0  0  0
  188.0360  177.2240  144.2620 C   0  0  0  0  0  0  0  0  0  0  0  0
  182.1120  178.2530  140.2210 C   0  0  0  0  0  3  0  0  0  0  0  0
  183.3140  178.5800  143.1190 C   0  0  0  0  0  0  0  0  0  0  0  0
  183.3390  177.9280  140.6190 C   0  0  0  0  0  3  0  0  0  0  0  0
  180.9820  178.8350  140.9550 C   0  0  0  0  0  0  0  0  0  0  0  0
  188.3000  177.7570  146.6350 C   0  0  0  0  0  3  0  0  0  0  0  0
  187.5180  177.7210  145.4700 C   0  0  0  0  0  0  0  0  0  0  0  0
  185.2800  177.6080  142.0020 C   0  0  0  0  0  3  0  0  0  0  0  0
  187.2570  177.2110  143.1490 N   0  0  0  0  0  0  0  0  0  0  0  0
  179.2580  180.3460  139.7860 C   0  0  0  0  0  0  0  0  0  0  0  0
  179.7490  179.0870  140.2650 N   0  0  0  0  0  2  0  0  0  0  0  0
  179.9160  181.4080  139.9450 O   0  0  0  0  0  0  0  0  0  0  0  0
  178.0030  180.3960  139.1210 N   0  0  0  0  0  1  0  0  0  0  0  0
  189.4340  176.6920  144.1700 C   0  0  0  0  0  2  0  0  0  0  0  0
  189.6790  174.3760  145.1200 C   0  0  0  0  0  0  0  0  0  0  0  0
  189.2200  174.3920  142.9200 C   0  0  0  0  0  0  0  0  0  0  0  0
  189.3350  173.1060  143.2110 C   0  0  0  0  0  3  0  0  0  0  0  0
  189.6420  172.9540  144.6710 C   0  0  0  0  0  2  0  0  0  0  0  0
  188.9130  174.9110  141.5600 C   0  0  0  0  0  1  0  0  0  0  0  0
  189.4270  175.1940  144.1110 C   0  0  0  0  0  0  0  0  0  0  0  0
  189.9690  174.7870  146.4690 C   0  0  0  0  0  0  0  0  0  0  0  0
  190.2030  175.1160  147.5540 N   0  0  0  0  0  0  0  0  0  0  0  0
  1  7  1  0  0  0  0
  2 19  1  0  0  0  0
  2  9  1  0  0  0  0
  4  3  1  0  0  0  0
  5 18  1  0  0  0  0
  5 13  1  0  0  0  0
  8  3  2  0  0  0  0
  9  6  2  0  0  0  0
  9 10  1  0  0  0  0
 10  8  1  0  0  0  0
 11 17  1  0  0  0  0
 12 14  2  0  0  0  0
 12 15  1  0  0  0  0
 13  7  2  0  0  0  0
 13  6  1  0  0  0  0
 14  5  1  0  0  0  0
 15  1  2  0  0  0  0
 16  4  2  0  0  0  0
 17 10  2  0  0  0  0
 17 16  1  0  0  0  0
 18  2  2  0  0  0  0
 19 11  2  0  0  0  0
 20 22  2  0  0  0  0
 20 21  1  0  0  0  0
 21 15  1  0  0  0  0
 23 20  1  0  0  0  0
 24 11  1  0  0  0  0
 25 31  1  0  0  0  0
 26 27  2  0  0  0  0
 26 30  1  0  0  0  0
 27 28  1  0  0  0  0
 28 25  1  0  0  0  0
 29 26  1  0  0  0  0
 30 24  1  0  0  0  0
 30 25  2  0  0  0  0
 31 32  3  0  0  0  0
M  END
>  <MODEL>
1

>  <REMARK>
 VINA RESULT:      -7.9      0.000      0.000
  Name = 
  4 active torsions:
  status: ('A' for Active; 'I' for Inactive)
    1  A    between atoms: C_6  and  C_7
    2  A    between atoms: N_10  and  C_24
    3  A    between atoms: C_16  and  C_27
    4  A    between atoms: C_27  and  C_32
                            x       y       z     vdW  Elec       q    Type
                         _______ _______ _______ _____ _____    ______ ____

>  <TORSDO>
F 4

$$$$
=
 OpenBabel11052421323D

 32 36  0  0  1  0  0  0  0  0999 V2000
  181.1000  179.1760  142.3420 C   0  0  0  0  0  3  0  0  0  0  0  0
  186.0750  177.5280  142.9200 C   0  0  0  0  0  0  0  0  0  0  0  0
  186.8530  178.4410  147.6380 C   0  0  0  0  0  3  0  0  0  0  0  0
  188.1500  177.9440  147.5070 C   0  0  0  0  0  3  0  0  0  0  0  0
  183.9660  178.0140  141.8230 N   0  0  0  0  0  0  0  0  0  0  0  0
  184.3270  178.4900  144.2420 C   0  0  0  0  0  3  0  0  0  0  0  0
  182.2210  179.0040  143.2650 C   0  0  0  0  0  3  0  0  0  0  0  0
  185.9990  178.4670  146.5330 C   0  0  0  0  0  3  0  0  0  0  0  0
  185.5800  178.0160  144.1530 C   0  0  0  0  0  0  0  0  0  0  0  0
  186.4300  177.9930  145.2800 C   0  0  0  0  0  0  0  0  0  0  0  0
  188.1830  177.0100  143.9050 C   0  0  0  0  0  0  0  0  0  0  0  0
  182.0710  178.2990  140.2370 C   0  0  0  0  0  3  0  0  0  0  0  0
  183.4420  178.5150  143.0700 C   0  0  0  0  0  0  0  0  0  0  0  0
  183.3080  177.9320  140.5550 C   0  0  0  0  0  3  0  0  0  0  0  0
  180.9990  178.8890  141.0500 C   0  0  0  0  0  0  0  0  0  0  0  0
  188.5950  177.4700  146.2720 C   0  0  0  0  0  3  0  0  0  0  0  0
  187.7470  177.4860  145.1540 C   0  0  0  0  0  0  0  0  0  0  0  0
  185.3150  177.5250  141.8160 C   0  0  0  0  0  3  0  0  0  0  0  0
  187.3430  177.0480  142.8380 N   0  0  0  0  0  0  0  0  0  0  0  0
  179.3080  180.4450  139.8930 C   0  0  0  0  0  0  0  0  0  0  0  0
  179.7360  179.1900  140.4380 N   0  0  0  0  0  2  0  0  0  0  0  0
  180.0590  181.4560  139.9080 O   0  0  0  0  0  0  0  0  0  0  0  0
  178.0100  180.5510  139.3240 N   0  0  0  0  0  1  0  0  0  0  0  0
  189.5590  176.4450  143.7190 C   0  0  0  0  0  2  0  0  0  0  0  0
  189.2110  174.0960  142.8910 C   0  0  0  0  0  0  0  0  0  0  0  0
  189.8030  174.1990  145.0580 C   0  0  0  0  0  0  0  0  0  0  0  0
  189.6450  172.9040  144.8320 C   0  0  0  0  0  3  0  0  0  0  0  0
  189.2480  172.6950  143.4020 C   0  0  0  0  0  3  0  0  0  0  0  0
  190.2010  174.7710  146.3720 C   0  0  0  0  0  1  0  0  0  0  0  0
  189.5400  174.9520  143.8450 C   0  0  2  0  0  3  0  0  0  0  0  0
  188.8480  174.4540  141.5450 C   0  0  0  0  0  0  0  0  0  0  0  0
  188.5580  174.7400  140.4610 N   0  0  0  0  0  0  0  0  0  0  0  0
  1  7  1  0  0  0  0
  2  9  1  0  0  0  0
  4  3  1  0  0  0  0
  5 13  1  0  0  0  0
  8  3  2  0  0  0  0
  9  6  2  0  0  0  0
  9 10  1  0  0  0  0
 10  8  1  0  0  0  0
 11 17  1  0  0  0  0
 12 14  2  0  0  0  0
 12 15  1  0  0  0  0
 13  7  2  0  0  0  0
 13  6  1  0  0  0  0
 14  5  1  0  0  0  0
 15  1  2  0  0  0  0
 16  4  2  0  0  0  0
 17 10  2  0  0  0  0
 17 16  1  0  0  0  0
 18  5  1  0  0  0  0
 18  2  2  0  0  0  0
 19  2  1  0  0  0  0
 19 11  2  0  0  0  0
 20 22  2  0  0  0  0
 20 21  1  0  0  0  0
 21 15  1  0  0  0  0
 23 20  1  0  0  0  0
 24 11  1  0  0  0  0
 25 28  2  0  0  0  0
 25 30  1  0  0  0  0
 26 29  1  0  0  0  0
 27 26  2  0  0  0  0
 28 27  1  0  0  0  0
 30 24  1  1  0  0  0
 30 26  1  0  0  0  0
 31 25  1  0  0  0  0
 32 31  3  0  0  0  0
M  END
>  <MODEL>
2

>  <REMARK>
 VINA RESULT:      -7.9      1.083      1.946
  Name = 
  4 active torsions:
  status: ('A' for Active; 'I' for Inactive)
    1  A    between atoms: C_6  and  C_7
    2  A    between atoms: N_10  and  C_24
    3  A    between atoms: C_16  and  C_27
    4  A    between atoms: C_27  and  C_32
                            x       y       z     vdW  Elec       q    Type
                         _______ _______ _______ _____ _____    ______ ____

>  <TORSDO>
F 4

$$$$
=
 OpenBabel11052421323D

 32 36  0  0  0  0  0  0  0  0999 V2000
  188.8650  172.5880  137.5980 C   0  0  0  0  0  3  0  0  0  0  0  0
  189.3170  175.4360  142.0120 C   0  0  0  0  0  0  0  0  0  0  0  0
  185.3880  178.2960  141.7220 C   0  0  0  0  0  3  0  0  0  0  0  0
  185.7490  178.8930  142.9300 C   0  0  0  0  0  3  0  0  0  0  0  0
  189.8620  173.7850  140.3200 N   0  0  0  0  0  0  0  0  0  0  0  0
  187.8390  175.2290  140.1400 C   0  0  0  0  0  3  0  0  0  0  0  0
  188.2810  173.6420  138.4260 C   0  0  0  0  0  3  0  0  0  0  0  0
  186.1780  177.2810  141.1800 C   0  0  0  0  0  3  0  0  0  0  0  0
  188.1550  175.8240  141.3020 C   0  0  0  0  0  0  0  0  0  0  0  0
  187.3430  176.8470  141.8390 C   0  0  0  0  0  0  0  0  0  0  0  0
  188.8660  177.0240  143.7310 C   0  0  0  0  0  0  0  0  0  0  0  0
  190.8710  171.9890  138.9250 C   0  0  0  0  0  3  0  0  0  0  0  0
  188.6840  174.1660  139.5800 C   0  0  0  0  0  0  0  0  0  0  0  0
  190.8320  172.7880  139.9870 C   0  0  0  0  0  3  0  0  0  0  0  0
  189.9630  171.8640  137.7770 C   0  0  0  0  0  0  0  0  0  0  0  0
  186.9010  178.4760  143.5980 C   0  0  0  0  0  3  0  0  0  0  0  0
  187.7050  177.4550  143.0670 C   0  0  0  0  0  0  0  0  0  0  0  0
  190.1260  174.4730  141.5520 C   0  0  0  0  0  3  0  0  0  0  0  0
  189.6290  176.0400  143.1880 N   0  0  0  0  0  0  0  0  0  0  0  0
  191.0140  171.0970  135.5570 C   0  0  0  0  0  0  0  0  0  0  0  0
  190.2510  170.8980  136.7550 N   0  0  0  0  0  2  0  0  0  0  0  0
  191.5290  172.2140  135.2870 O   0  0  0  0  0  0  0  0  0  0  0  0
  191.1910  170.0120  134.6560 N   0  0  0  0  0  1  0  0  0  0  0  0
  189.2840  177.6190  145.0420 C   0  0  0  0  0  2  0  0  0  0  0  0
  190.4220  175.9420  146.5310 C   0  0  0  0  0  0  0  0  0  0  0  0
  188.1910  176.0040  146.8010 C   0  0  0  0  0  0  0  0  0  0  0  0
  188.5860  175.0580  147.6380 C   0  0  0  0  0  3  0  0  0  0  0  0
  190.0770  174.9160  147.5580 C   0  0  0  0  0  2  0  0  0  0  0  0
  186.7730  176.4160  146.6220 C   0  0  0  0  0  1  0  0  0  0  0  0
  189.3350  176.5680  146.1080 C   0  0  0  0  0  0  0  0  0  0  0  0
  191.7590  176.1920  146.0610 C   0  0  0  0  0  0  0  0  0  0  0  0
  192.8340  176.3950  145.6810 N   0  0  0  0  0  0  0  0  0  0  0  0
  1 15  2  0  0  0  0
  1  7  1  0  0  0  0
  2 19  1  0  0  0  0
  3  4  1  0  0  0  0
  4 16  2  0  0  0  0
  5 18  1  0  0  0  0
  6  9  2  0  0  0  0
  7 13  2  0  0  0  0
  8  3  2  0  0  0  0
  8 10  1  0  0  0  0
  9 10  1  0  0  0  0
  9  2  1  0  0  0  0
 10 17  2  0  0  0  0
 11 24  1  0  0  0  0
 12 14  2  0  0  0  0
 13  6  1  0  0  0  0
 13  5  1  0  0  0  0
 14  5  1  0  0  0  0
 15 12  1  0  0  0  0
 17 16  1  0  0  0  0
 17 11  1  0  0  0  0
 18  2  2  0  0  0  0
 19 11  2  0  0  0  0
 20 21  1  0  0  0  0
 21 15  1  0  0  0  0
 22 20  2  0  0  0  0
 23 20  1  0  0  0  0
 24 30  1  0  0  0  0
 25 28  1  0  0  0  0
 26 27  2  0  0  0  0
 28 27  1  0  0  0  0
 29 26  1  0  0  0  0
 30 25  2  0  0  0  0
 30 26  1  0  0  0  0
 31 25  1  0  0  0  0
 32 31  3  0  0  0  0
M  END
>  <MODEL>
3

>  <REMARK>
 VINA RESULT:      -7.7      4.936      7.954
  Name = 
  4 active torsions:
  status: ('A' for Active; 'I' for Inactive)
    1  A    between atoms: C_6  and  C_7
    2  A    between atoms: N_10  and  C_24
    3  A    between atoms: C_16  and  C_27
    4  A    between atoms: C_27  and  C_32
                            x       y       z     vdW  Elec       q    Type
                         _______ _______ _______ _____ _____    ______ ____

>  <TORSDO>
F 4

$$$$
=
 OpenBabel11052421323D

 32 36  0  0  1  0  0  0  0  0999 V2000
  190.6760  170.3760  140.6510 C   0  0  0  0  0  3  0  0  0  0  0  0
  188.8880  175.1040  142.1530 C   0  0  0  0  0  0  0  0  0  0  0  0
  189.5750  174.9110  146.9680 C   0  0  0  0  0  3  0  0  0  0  0  0
  189.0480  176.1980  147.0820 C   0  0  0  0  0  3  0  0  0  0  0  0
  189.4660  173.2700  140.6730 N   0  0  0  0  0  0  0  0  0  0  0  0
  189.8370  173.1380  143.1330 C   0  0  0  0  0  3  0  0  0  0  0  0
  190.4400  171.2830  141.7730 C   0  0  0  0  0  3  0  0  0  0  0  0
  189.6740  174.3040  145.7150 C   0  0  0  0  0  3  0  0  0  0  0  0
  189.3370  174.3760  143.2800 C   0  0  0  0  0  0  0  0  0  0  0  0
  189.2480  174.9770  144.5550 C   0  0  0  0  0  0  0  0  0  0  0  0
  188.2900  176.9630  143.5200 C   0  0  0  0  0  0  0  0  0  0  0  0
  189.8610  171.7420  138.7500 C   0  0  0  0  0  3  0  0  0  0  0  0
  189.9300  172.5100  141.8090 C   0  0  0  0  0  0  0  0  0  0  0  0
  189.4530  172.8840  139.2960 C   0  0  0  0  0  3  0  0  0  0  0  0
  190.4430  170.5370  139.3540 C   0  0  0  0  0  0  0  0  0  0  0  0
  188.6200  176.8800  145.9430 C   0  0  0  0  0  3  0  0  0  0  0  0
  188.7160  176.2850  144.6750 C   0  0  0  0  0  0  0  0  0  0  0  0
  188.9480  174.5850  140.9190 C   0  0  0  0  0  3  0  0  0  0  0  0
  188.3870  176.3560  142.3080 N   0  0  0  0  0  0  0  0  0  0  0  0
  191.8870  169.3570  137.5810 C   0  0  0  0  0  0  0  0  0  0  0  0
  190.7990  169.4300  138.5120 N   0  0  0  0  0  2  0  0  0  0  0  0
  192.6730  170.3260  137.4150 O   0  0  0  0  0  0  0  0  0  0  0  0
  192.0810  168.1660  136.8300 N   0  0  0  0  0  1  0  0  0  0  0  0
  187.7380  178.3540  143.5880 C   0  0  0  0  0  2  0  0  0  0  0  0
  185.4380  178.2060  142.5830 C   0  0  0  0  0  0  0  0  0  0  0  0
  185.4190  178.5130  144.8100 C   0  0  0  0  0  0  0  0  0  0  0  0
  184.1370  178.4910  144.4820 C   0  0  0  0  0  3  0  0  0  0  0  0
  184.0070  178.2850  143.0020 C   0  0  0  0  0  3  0  0  0  0  0  0
  185.9180  178.6940  146.2000 C   0  0  0  0  0  1  0  0  0  0  0  0
  186.2410  178.3290  143.6280 C   0  0  2  0  0  3  0  0  0  0  0  0
  185.8690  178.0370  141.2200 C   0  0  0  0  0  0  0  0  0  0  0  0
  186.2170  177.9030  140.1240 N   0  0  0  0  0  0  0  0  0  0  0  0
  1  7  1  0  0  0  0
  2 19  1  0  0  0  0
  2  9  1  0  0  0  0
  3  4  1  0  0  0  0
  5 18  1  0  0  0  0
  5 13  1  0  0  0  0
  6  9  2  0  0  0  0
  7 13  2  0  0  0  0
  8  3  2  0  0  0  0
  9 10  1  0  0  0  0
 10 17  2  0  0  0  0
 10  8  1  0  0  0  0
 11 24  1  0  0  0  0
 11 17  1  0  0  0  0
 12 14  2  0  0  0  0
 12 15  1  0  0  0  0
 13  6  1  0  0  0  0
 14  5  1  0  0  0  0
 15  1  2  0  0  0  0
 16  4  2  0  0  0  0
 17 16  1  0  0  0  0
 18  2  2  0  0  0  0
 19 11  2  0  0  0  0
 20 21  1  0  0  0  0
 21 15  1  0  0  0  0
 22 20  2  0  0  0  0
 23 20  1  0  0  0  0
 25 28  2  0  0  0  0
 25 30  1  0  0  0  0
 26 29  1  0  0  0  0
 27 26  2  0  0  0  0
 28 27  1  0  0  0  0
 30 24  1  6  0  0  0
 30 26  1  0  0  0  0
 31 25  1  0  0  0  0
 32 31  3  0  0  0  0
M  END
>  <MODEL>
4

>  <REMARK>
 VINA RESULT:      -7.7      4.717      8.933
  Name = 
  4 active torsions:
  status: ('A' for Active; 'I' for Inactive)
    1  A    between atoms: C_6  and  C_7
    2  A    between atoms: N_10  and  C_24
    3  A    between atoms: C_16  and  C_27
    4  A    between atoms: C_27  and  C_32
                            x       y       z     vdW  Elec       q    Type
                         _______ _______ _______ _____ _____    ______ ____

>  <TORSDO>
F 4

$$$$
=
 OpenBabel11052421323D

 32 36  0  0  1  0  0  0  0  0999 V2000
  186.1060  177.1540  138.7120 C   0  0  0  0  0  3  0  0  0  0  0  0
  188.3650  175.6060  143.2180 C   0  0  0  0  0  0  0  0  0  0  0  0
  186.3180  178.6490  146.4190 C   0  0  0  0  0  3  0  0  0  0  0  0
  187.0540  178.0490  147.4410 C   0  0  0  0  0  3  0  0  0  0  0  0
  187.8500  175.6600  140.8470 N   0  0  0  0  0  0  0  0  0  0  0  0
  186.7790  177.2300  142.4580 C   0  0  0  0  0  3  0  0  0  0  0  0
  186.2030  177.3670  140.1550 C   0  0  0  0  0  3  0  0  0  0  0  0
  186.4500  178.1990  145.1040 C   0  0  0  0  0  3  0  0  0  0  0  0
  187.4700  176.6740  143.4670 C   0  0  0  0  0  0  0  0  0  0  0  0
  187.3220  177.1380  144.7920 C   0  0  0  0  0  0  0  0  0  0  0  0
  188.9350  175.4700  145.5280 C   0  0  0  0  0  0  0  0  0  0  0  0
  187.6990  175.2830  138.3930 C   0  0  0  0  0  3  0  0  0  0  0  0
  186.9330  176.7490  141.0790 C   0  0  0  0  0  0  0  0  0  0  0  0
  188.1700  175.0210  139.6080 C   0  0  0  0  0  3  0  0  0  0  0  0
  186.7250  176.2790  137.9290 C   0  0  0  0  0  0  0  0  0  0  0  0
  187.9230  176.9960  147.1500 C   0  0  0  0  0  3  0  0  0  0  0  0
  188.0650  176.5300  145.8340 C   0  0  0  0  0  0  0  0  0  0  0  0
  188.5480  175.1240  141.9810 C   0  0  0  0  0  3  0  0  0  0  0  0
  189.0580  175.0470  144.2430 N   0  0  0  0  0  0  0  0  0  0  0  0
  185.1320  176.0400  135.9220 C   0  0  0  0  0  0  0  0  0  0  0  0
  186.3940  176.3430  136.5340 N   0  0  0  0  0  2  0  0  0  0  0  0
  184.1450  175.6680  136.6080 O   0  0  0  0  0  0  0  0  0  0  0  0
  184.9950  176.1620  134.5130 N   0  0  0  0  0  1  0  0  0  0  0  0
  189.7300  174.7780  146.5930 C   0  0  0  0  0  2  0  0  0  0  0  0
  192.0920  174.4970  145.7770 C   0  0  0  0  0  0  0  0  0  0  0  0
  191.8450  176.2060  147.2170 C   0  0  0  0  0  0  0  0  0  0  0  0
  193.1380  176.2120  146.9360 C   0  0  0  0  0  3  0  0  0  0  0  0
  193.4410  175.1080  145.9690 C   0  0  0  0  0  3  0  0  0  0  0  0
  191.1900  177.1700  148.1420 C   0  0  0  0  0  1  0  0  0  0  0  0
  191.1810  175.1390  146.4910 C   0  0  2  0  0  3  0  0  0  0  0  0
  191.8380  173.3540  144.9410 C   0  0  0  0  0  0  0  0  0  0  0  0
  191.6320  172.4360  144.2670 N   0  0  0  0  0  0  0  0  0  0  0  0
  1  7  1  0  0  0  0
  2  9  1  0  0  0  0
  2 19  1  0  0  0  0
  3  4  1  0  0  0  0
  5 13  1  0  0  0  0
  5 18  1  0  0  0  0
  6  9  2  0  0  0  0
  7 13  2  0  0  0  0
  8  3  2  0  0  0  0
  9 10  1  0  0  0  0
 10  8  1  0  0  0  0
 10 17  2  0  0  0  0
 11 17  1  0  0  0  0
 11 24  1  0  0  0  0
 12 14  2  0  0  0  0
 13  6  1  0  0  0  0
 14  5  1  0  0  0  0
 15 12  1  0  0  0  0
 15  1  2  0  0  0  0
 16  4  2  0  0  0  0
 17 16  1  0  0  0  0
 18  2  2  0  0  0  0
 19 11  2  0  0  0  0
 20 21  1  0  0  0  0
 20 22  2  0  0  0  0
 21 15  1  0  0  0  0
 23 20  1  0  0  0  0
 25 28  2  0  0  0  0
 25 30  1  0  0  0  0
 26 29  1  0  0  0  0
 27 26  2  0  0  0  0
 28 27  1  0  0  0  0
 30 24  1  1  0  0  0
 30 26  1  0  0  0  0
 31 25  1  0  0  0  0
 32 31  3  0  0  0  0
M  END
>  <MODEL>
5

>  <REMARK>
 VINA RESULT:      -7.7      3.879      4.969
  Name = 
  4 active torsions:
  status: ('A' for Active; 'I' for Inactive)
    1  A    between atoms: C_6  and  C_7
    2  A    between atoms: N_10  and  C_24
    3  A    between atoms: C_16  and  C_27
    4  A    between atoms: C_27  and  C_32
                            x       y       z     vdW  Elec       q    Type
                         _______ _______ _______ _____ _____    ______ ____

>  <TORSDO>
F 4

$$$$
=
 OpenBabel11052421323D

 32 36  0  0  0  0  0  0  0  0999 V2000
  186.1690  177.1590  138.7210 C   0  0  0  0  0  3  0  0  0  0  0  0
  188.2120  175.7670  143.3780 C   0  0  0  0  0  0  0  0  0  0  0  0
  186.0080  178.9060  146.3760 C   0  0  0  0  0  3  0  0  0  0  0  0
  186.6950  178.3420  147.4510 C   0  0  0  0  0  3  0  0  0  0  0  0
  187.8120  175.7410  140.9860 N   0  0  0  0  0  0  0  0  0  0  0  0
  186.6610  177.3600  142.4900 C   0  0  0  0  0  3  0  0  0  0  0  0
  186.1960  177.4190  140.1590 C   0  0  0  0  0  3  0  0  0  0  0  0
  186.2040  178.4140  145.0840 C   0  0  0  0  0  3  0  0  0  0  0  0
  187.3030  176.8390  143.5490 C   0  0  0  0  0  0  0  0  0  0  0  0
  187.0910  177.3470  144.8490 C   0  0  0  0  0  0  0  0  0  0  0  0
  188.6700  175.7090  145.7170 C   0  0  0  0  0  0  0  0  0  0  0  0
  187.7790  175.2830  138.5410 C   0  0  0  0  0  3  0  0  0  0  0  0
  186.8820  176.8340  141.1370 C   0  0  0  0  0  0  0  0  0  0  0  0
  188.1920  175.0630  139.7850 C   0  0  0  0  0  3  0  0  0  0  0  0
  186.8270  176.2610  137.9970 C   0  0  0  0  0  0  0  0  0  0  0  0
  187.5780  177.2840  147.2370 C   0  0  0  0  0  3  0  0  0  0  0  0
  187.7840  176.7760  145.9450 C   0  0  0  0  0  0  0  0  0  0  0  0
  188.4550  175.2450  142.1690 C   0  0  0  0  0  3  0  0  0  0  0  0
  188.8560  175.2450  144.4540 N   0  0  0  0  0  0  0  0  0  0  0  0
  185.3100  176.0410  135.9310 C   0  0  0  0  0  0  0  0  0  0  0  0
  186.5630  176.2770  136.5870 N   0  0  0  0  0  2  0  0  0  0  0  0
  184.2670  175.7810  136.5870 O   0  0  0  0  0  0  0  0  0  0  0  0
  185.2440  176.1000  134.5130 N   0  0  0  0  0  1  0  0  0  0  0  0
  189.4150  175.0550  146.8410 C   0  0  0  0  0  2  0  0  0  0  0  0
  191.6520  176.1440  147.2030 C   0  0  0  0  0  0  0  0  0  0  0  0
  191.7290  174.3990  145.7870 C   0  0  0  0  0  0  0  0  0  0  0  0
  192.9770  174.8380  145.8170 C   0  0  0  0  0  3  0  0  0  0  0  0
  193.0660  176.0160  146.7410 C   0  0  0  0  0  2  0  0  0  0  0  0
  191.2770  173.2370  144.9760 C   0  0  0  0  0  1  0  0  0  0  0  0
  190.8940  175.2070  146.6570 C   0  0  0  0  0  0  0  0  0  0  0  0
  191.1890  177.1650  148.1040 C   0  0  0  0  0  0  0  0  0  0  0  0
  190.8160  177.9850  148.8320 N   0  0  0  0  0  0  0  0  0  0  0  0
  1  7  1  0  0  0  0
  2  9  1  0  0  0  0
  2 19  1  0  0  0  0
  3  4  1  0  0  0  0
  5 13  1  0  0  0  0
  5 18  1  0  0  0  0
  6  9  2  0  0  0  0
  7 13  2  0  0  0  0
  8  3  2  0  0  0  0
  9 10  1  0  0  0  0
 10  8  1  0  0  0  0
 10 17  2  0  0  0  0
 11 17  1  0  0  0  0
 11 24  1  0  0  0  0
 12 14  2  0  0  0  0
 13  6  1  0  0  0  0
 14  5  1  0  0  0  0
 15 12  1  0  0  0  0
 15  1  2  0  0  0  0
 16  4  2  0  0  0  0
 17 16  1  0  0  0  0
 18  2  2  0  0  0  0
 19 11  2  0  0  0  0
 20 22  2  0  0  0  0
 20 21  1  0  0  0  0
 21 15  1  0  0  0  0
 23 20  1  0  0  0  0
 25 31  1  0  0  0  0
 26 27  2  0  0  0  0
 26 30  1  0  0  0  0
 27 28  1  0  0  0  0
 28 25  1  0  0  0  0
 29 26  1  0  0  0  0
 30 24  1  0  0  0  0
 30 25  2  0  0  0  0
 31 32  3  0  0  0  0
M  END
>  <MODEL>
6

>  <REMARK>
 VINA RESULT:      -7.5      3.858      4.775
  Name = 
  4 active torsions:
  status: ('A' for Active; 'I' for Inactive)
    1  A    between atoms: C_6  and  C_7
    2  A    between atoms: N_10  and  C_24
    3  A    between atoms: C_16  and  C_27
    4  A    between atoms: C_27  and  C_32
                            x       y       z     vdW  Elec       q    Type
                         _______ _______ _______ _____ _____    ______ ____

>  <TORSDO>
F 4

$$$$
=
 OpenBabel11052421323D

 32 36  0  0  0  0  0  0  0  0999 V2000
  184.4390  178.2960  143.7990 C   0  0  0  0  0  3  0  0  0  0  0  0
  189.5340  177.0600  143.2340 C   0  0  0  0  0  0  0  0  0  0  0  0
  190.9810  176.7910  147.8740 C   0  0  0  0  0  3  0  0  0  0  0  0
  192.2700  176.4760  147.4410 C   0  0  0  0  0  3  0  0  0  0  0  0
  187.2540  177.6010  142.6030 N   0  0  0  0  0  0  0  0  0  0  0  0
  187.9580  177.4660  144.9900 C   0  0  0  0  0  3  0  0  0  0  0  0
  185.6980  178.0030  144.4810 C   0  0  0  0  0  3  0  0  0  0  0  0
  189.9650  177.0170  146.9430 C   0  0  0  0  0  3  0  0  0  0  0  0
  189.2090  177.1590  144.6080 C   0  0  0  0  0  0  0  0  0  0  0  0
  190.2240  176.9300  145.5630 C   0  0  0  0  0  0  0  0  0  0  0  0
  191.7970  176.5180  143.7500 C   0  0  0  0  0  0  0  0  0  0  0  0
  185.1210  178.0970  141.4240 C   0  0  0  0  0  3  0  0  0  0  0  0
  186.9010  177.7060  143.9980 C   0  0  0  0  0  0  0  0  0  0  0  0
  186.4130  177.7860  141.4620 C   0  0  0  0  0  3  0  0  0  0  0  0
  184.1550  178.3450  142.5020 C   0  0  0  0  0  0  0  0  0  0  0  0
  192.5440  176.3860  146.0750 C   0  0  0  0  0  3  0  0  0  0  0  0
  191.5330  176.6070  145.1280 C   0  0  0  0  0  0  0  0  0  0  0  0
  188.6130  177.2680  142.2840 C   0  0  0  0  0  3  0  0  0  0  0  0
  190.8000  176.7470  142.8560 N   0  0  0  0  0  0  0  0  0  0  0  0
  182.0690  178.2760  140.9980 C   0  0  0  0  0  0  0  0  0  0  0  0
  182.7960  178.6670  142.1700 N   0  0  0  0  0  2  0  0  0  0  0  0
  182.6010  177.5700  140.1030 O   0  0  0  0  0  0  0  0  0  0  0  0
  180.7200  178.6970  140.8450 N   0  0  0  0  0  1  0  0  0  0  0  0
  193.1580  176.1610  143.2350 C   0  0  0  0  0  2  0  0  0  0  0  0
  194.1610  173.9590  143.9190 C   0  0  0  0  0  0  0  0  0  0  0  0
  192.6700  173.7770  142.2470 C   0  0  0  0  0  0  0  0  0  0  0  0
  193.0920  172.5360  142.4330 C   0  0  0  0  0  3  0  0  0  0  0  0
  194.1020  172.5170  143.5400 C   0  0  0  0  0  2  0  0  0  0  0  0
  191.6580  174.1670  141.2280 C   0  0  0  0  0  1  0  0  0  0  0  0
  193.3300  174.6740  143.1780 C   0  0  0  0  0  0  0  0  0  0  0  0
  195.0250  174.4880  144.9420 C   0  0  0  0  0  0  0  0  0  0  0  0
  195.7200  174.9150  145.7630 N   0  0  0  0  0  0  0  0  0  0  0  0
  1  7  1  0  0  0  0
  2  9  1  0  0  0  0
  4  3  1  0  0  0  0
  5 13  1  0  0  0  0
  8  3  2  0  0  0  0
  9  6  2  0  0  0  0
  9 10  1  0  0  0  0
 10  8  1  0  0  0  0
 11 17  1  0  0  0  0
 12 14  2  0  0  0  0
 12 15  1  0  0  0  0
 13  7  2  0  0  0  0
 13  6  1  0  0  0  0
 14  5  1  0  0  0  0
 15  1  2  0  0  0  0
 16  4  2  0  0  0  0
 17 10  2  0  0  0  0
 17 16  1  0  0  0  0
 18  5  1  0  0  0  0
 18  2  2  0  0  0  0
 19  2  1  0  0  0  0
 19 11  2  0  0  0  0
 20 21  1  0  0  0  0
 21 15  1  0  0  0  0
 22 20  2  0  0  0  0
 23 20  1  0  0  0  0
 24 11  1  0  0  0  0
 25 31  1  0  0  0  0
 26 27  2  0  0  0  0
 26 30  1  0  0  0  0
 27 28  1  0  0  0  0
 28 25  1  0  0  0  0
 29 26  1  0  0  0  0
 30 24  1  0  0  0  0
 30 25  2  0  0  0  0
 31 32  3  0  0  0  0
M  END
>  <MODEL>
7

>  <REMARK>
 VINA RESULT:      -7.5      2.879      4.082
  Name = 
  4 active torsions:
  status: ('A' for Active; 'I' for Inactive)
    1  A    between atoms: C_6  and  C_7
    2  A    between atoms: N_10  and  C_24
    3  A    between atoms: C_16  and  C_27
    4  A    between atoms: C_27  and  C_32
                            x       y       z     vdW  Elec       q    Type
                         _______ _______ _______ _____ _____    ______ ____

>  <TORSDO>
F 4

$$$$
=
 OpenBabel11052421323D

 32 36  0  0  0  0  0  0  0  0999 V2000
  184.4410  178.4220  143.8880 C   0  0  0  0  0  3  0  0  0  0  0  0
  189.4690  176.8750  143.5310 C   0  0  0  0  0  0  0  0  0  0  0  0
  190.8870  177.1200  148.1820 C   0  0  0  0  0  3  0  0  0  0  0  0
  192.1600  176.6900  147.8030 C   0  0  0  0  0  3  0  0  0  0  0  0
  187.2220  177.4430  142.8160 N   0  0  0  0  0  0  0  0  0  0  0  0
  187.9110  177.5760  145.2070 C   0  0  0  0  0  3  0  0  0  0  0  0
  185.6830  178.1550  144.6140 C   0  0  0  0  0  3  0  0  0  0  0  0
  189.8870  177.2770  147.2200 C   0  0  0  0  0  3  0  0  0  0  0  0
  189.1460  177.1620  144.8790 C   0  0  0  0  0  0  0  0  0  0  0  0
  190.1450  177.0050  145.8640 C   0  0  0  0  0  0  0  0  0  0  0  0
  191.7010  176.2900  144.1320 C   0  0  0  0  0  0  0  0  0  0  0  0
  185.1200  177.8910  141.5640 C   0  0  0  0  0  3  0  0  0  0  0  0
  186.8700  177.7410  144.1840 C   0  0  0  0  0  0  0  0  0  0  0  0
  186.3940  177.5240  141.6520 C   0  0  0  0  0  3  0  0  0  0  0  0
  184.1640  178.3210  142.5940 C   0  0  0  0  0  0  0  0  0  0  0  0
  192.4340  176.4160  146.4630 C   0  0  0  0  0  3  0  0  0  0  0  0
  191.4380  176.5660  145.4850 C   0  0  0  0  0  0  0  0  0  0  0  0
  188.5630  177.0060  142.5540 C   0  0  0  0  0  3  0  0  0  0  0  0
  190.7190  176.4540  143.2070 N   0  0  0  0  0  0  0  0  0  0  0  0
  182.1370  178.2910  141.0100 C   0  0  0  0  0  0  0  0  0  0  0  0
  182.8250  178.6660  142.2110 N   0  0  0  0  0  2  0  0  0  0  0  0
  182.6920  177.5790  140.1330 O   0  0  0  0  0  0  0  0  0  0  0  0
  180.8010  178.7320  140.8060 N   0  0  0  0  0  1  0  0  0  0  0  0
  193.0440  175.8050  143.6790 C   0  0  0  0  0  2  0  0  0  0  0  0
  192.5930  173.3370  143.8530 C   0  0  0  0  0  0  0  0  0  0  0  0
  194.3080  174.0210  145.1350 C   0  0  0  0  0  0  0  0  0  0  0  0
  194.2200  172.7250  145.3880 C   0  0  0  0  0  3  0  0  0  0  0  0
  193.1010  172.1380  144.5820 C   0  0  0  0  0  2  0  0  0  0  0  0
  195.3140  174.9230  145.7580 C   0  0  0  0  0  1  0  0  0  0  0  0
  193.2970  174.4120  144.1690 C   0  0  0  0  0  0  0  0  0  0  0  0
  191.4760  173.3150  142.9460 C   0  0  0  0  0  0  0  0  0  0  0  0
  190.5770  173.2950  142.2160 N   0  0  0  0  0  0  0  0  0  0  0  0
  1  7  1  0  0  0  0
  2  9  1  0  0  0  0
  4  3  1  0  0  0  0
  5 13  1  0  0  0  0
  8  3  2  0  0  0  0
  9  6  2  0  0  0  0
  9 10  1  0  0  0  0
 10  8  1  0  0  0  0
 11 17  1  0  0  0  0
 12 14  2  0  0  0  0
 12 15  1  0  0  0  0
 13  7  2  0  0  0  0
 13  6  1  0  0  0  0
 14  5  1  0  0  0  0
 15  1  2  0  0  0  0
 16  4  2  0  0  0  0
 17 10  2  0  0  0  0
 17 16  1  0  0  0  0
 18  5  1  0  0  0  0
 18  2  2  0  0  0  0
 19  2  1  0  0  0  0
 19 11  2  0  0  0  0
 20 21  1  0  0  0  0
 21 15  1  0  0  0  0
 22 20  2  0  0  0  0
 23 20  1  0  0  0  0
 24 11  1  0  0  0  0
 24 30  1  0  0  0  0
 25 30  2  0  0  0  0
 25 28  1  0  0  0  0
 26 27  2  0  0  0  0
 26 29  1  0  0  0  0
 28 27  1  0  0  0  0
 30 26  1  0  0  0  0
 31 25  1  0  0  0  0
 32 31  3  0  0  0  0
M  END
>  <MODEL>
8

>  <REMARK>
 VINA RESULT:      -7.4      2.783      4.241
  Name = 
  4 active torsions:
  status: ('A' for Active; 'I' for Inactive)
    1  A    between atoms: C_6  and  C_7
    2  A    between atoms: N_10  and  C_24
    3  A    between atoms: C_16  and  C_27
    4  A    between atoms: C_27  and  C_32
                            x       y       z     vdW  Elec       q    Type
                         _______ _______ _______ _____ _____    ______ ____

>  <TORSDO>
F 4

$$$$
=
 OpenBabel11052421323D

 32 36  0  0  0  0  0  0  0  0999 V2000
  190.2860  170.8160  140.1930 C   0  0  0  0  0  3  0  0  0  0  0  0
  188.6760  175.4260  142.1810 C   0  0  0  0  0  0  0  0  0  0  0  0
  189.5580  174.7920  146.9260 C   0  0  0  0  0  3  0  0  0  0  0  0
  189.0680  176.0740  147.1760 C   0  0  0  0  0  3  0  0  0  0  0  0
  189.1480  173.7200  140.5220 N   0  0  0  0  0  0  0  0  0  0  0  0
  189.6180  173.3620  142.9430 C   0  0  0  0  0  3  0  0  0  0  0  0
  190.1190  171.6240  141.4000 C   0  0  0  0  0  3  0  0  0  0  0  0
  189.5900  174.2970  145.6210 C   0  0  0  0  0  3  0  0  0  0  0  0
  189.1540  174.5920  143.2200 C   0  0  0  0  0  0  0  0  0  0  0  0
  189.1320  175.0790  144.5450 C   0  0  0  0  0  0  0  0  0  0  0  0
  188.1800  177.1680  143.7310 C   0  0  0  0  0  0  0  0  0  0  0  0
  189.4240  172.3620  138.4570 C   0  0  0  0  0  3  0  0  0  0  0  0
  189.6400  172.8530  141.5650 C   0  0  0  0  0  0  0  0  0  0  0  0
  189.0670  173.4580  139.1180 C   0  0  0  0  0  3  0  0  0  0  0  0
  190.0030  171.0960  138.9260 C   0  0  0  0  0  0  0  0  0  0  0  0
  188.6090  176.8640  146.1210 C   0  0  0  0  0  3  0  0  0  0  0  0
  188.6370  176.3820  144.8030 C   0  0  0  0  0  0  0  0  0  0  0  0
  188.6710  175.0180  140.9050 C   0  0  0  0  0  3  0  0  0  0  0  0
  188.2110  176.6700  142.4680 N   0  0  0  0  0  0  0  0  0  0  0  0
  191.4690  169.9330  137.1600 C   0  0  0  0  0  0  0  0  0  0  0  0
  190.2970  170.0610  137.9750 N   0  0  0  0  0  2  0  0  0  0  0  0
  192.4000  170.7790  137.2150 O   0  0  0  0  0  0  0  0  0  0  0  0
  191.5810  168.8310  136.2700 N   0  0  0  0  0  1  0  0  0  0  0  0
  187.6640  178.5590  143.9450 C   0  0  0  0  0  2  0  0  0  0  0  0
  185.3450  178.6870  144.9100 C   0  0  0  0  0  0  0  0  0  0  0  0
  185.3680  178.4250  142.6780 C   0  0  0  0  0  0  0  0  0  0  0  0
  184.0800  178.4410  142.9820 C   0  0  0  0  0  3  0  0  0  0  0  0
  183.9230  178.6170  144.4630 C   0  0  0  0  0  2  0  0  0  0  0  0
  185.8920  178.2720  141.2940 C   0  0  0  0  0  1  0  0  0  0  0  0
  186.1680  178.5850  143.8780 C   0  0  0  0  0  0  0  0  0  0  0  0
  185.7520  178.8290  146.2840 C   0  0  0  0  0  0  0  0  0  0  0  0
  186.0770  178.9400  147.3890 N   0  0  0  0  0  0  0  0  0  0  0  0
  1  7  1  0  0  0  0
  2 19  1  0  0  0  0
  2  9  1  0  0  0  0
  3  4  1  0  0  0  0
  5 18  1  0  0  0  0
  5 13  1  0  0  0  0
  6  9  2  0  0  0  0
  7 13  2  0  0  0  0
  8  3  2  0  0  0  0
  9 10  1  0  0  0  0
 10 17  2  0  0  0  0
 10  8  1  0  0  0  0
 11 24  1  0  0  0  0
 11 17  1  0  0  0  0
 12 15  1  0  0  0  0
 12 14  2  0  0  0  0
 13  6  1  0  0  0  0
 14  5  1  0  0  0  0
 15  1  2  0  0  0  0
 16  4  2  0  0  0  0
 17 16  1  0  0  0  0
 18  2  2  0  0  0  0
 19 11  2  0  0  0  0
 20 22  2  0  0  0  0
 20 21  1  0  0  0  0
 21 15  1  0  0  0  0
 23 20  1  0  0  0  0
 25 31  1  0  0  0  0
 26 27  2  0  0  0  0
 26 30  1  0  0  0  0
 27 28  1  0  0  0  0
 28 25  1  0  0  0  0
 29 26  1  0  0  0  0
 30 24  1  0  0  0  0
 30 25  2  0  0  0  0
 31 32  3  0  0  0  0
M  END
>  <MODEL>
9

>  <REMARK>
 VINA RESULT:      -7.4      4.621      8.446
  Name = 
  4 active torsions:
  status: ('A' for Active; 'I' for Inactive)
    1  A    between atoms: C_6  and  C_7
    2  A    between atoms: N_10  and  C_24
    3  A    between atoms: C_16  and  C_27
    4  A    between atoms: C_27  and  C_32
                            x       y       z     vdW  Elec       q    Type
                         _______ _______ _______ _____ _____    ______ ____

>  <TORSDO>
F 4

$$$$
