=
 OpenBabel11052417533D

 31 36  0  0  1  0  0  0  0  0999 V2000
  188.0790  177.7240  144.7210 C   0  0  2  0  0  3  0  0  0  0  0  0
  186.8000  177.9850  145.4920 C   0  0  0  0  0  0  0  0  0  0  0  0
  184.4390  178.5560  145.6050 C   0  0  0  0  0  0  0  0  0  0  0  0
  187.8500  177.1680  143.3330 C   0  0  0  0  0  0  0  0  0  0  0  0
  187.3770  176.8350  141.1330 C   0  0  0  0  0  0  0  0  0  0  0  0
  185.5850  178.2760  144.8540 C   0  0  0  0  0  3  0  0  0  0  0  0
  189.9390  175.8730  144.8050 C   0  0  1  0  0  3  0  0  0  0  0  0
  188.1730  177.7960  147.5810 C   0  0  0  0  0  2  0  0  0  0  0  0
  183.2690  178.8220  144.9800 F   0  0  0  0  0  0  0  0  0  0  0  0
  189.1670  175.0950  143.7340 C   0  0  0  0  0  2  0  0  0  0  0  0
  189.0060  176.8200  145.5360 C   0  0  0  0  0  0  0  0  0  0  0  0
  187.1650  177.8580  142.2030 C   0  0  0  0  0  3  0  0  0  0  0  0
  184.5050  178.5700  147.0010 C   0  0  0  0  0  3  0  0  0  0  0  0
  188.3680  176.0340  142.8860 C   0  0  1  0  0  3  0  0  0  0  0  0
  188.0580  175.8070  141.5220 N   0  0  0  0  0  0  0  0  0  0  0  0
  189.0070  176.8780  146.8290 N   0  0  0  0  0  0  0  0  0  0  0  0
  186.8580  178.0100  146.8980 C   0  0  0  0  0  0  0  0  0  0  0  0
  185.7150  178.3050  147.6470 C   0  0  0  0  0  3  0  0  0  0  0  0
  186.8850  176.9670  139.7910 C   0  0  0  0  0  0  0  0  0  0  0  0
  186.4880  177.0730  138.7090 N   0  0  0  0  0  0  0  0  0  0  0  0
  190.6580  174.9050  145.7400 C   0  0  0  0  0  2  0  0  0  0  0  0
  195.7880  173.5950  145.6690 C   0  0  0  0  0  0  0  0  0  0  0  0
  193.3820  173.1660  145.3560 C   0  0  0  0  0  3  0  0  0  0  0  0
  193.8320  176.5430  146.4270 N   0  0  0  0  0  0  0  0  0  0  0  0
  192.5020  176.5180  146.3280 N   0  0  0  0  0  0  0  0  0  0  0  0
  197.1830  173.0870  145.6260 C   0  0  0  0  0  1  0  0  0  0  0  0
  192.0880  175.2960  145.9060 C   0  0  0  0  0  0  0  0  0  0  0  0
  194.7200  172.7230  145.3250 C   0  0  0  0  0  2  0  0  0  0  0  0
  194.2730  175.3280  146.0710 C   0  0  0  0  0  0  0  0  0  0  0  0
  193.1820  174.4840  145.7310 C   0  0  0  0  0  0  0  0  0  0  0  0
  195.5520  174.8910  146.0430 N   0  0  0  0  0  0  0  0  0  0  0  0
  1  4  1  6  0  0  0
  1  2  1  0  0  0  0
  1 11  1  0  0  0  0
  2 17  1  0  0  0  0
  3 13  2  0  0  0  0
  5 15  2  0  0  0  0
  5 12  1  0  0  0  0
  6  2  2  0  0  0  0
  6  3  1  0  0  0  0
  7 11  1  0  0  0  0
  7 21  1  1  0  0  0
  9  3  1  0  0  0  0
 10  7  1  0  0  0  0
 11 16  2  0  0  0  0
 12  4  2  0  0  0  0
 13 18  1  0  0  0  0
 14  4  1  0  0  0  0
 14 10  1  1  0  0  0
 15 14  1  0  0  0  0
 16  8  1  0  0  0  0
 17  8  1  0  0  0  0
 17 18  2  0  0  0  0
 19  5  1  0  0  0  0
 20 19  3  0  0  0  0
 21 27  1  0  0  0  0
 22 31  2  0  0  0  0
 23 30  2  0  0  0  0
 25 24  1  0  0  0  0
 26 22  1  0  0  0  0
 27 25  2  0  0  0  0
 28 23  1  0  0  0  0
 28 22  1  0  0  0  0
 29 24  2  0  0  0  0
 30 27  1  0  0  0  0
 30 29  1  0  0  0  0
 31 29  1  0  0  0  0
M  END
>  <MODEL>
1

>  <REMARK>
 VINA RESULT:      -9.0      0.000      0.000
  Name = 
  3 active torsions:
  status: ('A' for Active; 'I' for Inactive)
    1  A    between atoms: C_2  and  C_13
    2  A    between atoms: C_9  and  C_23
    3  A    between atoms: C_15  and  C_23
                            x       y       z     vdW  Elec       q    Type
                         _______ _______ _______ _____ _____    ______ ____

>  <TORSDO>
F 3

$$$$
=
 OpenBabel11052417533D

 31 36  0  0  1  0  0  0  0  0999 V2000
  188.1380  177.8650  144.6230 C   0  0  2  0  0  3  0  0  0  0  0  0
  186.9000  178.0410  145.4810 C   0  0  0  0  0  0  0  0  0  0  0  0
  184.5250  178.4800  145.7610 C   0  0  0  0  0  0  0  0  0  0  0  0
  187.8460  177.3250  143.2400 C   0  0  0  0  0  0  0  0  0  0  0  0
  187.2480  177.0100  141.0680 C   0  0  0  0  0  0  0  0  0  0  0  0
  185.6310  178.2780  144.9310 C   0  0  0  0  0  3  0  0  0  0  0  0
  190.0940  176.1160  144.5430 C   0  0  1  0  0  3  0  0  0  0  0  0
  188.4170  177.8860  147.4720 C   0  0  0  0  0  2  0  0  0  0  0  0
  183.3030  178.6950  145.2200 F   0  0  0  0  0  0  0  0  0  0  0  0
  189.2950  175.3200  143.5060 C   0  0  0  0  0  2  0  0  0  0  0  0
  189.1630  176.9970  145.3540 C   0  0  0  0  0  0  0  0  0  0  0  0
  187.0530  177.9990  142.1740 C   0  0  0  0  0  3  0  0  0  0  0  0
  184.6820  178.4700  147.1500 C   0  0  0  0  0  3  0  0  0  0  0  0
  188.3930  176.2300  142.7350 C   0  0  1  0  0  3  0  0  0  0  0  0
  188.0060  176.0140  141.3880 N   0  0  0  0  0  0  0  0  0  0  0  0
  189.2470  177.0290  146.6460 N   0  0  0  0  0  0  0  0  0  0  0  0
  187.0500  178.0420  146.8810 C   0  0  0  0  0  0  0  0  0  0  0  0
  185.9450  178.2590  147.7100 C   0  0  0  0  0  3  0  0  0  0  0  0
  186.6610  177.1420  139.7650 C   0  0  0  0  0  0  0  0  0  0  0  0
  186.1890  177.2480  138.7140 N   0  0  0  0  0  0  0  0  0  0  0  0
  190.9230  175.1700  145.4060 C   0  0  0  0  0  2  0  0  0  0  0  0
  195.7530  176.3120  143.5590 C   0  0  0  0  0  0  0  0  0  0  0  0
  193.4280  175.5230  143.3580 C   0  0  0  0  0  3  0  0  0  0  0  0
  194.0230  176.5390  146.7300 N   0  0  0  0  0  0  0  0  0  0  0  0
  192.7520  176.1510  146.8370 N   0  0  0  0  0  0  0  0  0  0  0  0
  197.0670  176.5640  142.9140 C   0  0  0  0  0  1  0  0  0  0  0  0
  192.2900  175.7250  145.6330 C   0  0  0  0  0  0  0  0  0  0  0  0
  194.6890  175.7790  142.7830 C   0  0  0  0  0  2  0  0  0  0  0  0
  194.3810  176.3550  145.4500 C   0  0  0  0  0  0  0  0  0  0  0  0
  193.2950  175.8250  144.7030 C   0  0  0  0  0  0  0  0  0  0  0  0
  195.5880  176.5920  144.8890 N   0  0  0  0  0  0  0  0  0  0  0  0
  1  4  1  6  0  0  0
  1 11  1  0  0  0  0
  1  2  1  0  0  0  0
  2 17  1  0  0  0  0
  3 13  2  0  0  0  0
  5 15  2  0  0  0  0
  5 12  1  0  0  0  0
  6  2  2  0  0  0  0
  6  3  1  0  0  0  0
  7 11  1  0  0  0  0
  7 21  1  1  0  0  0
  9  3  1  0  0  0  0
 10  7  1  0  0  0  0
 11 16  2  0  0  0  0
 12  4  2  0  0  0  0
 13 18  1  0  0  0  0
 14  4  1  0  0  0  0
 14 10  1  1  0  0  0
 15 14  1  0  0  0  0
 16  8  1  0  0  0  0
 17  8  1  0  0  0  0
 17 18  2  0  0  0  0
 19  5  1  0  0  0  0
 20 19  3  0  0  0  0
 21 27  1  0  0  0  0
 22 31  2  0  0  0  0
 23 30  2  0  0  0  0
 24 25  1  0  0  0  0
 26 22  1  0  0  0  0
 27 25  2  0  0  0  0
 28 23  1  0  0  0  0
 28 22  1  0  0  0  0
 29 24  2  0  0  0  0
 30 29  1  0  0  0  0
 30 27  1  0  0  0  0
 31 29  1  0  0  0  0
M  END
>  <MODEL>
2

>  <REMARK>
 VINA RESULT:      -8.8      1.350      1.477
  Name = 
  3 active torsions:
  status: ('A' for Active; 'I' for Inactive)
    1  A    between atoms: C_2  and  C_13
    2  A    between atoms: C_9  and  C_23
    3  A    between atoms: C_15  and  C_23
                            x       y       z     vdW  Elec       q    Type
                         _______ _______ _______ _____ _____    ______ ____

>  <TORSDO>
F 3

$$$$
=
 OpenBabel11052417533D

 31 36  0  0  1  0  0  0  0  0999 V2000
  188.1140  177.5200  144.6170 C   0  0  2  0  0  3  0  0  0  0  0  0
  186.8550  177.8500  145.3940 C   0  0  0  0  0  0  0  0  0  0  0  0
  184.5330  178.5620  145.5190 C   0  0  0  0  0  0  0  0  0  0  0  0
  187.8490  176.9940  143.2240 C   0  0  0  0  0  0  0  0  0  0  0  0
  187.3540  176.7140  141.0220 C   0  0  0  0  0  0  0  0  0  0  0  0
  185.6580  178.2210  144.7620 C   0  0  0  0  0  3  0  0  0  0  0  0
  189.8580  175.5590  144.6770 C   0  0  1  0  0  3  0  0  0  0  0  0
  188.2170  177.5560  147.4780 C   0  0  0  0  0  2  0  0  0  0  0  0
  183.3800  178.9050  144.8980 F   0  0  0  0  0  0  0  0  0  0  0  0
  189.0390  174.8420  143.6000 C   0  0  0  0  0  2  0  0  0  0  0  0
  188.9860  176.5530  145.4200 C   0  0  0  0  0  0  0  0  0  0  0  0
  187.2060  177.7370  142.1030 C   0  0  0  0  0  3  0  0  0  0  0  0
  184.6010  178.5570  146.9140 C   0  0  0  0  0  3  0  0  0  0  0  0
  188.2970  175.8360  142.7640 C   0  0  1  0  0  3  0  0  0  0  0  0
  187.9720  175.6430  141.3980 N   0  0  0  0  0  0  0  0  0  0  0  0
  188.9930  176.5970  146.7150 N   0  0  0  0  0  0  0  0  0  0  0  0
  186.9160  177.8570  146.8000 C   0  0  0  0  0  0  0  0  0  0  0  0
  185.7940  178.2120  147.5550 C   0  0  0  0  0  3  0  0  0  0  0  0
  186.8690  176.8910  139.6820 C   0  0  0  0  0  0  0  0  0  0  0  0
  186.4780  177.0320  138.6020 N   0  0  0  0  0  0  0  0  0  0  0  0
  190.5190  174.5400  145.6010 C   0  0  0  0  0  2  0  0  0  0  0  0
  195.4830  175.4680  144.0080 C   0  0  0  0  0  0  0  0  0  0  0  0
  193.3330  176.0780  145.0440 C   0  0  0  0  0  3  0  0  0  0  0  0
  193.2000  172.6610  144.0150 N   0  0  0  0  0  0  0  0  0  0  0  0
  191.9740  172.7850  144.5260 N   0  0  0  0  0  0  0  0  0  0  0  0
  196.8500  175.8720  143.5920 C   0  0  0  0  0  1  0  0  0  0  0  0
  191.7950  174.0410  145.0100 C   0  0  0  0  0  0  0  0  0  0  0  0
  194.6380  176.4210  144.6360 C   0  0  0  0  0  2  0  0  0  0  0  0
  193.8090  173.8460  144.1680 C   0  0  0  0  0  0  0  0  0  0  0  0
  192.9380  174.7730  144.8010 C   0  0  0  0  0  0  0  0  0  0  0  0
  195.0570  174.1870  143.7760 N   0  0  0  0  0  0  0  0  0  0  0  0
  1  4  1  6  0  0  0
  1  2  1  0  0  0  0
  1 11  1  0  0  0  0
  2 17  1  0  0  0  0
  3 13  2  0  0  0  0
  5 15  2  0  0  0  0
  5 12  1  0  0  0  0
  6  2  2  0  0  0  0
  6  3  1  0  0  0  0
  7 11  1  0  0  0  0
  7 21  1  1  0  0  0
  9  3  1  0  0  0  0
 10  7  1  0  0  0  0
 11 16  2  0  0  0  0
 12  4  2  0  0  0  0
 13 18  1  0  0  0  0
 14  4  1  0  0  0  0
 14 10  1  1  0  0  0
 15 14  1  0  0  0  0
 16  8  1  0  0  0  0
 17  8  1  0  0  0  0
 17 18  2  0  0  0  0
 19  5  1  0  0  0  0
 20 19  3  0  0  0  0
 22 28  1  0  0  0  0
 24 29  2  0  0  0  0
 24 25  1  0  0  0  0
 25 27  2  0  0  0  0
 26 22  1  0  0  0  0
 27 21  1  0  0  0  0
 28 23  1  0  0  0  0
 29 30  1  0  0  0  0
 30 27  1  0  0  0  0
 30 23  2  0  0  0  0
 31 22  2  0  0  0  0
 31 29  1  0  0  0  0
M  END
>  <MODEL>
3

>  <REMARK>
 VINA RESULT:      -8.4      1.468      1.763
  Name = 
  3 active torsions:
  status: ('A' for Active; 'I' for Inactive)
    1  A    between atoms: C_2  and  C_13
    2  A    between atoms: C_9  and  C_23
    3  A    between atoms: C_15  and  C_23
                            x       y       z     vdW  Elec       q    Type
                         _______ _______ _______ _____ _____    ______ ____

>  <TORSDO>
F 3

$$$$
=
 OpenBabel11052417533D

 31 36  0  0  1  0  0  0  0  0999 V2000
  189.2930  175.1830  144.5650 C   0  0  2  0  0  3  0  0  0  0  0  0
  190.5900  175.3100  145.3400 C   0  0  0  0  0  0  0  0  0  0  0  0
  192.8230  174.5480  145.9300 C   0  0  0  0  0  0  0  0  0  0  0  0
  189.4530  174.5190  143.2150 C   0  0  0  0  0  0  0  0  0  0  0  0
  189.7240  173.0790  141.4760 C   0  0  0  0  0  0  0  0  0  0  0  0
  191.6620  174.4220  145.1610 C   0  0  0  0  0  3  0  0  0  0  0  0
  187.7840  176.8480  143.2070 C   0  0  1  0  0  3  0  0  0  0  0  0
  189.5100  177.1980  146.5880 C   0  0  0  0  0  2  0  0  0  0  0  0
  193.8560  173.6940  145.7390 F   0  0  0  0  0  0  0  0  0  0  0  0
  188.5480  176.4540  141.9390 C   0  0  0  0  0  2  0  0  0  0  0  0
  188.6240  176.5530  144.4350 C   0  0  0  0  0  0  0  0  0  0  0  0
  189.8840  173.1150  142.9630 C   0  0  0  0  0  2  0  0  0  0  0  0
  192.9130  175.5490  146.9000 C   0  0  0  0  0  3  0  0  0  0  0  0
  189.0810  175.0630  142.0660 C   0  0  0  0  0  0  0  0  0  0  0  0
  189.2690  174.1790  140.9740 N   0  0  0  0  0  0  0  0  0  0  0  0
  188.7590  177.4390  145.3700 N   0  0  0  0  0  0  0  0  0  0  0  0
  190.6870  176.3090  146.3260 C   0  0  0  0  0  0  0  0  0  0  0  0
  191.8430  176.4250  147.1040 C   0  0  0  0  0  3  0  0  0  0  0  0
  190.0330  171.9340  140.6660 C   0  0  0  0  0  0  0  0  0  0  0  0
  190.2840  171.0130  140.0130 N   0  0  0  0  0  0  0  0  0  0  0  0
  187.3430  178.3070  143.1240 C   0  0  0  0  0  2  0  0  0  0  0  0
  182.4370  178.3540  141.1320 C   0  0  0  0  0  0  0  0  0  0  0  0
  184.8830  178.0950  141.0030 C   0  0  0  0  0  3  0  0  0  0  0  0
  183.9670  178.8090  144.3800 N   0  0  0  0  0  0  0  0  0  0  0  0
  185.2890  178.7170  144.5250 N   0  0  0  0  0  0  0  0  0  0  0  0
  181.1240  178.3580  140.4380 C   0  0  0  0  0  1  0  0  0  0  0  0
  185.8710  178.4260  143.3330 C   0  0  0  0  0  0  0  0  0  0  0  0
  183.6180  178.1060  140.3820 C   0  0  0  0  0  2  0  0  0  0  0  0
  183.6990  178.5790  143.0860 C   0  0  0  0  0  0  0  0  0  0  0  0
  184.8990  178.3320  142.3670 C   0  0  0  0  0  0  0  0  0  0  0  0
  182.4900  178.5920  142.4790 N   0  0  0  0  0  0  0  0  0  0  0  0
  1  4  1  6  0  0  0
  1  2  1  0  0  0  0
  2 17  1  0  0  0  0
  3 13  2  0  0  0  0
  5 12  1  0  0  0  0
  6  2  2  0  0  0  0
  6  3  1  0  0  0  0
  7 21  1  6  0  0  0
  7 11  1  0  0  0  0
  9  3  1  0  0  0  0
 10 14  1  0  0  0  0
 10  7  1  0  0  0  0
 11  1  1  0  0  0  0
 11 16  2  0  0  0  0
 12  4  1  0  0  0  0
 13 18  1  0  0  0  0
 14  4  2  0  0  0  0
 15  5  2  0  0  0  0
 15 14  1  0  0  0  0
 16  8  1  0  0  0  0
 17  8  1  0  0  0  0
 17 18  2  0  0  0  0
 19  5  1  0  0  0  0
 20 19  3  0  0  0  0
 21 27  1  0  0  0  0
 22 31  2  0  0  0  0
 23 30  2  0  0  0  0
 24 25  1  0  0  0  0
 26 22  1  0  0  0  0
 27 25  2  0  0  0  0
 28 23  1  0  0  0  0
 28 22  1  0  0  0  0
 29 24  2  0  0  0  0
 30 29  1  0  0  0  0
 30 27  1  0  0  0  0
 31 29  1  0  0  0  0
M  END
>  <MODEL>
4

>  <REMARK>
 VINA RESULT:      -8.4      3.636      8.274
  Name = 
  3 active torsions:
  status: ('A' for Active; 'I' for Inactive)
    1  A    between atoms: C_2  and  C_13
    2  A    between atoms: C_9  and  C_23
    3  A    between atoms: C_15  and  C_23
                            x       y       z     vdW  Elec       q    Type
                         _______ _______ _______ _____ _____    ______ ____

>  <TORSDO>
F 3

$$$$
=
 OpenBabel11052417533D

 31 36  0  0  1  0  0  0  0  0999 V2000
  188.3840  176.7820  143.1270 C   0  0  2  0  0  3  0  0  0  0  0  0
  186.9810  177.2860  143.4070 C   0  0  0  0  0  0  0  0  0  0  0  0
  184.6870  177.7340  142.7400 C   0  0  0  0  0  0  0  0  0  0  0  0
  188.4370  175.6720  142.0990 C   0  0  0  0  0  0  0  0  0  0  0  0
  188.4440  174.4040  140.2120 C   0  0  0  0  0  0  0  0  0  0  0  0
  185.9530  177.2150  142.4550 C   0  0  0  0  0  3  0  0  0  0  0  0
  190.0800  175.2400  144.4070 C   0  0  1  0  0  3  0  0  0  0  0  0
  187.8480  178.0810  145.6220 C   0  0  0  0  0  2  0  0  0  0  0  0
  183.6980  177.6480  141.8180 F   0  0  0  0  0  0  0  0  0  0  0  0
  189.5230  174.0410  143.6320 C   0  0  0  0  0  2  0  0  0  0  0  0
  189.0600  176.3620  144.4340 C   0  0  0  0  0  0  0  0  0  0  0  0
  188.0550  175.7760  140.6630 C   0  0  0  0  0  3  0  0  0  0  0  0
  184.4440  178.3500  143.9700 C   0  0  0  0  0  3  0  0  0  0  0  0
  188.9810  174.4840  142.3100 C   0  0  1  0  0  3  0  0  0  0  0  0
  188.9680  173.6780  141.1440 N   0  0  0  0  0  0  0  0  0  0  0  0
  188.7790  176.9710  145.5420 N   0  0  0  0  0  0  0  0  0  0  0  0
  186.7290  177.9160  144.6400 C   0  0  0  0  0  0  0  0  0  0  0  0
  185.4660  178.4480  144.9170 C   0  0  0  0  0  3  0  0  0  0  0  0
  188.2670  173.9220  138.8710 C   0  0  0  0  0  0  0  0  0  0  0  0
  188.1240  173.5340  137.7910 N   0  0  0  0  0  0  0  0  0  0  0  0
  190.5240  174.8050  145.8000 C   0  0  0  0  0  2  0  0  0  0  0  0
  195.7320  173.8500  145.7520 C   0  0  0  0  0  0  0  0  0  0  0  0
  193.3720  173.3160  145.2860 C   0  0  0  0  0  3  0  0  0  0  0  0
  193.5540  176.5290  146.8360 N   0  0  0  0  0  0  0  0  0  0  0  0
  192.2330  176.4330  146.6810 N   0  0  0  0  0  0  0  0  0  0  0  0
  197.1590  173.4430  145.6940 C   0  0  0  0  0  1  0  0  0  0  0  0
  191.9180  175.2590  146.0760 C   0  0  0  0  0  0  0  0  0  0  0  0
  194.7380  172.9690  145.2480 C   0  0  0  0  0  2  0  0  0  0  0  0
  194.0890  175.4070  146.3310 C   0  0  0  0  0  0  0  0  0  0  0  0
  193.0690  174.5530  145.8330 C   0  0  0  0  0  0  0  0  0  0  0  0
  195.3960  175.0620  146.2940 N   0  0  0  0  0  0  0  0  0  0  0  0
  1  4  1  6  0  0  0
  1  2  1  0  0  0  0
  1 11  1  0  0  0  0
  2 17  1  0  0  0  0
  3 13  2  0  0  0  0
  4 14  1  0  0  0  0
  5 12  1  0  0  0  0
  5 15  2  0  0  0  0
  6  3  1  0  0  0  0
  6  2  2  0  0  0  0
  7 11  1  0  0  0  0
  7 21  1  1  0  0  0
  9  3  1  0  0  0  0
 10  7  1  0  0  0  0
 11 16  2  0  0  0  0
 12  4  2  0  0  0  0
 13 18  1  0  0  0  0
 14 10  1  1  0  0  0
 15 14  1  0  0  0  0
 16  8  1  0  0  0  0
 17 18  2  0  0  0  0
 17  8  1  0  0  0  0
 19  5  1  0  0  0  0
 20 19  3  0  0  0  0
 21 27  1  0  0  0  0
 22 31  2  0  0  0  0
 23 30  2  0  0  0  0
 25 24  1  0  0  0  0
 26 22  1  0  0  0  0
 27 25  2  0  0  0  0
 28 23  1  0  0  0  0
 28 22  1  0  0  0  0
 29 24  2  0  0  0  0
 30 27  1  0  0  0  0
 30 29  1  0  0  0  0
 31 29  1  0  0  0  0
M  END
>  <MODEL>
5

>  <REMARK>
 VINA RESULT:      -8.3      1.570      2.001
  Name = 
  3 active torsions:
  status: ('A' for Active; 'I' for Inactive)
    1  A    between atoms: C_2  and  C_13
    2  A    between atoms: C_9  and  C_23
    3  A    between atoms: C_15  and  C_23
                            x       y       z     vdW  Elec       q    Type
                         _______ _______ _______ _____ _____    ______ ____

>  <TORSDO>
F 3

$$$$
=
 OpenBabel11052417533D

 31 36  0  0  1  0  0  0  0  0999 V2000
  191.4730  174.1840  144.7110 C   0  0  2  0  0  3  0  0  0  0  0  0
  192.9290  174.2860  145.1210 C   0  0  0  0  0  0  0  0  0  0  0  0
  195.1390  173.3280  145.4530 C   0  0  0  0  0  0  0  0  0  0  0  0
  191.2130  173.1440  143.6430 C   0  0  0  0  0  0  0  0  0  0  0  0
  190.8750  171.2420  142.4420 C   0  0  0  0  0  0  0  0  0  0  0  0
  193.8160  173.2030  145.0210 C   0  0  0  0  0  3  0  0  0  0  0  0
  189.8660  175.6390  143.2310 C   0  0  1  0  0  3  0  0  0  0  0  0
  192.4150  176.6160  145.8900 C   0  0  0  0  0  2  0  0  0  0  0  0
  195.9900  172.2810  145.3390 F   0  0  0  0  0  0  0  0  0  0  0  0
  190.2370  174.7660  142.0280 C   0  0  0  0  0  2  0  0  0  0  0  0
  190.9500  175.5580  144.2890 C   0  0  0  0  0  0  0  0  0  0  0  0
  191.4080  171.6720  143.7720 C   0  0  0  0  0  2  0  0  0  0  0  0
  195.5820  174.5300  146.0100 C   0  0  0  0  0  3  0  0  0  0  0  0
  190.6270  173.3950  142.4820 C   0  0  0  0  0  0  0  0  0  0  0  0
  190.4340  172.2170  141.7170 N   0  0  0  0  0  0  0  0  0  0  0  0
  191.4130  176.6340  144.8410 N   0  0  0  0  0  0  0  0  0  0  0  0
  193.3820  175.4900  145.6920 C   0  0  0  0  0  0  0  0  0  0  0  0
  194.7020  175.6090  146.1370 C   0  0  0  0  0  3  0  0  0  0  0  0
  190.8420  169.8780  141.9970 C   0  0  0  0  0  0  0  0  0  0  0  0
  190.8160  168.7780  141.6380 N   0  0  0  0  0  0  0  0  0  0  0  0
  189.5830  177.0680  142.7760 C   0  0  0  0  0  2  0  0  0  0  0  0
  185.2100  178.0410  145.5990 C   0  0  0  0  0  0  0  0  0  0  0  0
  187.6250  177.6450  145.3100 C   0  0  0  0  0  3  0  0  0  0  0  0
  186.0490  177.6060  142.1060 N   0  0  0  0  0  0  0  0  0  0  0  0
  187.3080  177.3710  141.7350 N   0  0  0  0  0  0  0  0  0  0  0  0
  184.0660  178.2900  146.5130 C   0  0  0  0  0  1  0  0  0  0  0  0
  188.1200  177.3570  142.8230 C   0  0  0  0  0  0  0  0  0  0  0  0
  186.5130  177.8840  146.1430 C   0  0  0  0  0  2  0  0  0  0  0  0
  186.0530  177.7380  143.4400 C   0  0  0  0  0  0  0  0  0  0  0  0
  187.3690  177.5790  143.9510 C   0  0  0  0  0  0  0  0  0  0  0  0
  184.9920  177.9620  144.2490 N   0  0  0  0  0  0  0  0  0  0  0  0
  1  4  1  6  0  0  0
  1  2  1  0  0  0  0
  2 17  1  0  0  0  0
  3 13  2  0  0  0  0
  4 12  1  0  0  0  0
  5 12  1  0  0  0  0
  6  2  2  0  0  0  0
  6  3  1  0  0  0  0
  7 21  1  6  0  0  0
  7 11  1  0  0  0  0
  9  3  1  0  0  0  0
 10 14  1  0  0  0  0
 10  7  1  0  0  0  0
 11  1  1  0  0  0  0
 11 16  2  0  0  0  0
 13 18  1  0  0  0  0
 14  4  2  0  0  0  0
 15  5  2  0  0  0  0
 15 14  1  0  0  0  0
 16  8  1  0  0  0  0
 17  8  1  0  0  0  0
 17 18  2  0  0  0  0
 19  5  1  0  0  0  0
 20 19  3  0  0  0  0
 21 27  1  0  0  0  0
 22 28  1  0  0  0  0
 22 26  1  0  0  0  0
 23 28  1  0  0  0  0
 24 29  2  0  0  0  0
 25 24  1  0  0  0  0
 25 27  2  0  0  0  0
 27 30  1  0  0  0  0
 29 30  1  0  0  0  0
 29 31  1  0  0  0  0
 30 23  2  0  0  0  0
 31 22  2  0  0  0  0
M  END
>  <MODEL>
6

>  <REMARK>
 VINA RESULT:      -8.1      3.631      8.181
  Name = 
  3 active torsions:
  status: ('A' for Active; 'I' for Inactive)
    1  A    between atoms: C_2  and  C_13
    2  A    between atoms: C_9  and  C_23
    3  A    between atoms: C_15  and  C_23
                            x       y       z     vdW  Elec       q    Type
                         _______ _______ _______ _____ _____    ______ ____

>  <TORSDO>
F 3

$$$$
=
 OpenBabel11052417533D

 31 36  0  0  1  0  0  0  0  0999 V2000
  191.6310  174.4240  144.6550 C   0  0  2  0  0  3  0  0  0  0  0  0
  193.1290  174.5310  144.8640 C   0  0  0  0  0  0  0  0  0  0  0  0
  195.4170  173.8500  144.3990 C   0  0  0  0  0  0  0  0  0  0  0  0
  191.2420  173.9640  143.2670 C   0  0  0  0  0  0  0  0  0  0  0  0
  190.8040  172.7980  141.3640 C   0  0  0  0  0  0  0  0  0  0  0  0
  194.0460  173.7510  144.1420 C   0  0  0  0  0  3  0  0  0  0  0  0
  189.6920  176.1520  144.2770 C   0  0  1  0  0  3  0  0  0  0  0  0
  192.6260  176.1510  146.7100 C   0  0  0  0  0  2  0  0  0  0  0  0
  196.2930  173.1020  143.6880 F   0  0  0  0  0  0  0  0  0  0  0  0
  189.8870  175.9900  142.7660 C   0  0  0  0  0  2  0  0  0  0  0  0
  190.9570  175.7490  145.0120 C   0  0  0  0  0  0  0  0  0  0  0  0
  191.5460  172.6410  142.6530 C   0  0  0  0  0  2  0  0  0  0  0  0
  195.8810  174.7110  145.3960 C   0  0  0  0  0  3  0  0  0  0  0  0
  190.4370  174.6340  142.4560 C   0  0  0  0  0  0  0  0  0  0  0  0
  190.1770  173.9230  141.2580 N   0  0  0  0  0  0  0  0  0  0  0  0
  191.4480  176.5050  145.9410 N   0  0  0  0  0  0  0  0  0  0  0  0
  193.6060  175.3890  145.8720 C   0  0  0  0  0  0  0  0  0  0  0  0
  194.9760  175.4760  146.1380 C   0  0  0  0  0  3  0  0  0  0  0  0
  190.7720  171.8000  140.3330 C   0  0  0  0  0  0  0  0  0  0  0  0
  190.7460  170.9960  139.5010 N   0  0  0  0  0  0  0  0  0  0  0  0
  189.2440  177.5750  144.5990 C   0  0  0  0  0  2  0  0  0  0  0  0
  184.4280  178.1140  142.4640 C   0  0  0  0  0  0  0  0  0  0  0  0
  186.8810  177.8980  142.3840 C   0  0  0  0  0  3  0  0  0  0  0  0
  185.8100  177.7430  145.7880 N   0  0  0  0  0  0  0  0  0  0  0  0
  187.1270  177.6200  145.9640 N   0  0  0  0  0  0  0  0  0  0  0  0
  183.1460  178.2910  141.7350 C   0  0  0  0  0  1  0  0  0  0  0  0
  187.7630  177.6370  144.7650 C   0  0  0  0  0  0  0  0  0  0  0  0
  185.6430  178.0630  141.7300 C   0  0  0  0  0  2  0  0  0  0  0  0
  185.6020  177.8440  144.4670 C   0  0  0  0  0  0  0  0  0  0  0  0
  186.8350  177.7860  143.7640 C   0  0  0  0  0  0  0  0  0  0  0  0
  184.4200  178.0080  143.8290 N   0  0  0  0  0  0  0  0  0  0  0  0
  1  4  1  6  0  0  0
  1  2  1  0  0  0  0
  1 11  1  0  0  0  0
  2 17  1  0  0  0  0
  3 13  2  0  0  0  0
  5 12  1  0  0  0  0
  6  3  1  0  0  0  0
  6  2  2  0  0  0  0
  7 21  1  6  0  0  0
  7 11  1  0  0  0  0
  9  3  1  0  0  0  0
 10  7  1  0  0  0  0
 11 16  2  0  0  0  0
 12  4  1  0  0  0  0
 13 18  1  0  0  0  0
 14 10  1  0  0  0  0
 14  4  2  0  0  0  0
 15  5  2  0  0  0  0
 15 14  1  0  0  0  0
 16  8  1  0  0  0  0
 17 18  2  0  0  0  0
 17  8  1  0  0  0  0
 19  5  1  0  0  0  0
 20 19  3  0  0  0  0
 21 27  1  0  0  0  0
 22 31  2  0  0  0  0
 23 30  2  0  0  0  0
 24 25  1  0  0  0  0
 26 22  1  0  0  0  0
 27 25  2  0  0  0  0
 28 23  1  0  0  0  0
 28 22  1  0  0  0  0
 29 24  2  0  0  0  0
 30 29  1  0  0  0  0
 30 27  1  0  0  0  0
 31 29  1  0  0  0  0
M  END
>  <MODEL>
7

>  <REMARK>
 VINA RESULT:      -7.9      3.550      8.164
  Name = 
  3 active torsions:
  status: ('A' for Active; 'I' for Inactive)
    1  A    between atoms: C_2  and  C_13
    2  A    between atoms: C_9  and  C_23
    3  A    between atoms: C_15  and  C_23
                            x       y       z     vdW  Elec       q    Type
                         _______ _______ _______ _____ _____    ______ ____

>  <TORSDO>
F 3

$$$$
=
 OpenBabel11052417533D

 31 36  0  0  1  0  0  0  0  0999 V2000
  192.8200  174.0470  145.4490 C   0  0  2  0  0  3  0  0  0  0  0  0
  193.9000  174.8000  144.6970 C   0  0  0  0  0  0  0  0  0  0  0  0
  195.4660  175.0370  142.8510 C   0  0  0  0  0  0  0  0  0  0  0  0
  191.9440  173.1920  144.5600 C   0  0  0  0  0  0  0  0  0  0  0  0
  191.0470  171.5820  143.2270 C   0  0  0  0  0  0  0  0  0  0  0  0
  194.4380  174.3340  143.4870 C   0  0  0  0  0  3  0  0  0  0  0  0
  190.5220  174.7100  146.5310 C   0  0  1  0  0  3  0  0  0  0  0  0
  193.9290  176.4150  146.6150 C   0  0  0  0  0  2  0  0  0  0  0  0
  195.9680  174.5850  141.6780 F   0  0  0  0  0  0  0  0  0  0  0  0
  189.8320  174.3320  145.2160 C   0  0  0  0  0  2  0  0  0  0  0  0
  191.9850  175.0220  146.2810 C   0  0  0  0  0  0  0  0  0  0  0  0
  192.3770  172.0140  143.7560 C   0  0  0  0  0  3  0  0  0  0  0  0
  195.9800  176.1990  143.4310 C   0  0  0  0  0  3  0  0  0  0  0  0
  190.6250  173.2890  144.4950 C   0  0  1  0  0  3  0  0  0  0  0  0
  190.0600  172.3030  143.6470 N   0  0  0  0  0  0  0  0  0  0  0  0
  192.5250  176.0880  146.7800 N   0  0  0  0  0  0  0  0  0  0  0  0
  194.4320  175.9670  145.2770 C   0  0  0  0  0  0  0  0  0  0  0  0
  195.4700  176.6600  144.6470 C   0  0  0  0  0  3  0  0  0  0  0  0
  190.8620  170.4690  142.3400 C   0  0  0  0  0  0  0  0  0  0  0  0
  190.7140  169.5720  141.6240 N   0  0  0  0  0  0  0  0  0  0  0  0
  189.7740  175.8560  147.2060 C   0  0  0  0  0  2  0  0  0  0  0  0
  185.3830  178.1390  145.3220 C   0  0  0  0  0  0  0  0  0  0  0  0
  186.6740  176.8130  146.9490 C   0  0  0  0  0  3  0  0  0  0  0  0
  188.8640  177.9240  144.3550 N   0  0  0  0  0  0  0  0  0  0  0  0
  189.7330  177.2410  145.1000 N   0  0  0  0  0  0  0  0  0  0  0  0
  184.0760  178.7040  144.8990 C   0  0  0  0  0  1  0  0  0  0  0  0
  189.1090  176.7230  146.1890 C   0  0  0  0  0  0  0  0  0  0  0  0
  185.4540  177.3690  146.5140 C   0  0  0  0  0  2  0  0  0  0  0  0
  187.6730  177.8390  144.9670 C   0  0  0  0  0  0  0  0  0  0  0  0
  187.7800  177.0670  146.1550 C   0  0  0  0  0  0  0  0  0  0  0  0
  186.4960  178.3640  144.5570 N   0  0  0  0  0  0  0  0  0  0  0  0
  1  4  1  6  0  0  0
  1 11  1  0  0  0  0
  2 17  1  0  0  0  0
  2  1  1  0  0  0  0
  3 13  2  0  0  0  0
  3  6  1  0  0  0  0
  5 15  2  0  0  0  0
  5 12  1  0  0  0  0
  6  2  2  0  0  0  0
  7 21  1  6  0  0  0
  8 16  1  0  0  0  0
  9  3  1  0  0  0  0
 10  7  1  0  0  0  0
 11  7  1  0  0  0  0
 11 16  2  0  0  0  0
 12  4  2  0  0  0  0
 13 18  1  0  0  0  0
 14  4  1  0  0  0  0
 14 10  1  6  0  0  0
 15 14  1  0  0  0  0
 17  8  1  0  0  0  0
 18 17  2  0  0  0  0
 19  5  1  0  0  0  0
 20 19  3  0  0  0  0
 22 28  1  0  0  0  0
 24 29  2  0  0  0  0
 24 25  1  0  0  0  0
 25 27  2  0  0  0  0
 26 22  1  0  0  0  0
 27 21  1  0  0  0  0
 28 23  1  0  0  0  0
 29 30  1  0  0  0  0
 30 27  1  0  0  0  0
 30 23  2  0  0  0  0
 31 29  1  0  0  0  0
 31 22  2  0  0  0  0
M  END
>  <MODEL>
8

>  <REMARK>
 VINA RESULT:      -7.8      3.496      7.999
  Name = 
  3 active torsions:
  status: ('A' for Active; 'I' for Inactive)
    1  A    between atoms: C_2  and  C_13
    2  A    between atoms: C_9  and  C_23
    3  A    between atoms: C_15  and  C_23
                            x       y       z     vdW  Elec       q    Type
                         _______ _______ _______ _____ _____    ______ ____

>  <TORSDO>
F 3

$$$$
=
 OpenBabel11052417533D

 31 36  0  0  1  0  0  0  0  0999 V2000
  189.7080  176.3390  144.1170 C   0  0  2  0  0  3  0  0  0  0  0  0
  188.4130  176.7640  144.7800 C   0  0  0  0  0  0  0  0  0  0  0  0
  186.0210  177.1990  144.7380 C   0  0  0  0  0  0  0  0  0  0  0  0
  189.5180  175.3430  142.9930 C   0  0  0  0  0  0  0  0  0  0  0  0
  189.0760  174.2750  141.0350 C   0  0  0  0  0  0  0  0  0  0  0  0
  187.1840  176.7550  144.1020 C   0  0  0  0  0  3  0  0  0  0  0  0
  191.6780  174.7330  144.7750 C   0  0  1  0  0  3  0  0  0  0  0  0
  189.7870  177.3580  146.7910 C   0  0  0  0  0  2  0  0  0  0  0  0
  184.8380  177.1740  144.0800 F   0  0  0  0  0  0  0  0  0  0  0  0
  190.9590  173.6020  144.0330 C   0  0  0  0  0  2  0  0  0  0  0  0
  190.6860  175.8120  145.1680 C   0  0  0  0  0  0  0  0  0  0  0  0
  188.7960  175.5800  141.7110 C   0  0  0  0  0  3  0  0  0  0  0  0
  186.0800  177.6770  146.0500 C   0  0  0  0  0  3  0  0  0  0  0  0
  190.1070  174.1580  142.9370 C   0  0  1  0  0  3  0  0  0  0  0  0
  189.8170  173.4760  141.7290 N   0  0  0  0  0  0  0  0  0  0  0  0
  190.6790  176.2940  146.3700 N   0  0  0  0  0  0  0  0  0  0  0  0
  188.4640  177.2560  146.0970 C   0  0  0  0  0  0  0  0  0  0  0  0
  187.3020  177.7130  146.7270 C   0  0  0  0  0  3  0  0  0  0  0  0
  188.5810  173.9280  139.7330 C   0  0  0  0  0  0  0  0  0  0  0  0
  188.1830  173.6480  138.6830 N   0  0  0  0  0  0  0  0  0  0  0  0
  192.4520  174.1730  145.9650 C   0  0  0  0  0  2  0  0  0  0  0  0
  196.8000  171.2540  145.1850 C   0  0  0  0  0  0  0  0  0  0  0  0
  194.3940  171.5880  145.5950 C   0  0  0  0  0  3  0  0  0  0  0  0
  195.9780  174.7760  145.3030 N   0  0  0  0  0  0  0  0  0  0  0  0
  194.7230  175.1720  145.5240 N   0  0  0  0  0  0  0  0  0  0  0  0
  197.9380  170.3160  145.0040 C   0  0  0  0  0  1  0  0  0  0  0  0
  193.9090  174.0930  145.6550 C   0  0  0  0  0  0  0  0  0  0  0  0
  195.5000  170.7320  145.4160 C   0  0  0  0  0  2  0  0  0  0  0  0
  195.9690  173.4340  145.2980 C   0  0  0  0  0  0  0  0  0  0  0  0
  194.6540  172.9470  145.5280 C   0  0  0  0  0  0  0  0  0  0  0  0
  197.0230  172.6040  145.1330 N   0  0  0  0  0  0  0  0  0  0  0  0
  1  4  1  6  0  0  0
  1  2  1  0  0  0  0
  1 11  1  0  0  0  0
  2 17  1  0  0  0  0
  3 13  2  0  0  0  0
  5 12  1  0  0  0  0
  5 15  2  0  0  0  0
  6  3  1  0  0  0  0
  6  2  2  0  0  0  0
  7 11  1  0  0  0  0
  7 21  1  1  0  0  0
  9  3  1  0  0  0  0
 10  7  1  0  0  0  0
 11 16  2  0  0  0  0
 12  4  2  0  0  0  0
 13 18  1  0  0  0  0
 14  4  1  0  0  0  0
 14 10  1  1  0  0  0
 15 14  1  0  0  0  0
 16  8  1  0  0  0  0
 17 18  2  0  0  0  0
 17  8  1  0  0  0  0
 19  5  1  0  0  0  0
 20 19  3  0  0  0  0
 22 28  1  0  0  0  0
 24 25  1  0  0  0  0
 25 27  2  0  0  0  0
 26 22  1  0  0  0  0
 27 21  1  0  0  0  0
 28 23  1  0  0  0  0
 29 24  2  0  0  0  0
 29 30  1  0  0  0  0
 30 23  2  0  0  0  0
 30 27  1  0  0  0  0
 31 22  2  0  0  0  0
 31 29  1  0  0  0  0
M  END
>  <MODEL>
9

>  <REMARK>
 VINA RESULT:      -7.7      1.800      2.491
  Name = 
  3 active torsions:
  status: ('A' for Active; 'I' for Inactive)
    1  A    between atoms: C_2  and  C_13
    2  A    between atoms: C_9  and  C_23
    3  A    between atoms: C_15  and  C_23
                            x       y       z     vdW  Elec       q    Type
                         _______ _______ _______ _____ _____    ______ ____

>  <TORSDO>
F 3

$$$$
