=
 OpenBabel11052419493D

 55 60  0  0  1  0  0  0  0  0999 V2000
  189.9350  173.0870  139.5750 C   0  0  0  0  0  2  0  0  0  0  0  0
  188.9730  174.1150  142.0550 C   0  0  2  0  0  3  0  0  0  0  0  0
  190.4680  173.8010  141.9280 C   0  0  2  0  0  3  0  0  0  0  0  0
  188.5110  173.5490  139.8620 C   0  0  0  0  0  2  0  0  0  0  0  0
  190.8970  173.8680  140.4600 C   0  0  0  0  0  2  0  0  0  0  0  0
  188.1720  173.3050  141.2140 O   0  0  0  0  0  0  0  0  0  0  0  0
  188.6450  175.5970  141.9310 C   0  0  0  0  0  2  0  0  0  0  0  0
  187.3260  175.8680  142.6260 C   0  0  0  0  0  2  0  0  0  0  0  0
  187.1040  177.3580  142.7960 C   0  0  0  0  0  2  0  0  0  0  0  0
  186.3600  177.6470  144.0550 C   0  0  0  0  0  0  0  0  0  0  0  0
  185.1090  177.5000  144.0900 O   0  0  0  0  0  0  0  0  0  0  0  0
  187.0630  178.0440  145.1940 O   0  0  0  0  0  0  0  0  0  0  0  0
  186.1570  177.6130  147.4430 C   0  0  0  0  0  2  0  0  0  0  0  0
  187.1190  177.2560  146.3780 C   0  0  1  0  0  0  0  0  0  0  0  0
  185.9390  176.5190  146.5730 O   0  0  0  0  0  0  0  0  0  0  0  0
  188.4010  176.4890  146.7320 C   0  0  1  0  0  0  0  0  0  0  0  0
  189.2370  177.3360  147.4670 O   0  0  0  0  0  1  0  0  0  0  0  0
  188.1000  175.3780  147.5080 F   0  0  0  0  0  0  0  0  0  0  0  0
  189.1750  174.6630  145.3530 F   0  0  0  0  0  0  0  0  0  0  0  0
  189.1360  176.0420  145.4620 C   0  0  2  0  0  3  0  0  0  0  0  0
  190.5330  176.6700  145.3580 C   0  0  2  0  0  3  0  0  0  0  0  0
  190.5450  177.8070  144.3420 C   0  0  0  0  0  2  0  0  0  0  0  0
  191.7290  177.5170  142.9880 S   0  0  0  0  0  1  0  0  0  0  0  0
  191.6550  175.6660  145.0690 C   0  0  0  0  0  2  0  0  0  0  0  0
  192.3600  176.4730  147.2120 O   0  0  0  0  0  1  0  0  0  0  0  0
  192.7320  175.6370  146.1560 C   0  0  2  0  0  3  0  0  0  0  0  0
  194.1250  176.0100  145.6380 C   0  0  0  0  0  3  0  0  0  0  0  0
  194.5500  177.3480  146.2050 C   0  0  0  0  0  1  0  0  0  0  0  0
  195.1550  174.9710  146.0390 C   0  0  0  0  0  1  0  0  0  0  0  0
  190.7110  172.4200  142.5130 C   0  0  0  0  0  2  0  0  0  0  0  0
  192.0070  172.3370  143.1830 N   0  0  0  0  0  2  0  0  0  0  0  0
  193.0680  172.1610  142.1820 C   0  0  2  0  0  3  0  0  0  0  0  0
  193.5470  171.0720  139.9590 C   0  0  2  0  0  3  0  0  0  0  0  0
  193.8870  170.0140  141.0040 C   0  0  0  0  0  2  0  0  0  0  0  0
  192.7370  170.9740  141.2470 C   0  0  1  0  0  3  0  0  0  0  0  0
  192.7510  170.5660  138.9140 O   0  0  0  0  0  0  0  0  0  0  0  0
  192.2770  172.7040  136.8170 C   0  0  0  0  0  0  0  0  0  0  0  0
  191.7360  173.6760  136.2220 O   0  0  0  0  0  0  0  0  0  0  0  0
  193.3660  172.5550  137.8210 C   0  0  0  0  0  2  0  0  0  0  0  0
  193.1930  171.1350  137.6990 C   0  0  2  0  0  3  0  0  0  0  0  0
  192.0970  171.2670  136.8140 O   0  0  0  0  0  0  0  0  0  0  0  0
  194.4690  172.1510  142.8420 C   0  0  1  0  0  3  0  0  0  0  0  0
  194.0960  174.5620  142.2800 C   0  0  0  0  0  2  0  0  0  0  0  0
  196.0210  176.1590  142.2980 C   0  0  0  0  0  2  0  0  0  0  0  0
  196.4940  173.6320  142.2170 C   0  0  2  0  0  3  0  0  0  0  0  0
  197.0790  175.0520  142.2420 C   0  0  0  0  0  2  0  0  0  0  0  0
  194.7610  175.7370  141.5610 C   0  0  0  0  0  2  0  0  0  0  0  0
  195.0980  173.5530  142.8750 C   0  0  2  0  0  3  0  0  0  0  0  0
  197.4240  172.7370  142.8800 N   0  0  0  0  0  1  0  0  0  0  0  0
  194.4190  171.6150  144.1360 O   0  0  0  0  0  0  0  0  0  0  0  0
  195.3630  170.5850  144.1380 C   0  0  0  0  0  2  0  0  0  0  0  0
  194.4990  169.2490  145.9050 C   0  0  0  0  0  0  0  0  0  0  0  0
  193.4110  169.5260  144.9150 O   0  0  0  0  0  0  0  0  0  0  0  0
  194.9210  169.0910  147.1510 C   0  0  0  0  0  2  0  0  0  0  0  0
  194.7030  169.2850  144.5430 C   0  0  1  0  0  3  0  0  0  0  0  0
  1  4  1  0  0  0  0
  1  5  1  0  0  0  0
  2  7  1  6  0  0  0
  3  2  1  0  0  0  0
  3 30  1  6  0  0  0
  4  6  1  0  0  0  0
  5  3  1  0  0  0  0
  6  2  1  0  0  0  0
  7  8  1  0  0  0  0
  8  9  1  0  0  0  0
  9 10  1  0  0  0  0
 10 11  2  0  0  0  0
 10 12  1  0  0  0  0
 14 12  1  6  0  0  0
 14 15  1  0  0  0  0
 14 16  1  0  0  0  0
 14 13  1  0  0  0  0
 15 13  1  0  0  0  0
 16 17  1  1  0  0  0
 16 18  1  0  0  0  0
 20 19  1  1  0  0  0
 20 16  1  0  0  0  0
 21 22  1  6  0  0  0
 21 20  1  0  0  0  0
 23 22  1  0  0  0  0
 24 21  1  0  0  0  0
 24 26  1  0  0  0  0
 26 25  1  1  0  0  0
 27 29  1  0  0  0  0
 27 26  1  0  0  0  0
 27 28  1  0  0  0  0
 30 31  1  0  0  0  0
 32 42  1  0  0  0  0
 32 31  1  1  0  0  0
 33 36  1  6  0  0  0
 33 34  1  0  0  0  0
 33 35  1  0  0  0  0
 34 35  1  0  0  0  0
 35 32  1  1  0  0  0
 37 39  1  0  0  0  0
 38 37  2  0  0  0  0
 40 39  1  0  0  0  0
 40 36  1  1  0  0  0
 41 37  1  0  0  0  0
 41 40  1  0  0  0  0
 42 50  1  1  0  0  0
 43 48  1  0  0  0  0
 45 46  1  0  0  0  0
 45 48  1  0  0  0  0
 45 49  1  1  0  0  0
 46 44  1  0  0  0  0
 47 43  1  0  0  0  0
 47 44  1  0  0  0  0
 48 42  1  6  0  0  0
 50 51  1  0  0  0  0
 52 54  2  0  0  0  0
 53 52  1  0  0  0  0
 55 51  1  1  0  0  0
 55 53  1  0  0  0  0
 55 52  1  0  0  0  0
M  END
>  <MODEL>
1

>  <REMARK>
 VINA RESULT:      -5.3      0.000      0.000
  Name = 
  24 active torsions:
  status: ('A' for Active; 'I' for Inactive)
    1  A    between atoms: C_1  and  C_29
    2  A    between atoms: C_2  and  N_28
    3  A    between atoms: C_2  and  C_31
    4  A    between atoms: C_3  and  C_29
    5  A    between atoms: C_3  and  C_38
    6  A    between atoms: C_6  and  C_14
    7  A    between atoms: C_6  and  C_20
    8  A    between atoms: C_8  and  O_22
    9  A    between atoms: C_8  and  C_35
   10  A    between atoms: C_11  and  C_38
   11  A    between atoms: C_13  and  O_48
   12  A    between atoms: C_14  and  C_38
   13  A    between atoms: C_19  and  C_40
   14  A    between atoms: C_19  and  O_45
   15  A    between atoms: C_20  and  O_22
   16  A    between atoms: C_26  and  C_49
   17  A    between atoms: C_27  and  C_54
   18  A    between atoms: N_28  and  C_33
   19  A    between atoms: C_33  and  C_49
   20  A    between atoms: C_33  and  C_52
   21  A    between atoms: C_35  and  C_51
   22  A    between atoms: C_39  and  O_48
   23  A    between atoms: O_45  and  C_49
   24  A    between atoms: C_51  and  C_54
                            x       y       z     vdW  Elec       q    Type
                         _______ _______ _______ _____ _____    ______ ____

>  <TORSDO>
F 24

$$$$
=
 OpenBabel11052419493D

 55 60  0  0  1  0  0  0  0  0999 V2000
  185.4890  177.8140  141.9020 C   0  0  0  0  0  2  0  0  0  0  0  0
  187.9950  176.6150  141.2540 C   0  0  2  0  0  3  0  0  0  0  0  0
  187.5850  176.6940  142.7290 C   0  0  2  0  0  3  0  0  0  0  0  0
  186.0240  177.5570  140.4980 C   0  0  0  0  0  2  0  0  0  0  0  0
  186.0600  176.7660  142.8490 C   0  0  0  0  0  2  0  0  0  0  0  0
  187.4350  177.6580  140.4760 O   0  0  0  0  0  0  0  0  0  0  0  0
  187.7870  175.2420  140.6320 C   0  0  0  0  0  2  0  0  0  0  0  0
  188.9740  174.3630  140.9730 C   0  0  0  0  0  2  0  0  0  0  0  0
  188.9740  173.1050  140.1280 C   0  0  0  0  0  2  0  0  0  0  0  0
  190.3560  172.5730  139.9610 C   0  0  0  0  0  0  0  0  0  0  0  0
  191.3420  173.3510  140.0570 O   0  0  0  0  0  0  0  0  0  0  0  0
  190.5460  171.2080  139.7350 O   0  0  0  0  0  0  0  0  0  0  0  0
  190.3790  169.1700  138.3640 C   0  0  0  0  0  2  0  0  0  0  0  0
  190.5550  170.6370  138.4320 C   0  0  1  0  0  0  0  0  0  0  0  0
  189.3150  170.0650  138.1020 O   0  0  0  0  0  0  0  0  0  0  0  0
  191.2310  171.3800  137.2700 C   0  0  1  0  0  0  0  0  0  0  0  0
  190.8990  170.7320  136.0760 O   0  0  0  0  0  1  0  0  0  0  0  0
  190.7760  172.6900  137.2070 F   0  0  0  0  0  0  0  0  0  0  0  0
  193.1300  171.0320  138.7220 F   0  0  0  0  0  0  0  0  0  0  0  0
  192.7560  171.3750  137.4340 C   0  0  2  0  0  3  0  0  0  0  0  0
  193.3840  172.7030  136.9850 C   0  0  2  0  0  3  0  0  0  0  0  0
  193.8630  172.6170  135.5400 C   0  0  0  0  0  2  0  0  0  0  0  0
  194.7900  171.0860  135.2040 S   0  0  0  0  0  1  0  0  0  0  0  0
  194.5000  173.2140  137.9020 C   0  0  0  0  0  2  0  0  0  0  0  0
  193.5710  175.3940  137.5530 O   0  0  0  0  0  1  0  0  0  0  0  0
  194.2030  174.5890  138.5040 C   0  0  2  0  0  3  0  0  0  0  0  0
  195.4480  175.2880  139.0620 C   0  0  0  0  0  3  0  0  0  0  0  0
  195.2550  175.6010  140.5300 C   0  0  0  0  0  1  0  0  0  0  0  0
  196.6780  174.4120  138.9160 C   0  0  0  0  0  1  0  0  0  0  0  0
  188.2460  177.9170  143.3390 C   0  0  0  0  0  2  0  0  0  0  0  0
  189.6540  177.6750  143.6460 N   0  0  0  0  0  2  0  0  0  0  0  0
  189.7580  176.7340  144.7700 C   0  0  2  0  0  3  0  0  0  0  0  0
  188.3400  176.8710  146.8490 C   0  0  2  0  0  3  0  0  0  0  0  0
  189.7590  176.6190  147.3490 C   0  0  0  0  0  2  0  0  0  0  0  0
  189.5330  177.4680  146.1120 C   0  0  1  0  0  3  0  0  0  0  0  0
  187.6990  177.9160  147.5420 O   0  0  0  0  0  0  0  0  0  0  0  0
  184.9540  178.2630  146.3000 C   0  0  0  0  0  0  0  0  0  0  0  0
  184.0610  178.6520  145.4990 O   0  0  0  0  0  0  0  0  0  0  0  0
  185.8260  177.0600  146.4080 C   0  0  0  0  0  2  0  0  0  0  0  0
  186.3230  177.6130  147.6360 C   0  0  2  0  0  3  0  0  0  0  0  0
  185.5670  178.8010  147.4980 O   0  0  0  0  0  0  0  0  0  0  0  0
  191.0360  175.8660  144.6620 C   0  0  1  0  0  3  0  0  0  0  0  0
  189.5960  173.8260  144.8410 C   0  0  0  0  0  2  0  0  0  0  0  0
  190.2060  171.7540  143.5810 C   0  0  0  0  0  2  0  0  0  0  0  0
  191.9870  173.5780  143.9230 C   0  0  2  0  0  3  0  0  0  0  0  0
  191.6520  172.1990  143.3380 C   0  0  0  0  0  2  0  0  0  0  0  0
  189.6900  172.3000  144.9010 C   0  0  0  0  0  2  0  0  0  0  0  0
  190.7430  174.4860  144.0520 C   0  0  2  0  0  3  0  0  0  0  0  0
  192.9940  174.2040  143.0880 N   0  0  0  0  0  1  0  0  0  0  0  0
  192.0330  176.5180  143.9230 O   0  0  0  0  0  0  0  0  0  0  0  0
  192.7900  177.2110  144.8710 C   0  0  0  0  0  2  0  0  0  0  0  0
  194.4960  175.9300  145.9220 C   0  0  0  0  0  0  0  0  0  0  0  0
  193.9710  176.9450  146.8890 O   0  0  0  0  0  0  0  0  0  0  0  0
  195.4950  175.2330  145.4000 C   0  0  0  0  0  2  0  0  0  0  0  0
  193.1670  176.2820  146.0050 C   0  0  1  0  0  3  0  0  0  0  0  0
  1  5  1  0  0  0  0
  2  7  1  6  0  0  0
  2  3  1  0  0  0  0
  3  5  1  0  0  0  0
  3 30  1  6  0  0  0
  4  1  1  0  0  0  0
  6  4  1  0  0  0  0
  6  2  1  0  0  0  0
  7  8  1  0  0  0  0
  9  8  1  0  0  0  0
 10 11  2  0  0  0  0
 10  9  1  0  0  0  0
 12 10  1  0  0  0  0
 13 14  1  0  0  0  0
 14 12  1  1  0  0  0
 15 13  1  0  0  0  0
 15 14  1  0  0  0  0
 16 17  1  6  0  0  0
 16 20  1  0  0  0  0
 16 14  1  0  0  0  0
 18 16  1  0  0  0  0
 20 19  1  1  0  0  0
 21 22  1  6  0  0  0
 21 20  1  0  0  0  0
 21 24  1  0  0  0  0
 23 22  1  0  0  0  0
 24 26  1  0  0  0  0
 26 25  1  6  0  0  0
 26 27  1  0  0  0  0
 27 28  1  0  0  0  0
 29 27  1  0  0  0  0
 30 31  1  0  0  0  0
 32 31  1  6  0  0  0
 33 34  1  0  0  0  0
 33 36  1  1  0  0  0
 35 32  1  6  0  0  0
 35 33  1  0  0  0  0
 35 34  1  0  0  0  0
 37 39  1  0  0  0  0
 37 41  1  0  0  0  0
 38 37  2  0  0  0  0
 39 40  1  0  0  0  0
 40 36  1  6  0  0  0
 41 40  1  0  0  0  0
 42 50  1  6  0  0  0
 42 32  1  0  0  0  0
 43 47  1  0  0  0  0
 44 47  1  0  0  0  0
 45 49  1  6  0  0  0
 45 48  1  0  0  0  0
 46 44  1  0  0  0  0
 46 45  1  0  0  0  0
 48 42  1  1  0  0  0
 48 43  1  0  0  0  0
 50 51  1  0  0  0  0
 52 55  1  0  0  0  0
 52 53  1  0  0  0  0
 54 52  2  0  0  0  0
 55 51  1  6  0  0  0
 55 53  1  0  0  0  0
M  END
>  <MODEL>
2

>  <REMARK>
 VINA RESULT:      -5.2      3.427      8.620
  Name = 
  24 active torsions:
  status: ('A' for Active; 'I' for Inactive)
    1  A    between atoms: C_1  and  C_29
    2  A    between atoms: C_2  and  N_28
    3  A    between atoms: C_2  and  C_31
    4  A    between atoms: C_3  and  C_29
    5  A    between atoms: C_3  and  C_38
    6  A    between atoms: C_6  and  C_14
    7  A    between atoms: C_6  and  C_20
    8  A    between atoms: C_8  and  O_22
    9  A    between atoms: C_8  and  C_35
   10  A    between atoms: C_11  and  C_38
   11  A    between atoms: C_13  and  O_48
   12  A    between atoms: C_14  and  C_38
   13  A    between atoms: C_19  and  C_40
   14  A    between atoms: C_19  and  O_45
   15  A    between atoms: C_20  and  O_22
   16  A    between atoms: C_26  and  C_49
   17  A    between atoms: C_27  and  C_54
   18  A    between atoms: N_28  and  C_33
   19  A    between atoms: C_33  and  C_49
   20  A    between atoms: C_33  and  C_52
   21  A    between atoms: C_35  and  C_51
   22  A    between atoms: C_39  and  O_48
   23  A    between atoms: O_45  and  C_49
   24  A    between atoms: C_51  and  C_54
                            x       y       z     vdW  Elec       q    Type
                         _______ _______ _______ _____ _____    ______ ____

>  <TORSDO>
F 24

$$$$
=
 OpenBabel11052419493D

 55 60  0  0  1  0  0  0  0  0999 V2000
  185.7210  177.8250  141.9540 C   0  0  0  0  0  2  0  0  0  0  0  0
  188.0110  176.1780  141.5290 C   0  0  2  0  0  3  0  0  0  0  0  0
  187.5740  176.4600  142.9710 C   0  0  2  0  0  3  0  0  0  0  0  0
  186.2480  177.3540  140.6030 C   0  0  0  0  0  2  0  0  0  0  0  0
  186.0800  176.7920  143.0140 C   0  0  0  0  0  2  0  0  0  0  0  0
  187.6570  177.2210  140.6380 O   0  0  0  0  0  0  0  0  0  0  0  0
  187.5960  174.8040  141.0200 C   0  0  0  0  0  2  0  0  0  0  0  0
  188.5420  174.3840  139.9140 C   0  0  0  0  0  2  0  0  0  0  0  0
  188.5230  172.8790  139.7320 C   0  0  0  0  0  2  0  0  0  0  0  0
  189.6990  172.4210  138.9380 C   0  0  0  0  0  0  0  0  0  0  0  0
  189.8860  172.8760  137.7790 O   0  0  0  0  0  0  0  0  0  0  0  0
  190.6030  171.5190  139.5040 O   0  0  0  0  0  0  0  0  0  0  0  0
  192.5400  170.2220  138.7110 C   0  0  0  0  0  2  0  0  0  0  0  0
  191.9880  171.5120  139.1800 C   0  0  1  0  0  0  0  0  0  0  0  0
  192.2060  171.2640  137.8140 O   0  0  0  0  0  0  0  0  0  0  0  0
  192.9250  172.5700  139.7800 C   0  0  1  0  0  0  0  0  0  0  0  0
  192.1460  173.6070  140.3030 O   0  0  0  0  0  1  0  0  0  0  0  0
  193.6800  172.0200  140.8070 F   0  0  0  0  0  0  0  0  0  0  0  0
  195.0390  172.4200  138.6210 F   0  0  0  0  0  0  0  0  0  0  0  0
  193.8610  173.1410  138.7070 C   0  0  2  0  0  3  0  0  0  0  0  0
  194.1160  174.6420  138.9100 C   0  0  2  0  0  3  0  0  0  0  0  0
  194.0170  175.3940  137.5870 C   0  0  0  0  0  2  0  0  0  0  0  0
  192.5460  174.9160  136.6240 S   0  0  0  0  0  1  0  0  0  0  0  0
  195.4310  174.9660  139.6270 C   0  0  0  0  0  2  0  0  0  0  0  0
  195.6870  176.7790  141.1720 O   0  0  0  0  0  1  0  0  0  0  0  0
  195.2290  175.4630  141.0600 C   0  0  2  0  0  3  0  0  0  0  0  0
  195.8950  174.5680  142.1110 C   0  0  0  0  0  3  0  0  0  0  0  0
  194.8470  173.9850  143.0350 C   0  0  0  0  0  1  0  0  0  0  0  0
  196.6470  173.4250  141.4580 C   0  0  0  0  0  1  0  0  0  0  0  0
  188.4120  177.6110  143.5010 C   0  0  0  0  0  2  0  0  0  0  0  0
  189.6870  177.1480  144.0450 N   0  0  0  0  0  2  0  0  0  0  0  0
  189.4690  175.9330  144.8410 C   0  0  2  0  0  3  0  0  0  0  0  0
  187.7100  176.3270  146.6030 C   0  0  2  0  0  3  0  0  0  0  0  0
  188.5730  175.1940  147.1470 C   0  0  0  0  0  2  0  0  0  0  0  0
  189.2080  176.2970  146.3210 C   0  0  1  0  0  3  0  0  0  0  0  0
  187.4760  177.3350  147.5580 O   0  0  0  0  0  0  0  0  0  0  0  0
  184.8670  178.4180  146.4520 C   0  0  0  0  0  0  0  0  0  0  0  0
  184.0700  179.0160  145.6790 O   0  0  0  0  0  0  0  0  0  0  0  0
  185.3570  177.0180  146.5880 C   0  0  0  0  0  2  0  0  0  0  0  0
  186.0810  177.4550  147.7480 C   0  0  2  0  0  3  0  0  0  0  0  0
  185.6960  178.8050  147.5770 O   0  0  0  0  0  0  0  0  0  0  0  0
  190.5720  174.8790  144.5730 C   0  0  1  0  0  3  0  0  0  0  0  0
  191.9410  175.3650  146.6110 C   0  0  0  0  0  2  0  0  0  0  0  0
  194.1030  176.6030  146.3960 C   0  0  0  0  0  2  0  0  0  0  0  0
  192.4170  176.6870  144.4560 C   0  0  2  0  0  3  0  0  0  0  0  0
  193.7800  177.1390  144.9980 C   0  0  0  0  0  2  0  0  0  0  0  0
  192.8360  176.4470  147.2180 C   0  0  0  0  0  2  0  0  0  0  0  0
  191.9480  175.3480  145.0710 C   0  0  2  0  0  3  0  0  0  0  0  0
  192.5020  176.5850  143.0110 N   0  0  0  0  0  1  0  0  0  0  0  0
  190.2470  173.6430  145.1490 O   0  0  0  0  0  0  0  0  0  0  0  0
  189.5290  172.9620  144.1620 C   0  0  0  0  0  2  0  0  0  0  0  0
  191.3510  171.5870  143.4950 C   0  0  0  0  0  0  0  0  0  0  0  0
  190.1560  171.2690  142.6530 O   0  0  0  0  0  0  0  0  0  0  0  0
  192.4360  171.2140  144.1580 C   0  0  0  0  0  2  0  0  0  0  0  0
  190.4620  172.5400  143.0480 C   0  0  1  0  0  3  0  0  0  0  0  0
  1  5  1  0  0  0  0
  2  7  1  6  0  0  0
  2  3  1  0  0  0  0
  3  5  1  0  0  0  0
  3 30  1  6  0  0  0
  4  6  1  0  0  0  0
  4  1  1  0  0  0  0
  6  2  1  0  0  0  0
  8  7  1  0  0  0  0
  9  8  1  0  0  0  0
 10 12  1  0  0  0  0
 10  9  1  0  0  0  0
 11 10  2  0  0  0  0
 13 14  1  0  0  0  0
 14 12  1  1  0  0  0
 14 16  1  0  0  0  0
 15 13  1  0  0  0  0
 15 14  1  0  0  0  0
 16 17  1  1  0  0  0
 16 18  1  0  0  0  0
 20 19  1  1  0  0  0
 20 21  1  0  0  0  0
 20 16  1  0  0  0  0
 21 22  1  6  0  0  0
 21 24  1  0  0  0  0
 23 22  1  0  0  0  0
 24 26  1  0  0  0  0
 26 25  1  6  0  0  0
 26 27  1  0  0  0  0
 27 28  1  0  0  0  0
 29 27  1  0  0  0  0
 30 31  1  0  0  0  0
 32 31  1  6  0  0  0
 33 34  1  0  0  0  0
 33 36  1  1  0  0  0
 35 32  1  6  0  0  0
 35 33  1  0  0  0  0
 35 34  1  0  0  0  0
 37 39  1  0  0  0  0
 37 41  1  0  0  0  0
 38 37  2  0  0  0  0
 39 40  1  0  0  0  0
 40 36  1  6  0  0  0
 41 40  1  0  0  0  0
 42 32  1  0  0  0  0
 42 50  1  1  0  0  0
 43 47  1  0  0  0  0
 44 47  1  0  0  0  0
 45 49  1  6  0  0  0
 45 46  1  0  0  0  0
 45 48  1  0  0  0  0
 46 44  1  0  0  0  0
 48 42  1  6  0  0  0
 48 43  1  0  0  0  0
 51 50  1  0  0  0  0
 52 54  2  0  0  0  0
 53 55  1  0  0  0  0
 53 52  1  0  0  0  0
 55 52  1  0  0  0  0
 55 51  1  1  0  0  0
M  END
>  <MODEL>
3

>  <REMARK>
 VINA RESULT:      -5.2      2.887      7.881
  Name = 
  24 active torsions:
  status: ('A' for Active; 'I' for Inactive)
    1  A    between atoms: C_1  and  C_29
    2  A    between atoms: C_2  and  N_28
    3  A    between atoms: C_2  and  C_31
    4  A    between atoms: C_3  and  C_29
    5  A    between atoms: C_3  and  C_38
    6  A    between atoms: C_6  and  C_14
    7  A    between atoms: C_6  and  C_20
    8  A    between atoms: C_8  and  O_22
    9  A    between atoms: C_8  and  C_35
   10  A    between atoms: C_11  and  C_38
   11  A    between atoms: C_13  and  O_48
   12  A    between atoms: C_14  and  C_38
   13  A    between atoms: C_19  and  C_40
   14  A    between atoms: C_19  and  O_45
   15  A    between atoms: C_20  and  O_22
   16  A    between atoms: C_26  and  C_49
   17  A    between atoms: C_27  and  C_54
   18  A    between atoms: N_28  and  C_33
   19  A    between atoms: C_33  and  C_49
   20  A    between atoms: C_33  and  C_52
   21  A    between atoms: C_35  and  C_51
   22  A    between atoms: C_39  and  O_48
   23  A    between atoms: O_45  and  C_49
   24  A    between atoms: C_51  and  C_54
                            x       y       z     vdW  Elec       q    Type
                         _______ _______ _______ _____ _____    ______ ____

>  <TORSDO>
F 24

$$$$
=
 OpenBabel11052419493D

 55 60  0  0  1  0  0  0  0  0999 V2000
  190.2760  176.6660  147.2090 C   0  0  0  0  0  2  0  0  0  0  0  0
  192.4280  175.4990  145.7460 C   0  0  2  0  0  3  0  0  0  0  0  0
  191.3360  176.2400  144.9670 C   0  0  2  0  0  3  0  0  0  0  0  0
  191.4980  175.9790  147.8070 C   0  0  0  0  0  2  0  0  0  0  0  0
  190.6580  177.2770  145.8670 C   0  0  0  0  0  2  0  0  0  0  0  0
  191.9510  174.9420  146.9580 O   0  0  0  0  0  0  0  0  0  0  0  0
  193.7040  176.3070  145.9320 C   0  0  0  0  0  2  0  0  0  0  0  0
  194.8390  175.3630  146.2760 C   0  0  0  0  0  2  0  0  0  0  0  0
  194.9900  174.2930  145.2130 C   0  0  0  0  0  2  0  0  0  0  0  0
  196.2420  173.5100  145.4160 C   0  0  0  0  0  0  0  0  0  0  0  0
  197.0380  173.8330  146.3370 O   0  0  0  0  0  0  0  0  0  0  0  0
  196.5000  172.4020  144.6060 O   0  0  0  0  0  0  0  0  0  0  0  0
  197.4230  170.2890  145.4700 C   0  0  0  0  0  2  0  0  0  0  0  0
  196.2460  171.0660  145.0240 C   0  0  1  0  0  0  0  0  0  0  0  0
  196.5250  170.8820  146.3880 O   0  0  0  0  0  0  0  0  0  0  0  0
  194.9860  170.3340  144.5380 C   0  0  1  0  0  0  0  0  0  0  0  0
  195.3670  169.0960  144.0120 O   0  0  0  0  0  1  0  0  0  0  0  0
  194.1150  170.1180  145.5970 F   0  0  0  0  0  0  0  0  0  0  0  0
  193.0010  171.5200  143.8390 F   0  0  0  0  0  0  0  0  0  0  0  0
  194.2740  171.1430  143.4470 C   0  0  2  0  0  3  0  0  0  0  0  0
  194.2680  170.4060  142.1000 C   0  0  2  0  0  3  0  0  0  0  0  0
  194.8770  171.2730  141.0020 C   0  0  0  0  0  2  0  0  0  0  0  0
  194.9730  173.0300  141.4770 S   0  0  0  0  0  1  0  0  0  0  0  0
  192.8940  169.8740  141.6790 C   0  0  0  0  0  2  0  0  0  0  0  0
  191.2850  171.5940  141.2360 O   0  0  0  0  0  1  0  0  0  0  0  0
  192.2100  170.7440  140.6220 C   0  0  2  0  0  3  0  0  0  0  0  0
  191.5400  169.9310  139.5090 C   0  0  0  0  0  3  0  0  0  0  0  0
  192.0430  170.3880  138.1570 C   0  0  0  0  0  1  0  0  0  0  0  0
  191.8390  168.4520  139.6570 C   0  0  0  0  0  1  0  0  0  0  0  0
  190.3380  175.2130  144.4590 C   0  0  0  0  0  2  0  0  0  0  0  0
  189.7600  175.6080  143.1760 N   0  0  0  0  0  2  0  0  0  0  0  0
  188.2940  175.5780  143.2670 C   0  0  2  0  0  3  0  0  0  0  0  0
  188.7740  173.9920  141.3670 C   0  0  2  0  0  3  0  0  0  0  0  0
  188.3760  173.1020  142.5390 C   0  0  0  0  0  2  0  0  0  0  0  0
  187.7210  174.4590  142.3650 C   0  0  1  0  0  3  0  0  0  0  0  0
  188.1090  173.6470  140.1750 O   0  0  0  0  0  0  0  0  0  0  0  0
  189.1570  173.0150  137.4000 C   0  0  0  0  0  0  0  0  0  0  0  0
  189.3640  172.3750  136.3330 O   0  0  0  0  0  0  0  0  0  0  0  0
  188.1490  174.0140  137.8520 C   0  0  0  0  0  2  0  0  0  0  0  0
  188.8840  174.0980  139.0830 C   0  0  2  0  0  3  0  0  0  0  0  0
  189.7930  173.0840  138.7000 O   0  0  0  0  0  0  0  0  0  0  0  0
  187.6890  176.9910  143.0840 C   0  0  1  0  0  3  0  0  0  0  0  0
  187.2620  176.5070  145.5030 C   0  0  0  0  0  2  0  0  0  0  0  0
  186.0670  178.1870  146.9190 C   0  0  0  0  0  2  0  0  0  0  0  0
  185.9190  178.3800  144.3590 C   0  0  2  0  0  3  0  0  0  0  0  0
  185.5040  178.9560  145.7200 C   0  0  0  0  0  2  0  0  0  0  0  0
  186.2070  176.7100  146.5930 C   0  0  0  0  0  2  0  0  0  0  0  0
  187.2560  177.6070  144.4240 C   0  0  2  0  0  3  0  0  0  0  0  0
  186.0020  179.4670  143.4010 N   0  0  0  0  0  1  0  0  0  0  0  0
  188.5830  177.8470  142.4270 O   0  0  0  0  0  0  0  0  0  0  0  0
  187.9070  178.2600  141.2750 C   0  0  0  0  0  2  0  0  0  0  0  0
  185.8100  177.7110  140.2980 C   0  0  0  0  0  0  0  0  0  0  0  0
  186.9120  177.1580  139.4490 O   0  0  0  0  0  0  0  0  0  0  0  0
  184.6230  178.2850  140.4280 C   0  0  0  0  0  2  0  0  0  0  0  0
  186.9650  177.1680  140.8140 C   0  0  1  0  0  3  0  0  0  0  0  0
  1  4  1  0  0  0  0
  2  7  1  1  0  0  0
  2  6  1  0  0  0  0
  3 30  1  1  0  0  0
  3  2  1  0  0  0  0
  3  5  1  0  0  0  0
  5  1  1  0  0  0  0
  6  4  1  0  0  0  0
  7  8  1  0  0  0  0
  9 10  1  0  0  0  0
  9  8  1  0  0  0  0
 10 11  2  0  0  0  0
 12 10  1  0  0  0  0
 13 15  1  0  0  0  0
 14 12  1  6  0  0  0
 14 13  1  0  0  0  0
 14 15  1  0  0  0  0
 16 17  1  6  0  0  0
 16 14  1  0  0  0  0
 16 18  1  0  0  0  0
 20 19  1  1  0  0  0
 20 16  1  0  0  0  0
 21 22  1  6  0  0  0
 21 20  1  0  0  0  0
 22 23  1  0  0  0  0
 24 21  1  0  0  0  0
 26 25  1  1  0  0  0
 26 24  1  0  0  0  0
 27 29  1  0  0  0  0
 27 26  1  0  0  0  0
 28 27  1  0  0  0  0
 31 30  1  0  0  0  0
 32 31  1  6  0  0  0
 33 36  1  6  0  0  0
 33 35  1  0  0  0  0
 33 34  1  0  0  0  0
 35 34  1  0  0  0  0
 35 32  1  1  0  0  0
 37 39  1  0  0  0  0
 37 41  1  0  0  0  0
 38 37  2  0  0  0  0
 39 40  1  0  0  0  0
 40 36  1  1  0  0  0
 41 40  1  0  0  0  0
 42 50  1  1  0  0  0
 42 32  1  0  0  0  0
 43 47  1  0  0  0  0
 45 49  1  6  0  0  0
 45 48  1  0  0  0  0
 45 46  1  0  0  0  0
 46 44  1  0  0  0  0
 47 44  1  0  0  0  0
 48 42  1  6  0  0  0
 48 43  1  0  0  0  0
 51 50  1  0  0  0  0
 52 54  2  0  0  0  0
 52 55  1  0  0  0  0
 53 52  1  0  0  0  0
 53 55  1  0  0  0  0
 55 51  1  6  0  0  0
M  END
>  <MODEL>
4

>  <REMARK>
 VINA RESULT:      -5.2      2.832      8.934
  Name = 
  24 active torsions:
  status: ('A' for Active; 'I' for Inactive)
    1  A    between atoms: C_1  and  C_29
    2  A    between atoms: C_2  and  N_28
    3  A    between atoms: C_2  and  C_31
    4  A    between atoms: C_3  and  C_29
    5  A    between atoms: C_3  and  C_38
    6  A    between atoms: C_6  and  C_14
    7  A    between atoms: C_6  and  C_20
    8  A    between atoms: C_8  and  O_22
    9  A    between atoms: C_8  and  C_35
   10  A    between atoms: C_11  and  C_38
   11  A    between atoms: C_13  and  O_48
   12  A    between atoms: C_14  and  C_38
   13  A    between atoms: C_19  and  C_40
   14  A    between atoms: C_19  and  O_45
   15  A    between atoms: C_20  and  O_22
   16  A    between atoms: C_26  and  C_49
   17  A    between atoms: C_27  and  C_54
   18  A    between atoms: N_28  and  C_33
   19  A    between atoms: C_33  and  C_49
   20  A    between atoms: C_33  and  C_52
   21  A    between atoms: C_35  and  C_51
   22  A    between atoms: C_39  and  O_48
   23  A    between atoms: O_45  and  C_49
   24  A    between atoms: C_51  and  C_54
                            x       y       z     vdW  Elec       q    Type
                         _______ _______ _______ _____ _____    ______ ____

>  <TORSDO>
F 24

$$$$
=
 OpenBabel11052419493D

 55 60  0  0  1  0  0  0  0  0999 V2000
  191.6140  176.5870  147.7580 C   0  0  0  0  0  2  0  0  0  0  0  0
  189.2630  175.8660  146.3120 C   0  0  2  0  0  3  0  0  0  0  0  0
  190.3660  174.8140  146.4810 C   0  0  2  0  0  3  0  0  0  0  0  0
  190.3750  177.4550  147.5700 C   0  0  0  0  0  2  0  0  0  0  0  0
  191.2010  175.1210  147.7270 C   0  0  0  0  0  2  0  0  0  0  0  0
  189.7660  177.1900  146.3210 O   0  0  0  0  0  0  0  0  0  0  0  0
  188.0870  175.6780  147.2600 C   0  0  0  0  0  2  0  0  0  0  0  0
  187.2480  176.9400  147.2590 C   0  0  0  0  0  2  0  0  0  0  0  0
  186.3680  177.0000  146.0270 C   0  0  0  0  0  2  0  0  0  0  0  0
  186.0940  178.4120  145.6330 C   0  0  0  0  0  0  0  0  0  0  0  0
  185.6980  179.2360  146.4990 O   0  0  0  0  0  0  0  0  0  0  0  0
  186.3160  178.8140  144.3150 O   0  0  0  0  0  0  0  0  0  0  0  0
  184.1610  178.3900  143.2010 C   0  0  0  0  0  2  0  0  0  0  0  0
  185.6320  178.2380  143.2080 C   0  0  1  0  0  0  0  0  0  0  0  0
  185.0020  179.2130  142.4160 O   0  0  0  0  0  0  0  0  0  0  0  0
  186.2870  177.1060  142.4040 C   0  0  1  0  0  0  0  0  0  0  0  0
  186.0430  175.8960  143.0610 O   0  0  0  0  0  1  0  0  0  0  0  0
  185.7390  177.0390  141.1300 F   0  0  0  0  0  0  0  0  0  0  0  0
  188.1600  177.8430  141.0680 F   0  0  0  0  0  0  0  0  0  0  0  0
  187.8020  177.3200  142.2980 C   0  0  2  0  0  3  0  0  0  0  0  0
  188.5850  176.0410  142.6310 C   0  0  2  0  0  3  0  0  0  0  0  0
  190.0800  176.2440  142.4080 C   0  0  0  0  0  2  0  0  0  0  0  0
  190.6840  177.8070  143.1240 S   0  0  0  0  0  1  0  0  0  0  0  0
  188.0880  174.7900  141.8990 C   0  0  0  0  0  2  0  0  0  0  0  0
  188.0500  174.9490  139.5090 O   0  0  0  0  0  1  0  0  0  0  0  0
  188.8300  174.5240  140.5870 C   0  0  2  0  0  3  0  0  0  0  0  0
  189.2430  173.0580  140.4110 C   0  0  0  0  0  3  0  0  0  0  0  0
  188.8530  172.2580  141.6350 C   0  0  0  0  0  1  0  0  0  0  0  0
  188.5690  172.4420  139.2000 C   0  0  0  0  0  1  0  0  0  0  0  0
  191.2220  174.8230  145.2260 C   0  0  0  0  0  2  0  0  0  0  0  0
  192.4330  174.0220  145.3910 N   0  0  0  0  0  2  0  0  0  0  0  0
  192.9760  173.6740  144.0710 C   0  0  2  0  0  3  0  0  0  0  0  0
  192.7280  171.5130  142.7960 C   0  0  2  0  0  3  0  0  0  0  0  0
  191.7560  171.4010  143.9660 C   0  0  0  0  0  2  0  0  0  0  0  0
  191.9970  172.7480  143.3120 C   0  0  1  0  0  3  0  0  0  0  0  0
  192.1410  171.1510  141.5690 O   0  0  0  0  0  0  0  0  0  0  0  0
  192.7820  170.7160  138.6360 C   0  0  0  0  0  0  0  0  0  0  0  0
  192.6120  170.4260  137.4210 O   0  0  0  0  0  0  0  0  0  0  0  0
  192.7230  171.9680  139.4420 C   0  0  0  0  0  2  0  0  0  0  0  0
  193.1380  171.1820  140.5700 C   0  0  2  0  0  3  0  0  0  0  0  0
  193.1090  169.9720  139.8360 O   0  0  0  0  0  0  0  0  0  0  0  0
  194.4440  173.1910  144.1750 C   0  0  1  0  0  3  0  0  0  0  0  0
  195.4730  175.3550  144.8980 C   0  0  0  0  0  2  0  0  0  0  0  0
  196.7670  176.7300  143.2580 C   0  0  0  0  0  2  0  0  0  0  0  0
  195.1890  174.8980  142.3820 C   0  0  2  0  0  3  0  0  0  0  0  0
  196.1840  176.0150  142.0350 C   0  0  0  0  0  2  0  0  0  0  0  0
  195.7560  176.7700  144.3900 C   0  0  0  0  0  2  0  0  0  0  0  0
  195.4400  174.2930  143.7820 C   0  0  2  0  0  3  0  0  0  0  0  0
  195.2690  173.8720  141.3590 N   0  0  0  0  0  1  0  0  0  0  0  0
  194.7340  172.7160  145.4610 O   0  0  0  0  0  0  0  0  0  0  0  0
  195.3580  171.4820  145.2590 C   0  0  0  0  0  2  0  0  0  0  0  0
  197.1320  170.1730  146.1510 C   0  0  0  0  0  0  0  0  0  0  0  0
  197.6680  171.0680  145.0780 O   0  0  0  0  0  0  0  0  0  0  0  0
  197.1090  169.0110  146.7880 C   0  0  0  0  0  2  0  0  0  0  0  0
  196.7010  171.4670  145.9570 C   0  0  1  0  0  3  0  0  0  0  0  0
  2  6  1  0  0  0  0
  2  3  1  0  0  0  0
  2  7  1  1  0  0  0
  3 30  1  6  0  0  0
  3  5  1  0  0  0  0
  4  1  1  0  0  0  0
  5  1  1  0  0  0  0
  6  4  1  0  0  0  0
  8  7  1  0  0  0  0
  9  8  1  0  0  0  0
 10  9  1  0  0  0  0
 10 11  2  0  0  0  0
 12 10  1  0  0  0  0
 13 14  1  0  0  0  0
 14 12  1  1  0  0  0
 15 13  1  0  0  0  0
 15 14  1  0  0  0  0
 16 18  1  6  0  0  0
 16 17  1  0  0  0  0
 16 14  1  0  0  0  0
 20 19  1  6  0  0  0
 20 16  1  0  0  0  0
 20 21  1  0  0  0  0
 21 24  1  6  0  0  0
 22 21  1  0  0  0  0
 22 23  1  0  0  0  0
 26 25  1  6  0  0  0
 26 24  1  0  0  0  0
 27 26  1  0  0  0  0
 27 28  1  0  0  0  0
 29 27  1  0  0  0  0
 30 31  1  0  0  0  0
 32 42  1  0  0  0  0
 32 31  1  1  0  0  0
 33 36  1  6  0  0  0
 33 35  1  0  0  0  0
 33 34  1  0  0  0  0
 35 34  1  0  0  0  0
 35 32  1  1  0  0  0
 37 39  1  0  0  0  0
 37 41  1  0  0  0  0
 38 37  2  0  0  0  0
 39 40  1  0  0  0  0
 40 36  1  1  0  0  0
 41 40  1  0  0  0  0
 42 50  1  1  0  0  0
 44 47  1  0  0  0  0
 45 49  1  6  0  0  0
 45 48  1  0  0  0  0
 46 45  1  0  0  0  0
 46 44  1  0  0  0  0
 47 43  1  0  0  0  0
 48 42  1  1  0  0  0
 48 43  1  0  0  0  0
 51 50  1  0  0  0  0
 52 54  2  0  0  0  0
 53 55  1  0  0  0  0
 53 52  1  0  0  0  0
 55 51  1  6  0  0  0
 55 52  1  0  0  0  0
M  END
>  <MODEL>
5

>  <REMARK>
 VINA RESULT:      -5.1      2.119      4.655
  Name = 
  24 active torsions:
  status: ('A' for Active; 'I' for Inactive)
    1  A    between atoms: C_1  and  C_29
    2  A    between atoms: C_2  and  N_28
    3  A    between atoms: C_2  and  C_31
    4  A    between atoms: C_3  and  C_29
    5  A    between atoms: C_3  and  C_38
    6  A    between atoms: C_6  and  C_14
    7  A    between atoms: C_6  and  C_20
    8  A    between atoms: C_8  and  O_22
    9  A    between atoms: C_8  and  C_35
   10  A    between atoms: C_11  and  C_38
   11  A    between atoms: C_13  and  O_48
   12  A    between atoms: C_14  and  C_38
   13  A    between atoms: C_19  and  C_40
   14  A    between atoms: C_19  and  O_45
   15  A    between atoms: C_20  and  O_22
   16  A    between atoms: C_26  and  C_49
   17  A    between atoms: C_27  and  C_54
   18  A    between atoms: N_28  and  C_33
   19  A    between atoms: C_33  and  C_49
   20  A    between atoms: C_33  and  C_52
   21  A    between atoms: C_35  and  C_51
   22  A    between atoms: C_39  and  O_48
   23  A    between atoms: O_45  and  C_49
   24  A    between atoms: C_51  and  C_54
                            x       y       z     vdW  Elec       q    Type
                         _______ _______ _______ _____ _____    ______ ____

>  <TORSDO>
F 24

$$$$
=
 OpenBabel11052419493D

 55 60  0  0  1  0  0  0  0  0999 V2000
  190.2280  176.2410  147.4850 C   0  0  0  0  0  2  0  0  0  0  0  0
  192.5560  175.6910  145.9320 C   0  0  2  0  0  3  0  0  0  0  0  0
  191.5760  176.7550  145.4230 C   0  0  2  0  0  3  0  0  0  0  0  0
  191.3610  175.2970  147.8710 C   0  0  0  0  0  2  0  0  0  0  0  0
  190.7850  177.3440  146.5940 C   0  0  0  0  0  2  0  0  0  0  0  0
  191.9230  174.6980  146.7190 O   0  0  0  0  0  0  0  0  0  0  0  0
  193.7960  176.2690  146.6000 C   0  0  0  0  0  2  0  0  0  0  0  0
  195.0020  175.4480  146.1900 C   0  0  0  0  0  2  0  0  0  0  0  0
  195.3560  175.6980  144.7370 C   0  0  0  0  0  2  0  0  0  0  0  0
  196.3830  174.7280  144.2620 C   0  0  0  0  0  0  0  0  0  0  0  0
  197.3230  174.3870  145.0290 O   0  0  0  0  0  0  0  0  0  0  0  0
  196.2710  174.1770  142.9840 O   0  0  0  0  0  0  0  0  0  0  0  0
  196.8910  176.1050  141.5840 C   0  0  0  0  0  2  0  0  0  0  0  0
  195.9880  174.9600  141.8300 C   0  0  1  0  0  0  0  0  0  0  0  0
  197.0200  174.8850  140.8800 O   0  0  0  0  0  0  0  0  0  0  0  0
  194.5770  174.9550  141.2230 C   0  0  1  0  0  0  0  0  0  0  0  0
  193.8000  174.0200  141.9150 O   0  0  0  0  0  1  0  0  0  0  0  0
  193.9900  176.2050  141.3550 F   0  0  0  0  0  0  0  0  0  0  0  0
  194.3450  175.6450  138.9200 F   0  0  0  0  0  0  0  0  0  0  0  0
  194.6240  174.5660  139.7400 C   0  0  2  0  0  3  0  0  0  0  0  0
  193.7220  173.3610  139.4360 C   0  0  2  0  0  3  0  0  0  0  0  0
  194.5330  172.2060  138.8570 C   0  0  0  0  0  2  0  0  0  0  0  0
  195.7320  171.5310  140.0510 S   0  0  0  0  0  1  0  0  0  0  0  0
  192.5180  173.6840  138.5450 C   0  0  0  0  0  2  0  0  0  0  0  0
  191.3170  171.8900  139.5840 O   0  0  0  0  0  1  0  0  0  0  0  0
  191.1880  173.2060  139.1330 C   0  0  2  0  0  3  0  0  0  0  0  0
  190.0140  173.3290  138.1550 C   0  0  0  0  0  3  0  0  0  0  0  0
  189.6230  171.9620  137.6380 C   0  0  0  0  0  1  0  0  0  0  0  0
  188.8060  173.9520  138.8270 C   0  0  0  0  0  1  0  0  0  0  0  0
  190.6560  176.1010  144.4070 C   0  0  0  0  0  2  0  0  0  0  0  0
  189.6870  177.0510  143.8640 N   0  0  0  0  0  2  0  0  0  0  0  0
  188.4330  176.3510  143.5540 C   0  0  2  0  0  3  0  0  0  0  0  0
  188.6400  173.8920  143.0410 C   0  0  2  0  0  3  0  0  0  0  0  0
  187.4810  174.3840  142.1800 C   0  0  0  0  0  2  0  0  0  0  0  0
  188.6630  175.2960  142.4470 C   0  0  1  0  0  3  0  0  0  0  0  0
  189.5570  173.1060  142.3170 O   0  0  0  0  0  0  0  0  0  0  0  0
  191.7130  172.0780  144.1850 C   0  0  0  0  0  0  0  0  0  0  0  0
  192.7850  172.0480  144.8480 O   0  0  0  0  0  0  0  0  0  0  0  0
  190.3130  172.5050  144.4610 C   0  0  0  0  0  2  0  0  0  0  0  0
  189.9830  172.0420  143.1420 C   0  0  2  0  0  3  0  0  0  0  0  0
  191.3260  171.7170  142.8360 O   0  0  0  0  0  0  0  0  0  0  0  0
  187.2720  177.3500  143.3250 C   0  0  1  0  0  3  0  0  0  0  0  0
  187.1070  176.8770  145.7780 C   0  0  0  0  0  2  0  0  0  0  0  0
  185.3710  178.0330  147.1570 C   0  0  0  0  0  2  0  0  0  0  0  0
  185.1190  178.0060  144.5980 C   0  0  2  0  0  3  0  0  0  0  0  0
  184.5320  178.4500  145.9460 C   0  0  0  0  0  2  0  0  0  0  0  0
  186.0750  176.7130  146.8950 C   0  0  0  0  0  2  0  0  0  0  0  0
  186.6530  177.8230  144.6500 C   0  0  2  0  0  3  0  0  0  0  0  0
  184.7530  178.9810  143.5890 N   0  0  0  0  0  1  0  0  0  0  0  0
  187.6900  178.4530  142.5690 O   0  0  0  0  0  0  0  0  0  0  0  0
  187.7720  177.9810  141.2560 C   0  0  0  0  0  2  0  0  0  0  0  0
  186.2760  177.2440  139.5610 C   0  0  0  0  0  0  0  0  0  0  0  0
  185.5930  177.1690  140.8910 O   0  0  0  0  0  0  0  0  0  0  0  0
  186.5160  176.7600  138.3510 C   0  0  0  0  0  2  0  0  0  0  0  0
  186.4460  178.1820  140.5550 C   0  0  1  0  0  3  0  0  0  0  0  0
  1  4  1  0  0  0  0
  2  7  1  1  0  0  0
  2  6  1  0  0  0  0
  3 30  1  6  0  0  0
  3  2  1  0  0  0  0
  3  5  1  0  0  0  0
  5  1  1  0  0  0  0
  6  4  1  0  0  0  0
  8  7  1  0  0  0  0
  9  8  1  0  0  0  0
 10  9  1  0  0  0  0
 10 11  2  0  0  0  0
 12 10  1  0  0  0  0
 13 14  1  0  0  0  0
 14 12  1  1  0  0  0
 15 13  1  0  0  0  0
 15 14  1  0  0  0  0
 16 18  1  1  0  0  0
 16 14  1  0  0  0  0
 16 17  1  0  0  0  0
 20 19  1  6  0  0  0
 20 16  1  0  0  0  0
 21 24  1  6  0  0  0
 21 20  1  0  0  0  0
 22 21  1  0  0  0  0
 22 23  1  0  0  0  0
 24 26  1  0  0  0  0
 26 25  1  6  0  0  0
 27 29  1  0  0  0  0
 27 26  1  0  0  0  0
 28 27  1  0  0  0  0
 31 30  1  0  0  0  0
 32 31  1  6  0  0  0
 33 36  1  6  0  0  0
 34 35  1  0  0  0  0
 34 33  1  0  0  0  0
 35 33  1  0  0  0  0
 35 32  1  1  0  0  0
 37 39  1  0  0  0  0
 37 38  2  0  0  0  0
 40 36  1  6  0  0  0
 40 39  1  0  0  0  0
 41 40  1  0  0  0  0
 41 37  1  0  0  0  0
 42 50  1  1  0  0  0
 42 32  1  0  0  0  0
 43 47  1  0  0  0  0
 45 49  1  6  0  0  0
 45 48  1  0  0  0  0
 45 46  1  0  0  0  0
 46 44  1  0  0  0  0
 47 44  1  0  0  0  0
 48 42  1  6  0  0  0
 48 43  1  0  0  0  0
 51 50  1  0  0  0  0
 52 55  1  0  0  0  0
 52 53  1  0  0  0  0
 54 52  2  0  0  0  0
 55 53  1  0  0  0  0
 55 51  1  1  0  0  0
M  END
>  <MODEL>
6

>  <REMARK>
 VINA RESULT:      -5.1      3.172      9.275
  Name = 
  24 active torsions:
  status: ('A' for Active; 'I' for Inactive)
    1  A    between atoms: C_1  and  C_29
    2  A    between atoms: C_2  and  N_28
    3  A    between atoms: C_2  and  C_31
    4  A    between atoms: C_3  and  C_29
    5  A    between atoms: C_3  and  C_38
    6  A    between atoms: C_6  and  C_14
    7  A    between atoms: C_6  and  C_20
    8  A    between atoms: C_8  and  O_22
    9  A    between atoms: C_8  and  C_35
   10  A    between atoms: C_11  and  C_38
   11  A    between atoms: C_13  and  O_48
   12  A    between atoms: C_14  and  C_38
   13  A    between atoms: C_19  and  C_40
   14  A    between atoms: C_19  and  O_45
   15  A    between atoms: C_20  and  O_22
   16  A    between atoms: C_26  and  C_49
   17  A    between atoms: C_27  and  C_54
   18  A    between atoms: N_28  and  C_33
   19  A    between atoms: C_33  and  C_49
   20  A    between atoms: C_33  and  C_52
   21  A    between atoms: C_35  and  C_51
   22  A    between atoms: C_39  and  O_48
   23  A    between atoms: O_45  and  C_49
   24  A    between atoms: C_51  and  C_54
                            x       y       z     vdW  Elec       q    Type
                         _______ _______ _______ _____ _____    ______ ____

>  <TORSDO>
F 24

$$$$
=
 OpenBabel11052419493D

 55 60  0  0  1  0  0  0  0  0999 V2000
  187.9180  172.3270  140.5080 C   0  0  0  0  0  2  0  0  0  0  0  0
  189.0800  174.6890  141.6060 C   0  0  2  0  0  3  0  0  0  0  0  0
  189.5280  174.2380  140.2110 C   0  0  2  0  0  3  0  0  0  0  0  0
  187.5330  172.9850  141.8270 C   0  0  0  0  0  2  0  0  0  0  0  0
  188.4320  173.3960  139.5520 C   0  0  0  0  0  2  0  0  0  0  0  0
  188.6570  173.6090  142.4190 O   0  0  0  0  0  0  0  0  0  0  0  0
  188.0810  175.8370  141.5870 C   0  0  0  0  0  2  0  0  0  0  0  0
  187.2670  175.8010  142.8650 C   0  0  0  0  0  2  0  0  0  0  0  0
  186.0410  176.6850  142.7480 C   0  0  0  0  0  2  0  0  0  0  0  0
  186.3250  178.0620  143.2420 C   0  0  0  0  0  0  0  0  0  0  0  0
  185.7530  179.0490  142.7070 O   0  0  0  0  0  0  0  0  0  0  0  0
  187.1960  178.2410  144.3180 O   0  0  0  0  0  0  0  0  0  0  0  0
  185.8670  178.6250  146.3550 C   0  0  0  0  0  2  0  0  0  0  0  0
  186.8830  177.8220  145.6410 C   0  0  1  0  0  0  0  0  0  0  0  0
  185.5520  177.3850  145.7510 O   0  0  0  0  0  0  0  0  0  0  0  0
  187.8870  176.9760  146.4380 C   0  0  1  0  0  0  0  0  0  0  0  0
  188.6300  177.8280  147.2620 O   0  0  0  0  0  1  0  0  0  0  0  0
  187.2180  176.0570  147.2360 F   0  0  0  0  0  0  0  0  0  0  0  0
  188.8220  174.8680  145.7170 F   0  0  0  0  0  0  0  0  0  0  0  0
  188.8430  176.2340  145.4950 C   0  0  2  0  0  3  0  0  0  0  0  0
  190.2670  176.8070  145.5570 C   0  0  2  0  0  3  0  0  0  0  0  0
  190.4740  177.8680  144.4810 C   0  0  0  0  0  2  0  0  0  0  0  0
  191.5600  177.2920  143.1370 S   0  0  0  0  0  1  0  0  0  0  0  0
  191.3740  175.7500  145.5040 C   0  0  0  0  0  2  0  0  0  0  0  0
  191.7980  176.6900  147.6660 O   0  0  0  0  0  1  0  0  0  0  0  0
  192.2110  175.6880  146.7840 C   0  0  2  0  0  3  0  0  0  0  0  0
  193.7190  175.7830  146.5270 C   0  0  0  0  0  3  0  0  0  0  0  0
  194.0510  175.2050  145.1680 C   0  0  0  0  0  1  0  0  0  0  0  0
  194.1910  177.2240  146.5630 C   0  0  0  0  0  1  0  0  0  0  0  0
  190.8170  173.4470  140.3620 C   0  0  0  0  0  2  0  0  0  0  0  0
  191.8560  174.2280  141.0290 N   0  0  0  0  0  2  0  0  0  0  0  0
  193.1640  173.9140  140.4360 C   0  0  2  0  0  3  0  0  0  0  0  0
  194.3350  172.8120  138.4950 C   0  0  2  0  0  3  0  0  0  0  0  0
  193.3640  171.7620  139.0240 C   0  0  0  0  0  2  0  0  0  0  0  0
  192.9830  173.2300  139.0610 C   0  0  1  0  0  3  0  0  0  0  0  0
  194.2740  172.9510  137.0950 O   0  0  0  0  0  0  0  0  0  0  0  0
  196.4920  174.9340  136.5070 C   0  0  0  0  0  0  0  0  0  0  0  0
  197.0960  176.0370  136.4160 O   0  0  0  0  0  0  0  0  0  0  0  0
  196.3950  173.8640  137.5380 C   0  0  0  0  0  2  0  0  0  0  0  0
  195.5860  173.1310  136.6060 C   0  0  2  0  0  3  0  0  0  0  0  0
  195.5960  174.1780  135.6540 O   0  0  0  0  0  0  0  0  0  0  0  0
  194.0840  173.1920  141.4510 C   0  0  1  0  0  3  0  0  0  0  0  0
  195.2460  175.3710  141.0420 C   0  0  0  0  0  2  0  0  0  0  0  0
  197.6090  175.6860  141.8000 C   0  0  0  0  0  2  0  0  0  0  0  0
  196.6620  173.3020  141.6200 C   0  0  2  0  0  3  0  0  0  0  0  0
  197.8700  174.1850  141.9610 C   0  0  0  0  0  2  0  0  0  0  0  0
  196.6180  175.9420  140.6770 C   0  0  0  0  0  2  0  0  0  0  0  0
  195.3160  174.0380  141.8110 C   0  0  2  0  0  3  0  0  0  0  0  0
  196.7130  172.1080  142.4440 N   0  0  0  0  0  1  0  0  0  0  0  0
  193.3840  172.8430  142.6140 O   0  0  0  0  0  0  0  0  0  0  0  0
  193.3320  171.4460  142.5980 C   0  0  0  0  0  2  0  0  0  0  0  0
  193.8130  171.4880  144.9260 C   0  0  0  0  0  0  0  0  0  0  0  0
  192.4000  171.9280  144.7050 O   0  0  0  0  0  0  0  0  0  0  0  0
  194.9700  171.5820  145.5650 C   0  0  0  0  0  2  0  0  0  0  0  0
  192.9850  170.9300  143.9780 C   0  0  1  0  0  3  0  0  0  0  0  0
  1  4  1  0  0  0  0
  2  7  1  6  0  0  0
  2  6  1  0  0  0  0
  3 30  1  1  0  0  0
  3  2  1  0  0  0  0
  4  6  1  0  0  0  0
  5  3  1  0  0  0  0
  5  1  1  0  0  0  0
  7  8  1  0  0  0  0
  9  8  1  0  0  0  0
  9 10  1  0  0  0  0
 10 12  1  0  0  0  0
 11 10  2  0  0  0  0
 14 12  1  6  0  0  0
 14 15  1  0  0  0  0
 14 13  1  0  0  0  0
 14 16  1  0  0  0  0
 15 13  1  0  0  0  0
 16 18  1  1  0  0  0
 16 17  1  0  0  0  0
 20 21  1  0  0  0  0
 20 19  1  1  0  0  0
 20 16  1  0  0  0  0
 21 22  1  6  0  0  0
 23 22  1  0  0  0  0
 24 21  1  0  0  0  0
 24 26  1  0  0  0  0
 26 25  1  1  0  0  0
 27 29  1  0  0  0  0
 27 26  1  0  0  0  0
 28 27  1  0  0  0  0
 30 31  1  0  0  0  0
 32 31  1  1  0  0  0
 32 42  1  0  0  0  0
 33 36  1  6  0  0  0
 33 34  1  0  0  0  0
 33 35  1  0  0  0  0
 34 35  1  0  0  0  0
 35 32  1  1  0  0  0
 37 39  1  0  0  0  0
 38 37  2  0  0  0  0
 40 36  1  1  0  0  0
 40 39  1  0  0  0  0
 41 37  1  0  0  0  0
 41 40  1  0  0  0  0
 42 50  1  1  0  0  0
 43 48  1  0  0  0  0
 44 46  1  0  0  0  0
 45 48  1  0  0  0  0
 45 46  1  0  0  0  0
 45 49  1  1  0  0  0
 47 43  1  0  0  0  0
 47 44  1  0  0  0  0
 48 42  1  6  0  0  0
 51 50  1  0  0  0  0
 52 54  2  0  0  0  0
 53 52  1  0  0  0  0
 55 51  1  6  0  0  0
 55 53  1  0  0  0  0
 55 52  1  0  0  0  0
M  END
>  <MODEL>
7

>  <REMARK>
 VINA RESULT:      -4.9      1.778      2.213
  Name = 
  24 active torsions:
  status: ('A' for Active; 'I' for Inactive)
    1  A    between atoms: C_1  and  C_29
    2  A    between atoms: C_2  and  N_28
    3  A    between atoms: C_2  and  C_31
    4  A    between atoms: C_3  and  C_29
    5  A    between atoms: C_3  and  C_38
    6  A    between atoms: C_6  and  C_14
    7  A    between atoms: C_6  and  C_20
    8  A    between atoms: C_8  and  O_22
    9  A    between atoms: C_8  and  C_35
   10  A    between atoms: C_11  and  C_38
   11  A    between atoms: C_13  and  O_48
   12  A    between atoms: C_14  and  C_38
   13  A    between atoms: C_19  and  C_40
   14  A    between atoms: C_19  and  O_45
   15  A    between atoms: C_20  and  O_22
   16  A    between atoms: C_26  and  C_49
   17  A    between atoms: C_27  and  C_54
   18  A    between atoms: N_28  and  C_33
   19  A    between atoms: C_33  and  C_49
   20  A    between atoms: C_33  and  C_52
   21  A    between atoms: C_35  and  C_51
   22  A    between atoms: C_39  and  O_48
   23  A    between atoms: O_45  and  C_49
   24  A    between atoms: C_51  and  C_54
                            x       y       z     vdW  Elec       q    Type
                         _______ _______ _______ _____ _____    ______ ____

>  <TORSDO>
F 24

$$$$
=
 OpenBabel11052419493D

 55 60  0  0  1  0  0  0  0  0999 V2000
  186.2370  177.0600  142.5090 C   0  0  0  0  0  2  0  0  0  0  0  0
  188.5900  175.7710  141.5390 C   0  0  2  0  0  3  0  0  0  0  0  0
  188.3380  175.7860  143.0520 C   0  0  2  0  0  3  0  0  0  0  0  0
  186.6100  176.8570  141.0450 C   0  0  0  0  0  2  0  0  0  0  0  0
  186.8400  175.9310  143.3350 C   0  0  0  0  0  2  0  0  0  0  0  0
  188.0150  176.8850  140.8800 O   0  0  0  0  0  0  0  0  0  0  0  0
  188.2410  174.4480  140.8720 C   0  0  0  0  0  2  0  0  0  0  0  0
  188.5650  174.5420  139.3950 C   0  0  0  0  0  2  0  0  0  0  0  0
  189.5180  173.4380  138.9820 C   0  0  0  0  0  2  0  0  0  0  0  0
  189.8350  173.5220  137.5270 C   0  0  0  0  0  0  0  0  0  0  0  0
  188.9270  173.3230  136.6780 O   0  0  0  0  0  0  0  0  0  0  0  0
  191.1290  173.8580  137.1230 O   0  0  0  0  0  0  0  0  0  0  0  0
  191.9300  171.5730  136.6750 C   0  0  0  0  0  2  0  0  0  0  0  0
  192.2130  172.9380  137.1690 C   0  0  1  0  0  0  0  0  0  0  0  0
  192.6090  172.5300  135.8840 O   0  0  0  0  0  0  0  0  0  0  0  0
  193.3810  173.1730  138.1380 C   0  0  1  0  0  0  0  0  0  0  0  0
  193.1600  174.3760  138.8160 O   0  0  0  0  0  1  0  0  0  0  0  0
  193.4520  172.1450  139.0670 F   0  0  0  0  0  0  0  0  0  0  0  0
  195.3530  172.0420  137.3210 F   0  0  0  0  0  0  0  0  0  0  0  0
  194.7100  173.2660  137.3760 C   0  0  2  0  0  3  0  0  0  0  0  0
  195.6160  174.3700  137.9400 C   0  0  2  0  0  3  0  0  0  0  0  0
  196.0910  175.3040  136.8310 C   0  0  0  0  0  2  0  0  0  0  0  0
  196.6920  174.3970  135.3690 S   0  0  0  0  0  1  0  0  0  0  0  0
  196.8000  173.8540  138.7640 C   0  0  0  0  0  2  0  0  0  0  0  0
  197.8720  174.3940  140.8380 O   0  0  0  0  0  1  0  0  0  0  0  0
  196.6340  174.0860  140.2680 C   0  0  2  0  0  3  0  0  0  0  0  0
  195.9830  172.9040  140.9950 C   0  0  0  0  0  3  0  0  0  0  0  0
  196.5450  171.6000  140.4720 C   0  0  0  0  0  1  0  0  0  0  0  0
  196.2390  172.9720  142.4880 C   0  0  0  0  0  1  0  0  0  0  0  0
  189.1280  176.9360  143.6510 C   0  0  0  0  0  2  0  0  0  0  0  0
  190.4570  176.5110  144.0870 N   0  0  0  0  0  2  0  0  0  0  0  0
  190.3280  175.4460  145.0900 C   0  0  2  0  0  3  0  0  0  0  0  0
  188.4940  175.3130  146.8150 C   0  0  2  0  0  3  0  0  0  0  0  0
  189.7840  175.0430  147.5820 C   0  0  0  0  0  2  0  0  0  0  0  0
  189.7860  176.0190  146.4210 C   0  0  1  0  0  3  0  0  0  0  0  0
  187.6690  176.2570  147.4560 O   0  0  0  0  0  0  0  0  0  0  0  0
  185.1720  177.8740  146.8680 C   0  0  0  0  0  0  0  0  0  0  0  0
  184.0760  178.4660  147.0620 O   0  0  0  0  0  0  0  0  0  0  0  0
  186.6060  178.2750  146.8850 C   0  0  0  0  0  2  0  0  0  0  0  0
  186.9170  176.9350  146.4720 C   0  0  2  0  0  3  0  0  0  0  0  0
  185.5660  176.5180  146.5410 O   0  0  0  0  0  0  0  0  0  0  0  0
  191.6200  174.5970  145.1790 C   0  0  1  0  0  3  0  0  0  0  0  0
  192.3420  173.9850  142.8620 C   0  0  0  0  0  2  0  0  0  0  0  0
  191.4720  171.8980  141.7940 C   0  0  0  0  0  2  0  0  0  0  0  0
  190.2520  172.8540  143.8460 C   0  0  2  0  0  3  0  0  0  0  0  0
  190.3050  171.7540  142.7760 C   0  0  0  0  0  2  0  0  0  0  0  0
  191.8090  173.3620  141.5700 C   0  0  0  0  0  2  0  0  0  0  0  0
  191.6400  173.4710  144.1330 C   0  0  2  0  0  3  0  0  0  0  0  0
  189.6800  172.2950  145.0570 N   0  0  0  0  0  1  0  0  0  0  0  0
  192.7640  175.3950  145.0500 O   0  0  0  0  0  0  0  0  0  0  0  0
  193.5530  175.0790  146.1590 C   0  0  0  0  0  2  0  0  0  0  0  0
  195.0510  176.4090  144.8770 C   0  0  0  0  0  0  0  0  0  0  0  0
  194.5040  177.2270  146.0050 O   0  0  0  0  0  0  0  0  0  0  0  0
  195.4490  176.2870  143.6190 C   0  0  0  0  0  2  0  0  0  0  0  0
  194.8220  175.9040  146.1380 C   0  0  1  0  0  3  0  0  0  0  0  0
  1  5  1  0  0  0  0
  2  7  1  6  0  0  0
  2  3  1  0  0  0  0
  3  5  1  0  0  0  0
  3 30  1  1  0  0  0
  4  1  1  0  0  0  0
  6  4  1  0  0  0  0
  6  2  1  0  0  0  0
  8  7  1  0  0  0  0
  9  8  1  0  0  0  0
 10  9  1  0  0  0  0
 11 10  2  0  0  0  0
 12 10  1  0  0  0  0
 13 14  1  0  0  0  0
 14 12  1  1  0  0  0
 14 16  1  0  0  0  0
 15 13  1  0  0  0  0
 15 14  1  0  0  0  0
 16 17  1  1  0  0  0
 16 18  1  0  0  0  0
 20 19  1  1  0  0  0
 20 21  1  0  0  0  0
 20 16  1  0  0  0  0
 21 22  1  6  0  0  0
 21 24  1  0  0  0  0
 23 22  1  0  0  0  0
 24 26  1  0  0  0  0
 26 25  1  1  0  0  0
 26 27  1  0  0  0  0
 27 29  1  0  0  0  0
 28 27  1  0  0  0  0
 30 31  1  0  0  0  0
 32 31  1  6  0  0  0
 32 42  1  0  0  0  0
 33 36  1  1  0  0  0
 33 34  1  0  0  0  0
 35 32  1  6  0  0  0
 35 33  1  0  0  0  0
 35 34  1  0  0  0  0
 37 39  1  0  0  0  0
 37 38  2  0  0  0  0
 40 41  1  0  0  0  0
 40 39  1  0  0  0  0
 40 36  1  1  0  0  0
 41 37  1  0  0  0  0
 42 50  1  6  0  0  0
 43 48  1  0  0  0  0
 44 46  1  0  0  0  0
 45 48  1  0  0  0  0
 45 49  1  1  0  0  0
 46 45  1  0  0  0  0
 47 44  1  0  0  0  0
 47 43  1  0  0  0  0
 48 42  1  1  0  0  0
 50 51  1  0  0  0  0
 52 53  1  0  0  0  0
 52 55  1  0  0  0  0
 53 55  1  0  0  0  0
 54 52  2  0  0  0  0
 55 51  1  6  0  0  0
M  END
>  <MODEL>
8

>  <REMARK>
 VINA RESULT:      -4.9      3.357      8.367
  Name = 
  24 active torsions:
  status: ('A' for Active; 'I' for Inactive)
    1  A    between atoms: C_1  and  C_29
    2  A    between atoms: C_2  and  N_28
    3  A    between atoms: C_2  and  C_31
    4  A    between atoms: C_3  and  C_29
    5  A    between atoms: C_3  and  C_38
    6  A    between atoms: C_6  and  C_14
    7  A    between atoms: C_6  and  C_20
    8  A    between atoms: C_8  and  O_22
    9  A    between atoms: C_8  and  C_35
   10  A    between atoms: C_11  and  C_38
   11  A    between atoms: C_13  and  O_48
   12  A    between atoms: C_14  and  C_38
   13  A    between atoms: C_19  and  C_40
   14  A    between atoms: C_19  and  O_45
   15  A    between atoms: C_20  and  O_22
   16  A    between atoms: C_26  and  C_49
   17  A    between atoms: C_27  and  C_54
   18  A    between atoms: N_28  and  C_33
   19  A    between atoms: C_33  and  C_49
   20  A    between atoms: C_33  and  C_52
   21  A    between atoms: C_35  and  C_51
   22  A    between atoms: C_39  and  O_48
   23  A    between atoms: O_45  and  C_49
   24  A    between atoms: C_51  and  C_54
                            x       y       z     vdW  Elec       q    Type
                         _______ _______ _______ _____ _____    ______ ____

>  <TORSDO>
F 24

$$$$
=
 OpenBabel11052419493D

 55 60  0  0  1  0  0  0  0  0999 V2000
  190.1060  177.3720  146.2680 C   0  0  0  0  0  2  0  0  0  0  0  0
  191.9100  175.1810  145.9890 C   0  0  2  0  0  3  0  0  0  0  0  0
  191.3360  175.8180  144.7180 C   0  0  2  0  0  3  0  0  0  0  0  0
  190.8530  176.6760  147.4000 C   0  0  0  0  0  2  0  0  0  0  0  0
  190.9320  177.2690  144.9920 C   0  0  0  0  0  2  0  0  0  0  0  0
  191.0430  175.3060  147.1020 O   0  0  0  0  0  0  0  0  0  0  0  0
  193.3350  175.6160  146.3010 C   0  0  0  0  0  2  0  0  0  0  0  0
  194.2450  175.1630  145.1770 C   0  0  0  0  0  2  0  0  0  0  0  0
  195.1980  176.2720  144.7760 C   0  0  0  0  0  2  0  0  0  0  0  0
  195.9690  175.8980  143.5560 C   0  0  0  0  0  0  0  0  0  0  0  0
  196.4550  176.8010  142.8240 O   0  0  0  0  0  0  0  0  0  0  0  0
  196.1770  174.5500  143.2580 O   0  0  0  0  0  0  0  0  0  0  0  0
  197.8600  174.2750  141.4820 C   0  0  0  0  0  2  0  0  0  0  0  0
  196.4680  174.0870  141.9450 C   0  0  1  0  0  0  0  0  0  0  0  0
  197.3900  173.0270  141.9550 O   0  0  0  0  0  0  0  0  0  0  0  0
  195.3370  173.9230  140.9190 C   0  0  1  0  0  0  0  0  0  0  0  0
  194.4900  175.0320  141.0100 O   0  0  0  0  0  1  0  0  0  0  0  0
  195.8560  173.8650  139.6330 F   0  0  0  0  0  0  0  0  0  0  0  0
  195.2180  171.5120  140.8290 F   0  0  0  0  0  0  0  0  0  0  0  0
  194.5260  172.6520  141.2010 C   0  0  2  0  0  3  0  0  0  0  0  0
  193.1290  172.7120  140.5680 C   0  0  2  0  0  3  0  0  0  0  0  0
  192.0780  172.1380  141.5130 C   0  0  0  0  0  2  0  0  0  0  0  0
  192.6940  171.9710  143.2190 S   0  0  0  0  0  1  0  0  0  0  0  0
  193.0350  172.0590  139.1840 C   0  0  0  0  0  2  0  0  0  0  0  0
  193.3120  169.6800  139.1980 O   0  0  0  0  0  1  0  0  0  0  0  0
  192.3480  170.6920  139.2080 C   0  0  2  0  0  3  0  0  0  0  0  0
  191.3480  170.4970  138.0640 C   0  0  0  0  0  3  0  0  0  0  0  0
  191.7580  169.3160  137.2110 C   0  0  0  0  0  1  0  0  0  0  0  0
  189.9510  170.2400  138.5970 C   0  0  0  0  0  1  0  0  0  0  0  0
  190.1450  174.9880  144.2710 C   0  0  0  0  0  2  0  0  0  0  0  0
  189.6050  175.4560  142.9970 N   0  0  0  0  0  2  0  0  0  0  0  0
  188.1370  175.4520  143.0520 C   0  0  2  0  0  3  0  0  0  0  0  0
  188.6440  173.3910  141.6910 C   0  0  2  0  0  3  0  0  0  0  0  0
  187.5140  172.9820  142.6300 C   0  0  0  0  0  2  0  0  0  0  0  0
  187.5640  174.3950  142.0790 C   0  0  1  0  0  3  0  0  0  0  0  0
  188.4070  173.0030  140.3590 O   0  0  0  0  0  0  0  0  0  0  0  0
  189.5390  173.7690  137.6510 C   0  0  0  0  0  0  0  0  0  0  0  0
  190.0130  173.6390  136.4900 O   0  0  0  0  0  0  0  0  0  0  0  0
  188.1750  173.9540  138.2200 C   0  0  0  0  0  2  0  0  0  0  0  0
  188.8000  174.0600  139.5090 C   0  0  2  0  0  3  0  0  0  0  0  0
  190.0900  173.7950  138.9910 O   0  0  0  0  0  0  0  0  0  0  0  0
  187.5640  176.8850  142.9320 C   0  0  1  0  0  3  0  0  0  0  0  0
  187.1840  176.3440  145.3460 C   0  0  0  0  0  2  0  0  0  0  0  0
  186.1370  178.0410  146.8550 C   0  0  0  0  0  2  0  0  0  0  0  0
  185.9210  178.3310  144.3080 C   0  0  2  0  0  3  0  0  0  0  0  0
  185.5840  178.8840  145.7010 C   0  0  0  0  0  2  0  0  0  0  0  0
  186.1780  176.5710  146.4760 C   0  0  0  0  0  2  0  0  0  0  0  0
  187.2110  177.4790  144.3040 C   0  0  2  0  0  3  0  0  0  0  0  0
  186.0390  179.4430  143.3840 N   0  0  0  0  0  1  0  0  0  0  0  0
  188.4510  177.7330  142.2540 O   0  0  0  0  0  0  0  0  0  0  0  0
  187.6930  178.3020  141.2270 C   0  0  0  0  0  2  0  0  0  0  0  0
  185.5910  177.8050  140.2300 C   0  0  0  0  0  0  0  0  0  0  0  0
  186.6880  177.4740  139.2660 O   0  0  0  0  0  0  0  0  0  0  0  0
  184.3810  178.2750  140.4930 C   0  0  0  0  0  2  0  0  0  0  0  0
  186.7940  177.2510  140.6100 C   0  0  1  0  0  3  0  0  0  0  0  0
  1  4  1  0  0  0  0
  2  7  1  1  0  0  0
  2  6  1  0  0  0  0
  3 30  1  1  0  0  0
  3  5  1  0  0  0  0
  3  2  1  0  0  0  0
  5  1  1  0  0  0  0
  6  4  1  0  0  0  0
  8  7  1  0  0  0  0
  9  8  1  0  0  0  0
 10  9  1  0  0  0  0
 11 10  2  0  0  0  0
 12 10  1  0  0  0  0
 13 14  1  0  0  0  0
 13 15  1  0  0  0  0
 14 15  1  0  0  0  0
 14 12  1  1  0  0  0
 16 18  1  6  0  0  0
 16 17  1  0  0  0  0
 16 20  1  0  0  0  0
 16 14  1  0  0  0  0
 20 19  1  6  0  0  0
 21 24  1  6  0  0  0
 21 20  1  0  0  0  0
 21 22  1  0  0  0  0
 22 23  1  0  0  0  0
 24 26  1  0  0  0  0
 26 25  1  6  0  0  0
 27 29  1  0  0  0  0
 27 26  1  0  0  0  0
 28 27  1  0  0  0  0
 31 30  1  0  0  0  0
 32 31  1  6  0  0  0
 33 36  1  6  0  0  0
 33 35  1  0  0  0  0
 33 34  1  0  0  0  0
 35 34  1  0  0  0  0
 35 32  1  1  0  0  0
 37 39  1  0  0  0  0
 37 41  1  0  0  0  0
 38 37  2  0  0  0  0
 39 40  1  0  0  0  0
 40 36  1  1  0  0  0
 41 40  1  0  0  0  0
 42 50  1  1  0  0  0
 42 32  1  0  0  0  0
 43 47  1  0  0  0  0
 45 49  1  6  0  0  0
 45 46  1  0  0  0  0
 46 44  1  0  0  0  0
 47 44  1  0  0  0  0
 48 42  1  6  0  0  0
 48 45  1  0  0  0  0
 48 43  1  0  0  0  0
 51 50  1  0  0  0  0
 52 54  2  0  0  0  0
 52 55  1  0  0  0  0
 53 52  1  0  0  0  0
 53 55  1  0  0  0  0
 55 51  1  1  0  0  0
M  END
>  <MODEL>
9

>  <REMARK>
 VINA RESULT:      -4.8      3.309      8.986
  Name = 
  24 active torsions:
  status: ('A' for Active; 'I' for Inactive)
    1  A    between atoms: C_1  and  C_29
    2  A    between atoms: C_2  and  N_28
    3  A    between atoms: C_2  and  C_31
    4  A    between atoms: C_3  and  C_29
    5  A    between atoms: C_3  and  C_38
    6  A    between atoms: C_6  and  C_14
    7  A    between atoms: C_6  and  C_20
    8  A    between atoms: C_8  and  O_22
    9  A    between atoms: C_8  and  C_35
   10  A    between atoms: C_11  and  C_38
   11  A    between atoms: C_13  and  O_48
   12  A    between atoms: C_14  and  C_38
   13  A    between atoms: C_19  and  C_40
   14  A    between atoms: C_19  and  O_45
   15  A    between atoms: C_20  and  O_22
   16  A    between atoms: C_26  and  C_49
   17  A    between atoms: C_27  and  C_54
   18  A    between atoms: N_28  and  C_33
   19  A    between atoms: C_33  and  C_49
   20  A    between atoms: C_33  and  C_52
   21  A    between atoms: C_35  and  C_51
   22  A    between atoms: C_39  and  O_48
   23  A    between atoms: O_45  and  C_49
   24  A    between atoms: C_51  and  C_54
                            x       y       z     vdW  Elec       q    Type
                         _______ _______ _______ _____ _____    ______ ____

>  <TORSDO>
F 24

$$$$
