=
 OpenBabel11052421293D

 32 37  0  0  1  0  0  0  0  0999 V2000
  184.8870  178.5270  142.6490 C   0  0  0  0  0  3  0  0  0  0  0  0
  189.1890  175.8260  142.7050 C   0  0  0  0  0  0  0  0  0  0  0  0
  188.3600  172.8060  138.7760 C   0  0  0  0  0  2  0  0  0  0  0  0
  189.8190  172.3930  138.8860 C   0  0  0  0  0  2  0  0  0  0  0  0
  190.9900  175.3500  144.2750 C   0  0  0  0  0  0  0  0  0  0  0  0
  190.4690  176.3560  145.1190 C   0  0  0  0  0  0  0  0  0  0  0  0
  187.4940  177.5510  143.2370 C   0  0  0  0  0  0  0  0  0  0  0  0
  187.1790  176.1880  141.2780 N   0  0  0  0  0  0  0  0  0  0  0  0
  192.8220  175.0010  145.9940 C   0  0  0  0  0  0  0  0  0  0  0  0
  185.3630  177.5620  141.9190 N   0  0  0  0  0  0  0  0  0  0  0  0
  188.1850  174.1990  139.3630 C   0  0  0  0  0  2  0  0  0  0  0  0
  188.5550  175.6720  141.3370 C   0  0  2  0  0  3  0  0  0  0  0  0
  188.6010  174.2250  140.8370 C   0  0  2  0  0  3  0  0  0  0  0  0
  190.8020  174.0550  142.0790 C   0  0  0  0  0  0  0  0  0  0  0  0
  192.2090  176.0530  146.8100 C   0  0  0  0  0  3  0  0  0  0  0  0
  186.7070  177.0960  142.0790 C   0  0  0  0  0  0  0  0  0  0  0  0
  191.1100  176.6800  146.4030 C   0  0  0  0  0  3  0  0  0  0  0  0
  187.0090  178.5250  144.0130 C   0  0  0  0  0  3  0  0  0  0  0  0
  185.7460  179.2640  143.6490 C   0  0  2  0  0  3  0  0  0  0  0  0
  190.2280  172.3580  140.3530 C   0  0  0  0  0  2  0  0  0  0  0  0
  189.9440  173.6410  141.0000 N   0  0  0  0  0  0  0  0  0  0  0  0
  191.9490  173.5410  142.1880 O   0  0  0  0  0  0  0  0  0  0  0  0
  188.7170  176.8140  143.5830 C   0  0  0  0  0  0  0  0  0  0  0  0
  189.3620  177.0490  144.7540 N   0  0  0  0  0  0  0  0  0  0  0  0
  193.8890  174.4610  146.3850 O   0  0  0  0  0  0  0  0  0  0  0  0
  190.3410  175.0920  143.0410 C   0  0  0  0  0  0  0  0  0  0  0  0
  192.1890  174.5360  144.7150 C   0  0  0  0  0  2  0  0  0  0  0  0
  184.9540  179.6600  144.8880 C   0  0  0  0  0  2  0  0  0  0  0  0
  184.0590  178.5800  145.3030 N   0  0  0  0  0  2  0  0  0  0  0  0
  184.4680  178.0500  146.6050 C   0  0  1  0  0  3  0  0  0  0  0  0
  185.1400  176.6930  146.4680 C   0  0  0  0  0  1  0  0  0  0  0  0
  185.3060  178.9480  147.2710 O   0  0  0  0  0  1  0  0  0  0  0  0
  1 19  1  0  0  0  0
  2 26  2  0  0  0  0
  2 23  1  0  0  0  0
  3  4  1  0  0  0  0
  3 11  1  0  0  0  0
  4 20  1  0  0  0  0
  5 27  1  0  0  0  0
  5  6  2  0  0  0  0
  6 17  1  0  0  0  0
  7 23  1  0  0  0  0
  7 18  2  0  0  0  0
  8 16  2  0  0  0  0
  9 25  2  0  0  0  0
  9 15  1  0  0  0  0
 10 16  1  0  0  0  0
 10  1  2  0  0  0  0
 12  8  1  1  0  0  0
 12  2  1  0  0  0  0
 13 11  1  6  0  0  0
 13 21  1  0  0  0  0
 13 12  1  0  0  0  0
 14 22  2  0  0  0  0
 14 26  1  0  0  0  0
 16  7  1  0  0  0  0
 17 15  2  0  0  0  0
 19 18  1  0  0  0  0
 19 28  1  1  0  0  0
 20 21  1  0  0  0  0
 21 14  1  0  0  0  0
 23 24  2  0  0  0  0
 24  6  1  0  0  0  0
 26  5  1  0  0  0  0
 27  9  1  0  0  0  0
 28 29  1  0  0  0  0
 29 30  1  0  0  0  0
 30 31  1  6  0  0  0
 30 32  1  0  0  0  0
M  END
>  <MODEL>
1

>  <REMARK>
 VINA RESULT:      -8.4      0.000      0.000
  Name = 
  3 active torsions:
  status: ('A' for Active; 'I' for Inactive)
    1  A    between atoms: C_1  and  N_10
    2  A    between atoms: N_10  and  C_19
    3  A    between atoms: C_19  and  C_24
                            x       y       z     vdW  Elec       q    Type
                         _______ _______ _______ _____ _____    ______ ____

>  <TORSDO>
F 3

$$$$
=
 OpenBabel11052421293D

 32 37  0  0  1  0  0  0  0  0999 V2000
  186.6190  178.0290  147.2790 C   0  0  0  0  0  3  0  0  0  0  0  0
  190.0200  175.5910  144.3980 C   0  0  0  0  0  0  0  0  0  0  0  0
  194.2450  176.8330  146.8180 C   0  0  0  0  0  2  0  0  0  0  0  0
  194.9480  175.7950  145.9590 C   0  0  0  0  0  2  0  0  0  0  0  0
  190.1110  174.6090  142.1710 C   0  0  0  0  0  0  0  0  0  0  0  0
  188.7120  174.7780  142.0800 C   0  0  0  0  0  0  0  0  0  0  0  0
  187.8620  176.3690  145.3310 C   0  0  0  0  0  0  0  0  0  0  0  0
  189.8830  176.8380  146.5510 N   0  0  0  0  0  0  0  0  0  0  0  0
  190.0330  173.5740  139.8560 C   0  0  0  0  0  0  0  0  0  0  0  0
  187.9130  177.9040  147.3100 N   0  0  0  0  0  0  0  0  0  0  0  0
  192.7720  176.4700  146.9430 C   0  0  0  0  0  2  0  0  0  0  0  0
  190.6720  175.9070  145.7300 C   0  0  2  0  0  3  0  0  0  0  0  0
  192.1030  176.4250  145.5660 C   0  0  2  0  0  3  0  0  0  0  0  0
  192.2400  174.8850  143.5600 C   0  0  0  0  0  0  0  0  0  0  0  0
  188.5830  173.7950  139.8450 C   0  0  0  0  0  3  0  0  0  0  0  0
  188.5990  177.0000  146.4380 C   0  0  0  0  0  0  0  0  0  0  0  0
  187.9710  174.3610  140.8800 C   0  0  0  0  0  3  0  0  0  0  0  0
  186.5350  176.5060  145.2690 C   0  0  0  0  0  3  0  0  0  0  0  0
  185.7610  177.1710  146.3800 C   0  0  2  0  0  3  0  0  0  0  0  0
  194.3300  175.7820  144.5670 C   0  0  0  0  0  2  0  0  0  0  0  0
  192.8830  175.5760  144.6470 N   0  0  0  0  0  0  0  0  0  0  0  0
  192.9330  174.1610  142.7930 O   0  0  0  0  0  0  0  0  0  0  0  0
  188.6320  175.7340  144.2520 C   0  0  0  0  0  0  0  0  0  0  0  0
  188.0210  175.3290  143.1090 N   0  0  0  0  0  0  0  0  0  0  0  0
  190.5750  172.9930  138.8820 O   0  0  0  0  0  0  0  0  0  0  0  0
  190.7720  175.0140  143.3590 C   0  0  0  0  0  0  0  0  0  0  0  0
  190.8870  174.0520  140.9950 C   0  0  0  0  0  2  0  0  0  0  0  0
  184.5620  177.9410  145.8440 C   0  0  0  0  0  2  0  0  0  0  0  0
  184.9500  179.2910  145.4330 N   0  0  0  0  0  2  0  0  0  0  0  0
  184.7310  179.4700  143.9970 C   0  0  1  0  0  3  0  0  0  0  0  0
  186.0290  179.3420  143.2160 C   0  0  0  0  0  1  0  0  0  0  0  0
  183.7770  178.5680  143.5180 O   0  0  0  0  0  1  0  0  0  0  0  0
  1 10  2  0  0  0  0
  3 11  1  0  0  0  0
  4  3  1  0  0  0  0
  5 26  1  0  0  0  0
  6  5  2  0  0  0  0
  6 24  1  0  0  0  0
  7 16  1  0  0  0  0
  9 27  1  0  0  0  0
 12  2  1  6  0  0  0
 12  8  1  0  0  0  0
 13 12  1  0  0  0  0
 13 11  1  1  0  0  0
 14 21  1  0  0  0  0
 15  9  1  0  0  0  0
 15 17  2  0  0  0  0
 16  8  2  0  0  0  0
 16 10  1  0  0  0  0
 17  6  1  0  0  0  0
 18  7  2  0  0  0  0
 18 19  1  0  0  0  0
 19 28  1  6  0  0  0
 19  1  1  0  0  0  0
 20 21  1  0  0  0  0
 20  4  1  0  0  0  0
 21 13  1  0  0  0  0
 22 14  2  0  0  0  0
 23  2  1  0  0  0  0
 23  7  1  0  0  0  0
 24 23  2  0  0  0  0
 25  9  2  0  0  0  0
 26 14  1  0  0  0  0
 26  2  2  0  0  0  0
 27  5  1  0  0  0  0
 29 28  1  0  0  0  0
 30 31  1  6  0  0  0
 30 29  1  0  0  0  0
 32 30  1  0  0  0  0
M  END
>  <MODEL>
2

>  <REMARK>
 VINA RESULT:      -8.4      1.881      5.301
  Name = 
  3 active torsions:
  status: ('A' for Active; 'I' for Inactive)
    1  A    between atoms: C_1  and  N_10
    2  A    between atoms: N_10  and  C_19
    3  A    between atoms: C_19  and  C_24
                            x       y       z     vdW  Elec       q    Type
                         _______ _______ _______ _____ _____    ______ ____

>  <TORSDO>
F 3

$$$$
=
 OpenBabel11052421293D

 32 37  0  0  1  0  0  0  0  0999 V2000
  188.8010  174.1290  139.3840 C   0  0  0  0  0  3  0  0  0  0  0  0
  188.3190  176.1570  144.0170 C   0  0  0  0  0  0  0  0  0  0  0  0
  184.1100  178.8200  143.3570 C   0  0  0  0  0  2  0  0  0  0  0  0
  184.0960  179.0230  144.8630 C   0  0  0  0  0  2  0  0  0  0  0  0
  189.7280  176.5300  145.9690 C   0  0  0  0  0  0  0  0  0  0  0  0
  190.7090  175.7100  145.3700 C   0  0  0  0  0  0  0  0  0  0  0  0
  189.1360  174.7690  142.1360 C   0  0  0  0  0  0  0  0  0  0  0  0
  187.0490  175.9420  141.8840 N   0  0  0  0  0  0  0  0  0  0  0  0
  191.2970  176.7910  147.9450 C   0  0  0  0  0  0  0  0  0  0  0  0
  187.9390  174.9280  139.9410 N   0  0  0  0  0  0  0  0  0  0  0  0
  184.8650  177.5410  143.0280 C   0  0  0  0  0  2  0  0  0  0  0  0
  186.9760  176.2530  143.3190 C   0  0  2  0  0  3  0  0  0  0  0  0
  186.3080  177.6140  143.5350 C   0  0  2  0  0  3  0  0  0  0  0  0
  187.4060  177.5920  145.8170 C   0  0  0  0  0  0  0  0  0  0  0  0
  192.2620  175.9350  147.2460 C   0  0  0  0  0  3  0  0  0  0  0  0
  187.9740  175.2060  141.3450 C   0  0  0  0  0  0  0  0  0  0  0  0
  191.9880  175.4370  146.0450 C   0  0  0  0  0  3  0  0  0  0  0  0
  190.0450  173.9680  141.5730 C   0  0  0  0  0  3  0  0  0  0  0  0
  189.8350  173.3880  140.1970 C   0  0  2  0  0  3  0  0  0  0  0  0
  185.5250  179.1570  145.3720 C   0  0  0  0  0  2  0  0  0  0  0  0
  186.3320  178.0080  144.9550 N   0  0  0  0  0  0  0  0  0  0  0  0
  187.3950  177.9410  147.0300 O   0  0  0  0  0  0  0  0  0  0  0  0
  189.3290  175.3510  143.4720 C   0  0  0  0  0  0  0  0  0  0  0  0
  190.4860  175.1520  144.1550 N   0  0  0  0  0  0  0  0  0  0  0  0
  191.5670  177.2070  149.1000 O   0  0  0  0  0  0  0  0  0  0  0  0
  188.5060  176.7450  145.2810 C   0  0  0  0  0  0  0  0  0  0  0  0
  190.0070  177.2020  147.2980 C   0  0  0  0  0  2  0  0  0  0  0  0
  191.1510  173.2490  139.4420 C   0  0  0  0  0  2  0  0  0  0  0  0
  191.1190  172.0960  138.5430 N   0  0  0  0  0  2  0  0  0  0  0  0
  190.5080  170.9450  139.2110 C   0  0  1  0  0  3  0  0  0  0  0  0
  189.6910  170.1070  138.2410 C   0  0  0  0  0  1  0  0  0  0  0  0
  191.4760  170.1610  139.8440 O   0  0  0  0  0  1  0  0  0  0  0  0
  1 10  2  0  0  0  0
  1 19  1  0  0  0  0
  2 26  1  0  0  0  0
  3  4  1  0  0  0  0
  4 20  1  0  0  0  0
  5 27  1  0  0  0  0
  6  5  1  0  0  0  0
  6 17  1  0  0  0  0
  7 23  1  0  0  0  0
  9 25  2  0  0  0  0
 10 16  1  0  0  0  0
 11  3  1  0  0  0  0
 12  8  1  6  0  0  0
 12 13  1  0  0  0  0
 12  2  1  0  0  0  0
 13 11  1  1  0  0  0
 13 21  1  0  0  0  0
 14 22  2  0  0  0  0
 15  9  1  0  0  0  0
 16  8  2  0  0  0  0
 16  7  1  0  0  0  0
 17 15  2  0  0  0  0
 18  7  2  0  0  0  0
 19 28  1  6  0  0  0
 19 18  1  0  0  0  0
 21 20  1  0  0  0  0
 21 14  1  0  0  0  0
 23  2  2  0  0  0  0
 23 24  1  0  0  0  0
 24  6  2  0  0  0  0
 26 14  1  0  0  0  0
 26  5  2  0  0  0  0
 27  9  1  0  0  0  0
 29 30  1  0  0  0  0
 29 28  1  0  0  0  0
 30 31  1  6  0  0  0
 30 32  1  0  0  0  0
M  END
>  <MODEL>
3

>  <REMARK>
 VINA RESULT:      -8.0      1.832      6.722
  Name = 
  3 active torsions:
  status: ('A' for Active; 'I' for Inactive)
    1  A    between atoms: C_1  and  N_10
    2  A    between atoms: N_10  and  C_19
    3  A    between atoms: C_19  and  C_24
                            x       y       z     vdW  Elec       q    Type
                         _______ _______ _______ _____ _____    ______ ____

>  <TORSDO>
F 3

$$$$
=
 OpenBabel11052421293D

 32 37  0  0  1  0  0  0  0  0999 V2000
  186.0340  178.6160  145.0390 C   0  0  0  0  0  3  0  0  0  0  0  0
  189.5420  175.3660  143.3260 C   0  0  0  0  0  0  0  0  0  0  0  0
  193.1700  176.1520  146.7130 C   0  0  0  0  0  2  0  0  0  0  0  0
  193.8630  174.9280  146.1380 C   0  0  0  0  0  2  0  0  0  0  0  0
  190.0120  174.1520  141.2670 C   0  0  0  0  0  0  0  0  0  0  0  0
  188.7380  174.5360  140.7940 C   0  0  0  0  0  0  0  0  0  0  0  0
  187.4000  176.5790  143.5980 C   0  0  0  0  0  0  0  0  0  0  0  0
  189.0970  176.8390  145.2860 N   0  0  0  0  0  0  0  0  0  0  0  0
  190.3330  172.9050  139.0810 C   0  0  0  0  0  0  0  0  0  0  0  0
  187.2310  178.2860  145.4240 N   0  0  0  0  0  0  0  0  0  0  0  0
  191.6730  176.0480  146.4600 C   0  0  0  0  0  2  0  0  0  0  0  0
  189.8820  175.7100  144.7630 C   0  0  2  0  0  3  0  0  0  0  0  0
  191.3780  175.9680  144.9590 C   0  0  2  0  0  3  0  0  0  0  0  0
  191.7320  174.2220  143.1570 C   0  0  0  0  0  0  0  0  0  0  0  0
  189.0000  173.3560  138.6690 C   0  0  0  0  0  3  0  0  0  0  0  0
  187.9370  177.1950  144.8230 C   0  0  0  0  0  0  0  0  0  0  0  0
  188.2610  174.1210  139.4660 C   0  0  0  0  0  3  0  0  0  0  0  0
  186.1820  176.9240  143.1740 C   0  0  0  0  0  3  0  0  0  0  0  0
  185.2880  177.8190  143.9960 C   0  0  2  0  0  3  0  0  0  0  0  0
  193.6270  174.8680  144.6340 C   0  0  0  0  0  2  0  0  0  0  0  0
  192.1940  174.9110  144.3340 N   0  0  0  0  0  0  0  0  0  0  0  0
  192.4510  173.3180  142.6490 O   0  0  0  0  0  0  0  0  0  0  0  0
  188.2880  175.7170  142.8050 C   0  0  0  0  0  0  0  0  0  0  0  0
  187.9230  175.2980  141.5660 N   0  0  0  0  0  0  0  0  0  0  0  0
  190.9870  172.1430  138.3240 O   0  0  0  0  0  0  0  0  0  0  0  0
  190.4130  174.5670  142.5620 C   0  0  0  0  0  0  0  0  0  0  0  0
  190.9430  173.3550  140.3770 C   0  0  0  0  0  2  0  0  0  0  0  0
  184.4290  178.7130  143.1120 C   0  0  0  0  0  2  0  0  0  0  0  0
  183.5190  177.9160  142.2890 N   0  0  0  0  0  2  0  0  0  0  0  0
  183.5200  178.4030  140.9090 C   0  0  1  0  0  3  0  0  0  0  0  0
  184.8980  178.2890  140.2790 C   0  0  0  0  0  1  0  0  0  0  0  0
  182.5690  177.7290  140.1380 O   0  0  0  0  0  1  0  0  0  0  0  0
  1 10  2  0  0  0  0
  4  3  1  0  0  0  0
  5 26  1  0  0  0  0
  6  5  2  0  0  0  0
  6 24  1  0  0  0  0
  7 16  1  0  0  0  0
  9 27  1  0  0  0  0
 11  3  1  0  0  0  0
 12  2  1  6  0  0  0
 12 13  1  0  0  0  0
 12  8  1  0  0  0  0
 13 11  1  1  0  0  0
 14 21  1  0  0  0  0
 15  9  1  0  0  0  0
 15 17  2  0  0  0  0
 16  8  2  0  0  0  0
 16 10  1  0  0  0  0
 17  6  1  0  0  0  0
 18  7  2  0  0  0  0
 18 19  1  0  0  0  0
 19 28  1  6  0  0  0
 19  1  1  0  0  0  0
 20  4  1  0  0  0  0
 21 20  1  0  0  0  0
 21 13  1  0  0  0  0
 22 14  2  0  0  0  0
 23  2  1  0  0  0  0
 23  7  1  0  0  0  0
 24 23  2  0  0  0  0
 25  9  2  0  0  0  0
 26 14  1  0  0  0  0
 26  2  2  0  0  0  0
 27  5  1  0  0  0  0
 29 28  1  0  0  0  0
 30 31  1  6  0  0  0
 30 29  1  0  0  0  0
 32 30  1  0  0  0  0
M  END
>  <MODEL>
4

>  <REMARK>
 VINA RESULT:      -7.7      2.078      5.319
  Name = 
  3 active torsions:
  status: ('A' for Active; 'I' for Inactive)
    1  A    between atoms: C_1  and  N_10
    2  A    between atoms: N_10  and  C_19
    3  A    between atoms: C_19  and  C_24
                            x       y       z     vdW  Elec       q    Type
                         _______ _______ _______ _____ _____    ______ ____

>  <TORSDO>
F 3

$$$$
=
 OpenBabel11052421293D

 32 37  0  0  1  0  0  0  0  0999 V2000
  194.3840  176.1440  146.5560 C   0  0  0  0  0  3  0  0  0  0  0  0
  190.1630  175.8680  143.7430 C   0  0  0  0  0  0  0  0  0  0  0  0
  186.7990  177.5560  147.0720 C   0  0  0  0  0  2  0  0  0  0  0  0
  185.8100  177.6240  145.9200 C   0  0  0  0  0  2  0  0  0  0  0  0
  189.4350  174.7550  141.7020 C   0  0  0  0  0  0  0  0  0  0  0  0
  190.7790  174.3910  141.4670 C   0  0  0  0  0  0  0  0  0  0  0  0
  192.5480  175.8220  144.4070 C   0  0  0  0  0  0  0  0  0  0  0  0
  190.9420  176.7550  145.9380 N   0  0  0  0  0  0  0  0  0  0  0  0
  188.8440  173.5840  139.5310 C   0  0  0  0  0  0  0  0  0  0  0  0
  193.1310  176.4200  146.7690 N   0  0  0  0  0  0  0  0  0  0  0  0
  188.2150  177.6770  146.5290 C   0  0  0  0  0  2  0  0  0  0  0  0
  189.8900  176.7970  144.9100 C   0  0  2  0  0  3  0  0  0  0  0  0
  188.5190  176.5450  145.5430 C   0  0  2  0  0  3  0  0  0  0  0  0
  187.7480  175.9530  143.2040 C   0  0  0  0  0  0  0  0  0  0  0  0
  190.2610  173.2430  139.3700 C   0  0  0  0  0  3  0  0  0  0  0  0
  192.1690  176.3930  145.7100 C   0  0  0  0  0  0  0  0  0  0  0  0
  191.1600  173.6160  140.2760 C   0  0  0  0  0  3  0  0  0  0  0  0
  193.8270  175.5080  144.1790 C   0  0  0  0  0  3  0  0  0  0  0  0
  194.9090  175.8580  145.1700 C   0  0  2  0  0  3  0  0  0  0  0  0
  186.0640  176.4670  144.9620 C   0  0  0  0  0  2  0  0  0  0  0  0
  187.4610  176.4590  144.5210 N   0  0  0  0  0  0  0  0  0  0  0  0
  186.8210  175.8970  142.3490 O   0  0  0  0  0  0  0  0  0  0  0  0
  191.4800  175.4790  143.4580 C   0  0  0  0  0  0  0  0  0  0  0  0
  191.7500  174.7570  142.3400 N   0  0  0  0  0  0  0  0  0  0  0  0
  188.0260  173.2580  138.6330 O   0  0  0  0  0  0  0  0  0  0  0  0
  189.1280  175.5180  142.8580 C   0  0  0  0  0  0  0  0  0  0  0  0
  188.3450  174.2900  140.7580 C   0  0  0  0  0  2  0  0  0  0  0  0
  196.0090  174.8040  145.1910 C   0  0  0  0  0  2  0  0  0  0  0  0
  195.6700  173.6780  144.3200 N   0  0  0  0  0  2  0  0  0  0  0  0
  195.6600  172.4290  145.0820 C   0  0  1  0  0  3  0  0  0  0  0  0
  196.8270  172.3580  146.0530 C   0  0  0  0  0  1  0  0  0  0  0  0
  194.4470  172.2630  145.7580 O   0  0  0  0  0  1  0  0  0  0  0  0
  1 10  2  0  0  0  0
  4  3  1  0  0  0  0
  5 26  1  0  0  0  0
  6  5  2  0  0  0  0
  6 24  1  0  0  0  0
  7 16  1  0  0  0  0
  9 27  1  0  0  0  0
 11  3  1  0  0  0  0
 12  2  1  6  0  0  0
 12 13  1  0  0  0  0
 12  8  1  0  0  0  0
 13 11  1  1  0  0  0
 14 21  1  0  0  0  0
 15  9  1  0  0  0  0
 15 17  2  0  0  0  0
 16  8  2  0  0  0  0
 16 10  1  0  0  0  0
 17  6  1  0  0  0  0
 18  7  2  0  0  0  0
 18 19  1  0  0  0  0
 19 28  1  1  0  0  0
 19  1  1  0  0  0  0
 20  4  1  0  0  0  0
 21 20  1  0  0  0  0
 21 13  1  0  0  0  0
 22 14  2  0  0  0  0
 23  2  1  0  0  0  0
 23  7  1  0  0  0  0
 24 23  2  0  0  0  0
 25  9  2  0  0  0  0
 26 14  1  0  0  0  0
 26  2  2  0  0  0  0
 27  5  1  0  0  0  0
 29 30  1  0  0  0  0
 29 28  1  0  0  0  0
 30 32  1  0  0  0  0
 30 31  1  1  0  0  0
M  END
>  <MODEL>
5

>  <REMARK>
 VINA RESULT:      -7.6      2.744      7.883
  Name = 
  3 active torsions:
  status: ('A' for Active; 'I' for Inactive)
    1  A    between atoms: C_1  and  N_10
    2  A    between atoms: N_10  and  C_19
    3  A    between atoms: C_19  and  C_24
                            x       y       z     vdW  Elec       q    Type
                         _______ _______ _______ _____ _____    ______ ____

>  <TORSDO>
F 3

$$$$
=
 OpenBabel11052421293D

 32 37  0  0  1  0  0  0  0  0999 V2000
  192.4260  173.6900  143.0330 C   0  0  0  0  0  3  0  0  0  0  0  0
  187.8720  175.9180  143.3600 C   0  0  0  0  0  0  0  0  0  0  0  0
  186.9550  176.7200  138.4850 C   0  0  0  0  0  2  0  0  0  0  0  0
  185.5350  177.0780  138.8920 C   0  0  0  0  0  2  0  0  0  0  0  0
  186.5300  177.0170  145.0700 C   0  0  0  0  0  0  0  0  0  0  0  0
  187.4530  176.5580  146.0350 C   0  0  0  0  0  0  0  0  0  0  0  0
  189.9520  174.7260  143.9810 C   0  0  0  0  0  0  0  0  0  0  0  0
  189.4300  174.9970  141.6470 N   0  0  0  0  0  0  0  0  0  0  0  0
  185.2240  178.0740  146.9700 C   0  0  0  0  0  0  0  0  0  0  0  0
  191.5850  174.1690  142.1640 N   0  0  0  0  0  0  0  0  0  0  0  0
  187.5570  175.7860  139.5250 C   0  0  0  0  0  2  0  0  0  0  0  0
  188.0530  175.4240  141.9380 C   0  0  2  0  0  3  0  0  0  0  0  0
  187.5870  176.4520  140.9040 C   0  0  2  0  0  3  0  0  0  0  0  0
  185.8350  177.1090  142.6110 C   0  0  0  0  0  0  0  0  0  0  0  0
  186.2350  177.5650  147.9020 C   0  0  0  0  0  3  0  0  0  0  0  0
  190.2760  174.6020  142.5510 C   0  0  0  0  0  0  0  0  0  0  0  0
  187.2760  176.8640  147.4630 C   0  0  0  0  0  3  0  0  0  0  0  0
  190.8160  174.2620  144.8890 C   0  0  0  0  0  3  0  0  0  0  0  0
  192.0450  173.4890  144.4800 C   0  0  2  0  0  3  0  0  0  0  0  0
  185.5560  177.7950  140.2360 C   0  0  0  0  0  2  0  0  0  0  0  0
  186.2560  176.9900  141.2400 N   0  0  0  0  0  0  0  0  0  0  0  0
  184.6870  177.5680  142.8670 O   0  0  0  0  0  0  0  0  0  0  0  0
  188.7560  175.4900  144.3620 C   0  0  0  0  0  0  0  0  0  0  0  0
  188.5260  175.8190  145.6590 N   0  0  0  0  0  0  0  0  0  0  0  0
  184.2270  178.6930  147.4220 O   0  0  0  0  0  0  0  0  0  0  0  0
  186.7410  176.6780  143.7090 C   0  0  0  0  0  0  0  0  0  0  0  0
  185.3680  177.8950  145.4870 C   0  0  0  0  0  2  0  0  0  0  0  0
  193.2150  173.7650  145.4140 C   0  0  0  0  0  2  0  0  0  0  0  0
  193.0080  175.0080  146.1580 N   0  0  0  0  0  2  0  0  0  0  0  0
  194.2170  175.8330  146.1200 C   0  0  1  0  0  3  0  0  0  0  0  0
  194.5900  176.2100  144.6950 C   0  0  0  0  0  1  0  0  0  0  0  0
  194.0690  176.9760  146.9090 O   0  0  0  0  0  1  0  0  0  0  0  0
  1 19  1  0  0  0  0
  2 26  2  0  0  0  0
  2 23  1  0  0  0  0
  3  4  1  0  0  0  0
  3 11  1  0  0  0  0
  4 20  1  0  0  0  0
  5 27  1  0  0  0  0
  5  6  2  0  0  0  0
  6 17  1  0  0  0  0
  7 23  1  0  0  0  0
  7 18  2  0  0  0  0
  8 16  2  0  0  0  0
  9 25  2  0  0  0  0
  9 15  1  0  0  0  0
 10 16  1  0  0  0  0
 10  1  2  0  0  0  0
 12  8  1  6  0  0  0
 12  2  1  0  0  0  0
 13 11  1  6  0  0  0
 13 21  1  0  0  0  0
 13 12  1  0  0  0  0
 14 22  2  0  0  0  0
 14 26  1  0  0  0  0
 16  7  1  0  0  0  0
 17 15  2  0  0  0  0
 19 18  1  0  0  0  0
 19 28  1  1  0  0  0
 20 21  1  0  0  0  0
 21 14  1  0  0  0  0
 23 24  2  0  0  0  0
 24  6  1  0  0  0  0
 26  5  1  0  0  0  0
 27  9  1  0  0  0  0
 28 29  1  0  0  0  0
 30 31  1  6  0  0  0
 30 29  1  0  0  0  0
 30 32  1  0  0  0  0
M  END
>  <MODEL>
6

>  <REMARK>
 VINA RESULT:      -7.3      2.306      6.487
  Name = 
  3 active torsions:
  status: ('A' for Active; 'I' for Inactive)
    1  A    between atoms: C_1  and  N_10
    2  A    between atoms: N_10  and  C_19
    3  A    between atoms: C_19  and  C_24
                            x       y       z     vdW  Elec       q    Type
                         _______ _______ _______ _____ _____    ______ ____

>  <TORSDO>
F 3

$$$$
=
 OpenBabel11052421293D

 32 37  0  0  1  0  0  0  0  0999 V2000
  188.2790  177.5410  147.2640 C   0  0  0  0  0  3  0  0  0  0  0  0
  191.0000  175.1940  143.6720 C   0  0  0  0  0  0  0  0  0  0  0  0
  195.5410  177.1120  144.6420 C   0  0  0  0  0  2  0  0  0  0  0  0
  196.0980  176.0710  143.6840 C   0  0  0  0  0  2  0  0  0  0  0  0
  190.5760  174.0050  141.5880 C   0  0  0  0  0  0  0  0  0  0  0  0
  189.2000  174.0170  141.9060 C   0  0  0  0  0  0  0  0  0  0  0  0
  189.1170  175.8310  145.1500 C   0  0  0  0  0  0  0  0  0  0  0  0
  191.3240  176.6310  145.6820 N   0  0  0  0  0  0  0  0  0  0  0  0
  189.9730  172.7390  139.4750 C   0  0  0  0  0  0  0  0  0  0  0  0
  189.5330  177.5570  146.9180 N   0  0  0  0  0  0  0  0  0  0  0  0
  194.2270  176.6100  145.2220 C   0  0  0  0  0  2  0  0  0  0  0  0
  191.9590  175.7100  144.7270 C   0  0  2  0  0  3  0  0  0  0  0  0
  193.2030  176.3560  144.1120 C   0  0  2  0  0  3  0  0  0  0  0  0
  192.9590  174.6430  142.2620 C   0  0  0  0  0  0  0  0  0  0  0  0
  188.5650  172.8030  139.8800 C   0  0  0  0  0  3  0  0  0  0  0  0
  190.0520  176.6450  145.9440 C   0  0  0  0  0  0  0  0  0  0  0  0
  188.2070  173.4040  141.0100 C   0  0  0  0  0  3  0  0  0  0  0  0
  187.8210  175.8220  145.4750 C   0  0  0  0  0  3  0  0  0  0  0  0
  187.3190  176.5100  146.7190 C   0  0  2  0  0  3  0  0  0  0  0  0
  195.1140  175.8520  142.5420 C   0  0  0  0  0  2  0  0  0  0  0  0
  193.7900  175.5040  143.0610 N   0  0  0  0  0  0  0  0  0  0  0  0
  193.4910  173.9220  141.3740 O   0  0  0  0  0  0  0  0  0  0  0  0
  189.6220  175.1740  143.9360 C   0  0  0  0  0  0  0  0  0  0  0  0
  188.7670  174.5940  143.0550 N   0  0  0  0  0  0  0  0  0  0  0  0
  190.2840  172.1220  138.4240 O   0  0  0  0  0  0  0  0  0  0  0  0
  191.4900  174.5960  142.4970 C   0  0  0  0  0  0  0  0  0  0  0  0
  191.0470  173.4160  140.2750 C   0  0  0  0  0  2  0  0  0  0  0  0
  185.9270  177.0920  146.5120 C   0  0  0  0  0  2  0  0  0  0  0  0
  185.7950  177.6680  145.1740 N   0  0  0  0  0  2  0  0  0  0  0  0
  185.2780  179.0350  145.2550 C   0  0  1  0  0  3  0  0  0  0  0  0
  185.4920  179.7910  143.9530 C   0  0  0  0  0  1  0  0  0  0  0  0
  183.9270  179.0410  145.6110 O   0  0  0  0  0  1  0  0  0  0  0  0
  2 23  1  0  0  0  0
  3 11  1  0  0  0  0
  4  3  1  0  0  0  0
  5  6  2  0  0  0  0
  5 26  1  0  0  0  0
  6 24  1  0  0  0  0
  7 18  2  0  0  0  0
  7 16  1  0  0  0  0
  8 16  2  0  0  0  0
  9 15  1  0  0  0  0
  9 27  1  0  0  0  0
 10  1  2  0  0  0  0
 12  2  1  6  0  0  0
 12  8  1  0  0  0  0
 13 12  1  0  0  0  0
 13 11  1  1  0  0  0
 14 26  1  0  0  0  0
 14 21  1  0  0  0  0
 15 17  2  0  0  0  0
 16 10  1  0  0  0  0
 17  6  1  0  0  0  0
 18 19  1  0  0  0  0
 19 28  1  6  0  0  0
 19  1  1  0  0  0  0
 20 21  1  0  0  0  0
 20  4  1  0  0  0  0
 21 13  1  0  0  0  0
 22 14  2  0  0  0  0
 23  7  1  0  0  0  0
 24 23  2  0  0  0  0
 25  9  2  0  0  0  0
 26  2  2  0  0  0  0
 27  5  1  0  0  0  0
 29 30  1  0  0  0  0
 29 28  1  0  0  0  0
 30 31  1  6  0  0  0
 30 32  1  0  0  0  0
M  END
>  <MODEL>
7

>  <REMARK>
 VINA RESULT:      -7.3      2.271      5.392
  Name = 
  3 active torsions:
  status: ('A' for Active; 'I' for Inactive)
    1  A    between atoms: C_1  and  N_10
    2  A    between atoms: N_10  and  C_19
    3  A    between atoms: C_19  and  C_24
                            x       y       z     vdW  Elec       q    Type
                         _______ _______ _______ _____ _____    ______ ____

>  <TORSDO>
F 3

$$$$
=
 OpenBabel11052421293D

 32 37  0  0  1  0  0  0  0  0999 V2000
  184.8570  179.4180  143.7610 C   0  0  0  0  0  3  0  0  0  0  0  0
  188.0260  175.9460  141.8350 C   0  0  0  0  0  0  0  0  0  0  0  0
  186.5050  175.9560  137.0460 C   0  0  0  0  0  2  0  0  0  0  0  0
  187.7380  175.1230  136.7350 C   0  0  0  0  0  2  0  0  0  0  0  0
  189.4680  174.1700  142.6730 C   0  0  0  0  0  0  0  0  0  0  0  0
  189.2530  174.6630  143.9790 C   0  0  0  0  0  0  0  0  0  0  0  0
  186.9580  177.5330  143.4080 C   0  0  0  0  0  0  0  0  0  0  0  0
  186.3390  177.6190  141.0830 N   0  0  0  0  0  0  0  0  0  0  0  0
  190.9720  172.4040  143.6980 C   0  0  0  0  0  0  0  0  0  0  0  0
  185.0370  178.9100  142.5780 N   0  0  0  0  0  0  0  0  0  0  0  0
  186.7590  176.7840  138.2970 C   0  0  0  0  0  2  0  0  0  0  0  0
  187.4640  176.7590  140.6850 C   0  0  2  0  0  3  0  0  0  0  0  0
  187.0660  175.8810  139.4960 C   0  0  2  0  0  3  0  0  0  0  0  0
  189.0070  174.3990  140.1680 C   0  0  0  0  0  0  0  0  0  0  0  0
  190.6870  172.9770  145.0170 C   0  0  0  0  0  3  0  0  0  0  0  0
  186.1410  178.0440  142.2950 C   0  0  0  0  0  0  0  0  0  0  0  0
  189.8820  174.0270  145.1460 C   0  0  0  0  0  3  0  0  0  0  0  0
  186.7710  178.0260  144.6350 C   0  0  0  0  0  3  0  0  0  0  0  0
  185.8450  179.1910  144.8810 C   0  0  2  0  0  3  0  0  0  0  0  0
  188.0190  174.1780  137.8960 C   0  0  0  0  0  2  0  0  0  0  0  0
  188.1310  174.9210  139.1520 N   0  0  0  0  0  0  0  0  0  0  0  0
  189.9130  173.5840  139.8420 O   0  0  0  0  0  0  0  0  0  0  0  0
  187.8490  176.3910  143.1530 C   0  0  0  0  0  0  0  0  0  0  0  0
  188.4590  175.7450  144.1790 N   0  0  0  0  0  0  0  0  0  0  0  0
  191.7760  171.4410  143.6060 O   0  0  0  0  0  0  0  0  0  0  0  0
  188.8500  174.8340  141.5820 C   0  0  0  0  0  0  0  0  0  0  0  0
  190.3040  172.9250  142.4590 C   0  0  0  0  0  2  0  0  0  0  0  0
  185.1490  179.0770  146.2310 C   0  0  0  0  0  2  0  0  0  0  0  0
  185.0900  177.6830  146.6720 N   0  0  0  0  0  2  0  0  0  0  0  0
  185.9410  177.4840  147.8460 C   0  0  1  0  0  3  0  0  0  0  0  0
  186.9960  176.4170  147.5960 C   0  0  0  0  0  1  0  0  0  0  0  0
  186.5400  178.6830  148.2420 O   0  0  0  0  0  1  0  0  0  0  0  0
  1 19  1  0  0  0  0
  2 23  1  0  0  0  0
  3 11  1  0  0  0  0
  4  3  1  0  0  0  0
  4 20  1  0  0  0  0
  5  6  2  0  0  0  0
  6 24  1  0  0  0  0
  6 17  1  0  0  0  0
  7 18  2  0  0  0  0
  8 16  2  0  0  0  0
  9 15  1  0  0  0  0
 10  1  2  0  0  0  0
 12  8  1  1  0  0  0
 12  2  1  0  0  0  0
 13 11  1  6  0  0  0
 13 12  1  0  0  0  0
 14 26  1  0  0  0  0
 15 17  2  0  0  0  0
 16 10  1  0  0  0  0
 16  7  1  0  0  0  0
 18 19  1  0  0  0  0
 19 28  1  1  0  0  0
 20 21  1  0  0  0  0
 21 13  1  0  0  0  0
 21 14  1  0  0  0  0
 22 14  2  0  0  0  0
 23  7  1  0  0  0  0
 23 24  2  0  0  0  0
 25  9  2  0  0  0  0
 26  2  2  0  0  0  0
 26  5  1  0  0  0  0
 27  5  1  0  0  0  0
 27  9  1  0  0  0  0
 28 29  1  0  0  0  0
 29 30  1  0  0  0  0
 30 31  1  6  0  0  0
 30 32  1  0  0  0  0
M  END
>  <MODEL>
8

>  <REMARK>
 VINA RESULT:      -7.1      2.013      2.594
  Name = 
  3 active torsions:
  status: ('A' for Active; 'I' for Inactive)
    1  A    between atoms: C_1  and  N_10
    2  A    between atoms: N_10  and  C_19
    3  A    between atoms: C_19  and  C_24
                            x       y       z     vdW  Elec       q    Type
                         _______ _______ _______ _____ _____    ______ ____

>  <TORSDO>
F 3

$$$$
=
 OpenBabel11052421293D

 32 37  0  0  1  0  0  0  0  0999 V2000
  191.2630  172.5160  139.6180 C   0  0  0  0  0  3  0  0  0  0  0  0
  190.1170  175.6910  143.4150 C   0  0  0  0  0  0  0  0  0  0  0  0
  194.3640  175.4090  146.0830 C   0  0  0  0  0  2  0  0  0  0  0  0
  193.8440  176.5890  146.8880 C   0  0  0  0  0  2  0  0  0  0  0  0
  188.1140  176.6920  144.3760 C   0  0  0  0  0  0  0  0  0  0  0  0
  187.3870  176.2120  143.2640 C   0  0  0  0  0  0  0  0  0  0  0  0
  189.9840  174.4350  141.2840 C   0  0  0  0  0  0  0  0  0  0  0  0
  192.0590  174.4220  142.5060 N   0  0  0  0  0  0  0  0  0  0  0  0
  185.9500  177.7070  145.2230 C   0  0  0  0  0  0  0  0  0  0  0  0
  191.8930  172.9290  140.6780 N   0  0  0  0  0  0  0  0  0  0  0  0
  193.7380  175.4290  144.6970 C   0  0  0  0  0  2  0  0  0  0  0  0
  191.6230  175.5160  143.3860 C   0  0  2  0  0  3  0  0  0  0  0  0
  192.2110  175.3370  144.7880 C   0  0  2  0  0  3  0  0  0  0  0  0
  190.3680  176.8900  145.5670 C   0  0  0  0  0  0  0  0  0  0  0  0
  185.2730  177.1650  144.0410 C   0  0  0  0  0  3  0  0  0  0  0  0
  191.3660  173.9750  141.5010 C   0  0  0  0  0  0  0  0  0  0  0  0
  185.9440  176.4640  143.1320 C   0  0  0  0  0  3  0  0  0  0  0  0
  189.3130  174.0020  140.2140 C   0  0  0  0  0  3  0  0  0  0  0  0
  189.9830  173.1680  139.1510 C   0  0  2  0  0  3  0  0  0  0  0  0
  192.3330  176.4770  147.0360 C   0  0  0  0  0  2  0  0  0  0  0  0
  191.6930  176.3500  145.7250 N   0  0  0  0  0  0  0  0  0  0  0  0
  189.9550  177.7590  146.3820 O   0  0  0  0  0  0  0  0  0  0  0  0
  189.3440  175.2390  142.3350 C   0  0  0  0  0  0  0  0  0  0  0  0
  188.0140  175.5080  142.2890 N   0  0  0  0  0  0  0  0  0  0  0  0
  185.2980  178.4060  146.0400 O   0  0  0  0  0  0  0  0  0  0  0  0
  189.5070  176.4340  144.4420 C   0  0  0  0  0  0  0  0  0  0  0  0
  187.3990  177.4230  145.4930 C   0  0  0  0  0  2  0  0  0  0  0  0
  189.0220  172.1520  138.5480 C   0  0  0  0  0  2  0  0  0  0  0  0
  189.1690  172.0920  137.0940 N   0  0  0  0  0  2  0  0  0  0  0  0
  189.7100  170.7940  136.6890 C   0  0  1  0  0  3  0  0  0  0  0  0
  191.1220  170.9250  136.1390 C   0  0  0  0  0  1  0  0  0  0  0  0
  189.6780  169.8840  137.7490 O   0  0  0  0  0  1  0  0  0  0  0  0
  1 10  2  0  0  0  0
  2 26  1  0  0  0  0
  3  4  1  0  0  0  0
  4 20  1  0  0  0  0
  5 26  2  0  0  0  0
  5 27  1  0  0  0  0
  6  5  1  0  0  0  0
  7 16  1  0  0  0  0
  7 23  1  0  0  0  0
  9 27  1  0  0  0  0
  9 25  2  0  0  0  0
 10 16  1  0  0  0  0
 11  3  1  0  0  0  0
 12  8  1  6  0  0  0
 12  2  1  0  0  0  0
 12 13  1  0  0  0  0
 13 11  1  6  0  0  0
 13 21  1  0  0  0  0
 14 21  1  0  0  0  0
 14 22  2  0  0  0  0
 15  9  1  0  0  0  0
 16  8  2  0  0  0  0
 17  6  1  0  0  0  0
 17 15  2  0  0  0  0
 18  7  2  0  0  0  0
 19 28  1  1  0  0  0
 19  1  1  0  0  0  0
 19 18  1  0  0  0  0
 21 20  1  0  0  0  0
 23  2  2  0  0  0  0
 24 23  1  0  0  0  0
 24  6  2  0  0  0  0
 26 14  1  0  0  0  0
 29 28  1  0  0  0  0
 30 31  1  1  0  0  0
 30 29  1  0  0  0  0
 30 32  1  0  0  0  0
M  END
>  <MODEL>
9

>  <REMARK>
 VINA RESULT:      -7.1      2.306      7.733
  Name = 
  3 active torsions:
  status: ('A' for Active; 'I' for Inactive)
    1  A    between atoms: C_1  and  N_10
    2  A    between atoms: N_10  and  C_19
    3  A    between atoms: C_19  and  C_24
                            x       y       z     vdW  Elec       q    Type
                         _______ _______ _______ _____ _____    ______ ____

>  <TORSDO>
F 3

$$$$
