=
 OpenBabel11052420013D

 37 42  0  0  1  0  0  0  0  0999 V2000
  192.2640  175.5820  143.1310 C   0  0  2  0  0  0  0  0  0  0  0  0
  188.7850  176.0940  145.3480 C   0  0  0  0  0  2  0  0  0  0  0  0
  193.8100  176.3410  144.9870 C   0  0  2  0  0  3  0  0  0  0  0  0
  190.7520  175.5930  143.2040 C   0  0  1  0  0  3  0  0  0  0  0  0
  192.9010  176.7810  143.8020 C   0  0  2  0  0  3  0  0  0  0  0  0
  190.2720  174.5630  144.1420 N   0  0  0  0  0  0  0  0  0  0  0  0
  194.3460  174.9090  144.8000 C   0  0  0  0  0  2  0  0  0  0  0  0
  191.7300  177.6940  144.1860 C   0  0  1  0  0  3  0  0  0  0  0  0
  192.8250  175.2110  141.7810 C   0  0  0  0  0  2  0  0  0  0  0  0
  194.4280  174.5680  143.4370 O   0  0  0  0  0  0  0  0  0  0  0  0
  191.0090  178.0620  143.0230 O   0  0  0  0  0  0  0  0  0  0  0  0
  188.8750  174.8300  144.4960 C   0  0  0  0  0  2  0  0  0  0  0  0
  193.1110  174.3240  142.9930 C   0  0  1  0  0  3  0  0  0  0  0  0
  190.4900  176.9940  143.7760 C   0  0  1  0  0  0  0  0  0  0  0  0
  189.2090  177.3160  144.5350 C   0  0  1  0  0  3  0  0  0  0  0  0
  188.1990  177.6580  143.6290 O   0  0  0  0  0  0  0  0  0  0  0  0
  186.9960  177.4410  144.3150 C   0  0  1  0  0  3  0  0  0  0  0  0
  186.4650  178.7480  144.8860 C   0  0  0  0  0  2  0  0  0  0  0  0
  184.2820  178.6410  146.0450 C   0  0  0  0  0  1  0  0  0  0  0  0
  185.7800  178.5020  146.2160 C   0  0  0  0  0  2  0  0  0  0  0  0
  185.9640  176.7960  143.3930 C   0  0  0  0  0  2  0  0  0  0  0  0
  186.4480  176.7320  141.9530 C   0  0  0  0  0  2  0  0  0  0  0  0
  185.6840  178.0710  140.9990 S   0  0  0  0  0  0  0  0  0  0  0  0
  184.2020  178.0570  142.0430 C   0  0  0  0  0  1  0  0  0  0  0  0
  193.1460  176.4200  146.3600 C   0  0  0  0  0  2  0  0  0  0  0  0
  192.5400  175.0830  146.7670 C   0  0  0  0  0  2  0  0  0  0  0  0
  191.2370  176.7330  148.1130 C   0  0  0  0  0  1  0  0  0  0  0  0
  191.3940  175.2690  147.7490 C   0  0  0  0  0  2  0  0  0  0  0  0
  190.2760  173.3800  143.4780 O   0  0  0  0  0  0  0  0  0  0  0  0
  189.0150  173.3010  142.8700 C   0  0  0  0  0  2  0  0  0  0  0  0
  190.7830  171.9520  141.2410 S   0  0  0  0  0  0  0  0  0  0  0  0
  189.1160  172.6520  141.4980 C   0  0  2  0  0  3  0  0  0  0  0  0
  188.7800  173.6580  140.4030 C   0  0  0  0  0  2  0  0  0  0  0  0
  188.2270  173.9640  138.0070 C   0  0  0  0  0  1  0  0  0  0  0  0
  189.9650  172.3150  138.6430 C   0  0  0  0  0  2  0  0  0  0  0  0
  188.6470  172.9560  139.0570 C   0  0  1  0  0  3  0  0  0  0  0  0
  190.3560  171.2230  139.6270 C   0  0  0  0  0  2  0  0  0  0  0  0
  1  9  1  6  0  0  0
  1  4  1  0  0  0  0
  1  5  1  0  0  0  0
  3 25  1  1  0  0  0
  4 14  1  0  0  0  0
  4  6  1  1  0  0  0
  5  8  1  0  0  0  0
  5  3  1  0  0  0  0
  6 12  1  0  0  0  0
  7  3  1  0  0  0  0
  9 13  1  0  0  0  0
 10  7  1  0  0  0  0
 11 14  1  0  0  0  0
 11  8  1  0  0  0  0
 12  2  1  0  0  0  0
 13  1  1  0  0  0  0
 13 10  1  0  0  0  0
 14  8  1  0  0  0  0
 14 15  1  0  0  0  0
 15  2  1  0  0  0  0
 16 17  1  0  0  0  0
 16 15  1  0  0  0  0
 17 18  1  0  0  0  0
 18 20  1  0  0  0  0
 19 20  1  0  0  0  0
 21 17  1  0  0  0  0
 22 21  1  0  0  0  0
 23 22  1  0  0  0  0
 23 24  1  0  0  0  0
 25 26  1  0  0  0  0
 26 28  1  0  0  0  0
 28 27  1  0  0  0  0
 29  6  1  0  0  0  0
 30 29  1  0  0  0  0
 31 32  1  0  0  0  0
 32 30  1  0  0  0  0
 33 32  1  0  0  0  0
 34 36  1  0  0  0  0
 35 36  1  0  0  0  0
 35 37  1  0  0  0  0
 36 33  1  0  0  0  0
 37 31  1  0  0  0  0
M  END
>  <MODEL>
1

>  <REMARK>
 VINA RESULT:      -6.5      0.000      0.000
  Name = 
  13 active torsions:
  status: ('A' for Active; 'I' for Inactive)
    1  A    between atoms: O_1  and  C_33
    2  A    between atoms: O_1  and  C_36
    3  A    between atoms: C_3  and  C_30
    4  A    between atoms: C_3  and  C_32
    5  A    between atoms: C_5  and  C_23
    6  A    between atoms: C_5  and  C_33
    7  A    between atoms: C_6  and  C_31
    8  A    between atoms: C_9  and  C_30
    9  A    between atoms: S_11  and  C_26
   10  A    between atoms: N_14  and  O_37
   11  A    between atoms: C_17  and  C_26
   12  A    between atoms: C_17  and  C_33
   13  A    between atoms: C_31  and  O_37
                            x       y       z     vdW  Elec       q    Type
                         _______ _______ _______ _____ _____    ______ ____

>  <TORSDO>
F 13

$$$$
=
 OpenBabel11052420013D

 37 42  0  0  1  0  0  0  0  0999 V2000
  189.6980  175.5770  146.0290 C   0  0  2  0  0  0  0  0  0  0  0  0
  190.7810  174.9000  142.0720 C   0  0  0  0  0  2  0  0  0  0  0  0
  192.0450  175.3040  146.9390 C   0  0  2  0  0  3  0  0  0  0  0  0
  189.2990  175.3670  144.5840 C   0  0  1  0  0  3  0  0  0  0  0  0
  190.7340  174.5820  146.5110 C   0  0  2  0  0  3  0  0  0  0  0  0
  189.8460  176.4400  143.7350 N   0  0  0  0  0  0  0  0  0  0  0  0
  191.7860  176.7560  147.3810 C   0  0  0  0  0  2  0  0  0  0  0  0
  190.8900  173.5780  145.3630 C   0  0  1  0  0  3  0  0  0  0  0  0
  188.5460  175.8320  146.9690 C   0  0  0  0  0  2  0  0  0  0  0  0
  190.4770  176.9130  147.8760 O   0  0  0  0  0  0  0  0  0  0  0  0
  189.6440  172.9560  145.0990 O   0  0  0  0  0  0  0  0  0  0  0  0
  189.7900  176.0330  142.3280 C   0  0  0  0  0  2  0  0  0  0  0  0
  189.6110  176.9090  146.7620 C   0  0  1  0  0  3  0  0  0  0  0  0
  189.9990  174.0360  144.2710 C   0  0  1  0  0  0  0  0  0  0  0  0
  190.3670  173.6470  142.8450 C   0  0  1  0  0  3  0  0  0  0  0  0
  189.2680  173.0470  142.2220 O   0  0  0  0  0  0  0  0  0  0  0  0
  189.7020  172.7270  140.9280 C   0  0  1  0  0  3  0  0  0  0  0  0
  190.3760  171.3630  140.9130 C   0  0  0  0  0  2  0  0  0  0  0  0
  192.4820  172.2740  139.9880 C   0  0  0  0  0  1  0  0  0  0  0  0
  191.3640  171.2770  139.7660 C   0  0  0  0  0  2  0  0  0  0  0  0
  188.5320  172.7630  139.9480 C   0  0  0  0  0  2  0  0  0  0  0  0
  188.6750  173.8830  138.9300 C   0  0  0  0  0  2  0  0  0  0  0  0
  188.9370  173.1730  137.2830 S   0  0  0  0  0  0  0  0  0  0  0  0
  190.5670  173.9510  137.1350 C   0  0  0  0  0  1  0  0  0  0  0  0
  193.1360  175.3240  145.8700 C   0  0  0  0  0  2  0  0  0  0  0  0
  193.0630  176.5860  145.0190 C   0  0  0  0  0  2  0  0  0  0  0  0
  194.1420  174.9390  143.4840 C   0  0  0  0  0  1  0  0  0  0  0  0
  193.7600  176.3930  143.6820 C   0  0  0  0  0  2  0  0  0  0  0  0
  189.0180  177.5090  143.8550 O   0  0  0  0  0  0  0  0  0  0  0  0
  188.0280  177.3100  142.8840 C   0  0  0  0  0  2  0  0  0  0  0  0
  185.5710  178.4130  142.2910 S   0  0  0  0  0  0  0  0  0  0  0  0
  186.6420  177.5240  143.4740 C   0  0  2  0  0  3  0  0  0  0  0  0
  186.7320  178.2830  144.7930 C   0  0  0  0  0  2  0  0  0  0  0  0
  185.5230  178.9700  146.8430 C   0  0  0  0  0  1  0  0  0  0  0  0
  184.3350  179.0200  144.6680 C   0  0  0  0  0  2  0  0  0  0  0  0
  185.3820  178.2880  145.4980 C   0  0  1  0  0  3  0  0  0  0  0  0
  184.0980  178.2910  143.3540 C   0  0  0  0  0  2  0  0  0  0  0  0
  1  5  1  0  0  0  0
  1 13  1  0  0  0  0
  1  9  1  1  0  0  0
  2 12  1  0  0  0  0
  2 15  1  0  0  0  0
  3 25  1  6  0  0  0
  3  7  1  0  0  0  0
  4  6  1  6  0  0  0
  4  1  1  0  0  0  0
  5  3  1  0  0  0  0
  6 29  1  0  0  0  0
  7 10  1  0  0  0  0
  8  5  1  0  0  0  0
 11  8  1  0  0  0  0
 12  6  1  0  0  0  0
 13  9  1  0  0  0  0
 13 10  1  0  0  0  0
 14  4  1  0  0  0  0
 14 11  1  0  0  0  0
 14  8  1  0  0  0  0
 15 14  1  0  0  0  0
 16 15  1  0  0  0  0
 17 16  1  0  0  0  0
 18 17  1  0  0  0  0
 20 19  1  0  0  0  0
 20 18  1  0  0  0  0
 21 17  1  0  0  0  0
 22 21  1  0  0  0  0
 23 22  1  0  0  0  0
 24 23  1  0  0  0  0
 26 25  1  0  0  0  0
 27 28  1  0  0  0  0
 28 26  1  0  0  0  0
 30 32  1  0  0  0  0
 30 29  1  0  0  0  0
 31 37  1  0  0  0  0
 31 32  1  0  0  0  0
 32 33  1  0  0  0  0
 33 36  1  0  0  0  0
 35 36  1  0  0  0  0
 36 34  1  0  0  0  0
 37 35  1  0  0  0  0
M  END
>  <MODEL>
2

>  <REMARK>
 VINA RESULT:      -6.3      1.752      6.467
  Name = 
  13 active torsions:
  status: ('A' for Active; 'I' for Inactive)
    1  A    between atoms: O_1  and  C_33
    2  A    between atoms: O_1  and  C_36
    3  A    between atoms: C_3  and  C_30
    4  A    between atoms: C_3  and  C_32
    5  A    between atoms: C_5  and  C_23
    6  A    between atoms: C_5  and  C_33
    7  A    between atoms: C_6  and  C_31
    8  A    between atoms: C_9  and  C_30
    9  A    between atoms: S_11  and  C_26
   10  A    between atoms: N_14  and  O_37
   11  A    between atoms: C_17  and  C_26
   12  A    between atoms: C_17  and  C_33
   13  A    between atoms: C_31  and  O_37
                            x       y       z     vdW  Elec       q    Type
                         _______ _______ _______ _____ _____    ______ ____

>  <TORSDO>
F 13

$$$$
=
 OpenBabel11052420013D

 37 42  0  0  1  0  0  0  0  0999 V2000
  189.8500  175.3310  145.9970 C   0  0  2  0  0  0  0  0  0  0  0  0
  190.5160  175.1840  141.8950 C   0  0  0  0  0  2  0  0  0  0  0  0
  192.2970  175.1210  146.6140 C   0  0  2  0  0  3  0  0  0  0  0  0
  189.3030  175.2590  144.5870 C   0  0  1  0  0  3  0  0  0  0  0  0
  190.9880  174.3630  146.2430 C   0  0  2  0  0  3  0  0  0  0  0  0
  189.6890  176.4570  143.8210 N   0  0  0  0  0  0  0  0  0  0  0  0
  192.0070  176.4920  147.2530 C   0  0  0  0  0  2  0  0  0  0  0  0
  191.0700  173.5080  144.9730 C   0  0  1  0  0  3  0  0  0  0  0  0
  188.7990  175.3980  147.0760 C   0  0  0  0  0  2  0  0  0  0  0  0
  190.7560  176.5010  147.8980 O   0  0  0  0  0  0  0  0  0  0  0  0
  189.8400  172.8360  144.7690 O   0  0  0  0  0  0  0  0  0  0  0  0
  189.4980  176.2100  142.3880 C   0  0  0  0  0  2  0  0  0  0  0  0
  189.7710  176.5620  146.8900 C   0  0  1  0  0  3  0  0  0  0  0  0
  190.0370  174.0240  144.0440 C   0  0  1  0  0  0  0  0  0  0  0  0
  190.2640  173.8260  142.5510 C   0  0  1  0  0  3  0  0  0  0  0  0
  189.1370  173.2250  141.9790 O   0  0  0  0  0  0  0  0  0  0  0  0
  189.6270  172.1360  141.2470 C   0  0  1  0  0  3  0  0  0  0  0  0
  189.6300  172.4520  139.7580 C   0  0  0  0  0  2  0  0  0  0  0  0
  188.2750  174.1740  138.6110 C   0  0  0  0  0  1  0  0  0  0  0  0
  188.2350  172.8240  139.2950 C   0  0  0  0  0  2  0  0  0  0  0  0
  191.0290  171.7600  141.7220 C   0  0  0  0  0  2  0  0  0  0  0  0
  191.0970  170.3240  142.2140 C   0  0  0  0  0  2  0  0  0  0  0  0
  192.5240  170.1300  143.3160 S   0  0  0  0  0  0  0  0  0  0  0  0
  193.3420  171.5920  142.6210 C   0  0  0  0  0  1  0  0  0  0  0  0
  193.2570  175.3370  145.4470 C   0  0  0  0  0  2  0  0  0  0  0  0
  194.6120  175.8460  145.9240 C   0  0  0  0  0  2  0  0  0  0  0  0
  195.3550  173.6800  144.9260 C   0  0  0  0  0  1  0  0  0  0  0  0
  195.6320  174.7200  145.9950 C   0  0  0  0  0  2  0  0  0  0  0  0
  188.8210  177.4450  144.1540 O   0  0  0  0  0  0  0  0  0  0  0  0
  187.7630  177.3210  143.2430 C   0  0  0  0  0  2  0  0  0  0  0  0
  185.5200  178.9160  143.0830 S   0  0  0  0  0  0  0  0  0  0  0  0
  186.4290  177.5760  143.9280 C   0  0  2  0  0  3  0  0  0  0  0  0
  186.6360  177.9120  145.4000 C   0  0  0  0  0  2  0  0  0  0  0  0
  185.5480  178.1800  147.6100 C   0  0  0  0  0  1  0  0  0  0  0  0
  184.3910  179.0200  145.5850 C   0  0  0  0  0  2  0  0  0  0  0  0
  185.3030  177.9310  146.1360 C   0  0  1  0  0  3  0  0  0  0  0  0
  184.0430  178.7340  144.1320 C   0  0  0  0  0  2  0  0  0  0  0  0
  1  5  1  0  0  0  0
  1 13  1  0  0  0  0
  1  9  1  1  0  0  0
  2 12  1  0  0  0  0
  2 15  1  0  0  0  0
  3 25  1  6  0  0  0
  3  7  1  0  0  0  0
  4  6  1  6  0  0  0
  4  1  1  0  0  0  0
  5  3  1  0  0  0  0
  6 29  1  0  0  0  0
  7 10  1  0  0  0  0
  8  5  1  0  0  0  0
 11  8  1  0  0  0  0
 12  6  1  0  0  0  0
 13  9  1  0  0  0  0
 13 10  1  0  0  0  0
 14  4  1  0  0  0  0
 14 11  1  0  0  0  0
 14  8  1  0  0  0  0
 15 14  1  0  0  0  0
 16 15  1  0  0  0  0
 17 21  1  0  0  0  0
 17 16  1  0  0  0  0
 18 17  1  0  0  0  0
 19 20  1  0  0  0  0
 20 18  1  0  0  0  0
 21 22  1  0  0  0  0
 22 23  1  0  0  0  0
 24 23  1  0  0  0  0
 25 26  1  0  0  0  0
 26 28  1  0  0  0  0
 27 28  1  0  0  0  0
 30 32  1  0  0  0  0
 30 29  1  0  0  0  0
 31 32  1  0  0  0  0
 31 37  1  0  0  0  0
 32 33  1  0  0  0  0
 33 36  1  0  0  0  0
 35 36  1  0  0  0  0
 36 34  1  0  0  0  0
 37 35  1  0  0  0  0
M  END
>  <MODEL>
3

>  <REMARK>
 VINA RESULT:      -6.3      1.856      6.697
  Name = 
  13 active torsions:
  status: ('A' for Active; 'I' for Inactive)
    1  A    between atoms: O_1  and  C_33
    2  A    between atoms: O_1  and  C_36
    3  A    between atoms: C_3  and  C_30
    4  A    between atoms: C_3  and  C_32
    5  A    between atoms: C_5  and  C_23
    6  A    between atoms: C_5  and  C_33
    7  A    between atoms: C_6  and  C_31
    8  A    between atoms: C_9  and  C_30
    9  A    between atoms: S_11  and  C_26
   10  A    between atoms: N_14  and  O_37
   11  A    between atoms: C_17  and  C_26
   12  A    between atoms: C_17  and  C_33
   13  A    between atoms: C_31  and  O_37
                            x       y       z     vdW  Elec       q    Type
                         _______ _______ _______ _____ _____    ______ ____

>  <TORSDO>
F 13

$$$$
=
 OpenBabel11052420013D

 37 42  0  0  1  0  0  0  0  0999 V2000
  192.9730  175.6700  143.1430 C   0  0  2  0  0  0  0  0  0  0  0  0
  189.3620  174.7730  144.9970 C   0  0  0  0  0  2  0  0  0  0  0  0
  193.9270  176.9150  145.1310 C   0  0  2  0  0  3  0  0  0  0  0  0
  191.5710  175.1050  143.0660 C   0  0  1  0  0  3  0  0  0  0  0  0
  193.0380  177.0050  143.8560 C   0  0  2  0  0  3  0  0  0  0  0  0
  191.4290  173.9490  143.9680 N   0  0  0  0  0  0  0  0  0  0  0  0
  194.9820  175.7980  145.0210 C   0  0  0  0  0  2  0  0  0  0  0  0
  191.5770  177.3970  144.1070 C   0  0  1  0  0  3  0  0  0  0  0  0
  193.7620  175.5710  141.8610 C   0  0  0  0  0  2  0  0  0  0  0  0
  195.3190  175.5450  143.6770 O   0  0  0  0  0  0  0  0  0  0  0  0
  190.8880  177.4910  142.8730 O   0  0  0  0  0  0  0  0  0  0  0  0
  190.0070  173.6580  144.1780 C   0  0  0  0  0  2  0  0  0  0  0  0
  194.2430  174.8310  143.1090 C   0  0  1  0  0  3  0  0  0  0  0  0
  190.7420  176.2880  143.5880 C   0  0  1  0  0  0  0  0  0  0  0  0
  189.3680  176.0840  144.2110 C   0  0  1  0  0  3  0  0  0  0  0  0
  188.3970  176.0380  143.2040 O   0  0  0  0  0  0  0  0  0  0  0  0
  187.2260  176.5320  143.7950 C   0  0  1  0  0  3  0  0  0  0  0  0
  187.4620  177.9220  144.3670 C   0  0  0  0  0  2  0  0  0  0  0  0
  186.3270  176.7110  146.2010 C   0  0  0  0  0  1  0  0  0  0  0  0
  187.1220  177.9490  145.8450 C   0  0  0  0  0  2  0  0  0  0  0  0
  186.0840  176.5520  142.7820 C   0  0  0  0  0  2  0  0  0  0  0  0
  185.3930  177.9050  142.7290 C   0  0  0  0  0  2  0  0  0  0  0  0
  184.7670  178.1980  141.0520 S   0  0  0  0  0  0  0  0  0  0  0  0
  186.2860  177.5520  140.3020 C   0  0  0  0  0  1  0  0  0  0  0  0
  193.1520  176.7050  146.4300 C   0  0  0  0  0  2  0  0  0  0  0  0
  192.9310  175.2240  146.7170 C   0  0  0  0  0  2  0  0  0  0  0  0
  191.0220  176.3270  147.8890 C   0  0  0  0  0  1  0  0  0  0  0  0
  191.6870  175.0040  147.5630 C   0  0  0  0  0  2  0  0  0  0  0  0
  191.9460  172.8710  143.3250 O   0  0  0  0  0  0  0  0  0  0  0  0
  192.1590  171.9180  144.3300 C   0  0  0  0  0  2  0  0  0  0  0  0
  193.6230  169.5890  144.5190 S   0  0  0  0  0  0  0  0  0  0  0  0
  193.5890  171.4010  144.2880 C   0  0  2  0  0  3  0  0  0  0  0  0
  194.4420  172.0940  145.3460 C   0  0  0  0  0  2  0  0  0  0  0  0
  196.7420  172.5260  146.1570 C   0  0  0  0  0  1  0  0  0  0  0  0
  196.1610  170.2640  145.3290 C   0  0  0  0  0  2  0  0  0  0  0  0
  195.9140  171.7570  145.1490 C   0  0  1  0  0  3  0  0  0  0  0  0
  195.4220  169.4720  144.2600 C   0  0  0  0  0  2  0  0  0  0  0  0
  1  9  1  6  0  0  0
  1  5  1  0  0  0  0
  3 25  1  1  0  0  0
  4  1  1  0  0  0  0
  4 14  1  0  0  0  0
  4  6  1  1  0  0  0
  5  8  1  0  0  0  0
  5  3  1  0  0  0  0
  6 12  1  0  0  0  0
  7  3  1  0  0  0  0
  9 13  1  0  0  0  0
 10  7  1  0  0  0  0
 11 14  1  0  0  0  0
 11  8  1  0  0  0  0
 12  2  1  0  0  0  0
 13  1  1  0  0  0  0
 13 10  1  0  0  0  0
 14  8  1  0  0  0  0
 14 15  1  0  0  0  0
 15  2  1  0  0  0  0
 16 17  1  0  0  0  0
 16 15  1  0  0  0  0
 17 18  1  0  0  0  0
 18 20  1  0  0  0  0
 20 19  1  0  0  0  0
 21 17  1  0  0  0  0
 22 21  1  0  0  0  0
 23 22  1  0  0  0  0
 24 23  1  0  0  0  0
 25 26  1  0  0  0  0
 26 28  1  0  0  0  0
 28 27  1  0  0  0  0
 29  6  1  0  0  0  0
 29 30  1  0  0  0  0
 32 30  1  0  0  0  0
 32 31  1  0  0  0  0
 32 33  1  0  0  0  0
 36 35  1  0  0  0  0
 36 33  1  0  0  0  0
 36 34  1  0  0  0  0
 37 31  1  0  0  0  0
 37 35  1  0  0  0  0
M  END
>  <MODEL>
4

>  <REMARK>
 VINA RESULT:      -6.2      2.295      3.839
  Name = 
  13 active torsions:
  status: ('A' for Active; 'I' for Inactive)
    1  A    between atoms: O_1  and  C_33
    2  A    between atoms: O_1  and  C_36
    3  A    between atoms: C_3  and  C_30
    4  A    between atoms: C_3  and  C_32
    5  A    between atoms: C_5  and  C_23
    6  A    between atoms: C_5  and  C_33
    7  A    between atoms: C_6  and  C_31
    8  A    between atoms: C_9  and  C_30
    9  A    between atoms: S_11  and  C_26
   10  A    between atoms: N_14  and  O_37
   11  A    between atoms: C_17  and  C_26
   12  A    between atoms: C_17  and  C_33
   13  A    between atoms: C_31  and  O_37
                            x       y       z     vdW  Elec       q    Type
                         _______ _______ _______ _____ _____    ______ ____

>  <TORSDO>
F 13

$$$$
=
 OpenBabel11052420013D

 37 42  0  0  1  0  0  0  0  0999 V2000
  192.5090  175.3580  143.0640 C   0  0  2  0  0  0  0  0  0  0  0  0
  189.0120  175.2880  145.3120 C   0  0  0  0  0  2  0  0  0  0  0  0
  193.8680  176.5660  144.8260 C   0  0  2  0  0  3  0  0  0  0  0  0
  191.0300  175.0540  143.1680 C   0  0  1  0  0  3  0  0  0  0  0  0
  192.8790  176.7120  143.6320 C   0  0  2  0  0  3  0  0  0  0  0  0
  190.7850  174.0200  144.1890 N   0  0  0  0  0  0  0  0  0  0  0  0
  194.6960  175.2700  144.7330 C   0  0  0  0  0  2  0  0  0  0  0  0
  191.5430  177.3830  143.9730 C   0  0  1  0  0  3  0  0  0  0  0  0
  193.1290  175.0130  141.7320 C   0  0  0  0  0  2  0  0  0  0  0  0
  194.8400  174.8520  143.3960 O   0  0  0  0  0  0  0  0  0  0  0  0
  190.7540  177.5000  142.8020 O   0  0  0  0  0  0  0  0  0  0  0  0
  189.3650  174.0110  144.5520 C   0  0  0  0  0  2  0  0  0  0  0  0
  193.6040  174.3010  143.0000 C   0  0  1  0  0  3  0  0  0  0  0  0
  190.4780  176.4070  143.6420 C   0  0  1  0  0  0  0  0  0  0  0  0
  189.1630  176.5070  144.4020 C   0  0  1  0  0  3  0  0  0  0  0  0
  188.0970  176.5570  143.4960 O   0  0  0  0  0  0  0  0  0  0  0  0
  187.4020  177.7340  143.8040 C   0  0  1  0  0  3  0  0  0  0  0  0
  187.1400  178.5450  142.5430 C   0  0  0  0  0  2  0  0  0  0  0  0
  186.3050  177.5560  140.4350 C   0  0  0  0  0  1  0  0  0  0  0  0
  187.5240  177.7460  141.3130 C   0  0  0  0  0  2  0  0  0  0  0  0
  186.0930  177.4100  144.5190 C   0  0  0  0  0  2  0  0  0  0  0  0
  185.4280  178.6550  145.0830 C   0  0  0  0  0  2  0  0  0  0  0  0
  184.5160  178.2240  146.5890 S   0  0  0  0  0  0  0  0  0  0  0  0
  186.0300  177.6830  147.4290 C   0  0  0  0  0  1  0  0  0  0  0  0
  193.2090  176.6070  146.2030 C   0  0  0  0  0  2  0  0  0  0  0  0
  192.8120  175.2130  146.6750 C   0  0  0  0  0  2  0  0  0  0  0  0
  191.2310  176.7070  147.9030 C   0  0  0  0  0  1  0  0  0  0  0  0
  191.6830  175.2740  147.6920 C   0  0  0  0  0  2  0  0  0  0  0  0
  191.0370  172.8180  143.6120 O   0  0  0  0  0  0  0  0  0  0  0  0
  189.7820  172.3350  143.2170 C   0  0  0  0  0  2  0  0  0  0  0  0
  191.5290  171.4960  141.2550 S   0  0  0  0  0  0  0  0  0  0  0  0
  189.8160  171.8640  141.7700 C   0  0  2  0  0  3  0  0  0  0  0  0
  189.1900  172.9080  140.8510 C   0  0  0  0  0  2  0  0  0  0  0  0
  188.3050  173.3680  138.5840 C   0  0  0  0  0  1  0  0  0  0  0  0
  190.3490  171.9880  138.8230 C   0  0  0  0  0  2  0  0  0  0  0  0
  189.0060  172.3420  139.4490 C   0  0  1  0  0  3  0  0  0  0  0  0
  191.0280  170.8810  139.6160 C   0  0  0  0  0  2  0  0  0  0  0  0
  1  9  1  6  0  0  0
  1  4  1  0  0  0  0
  1  5  1  0  0  0  0
  3 25  1  1  0  0  0
  4 14  1  0  0  0  0
  4  6  1  1  0  0  0
  5  8  1  0  0  0  0
  5  3  1  0  0  0  0
  6 12  1  0  0  0  0
  7  3  1  0  0  0  0
  9 13  1  0  0  0  0
 10  7  1  0  0  0  0
 11 14  1  0  0  0  0
 11  8  1  0  0  0  0
 12  2  1  0  0  0  0
 13  1  1  0  0  0  0
 13 10  1  0  0  0  0
 14  8  1  0  0  0  0
 14 15  1  0  0  0  0
 15  2  1  0  0  0  0
 16 17  1  0  0  0  0
 16 15  1  0  0  0  0
 17 21  1  0  0  0  0
 18 17  1  0  0  0  0
 19 20  1  0  0  0  0
 20 18  1  0  0  0  0
 21 22  1  0  0  0  0
 22 23  1  0  0  0  0
 23 24  1  0  0  0  0
 25 26  1  0  0  0  0
 26 28  1  0  0  0  0
 28 27  1  0  0  0  0
 29  6  1  0  0  0  0
 30 29  1  0  0  0  0
 31 32  1  0  0  0  0
 32 30  1  0  0  0  0
 33 32  1  0  0  0  0
 34 36  1  0  0  0  0
 35 36  1  0  0  0  0
 35 37  1  0  0  0  0
 36 33  1  0  0  0  0
 37 31  1  0  0  0  0
M  END
>  <MODEL>
5

>  <REMARK>
 VINA RESULT:      -6.2      1.306      2.123
  Name = 
  13 active torsions:
  status: ('A' for Active; 'I' for Inactive)
    1  A    between atoms: O_1  and  C_33
    2  A    between atoms: O_1  and  C_36
    3  A    between atoms: C_3  and  C_30
    4  A    between atoms: C_3  and  C_32
    5  A    between atoms: C_5  and  C_23
    6  A    between atoms: C_5  and  C_33
    7  A    between atoms: C_6  and  C_31
    8  A    between atoms: C_9  and  C_30
    9  A    between atoms: S_11  and  C_26
   10  A    between atoms: N_14  and  O_37
   11  A    between atoms: C_17  and  C_26
   12  A    between atoms: C_17  and  C_33
   13  A    between atoms: C_31  and  O_37
                            x       y       z     vdW  Elec       q    Type
                         _______ _______ _______ _____ _____    ______ ____

>  <TORSDO>
F 13

$$$$
=
 OpenBabel11052420013D

 37 42  0  0  1  0  0  0  0  0999 V2000
  190.1440  174.9660  146.0600 C   0  0  2  0  0  0  0  0  0  0  0  0
  190.6440  175.2200  141.9400 C   0  0  0  0  0  2  0  0  0  0  0  0
  192.5960  175.3050  146.5910 C   0  0  2  0  0  3  0  0  0  0  0  0
  189.5670  174.8490  144.6650 C   0  0  1  0  0  3  0  0  0  0  0  0
  191.4870  174.2810  146.2080 C   0  0  2  0  0  3  0  0  0  0  0  0
  189.6280  176.1470  143.9700 N   0  0  0  0  0  0  0  0  0  0  0  0
  192.0210  176.5290  147.3280 C   0  0  0  0  0  2  0  0  0  0  0  0
  191.7100  173.5460  144.8810 C   0  0  1  0  0  3  0  0  0  0  0  0
  189.1550  174.7180  147.1720 C   0  0  0  0  0  2  0  0  0  0  0  0
  190.8330  176.2030  148.0090 O   0  0  0  0  0  0  0  0  0  0  0  0
  190.6640  172.6140  144.6680 O   0  0  0  0  0  0  0  0  0  0  0  0
  189.4370  175.9450  142.5300 C   0  0  0  0  0  2  0  0  0  0  0  0
  189.8180  176.0890  147.0360 C   0  0  1  0  0  3  0  0  0  0  0  0
  190.5460  173.8570  144.0190 C   0  0  1  0  0  0  0  0  0  0  0  0
  190.7460  173.8050  142.5110 C   0  0  1  0  0  3  0  0  0  0  0  0
  189.7670  172.9890  141.9330 O   0  0  0  0  0  0  0  0  0  0  0  0
  190.4700  172.0600  141.1530 C   0  0  1  0  0  3  0  0  0  0  0  0
  190.4240  170.6810  141.7950 C   0  0  0  0  0  2  0  0  0  0  0  0
  192.8740  170.9830  141.9440 C   0  0  0  0  0  1  0  0  0  0  0  0
  191.7660  169.9910  141.6590 C   0  0  0  0  0  2  0  0  0  0  0  0
  189.9050  172.0160  139.7360 C   0  0  0  0  0  2  0  0  0  0  0  0
  190.5440  173.0610  138.8350 C   0  0  0  0  0  2  0  0  0  0  0  0
  192.2390  172.5590  138.4350 S   0  0  0  0  0  0  0  0  0  0  0  0
  192.9280  174.0700  139.1630 C   0  0  0  0  0  1  0  0  0  0  0  0
  193.4260  175.8100  145.4130 C   0  0  0  0  0  2  0  0  0  0  0  0
  194.8790  176.0440  145.8110 C   0  0  0  0  0  2  0  0  0  0  0  0
  195.4180  174.0420  144.4200 C   0  0  0  0  0  1  0  0  0  0  0  0
  195.6890  174.7600  145.7280 C   0  0  0  0  0  2  0  0  0  0  0  0
  188.5680  176.8800  144.3940 O   0  0  0  0  0  0  0  0  0  0  0  0
  187.4710  176.3790  143.6800 C   0  0  0  0  0  2  0  0  0  0  0  0
  185.6650  178.3780  143.0950 S   0  0  0  0  0  0  0  0  0  0  0  0
  186.1740  176.9980  144.1780 C   0  0  2  0  0  3  0  0  0  0  0  0
  186.3240  177.4720  145.6190 C   0  0  0  0  0  2  0  0  0  0  0  0
  185.1370  178.2510  147.6490 C   0  0  0  0  0  1  0  0  0  0  0  0
  184.3770  179.0460  145.4280 C   0  0  0  0  0  2  0  0  0  0  0  0
  184.9700  177.8700  146.1930 C   0  0  1  0  0  3  0  0  0  0  0  0
  184.0990  178.6530  143.9850 C   0  0  0  0  0  2  0  0  0  0  0  0
  1  5  1  0  0  0  0
  1 13  1  0  0  0  0
  1  9  1  1  0  0  0
  2 15  1  0  0  0  0
  2 12  1  0  0  0  0
  3 25  1  6  0  0  0
  3  7  1  0  0  0  0
  4  6  1  6  0  0  0
  4  1  1  0  0  0  0
  5  3  1  0  0  0  0
  6 29  1  0  0  0  0
  7 10  1  0  0  0  0
  8  5  1  0  0  0  0
 11  8  1  0  0  0  0
 12  6  1  0  0  0  0
 13  9  1  0  0  0  0
 13 10  1  0  0  0  0
 14  4  1  0  0  0  0
 14 11  1  0  0  0  0
 14  8  1  0  0  0  0
 15 14  1  0  0  0  0
 16 15  1  0  0  0  0
 17 18  1  0  0  0  0
 17 16  1  0  0  0  0
 20 18  1  0  0  0  0
 20 19  1  0  0  0  0
 21 17  1  0  0  0  0
 22 21  1  0  0  0  0
 23 22  1  0  0  0  0
 23 24  1  0  0  0  0
 25 26  1  0  0  0  0
 27 28  1  0  0  0  0
 28 26  1  0  0  0  0
 30 32  1  0  0  0  0
 30 29  1  0  0  0  0
 31 37  1  0  0  0  0
 31 32  1  0  0  0  0
 32 33  1  0  0  0  0
 33 36  1  0  0  0  0
 35 36  1  0  0  0  0
 36 34  1  0  0  0  0
 37 35  1  0  0  0  0
M  END
>  <MODEL>
6

>  <REMARK>
 VINA RESULT:      -6.1      1.962      6.738
  Name = 
  13 active torsions:
  status: ('A' for Active; 'I' for Inactive)
    1  A    between atoms: O_1  and  C_33
    2  A    between atoms: O_1  and  C_36
    3  A    between atoms: C_3  and  C_30
    4  A    between atoms: C_3  and  C_32
    5  A    between atoms: C_5  and  C_23
    6  A    between atoms: C_5  and  C_33
    7  A    between atoms: C_6  and  C_31
    8  A    between atoms: C_9  and  C_30
    9  A    between atoms: S_11  and  C_26
   10  A    between atoms: N_14  and  O_37
   11  A    between atoms: C_17  and  C_26
   12  A    between atoms: C_17  and  C_33
   13  A    between atoms: C_31  and  O_37
                            x       y       z     vdW  Elec       q    Type
                         _______ _______ _______ _____ _____    ______ ____

>  <TORSDO>
F 13

$$$$
=
 OpenBabel11052420013D

 37 42  0  0  1  0  0  0  0  0999 V2000
  189.1460  174.1010  142.6870 C   0  0  2  0  0  0  0  0  0  0  0  0
  188.8430  178.2040  142.0860 C   0  0  0  0  0  2  0  0  0  0  0  0
  188.2640  173.4870  140.3950 C   0  0  2  0  0  3  0  0  0  0  0  0
  189.2360  175.5100  143.2320 C   0  0  1  0  0  3  0  0  0  0  0  0
  187.8990  173.8600  141.8620 C   0  0  2  0  0  3  0  0  0  0  0  0
  190.2850  176.2700  142.5300 N   0  0  0  0  0  0  0  0  0  0  0  0
  189.6580  172.8400  140.2950 C   0  0  0  0  0  2  0  0  0  0  0  0
  187.0620  175.1360  142.0190 C   0  0  1  0  0  3  0  0  0  0  0  0
  189.4940  173.0200  143.6800 C   0  0  0  0  0  2  0  0  0  0  0  0
  190.0080  172.1940  141.4950 O   0  0  0  0  0  0  0  0  0  0  0  0
  186.7570  175.3430  143.3870 O   0  0  0  0  0  0  0  0  0  0  0  0
  190.1080  177.7040  142.7810 C   0  0  0  0  0  2  0  0  0  0  0  0
  190.3460  173.2010  142.4230 C   0  0  1  0  0  3  0  0  0  0  0  0
  187.8490  176.0610  142.8680 C   0  0  1  0  0  0  0  0  0  0  0  0
  187.6050  177.5550  142.7040 C   0  0  1  0  0  3  0  0  0  0  0  0
  187.3420  178.1290  143.9530 O   0  0  0  0  0  0  0  0  0  0  0  0
  185.9530  178.3150  143.9930 C   0  0  1  0  0  3  0  0  0  0  0  0
  185.5790  179.3170  145.0750 C   0  0  0  0  0  2  0  0  0  0  0  0
  185.1360  177.3260  146.4750 C   0  0  0  0  0  1  0  0  0  0  0  0
  185.7650  178.7040  146.4490 C   0  0  0  0  0  2  0  0  0  0  0  0
  185.4370  178.7720  142.6310 C   0  0  0  0  0  2  0  0  0  0  0  0
  184.0070  178.3200  142.3820 C   0  0  0  0  0  2  0  0  0  0  0  0
  183.6830  178.2930  140.5990 S   0  0  0  0  0  0  0  0  0  0  0  0
  181.9030  178.0630  140.8590 C   0  0  0  0  0  1  0  0  0  0  0  0
  188.2130  174.6540  139.4120 C   0  0  0  0  0  2  0  0  0  0  0  0
  188.1590  174.1680  137.9690 C   0  0  0  0  0  2  0  0  0  0  0  0
  186.6930  176.1870  137.8740 C   0  0  0  0  0  1  0  0  0  0  0  0
  187.5080  175.2000  137.0610 C   0  0  0  0  0  2  0  0  0  0  0  0
  191.4720  175.9300  143.0910 O   0  0  0  0  0  0  0  0  0  0  0  0
  191.3470  176.2770  144.4430 C   0  0  0  0  0  2  0  0  0  0  0  0
  193.9700  176.7920  145.1190 S   0  0  0  0  0  0  0  0  0  0  0  0
  192.5030  175.7120  145.2550 C   0  0  2  0  0  3  0  0  0  0  0  0
  192.8340  174.2950  144.8030 C   0  0  0  0  0  2  0  0  0  0  0  0
  194.0640  172.2120  145.3400 C   0  0  0  0  0  1  0  0  0  0  0  0
  195.1460  174.3980  145.7770 C   0  0  0  0  0  2  0  0  0  0  0  0
  193.8210  173.6450  145.7640 C   0  0  1  0  0  3  0  0  0  0  0  0
  194.9460  175.8120  146.3030 C   0  0  0  0  0  2  0  0  0  0  0  0
  1  4  1  0  0  0  0
  1  9  1  1  0  0  0
  2 15  1  0  0  0  0
  2 12  1  0  0  0  0
  3 25  1  6  0  0  0
  3  5  1  0  0  0  0
  4  6  1  6  0  0  0
  5  8  1  0  0  0  0
  5  1  1  0  0  0  0
  6 12  1  0  0  0  0
  6 29  1  0  0  0  0
  7  3  1  0  0  0  0
  7 10  1  0  0  0  0
  8 14  1  0  0  0  0
  8 11  1  0  0  0  0
 10 13  1  0  0  0  0
 13  1  1  0  0  0  0
 13  9  1  0  0  0  0
 14  4  1  0  0  0  0
 14 11  1  0  0  0  0
 15 14  1  0  0  0  0
 15 16  1  0  0  0  0
 16 17  1  0  0  0  0
 17 18  1  0  0  0  0
 18 20  1  0  0  0  0
 20 19  1  0  0  0  0
 21 17  1  0  0  0  0
 22 21  1  0  0  0  0
 23 24  1  0  0  0  0
 23 22  1  0  0  0  0
 26 25  1  0  0  0  0
 28 27  1  0  0  0  0
 28 26  1  0  0  0  0
 29 30  1  0  0  0  0
 30 32  1  0  0  0  0
 31 32  1  0  0  0  0
 31 37  1  0  0  0  0
 33 32  1  0  0  0  0
 33 36  1  0  0  0  0
 34 36  1  0  0  0  0
 35 37  1  0  0  0  0
 36 35  1  0  0  0  0
M  END
>  <MODEL>
7

>  <REMARK>
 VINA RESULT:      -5.9      2.126      5.832
  Name = 
  13 active torsions:
  status: ('A' for Active; 'I' for Inactive)
    1  A    between atoms: O_1  and  C_33
    2  A    between atoms: O_1  and  C_36
    3  A    between atoms: C_3  and  C_30
    4  A    between atoms: C_3  and  C_32
    5  A    between atoms: C_5  and  C_23
    6  A    between atoms: C_5  and  C_33
    7  A    between atoms: C_6  and  C_31
    8  A    between atoms: C_9  and  C_30
    9  A    between atoms: S_11  and  C_26
   10  A    between atoms: N_14  and  O_37
   11  A    between atoms: C_17  and  C_26
   12  A    between atoms: C_17  and  C_33
   13  A    between atoms: C_31  and  O_37
                            x       y       z     vdW  Elec       q    Type
                         _______ _______ _______ _____ _____    ______ ____

>  <TORSDO>
F 13

$$$$
=
 OpenBabel11052420013D

 37 42  0  0  1  0  0  0  0  0999 V2000
  191.5960  176.1040  145.3090 C   0  0  2  0  0  0  0  0  0  0  0  0
  189.3140  173.1640  143.4560 C   0  0  0  0  0  2  0  0  0  0  0  0
  189.7090  176.9440  146.7730 C   0  0  2  0  0  3  0  0  0  0  0  0
  191.4600  175.0320  144.2490 C   0  0  1  0  0  3  0  0  0  0  0  0
  190.3990  177.0280  145.3790 C   0  0  2  0  0  3  0  0  0  0  0  0
  191.2390  173.7140  144.8710 N   0  0  0  0  0  0  0  0  0  0  0  0
  190.6910  176.5100  147.8770 C   0  0  0  0  0  2  0  0  0  0  0  0
  189.5150  176.6290  144.1920 C   0  0  1  0  0  3  0  0  0  0  0  0
  192.9470  176.7750  145.3540 C   0  0  0  0  0  2  0  0  0  0  0  0
  192.0140  176.8710  147.5540 O   0  0  0  0  0  0  0  0  0  0  0  0
  190.2360  176.7910  142.9830 O   0  0  0  0  0  0  0  0  0  0  0  0
  190.7310  172.7730  143.8670 C   0  0  0  0  0  2  0  0  0  0  0  0
  192.4560  175.9730  146.5600 C   0  0  1  0  0  3  0  0  0  0  0  0
  190.1880  175.4920  143.5200 C   0  0  1  0  0  0  0  0  0  0  0  0
  189.3210  174.5150  142.7390 C   0  0  1  0  0  3  0  0  0  0  0  0
  189.8300  174.3630  141.4450 O   0  0  0  0  0  0  0  0  0  0  0  0
  188.7330  174.5390  140.5910 C   0  0  1  0  0  3  0  0  0  0  0  0
  188.1950  173.1920  140.1280 C   0  0  0  0  0  2  0  0  0  0  0  0
  188.1950  174.1680  137.8550 C   0  0  0  0  0  1  0  0  0  0  0  0
  188.5590  172.9490  138.6770 C   0  0  0  0  0  2  0  0  0  0  0  0
  187.6400  175.3480  141.2850 C   0  0  0  0  0  2  0  0  0  0  0  0
  187.4040  176.6870  140.6040 C   0  0  0  0  0  2  0  0  0  0  0  0
  186.6860  177.8510  141.7940 S   0  0  0  0  0  0  0  0  0  0  0  0
  185.3420  178.2860  140.6580 C   0  0  0  0  0  1  0  0  0  0  0  0
  188.4990  176.0140  146.8260 C   0  0  0  0  0  2  0  0  0  0  0  0
  187.2220  176.7760  147.1590 C   0  0  0  0  0  2  0  0  0  0  0  0
  184.9840  177.5240  146.3410 C   0  0  0  0  0  1  0  0  0  0  0  0
  186.2620  176.7910  145.9800 C   0  0  0  0  0  2  0  0  0  0  0  0
  192.4520  173.2420  145.2540 O   0  0  0  0  0  0  0  0  0  0  0  0
  192.7340  172.1990  144.3620 C   0  0  0  0  0  2  0  0  0  0  0  0
  194.3370  170.0560  145.0230 S   0  0  0  0  0  0  0  0  0  0  0  0
  194.1950  171.7860  144.4570 C   0  0  2  0  0  3  0  0  0  0  0  0
  194.9570  172.7220  145.3880 C   0  0  0  0  0  2  0  0  0  0  0  0
  197.1910  173.4600  146.1650 C   0  0  0  0  0  1  0  0  0  0  0  0
  196.7910  171.0480  145.7610 C   0  0  0  0  0  2  0  0  0  0  0  0
  196.4550  172.4600  145.2980 C   0  0  1  0  0  3  0  0  0  0  0  0
  196.1490  170.0220  144.8390 C   0  0  0  0  0  2  0  0  0  0  0  0
  1  9  1  6  0  0  0
  1  5  1  0  0  0  0
  1 13  1  0  0  0  0
  2 12  1  0  0  0  0
  3 25  1  6  0  0  0
  3  7  1  0  0  0  0
  4  6  1  1  0  0  0
  4  1  1  0  0  0  0
  5  3  1  0  0  0  0
  6 29  1  0  0  0  0
  8  5  1  0  0  0  0
  9 13  1  0  0  0  0
 10  7  1  0  0  0  0
 11 14  1  0  0  0  0
 11  8  1  0  0  0  0
 12  6  1  0  0  0  0
 13 10  1  0  0  0  0
 14  8  1  0  0  0  0
 14  4  1  0  0  0  0
 15  2  1  0  0  0  0
 15 14  1  0  0  0  0
 16 15  1  0  0  0  0
 17 21  1  0  0  0  0
 17 16  1  0  0  0  0
 18 17  1  0  0  0  0
 19 20  1  0  0  0  0
 20 18  1  0  0  0  0
 22 21  1  0  0  0  0
 22 23  1  0  0  0  0
 24 23  1  0  0  0  0
 25 26  1  0  0  0  0
 28 27  1  0  0  0  0
 28 26  1  0  0  0  0
 30 32  1  0  0  0  0
 30 29  1  0  0  0  0
 32 31  1  0  0  0  0
 32 33  1  0  0  0  0
 36 33  1  0  0  0  0
 36 35  1  0  0  0  0
 36 34  1  0  0  0  0
 37 31  1  0  0  0  0
 37 35  1  0  0  0  0
M  END
>  <MODEL>
8

>  <REMARK>
 VINA RESULT:      -5.9      2.392      5.627
  Name = 
  13 active torsions:
  status: ('A' for Active; 'I' for Inactive)
    1  A    between atoms: O_1  and  C_33
    2  A    between atoms: O_1  and  C_36
    3  A    between atoms: C_3  and  C_30
    4  A    between atoms: C_3  and  C_32
    5  A    between atoms: C_5  and  C_23
    6  A    between atoms: C_5  and  C_33
    7  A    between atoms: C_6  and  C_31
    8  A    between atoms: C_9  and  C_30
    9  A    between atoms: S_11  and  C_26
   10  A    between atoms: N_14  and  O_37
   11  A    between atoms: C_17  and  C_26
   12  A    between atoms: C_17  and  C_33
   13  A    between atoms: C_31  and  O_37
                            x       y       z     vdW  Elec       q    Type
                         _______ _______ _______ _____ _____    ______ ____

>  <TORSDO>
F 13

$$$$
=
 OpenBabel11052420013D

 37 42  0  0  1  0  0  0  0  0999 V2000
  190.5450  176.6040  144.6760 C   0  0  2  0  0  0  0  0  0  0  0  0
  187.4940  174.9420  142.3910 C   0  0  0  0  0  2  0  0  0  0  0  0
  189.1120  176.9270  146.7380 C   0  0  2  0  0  3  0  0  0  0  0  0
  190.0420  176.0940  143.3420 C   0  0  1  0  0  3  0  0  0  0  0  0
  189.5610  177.5220  145.3710 C   0  0  2  0  0  3  0  0  0  0  0  0
  189.6970  174.6640  143.4320 N   0  0  0  0  0  0  0  0  0  0  0  0
  190.1720  175.9790  147.3300 C   0  0  0  0  0  2  0  0  0  0  0  0
  188.4330  177.7430  144.3560 C   0  0  1  0  0  3  0  0  0  0  0  0
  191.9820  177.0640  144.6720 C   0  0  0  0  0  2  0  0  0  0  0  0
  191.4640  176.3160  146.8840 O   0  0  0  0  0  0  0  0  0  0  0  0
  188.9580  178.3290  143.1770 O   0  0  0  0  0  0  0  0  0  0  0  0
  188.8680  174.2830  142.2850 C   0  0  0  0  0  2  0  0  0  0  0  0
  191.5650  175.8810  145.5460 C   0  0  1  0  0  3  0  0  0  0  0  0
  188.7700  176.9350  143.1600 C   0  0  1  0  0  0  0  0  0  0  0  0
  187.6230  176.4610  142.2790 C   0  0  1  0  0  3  0  0  0  0  0  0
  187.8720  176.8190  140.9490 O   0  0  0  0  0  0  0  0  0  0  0  0
  186.6110  177.0630  140.3870 C   0  0  1  0  0  3  0  0  0  0  0  0
  185.9370  178.2400  141.0770 C   0  0  0  0  0  2  0  0  0  0  0  0
  183.6330  178.2550  141.9760 C   0  0  0  0  0  1  0  0  0  0  0  0
  184.4670  178.2920  140.7130 C   0  0  0  0  0  2  0  0  0  0  0  0
  186.7360  177.3160  138.8860 C   0  0  0  0  0  2  0  0  0  0  0  0
  186.6780  176.0250  138.0840 C   0  0  0  0  0  2  0  0  0  0  0  0
  186.8700  176.4010  136.3210 S   0  0  0  0  0  0  0  0  0  0  0  0
  185.1200  176.0610  135.9910 C   0  0  0  0  0  1  0  0  0  0  0  0
  187.7810  176.1790  146.6970 C   0  0  0  0  0  2  0  0  0  0  0  0
  186.6340  177.0500  147.1950 C   0  0  0  0  0  2  0  0  0  0  0  0
  184.5640  178.0420  146.2110 C   0  0  0  0  0  1  0  0  0  0  0  0
  185.3500  176.7640  146.4320 C   0  0  0  0  0  2  0  0  0  0  0  0
  190.8530  173.9640  143.3140 O   0  0  0  0  0  0  0  0  0  0  0  0
  191.2370  174.1200  141.9760 C   0  0  0  0  0  2  0  0  0  0  0  0
  193.4540  173.7200  140.3870 S   0  0  0  0  0  0  0  0  0  0  0  0
  192.7140  174.4740  141.8760 C   0  0  2  0  0  3  0  0  0  0  0  0
  193.4580  174.0310  143.1310 C   0  0  0  0  0  2  0  0  0  0  0  0
  195.5570  174.2090  144.4330 C   0  0  0  0  0  1  0  0  0  0  0  0
  195.6800  174.0520  141.9630 C   0  0  0  0  0  2  0  0  0  0  0  0
  194.8740  174.5920  143.1370 C   0  0  1  0  0  3  0  0  0  0  0  0
  195.0730  174.5140  140.6460 C   0  0  0  0  0  2  0  0  0  0  0  0
  1  9  1  6  0  0  0
  1  5  1  0  0  0  0
  1 13  1  0  0  0  0
  3 25  1  6  0  0  0
  3  7  1  0  0  0  0
  4  6  1  1  0  0  0
  4  1  1  0  0  0  0
  5  3  1  0  0  0  0
  8  5  1  0  0  0  0
  9 13  1  0  0  0  0
 10  7  1  0  0  0  0
 11  8  1  0  0  0  0
 12  2  1  0  0  0  0
 12  6  1  0  0  0  0
 13 10  1  0  0  0  0
 14 11  1  0  0  0  0
 14  4  1  0  0  0  0
 14  8  1  0  0  0  0
 15  2  1  0  0  0  0
 15 14  1  0  0  0  0
 16 15  1  0  0  0  0
 17 16  1  0  0  0  0
 17 18  1  0  0  0  0
 20 18  1  0  0  0  0
 20 19  1  0  0  0  0
 21 17  1  0  0  0  0
 22 21  1  0  0  0  0
 23 22  1  0  0  0  0
 24 23  1  0  0  0  0
 25 26  1  0  0  0  0
 27 28  1  0  0  0  0
 28 26  1  0  0  0  0
 29  6  1  0  0  0  0
 30 29  1  0  0  0  0
 31 37  1  0  0  0  0
 31 32  1  0  0  0  0
 32 30  1  0  0  0  0
 32 33  1  0  0  0  0
 33 36  1  0  0  0  0
 35 36  1  0  0  0  0
 36 34  1  0  0  0  0
 37 35  1  0  0  0  0
M  END
>  <MODEL>
9

>  <REMARK>
 VINA RESULT:      -5.9      2.113      4.686
  Name = 
  13 active torsions:
  status: ('A' for Active; 'I' for Inactive)
    1  A    between atoms: O_1  and  C_33
    2  A    between atoms: O_1  and  C_36
    3  A    between atoms: C_3  and  C_30
    4  A    between atoms: C_3  and  C_32
    5  A    between atoms: C_5  and  C_23
    6  A    between atoms: C_5  and  C_33
    7  A    between atoms: C_6  and  C_31
    8  A    between atoms: C_9  and  C_30
    9  A    between atoms: S_11  and  C_26
   10  A    between atoms: N_14  and  O_37
   11  A    between atoms: C_17  and  C_26
   12  A    between atoms: C_17  and  C_33
   13  A    between atoms: C_31  and  O_37
                            x       y       z     vdW  Elec       q    Type
                         _______ _______ _______ _____ _____    ______ ____

>  <TORSDO>
F 13

$$$$
