=
 OpenBabel11052417193D

 30 35  0  0  1  0  0  0  0  0999 V2000
  187.7150  177.0490  143.8280 C   0  0  1  0  0  3  0  0  0  0  0  0
  185.4180  178.2030  144.0260 C   0  0  0  0  0  0  0  0  0  0  0  0
  187.2910  178.2480  147.9090 C   0  0  0  0  0  3  0  0  0  0  0  0
  188.9370  176.6390  144.6760 C   0  0  1  0  0  3  0  0  0  0  0  0
  187.2740  175.9170  143.0150 N   0  0  0  0  0  2  0  0  0  0  0  0
  190.7610  174.4650  141.4970 S   0  0  0  0  0  0  0  0  0  0  0  0
  192.1020  175.0380  145.0440 C   0  0  0  0  0  2  0  0  0  0  0  0
  189.7050  175.6530  142.4060 C   0  0  1  0  0  3  0  0  0  0  0  0
  188.0380  174.1960  141.4980 C   0  0  0  0  0  3  0  0  0  0  0  0
  190.6800  176.9100  147.1990 O   0  0  0  0  0  0  0  0  0  0  0  0
  188.7450  178.2510  147.6700 C   0  0  0  0  0  0  0  0  0  0  0  0
  188.2850  175.2220  142.2860 C   0  0  0  0  0  0  0  0  0  0  0  0
  190.0710  175.9570  143.8820 C   0  0  2  0  0  3  0  0  0  0  0  0
  184.3160  178.6530  144.8710 C   0  0  0  0  0  3  0  0  0  0  0  0
  190.5570  175.6010  147.6720 C   0  0  0  0  0  2  0  0  0  0  0  0
  192.5010  174.5730  146.4200 C   0  0  0  0  0  3  0  0  0  0  0  0
  189.2560  172.8570  139.8800 C   0  0  0  0  0  2  0  0  0  0  0  0
  185.4210  178.4440  142.7900 O   0  0  0  0  0  0  0  0  0  0  0  0
  186.4550  177.5700  147.1310 C   0  0  0  0  0  0  0  0  0  0  0  0
  184.1920  178.1770  146.1140 C   0  0  0  0  0  3  0  0  0  0  0  0
  189.2650  173.6600  140.9320 C   0  0  0  0  0  0  0  0  0  0  0  0
  186.5910  177.5850  144.7130 C   0  0  1  0  0  3  0  0  0  0  0  0
  189.4300  177.7060  145.4390 O   0  0  0  0  0  0  0  0  0  0  0  0
  189.4540  179.1210  148.2430 O   0  0  0  0  0  0  0  0  0  0  0  0
  189.3900  177.2410  146.7600 C   0  0  1  0  0  3  0  0  0  0  0  0
  191.8510  174.8470  147.5650 C   0  0  0  0  0  3  0  0  0  0  0  0
  190.2620  173.3960  144.3830 C   0  0  0  0  0  1  0  0  0  0  0  0
  185.0680  177.0820  146.6970 C   0  0  1  0  0  3  0  0  0  0  0  0
  186.2090  176.6920  145.9010 C   0  0  2  0  0  3  0  0  0  0  0  0
  190.6290  174.8250  144.7530 C   0  0  1  0  0  3  0  0  0  0  0  0
  1  5  1  1  0  0  0
  1  4  1  0  0  0  0
  1 22  1  0  0  0  0
  2 22  1  0  0  0  0
  2 14  1  0  0  0  0
  4 23  1  6  0  0  0
  7 16  1  0  0  0  0
  8  6  1  1  0  0  0
  8 13  1  0  0  0  0
  9 12  2  0  0  0  0
 10 15  1  0  0  0  0
 11  3  1  0  0  0  0
 11 24  2  0  0  0  0
 12  8  1  0  0  0  0
 12  5  1  0  0  0  0
 13  4  1  0  0  0  0
 13 30  1  0  0  0  0
 14 20  2  0  0  0  0
 16 26  2  0  0  0  0
 17 21  2  0  0  0  0
 18  2  2  0  0  0  0
 19  3  2  0  0  0  0
 20 28  1  0  0  0  0
 21  6  1  0  0  0  0
 21  9  1  0  0  0  0
 22 29  1  0  0  0  0
 23 25  1  0  0  0  0
 25 10  1  0  0  0  0
 25 11  1  0  0  0  0
 26 15  1  0  0  0  0
 27 30  1  0  0  0  0
 28 19  1  0  0  0  0
 29 28  1  0  0  0  0
 29 19  1  0  0  0  0
 30  7  1  0  0  0  0
M  END
>  <MODEL>
1

>  <REMARK>
 VINA RESULT:      -8.8      0.000      0.000
  Name = 
  0 active torsions:
  status: ('A' for Active; 'I' for Inactive)
                            x       y       z     vdW  Elec       q    Type
                         _______ _______ _______ _____ _____    ______ ____

>  <TORSDO>
F 0

$$$$
=
 OpenBabel11052417193D

 30 35  0  0  1  0  0  0  0  0999 V2000
  188.1110  176.3030  144.9810 C   0  0  1  0  0  3  0  0  0  0  0  0
  185.8590  177.3420  144.2780 C   0  0  0  0  0  0  0  0  0  0  0  0
  187.7360  175.6860  140.7680 C   0  0  0  0  0  3  0  0  0  0  0  0
  189.3410  175.5770  144.3960 C   0  0  1  0  0  3  0  0  0  0  0  0
  188.5480  177.3970  145.8480 N   0  0  0  0  0  2  0  0  0  0  0  0
  191.4980  175.6840  148.0700 S   0  0  0  0  0  0  0  0  0  0  0  0
  192.5780  174.1210  144.7380 C   0  0  0  0  0  2  0  0  0  0  0  0
  190.1200  175.7100  146.8640 C   0  0  1  0  0  3  0  0  0  0  0  0
  190.0350  177.9620  147.6690 C   0  0  0  0  0  3  0  0  0  0  0  0
  190.6980  173.9400  142.1700 O   0  0  0  0  0  0  0  0  0  0  0  0
  188.5770  174.5700  141.2340 C   0  0  0  0  0  0  0  0  0  0  0  0
  189.5550  177.0870  146.8090 C   0  0  0  0  0  0  0  0  0  0  0  0
  190.4020  175.1670  145.4390 C   0  0  2  0  0  3  0  0  0  0  0  0
  185.0060  177.8720  143.2190 C   0  0  0  0  0  3  0  0  0  0  0  0
  191.7170  174.8410  141.8480 C   0  0  0  0  0  2  0  0  0  0  0  0
  193.4490  174.0440  143.5130 C   0  0  0  0  0  3  0  0  0  0  0  0
  191.4880  177.9400  149.6130 C   0  0  0  0  0  2  0  0  0  0  0  0
  185.4340  177.2450  145.4590 O   0  0  0  0  0  0  0  0  0  0  0  0
  187.5900  176.7970  141.4810 C   0  0  0  0  0  0  0  0  0  0  0  0
  185.5380  178.2110  142.0410 C   0  0  0  0  0  3  0  0  0  0  0  0
  191.0860  177.3770  148.4840 C   0  0  0  0  0  0  0  0  0  0  0  0
  187.1860  176.7930  143.8690 C   0  0  1  0  0  3  0  0  0  0  0  0
  188.9770  174.4870  143.5950 O   0  0  0  0  0  0  0  0  0  0  0  0
  188.4600  173.4450  140.6780 O   0  0  0  0  0  0  0  0  0  0  0  0
  189.5680  174.7500  142.3530 C   0  0  1  0  0  3  0  0  0  0  0  0
  193.0660  174.3200  142.2540 C   0  0  0  0  0  3  0  0  0  0  0  0
  192.5770  176.6130  145.2970 C   0  0  0  0  0  1  0  0  0  0  0  0
  187.0270  178.1990  141.7450 C   0  0  1  0  0  3  0  0  0  0  0  0
  187.8690  177.5980  142.7550 C   0  0  2  0  0  3  0  0  0  0  0  0
  191.7810  175.4100  144.8150 C   0  0  1  0  0  3  0  0  0  0  0  0
  1  5  1  6  0  0  0
  2 18  2  0  0  0  0
  3 11  1  0  0  0  0
  3 19  2  0  0  0  0
  4 23  1  1  0  0  0
  4  1  1  0  0  0  0
  4 13  1  0  0  0  0
  5 12  1  0  0  0  0
  6 21  1  0  0  0  0
  7 30  1  0  0  0  0
  8 12  1  6  0  0  0
  8  6  1  0  0  0  0
  9 21  1  0  0  0  0
 10 25  1  0  0  0  0
 11 25  1  0  0  0  0
 12  9  2  0  0  0  0
 13  8  1  0  0  0  0
 14  2  1  0  0  0  0
 15 10  1  0  0  0  0
 15 26  1  0  0  0  0
 16  7  1  0  0  0  0
 19 28  1  0  0  0  0
 19 29  1  0  0  0  0
 20 14  2  0  0  0  0
 21 17  2  0  0  0  0
 22  2  1  0  0  0  0
 22  1  1  0  0  0  0
 24 11  2  0  0  0  0
 25 23  1  0  0  0  0
 26 16  2  0  0  0  0
 28 20  1  0  0  0  0
 28 29  1  0  0  0  0
 29 22  1  0  0  0  0
 30 27  1  0  0  0  0
 30 13  1  0  0  0  0
M  END
>  <MODEL>
2

>  <REMARK>
 VINA RESULT:      -8.5      2.640      5.314
  Name = 
  0 active torsions:
  status: ('A' for Active; 'I' for Inactive)
                            x       y       z     vdW  Elec       q    Type
                         _______ _______ _______ _____ _____    ______ ____

>  <TORSDO>
F 0

$$$$
=
 OpenBabel11052417193D

 30 35  0  0  1  0  0  0  0  0999 V2000
  188.5540  175.9060  143.0860 C   0  0  1  0  0  3  0  0  0  0  0  0
  190.7140  174.9660  142.0390 C   0  0  0  0  0  0  0  0  0  0  0  0
  191.5150  175.9120  146.1680 C   0  0  0  0  0  3  0  0  0  0  0  0
  188.0020  176.4760  144.4090 C   0  0  1  0  0  3  0  0  0  0  0  0
  188.1900  176.7880  141.9770 N   0  0  0  0  0  2  0  0  0  0  0  0
  184.2630  177.5880  142.6950 S   0  0  0  0  0  0  0  0  0  0  0  0
  185.3970  177.9590  146.3400 C   0  0  0  0  0  2  0  0  0  0  0  0
  185.8700  176.7530  142.9630 C   0  0  1  0  0  3  0  0  0  0  0  0
  186.3460  177.9800  140.9640 C   0  0  0  0  0  3  0  0  0  0  0  0
  188.1600  176.8320  147.4630 O   0  0  0  0  0  0  0  0  0  0  0  0
  190.2350  175.7710  146.8830 C   0  0  0  0  0  0  0  0  0  0  0  0
  186.8260  177.2020  141.9120 C   0  0  0  0  0  0  0  0  0  0  0  0
  186.5060  176.8540  144.3730 C   0  0  2  0  0  3  0  0  0  0  0  0
  192.1660  174.8240  142.0890 C   0  0  0  0  0  3  0  0  0  0  0  0
  188.2600  178.2250  147.5000 C   0  0  0  0  0  2  0  0  0  0  0  0
  185.7880  178.7680  147.5480 C   0  0  0  0  0  3  0  0  0  0  0  0
  184.1670  178.7550  140.2260 C   0  0  0  0  0  2  0  0  0  0  0  0
  190.0420  174.3920  141.1420 O   0  0  0  0  0  0  0  0  0  0  0  0
  191.5770  176.3860  144.9290 C   0  0  0  0  0  0  0  0  0  0  0  0
  192.8880  175.6310  142.8710 C   0  0  0  0  0  3  0  0  0  0  0  0
  184.9410  178.2770  141.1870 C   0  0  0  0  0  0  0  0  0  0  0  0
  190.0640  175.6930  143.1700 C   0  0  1  0  0  3  0  0  0  0  0  0
  188.2830  175.6410  145.4990 O   0  0  0  0  0  0  0  0  0  0  0  0
  190.1930  175.0610  147.9230 O   0  0  0  0  0  0  0  0  0  0  0  0
  188.9870  176.4560  146.3950 C   0  0  1  0  0  3  0  0  0  0  0  0
  187.0230  178.8560  148.0730 C   0  0  0  0  0  3  0  0  0  0  0  0
  186.1140  179.4400  144.3870 C   0  0  0  0  0  1  0  0  0  0  0  0
  192.3120  176.8010  143.6490 C   0  0  1  0  0  3  0  0  0  0  0  0
  190.8700  176.8980  143.6710 C   0  0  2  0  0  3  0  0  0  0  0  0
  186.3400  178.1540  145.1680 C   0  0  1  0  0  3  0  0  0  0  0  0
  1  5  1  6  0  0  0
  1 22  1  0  0  0  0
  1  4  1  0  0  0  0
  2 14  1  0  0  0  0
  2 22  1  0  0  0  0
  3 11  1  0  0  0  0
  4 23  1  1  0  0  0
  6  8  1  0  0  0  0
  7 16  1  0  0  0  0
  8 12  1  6  0  0  0
  8 13  1  0  0  0  0
  9 21  1  0  0  0  0
  9 12  2  0  0  0  0
 10 15  1  0  0  0  0
 11 24  2  0  0  0  0
 12  5  1  0  0  0  0
 13  4  1  0  0  0  0
 13 30  1  0  0  0  0
 14 20  2  0  0  0  0
 15 26  1  0  0  0  0
 16 26  2  0  0  0  0
 17 21  2  0  0  0  0
 18  2  2  0  0  0  0
 19  3  2  0  0  0  0
 20 28  1  0  0  0  0
 21  6  1  0  0  0  0
 22 29  1  0  0  0  0
 23 25  1  0  0  0  0
 25 11  1  0  0  0  0
 25 10  1  0  0  0  0
 27 30  1  0  0  0  0
 28 29  1  0  0  0  0
 28 19  1  0  0  0  0
 29 19  1  0  0  0  0
 30  7  1  0  0  0  0
M  END
>  <MODEL>
3

>  <REMARK>
 VINA RESULT:      -8.3      2.460      5.575
  Name = 
  0 active torsions:
  status: ('A' for Active; 'I' for Inactive)
                            x       y       z     vdW  Elec       q    Type
                         _______ _______ _______ _____ _____    ______ ____

>  <TORSDO>
F 0

$$$$
=
 OpenBabel11052417193D

 30 35  0  0  1  0  0  0  0  0999 V2000
  190.0390  175.1810  143.5010 C   0  0  1  0  0  3  0  0  0  0  0  0
  188.1310  176.3110  144.8170 C   0  0  0  0  0  0  0  0  0  0  0  0
  191.4730  175.7640  147.4860 C   0  0  0  0  0  3  0  0  0  0  0  0
  191.4730  174.6400  143.6790 C   0  0  1  0  0  3  0  0  0  0  0  0
  189.2150  174.1850  142.8160 N   0  0  0  0  0  2  0  0  0  0  0  0
  191.6160  172.9470  139.7710 S   0  0  0  0  0  0  0  0  0  0  0  0
  194.3730  172.9770  142.4380 C   0  0  0  0  0  2  0  0  0  0  0  0
  191.1330  173.9950  141.1920 C   0  0  1  0  0  3  0  0  0  0  0  0
  189.1390  172.7020  140.9080 C   0  0  0  0  0  3  0  0  0  0  0  0
  194.1360  174.5200  145.2180 O   0  0  0  0  0  0  0  0  0  0  0  0
  192.6840  175.7920  146.6470 C   0  0  0  0  0  0  0  0  0  0  0  0
  189.7690  173.5980  141.6400 C   0  0  0  0  0  0  0  0  0  0  0  0
  192.1110  174.0740  142.3930 C   0  0  2  0  0  3  0  0  0  0  0  0
  187.5270  176.6390  146.1040 C   0  0  0  0  0  3  0  0  0  0  0  0
  194.1330  173.1560  145.5230 C   0  0  0  0  0  2  0  0  0  0  0  0
  195.2830  172.3100  143.4340 C   0  0  0  0  0  3  0  0  0  0  0  0
  189.4570  171.6080  138.7640 C   0  0  0  0  0  2  0  0  0  0  0  0
  187.6260  176.7320  143.7430 O   0  0  0  0  0  0  0  0  0  0  0  0
  190.3400  175.2160  147.0610 C   0  0  0  0  0  0  0  0  0  0  0  0
  187.9090  175.9860  147.2050 C   0  0  0  0  0  3  0  0  0  0  0  0
  189.9690  172.2460  139.8060 C   0  0  0  0  0  0  0  0  0  0  0  0
  189.4380  175.5890  144.8450 C   0  0  1  0  0  3  0  0  0  0  0  0
  192.3170  175.5770  144.2880 O   0  0  0  0  0  0  0  0  0  0  0  0
  193.6290  176.5610  146.9670 O   0  0  0  0  0  0  0  0  0  0  0  0
  192.8090  174.9220  145.4250 C   0  0  1  0  0  3  0  0  0  0  0  0
  195.2020  172.4160  144.7720 C   0  0  0  0  0  3  0  0  0  0  0  0
  192.3140  171.4660  142.4240 C   0  0  0  0  0  1  0  0  0  0  0  0
  188.8680  174.8090  147.2070 C   0  0  1  0  0  3  0  0  0  0  0  0
  189.5330  174.5320  145.9540 C   0  0  2  0  0  3  0  0  0  0  0  0
  192.9040  172.8210  142.7840 C   0  0  1  0  0  3  0  0  0  0  0  0
  1  5  1  1  0  0  0
  1  4  1  0  0  0  0
  1 22  1  0  0  0  0
  2 22  1  0  0  0  0
  2 14  1  0  0  0  0
  4 23  1  6  0  0  0
  6 21  1  0  0  0  0
  7 30  1  0  0  0  0
  7 16  1  0  0  0  0
  8  6  1  6  0  0  0
  8 12  1  0  0  0  0
  8 13  1  0  0  0  0
  9 12  2  0  0  0  0
 10 25  1  0  0  0  0
 10 15  1  0  0  0  0
 11 24  2  0  0  0  0
 11  3  1  0  0  0  0
 12  5  1  0  0  0  0
 13 30  1  0  0  0  0
 13  4  1  0  0  0  0
 14 20  2  0  0  0  0
 16 26  2  0  0  0  0
 17 21  2  0  0  0  0
 18  2  2  0  0  0  0
 19 28  1  0  0  0  0
 19  3  2  0  0  0  0
 20 28  1  0  0  0  0
 21  9  1  0  0  0  0
 22 29  1  0  0  0  0
 23 25  1  0  0  0  0
 25 11  1  0  0  0  0
 26 15  1  0  0  0  0
 27 30  1  0  0  0  0
 29 19  1  0  0  0  0
 29 28  1  0  0  0  0
M  END
>  <MODEL>
4

>  <REMARK>
 VINA RESULT:      -8.0      2.443      3.774
  Name = 
  0 active torsions:
  status: ('A' for Active; 'I' for Inactive)
                            x       y       z     vdW  Elec       q    Type
                         _______ _______ _______ _____ _____    ______ ____

>  <TORSDO>
F 0

$$$$
=
 OpenBabel11052417193D

 30 35  0  0  1  0  0  0  0  0999 V2000
  188.5060  175.7200  140.9300 C   0  0  1  0  0  3  0  0  0  0  0  0
  186.4850  177.2770  140.5550 C   0  0  0  0  0  0  0  0  0  0  0  0
  187.8300  177.7640  144.6220 C   0  0  0  0  0  3  0  0  0  0  0  0
  189.5040  175.2780  142.0200 C   0  0  1  0  0  3  0  0  0  0  0  0
  187.9480  174.5440  140.2630 N   0  0  0  0  0  2  0  0  0  0  0  0
  191.2290  172.2270  139.5970 S   0  0  0  0  0  0  0  0  0  0  0  0
  192.2060  173.2510  143.1610 C   0  0  0  0  0  2  0  0  0  0  0  0
  190.3310  173.7390  140.1060 C   0  0  1  0  0  3  0  0  0  0  0  0
  188.5290  172.4480  139.2060 C   0  0  0  0  0  3  0  0  0  0  0  0
  190.9380  175.7360  144.7050 O   0  0  0  0  0  0  0  0  0  0  0  0
  189.2720  177.4640  144.6220 C   0  0  0  0  0  0  0  0  0  0  0  0
  188.8790  173.5510  139.8350 C   0  0  0  0  0  0  0  0  0  0  0  0
  190.5650  174.2620  141.5470 C   0  0  2  0  0  3  0  0  0  0  0  0
  185.4010  178.0730  141.1230 C   0  0  0  0  0  3  0  0  0  0  0  0
  190.4930  174.5900  145.3710 C   0  0  0  0  0  2  0  0  0  0  0  0
  192.3270  173.0070  144.6420 C   0  0  0  0  0  3  0  0  0  0  0  0
  189.6410  170.6190  138.0600 C   0  0  0  0  0  2  0  0  0  0  0  0
  186.6900  177.2610  139.3130 O   0  0  0  0  0  0  0  0  0  0  0  0
  186.9770  177.1030  143.8480 C   0  0  0  0  0  0  0  0  0  0  0  0
  185.0300  177.8840  142.3920 C   0  0  0  0  0  3  0  0  0  0  0  0
  189.6820  171.6020  138.9460 C   0  0  0  0  0  0  0  0  0  0  0  0
  187.4130  176.6110  141.5170 C   0  0  1  0  0  3  0  0  0  0  0  0
  190.1040  176.3720  142.6580 O   0  0  0  0  0  0  0  0  0  0  0  0
  190.0670  178.2910  145.1430 O   0  0  0  0  0  0  0  0  0  0  0  0
  189.8060  176.1940  144.0150 C   0  0  1  0  0  3  0  0  0  0  0  0
  191.6100  173.6140  145.6030 C   0  0  0  0  0  3  0  0  0  0  0  0
  190.1670  171.8600  142.5050 C   0  0  0  0  0  1  0  0  0  0  0  0
  185.5840  176.7910  143.2870 C   0  0  1  0  0  3  0  0  0  0  0  0
  186.7120  176.0550  142.7640 C   0  0  2  0  0  3  0  0  0  0  0  0
  190.7680  173.2470  142.6780 C   0  0  1  0  0  3  0  0  0  0  0  0
  1  5  1  1  0  0  0
  1 22  1  0  0  0  0
  1  4  1  0  0  0  0
  2 14  1  0  0  0  0
  2 22  1  0  0  0  0
  4 23  1  6  0  0  0
  7 16  1  0  0  0  0
  8  6  1  1  0  0  0
  8 13  1  0  0  0  0
  9 12  2  0  0  0  0
 10 15  1  0  0  0  0
 11  3  1  0  0  0  0
 11 24  2  0  0  0  0
 12  8  1  0  0  0  0
 12  5  1  0  0  0  0
 13  4  1  0  0  0  0
 13 30  1  0  0  0  0
 14 20  2  0  0  0  0
 15 26  1  0  0  0  0
 16 26  2  0  0  0  0
 17 21  2  0  0  0  0
 18  2  2  0  0  0  0
 19  3  2  0  0  0  0
 20 28  1  0  0  0  0
 21  9  1  0  0  0  0
 21  6  1  0  0  0  0
 22 29  1  0  0  0  0
 23 25  1  0  0  0  0
 25 11  1  0  0  0  0
 25 10  1  0  0  0  0
 27 30  1  0  0  0  0
 28 19  1  0  0  0  0
 29 28  1  0  0  0  0
 29 19  1  0  0  0  0
 30  7  1  0  0  0  0
M  END
>  <MODEL>
5

>  <REMARK>
 VINA RESULT:      -7.8      2.263      3.118
  Name = 
  0 active torsions:
  status: ('A' for Active; 'I' for Inactive)
                            x       y       z     vdW  Elec       q    Type
                         _______ _______ _______ _____ _____    ______ ____

>  <TORSDO>
F 0

$$$$
=
 OpenBabel11052417193D

 30 35  0  0  1  0  0  0  0  0999 V2000
  189.0380  174.2230  142.5290 C   0  0  1  0  0  3  0  0  0  0  0  0
  189.0750  172.8510  140.3470 C   0  0  0  0  0  0  0  0  0  0  0  0
  192.8170  172.2290  142.3970 C   0  0  0  0  0  3  0  0  0  0  0  0
  189.9120  174.5710  143.7510 C   0  0  1  0  0  3  0  0  0  0  0  0
  188.4750  175.4470  141.9580 N   0  0  0  0  0  2  0  0  0  0  0  0
  187.1670  177.4710  145.2390 S   0  0  0  0  0  0  0  0  0  0  0  0
  190.4910  176.3490  146.7870 C   0  0  0  0  0  2  0  0  0  0  0  0
  187.8570  176.0410  144.3280 C   0  0  1  0  0  3  0  0  0  0  0  0
  187.3020  177.4890  142.5060 C   0  0  0  0  0  3  0  0  0  0  0  0
  192.2800  173.9780  145.6270 O   0  0  0  0  0  0  0  0  0  0  0  0
  192.5370  172.4030  143.8330 C   0  0  0  0  0  0  0  0  0  0  0  0
  187.8660  176.3560  142.8720 C   0  0  0  0  0  0  0  0  0  0  0  0
  189.2330  175.4930  144.7870 C   0  0  2  0  0  3  0  0  0  0  0  0
  189.8490  172.1500  139.3260 C   0  0  0  0  0  3  0  0  0  0  0  0
  193.0040  175.1550  145.4190 C   0  0  0  0  0  2  0  0  0  0  0  0
  191.9190  176.5760  147.2100 C   0  0  0  0  0  3  0  0  0  0  0  0
  185.9410  179.2180  143.5320 C   0  0  0  0  0  2  0  0  0  0  0  0
  187.8160  172.8540  140.3110 O   0  0  0  0  0  0  0  0  0  0  0  0
  192.2110  172.9660  141.4720 C   0  0  0  0  0  0  0  0  0  0  0  0
  191.1630  172.3650  139.2220 C   0  0  0  0  0  3  0  0  0  0  0  0
  186.8160  178.2320  143.6560 C   0  0  0  0  0  0  0  0  0  0  0  0
  189.8340  173.4280  141.4960 C   0  0  1  0  0  3  0  0  0  0  0  0
  190.4370  173.4270  144.3660 O   0  0  0  0  0  0  0  0  0  0  0  0
  192.9070  171.5070  144.6380 O   0  0  0  0  0  0  0  0  0  0  0  0
  191.8240  173.6230  144.3490 C   0  0  1  0  0  3  0  0  0  0  0  0
  193.0070  176.0290  146.6400 C   0  0  0  0  0  3  0  0  0  0  0  0
  190.2190  177.9160  144.7890 C   0  0  0  0  0  1  0  0  0  0  0  0
  191.9230  173.4010  140.0300 C   0  0  1  0  0  3  0  0  0  0  0  0
  191.1840  174.0380  141.0970 C   0  0  2  0  0  3  0  0  0  0  0  0
  190.2920  176.4810  145.2900 C   0  0  1  0  0  3  0  0  0  0  0  0
  1  5  1  6  0  0  0
  1  4  1  0  0  0  0
  2 22  1  0  0  0  0
  3 11  1  0  0  0  0
  4 23  1  1  0  0  0
  4 13  1  0  0  0  0
  5 12  1  0  0  0  0
  7 16  1  0  0  0  0
  8 12  1  6  0  0  0
  8 13  1  0  0  0  0
  8  6  1  0  0  0  0
  9 12  2  0  0  0  0
  9 21  1  0  0  0  0
 11 25  1  0  0  0  0
 11 24  2  0  0  0  0
 13 30  1  0  0  0  0
 14  2  1  0  0  0  0
 15 10  1  0  0  0  0
 15 26  1  0  0  0  0
 17 21  2  0  0  0  0
 18  2  2  0  0  0  0
 19  3  2  0  0  0  0
 20 14  2  0  0  0  0
 20 28  1  0  0  0  0
 21  6  1  0  0  0  0
 22  1  1  0  0  0  0
 25 23  1  0  0  0  0
 25 10  1  0  0  0  0
 26 16  2  0  0  0  0
 27 30  1  0  0  0  0
 28 29  1  0  0  0  0
 28 19  1  0  0  0  0
 29 19  1  0  0  0  0
 29 22  1  0  0  0  0
 30  7  1  0  0  0  0
M  END
>  <MODEL>
6

>  <REMARK>
 VINA RESULT:      -7.8      2.910      6.187
  Name = 
  0 active torsions:
  status: ('A' for Active; 'I' for Inactive)
                            x       y       z     vdW  Elec       q    Type
                         _______ _______ _______ _____ _____    ______ ____

>  <TORSDO>
F 0

$$$$
=
 OpenBabel11052417193D

 30 35  0  0  1  0  0  0  0  0999 V2000
  190.9210  174.0740  145.1740 C   0  0  1  0  0  3  0  0  0  0  0  0
  189.2220  175.4800  146.5100 C   0  0  0  0  0  0  0  0  0  0  0  0
  187.6730  174.9160  142.5260 C   0  0  0  0  0  3  0  0  0  0  0  0
  191.1560  173.4770  143.7710 C   0  0  1  0  0  3  0  0  0  0  0  0
  192.1230  174.7780  145.6210 N   0  0  0  0  0  2  0  0  0  0  0  0
  195.1110  172.1780  144.6830 S   0  0  0  0  0  0  0  0  0  0  0  0
  193.1640  171.7130  141.4110 C   0  0  0  0  0  2  0  0  0  0  0  0
  193.3740  172.7200  144.8790 C   0  0  1  0  0  3  0  0  0  0  0  0
  194.5210  174.5800  145.8550 C   0  0  0  0  0  3  0  0  0  0  0  0
  190.1130  172.5540  141.0260 O   0  0  0  0  0  0  0  0  0  0  0  0
  188.2270  173.6390  142.0420 C   0  0  0  0  0  0  0  0  0  0  0  0
  193.3600  174.0820  145.4820 C   0  0  0  0  0  0  0  0  0  0  0  0
  192.4550  172.6550  143.6310 C   0  0  2  0  0  3  0  0  0  0  0  0
  188.0910  176.4020  146.5090 C   0  0  0  0  0  3  0  0  0  0  0  0
  190.8630  173.4170  140.2230 C   0  0  0  0  0  2  0  0  0  0  0  0
  192.9190  171.9680  139.9480 C   0  0  0  0  0  3  0  0  0  0  0  0
  196.8040  173.7910  146.0980 C   0  0  0  0  0  2  0  0  0  0  0  0
  189.6900  175.0370  147.5920 O   0  0  0  0  0  0  0  0  0  0  0  0
  188.3790  175.7380  143.2950 C   0  0  0  0  0  0  0  0  0  0  0  0
  187.7700  177.0620  145.3930 C   0  0  0  0  0  3  0  0  0  0  0  0
  195.6090  173.6690  145.5410 C   0  0  0  0  0  0  0  0  0  0  0  0
  189.6930  174.9820  145.1830 C   0  0  1  0  0  3  0  0  0  0  0  0
  190.0490  172.7480  143.3170 O   0  0  0  0  0  0  0  0  0  0  0  0
  187.4410  172.7760  141.5680 O   0  0  0  0  0  0  0  0  0  0  0  0
  189.7030  173.3540  142.1030 C   0  0  1  0  0  3  0  0  0  0  0  0
  191.9010  172.6760  139.4290 C   0  0  0  0  0  3  0  0  0  0  0  0
  194.2770  173.8710  142.2010 C   0  0  0  0  0  1  0  0  0  0  0  0
  188.5870  177.0180  144.1140 C   0  0  1  0  0  3  0  0  0  0  0  0
  189.6570  176.0470  144.0790 C   0  0  2  0  0  3  0  0  0  0  0  0
  193.0540  172.9680  142.2550 C   0  0  1  0  0  3  0  0  0  0  0  0
  1 22  1  0  0  0  0
  1  5  1  6  0  0  0
  2 18  2  0  0  0  0
  3 19  2  0  0  0  0
  4 23  1  1  0  0  0
  4  1  1  0  0  0  0
  6 21  1  0  0  0  0
  7 30  1  0  0  0  0
  8  6  1  6  0  0  0
  8 12  1  0  0  0  0
 10 25  1  0  0  0  0
 11 25  1  0  0  0  0
 11  3  1  0  0  0  0
 12  5  1  0  0  0  0
 12  9  2  0  0  0  0
 13  4  1  0  0  0  0
 13  8  1  0  0  0  0
 14  2  1  0  0  0  0
 15 10  1  0  0  0  0
 16  7  1  0  0  0  0
 19 29  1  0  0  0  0
 19 28  1  0  0  0  0
 20 14  2  0  0  0  0
 21  9  1  0  0  0  0
 21 17  2  0  0  0  0
 22  2  1  0  0  0  0
 24 11  2  0  0  0  0
 25 23  1  0  0  0  0
 26 16  2  0  0  0  0
 26 15  1  0  0  0  0
 27 30  1  0  0  0  0
 28 20  1  0  0  0  0
 29 28  1  0  0  0  0
 29 22  1  0  0  0  0
 30 13  1  0  0  0  0
M  END
>  <MODEL>
7

>  <REMARK>
 VINA RESULT:      -7.5      3.262      6.172
  Name = 
  0 active torsions:
  status: ('A' for Active; 'I' for Inactive)
                            x       y       z     vdW  Elec       q    Type
                         _______ _______ _______ _____ _____    ______ ____

>  <TORSDO>
F 0

$$$$
=
 OpenBabel11052417193D

 30 35  0  0  1  0  0  0  0  0999 V2000
  190.3560  175.7120  142.8870 C   0  0  1  0  0  3  0  0  0  0  0  0
  191.4540  174.2080  141.1040 C   0  0  0  0  0  0  0  0  0  0  0  0
  187.5510  175.3610  139.6810 C   0  0  0  0  0  3  0  0  0  0  0  0
  189.0520  176.4820  143.1800 C   0  0  1  0  0  3  0  0  0  0  0  0
  190.7280  174.9080  144.0500 N   0  0  0  0  0  2  0  0  0  0  0  0
  190.2130  177.4910  147.1530 S   0  0  0  0  0  0  0  0  0  0  0  0
  186.9940  178.4670  145.3110 C   0  0  0  0  0  2  0  0  0  0  0  0
  190.2980  176.9960  145.3930 C   0  0  1  0  0  3  0  0  0  0  0  0
  191.0380  174.9790  146.4470 C   0  0  0  0  0  3  0  0  0  0  0  0
  186.4350  177.8050  142.2420 O   0  0  0  0  0  0  0  0  0  0  0  0
  187.2550  176.6680  140.2930 C   0  0  0  0  0  0  0  0  0  0  0  0
  190.7110  175.5670  145.3150 C   0  0  0  0  0  0  0  0  0  0  0  0
  189.0520  177.2650  144.5100 C   0  0  2  0  0  3  0  0  0  0  0  0
  191.3040  173.3390  139.9400 C   0  0  0  0  0  3  0  0  0  0  0  0
  185.5390  177.0290  142.9820 C   0  0  0  0  0  2  0  0  0  0  0  0
  185.5050  178.4200  145.0950 C   0  0  0  0  0  3  0  0  0  0  0  0
  191.4340  175.6380  148.7500 C   0  0  0  0  0  2  0  0  0  0  0  0
  192.5950  174.4830  141.5590 O   0  0  0  0  0  0  0  0  0  0  0  0
  188.2160  174.4160  140.3360 C   0  0  0  0  0  0  0  0  0  0  0  0
  190.1020  172.8470  139.6260 C   0  0  0  0  0  3  0  0  0  0  0  0
  190.8730  175.8800  147.5750 C   0  0  0  0  0  0  0  0  0  0  0  0
  190.2160  174.8590  141.6270 C   0  0  1  0  0  3  0  0  0  0  0  0
  188.6770  177.3080  142.1120 O   0  0  0  0  0  0  0  0  0  0  0  0
  186.8850  177.6170  139.5510 O   0  0  0  0  0  0  0  0  0  0  0  0
  187.3850  176.8850  141.7760 C   0  0  1  0  0  3  0  0  0  0  0  0
  184.8740  177.8280  144.0660 C   0  0  0  0  0  3  0  0  0  0  0  0
  187.5090  176.1800  146.3240 C   0  0  0  0  0  1  0  0  0  0  0  0
  188.8590  173.0310  140.4770 C   0  0  1  0  0  3  0  0  0  0  0  0
  188.9780  173.9550  141.5820 C   0  0  2  0  0  3  0  0  0  0  0  0
  187.6590  177.1150  145.1330 C   0  0  1  0  0  3  0  0  0  0  0  0
  1  4  1  0  0  0  0
  1  5  1  1  0  0  0
  2 18  2  0  0  0  0
  2 22  1  0  0  0  0
  3 11  1  0  0  0  0
  3 19  2  0  0  0  0
  4 23  1  6  0  0  0
  4 13  1  0  0  0  0
  5 12  1  0  0  0  0
  6 21  1  0  0  0  0
  8 12  1  1  0  0  0
  8  6  1  0  0  0  0
  9 21  1  0  0  0  0
 10 15  1  0  0  0  0
 11 25  1  0  0  0  0
 12  9  2  0  0  0  0
 13 30  1  0  0  0  0
 13  8  1  0  0  0  0
 14  2  1  0  0  0  0
 15 26  1  0  0  0  0
 16  7  1  0  0  0  0
 19 28  1  0  0  0  0
 19 29  1  0  0  0  0
 20 14  2  0  0  0  0
 20 28  1  0  0  0  0
 21 17  2  0  0  0  0
 22  1  1  0  0  0  0
 24 11  2  0  0  0  0
 25 23  1  0  0  0  0
 25 10  1  0  0  0  0
 26 16  2  0  0  0  0
 28 29  1  0  0  0  0
 29 22  1  0  0  0  0
 30  7  1  0  0  0  0
 30 27  1  0  0  0  0
M  END
>  <MODEL>
8

>  <REMARK>
 VINA RESULT:      -7.4      2.557      6.739
  Name = 
  0 active torsions:
  status: ('A' for Active; 'I' for Inactive)
                            x       y       z     vdW  Elec       q    Type
                         _______ _______ _______ _____ _____    ______ ____

>  <TORSDO>
F 0

$$$$
=
 OpenBabel11052417193D

 30 35  0  0  1  0  0  0  0  0999 V2000
  191.2200  175.4810  143.2760 C   0  0  1  0  0  3  0  0  0  0  0  0
  189.0380  176.2030  144.4440 C   0  0  0  0  0  0  0  0  0  0  0  0
  192.2270  176.3320  147.3420 C   0  0  0  0  0  3  0  0  0  0  0  0
  192.7170  175.2380  143.5590 C   0  0  1  0  0  3  0  0  0  0  0  0
  190.6620  174.3420  142.5490 N   0  0  0  0  0  2  0  0  0  0  0  0
  193.4680  173.6160  139.6910 S   0  0  0  0  0  0  0  0  0  0  0  0
  195.9700  174.1930  142.5400 C   0  0  0  0  0  2  0  0  0  0  0  0
  192.6870  174.5430  141.0620 C   0  0  1  0  0  3  0  0  0  0  0  0
  191.0170  172.8770  140.6570 C   0  0  0  0  0  3  0  0  0  0  0  0
  195.2370  175.6520  145.2780 O   0  0  0  0  0  0  0  0  0  0  0  0
  193.4630  176.6040  146.5880 C   0  0  0  0  0  0  0  0  0  0  0  0
  191.4020  173.8800  141.4200 C   0  0  0  0  0  0  0  0  0  0  0  0
  193.5440  174.8140  142.3260 C   0  0  2  0  0  3  0  0  0  0  0  0
  188.2920  176.4000  145.6830 C   0  0  0  0  0  3  0  0  0  0  0  0
  195.4850  174.3150  145.5990 C   0  0  0  0  0  2  0  0  0  0  0  0
  196.9240  173.7200  143.6040 C   0  0  0  0  0  3  0  0  0  0  0  0
  191.6960  171.8730  138.5540 C   0  0  0  0  0  2  0  0  0  0  0  0
  188.5340  176.5160  143.3330 O   0  0  0  0  0  0  0  0  0  0  0  0
  191.2590  175.5690  146.8480 C   0  0  0  0  0  0  0  0  0  0  0  0
  188.7190  175.8350  146.8150 C   0  0  0  0  0  3  0  0  0  0  0  0
  191.9960  172.5990  139.6200 C   0  0  0  0  0  0  0  0  0  0  0  0
  190.4570  175.7580  144.5710 C   0  0  1  0  0  3  0  0  0  0  0  0
  193.3120  176.3250  144.2130 O   0  0  0  0  0  0  0  0  0  0  0  0
  194.2100  177.5460  146.9630 O   0  0  0  0  0  0  0  0  0  0  0  0
  193.8440  175.7790  145.3880 C   0  0  1  0  0  3  0  0  0  0  0  0
  196.7310  173.8050  144.9320 C   0  0  0  0  0  3  0  0  0  0  0  0
  194.2620  172.3000  142.4030 C   0  0  0  0  0  1  0  0  0  0  0  0
  189.8920  174.8750  146.8970 C   0  0  1  0  0  3  0  0  0  0  0  0
  190.6850  174.7390  145.6960 C   0  0  2  0  0  3  0  0  0  0  0  0
  194.5420  173.7450  142.7860 C   0  0  1  0  0  3  0  0  0  0  0  0
  1  5  1  1  0  0  0
  1  4  1  0  0  0  0
  1 22  1  0  0  0  0
  2 22  1  0  0  0  0
  2 14  1  0  0  0  0
  4 23  1  6  0  0  0
  7 30  1  0  0  0  0
  7 16  1  0  0  0  0
  8  6  1  6  0  0  0
  8 12  1  0  0  0  0
  8 13  1  0  0  0  0
  9 12  2  0  0  0  0
 10 25  1  0  0  0  0
 10 15  1  0  0  0  0
 11 24  2  0  0  0  0
 11  3  1  0  0  0  0
 12  5  1  0  0  0  0
 13 30  1  0  0  0  0
 13  4  1  0  0  0  0
 14 20  2  0  0  0  0
 16 26  2  0  0  0  0
 17 21  2  0  0  0  0
 18  2  2  0  0  0  0
 19 28  1  0  0  0  0
 19  3  2  0  0  0  0
 20 28  1  0  0  0  0
 21  6  1  0  0  0  0
 21  9  1  0  0  0  0
 22 29  1  0  0  0  0
 23 25  1  0  0  0  0
 25 11  1  0  0  0  0
 26 15  1  0  0  0  0
 27 30  1  0  0  0  0
 29 19  1  0  0  0  0
 29 28  1  0  0  0  0
M  END
>  <MODEL>
9

>  <REMARK>
 VINA RESULT:      -7.3      2.995      4.502
  Name = 
  0 active torsions:
  status: ('A' for Active; 'I' for Inactive)
                            x       y       z     vdW  Elec       q    Type
                         _______ _______ _______ _____ _____    ______ ____

>  <TORSDO>
F 0

$$$$
