=
 OpenBabel11052421153D

 43 47  0  0  1  0  0  0  0  0999 V2000
  184.6560  178.6050  145.3420 C   0  0  0  0  0  0  0  0  0  0  0  0
  188.9810  176.8550  144.0580 C   0  0  1  0  0  3  0  0  0  0  0  0
  188.7300  175.1310  141.7870 C   0  0  0  0  0  0  0  0  0  0  0  0
  186.6800  177.2000  145.8630 C   0  0  2  0  0  3  0  0  0  0  0  0
  184.6300  178.2100  143.8950 C   0  0  0  0  0  2  0  0  0  0  0  0
  183.6410  179.0280  145.8730 O   0  0  0  0  0  0  0  0  0  0  0  0
  186.5030  176.6370  144.4160 C   0  0  1  0  0  3  0  0  0  0  0  0
  185.9270  178.5110  146.1350 C   0  0  0  0  0  2  0  0  0  0  0  0
  185.9950  177.7030  143.4380 C   0  0  0  0  0  2  0  0  0  0  0  0
  187.6360  175.3950  142.5150 C   0  0  0  0  0  3  0  0  0  0  0  0
  187.7670  175.9320  143.9120 C   0  0  1  0  0  3  0  0  0  0  0  0
  189.1690  177.1780  145.5150 C   0  0  0  0  0  3  0  0  0  0  0  0
  190.2070  176.2350  143.4200 C   0  0  0  0  0  0  0  0  0  0  0  0
  190.0690  175.4800  142.3200 C   0  0  0  0  0  3  0  0  0  0  0  0
  188.1150  177.3470  146.3260 C   0  0  0  0  0  3  0  0  0  0  0  0
  188.5950  174.5530  140.4390 C   0  0  0  0  0  0  0  0  0  0  0  0
  189.2110  173.2990  140.1400 N   0  0  0  0  0  2  0  0  0  0  0  0
  187.9300  175.1560  139.5540 O   0  0  0  0  0  0  0  0  0  0  0  0
  189.0930  172.6530  138.8440 C   0  0  0  0  0  2  0  0  0  0  0  0
  189.5170  170.4370  137.9040 C   0  0  0  0  0  3  0  0  0  0  0  0
  190.6580  170.9750  140.0380 C   0  0  0  0  0  2  0  0  0  0  0  0
  192.5630  169.5130  138.4970 C   0  0  0  0  0  2  0  0  0  0  0  0
  189.7210  171.3010  138.9080 C   0  0  0  0  0  0  0  0  0  0  0  0
  190.1530  169.0750  137.8530 C   0  0  0  0  0  2  0  0  0  0  0  0
  191.9800  171.5730  139.8260 N   0  0  0  0  0  0  0  0  0  0  0  0
  192.6560  171.0350  138.6320 C   0  0  0  0  0  2  0  0  0  0  0  0
  191.6030  169.1400  137.3750 C   0  0  0  0  0  2  0  0  0  0  0  0
  192.7960  171.2720  140.9940 C   0  0  0  0  0  2  0  0  0  0  0  0
  192.3920  172.1670  142.1570 C   0  0  0  0  0  2  0  0  0  0  0  0
  192.1370  171.3570  143.4210 C   0  0  0  0  0  2  0  0  0  0  0  0
  189.3780  172.1330  143.5980 O   0  0  0  0  0  0  0  0  0  0  0  0
  189.6300  173.3170  145.6430 C   0  0  0  0  0  1  0  0  0  0  0  0
  190.1600  172.5140  144.5090 C   0  0  0  0  0  0  0  0  0  0  0  0
  191.5540  172.2000  144.4560 N   0  0  0  0  0  2  0  0  0  0  0  0
  191.5830  176.6410  143.8400 C   0  0  0  0  0  2  0  0  0  0  0  0
  193.7900  174.7750  146.1150 C   0  0  0  0  0  2  0  0  0  0  0  0
  195.0200  175.5210  145.5890 C   0  0  2  0  0  3  0  0  0  0  0  0
  193.6400  175.5320  143.4640 C   0  0  0  0  0  2  0  0  0  0  0  0
  192.5120  175.4800  145.6650 C   0  0  0  0  0  2  0  0  0  0  0  0
  192.3620  175.4650  144.2010 N   0  0  0  0  0  0  0  0  0  0  0  0
  194.7510  176.2340  144.2540 C   0  0  0  0  0  2  0  0  0  0  0  0
  195.5590  172.8360  145.3870 S   0  0  0  0  0  1  0  0  0  0  0  0
  196.1780  174.5450  145.4540 C   0  0  0  0  0  2  0  0  0  0  0  0
  1  6  2  0  0  0  0
  1  8  1  0  0  0  0
  2 12  1  1  0  0  0
  3 14  1  0  0  0  0
  3 10  2  0  0  0  0
  4  8  1  6  0  0  0
  4 15  1  0  0  0  0
  5  1  1  0  0  0  0
  7  9  1  6  0  0  0
  7  4  1  0  0  0  0
  9  5  1  0  0  0  0
 11 10  1  6  0  0  0
 11  2  1  0  0  0  0
 11  7  1  0  0  0  0
 12 15  2  0  0  0  0
 13 35  1  0  0  0  0
 13  2  1  0  0  0  0
 14 13  2  0  0  0  0
 16  3  1  0  0  0  0
 17 16  1  0  0  0  0
 18 16  2  0  0  0  0
 19 23  1  0  0  0  0
 19 17  1  0  0  0  0
 20 23  2  0  0  0  0
 22 26  1  0  0  0  0
 23 21  1  0  0  0  0
 24 20  1  0  0  0  0
 25 21  1  0  0  0  0
 25 28  1  0  0  0  0
 26 25  1  0  0  0  0
 27 24  1  0  0  0  0
 27 22  1  0  0  0  0
 28 29  1  0  0  0  0
 29 30  1  0  0  0  0
 30 34  1  0  0  0  0
 31 33  2  0  0  0  0
 33 32  1  0  0  0  0
 34 33  1  0  0  0  0
 35 40  1  0  0  0  0
 37 43  1  6  0  0  0
 37 36  1  0  0  0  0
 38 40  1  0  0  0  0
 38 41  1  0  0  0  0
 39 36  1  0  0  0  0
 40 39  1  0  0  0  0
 41 37  1  0  0  0  0
 42 43  1  0  0  0  0
M  END
>  <MODEL>
1

>  <REMARK>
 VINA RESULT:      -7.6      0.000      0.000
  Name = 
  10 active torsions:
  status: ('A' for Active; 'I' for Inactive)
    1  A    between atoms: C_1  and  C_34
    2  A    between atoms: C_1  and  N_35
    3  A    between atoms: C_2  and  C_13
    4  A    between atoms: N_6  and  C_17
    5  A    between atoms: C_11  and  C_14
    6  A    between atoms: C_11  and  C_36
    7  A    between atoms: C_12  and  C_17
    8  A    between atoms: C_14  and  N_22
    9  A    between atoms: C_19  and  C_37
   10  A    between atoms: C_36  and  N_40
                            x       y       z     vdW  Elec       q    Type
                         _______ _______ _______ _____ _____    ______ ____

>  <TORSDO>
F 10

$$$$
=
 OpenBabel11052421153D

 43 47  0  0  1  0  0  0  0  0999 V2000
  185.4980  178.1310  146.8940 C   0  0  0  0  0  0  0  0  0  0  0  0
  187.8160  176.0250  143.2060 C   0  0  1  0  0  3  0  0  0  0  0  0
  190.6130  176.6260  143.3070 C   0  0  0  0  0  0  0  0  0  0  0  0
  185.8980  177.9010  144.4180 C   0  0  2  0  0  3  0  0  0  0  0  0
  186.9450  177.9510  147.2460 C   0  0  0  0  0  2  0  0  0  0  0  0
  184.7480  178.6910  147.6790 O   0  0  0  0  0  0  0  0  0  0  0  0
  187.4150  177.9340  144.7900 C   0  0  1  0  0  3  0  0  0  0  0  0
  184.9580  177.6040  145.5970 C   0  0  0  0  0  2  0  0  0  0  0  0
  187.6990  177.2380  146.1270 C   0  0  0  0  0  2  0  0  0  0  0  0
  189.7650  177.4090  143.9870 C   0  0  0  0  0  3  0  0  0  0  0  0
  188.3000  177.4080  143.6550 C   0  0  1  0  0  3  0  0  0  0  0  0
  186.4090  176.1490  142.6900 C   0  0  0  0  0  3  0  0  0  0  0  0
  188.7730  175.4240  142.1970 C   0  0  0  0  0  0  0  0  0  0  0  0
  190.0870  175.6720  142.3020 C   0  0  0  0  0  3  0  0  0  0  0  0
  185.5390  176.9960  143.2570 C   0  0  0  0  0  3  0  0  0  0  0  0
  192.0550  176.6730  143.6010 C   0  0  0  0  0  0  0  0  0  0  0  0
  192.9710  175.9440  142.7820 N   0  0  0  0  0  2  0  0  0  0  0  0
  192.4830  177.3640  144.5650 O   0  0  0  0  0  0  0  0  0  0  0  0
  194.4080  175.9690  142.9930 C   0  0  0  0  0  2  0  0  0  0  0  0
  196.2350  174.3600  143.2160 C   0  0  0  0  0  3  0  0  0  0  0  0
  193.9360  173.4330  143.1840 C   0  0  0  0  0  2  0  0  0  0  0  0
  195.3550  171.8980  145.1270 C   0  0  0  0  0  2  0  0  0  0  0  0
  194.9160  174.5700  143.0990 C   0  0  0  0  0  0  0  0  0  0  0  0
  196.8340  172.9920  143.3860 C   0  0  0  0  0  2  0  0  0  0  0  0
  193.3630  173.3220  144.5290 N   0  0  0  0  0  0  0  0  0  0  0  0
  194.3780  172.9990  145.5480 C   0  0  0  0  0  2  0  0  0  0  0  0
  196.7240  172.4950  144.8270 C   0  0  0  0  0  2  0  0  0  0  0  0
  192.3760  172.2510  144.5040 C   0  0  0  0  0  2  0  0  0  0  0  0
  191.0470  172.7790  143.9830 C   0  0  0  0  0  2  0  0  0  0  0  0
  190.1330  173.2090  145.1230 C   0  0  0  0  0  2  0  0  0  0  0  0
  189.0810  174.4020  147.5130 O   0  0  0  0  0  0  0  0  0  0  0  0
  190.8280  175.9980  147.7310 C   0  0  0  0  0  1  0  0  0  0  0  0
  190.1460  174.8740  147.0350 C   0  0  0  0  0  0  0  0  0  0  0  0
  190.6980  174.3550  145.8220 N   0  0  0  0  0  2  0  0  0  0  0  0
  188.3190  174.3700  141.2390 C   0  0  0  0  0  2  0  0  0  0  0  0
  188.9690  173.6760  137.6850 C   0  0  0  0  0  2  0  0  0  0  0  0
  189.2240  172.1960  137.9850 C   0  0  2  0  0  3  0  0  0  0  0  0
  190.0570  173.1680  140.1720 C   0  0  0  0  0  2  0  0  0  0  0  0
  188.3070  174.3530  138.8840 C   0  0  0  0  0  2  0  0  0  0  0  0
  189.1830  174.3540  140.0670 N   0  0  0  0  0  0  0  0  0  0  0  0
  189.4730  171.9310  139.4790 C   0  0  0  0  0  2  0  0  0  0  0  0
  190.3950  172.5250  135.5240 S   0  0  0  0  0  1  0  0  0  0  0  0
  190.3970  171.7100  137.1500 C   0  0  0  0  0  2  0  0  0  0  0  0
  1  5  1  0  0  0  0
  1  6  2  0  0  0  0
  2 12  1  6  0  0  0
  2 11  1  0  0  0  0
  3 16  1  0  0  0  0
  3 10  2  0  0  0  0
  4 15  1  6  0  0  0
  4  7  1  0  0  0  0
  4  8  1  0  0  0  0
  7  9  1  1  0  0  0
  8  1  1  0  0  0  0
  9  5  1  0  0  0  0
 11 10  1  1  0  0  0
 11  7  1  0  0  0  0
 12 15  2  0  0  0  0
 13 14  2  0  0  0  0
 13  2  1  0  0  0  0
 14  3  1  0  0  0  0
 16 18  2  0  0  0  0
 17 19  1  0  0  0  0
 17 16  1  0  0  0  0
 19 23  1  0  0  0  0
 20 24  1  0  0  0  0
 21 25  1  0  0  0  0
 22 26  1  0  0  0  0
 23 21  1  0  0  0  0
 23 20  2  0  0  0  0
 24 27  1  0  0  0  0
 25 26  1  0  0  0  0
 27 22  1  0  0  0  0
 28 25  1  0  0  0  0
 29 28  1  0  0  0  0
 29 30  1  0  0  0  0
 30 34  1  0  0  0  0
 33 31  2  0  0  0  0
 33 32  1  0  0  0  0
 34 33  1  0  0  0  0
 35 13  1  0  0  0  0
 36 37  1  0  0  0  0
 36 39  1  0  0  0  0
 37 43  1  6  0  0  0
 37 41  1  0  0  0  0
 39 40  1  0  0  0  0
 40 38  1  0  0  0  0
 40 35  1  0  0  0  0
 41 38  1  0  0  0  0
 42 43  1  0  0  0  0
M  END
>  <MODEL>
2

>  <REMARK>
 VINA RESULT:      -7.3      2.744      5.883
  Name = 
  10 active torsions:
  status: ('A' for Active; 'I' for Inactive)
    1  A    between atoms: C_1  and  C_34
    2  A    between atoms: C_1  and  N_35
    3  A    between atoms: C_2  and  C_13
    4  A    between atoms: N_6  and  C_17
    5  A    between atoms: C_11  and  C_14
    6  A    between atoms: C_11  and  C_36
    7  A    between atoms: C_12  and  C_17
    8  A    between atoms: C_14  and  N_22
    9  A    between atoms: C_19  and  C_37
   10  A    between atoms: C_36  and  N_40
                            x       y       z     vdW  Elec       q    Type
                         _______ _______ _______ _____ _____    ______ ____

>  <TORSDO>
F 10

$$$$
=
 OpenBabel11052421153D

 43 47  0  0  1  0  0  0  0  0999 V2000
  185.0190  178.3680  146.1570 C   0  0  0  0  0  0  0  0  0  0  0  0
  188.2870  175.7570  143.7240 C   0  0  1  0  0  3  0  0  0  0  0  0
  190.9360  176.4160  144.5830 C   0  0  0  0  0  0  0  0  0  0  0  0
  186.1480  177.7640  143.9880 C   0  0  2  0  0  3  0  0  0  0  0  0
  186.2830  178.2700  146.9580 C   0  0  0  0  0  2  0  0  0  0  0  0
  184.0830  179.0280  146.5790 O   0  0  0  0  0  0  0  0  0  0  0  0
  187.4800  177.8820  144.7980 C   0  0  1  0  0  3  0  0  0  0  0  0
  184.8850  177.6360  144.8530 C   0  0  0  0  0  2  0  0  0  0  0  0
  187.3200  177.4060  146.2460 C   0  0  0  0  0  2  0  0  0  0  0  0
  189.9450  177.2800  144.8430 C   0  0  0  0  0  3  0  0  0  0  0  0
  188.6520  177.2010  144.0820 C   0  0  1  0  0  3  0  0  0  0  0  0
  187.1090  175.7750  142.7890 C   0  0  0  0  0  3  0  0  0  0  0  0
  189.4860  175.0240  143.1600 C   0  0  0  0  0  0  0  0  0  0  0  0
  190.7130  175.3090  143.6230 C   0  0  0  0  0  3  0  0  0  0  0  0
  186.1330  176.6840  142.9260 C   0  0  0  0  0  3  0  0  0  0  0  0
  192.2210  176.5340  145.2940 C   0  0  0  0  0  0  0  0  0  0  0  0
  193.4350  176.6500  144.5500 N   0  0  0  0  0  2  0  0  0  0  0  0
  192.2490  176.5450  146.5550 O   0  0  0  0  0  0  0  0  0  0  0  0
  194.7340  176.8020  145.1830 C   0  0  0  0  0  2  0  0  0  0  0  0
  195.1600  174.4700  145.7800 C   0  0  0  0  0  3  0  0  0  0  0  0
  196.5780  175.4350  143.9900 C   0  0  0  0  0  2  0  0  0  0  0  0
  196.0110  172.7630  143.1640 C   0  0  0  0  0  2  0  0  0  0  0  0
  195.5050  175.5330  145.0390 C   0  0  0  0  0  0  0  0  0  0  0  0
  195.8400  173.1350  145.6630 C   0  0  0  0  0  2  0  0  0  0  0  0
  196.0030  175.2320  142.6570 N   0  0  0  0  0  0  0  0  0  0  0  0
  195.2760  173.9550  142.5460 C   0  0  0  0  0  2  0  0  0  0  0  0
  195.3340  172.3400  144.4600 C   0  0  0  0  0  2  0  0  0  0  0  0
  197.0990  175.2230  141.6980 C   0  0  0  0  0  2  0  0  0  0  0  0
  196.6910  175.9630  140.4320 C   0  0  0  0  0  2  0  0  0  0  0  0
  196.6720  175.0330  139.2250 C   0  0  0  0  0  2  0  0  0  0  0  0
  194.5400  173.1110  139.2260 O   0  0  0  0  0  0  0  0  0  0  0  0
  193.0830  174.4210  137.8820 C   0  0  0  0  0  1  0  0  0  0  0  0
  194.3720  174.1810  138.5840 C   0  0  0  0  0  0  0  0  0  0  0  0
  195.4120  175.1600  138.5060 N   0  0  0  0  0  2  0  0  0  0  0  0
  189.3150  173.8270  142.2810 C   0  0  0  0  0  2  0  0  0  0  0  0
  188.9200  173.7810  138.6250 C   0  0  0  0  0  2  0  0  0  0  0  0
  189.4190  172.3350  138.5540 C   0  0  2  0  0  3  0  0  0  0  0  0
  190.7670  173.0960  140.5600 C   0  0  0  0  0  2  0  0  0  0  0  0
  188.5860  174.1560  140.0670 C   0  0  0  0  0  2  0  0  0  0  0  0
  189.7750  174.1260  140.9330 N   0  0  0  0  0  0  0  0  0  0  0  0
  190.1420  171.8970  139.8390 C   0  0  0  0  0  2  0  0  0  0  0  0
  191.3910  170.7140  137.5440 S   0  0  0  0  0  1  0  0  0  0  0  0
  190.3280  172.1760  137.3460 C   0  0  0  0  0  2  0  0  0  0  0  0
  1  6  2  0  0  0  0
  1  5  1  0  0  0  0
  2 12  1  6  0  0  0
  2 11  1  0  0  0  0
  3 10  2  0  0  0  0
  3 16  1  0  0  0  0
  4 15  1  6  0  0  0
  4  7  1  0  0  0  0
  4  8  1  0  0  0  0
  7  9  1  1  0  0  0
  8  1  1  0  0  0  0
  9  5  1  0  0  0  0
 11  7  1  0  0  0  0
 11 10  1  1  0  0  0
 12 15  2  0  0  0  0
 13 14  2  0  0  0  0
 13  2  1  0  0  0  0
 14  3  1  0  0  0  0
 16 18  2  0  0  0  0
 17 19  1  0  0  0  0
 17 16  1  0  0  0  0
 21 23  1  0  0  0  0
 22 27  1  0  0  0  0
 23 19  1  0  0  0  0
 23 20  2  0  0  0  0
 24 20  1  0  0  0  0
 25 21  1  0  0  0  0
 26 25  1  0  0  0  0
 26 22  1  0  0  0  0
 27 24  1  0  0  0  0
 28 25  1  0  0  0  0
 29 28  1  0  0  0  0
 30 29  1  0  0  0  0
 32 33  1  0  0  0  0
 33 31  2  0  0  0  0
 34 33  1  0  0  0  0
 34 30  1  0  0  0  0
 35 13  1  0  0  0  0
 36 39  1  0  0  0  0
 37 43  1  6  0  0  0
 37 36  1  0  0  0  0
 37 41  1  0  0  0  0
 38 40  1  0  0  0  0
 39 40  1  0  0  0  0
 40 35  1  0  0  0  0
 41 38  1  0  0  0  0
 43 42  1  0  0  0  0
M  END
>  <MODEL>
3

>  <REMARK>
 VINA RESULT:      -7.0      2.873      6.466
  Name = 
  10 active torsions:
  status: ('A' for Active; 'I' for Inactive)
    1  A    between atoms: C_1  and  C_34
    2  A    between atoms: C_1  and  N_35
    3  A    between atoms: C_2  and  C_13
    4  A    between atoms: N_6  and  C_17
    5  A    between atoms: C_11  and  C_14
    6  A    between atoms: C_11  and  C_36
    7  A    between atoms: C_12  and  C_17
    8  A    between atoms: C_14  and  N_22
    9  A    between atoms: C_19  and  C_37
   10  A    between atoms: C_36  and  N_40
                            x       y       z     vdW  Elec       q    Type
                         _______ _______ _______ _____ _____    ______ ____

>  <TORSDO>
F 10

$$$$
=
 OpenBabel11052421153D

 43 47  0  0  1  0  0  0  0  0999 V2000
  185.0120  178.5670  145.2680 C   0  0  0  0  0  0  0  0  0  0  0  0
  189.1660  176.6560  143.6830 C   0  0  1  0  0  3  0  0  0  0  0  0
  188.6550  174.6410  141.7160 C   0  0  0  0  0  0  0  0  0  0  0  0
  187.1100  177.2430  145.7070 C   0  0  2  0  0  3  0  0  0  0  0  0
  184.8080  177.9800  143.9030 C   0  0  0  0  0  2  0  0  0  0  0  0
  184.0670  179.0590  145.8640 O   0  0  0  0  0  0  0  0  0  0  0  0
  186.7580  176.4900  144.3840 C   0  0  1  0  0  3  0  0  0  0  0  0
  186.3760  178.5800  145.8950 C   0  0  0  0  0  2  0  0  0  0  0  0
  186.1120  177.4150  143.3450 C   0  0  0  0  0  2  0  0  0  0  0  0
  187.6590  175.0010  142.5370 C   0  0  0  0  0  3  0  0  0  0  0  0
  187.9580  175.7220  143.8200 C   0  0  1  0  0  3  0  0  0  0  0  0
  189.5340  177.1730  145.0460 C   0  0  0  0  0  3  0  0  0  0  0  0
  190.3100  175.9540  142.9810 C   0  0  0  0  0  0  0  0  0  0  0  0
  190.0450  175.0570  142.0190 C   0  0  0  0  0  3  0  0  0  0  0  0
  188.5900  177.4510  145.9570 C   0  0  0  0  0  3  0  0  0  0  0  0
  188.3590  173.8850  140.4870 C   0  0  0  0  0  0  0  0  0  0  0  0
  188.4970  174.5180  139.2140 N   0  0  0  0  0  2  0  0  0  0  0  0
  187.9950  172.6790  140.5560 O   0  0  0  0  0  0  0  0  0  0  0  0
  188.2530  173.8260  137.9590 C   0  0  0  0  0  2  0  0  0  0  0  0
  190.0690  174.4160  136.4320 C   0  0  0  0  0  3  0  0  0  0  0  0
  190.3250  172.3000  137.6980 C   0  0  0  0  0  2  0  0  0  0  0  0
  192.9230  173.4810  137.6430 C   0  0  0  0  0  2  0  0  0  0  0  0
  189.5580  173.5300  137.2980 C   0  0  0  0  0  0  0  0  0  0  0  0
  191.4020  174.2310  135.7620 C   0  0  0  0  0  2  0  0  0  0  0  0
  191.0220  172.4970  138.9730 N   0  0  0  0  0  0  0  0  0  0  0  0
  192.0480  173.5510  138.8970 C   0  0  0  0  0  2  0  0  0  0  0  0
  192.5620  174.6070  136.6830 C   0  0  0  0  0  2  0  0  0  0  0  0
  191.6740  171.2410  139.3200 C   0  0  0  0  0  2  0  0  0  0  0  0
  190.8140  170.4600  140.3030 C   0  0  0  0  0  2  0  0  0  0  0  0
  191.3920  170.5110  141.7110 C   0  0  0  0  0  2  0  0  0  0  0  0
  192.0750  171.4040  144.3530 O   0  0  0  0  0  0  0  0  0  0  0  0
  190.0950  172.6850  144.6540 C   0  0  0  0  0  1  0  0  0  0  0  0
  190.9760  171.7800  143.8660 C   0  0  0  0  0  0  0  0  0  0  0  0
  190.5560  171.3340  142.5740 N   0  0  0  0  0  2  0  0  0  0  0  0
  191.7220  176.4120  143.1620 C   0  0  0  0  0  2  0  0  0  0  0  0
  194.1390  175.1580  145.6350 C   0  0  0  0  0  2  0  0  0  0  0  0
  195.3140  175.6710  144.7970 C   0  0  2  0  0  3  0  0  0  0  0  0
  193.7090  175.1510  142.9070 C   0  0  0  0  0  2  0  0  0  0  0  0
  192.8290  175.7660  145.1370 C   0  0  0  0  0  2  0  0  0  0  0  0
  192.5190  175.3500  143.7590 N   0  0  0  0  0  0  0  0  0  0  0  0
  194.9100  175.9940  143.3490 C   0  0  0  0  0  2  0  0  0  0  0  0
  197.6540  175.0070  143.5260 S   0  0  0  0  0  1  0  0  0  0  0  0
  196.4350  174.6450  144.8260 C   0  0  0  0  0  2  0  0  0  0  0  0
  1  6  2  0  0  0  0
  1  8  1  0  0  0  0
  2 11  1  0  0  0  0
  2 12  1  1  0  0  0
  3 14  1  0  0  0  0
  3 10  2  0  0  0  0
  4  8  1  6  0  0  0
  4 15  1  0  0  0  0
  5  1  1  0  0  0  0
  7  9  1  6  0  0  0
  7  4  1  0  0  0  0
  9  5  1  0  0  0  0
 11 10  1  6  0  0  0
 11  7  1  0  0  0  0
 12 15  2  0  0  0  0
 13 35  1  0  0  0  0
 13  2  1  0  0  0  0
 14 13  2  0  0  0  0
 16 18  2  0  0  0  0
 16  3  1  0  0  0  0
 17 16  1  0  0  0  0
 19 17  1  0  0  0  0
 20 23  2  0  0  0  0
 21 25  1  0  0  0  0
 22 26  1  0  0  0  0
 23 21  1  0  0  0  0
 23 19  1  0  0  0  0
 24 20  1  0  0  0  0
 24 27  1  0  0  0  0
 25 28  1  0  0  0  0
 26 25  1  0  0  0  0
 27 22  1  0  0  0  0
 28 29  1  0  0  0  0
 29 30  1  0  0  0  0
 30 34  1  0  0  0  0
 33 31  2  0  0  0  0
 33 32  1  0  0  0  0
 34 33  1  0  0  0  0
 35 40  1  0  0  0  0
 37 43  1  6  0  0  0
 37 36  1  0  0  0  0
 38 41  1  0  0  0  0
 38 40  1  0  0  0  0
 39 36  1  0  0  0  0
 40 39  1  0  0  0  0
 41 37  1  0  0  0  0
 42 43  1  0  0  0  0
M  END
>  <MODEL>
4

>  <REMARK>
 VINA RESULT:      -6.9      1.669      2.103
  Name = 
  10 active torsions:
  status: ('A' for Active; 'I' for Inactive)
    1  A    between atoms: C_1  and  C_34
    2  A    between atoms: C_1  and  N_35
    3  A    between atoms: C_2  and  C_13
    4  A    between atoms: N_6  and  C_17
    5  A    between atoms: C_11  and  C_14
    6  A    between atoms: C_11  and  C_36
    7  A    between atoms: C_12  and  C_17
    8  A    between atoms: C_14  and  N_22
    9  A    between atoms: C_19  and  C_37
   10  A    between atoms: C_36  and  N_40
                            x       y       z     vdW  Elec       q    Type
                         _______ _______ _______ _____ _____    ______ ____

>  <TORSDO>
F 10

$$$$
=
 OpenBabel11052421153D

 43 47  0  0  1  0  0  0  0  0999 V2000
  185.9100  178.8370  144.2770 C   0  0  0  0  0  0  0  0  0  0  0  0
  187.9430  175.3910  141.5550 C   0  0  1  0  0  3  0  0  0  0  0  0
  189.9070  173.9530  143.0600 C   0  0  0  0  0  0  0  0  0  0  0  0
  187.3150  178.1710  142.2950 C   0  0  2  0  0  3  0  0  0  0  0  0
  186.4680  177.7600  145.1600 C   0  0  0  0  0  2  0  0  0  0  0  0
  185.3950  179.8240  144.7760 O   0  0  0  0  0  0  0  0  0  0  0  0
  188.0340  177.2050  143.2910 C   0  0  1  0  0  3  0  0  0  0  0  0
  185.9560  178.6960  142.7830 C   0  0  0  0  0  2  0  0  0  0  0  0
  187.0700  176.6270  144.3340 C   0  0  0  0  0  2  0  0  0  0  0  0
  189.5240  175.1610  143.4960 C   0  0  0  0  0  3  0  0  0  0  0  0
  188.8340  176.1180  142.5660 C   0  0  1  0  0  3  0  0  0  0  0  0
  187.4610  176.3840  140.5330 C   0  0  0  0  0  3  0  0  0  0  0  0
  188.6740  174.2130  140.9450 C   0  0  0  0  0  0  0  0  0  0  0  0
  189.5450  173.5170  141.6900 C   0  0  0  0  0  3  0  0  0  0  0  0
  187.1640  177.6440  140.8820 C   0  0  0  0  0  3  0  0  0  0  0  0
  190.6310  173.0410  143.9620 C   0  0  0  0  0  0  0  0  0  0  0  0
  192.0120  172.7580  143.7260 N   0  0  0  0  0  2  0  0  0  0  0  0
  190.0390  172.5200  144.9460 O   0  0  0  0  0  0  0  0  0  0  0  0
  192.7980  171.8950  144.5910 C   0  0  0  0  0  2  0  0  0  0  0  0
  195.2000  172.1560  144.9620 C   0  0  0  0  0  3  0  0  0  0  0  0
  193.7510  174.0220  145.7140 C   0  0  0  0  0  2  0  0  0  0  0  0
  196.0760  175.2530  144.6080 C   0  0  0  0  0  2  0  0  0  0  0  0
  193.9670  172.6580  145.1180 C   0  0  0  0  0  0  0  0  0  0  0  0
  196.4400  172.8790  145.4080 C   0  0  0  0  0  2  0  0  0  0  0  0
  193.5660  175.0360  144.6710 N   0  0  0  0  0  0  0  0  0  0  0  0
  194.7610  175.1990  143.8250 C   0  0  0  0  0  2  0  0  0  0  0  0
  196.8590  173.9620  144.4160 C   0  0  0  0  0  2  0  0  0  0  0  0
  193.2900  176.3050  145.3300 C   0  0  0  0  0  2  0  0  0  0  0  0
  193.4890  176.1670  146.8330 C   0  0  0  0  0  2  0  0  0  0  0  0
  192.3210  176.7650  147.6060 C   0  0  0  0  0  2  0  0  0  0  0  0
  189.6860  177.0710  146.5060 O   0  0  0  0  0  0  0  0  0  0  0  0
  188.9260  174.9280  147.1960 C   0  0  0  0  0  1  0  0  0  0  0  0
  189.9570  175.9970  147.1050 C   0  0  0  0  0  0  0  0  0  0  0  0
  191.2350  175.8000  147.7150 N   0  0  0  0  0  2  0  0  0  0  0  0
  188.2690  173.6590  139.6160 C   0  0  0  0  0  2  0  0  0  0  0  0
  189.5700  173.8170  136.1790 C   0  0  0  0  0  2  0  0  0  0  0  0
  189.6350  172.2900  136.0970 C   0  0  2  0  0  3  0  0  0  0  0  0
  190.0820  172.5480  138.5770 C   0  0  0  0  0  2  0  0  0  0  0  0
  188.7360  174.2470  137.3840 C   0  0  0  0  0  2  0  0  0  0  0  0
  189.3500  173.8280  138.6550 N   0  0  0  0  0  0  0  0  0  0  0  0
  189.5520  171.6200  137.4780 C   0  0  0  0  0  2  0  0  0  0  0  0
  191.3560  170.1700  135.8080 S   0  0  0  0  0  1  0  0  0  0  0  0
  190.9090  171.8800  135.3770 C   0  0  0  0  0  2  0  0  0  0  0  0
  1  6  2  0  0  0  0
  1  5  1  0  0  0  0
  2 12  1  6  0  0  0
  2 11  1  0  0  0  0
  3 10  2  0  0  0  0
  3 16  1  0  0  0  0
  4 15  1  6  0  0  0
  4  8  1  0  0  0  0
  4  7  1  0  0  0  0
  7  9  1  1  0  0  0
  8  1  1  0  0  0  0
  9  5  1  0  0  0  0
 11  7  1  0  0  0  0
 11 10  1  1  0  0  0
 12 15  2  0  0  0  0
 13  2  1  0  0  0  0
 13 14  2  0  0  0  0
 14  3  1  0  0  0  0
 16 18  2  0  0  0  0
 17 16  1  0  0  0  0
 17 19  1  0  0  0  0
 19 23  1  0  0  0  0
 20 23  2  0  0  0  0
 20 24  1  0  0  0  0
 23 21  1  0  0  0  0
 25 28  1  0  0  0  0
 25 21  1  0  0  0  0
 26 22  1  0  0  0  0
 26 25  1  0  0  0  0
 27 22  1  0  0  0  0
 27 24  1  0  0  0  0
 28 29  1  0  0  0  0
 29 30  1  0  0  0  0
 30 34  1  0  0  0  0
 31 33  2  0  0  0  0
 33 32  1  0  0  0  0
 33 34  1  0  0  0  0
 35 13  1  0  0  0  0
 36 39  1  0  0  0  0
 37 43  1  1  0  0  0
 37 36  1  0  0  0  0
 37 41  1  0  0  0  0
 38 40  1  0  0  0  0
 39 40  1  0  0  0  0
 40 35  1  0  0  0  0
 41 38  1  0  0  0  0
 43 42  1  0  0  0  0
M  END
>  <MODEL>
5

>  <REMARK>
 VINA RESULT:      -6.9      2.639      6.579
  Name = 
  10 active torsions:
  status: ('A' for Active; 'I' for Inactive)
    1  A    between atoms: C_1  and  C_34
    2  A    between atoms: C_1  and  N_35
    3  A    between atoms: C_2  and  C_13
    4  A    between atoms: N_6  and  C_17
    5  A    between atoms: C_11  and  C_14
    6  A    between atoms: C_11  and  C_36
    7  A    between atoms: C_12  and  C_17
    8  A    between atoms: C_14  and  N_22
    9  A    between atoms: C_19  and  C_37
   10  A    between atoms: C_36  and  N_40
                            x       y       z     vdW  Elec       q    Type
                         _______ _______ _______ _____ _____    ______ ____

>  <TORSDO>
F 10

$$$$
=
 OpenBabel11052421153D

 43 47  0  0  1  0  0  0  0  0999 V2000
  185.4500  178.0640  146.9830 C   0  0  0  0  0  0  0  0  0  0  0  0
  188.3440  175.7070  143.9040 C   0  0  1  0  0  3  0  0  0  0  0  0
  191.0800  176.4130  144.3610 C   0  0  0  0  0  0  0  0  0  0  0  0
  186.2260  177.6190  144.6280 C   0  0  2  0  0  3  0  0  0  0  0  0
  186.8300  177.9680  147.5620 C   0  0  0  0  0  2  0  0  0  0  0  0
  184.5790  178.6670  147.5890 O   0  0  0  0  0  0  0  0  0  0  0  0
  187.6680  177.7400  145.2180 C   0  0  1  0  0  3  0  0  0  0  0  0
  185.1240  177.4000  145.6760 C   0  0  0  0  0  2  0  0  0  0  0  0
  187.7600  177.1810  146.6420 C   0  0  0  0  0  2  0  0  0  0  0  0
  190.1230  177.2250  144.8290 C   0  0  0  0  0  3  0  0  0  0  0  0
  188.7260  177.1420  144.2840 C   0  0  1  0  0  3  0  0  0  0  0  0
  187.0300  175.7330  143.1740 C   0  0  0  0  0  3  0  0  0  0  0  0
  189.4550  175.0490  143.1110 C   0  0  0  0  0  0  0  0  0  0  0  0
  190.7330  175.3510  143.3860 C   0  0  0  0  0  3  0  0  0  0  0  0
  186.0660  176.5980  143.5200 C   0  0  0  0  0  3  0  0  0  0  0  0
  192.4600  176.5380  144.8610 C   0  0  0  0  0  0  0  0  0  0  0  0
  192.9860  175.5480  145.7470 N   0  0  0  0  0  2  0  0  0  0  0  0
  193.1800  177.5090  144.5000 O   0  0  0  0  0  0  0  0  0  0  0  0
  194.3480  175.5890  146.2540 C   0  0  0  0  0  2  0  0  0  0  0  0
  196.3250  174.1600  146.0950 C   0  0  0  0  0  3  0  0  0  0  0  0
  194.6270  173.9100  144.3060 C   0  0  0  0  0  2  0  0  0  0  0  0
  195.5420  171.2660  144.8720 C   0  0  0  0  0  2  0  0  0  0  0  0
  195.1670  174.5590  145.5510 C   0  0  0  0  0  0  0  0  0  0  0  0
  197.1880  173.0890  145.4900 C   0  0  0  0  0  2  0  0  0  0  0  0
  193.6270  172.8870  144.6290 N   0  0  0  0  0  0  0  0  0  0  0  0
  194.1960  171.7680  145.4010 C   0  0  0  0  0  2  0  0  0  0  0  0
  196.6670  171.6880  145.8070 C   0  0  0  0  0  2  0  0  0  0  0  0
  193.1050  172.3650  143.3740 C   0  0  0  0  0  2  0  0  0  0  0  0
  192.1050  171.2500  143.6470 C   0  0  0  0  0  2  0  0  0  0  0  0
  192.2450  170.1170  142.6390 C   0  0  0  0  0  2  0  0  0  0  0  0
  191.7620  169.3710  139.9090 O   0  0  0  0  0  0  0  0  0  0  0  0
  193.4940  170.7310  139.0150 C   0  0  0  0  0  1  0  0  0  0  0  0
  192.6990  170.1780  140.1450 C   0  0  0  0  0  0  0  0  0  0  0  0
  193.0210  170.5550  141.4860 N   0  0  0  0  0  2  0  0  0  0  0  0
  189.1740  173.8950  142.2030 C   0  0  0  0  0  2  0  0  0  0  0  0
  188.5440  174.1590  138.5880 C   0  0  0  0  0  2  0  0  0  0  0  0
  188.8170  172.6650  138.3970 C   0  0  2  0  0  3  0  0  0  0  0  0
  190.3880  173.0830  140.3400 C   0  0  0  0  0  2  0  0  0  0  0  0
  188.3620  174.4780  140.0710 C   0  0  0  0  0  2  0  0  0  0  0  0
  189.5870  174.2170  140.8440 N   0  0  0  0  0  0  0  0  0  0  0  0
  189.5470  172.0390  139.5970 C   0  0  0  0  0  2  0  0  0  0  0  0
  190.0730  170.7100  136.9350 S   0  0  0  0  0  1  0  0  0  0  0  0
  189.6130  172.4600  137.1180 C   0  0  0  0  0  2  0  0  0  0  0  0
  1  5  1  0  0  0  0
  1  6  2  0  0  0  0
  2 12  1  6  0  0  0
  2 11  1  0  0  0  0
  3 10  2  0  0  0  0
  3 16  1  0  0  0  0
  4 15  1  6  0  0  0
  4  7  1  0  0  0  0
  4  8  1  0  0  0  0
  7  9  1  1  0  0  0
  8  1  1  0  0  0  0
  9  5  1  0  0  0  0
 11 10  1  1  0  0  0
 11  7  1  0  0  0  0
 12 15  2  0  0  0  0
 13 14  2  0  0  0  0
 13  2  1  0  0  0  0
 14  3  1  0  0  0  0
 16 17  1  0  0  0  0
 17 19  1  0  0  0  0
 18 16  2  0  0  0  0
 21 25  1  0  0  0  0
 21 23  1  0  0  0  0
 22 26  1  0  0  0  0
 22 27  1  0  0  0  0
 23 20  2  0  0  0  0
 23 19  1  0  0  0  0
 24 27  1  0  0  0  0
 24 20  1  0  0  0  0
 25 26  1  0  0  0  0
 28 29  1  0  0  0  0
 28 25  1  0  0  0  0
 30 29  1  0  0  0  0
 31 33  2  0  0  0  0
 32 33  1  0  0  0  0
 33 34  1  0  0  0  0
 34 30  1  0  0  0  0
 35 13  1  0  0  0  0
 36 39  1  0  0  0  0
 37 43  1  6  0  0  0
 37 36  1  0  0  0  0
 37 41  1  0  0  0  0
 38 40  1  0  0  0  0
 39 40  1  0  0  0  0
 40 35  1  0  0  0  0
 41 38  1  0  0  0  0
 42 43  1  0  0  0  0
M  END
>  <MODEL>
6

>  <REMARK>
 VINA RESULT:      -6.9      2.567      6.270
  Name = 
  10 active torsions:
  status: ('A' for Active; 'I' for Inactive)
    1  A    between atoms: C_1  and  C_34
    2  A    between atoms: C_1  and  N_35
    3  A    between atoms: C_2  and  C_13
    4  A    between atoms: N_6  and  C_17
    5  A    between atoms: C_11  and  C_14
    6  A    between atoms: C_11  and  C_36
    7  A    between atoms: C_12  and  C_17
    8  A    between atoms: C_14  and  N_22
    9  A    between atoms: C_19  and  C_37
   10  A    between atoms: C_36  and  N_40
                            x       y       z     vdW  Elec       q    Type
                         _______ _______ _______ _____ _____    ______ ____

>  <TORSDO>
F 10

$$$$
=
 OpenBabel11052421153D

 43 47  0  0  1  0  0  0  0  0999 V2000
  195.1030  175.1200  144.2800 C   0  0  0  0  0  0  0  0  0  0  0  0
  191.4320  172.6660  142.3000 C   0  0  1  0  0  3  0  0  0  0  0  0
  189.1080  174.3250  142.1040 C   0  0  0  0  0  0  0  0  0  0  0  0
  193.4340  173.2350  144.3820 C   0  0  2  0  0  3  0  0  0  0  0  0
  194.1310  176.0800  143.6610 C   0  0  0  0  0  2  0  0  0  0  0  0
  196.0800  175.5450  144.8750 O   0  0  0  0  0  0  0  0  0  0  0  0
  192.3870  174.3100  143.9430 C   0  0  1  0  0  3  0  0  0  0  0  0
  194.8980  173.6380  144.1490 C   0  0  0  0  0  2  0  0  0  0  0  0
  192.9850  175.3390  142.9770 C   0  0  0  0  0  2  0  0  0  0  0  0
  190.0800  174.6820  142.9550 C   0  0  0  0  0  3  0  0  0  0  0  0
  191.1010  173.6760  143.4040 C   0  0  1  0  0  3  0  0  0  0  0  0
  192.2880  171.5760  142.8830 C   0  0  0  0  0  3  0  0  0  0  0  0
  190.1660  172.1490  141.6480 C   0  0  0  0  0  0  0  0  0  0  0  0
  189.1100  172.9650  141.5140 C   0  0  0  0  0  3  0  0  0  0  0  0
  193.2070  171.8470  143.8210 C   0  0  0  0  0  3  0  0  0  0  0  0
  188.0780  175.3020  141.7120 C   0  0  0  0  0  0  0  0  0  0  0  0
  187.1180  175.7460  142.6730 N   0  0  0  0  0  2  0  0  0  0  0  0
  188.0490  175.7550  140.5360 O   0  0  0  0  0  0  0  0  0  0  0  0
  186.0950  176.7310  142.3670 C   0  0  0  0  0  2  0  0  0  0  0  0
  185.0450  178.6470  143.4640 C   0  0  0  0  0  3  0  0  0  0  0  0
  186.9420  177.5860  144.6560 C   0  0  0  0  0  2  0  0  0  0  0  0
  185.0430  178.2570  146.6780 C   0  0  0  0  0  2  0  0  0  0  0  0
  186.0120  177.7190  143.4820 C   0  0  0  0  0  0  0  0  0  0  0  0
  184.8480  179.6460  144.5690 C   0  0  0  0  0  2  0  0  0  0  0  0
  186.5020  176.5270  145.5690 N   0  0  0  0  0  0  0  0  0  0  0  0
  185.1920  176.8180  146.1790 C   0  0  0  0  0  2  0  0  0  0  0  0
  184.1110  179.0400  145.7630 C   0  0  0  0  0  2  0  0  0  0  0  0
  187.4920  176.4160  146.6320 C   0  0  0  0  0  2  0  0  0  0  0  0
  188.7190  175.6720  146.1260 C   0  0  0  0  0  2  0  0  0  0  0  0
  189.6440  175.2800  147.2710 C   0  0  0  0  0  2  0  0  0  0  0  0
  191.4880  177.1690  148.4000 O   0  0  0  0  0  0  0  0  0  0  0  0
  193.3450  176.4390  147.1090 C   0  0  0  0  0  1  0  0  0  0  0  0
  191.9150  176.3820  147.5140 C   0  0  0  0  0  0  0  0  0  0  0  0
  191.0370  175.4490  146.8790 N   0  0  0  0  0  2  0  0  0  0  0  0
  190.1480  170.8340  140.9360 C   0  0  0  0  0  2  0  0  0  0  0  0
  190.1020  170.4150  137.2820 C   0  0  0  0  0  2  0  0  0  0  0  0
  190.5410  168.9530  137.4100 C   0  0  2  0  0  3  0  0  0  0  0  0
  191.7230  169.8760  139.4520 C   0  0  0  0  0  2  0  0  0  0  0  0
  189.6490  170.9520  138.6380 C   0  0  0  0  0  2  0  0  0  0  0  0
  190.7480  170.9730  139.6170 N   0  0  0  0  0  0  0  0  0  0  0  0
  191.1170  168.6290  138.7980 C   0  0  0  0  0  2  0  0  0  0  0  0
  191.8530  170.1050  135.2920 S   0  0  0  0  0  1  0  0  0  0  0  0
  191.5520  168.6360  136.3210 C   0  0  0  0  0  2  0  0  0  0  0  0
  1  6  2  0  0  0  0
  2 12  1  1  0  0  0
  2 11  1  0  0  0  0
  3 10  2  0  0  0  0
  4 15  1  6  0  0  0
  5  1  1  0  0  0  0
  7  9  1  6  0  0  0
  7  4  1  0  0  0  0
  8  1  1  0  0  0  0
  8  4  1  0  0  0  0
  9  5  1  0  0  0  0
 11 10  1  6  0  0  0
 11  7  1  0  0  0  0
 12 15  2  0  0  0  0
 13  2  1  0  0  0  0
 14 13  2  0  0  0  0
 14  3  1  0  0  0  0
 16  3  1  0  0  0  0
 16 17  1  0  0  0  0
 18 16  2  0  0  0  0
 19 17  1  0  0  0  0
 19 23  1  0  0  0  0
 20 23  2  0  0  0  0
 20 24  1  0  0  0  0
 21 25  1  0  0  0  0
 23 21  1  0  0  0  0
 24 27  1  0  0  0  0
 25 26  1  0  0  0  0
 25 28  1  0  0  0  0
 26 22  1  0  0  0  0
 27 22  1  0  0  0  0
 29 28  1  0  0  0  0
 29 30  1  0  0  0  0
 32 33  1  0  0  0  0
 33 31  2  0  0  0  0
 34 30  1  0  0  0  0
 34 33  1  0  0  0  0
 35 13  1  0  0  0  0
 36 37  1  0  0  0  0
 36 39  1  0  0  0  0
 37 43  1  6  0  0  0
 37 41  1  0  0  0  0
 38 40  1  0  0  0  0
 39 40  1  0  0  0  0
 40 35  1  0  0  0  0
 41 38  1  0  0  0  0
 42 43  1  0  0  0  0
M  END
>  <MODEL>
7

>  <REMARK>
 VINA RESULT:      -6.8      2.931      8.524
  Name = 
  10 active torsions:
  status: ('A' for Active; 'I' for Inactive)
    1  A    between atoms: C_1  and  C_34
    2  A    between atoms: C_1  and  N_35
    3  A    between atoms: C_2  and  C_13
    4  A    between atoms: N_6  and  C_17
    5  A    between atoms: C_11  and  C_14
    6  A    between atoms: C_11  and  C_36
    7  A    between atoms: C_12  and  C_17
    8  A    between atoms: C_14  and  N_22
    9  A    between atoms: C_19  and  C_37
   10  A    between atoms: C_36  and  N_40
                            x       y       z     vdW  Elec       q    Type
                         _______ _______ _______ _____ _____    ______ ____

>  <TORSDO>
F 10

$$$$
=
 OpenBabel11052421153D

 43 47  0  0  1  0  0  0  0  0999 V2000
  184.6820  178.6260  145.5390 C   0  0  0  0  0  0  0  0  0  0  0  0
  188.9550  176.9090  144.0540 C   0  0  1  0  0  3  0  0  0  0  0  0
  188.6050  175.1240  141.8440 C   0  0  0  0  0  0  0  0  0  0  0  0
  186.7560  177.2650  145.9780 C   0  0  2  0  0  3  0  0  0  0  0  0
  184.5810  178.1930  144.1060 C   0  0  0  0  0  2  0  0  0  0  0  0
  183.6930  179.0470  146.1170 O   0  0  0  0  0  0  0  0  0  0  0  0
  186.5060  176.6620  144.5580 C   0  0  1  0  0  3  0  0  0  0  0  0
  185.9980  178.5710  146.2600 C   0  0  0  0  0  2  0  0  0  0  0  0
  185.9260  177.6960  143.5850 C   0  0  0  0  0  2  0  0  0  0  0  0
  187.5500  175.3890  142.6270 C   0  0  0  0  0  3  0  0  0  0  0  0
  187.7500  175.9640  144.0000 C   0  0  1  0  0  3  0  0  0  0  0  0
  189.2210  177.2720  145.4890 C   0  0  0  0  0  3  0  0  0  0  0  0
  190.1530  176.2910  143.3620 C   0  0  0  0  0  0  0  0  0  0  0  0
  189.9660  175.5060  142.2900 C   0  0  0  0  0  3  0  0  0  0  0  0
  188.2120  177.4460  146.3540 C   0  0  0  0  0  3  0  0  0  0  0  0
  188.4030  174.5090  140.5210 C   0  0  0  0  0  0  0  0  0  0  0  0
  188.6880  173.1220  140.3320 N   0  0  0  0  0  2  0  0  0  0  0  0
  187.9700  175.2010  139.5600 O   0  0  0  0  0  0  0  0  0  0  0  0
  188.4820  172.4410  139.0650 C   0  0  0  0  0  2  0  0  0  0  0  0
  189.6380  170.5490  138.0360 C   0  0  0  0  0  3  0  0  0  0  0  0
  191.0650  172.3620  138.9420 C   0  0  0  0  0  2  0  0  0  0  0  0
  192.3150  171.5430  136.5100 C   0  0  0  0  0  2  0  0  0  0  0  0
  189.7310  171.7170  138.6860 C   0  0  0  0  0  0  0  0  0  0  0  0
  190.8380  169.7760  137.5640 C   0  0  0  0  0  2  0  0  0  0  0  0
  191.3620  173.3890  137.9380 N   0  0  0  0  0  0  0  0  0  0  0  0
  191.4870  172.8290  136.5800 C   0  0  0  0  0  2  0  0  0  0  0  0
  191.4090  170.3450  136.2650 C   0  0  0  0  0  2  0  0  0  0  0  0
  192.6280  174.0100  138.3000 C   0  0  0  0  0  2  0  0  0  0  0  0
  193.0840  173.5090  139.6630 C   0  0  0  0  0  2  0  0  0  0  0  0
  194.5450  173.8560  139.9230 C   0  0  0  0  0  2  0  0  0  0  0  0
  196.8650  175.5380  139.7510 O   0  0  0  0  0  0  0  0  0  0  0  0
  197.0170  175.4350  137.3820 C   0  0  0  0  0  1  0  0  0  0  0  0
  196.3720  175.0980  138.6790 C   0  0  0  0  0  0  0  0  0  0  0  0
  195.1910  174.2920  138.6930 N   0  0  0  0  0  2  0  0  0  0  0  0
  191.5440  176.7290  143.6920 C   0  0  0  0  0  2  0  0  0  0  0  0
  194.0200  175.2730  145.9900 C   0  0  0  0  0  2  0  0  0  0  0  0
  195.1740  175.7350  145.0950 C   0  0  2  0  0  3  0  0  0  0  0  0
  193.4330  175.3580  143.2940 C   0  0  0  0  0  2  0  0  0  0  0  0
  192.7230  175.9700  145.5840 C   0  0  0  0  0  2  0  0  0  0  0  0
  192.3090  175.6070  144.2190 N   0  0  0  0  0  0  0  0  0  0  0  0
  194.7070  176.1170  143.6810 C   0  0  0  0  0  2  0  0  0  0  0  0
  195.5050  173.0380  145.4830 S   0  0  0  0  0  1  0  0  0  0  0  0
  196.2300  174.6440  145.0350 C   0  0  0  0  0  2  0  0  0  0  0  0
  1  6  2  0  0  0  0
  1  8  1  0  0  0  0
  2 12  1  1  0  0  0
  3 14  1  0  0  0  0
  3 10  2  0  0  0  0
  4  8  1  6  0  0  0
  4 15  1  0  0  0  0
  5  1  1  0  0  0  0
  7  9  1  6  0  0  0
  7  4  1  0  0  0  0
  9  5  1  0  0  0  0
 11 10  1  6  0  0  0
 11  2  1  0  0  0  0
 11  7  1  0  0  0  0
 12 15  2  0  0  0  0
 13 35  1  0  0  0  0
 13  2  1  0  0  0  0
 14 13  2  0  0  0  0
 16  3  1  0  0  0  0
 17 16  1  0  0  0  0
 18 16  2  0  0  0  0
 19 17  1  0  0  0  0
 20 23  2  0  0  0  0
 22 26  1  0  0  0  0
 23 21  1  0  0  0  0
 23 19  1  0  0  0  0
 24 20  1  0  0  0  0
 25 28  1  0  0  0  0
 25 21  1  0  0  0  0
 26 25  1  0  0  0  0
 27 22  1  0  0  0  0
 27 24  1  0  0  0  0
 28 29  1  0  0  0  0
 29 30  1  0  0  0  0
 32 33  1  0  0  0  0
 33 34  1  0  0  0  0
 33 31  2  0  0  0  0
 34 30  1  0  0  0  0
 35 40  1  0  0  0  0
 37 43  1  6  0  0  0
 37 36  1  0  0  0  0
 38 41  1  0  0  0  0
 38 40  1  0  0  0  0
 39 36  1  0  0  0  0
 40 39  1  0  0  0  0
 41 37  1  0  0  0  0
 43 42  1  0  0  0  0
M  END
>  <MODEL>
8

>  <REMARK>
 VINA RESULT:      -6.7      2.296      3.132
  Name = 
  10 active torsions:
  status: ('A' for Active; 'I' for Inactive)
    1  A    between atoms: C_1  and  C_34
    2  A    between atoms: C_1  and  N_35
    3  A    between atoms: C_2  and  C_13
    4  A    between atoms: N_6  and  C_17
    5  A    between atoms: C_11  and  C_14
    6  A    between atoms: C_11  and  C_36
    7  A    between atoms: C_12  and  C_17
    8  A    between atoms: C_14  and  N_22
    9  A    between atoms: C_19  and  C_37
   10  A    between atoms: C_36  and  N_40
                            x       y       z     vdW  Elec       q    Type
                         _______ _______ _______ _____ _____    ______ ____

>  <TORSDO>
F 10

$$$$
=
 OpenBabel11052421153D

 43 47  0  0  1  0  0  0  0  0999 V2000
  184.7390  178.6120  145.2810 C   0  0  0  0  0  0  0  0  0  0  0  0
  189.1370  176.7730  144.4490 C   0  0  1  0  0  3  0  0  0  0  0  0
  189.0990  175.0940  142.1320 C   0  0  0  0  0  0  0  0  0  0  0  0
  186.6590  177.1460  145.9950 C   0  0  2  0  0  3  0  0  0  0  0  0
  184.8650  178.2420  143.8330 C   0  0  0  0  0  2  0  0  0  0  0  0
  183.6830  179.0520  145.7040 O   0  0  0  0  0  0  0  0  0  0  0  0
  186.6300  176.6120  144.5260 C   0  0  1  0  0  3  0  0  0  0  0  0
  185.9120  178.4720  146.2070 C   0  0  0  0  0  2  0  0  0  0  0  0
  186.2600  177.7080  143.5200 C   0  0  0  0  0  2  0  0  0  0  0  0
  187.9380  175.3730  142.7390 C   0  0  0  0  0  3  0  0  0  0  0  0
  187.9250  175.8840  144.1520 C   0  0  1  0  0  3  0  0  0  0  0  0
  189.1710  177.0660  145.9240 C   0  0  0  0  0  3  0  0  0  0  0  0
  190.4110  176.1310  143.9390 C   0  0  0  0  0  0  0  0  0  0  0  0
  190.3790  175.3980  142.8160 C   0  0  0  0  0  3  0  0  0  0  0  0
  188.0370  177.2490  146.6170 C   0  0  0  0  0  3  0  0  0  0  0  0
  189.1010  174.5420  140.7660 C   0  0  0  0  0  0  0  0  0  0  0  0
  190.0660  173.5530  140.4020 N   0  0  0  0  0  2  0  0  0  0  0  0
  188.2470  174.9310  139.9230 O   0  0  0  0  0  0  0  0  0  0  0  0
  190.1080  172.9410  139.0850 C   0  0  0  0  0  2  0  0  0  0  0  0
  189.8740  170.6580  138.2420 C   0  0  0  0  0  3  0  0  0  0  0  0
  191.0000  170.9230  140.4340 C   0  0  0  0  0  2  0  0  0  0  0  0
  192.4410  168.8700  139.0730 C   0  0  0  0  0  2  0  0  0  0  0  0
  190.2790  171.4660  139.2320 C   0  0  0  0  0  0  0  0  0  0  0  0
  190.0560  169.1670  138.2750 C   0  0  0  0  0  2  0  0  0  0  0  0
  192.4520  171.0720  140.2980 N   0  0  0  0  0  0  0  0  0  0  0  0
  192.9950  170.2930  139.1710 C   0  0  0  0  0  2  0  0  0  0  0  0
  191.4800  168.7570  137.8980 C   0  0  0  0  0  2  0  0  0  0  0  0
  193.0650  170.5930  141.5290 C   0  0  0  0  0  2  0  0  0  0  0  0
  194.3570  171.3510  141.7990 C   0  0  0  0  0  2  0  0  0  0  0  0
  194.0840  172.8030  142.1670 C   0  0  0  0  0  2  0  0  0  0  0  0
  193.7620  174.1510  139.6520 O   0  0  0  0  0  0  0  0  0  0  0  0
  195.8410  175.2960  139.7660 C   0  0  0  0  0  1  0  0  0  0  0  0
  194.8210  174.3550  140.3020 C   0  0  0  0  0  0  0  0  0  0  0  0
  195.0630  173.6800  141.5390 N   0  0  0  0  0  2  0  0  0  0  0  0
  191.7420  176.4950  144.5160 C   0  0  0  0  0  2  0  0  0  0  0  0
  194.1930  173.9890  145.6290 C   0  0  0  0  0  2  0  0  0  0  0  0
  195.2860  175.0560  145.7370 C   0  0  2  0  0  3  0  0  0  0  0  0
  193.9660  176.0680  143.8270 C   0  0  0  0  0  2  0  0  0  0  0  0
  192.8220  174.6480  145.4990 C   0  0  0  0  0  2  0  0  0  0  0  0
  192.7040  175.4330  144.2600 N   0  0  0  0  0  0  0  0  0  0  0  0
  194.9250  176.3500  144.9890 C   0  0  0  0  0  2  0  0  0  0  0  0
  196.7720  172.7480  145.7270 S   0  0  0  0  0  1  0  0  0  0  0  0
  196.5970  174.4850  145.2200 C   0  0  0  0  0  2  0  0  0  0  0  0
  1  6  2  0  0  0  0
  1  8  1  0  0  0  0
  2 12  1  1  0  0  0
  3 10  2  0  0  0  0
  3 14  1  0  0  0  0
  4  8  1  6  0  0  0
  4 15  1  0  0  0  0
  5  1  1  0  0  0  0
  7  9  1  6  0  0  0
  7  4  1  0  0  0  0
  9  5  1  0  0  0  0
 11 10  1  6  0  0  0
 11  2  1  0  0  0  0
 11  7  1  0  0  0  0
 12 15  2  0  0  0  0
 13  2  1  0  0  0  0
 13 35  1  0  0  0  0
 14 13  2  0  0  0  0
 16  3  1  0  0  0  0
 17 16  1  0  0  0  0
 18 16  2  0  0  0  0
 19 23  1  0  0  0  0
 19 17  1  0  0  0  0
 20 24  1  0  0  0  0
 20 23  2  0  0  0  0
 22 26  1  0  0  0  0
 23 21  1  0  0  0  0
 25 21  1  0  0  0  0
 25 28  1  0  0  0  0
 26 25  1  0  0  0  0
 27 24  1  0  0  0  0
 27 22  1  0  0  0  0
 28 29  1  0  0  0  0
 29 30  1  0  0  0  0
 31 33  2  0  0  0  0
 32 33  1  0  0  0  0
 33 34  1  0  0  0  0
 34 30  1  0  0  0  0
 36 37  1  0  0  0  0
 37 43  1  6  0  0  0
 38 40  1  0  0  0  0
 38 41  1  0  0  0  0
 39 36  1  0  0  0  0
 40 35  1  0  0  0  0
 40 39  1  0  0  0  0
 41 37  1  0  0  0  0
 43 42  1  0  0  0  0
M  END
>  <MODEL>
9

>  <REMARK>
 VINA RESULT:      -6.6      1.561      2.204
  Name = 
  10 active torsions:
  status: ('A' for Active; 'I' for Inactive)
    1  A    between atoms: C_1  and  C_34
    2  A    between atoms: C_1  and  N_35
    3  A    between atoms: C_2  and  C_13
    4  A    between atoms: N_6  and  C_17
    5  A    between atoms: C_11  and  C_14
    6  A    between atoms: C_11  and  C_36
    7  A    between atoms: C_12  and  C_17
    8  A    between atoms: C_14  and  N_22
    9  A    between atoms: C_19  and  C_37
   10  A    between atoms: C_36  and  N_40
                            x       y       z     vdW  Elec       q    Type
                         _______ _______ _______ _____ _____    ______ ____

>  <TORSDO>
F 10

$$$$
