=
 OpenBabel11052421383D

 32 37  0  0  1  0  0  0  0  0999 V2000
  193.0730  176.6350  145.3390 C   0  0  0  0  0  0  0  0  0  0  0  0
  188.1350  176.6080  144.0980 C   0  0  2  0  0  3  0  0  0  0  0  0
  185.9300  178.0760  148.2180 N   0  0  0  0  0  0  0  0  0  0  0  0
  184.7090  178.3160  147.5100 C   0  0  0  0  0  3  0  0  0  0  0  0
  186.8920  177.0190  141.9170 C   0  0  0  0  0  0  0  0  0  0  0  0
  185.7420  177.4540  141.2700 C   0  0  0  0  0  0  0  0  0  0  0  0
  190.5940  176.7910  144.0470 C   0  0  0  0  0  0  0  0  0  0  0  0
  189.3870  176.5270  146.2450 C   0  0  0  0  0  2  0  0  0  0  0  0
  183.6800  178.2390  140.9900 N   0  0  0  0  0  0  0  0  0  0  0  0
  191.8920  176.5550  146.0860 C   0  0  0  0  0  3  0  0  0  0  0  0
  186.9540  177.5050  147.6570 C   0  0  0  0  0  3  0  0  0  0  0  0
  188.2160  177.1920  145.5140 C   0  0  2  0  0  3  0  0  0  0  0  0
  186.8900  176.9840  146.2420 C   0  0  2  0  0  3  0  0  0  0  0  0
  185.7800  177.5650  144.0440 C   0  0  0  0  0  0  0  0  0  0  0  0
  184.1330  177.9510  139.6830 N   0  0  0  0  0  0  0  0  0  0  0  0
  193.0130  176.8050  143.9510 C   0  0  0  0  0  3  0  0  0  0  0  0
  190.6520  176.6420  145.4470 C   0  0  0  0  0  0  0  0  0  0  0  0
  185.4460  177.4570  139.8830 N   0  0  0  0  0  0  0  0  0  0  0  0
  191.7750  176.8810  143.3060 C   0  0  0  0  0  3  0  0  0  0  0  0
  184.6390  178.1010  146.1990 C   0  0  0  0  0  3  0  0  0  0  0  0
  185.7850  177.6040  145.4880 N   0  0  0  0  0  0  0  0  0  0  0  0
  184.6360  177.9890  143.3280 C   0  0  0  0  0  3  0  0  0  0  0  0
  189.3550  176.8780  143.4030 O   0  0  0  0  0  0  0  0  0  0  0  0
  187.9260  176.5120  141.1980 F   0  0  0  0  0  0  0  0  0  0  0  0
  182.3300  178.6800  141.2910 C   0  0  0  0  0  1  0  0  0  0  0  0
  186.9320  177.1070  143.3320 C   0  0  0  0  0  0  0  0  0  0  0  0
  184.6760  177.9220  141.9400 C   0  0  0  0  0  0  0  0  0  0  0  0
  194.3930  176.5670  146.0250 C   0  0  0  0  0  2  0  0  0  0  0  0
  194.8370  175.1220  146.1630 C   0  0  0  0  0  2  0  0  0  0  0  0
  196.0690  174.8960  145.3620 C   0  0  0  0  0  0  0  0  0  0  0  0
  197.0200  173.9800  145.7940 O   0  0  0  0  0  1  0  0  0  0  0  0
  196.2670  175.5570  144.3080 O   0  0  0  0  0  0  0  0  0  0  0  0
  1 28  1  0  0  0  0
  1 10  1  0  0  0  0
  2 26  1  6  0  0  0
  2 12  1  0  0  0  0
  4  3  1  0  0  0  0
  5 26  1  0  0  0  0
  6  5  2  0  0  0  0
  6 27  1  0  0  0  0
  7 17  1  0  0  0  0
  9 25  1  0  0  0  0
  9 27  1  0  0  0  0
 11  3  2  0  0  0  0
 12 13  1  0  0  0  0
 12  8  1  1  0  0  0
 13 11  1  1  0  0  0
 14 21  1  0  0  0  0
 15 18  2  0  0  0  0
 15  9  1  0  0  0  0
 16  1  2  0  0  0  0
 17 10  2  0  0  0  0
 17  8  1  0  0  0  0
 18  6  1  0  0  0  0
 19 16  1  0  0  0  0
 19  7  2  0  0  0  0
 20  4  2  0  0  0  0
 21 20  1  0  0  0  0
 21 13  1  0  0  0  0
 22 14  1  0  0  0  0
 23  7  1  0  0  0  0
 23  2  1  0  0  0  0
 24  5  1  0  0  0  0
 26 14  2  0  0  0  0
 27 22  2  0  0  0  0
 28 29  1  0  0  0  0
 30 31  1  0  0  0  0
 30 29  1  0  0  0  0
 32 30  2  0  0  0  0
M  END
>  <MODEL>
1

>  <REMARK>
 VINA RESULT:      -8.4      0.000      0.000
  Name = 
  3 active torsions:
  status: ('A' for Active; 'I' for Inactive)
    1  A    between atoms: C_1  and  C_10
    2  A    between atoms: C_2  and  C_24
    3  A    between atoms: C_10  and  C_24
                            x       y       z     vdW  Elec       q    Type
                         _______ _______ _______ _____ _____    ______ ____

>  <TORSDO>
F 3

$$$$
=
 OpenBabel11052421383D

 32 37  0  0  1  0  0  0  0  0999 V2000
  181.6990  178.2550  140.7640 C   0  0  0  0  0  0  0  0  0  0  0  0
  186.1320  178.4890  143.2580 C   0  0  2  0  0  3  0  0  0  0  0  0
  184.7880  178.2850  147.9640 N   0  0  0  0  0  0  0  0  0  0  0  0
  186.1360  178.0080  148.3640 C   0  0  0  0  0  3  0  0  0  0  0  0
  188.4830  177.6960  142.6960 C   0  0  0  0  0  0  0  0  0  0  0  0
  189.7180  177.2390  143.1370 C   0  0  0  0  0  0  0  0  0  0  0  0
  184.3650  178.0480  141.5950 C   0  0  0  0  0  0  0  0  0  0  0  0
  183.7670  178.9540  143.8710 C   0  0  0  0  0  2  0  0  0  0  0  0
  191.3330  176.6250  144.5380 N   0  0  0  0  0  0  0  0  0  0  0  0
  182.0540  178.6320  142.0640 C   0  0  0  0  0  3  0  0  0  0  0  0
  184.4800  178.5960  146.7410 C   0  0  0  0  0  3  0  0  0  0  0  0
  185.0540  178.2550  144.3240 C   0  0  2  0  0  3  0  0  0  0  0  0
  185.5390  178.7670  145.6790 C   0  0  2  0  0  3  0  0  0  0  0  0
  187.7900  177.7930  145.0560 C   0  0  0  0  0  0  0  0  0  0  0  0
  191.9220  176.5430  143.2560 N   0  0  0  0  0  0  0  0  0  0  0  0
  182.6730  177.7640  139.8870 C   0  0  0  0  0  3  0  0  0  0  0  0
  183.3820  178.5220  142.4870 C   0  0  0  0  0  0  0  0  0  0  0  0
  190.8780  176.9340  142.3800 N   0  0  0  0  0  0  0  0  0  0  0  0
  184.0050  177.6630  140.3020 C   0  0  0  0  0  3  0  0  0  0  0  0
  187.1000  177.9090  147.4520 C   0  0  0  0  0  3  0  0  0  0  0  0
  186.7980  178.1010  146.0610 N   0  0  0  0  0  0  0  0  0  0  0  0
  189.0690  177.3290  145.4430 C   0  0  0  0  0  3  0  0  0  0  0  0
  185.6950  177.9370  142.0140 O   0  0  0  0  0  0  0  0  0  0  0  0
  188.2700  177.9080  141.3720 F   0  0  0  0  0  0  0  0  0  0  0  0
  192.0680  176.4100  145.7710 C   0  0  0  0  0  1  0  0  0  0  0  0
  187.4810  177.9460  143.6680 C   0  0  0  0  0  0  0  0  0  0  0  0
  189.9920  177.0560  144.4400 C   0  0  0  0  0  0  0  0  0  0  0  0
  180.2800  178.3500  140.3240 C   0  0  0  0  0  2  0  0  0  0  0  0
  179.3700  178.5120  141.5280 C   0  0  0  0  0  2  0  0  0  0  0  0
  178.5550  177.2820  141.7130 C   0  0  0  0  0  0  0  0  0  0  0  0
  177.9060  176.7080  140.6270 O   0  0  0  0  0  0  0  0  0  0  0  0
  178.4280  176.7770  142.8590 O   0  0  0  0  0  1  0  0  0  0  0  0
  1 10  1  0  0  0  0
  2 23  1  6  0  0  0
  2 26  1  0  0  0  0
  2 12  1  0  0  0  0
  3  4  1  0  0  0  0
  5  6  2  0  0  0  0
  5 26  1  0  0  0  0
  6 27  1  0  0  0  0
  7 23  1  0  0  0  0
  7 17  1  0  0  0  0
  9 25  1  0  0  0  0
 10 17  2  0  0  0  0
 11  3  2  0  0  0  0
 12  8  1  6  0  0  0
 12 13  1  0  0  0  0
 13 21  1  0  0  0  0
 13 11  1  1  0  0  0
 14 22  1  0  0  0  0
 14 21  1  0  0  0  0
 15  9  1  0  0  0  0
 16 19  1  0  0  0  0
 16  1  2  0  0  0  0
 17  8  1  0  0  0  0
 18  6  1  0  0  0  0
 18 15  2  0  0  0  0
 19  7  2  0  0  0  0
 20  4  2  0  0  0  0
 21 20  1  0  0  0  0
 24  5  1  0  0  0  0
 26 14  2  0  0  0  0
 27  9  1  0  0  0  0
 27 22  2  0  0  0  0
 28  1  1  0  0  0  0
 28 29  1  0  0  0  0
 29 30  1  0  0  0  0
 30 32  1  0  0  0  0
 31 30  2  0  0  0  0
M  END
>  <MODEL>
2

>  <REMARK>
 VINA RESULT:      -8.4      3.898      9.072
  Name = 
  3 active torsions:
  status: ('A' for Active; 'I' for Inactive)
    1  A    between atoms: C_1  and  C_10
    2  A    between atoms: C_2  and  C_24
    3  A    between atoms: C_10  and  C_24
                            x       y       z     vdW  Elec       q    Type
                         _______ _______ _______ _____ _____    ______ ____

>  <TORSDO>
F 3

$$$$
=
 OpenBabel11052421383D

 32 37  0  0  1  0  0  0  0  0999 V2000
  184.6110  178.3410  143.4530 C   0  0  0  0  0  0  0  0  0  0  0  0
  189.0060  175.8460  144.0660 C   0  0  2  0  0  3  0  0  0  0  0  0
  189.7260  173.7430  139.7010 N   0  0  0  0  0  0  0  0  0  0  0  0
  191.0910  173.4610  140.0320 C   0  0  0  0  0  3  0  0  0  0  0  0
  191.0710  176.2910  145.4840 C   0  0  0  0  0  0  0  0  0  0  0  0
  192.4430  176.1570  145.6580 C   0  0  0  0  0  0  0  0  0  0  0  0
  187.1700  177.4860  144.2020 C   0  0  0  0  0  0  0  0  0  0  0  0
  187.1000  175.6420  142.4830 C   0  0  0  0  0  2  0  0  0  0  0  0
  194.5440  175.5490  145.2560 N   0  0  0  0  0  0  0  0  0  0  0  0
  185.2000  177.2530  142.8000 C   0  0  0  0  0  3  0  0  0  0  0  0
  188.8870  174.2210  140.5710 C   0  0  0  0  0  3  0  0  0  0  0  0
  188.6280  175.6870  142.5880 C   0  0  2  0  0  3  0  0  0  0  0  0
  189.2810  174.4320  142.0140 C   0  0  2  0  0  3  0  0  0  0  0  0
  191.3250  175.0780  143.3570 C   0  0  0  0  0  0  0  0  0  0  0  0
  194.5920  176.1850  146.5160 N   0  0  0  0  0  0  0  0  0  0  0  0
  185.3060  179.0080  144.4690 C   0  0  0  0  0  3  0  0  0  0  0  0
  186.4810  176.8280  143.1640 C   0  0  0  0  0  0  0  0  0  0  0  0
  193.2470  176.5670  146.7520 N   0  0  0  0  0  0  0  0  0  0  0  0
  186.5830  178.5790  144.8440 C   0  0  0  0  0  3  0  0  0  0  0  0
  191.5850  173.8300  141.2110 C   0  0  0  0  0  3  0  0  0  0  0  0
  190.7450  174.4950  142.1690 N   0  0  0  0  0  0  0  0  0  0  0  0
  192.7160  174.9710  143.5930 C   0  0  0  0  0  3  0  0  0  0  0  0
  188.4520  177.0640  144.5690 O   0  0  0  0  0  0  0  0  0  0  0  0
  190.3190  176.8840  146.4460 F   0  0  0  0  0  0  0  0  0  0  0  0
  195.6880  174.8950  144.6450 C   0  0  0  0  0  1  0  0  0  0  0  0
  190.4990  175.7740  144.2940 C   0  0  0  0  0  0  0  0  0  0  0  0
  193.2230  175.5390  144.7560 C   0  0  0  0  0  0  0  0  0  0  0  0
  183.2570  178.8080  143.0470 C   0  0  0  0  0  2  0  0  0  0  0  0
  182.8940  178.2390  141.6870 C   0  0  0  0  0  2  0  0  0  0  0  0
  181.4800  178.5670  141.3650 C   0  0  0  0  0  0  0  0  0  0  0  0
  180.7270  179.3340  142.2450 O   0  0  0  0  0  1  0  0  0  0  0  0
  180.9540  178.1230  140.3110 O   0  0  0  0  0  0  0  0  0  0  0  0
  1 16  1  0  0  0  0
  2 26  1  6  0  0  0
  2 23  1  0  0  0  0
  3  4  1  0  0  0  0
  3 11  2  0  0  0  0
  4 20  2  0  0  0  0
  5  6  1  0  0  0  0
  5 24  1  0  0  0  0
  6 18  1  0  0  0  0
  7 23  1  0  0  0  0
  7 19  1  0  0  0  0
  8 17  1  0  0  0  0
  9 15  1  0  0  0  0
 10 17  1  0  0  0  0
 10  1  2  0  0  0  0
 12  8  1  1  0  0  0
 12  2  1  0  0  0  0
 13 11  1  6  0  0  0
 13 21  1  0  0  0  0
 13 12  1  0  0  0  0
 14 22  2  0  0  0  0
 14 26  1  0  0  0  0
 15 18  2  0  0  0  0
 16 19  2  0  0  0  0
 17  7  2  0  0  0  0
 20 21  1  0  0  0  0
 21 14  1  0  0  0  0
 22 27  1  0  0  0  0
 25  9  1  0  0  0  0
 26  5  2  0  0  0  0
 27  9  1  0  0  0  0
 27  6  2  0  0  0  0
 28  1  1  0  0  0  0
 29 28  1  0  0  0  0
 30 29  1  0  0  0  0
 30 31  1  0  0  0  0
 32 30  2  0  0  0  0
M  END
>  <MODEL>
3

>  <REMARK>
 VINA RESULT:      -8.2      4.269      9.410
  Name = 
  3 active torsions:
  status: ('A' for Active; 'I' for Inactive)
    1  A    between atoms: C_1  and  C_10
    2  A    between atoms: C_2  and  C_24
    3  A    between atoms: C_10  and  C_24
                            x       y       z     vdW  Elec       q    Type
                         _______ _______ _______ _____ _____    ______ ____

>  <TORSDO>
F 3

$$$$
=
 OpenBabel11052421383D

 32 37  0  0  1  0  0  0  0  0999 V2000
  187.4240  176.9650  146.5360 C   0  0  0  0  0  0  0  0  0  0  0  0
  191.5410  175.2840  144.0560 C   0  0  2  0  0  3  0  0  0  0  0  0
  189.6980  173.5390  139.8670 N   0  0  0  0  0  0  0  0  0  0  0  0
  191.0040  173.4960  139.2800 C   0  0  0  0  0  3  0  0  0  0  0  0
  193.9720  176.0340  144.0210 C   0  0  0  0  0  0  0  0  0  0  0  0
  195.1700  176.1440  143.3260 C   0  0  0  0  0  0  0  0  0  0  0  0
  189.9890  176.5560  145.4900 C   0  0  0  0  0  0  0  0  0  0  0  0
  189.1060  174.8080  143.9020 C   0  0  0  0  0  2  0  0  0  0  0  0
  196.6460  175.9450  141.6750 N   0  0  0  0  0  0  0  0  0  0  0  0
  187.6180  176.0310  145.5120 C   0  0  0  0  0  3  0  0  0  0  0  0
  189.5130  173.8190  141.1220 C   0  0  0  0  0  3  0  0  0  0  0  0
  190.3640  175.1240  143.0860 C   0  0  2  0  0  3  0  0  0  0  0  0
  190.6750  174.0340  142.0630 C   0  0  2  0  0  3  0  0  0  0  0  0
  193.0200  174.9820  142.0090 C   0  0  0  0  0  0  0  0  0  0  0  0
  197.3760  176.5240  142.7380 N   0  0  0  0  0  0  0  0  0  0  0  0
  188.5100  177.7010  147.0260 C   0  0  0  0  0  3  0  0  0  0  0  0
  188.8950  175.8300  144.9800 C   0  0  0  0  0  0  0  0  0  0  0  0
  196.4190  176.6450  143.7760 N   0  0  0  0  0  0  0  0  0  0  0  0
  189.7910  177.4950  146.5040 C   0  0  0  0  0  3  0  0  0  0  0  0
  192.0660  173.8970  139.9740 C   0  0  0  0  0  3  0  0  0  0  0  0
  191.9110  174.3560  141.3270 N   0  0  0  0  0  0  0  0  0  0  0  0
  194.2680  175.1180  141.3570 C   0  0  0  0  0  3  0  0  0  0  0  0
  191.2690  176.3580  144.9600 O   0  0  0  0  0  0  0  0  0  0  0  0
  193.8970  176.4380  145.3150 F   0  0  0  0  0  0  0  0  0  0  0  0
  197.2490  175.5370  140.4190 C   0  0  0  0  0  1  0  0  0  0  0  0
  192.8600  175.4740  143.3420 C   0  0  0  0  0  0  0  0  0  0  0  0
  195.3070  175.7180  142.0600 C   0  0  0  0  0  0  0  0  0  0  0  0
  186.0600  177.1950  147.0840 C   0  0  0  0  0  2  0  0  0  0  0  0
  185.7450  178.6800  147.0950 C   0  0  0  0  0  2  0  0  0  0  0  0
  185.0490  179.0560  145.8350 C   0  0  0  0  0  0  0  0  0  0  0  0
  185.7710  179.5940  144.7770 O   0  0  0  0  0  0  0  0  0  0  0  0
  183.8020  178.9170  145.7380 O   0  0  0  0  0  1  0  0  0  0  0  0
  1 16  1  0  0  0  0
  1 28  1  0  0  0  0
  2 26  1  6  0  0  0
  2 23  1  0  0  0  0
  3 11  2  0  0  0  0
  4  3  1  0  0  0  0
  4 20  2  0  0  0  0
  5 24  1  0  0  0  0
  6 18  1  0  0  0  0
  6  5  2  0  0  0  0
  7 19  1  0  0  0  0
  8 17  1  0  0  0  0
  9 27  1  0  0  0  0
  9 15  1  0  0  0  0
 10  1  2  0  0  0  0
 12  8  1  1  0  0  0
 12  2  1  0  0  0  0
 13 11  1  6  0  0  0
 13 12  1  0  0  0  0
 14 26  2  0  0  0  0
 15 18  2  0  0  0  0
 17  7  2  0  0  0  0
 17 10  1  0  0  0  0
 19 16  2  0  0  0  0
 20 21  1  0  0  0  0
 21 14  1  0  0  0  0
 21 13  1  0  0  0  0
 22 14  1  0  0  0  0
 22 27  2  0  0  0  0
 23  7  1  0  0  0  0
 25  9  1  0  0  0  0
 26  5  1  0  0  0  0
 27  6  1  0  0  0  0
 28 29  1  0  0  0  0
 30 29  1  0  0  0  0
 31 30  2  0  0  0  0
 32 30  1  0  0  0  0
M  END
>  <MODEL>
4

>  <REMARK>
 VINA RESULT:      -8.1      4.883      8.932
  Name = 
  3 active torsions:
  status: ('A' for Active; 'I' for Inactive)
    1  A    between atoms: C_1  and  C_10
    2  A    between atoms: C_2  and  C_24
    3  A    between atoms: C_10  and  C_24
                            x       y       z     vdW  Elec       q    Type
                         _______ _______ _______ _____ _____    ______ ____

>  <TORSDO>
F 3

$$$$
=
 OpenBabel11052421383D

 32 37  0  0  1  0  0  0  0  0999 V2000
  185.9330  178.5040  143.9860 C   0  0  0  0  0  0  0  0  0  0  0  0
  189.3440  175.2870  142.0010 C   0  0  2  0  0  3  0  0  0  0  0  0
  192.3580  174.3840  145.7560 N   0  0  0  0  0  0  0  0  0  0  0  0
  192.9230  173.2630  145.0660 C   0  0  0  0  0  3  0  0  0  0  0  0
  189.2030  173.5100  140.1860 C   0  0  0  0  0  0  0  0  0  0  0  0
  189.6600  172.3070  139.6640 C   0  0  0  0  0  0  0  0  0  0  0  0
  187.2800  176.5280  142.5290 C   0  0  0  0  0  0  0  0  0  0  0  0
  189.3310  176.8090  143.9670 C   0  0  0  0  0  2  0  0  0  0  0  0
  190.8720  170.4540  139.4570 N   0  0  0  0  0  0  0  0  0  0  0  0
  187.2430  178.1550  144.3320 C   0  0  0  0  0  3  0  0  0  0  0  0
  191.5160  175.1940  145.1860 C   0  0  0  0  0  3  0  0  0  0  0  0
  189.6760  175.3920  143.4950 C   0  0  2  0  0  3  0  0  0  0  0  0
  191.1460  175.0510  143.7290 C   0  0  2  0  0  3  0  0  0  0  0  0
  190.8220  173.2180  142.0160 C   0  0  0  0  0  0  0  0  0  0  0  0
  190.0420  170.4680  138.3130 N   0  0  0  0  0  0  0  0  0  0  0  0
  185.2950  177.8570  142.9220 C   0  0  0  0  0  3  0  0  0  0  0  0
  187.9160  177.1620  143.6140 C   0  0  0  0  0  0  0  0  0  0  0  0
  189.2780  171.6520  138.4660 N   0  0  0  0  0  0  0  0  0  0  0  0
  185.9680  176.8720  142.1930 C   0  0  0  0  0  3  0  0  0  0  0  0
  192.4810  172.9250  143.8580 C   0  0  0  0  0  3  0  0  0  0  0  0
  191.4460  173.6970  143.2270 N   0  0  0  0  0  0  0  0  0  0  0  0
  191.2490  172.0010  141.4320 C   0  0  0  0  0  3  0  0  0  0  0  0
  187.9500  175.5350  141.8070 O   0  0  0  0  0  0  0  0  0  0  0  0
  188.2580  174.2240  139.5210 F   0  0  0  0  0  0  0  0  0  0  0  0
  191.9110  169.4640  139.6800 C   0  0  0  0  0  1  0  0  0  0  0  0
  189.7660  173.9630  141.4060 C   0  0  0  0  0  0  0  0  0  0  0  0
  190.6250  171.5880  140.2610 C   0  0  0  0  0  0  0  0  0  0  0  0
  185.2100  179.5440  144.7680 C   0  0  0  0  0  2  0  0  0  0  0  0
  184.0990  178.9060  145.5830 C   0  0  0  0  0  2  0  0  0  0  0  0
  184.6850  178.1070  146.6930 C   0  0  0  0  0  0  0  0  0  0  0  0
  184.7320  176.7210  146.6010 O   0  0  0  0  0  0  0  0  0  0  0  0
  185.1090  178.6830  147.7280 O   0  0  0  0  0  1  0  0  0  0  0  0
  1 10  1  0  0  0  0
  1 28  1  0  0  0  0
  2 26  1  1  0  0  0
  2 12  1  0  0  0  0
  4  3  1  0  0  0  0
  5 26  1  0  0  0  0
  6  5  2  0  0  0  0
  6 27  1  0  0  0  0
  7 17  1  0  0  0  0
  9 25  1  0  0  0  0
  9 27  1  0  0  0  0
 11  3  2  0  0  0  0
 12 13  1  0  0  0  0
 12  8  1  6  0  0  0
 13 11  1  1  0  0  0
 14 21  1  0  0  0  0
 15 18  2  0  0  0  0
 15  9  1  0  0  0  0
 16  1  2  0  0  0  0
 17  8  1  0  0  0  0
 17 10  2  0  0  0  0
 18  6  1  0  0  0  0
 19  7  2  0  0  0  0
 19 16  1  0  0  0  0
 20  4  2  0  0  0  0
 21 13  1  0  0  0  0
 21 20  1  0  0  0  0
 22 14  1  0  0  0  0
 23  2  1  0  0  0  0
 23  7  1  0  0  0  0
 24  5  1  0  0  0  0
 26 14  2  0  0  0  0
 27 22  2  0  0  0  0
 28 29  1  0  0  0  0
 29 30  1  0  0  0  0
 30 32  1  0  0  0  0
 31 30  2  0  0  0  0
M  END
>  <MODEL>
5

>  <REMARK>
 VINA RESULT:      -8.0      4.574      7.932
  Name = 
  3 active torsions:
  status: ('A' for Active; 'I' for Inactive)
    1  A    between atoms: C_1  and  C_10
    2  A    between atoms: C_2  and  C_24
    3  A    between atoms: C_10  and  C_24
                            x       y       z     vdW  Elec       q    Type
                         _______ _______ _______ _____ _____    ______ ____

>  <TORSDO>
F 3

$$$$
=
 OpenBabel11052421383D

 32 37  0  0  1  0  0  0  0  0999 V2000
  186.1630  178.2030  143.7050 C   0  0  0  0  0  0  0  0  0  0  0  0
  190.0240  174.9390  143.1010 C   0  0  2  0  0  3  0  0  0  0  0  0
  193.2760  176.4090  146.4570 N   0  0  0  0  0  0  0  0  0  0  0  0
  194.0090  175.1860  146.3210 C   0  0  0  0  0  3  0  0  0  0  0  0
  190.1410  172.5040  142.3740 C   0  0  0  0  0  0  0  0  0  0  0  0
  190.7880  171.2770  142.4360 C   0  0  0  0  0  0  0  0  0  0  0  0
  187.7900  175.9780  143.2130 C   0  0  0  0  0  0  0  0  0  0  0  0
  189.8070  177.2070  144.0980 C   0  0  0  0  0  2  0  0  0  0  0  0
  192.3040  169.7470  142.9920 N   0  0  0  0  0  0  0  0  0  0  0  0
  187.5250  178.2530  144.0210 C   0  0  0  0  0  3  0  0  0  0  0  0
  192.2850  176.7120  145.6740 C   0  0  0  0  0  3  0  0  0  0  0  0
  190.3830  175.8030  144.3170 C   0  0  2  0  0  3  0  0  0  0  0  0
  191.8970  175.8280  144.5130 C   0  0  2  0  0  3  0  0  0  0  0  0
  191.8480  173.3680  143.9230 C   0  0  0  0  0  0  0  0  0  0  0  0
  191.4460  169.0860  142.0840 N   0  0  0  0  0  0  0  0  0  0  0  0
  185.6150  177.0370  143.1570 C   0  0  0  0  0  3  0  0  0  0  0  0
  188.3400  177.1420  143.7860 C   0  0  0  0  0  0  0  0  0  0  0  0
  190.4890  170.0750  141.7450 N   0  0  0  0  0  0  0  0  0  0  0  0
  186.4280  175.9270  142.9090 C   0  0  0  0  0  3  0  0  0  0  0  0
  193.5930  174.2440  145.4770 C   0  0  0  0  0  3  0  0  0  0  0  0
  192.4170  174.4590  144.6810 N   0  0  0  0  0  0  0  0  0  0  0  0
  192.4650  172.0950  143.9400 C   0  0  0  0  0  3  0  0  0  0  0  0
  188.6030  174.8630  142.9760 O   0  0  0  0  0  0  0  0  0  0  0  0
  189.0620  172.6630  141.5660 F   0  0  0  0  0  0  0  0  0  0  0  0
  193.5090  169.1470  143.5360 C   0  0  0  0  0  1  0  0  0  0  0  0
  190.6550  173.5670  143.1590 C   0  0  0  0  0  0  0  0  0  0  0  0
  191.8850  171.0810  143.1860 C   0  0  0  0  0  0  0  0  0  0  0  0
  185.2920  179.3780  143.9790 C   0  0  0  0  0  2  0  0  0  0  0  0
  184.1450  178.9780  144.8890 C   0  0  0  0  0  2  0  0  0  0  0  0
  184.6780  178.5160  146.1980 C   0  0  0  0  0  0  0  0  0  0  0  0
  185.5470  179.3260  146.9190 O   0  0  0  0  0  1  0  0  0  0  0  0
  184.3690  177.3780  146.6390 O   0  0  0  0  0  0  0  0  0  0  0  0
  1 28  1  0  0  0  0
  1 10  1  0  0  0  0
  2 23  1  1  0  0  0
  2 26  1  0  0  0  0
  2 12  1  0  0  0  0
  4  3  1  0  0  0  0
  5  6  2  0  0  0  0
  5 26  1  0  0  0  0
  6 27  1  0  0  0  0
  7 17  1  0  0  0  0
  9 27  1  0  0  0  0
  9 25  1  0  0  0  0
 11  3  2  0  0  0  0
 12  8  1  6  0  0  0
 12 13  1  0  0  0  0
 13 21  1  0  0  0  0
 13 11  1  1  0  0  0
 14 22  1  0  0  0  0
 14 21  1  0  0  0  0
 15  9  1  0  0  0  0
 16  1  2  0  0  0  0
 17 10  2  0  0  0  0
 17  8  1  0  0  0  0
 18 15  2  0  0  0  0
 18  6  1  0  0  0  0
 19 16  1  0  0  0  0
 19  7  2  0  0  0  0
 20  4  2  0  0  0  0
 21 20  1  0  0  0  0
 23  7  1  0  0  0  0
 24  5  1  0  0  0  0
 26 14  2  0  0  0  0
 27 22  2  0  0  0  0
 28 29  1  0  0  0  0
 29 30  1  0  0  0  0
 30 32  2  0  0  0  0
 30 31  1  0  0  0  0
M  END
>  <MODEL>
6

>  <REMARK>
 VINA RESULT:      -8.0      4.704      8.368
  Name = 
  3 active torsions:
  status: ('A' for Active; 'I' for Inactive)
    1  A    between atoms: C_1  and  C_10
    2  A    between atoms: C_2  and  C_24
    3  A    between atoms: C_10  and  C_24
                            x       y       z     vdW  Elec       q    Type
                         _______ _______ _______ _____ _____    ______ ____

>  <TORSDO>
F 3

$$$$
=
 OpenBabel11052421383D

 32 37  0  0  1  0  0  0  0  0999 V2000
  180.4620  179.1560  141.4150 C   0  0  0  0  0  0  0  0  0  0  0  0
  185.2400  178.0380  142.7730 C   0  0  2  0  0  3  0  0  0  0  0  0
  185.1100  178.2920  147.6630 N   0  0  0  0  0  0  0  0  0  0  0  0
  186.3700  177.6170  147.7580 C   0  0  0  0  0  3  0  0  0  0  0  0
  187.0360  176.5580  141.7440 C   0  0  0  0  0  0  0  0  0  0  0  0
  188.1500  175.7470  141.9200 C   0  0  0  0  0  0  0  0  0  0  0  0
  183.0670  178.1480  141.6120 C   0  0  0  0  0  0  0  0  0  0  0  0
  183.3490  179.2100  143.8820 C   0  0  0  0  0  2  0  0  0  0  0  0
  189.8060  174.6780  142.9490 N   0  0  0  0  0  0  0  0  0  0  0  0
  181.2240  179.4160  142.5590 C   0  0  0  0  0  3  0  0  0  0  0  0
  184.6130  178.6730  146.5240 C   0  0  0  0  0  3  0  0  0  0  0  0
  184.4420  178.1540  144.0780 C   0  0  2  0  0  3  0  0  0  0  0  0
  185.3770  178.5030  145.2330 C   0  0  2  0  0  3  0  0  0  0  0  0
  187.0110  176.8810  144.1850 C   0  0  0  0  0  0  0  0  0  0  0  0
  190.0070  174.4100  141.5770 N   0  0  0  0  0  0  0  0  0  0  0  0
  180.9980  178.3830  140.3780 C   0  0  0  0  0  3  0  0  0  0  0  0
  182.5220  178.9070  142.6670 C   0  0  0  0  0  0  0  0  0  0  0  0
  188.9420  175.0960  140.9400 N   0  0  0  0  0  0  0  0  0  0  0  0
  182.3000  177.8820  140.4760 C   0  0  0  0  0  3  0  0  0  0  0  0
  187.0040  177.2210  146.6570 C   0  0  0  0  0  3  0  0  0  0  0  0
  186.4360  177.4860  145.3640 N   0  0  0  0  0  0  0  0  0  0  0  0
  188.1500  176.0490  144.2980 C   0  0  0  0  0  3  0  0  0  0  0  0
  184.3660  177.6370  141.7160 O   0  0  0  0  0  0  0  0  0  0  0  0
  186.5720  176.8150  140.4940 F   0  0  0  0  0  0  0  0  0  0  0  0
  190.7270  174.2570  143.9900 C   0  0  0  0  0  1  0  0  0  0  0  0
  186.4270  177.1110  142.9000 C   0  0  0  0  0  0  0  0  0  0  0  0
  188.6720  175.4990  143.1320 C   0  0  0  0  0  0  0  0  0  0  0  0
  179.0720  179.6780  141.3130 C   0  0  0  0  0  2  0  0  0  0  0  0
  178.7880  180.1370  139.8940 C   0  0  0  0  0  2  0  0  0  0  0  0
  178.9820  181.6080  139.7930 C   0  0  0  0  0  0  0  0  0  0  0  0
  178.1590  182.4680  140.5090 O   0  0  0  0  0  1  0  0  0  0  0  0
  179.8710  182.0760  139.0340 O   0  0  0  0  0  0  0  0  0  0  0  0
  1 10  1  0  0  0  0
  2 23  1  6  0  0  0
  2 26  1  0  0  0  0
  2 12  1  0  0  0  0
  3  4  1  0  0  0  0
  5  6  2  0  0  0  0
  5 26  1  0  0  0  0
  6 27  1  0  0  0  0
  7 23  1  0  0  0  0
  7 17  1  0  0  0  0
  9 27  1  0  0  0  0
  9 25  1  0  0  0  0
 10 17  2  0  0  0  0
 11  3  2  0  0  0  0
 12  8  1  6  0  0  0
 12 13  1  0  0  0  0
 13 21  1  0  0  0  0
 13 11  1  1  0  0  0
 14 22  1  0  0  0  0
 14 21  1  0  0  0  0
 15  9  1  0  0  0  0
 16 19  1  0  0  0  0
 16  1  2  0  0  0  0
 17  8  1  0  0  0  0
 18 15  2  0  0  0  0
 18  6  1  0  0  0  0
 19  7  2  0  0  0  0
 20  4  2  0  0  0  0
 21 20  1  0  0  0  0
 24  5  1  0  0  0  0
 26 14  2  0  0  0  0
 27 22  2  0  0  0  0
 28  1  1  0  0  0  0
 29 28  1  0  0  0  0
 30 29  1  0  0  0  0
 30 31  1  0  0  0  0
 32 30  2  0  0  0  0
M  END
>  <MODEL>
7

>  <REMARK>
 VINA RESULT:      -7.9      4.356      9.480
  Name = 
  3 active torsions:
  status: ('A' for Active; 'I' for Inactive)
    1  A    between atoms: C_1  and  C_10
    2  A    between atoms: C_2  and  C_24
    3  A    between atoms: C_10  and  C_24
                            x       y       z     vdW  Elec       q    Type
                         _______ _______ _______ _____ _____    ______ ____

>  <TORSDO>
F 3

$$$$
=
 OpenBabel11052421383D

 32 37  0  0  1  0  0  0  0  0999 V2000
  195.3490  174.8780  145.2200 C   0  0  0  0  0  0  0  0  0  0  0  0
  190.6320  176.7610  144.8520 C   0  0  2  0  0  3  0  0  0  0  0  0
  188.7470  174.3370  141.0360 N   0  0  0  0  0  0  0  0  0  0  0  0
  187.4240  174.7600  141.3870 C   0  0  0  0  0  3  0  0  0  0  0  0
  188.9860  177.6660  146.5680 C   0  0  0  0  0  0  0  0  0  0  0  0
  187.6680  177.8750  146.9530 C   0  0  0  0  0  0  0  0  0  0  0  0
  192.8090  175.9610  145.6890 C   0  0  0  0  0  0  0  0  0  0  0  0
  192.1580  175.5810  143.2830 C   0  0  0  0  0  2  0  0  0  0  0  0
  185.4460  177.8720  146.8620 N   0  0  0  0  0  0  0  0  0  0  0  0
  194.4180  174.9480  144.1770 C   0  0  0  0  0  3  0  0  0  0  0  0
  189.8020  174.7920  141.6420 C   0  0  0  0  0  3  0  0  0  0  0  0
  190.7230  175.6320  143.8170 C   0  0  2  0  0  3  0  0  0  0  0  0
  189.7030  175.8610  142.7030 C   0  0  2  0  0  3  0  0  0  0  0  0
  188.1150  176.5910  144.5320 C   0  0  0  0  0  0  0  0  0  0  0  0
  185.7530  178.5530  148.0610 N   0  0  0  0  0  0  0  0  0  0  0  0
  195.0040  175.3360  146.4970 C   0  0  0  0  0  3  0  0  0  0  0  0
  193.1450  175.4800  144.4090 C   0  0  0  0  0  0  0  0  0  0  0  0
  187.1700  178.5420  148.1010 N   0  0  0  0  0  0  0  0  0  0  0  0
  193.7370  175.8790  146.7300 C   0  0  0  0  0  3  0  0  0  0  0  0
  187.2250  175.5210  142.4600 C   0  0  0  0  0  3  0  0  0  0  0  0
  188.3410  175.9430  143.2610 N   0  0  0  0  0  0  0  0  0  0  0  0
  186.7940  176.8380  144.9770 C   0  0  0  0  0  3  0  0  0  0  0  0
  191.5370  176.4940  145.9260 O   0  0  0  0  0  0  0  0  0  0  0  0
  190.0020  178.1310  147.3400 F   0  0  0  0  0  0  0  0  0  0  0  0
  184.0970  177.7280  146.3460 C   0  0  0  0  0  1  0  0  0  0  0  0
  189.2220  176.9790  145.3500 C   0  0  0  0  0  0  0  0  0  0  0  0
  186.6290  177.4740  146.2020 C   0  0  0  0  0  0  0  0  0  0  0  0
  196.6940  174.2890  144.9770 C   0  0  0  0  0  2  0  0  0  0  0  0
  197.0600  173.3400  146.1030 C   0  0  0  0  0  2  0  0  0  0  0  0
  196.7610  171.9400  145.6990 C   0  0  0  0  0  0  0  0  0  0  0  0
  195.4770  171.4310  145.8540 O   0  0  0  0  0  1  0  0  0  0  0  0
  197.6770  171.2060  145.2450 O   0  0  0  0  0  0  0  0  0  0  0  0
  1 16  1  0  0  0  0
  2 26  1  1  0  0  0
  2 23  1  0  0  0  0
  3  4  1  0  0  0  0
  3 11  2  0  0  0  0
  4 20  2  0  0  0  0
  5  6  1  0  0  0  0
  5 24  1  0  0  0  0
  6 18  1  0  0  0  0
  7 23  1  0  0  0  0
  7 19  1  0  0  0  0
  8 17  1  0  0  0  0
  9 15  1  0  0  0  0
 10 17  1  0  0  0  0
 10  1  2  0  0  0  0
 12  8  1  6  0  0  0
 12  2  1  0  0  0  0
 13 11  1  6  0  0  0
 13 21  1  0  0  0  0
 13 12  1  0  0  0  0
 14 22  2  0  0  0  0
 14 26  1  0  0  0  0
 15 18  2  0  0  0  0
 16 19  2  0  0  0  0
 17  7  2  0  0  0  0
 20 21  1  0  0  0  0
 21 14  1  0  0  0  0
 22 27  1  0  0  0  0
 25  9  1  0  0  0  0
 26  5  2  0  0  0  0
 27  9  1  0  0  0  0
 27  6  2  0  0  0  0
 28  1  1  0  0  0  0
 28 29  1  0  0  0  0
 30 31  1  0  0  0  0
 30 29  1  0  0  0  0
 32 30  2  0  0  0  0
M  END
>  <MODEL>
8

>  <REMARK>
 VINA RESULT:      -7.6      2.832      4.956
  Name = 
  3 active torsions:
  status: ('A' for Active; 'I' for Inactive)
    1  A    between atoms: C_1  and  C_10
    2  A    between atoms: C_2  and  C_24
    3  A    between atoms: C_10  and  C_24
                            x       y       z     vdW  Elec       q    Type
                         _______ _______ _______ _____ _____    ______ ____

>  <TORSDO>
F 3

$$$$
=
 OpenBabel11052421383D

 32 37  0  0  1  0  0  0  0  0999 V2000
  187.3330  177.4410  145.9340 C   0  0  0  0  0  0  0  0  0  0  0  0
  191.3200  174.5460  144.6510 C   0  0  2  0  0  3  0  0  0  0  0  0
  190.5990  173.6850  139.8830 N   0  0  0  0  0  0  0  0  0  0  0  0
  191.9450  173.2200  139.7360 C   0  0  0  0  0  3  0  0  0  0  0  0
  193.7170  174.4220  145.4930 C   0  0  0  0  0  0  0  0  0  0  0  0
  195.0530  174.1410  145.2350 C   0  0  0  0  0  0  0  0  0  0  0  0
  189.8410  176.2190  145.6970 C   0  0  0  0  0  0  0  0  0  0  0  0
  189.0690  174.9350  143.6690 C   0  0  0  0  0  2  0  0  0  0  0  0
  196.8710  173.5090  144.1210 N   0  0  0  0  0  0  0  0  0  0  0  0
  187.5710  176.5340  144.8940 C   0  0  0  0  0  3  0  0  0  0  0  0
  190.0860  173.9660  141.0430 C   0  0  0  0  0  3  0  0  0  0  0  0
  190.5630  174.8320  143.3470 C   0  0  2  0  0  3  0  0  0  0  0  0
  190.8560  173.7380  142.3220 C   0  0  2  0  0  3  0  0  0  0  0  0
  193.2450  173.8300  143.1510 C   0  0  0  0  0  0  0  0  0  0  0  0
  197.3280  173.7660  145.4330 N   0  0  0  0  0  0  0  0  0  0  0  0
  188.3520  177.7450  146.8440 C   0  0  0  0  0  3  0  0  0  0  0  0
  188.8240  175.9290  144.7660 C   0  0  0  0  0  0  0  0  0  0  0  0
  196.1580  174.1700  146.1240 N   0  0  0  0  0  0  0  0  0  0  0  0
  189.6040  177.1330  146.7260 C   0  0  0  0  0  3  0  0  0  0  0  0
  192.7700  173.2090  140.7810 C   0  0  0  0  0  3  0  0  0  0  0  0
  192.3060  173.6450  142.0690 N   0  0  0  0  0  0  0  0  0  0  0  0
  194.6190  173.5560  142.9520 C   0  0  0  0  0  3  0  0  0  0  0  0
  191.0970  175.6150  145.5730 O   0  0  0  0  0  0  0  0  0  0  0  0
  193.3270  174.7810  146.7430 F   0  0  0  0  0  0  0  0  0  0  0  0
  197.7140  172.9650  143.0710 C   0  0  0  0  0  1  0  0  0  0  0  0
  192.7940  174.3000  144.4240 C   0  0  0  0  0  0  0  0  0  0  0  0
  195.4810  173.7390  144.0270 C   0  0  0  0  0  0  0  0  0  0  0  0
  186.0050  178.1030  146.0530 C   0  0  0  0  0  2  0  0  0  0  0  0
  185.1850  177.8610  144.7990 C   0  0  0  0  0  2  0  0  0  0  0  0
  185.3620  178.9960  143.8540 C   0  0  0  0  0  0  0  0  0  0  0  0
  185.4430  178.7570  142.4880 O   0  0  0  0  0  0  0  0  0  0  0  0
  185.4710  180.1700  144.2940 O   0  0  0  0  0  1  0  0  0  0  0  0
  1 28  1  0  0  0  0
  1 16  1  0  0  0  0
  2 26  1  6  0  0  0
  2 23  1  0  0  0  0
  3 11  2  0  0  0  0
  4  3  1  0  0  0  0
  4 20  2  0  0  0  0
  5 24  1  0  0  0  0
  6  5  1  0  0  0  0
  6 18  1  0  0  0  0
  7 19  1  0  0  0  0
  8 17  1  0  0  0  0
  9 15  1  0  0  0  0
 10  1  2  0  0  0  0
 12  8  1  1  0  0  0
 12  2  1  0  0  0  0
 13 11  1  6  0  0  0
 13 12  1  0  0  0  0
 14 26  1  0  0  0  0
 15 18  2  0  0  0  0
 17 10  1  0  0  0  0
 17  7  2  0  0  0  0
 19 16  2  0  0  0  0
 20 21  1  0  0  0  0
 21 13  1  0  0  0  0
 21 14  1  0  0  0  0
 22 14  2  0  0  0  0
 22 27  1  0  0  0  0
 23  7  1  0  0  0  0
 25  9  1  0  0  0  0
 26  5  2  0  0  0  0
 27  9  1  0  0  0  0
 27  6  2  0  0  0  0
 29 28  1  0  0  0  0
 30 32  1  0  0  0  0
 30 29  1  0  0  0  0
 31 30  2  0  0  0  0
M  END
>  <MODEL>
9

>  <REMARK>
 VINA RESULT:      -7.5      4.935      9.357
  Name = 
  3 active torsions:
  status: ('A' for Active; 'I' for Inactive)
    1  A    between atoms: C_1  and  C_10
    2  A    between atoms: C_2  and  C_24
    3  A    between atoms: C_10  and  C_24
                            x       y       z     vdW  Elec       q    Type
                         _______ _______ _______ _____ _____    ______ ____

>  <TORSDO>
F 3

$$$$
