=
 OpenBabel11052420093D

 37 41  0  0  1  0  0  0  0  0999 V2000
  187.1040  174.0410  141.9660 O   0  0  0  0  0  1  0  0  0  0  0  0
  191.1960  176.3930  143.1120 C   0  0  2  0  0  3  0  0  0  0  0  0
  191.9200  175.8310  146.7820 C   0  0  0  0  0  2  0  0  0  0  0  0
  189.2830  175.0060  142.2550 C   0  0  2  0  0  3  0  0  0  0  0  0
  190.9300  176.0090  144.4920 N   0  0  1  0  0  0  0  0  0  0  0  0
  189.8460  176.4420  142.4300 C   0  0  1  0  0  3  0  0  0  0  0  0
  192.1160  176.2910  145.3190 C   0  0  2  0  0  3  0  0  0  0  0  0
  190.3120  174.0560  141.6290 C   0  0  0  0  0  2  0  0  0  0  0  0
  189.0870  177.2110  143.5080 C   0  0  1  0  0  3  0  0  0  0  0  0
  186.8200  176.9290  142.4140 C   0  0  0  0  0  3  0  0  0  0  0  0
  192.5140  173.1850  141.7890 F   0  0  0  0  0  0  0  0  0  0  0  0
  191.6200  174.0330  142.4170 C   0  0  1  0  0  3  0  0  0  0  0  0
  187.5640  177.3050  143.4680 C   0  0  0  0  0  0  0  0  0  0  0  0
  190.5530  176.1320  147.3820 C   0  0  0  0  0  2  0  0  0  0  0  0
  192.1910  175.4470  142.4690 C   0  0  2  0  0  3  0  0  0  0  0  0
  189.7850  176.8540  144.8390 C   0  0  1  0  0  3  0  0  0  0  0  0
  188.0080  174.9460  141.4090 C   0  0  2  0  0  3  0  0  0  0  0  0
  193.3270  175.4860  144.7780 C   0  0  1  0  0  3  0  0  0  0  0  0
  187.3370  176.2950  141.1590 C   0  0  0  0  0  2  0  0  0  0  0  0
  188.8830  176.1250  145.8490 C   0  0  0  0  0  2  0  0  0  0  0  0
  189.5990  175.3210  146.7540 O   0  0  0  0  0  0  0  0  0  0  0  0
  193.5040  175.5460  143.2450 C   0  0  0  0  0  2  0  0  0  0  0  0
  194.6240  175.8560  145.5070 C   0  0  2  0  0  3  0  0  0  0  0  0
  194.7960  177.3640  145.6520 C   0  0  0  0  0  2  0  0  0  0  0  0
  194.8080  177.7170  147.0010 O   0  0  0  0  0  1  0  0  0  0  0  0
  196.0660  175.1140  144.6780 S   0  0  0  0  0  0  0  0  0  0  0  0
  197.0800  173.5890  146.7090 F   0  0  0  0  0  0  0  0  0  0  0  0
  195.2010  172.8760  145.7370 O   0  0  0  0  0  0  0  0  0  0  0  0
  196.0850  173.7150  145.7940 C   0  0  0  0  0  0  0  0  0  0  0  0
  186.8770  178.1240  144.5260 C   0  0  0  0  0  2  0  0  0  0  0  0
  185.5600  178.7310  144.0450 C   0  0  2  0  0  3  0  0  0  0  0  0
  185.5970  180.2420  144.1830 C   0  0  0  0  0  1  0  0  0  0  0  0
  184.4010  178.2010  144.8790 C   0  0  0  0  0  2  0  0  0  0  0  0
  184.8900  177.3750  146.0580 C   0  0  0  0  0  2  0  0  0  0  0  0
  184.7770  178.1730  147.3470 C   0  0  0  0  0  2  0  0  0  0  0  0
  186.0880  178.1400  148.1120 C   0  0  0  0  0  2  0  0  0  0  0  0
  186.7480  179.5060  148.0950 C   0  0  0  0  0  1  0  0  0  0  0  0
  2  5  1  0  0  0  0
  3 14  1  0  0  0  0
  4  6  1  0  0  0  0
  5 16  1  0  0  0  0
  5  7  1  0  0  0  0
  6  2  1  0  0  0  0
  6  9  1  0  0  0  0
  7  3  1  0  0  0  0
  8  4  1  0  0  0  0
  8 12  1  0  0  0  0
  9 16  1  0  0  0  0
 10 13  2  0  0  0  0
 11 12  1  0  0  0  0
 12 15  1  0  0  0  0
 13  9  1  0  0  0  0
 13 30  1  0  0  0  0
 15  2  1  0  0  0  0
 15 22  1  0  0  0  0
 16 20  1  0  0  0  0
 17  1  1  0  0  0  0
 17  4  1  0  0  0  0
 18  7  1  0  0  0  0
 18 23  1  0  0  0  0
 19 17  1  0  0  0  0
 19 10  1  0  0  0  0
 20 21  1  0  0  0  0
 21 14  1  0  0  0  0
 22 18  1  0  0  0  0
 23 24  1  0  0  0  0
 24 25  1  0  0  0  0
 26 23  1  0  0  0  0
 26 29  1  0  0  0  0
 28 29  2  0  0  0  0
 29 27  1  0  0  0  0
 31 32  1  0  0  0  0
 31 30  1  0  0  0  0
 31 33  1  0  0  0  0
 33 34  1  0  0  0  0
 34 35  1  0  0  0  0
 35 36  1  0  0  0  0
 37 36  1  0  0  0  0
M  END
>  <MODEL>
1

>  <REMARK>
 VINA RESULT:      -7.3      0.000      0.000
  Name = 
  10 active torsions:
  status: ('A' for Active; 'I' for Inactive)
    1  A    between atoms: C_1  and  C_5
    2  A    between atoms: C_1  and  C_23
    3  A    between atoms: C_2  and  C_6
    4  A    between atoms: C_5  and  C_17
    5  A    between atoms: C_6  and  S_8
    6  A    between atoms: C_6  and  C_31
    7  A    between atoms: S_8  and  C_19
    8  A    between atoms: C_11  and  C_26
    9  A    between atoms: C_17  and  C_26
   10  A    between atoms: C_23  and  C_25
                            x       y       z     vdW  Elec       q    Type
                         _______ _______ _______ _____ _____    ______ ____

>  <TORSDO>
F 10

$$$$
=
 OpenBabel11052420093D

 37 41  0  0  1  0  0  0  0  0999 V2000
  188.5050  171.8530  143.1130 O   0  0  0  0  0  1  0  0  0  0  0  0
  192.4610  174.6250  142.6080 C   0  0  2  0  0  3  0  0  0  0  0  0
  193.6330  175.6890  146.0440 C   0  0  0  0  0  2  0  0  0  0  0  0
  190.6040  172.9330  142.6730 C   0  0  2  0  0  3  0  0  0  0  0  0
  192.3860  174.8480  144.0450 N   0  0  1  0  0  0  0  0  0  0  0  0
  191.0460  174.3300  142.1600 C   0  0  1  0  0  3  0  0  0  0  0  0
  193.6240  175.4980  144.5090 C   0  0  2  0  0  3  0  0  0  0  0  0
  191.6410  171.8480  142.3590 C   0  0  0  0  0  2  0  0  0  0  0  0
  190.3410  175.4520  142.9190 C   0  0  1  0  0  3  0  0  0  0  0  0
  188.0040  174.6480  142.3640 C   0  0  0  0  0  3  0  0  0  0  0  0
  193.9190  171.2120  142.5570 F   0  0  0  0  0  0  0  0  0  0  0  0
  193.0240  172.2100  142.8970 C   0  0  1  0  0  3  0  0  0  0  0  0
  188.8210  175.4610  143.0550 C   0  0  0  0  0  0  0  0  0  0  0  0
  192.3170  176.1610  146.6490 C   0  0  0  0  0  2  0  0  0  0  0  0
  193.4630  173.5350  142.2810 C   0  0  2  0  0  3  0  0  0  0  0  0
  191.2120  175.7150  144.1680 C   0  0  1  0  0  3  0  0  0  0  0  0
  189.2550  172.4730  142.1130 C   0  0  2  0  0  3  0  0  0  0  0  0
  194.8370  174.5860  144.1860 C   0  0  1  0  0  3  0  0  0  0  0  0
  188.4380  173.5640  141.4240 C   0  0  0  0  0  2  0  0  0  0  0  0
  190.4970  175.4450  145.5030 C   0  0  0  0  0  2  0  0  0  0  0  0
  191.3800  175.1250  146.5500 O   0  0  0  0  0  0  0  0  0  0  0  0
  194.8390  174.0020  142.7570 C   0  0  0  0  0  2  0  0  0  0  0  0
  196.1660  175.2790  144.5100 C   0  0  2  0  0  3  0  0  0  0  0  0
  196.3750  176.5450  143.6860 C   0  0  0  0  0  2  0  0  0  0  0  0
  197.5400  176.4340  142.9270 O   0  0  0  0  0  1  0  0  0  0  0  0
  197.5620  174.1290  144.3000 S   0  0  0  0  0  0  0  0  0  0  0  0
  196.8810  173.8420  146.9330 F   0  0  0  0  0  0  0  0  0  0  0  0
  197.0180  171.9830  145.7050 O   0  0  0  0  0  0  0  0  0  0  0  0
  197.1160  173.1980  145.7620 C   0  0  0  0  0  0  0  0  0  0  0  0
  188.1820  176.6220  143.7650 C   0  0  0  0  0  2  0  0  0  0  0  0
  187.3010  177.4680  142.8470 C   0  0  2  0  0  3  0  0  0  0  0  0
  188.1600  178.2660  141.8840 C   0  0  0  0  0  1  0  0  0  0  0  0
  186.4680  178.4430  143.6670 C   0  0  0  0  0  2  0  0  0  0  0  0
  185.1700  177.8090  144.1430 C   0  0  0  0  0  2  0  0  0  0  0  0
  184.9580  178.0830  145.6230 C   0  0  0  0  0  2  0  0  0  0  0  0
  185.1900  176.8230  146.4380 C   0  0  0  0  0  2  0  0  0  0  0  0
  186.5440  176.8730  147.1200 C   0  0  0  0  0  1  0  0  0  0  0  0
  2  5  1  0  0  0  0
  3 14  1  0  0  0  0
  5 16  1  0  0  0  0
  5  7  1  0  0  0  0
  6  2  1  0  0  0  0
  6  4  1  0  0  0  0
  6  9  1  0  0  0  0
  7  3  1  0  0  0  0
  8  4  1  0  0  0  0
  8 12  1  0  0  0  0
  9 13  1  0  0  0  0
  9 16  1  0  0  0  0
 10 13  2  0  0  0  0
 11 12  1  0  0  0  0
 13 30  1  0  0  0  0
 15  2  1  0  0  0  0
 15 22  1  0  0  0  0
 15 12  1  0  0  0  0
 16 20  1  0  0  0  0
 17  4  1  0  0  0  0
 17  1  1  0  0  0  0
 18  7  1  0  0  0  0
 18 23  1  0  0  0  0
 19 17  1  0  0  0  0
 19 10  1  0  0  0  0
 20 21  1  0  0  0  0
 21 14  1  0  0  0  0
 22 18  1  0  0  0  0
 24 23  1  0  0  0  0
 25 24  1  0  0  0  0
 26 23  1  0  0  0  0
 26 29  1  0  0  0  0
 28 29  2  0  0  0  0
 29 27  1  0  0  0  0
 31 33  1  0  0  0  0
 31 30  1  0  0  0  0
 32 31  1  0  0  0  0
 33 34  1  0  0  0  0
 34 35  1  0  0  0  0
 35 36  1  0  0  0  0
 36 37  1  0  0  0  0
M  END
>  <MODEL>
2

>  <REMARK>
 VINA RESULT:      -7.1      1.793      2.403
  Name = 
  10 active torsions:
  status: ('A' for Active; 'I' for Inactive)
    1  A    between atoms: C_1  and  C_5
    2  A    between atoms: C_1  and  C_23
    3  A    between atoms: C_2  and  C_6
    4  A    between atoms: C_5  and  C_17
    5  A    between atoms: C_6  and  S_8
    6  A    between atoms: C_6  and  C_31
    7  A    between atoms: S_8  and  C_19
    8  A    between atoms: C_11  and  C_26
    9  A    between atoms: C_17  and  C_26
   10  A    between atoms: C_23  and  C_25
                            x       y       z     vdW  Elec       q    Type
                         _______ _______ _______ _____ _____    ______ ____

>  <TORSDO>
F 10

$$$$
=
 OpenBabel11052420093D

 37 41  0  0  1  0  0  0  0  0999 V2000
  192.7250  174.5790  147.0840 O   0  0  0  0  0  1  0  0  0  0  0  0
  190.1180  177.3400  144.0550 C   0  0  2  0  0  3  0  0  0  0  0  0
  188.4170  175.0880  141.5350 C   0  0  0  0  0  2  0  0  0  0  0  0
  191.2700  176.0750  145.8960 C   0  0  2  0  0  3  0  0  0  0  0  0
  189.8530  176.1190  143.3050 N   0  0  1  0  0  0  0  0  0  0  0  0
  191.4400  177.1150  144.7560 C   0  0  1  0  0  3  0  0  0  0  0  0
  188.7960  176.3710  142.3100 C   0  0  2  0  0  3  0  0  0  0  0  0
  190.0810  176.4060  146.8070 C   0  0  0  0  0  2  0  0  0  0  0  0
  192.2130  176.5300  143.5770 C   0  0  1  0  0  3  0  0  0  0  0  0
  194.2480  175.9000  144.9480 C   0  0  0  0  0  3  0  0  0  0  0  0
  187.7590  176.8860  146.8840 F   0  0  0  0  0  0  0  0  0  0  0  0
  188.7840  176.5590  146.0160 C   0  0  1  0  0  3  0  0  0  0  0  0
  193.5610  175.8470  143.7940 C   0  0  0  0  0  0  0  0  0  0  0  0
  189.5900  174.2120  141.1140 C   0  0  0  0  0  2  0  0  0  0  0  0
  188.9630  177.6670  144.9810 C   0  0  2  0  0  3  0  0  0  0  0  0
  191.1530  175.8390  142.6900 C   0  0  1  0  0  3  0  0  0  0  0  0
  192.5130  175.9230  146.7770 C   0  0  2  0  0  3  0  0  0  0  0  0
  187.5030  176.8290  143.0350 C   0  0  1  0  0  3  0  0  0  0  0  0
  193.7840  176.5560  146.2140 C   0  0  0  0  0  2  0  0  0  0  0  0
  191.3460  174.3200  142.5420 C   0  0  0  0  0  2  0  0  0  0  0  0
  190.1520  173.6330  142.2590 O   0  0  0  0  0  0  0  0  0  0  0  0
  187.7220  177.9040  144.1210 C   0  0  0  0  0  2  0  0  0  0  0  0
  186.4160  177.2500  142.0390 C   0  0  2  0  0  3  0  0  0  0  0  0
  186.8980  177.1850  140.5940 C   0  0  0  0  0  2  0  0  0  0  0  0
  185.9640  177.7860  139.7510 O   0  0  0  0  0  1  0  0  0  0  0  0
  185.7840  178.9110  142.4380 S   0  0  0  0  0  0  0  0  0  0  0  0
  183.9230  178.1280  144.2830 F   0  0  0  0  0  0  0  0  0  0  0  0
  183.3610  177.9570  142.1290 O   0  0  0  0  0  0  0  0  0  0  0  0
  184.1980  178.2670  142.9610 C   0  0  0  0  0  0  0  0  0  0  0  0
  194.3000  175.3400  142.5870 C   0  0  0  0  0  2  0  0  0  0  0  0
  195.8180  175.4380  142.7360 C   0  0  2  0  0  3  0  0  0  0  0  0
  196.3610  176.5540  141.8630 C   0  0  0  0  0  1  0  0  0  0  0  0
  196.4740  174.1320  142.3090 C   0  0  0  0  0  2  0  0  0  0  0  0
  197.0140  173.3590  143.5030 C   0  0  0  0  0  2  0  0  0  0  0  0
  197.4420  174.3160  144.6030 C   0  0  0  0  0  2  0  0  0  0  0  0
  197.0540  173.7710  145.9660 C   0  0  0  0  0  2  0  0  0  0  0  0
  196.5620  172.3410  145.8470 C   0  0  0  0  0  1  0  0  0  0  0  0
  2  6  1  0  0  0  0
  2 15  1  0  0  0  0
  3  7  1  0  0  0  0
  4 17  1  0  0  0  0
  4  8  1  0  0  0  0
  5  2  1  0  0  0  0
  6  4  1  0  0  0  0
  7 18  1  0  0  0  0
  7  5  1  0  0  0  0
  9 13  1  0  0  0  0
  9  6  1  0  0  0  0
 10 19  1  0  0  0  0
 12  8  1  0  0  0  0
 12 11  1  0  0  0  0
 13 10  2  0  0  0  0
 14  3  1  0  0  0  0
 14 21  1  0  0  0  0
 15 12  1  0  0  0  0
 16  5  1  0  0  0  0
 16  9  1  0  0  0  0
 17  1  1  0  0  0  0
 18 22  1  0  0  0  0
 19 17  1  0  0  0  0
 20 16  1  0  0  0  0
 21 20  1  0  0  0  0
 22 15  1  0  0  0  0
 23 26  1  0  0  0  0
 23 18  1  0  0  0  0
 24 23  1  0  0  0  0
 25 24  1  0  0  0  0
 26 29  1  0  0  0  0
 28 29  2  0  0  0  0
 29 27  1  0  0  0  0
 30 31  1  0  0  0  0
 30 13  1  0  0  0  0
 32 31  1  0  0  0  0
 33 31  1  0  0  0  0
 33 34  1  0  0  0  0
 34 35  1  0  0  0  0
 35 36  1  0  0  0  0
 37 36  1  0  0  0  0
M  END
>  <MODEL>
3

>  <REMARK>
 VINA RESULT:      -6.9      3.395      8.711
  Name = 
  10 active torsions:
  status: ('A' for Active; 'I' for Inactive)
    1  A    between atoms: C_1  and  C_5
    2  A    between atoms: C_1  and  C_23
    3  A    between atoms: C_2  and  C_6
    4  A    between atoms: C_5  and  C_17
    5  A    between atoms: C_6  and  S_8
    6  A    between atoms: C_6  and  C_31
    7  A    between atoms: S_8  and  C_19
    8  A    between atoms: C_11  and  C_26
    9  A    between atoms: C_17  and  C_26
   10  A    between atoms: C_23  and  C_25
                            x       y       z     vdW  Elec       q    Type
                         _______ _______ _______ _____ _____    ______ ____

>  <TORSDO>
F 10

$$$$
=
 OpenBabel11052420093D

 37 41  0  0  1  0  0  0  0  0999 V2000
  193.8240  173.0200  145.7570 O   0  0  0  0  0  1  0  0  0  0  0  0
  191.0550  176.4540  143.7260 C   0  0  2  0  0  3  0  0  0  0  0  0
  187.8100  174.8720  142.5950 C   0  0  0  0  0  2  0  0  0  0  0  0
  192.4980  174.9010  145.0770 C   0  0  2  0  0  3  0  0  0  0  0  0
  190.1300  175.3840  143.3780 N   0  0  1  0  0  0  0  0  0  0  0  0
  192.4200  175.8070  143.8180 C   0  0  1  0  0  3  0  0  0  0  0  0
  188.8610  175.9630  142.9060 C   0  0  2  0  0  3  0  0  0  0  0  0
  192.0180  175.6270  146.3400 C   0  0  0  0  0  2  0  0  0  0  0  0
  192.3530  174.9780  142.5380 C   0  0  1  0  0  3  0  0  0  0  0  0
  194.5050  173.7190  142.9870 C   0  0  0  0  0  3  0  0  0  0  0  0
  190.2480  176.8640  147.3250 F   0  0  0  0  0  0  0  0  0  0  0  0
  190.6110  176.1980  146.1690 C   0  0  1  0  0  3  0  0  0  0  0  0
  193.3820  173.8840  142.2670 C   0  0  0  0  0  0  0  0  0  0  0  0
  188.3420  173.6460  141.8650 C   0  0  0  0  0  2  0  0  0  0  0  0
  190.6100  177.1650  144.9890 C   0  0  2  0  0  3  0  0  0  0  0  0
  190.8540  174.6730  142.3220 C   0  0  1  0  0  3  0  0  0  0  0  0
  193.9000  174.3520  145.3520 C   0  0  2  0  0  3  0  0  0  0  0  0
  188.2450  176.8400  144.0280 C   0  0  1  0  0  3  0  0  0  0  0  0
  194.8910  174.5110  144.2000 C   0  0  0  0  0  2  0  0  0  0  0  0
  190.5030  173.1760  142.3610 C   0  0  0  0  0  2  0  0  0  0  0  0
  189.1710  172.9280  142.7370 O   0  0  0  0  0  0  0  0  0  0  0  0
  189.2440  177.7940  144.7180 C   0  0  0  0  0  2  0  0  0  0  0  0
  186.9990  177.5900  143.5400 C   0  0  2  0  0  3  0  0  0  0  0  0
  187.2720  178.4080  142.2830 C   0  0  0  0  0  2  0  0  0  0  0  0
  186.3330  178.1010  141.2990 O   0  0  0  0  0  1  0  0  0  0  0  0
  186.3170  178.6390  144.8630 S   0  0  0  0  0  0  0  0  0  0  0  0
  185.3230  176.1730  145.5060 F   0  0  0  0  0  0  0  0  0  0  0  0
  186.5160  177.2320  147.0680 O   0  0  0  0  0  0  0  0  0  0  0  0
  186.0460  177.2360  145.9420 C   0  0  0  0  0  0  0  0  0  0  0  0
  193.2980  173.1400  140.9630 C   0  0  0  0  0  2  0  0  0  0  0  0
  193.4000  174.0600  139.7470 C   0  0  2  0  0  3  0  0  0  0  0  0
  192.2790  173.7650  138.7690 C   0  0  0  0  0  1  0  0  0  0  0  0
  194.7280  173.8440  139.0330 C   0  0  0  0  0  2  0  0  0  0  0  0
  195.6520  175.0410  139.1950 C   0  0  0  0  0  2  0  0  0  0  0  0
  196.7470  174.7330  140.2020 C   0  0  0  0  0  2  0  0  0  0  0  0
  196.9520  175.9050  141.1450 C   0  0  0  0  0  2  0  0  0  0  0  0
  195.6800  176.7230  141.2600 C   0  0  0  0  0  1  0  0  0  0  0  0
  2  6  1  0  0  0  0
  2 15  1  0  0  0  0
  3  7  1  0  0  0  0
  4 17  1  0  0  0  0
  4  8  1  0  0  0  0
  5  2  1  0  0  0  0
  6  4  1  0  0  0  0
  7  5  1  0  0  0  0
  7 18  1  0  0  0  0
  9  6  1  0  0  0  0
 10 19  1  0  0  0  0
 12  8  1  0  0  0  0
 12 11  1  0  0  0  0
 13  9  1  0  0  0  0
 13 10  2  0  0  0  0
 14  3  1  0  0  0  0
 14 21  1  0  0  0  0
 15 12  1  0  0  0  0
 16 20  1  0  0  0  0
 16  9  1  0  0  0  0
 16  5  1  0  0  0  0
 17  1  1  0  0  0  0
 18 22  1  0  0  0  0
 19 17  1  0  0  0  0
 20 21  1  0  0  0  0
 22 15  1  0  0  0  0
 23 18  1  0  0  0  0
 23 26  1  0  0  0  0
 24 23  1  0  0  0  0
 25 24  1  0  0  0  0
 26 29  1  0  0  0  0
 27 29  1  0  0  0  0
 29 28  2  0  0  0  0
 30 13  1  0  0  0  0
 31 30  1  0  0  0  0
 32 31  1  0  0  0  0
 33 34  1  0  0  0  0
 33 31  1  0  0  0  0
 34 35  1  0  0  0  0
 35 36  1  0  0  0  0
 36 37  1  0  0  0  0
M  END
>  <MODEL>
4

>  <REMARK>
 VINA RESULT:      -6.7      3.377      8.212
  Name = 
  10 active torsions:
  status: ('A' for Active; 'I' for Inactive)
    1  A    between atoms: C_1  and  C_5
    2  A    between atoms: C_1  and  C_23
    3  A    between atoms: C_2  and  C_6
    4  A    between atoms: C_5  and  C_17
    5  A    between atoms: C_6  and  S_8
    6  A    between atoms: C_6  and  C_31
    7  A    between atoms: S_8  and  C_19
    8  A    between atoms: C_11  and  C_26
    9  A    between atoms: C_17  and  C_26
   10  A    between atoms: C_23  and  C_25
                            x       y       z     vdW  Elec       q    Type
                         _______ _______ _______ _____ _____    ______ ____

>  <TORSDO>
F 10

$$$$
=
 OpenBabel11052420093D

 37 41  0  0  1  0  0  0  0  0999 V2000
  192.4580  172.6410  139.9720 O   0  0  0  0  0  1  0  0  0  0  0  0
  188.9670  173.9540  143.0830 C   0  0  2  0  0  3  0  0  0  0  0  0
  189.9710  177.2180  144.7110 C   0  0  0  0  0  2  0  0  0  0  0  0
  190.5020  173.2640  141.2150 C   0  0  2  0  0  3  0  0  0  0  0  0
  189.8490  175.0430  143.4810 N   0  0  1  0  0  0  0  0  0  0  0  0
  189.8740  172.8530  142.5740 C   0  0  1  0  0  3  0  0  0  0  0  0
  189.1050  175.9970  144.3220 C   0  0  2  0  0  3  0  0  0  0  0  0
  189.4480  173.7710  140.2230 C   0  0  0  0  0  2  0  0  0  0  0  0
  190.9050  172.8870  143.6990 C   0  0  1  0  0  3  0  0  0  0  0  0
  192.5010  171.2740  142.5710 C   0  0  0  0  0  3  0  0  0  0  0  0
  187.6720  175.3070  139.8790 F   0  0  0  0  0  0  0  0  0  0  0  0
  188.6210  174.9160  140.8050 C   0  0  1  0  0  3  0  0  0  0  0  0
  192.2350  172.1510  143.5540 C   0  0  0  0  0  0  0  0  0  0  0  0
  191.4060  176.8980  145.1070 C   0  0  0  0  0  2  0  0  0  0  0  0
  187.9360  174.4310  142.0800 C   0  0  2  0  0  3  0  0  0  0  0  0
  190.9020  174.3410  144.2190 C   0  0  1  0  0  3  0  0  0  0  0  0
  191.2860  172.1380  140.5370 C   0  0  2  0  0  3  0  0  0  0  0  0
  187.9050  176.5650  143.5190 C   0  0  1  0  0  3  0  0  0  0  0  0
  191.5900  170.9360  141.4300 C   0  0  0  0  0  2  0  0  0  0  0  0
  192.2420  175.0770  144.0470 C   0  0  0  0  0  2  0  0  0  0  0  0
  192.1030  176.4740  143.9670 O   0  0  0  0  0  0  0  0  0  0  0  0
  187.0820  175.5030  142.7580 C   0  0  0  0  0  2  0  0  0  0  0  0
  187.0070  177.4490  144.3940 C   0  0  2  0  0  3  0  0  0  0  0  0
  186.6610  176.7860  145.7220 C   0  0  0  0  0  2  0  0  0  0  0  0
  187.1200  177.5680  146.7810 O   0  0  0  0  0  1  0  0  0  0  0  0
  185.4980  177.9280  143.4930 S   0  0  0  0  0  0  0  0  0  0  0  0
  185.9190  180.1640  145.0110 F   0  0  0  0  0  0  0  0  0  0  0  0
  183.9870  179.0830  145.2980 O   0  0  0  0  0  0  0  0  0  0  0  0
  185.0600  179.1530  144.7230 C   0  0  0  0  0  0  0  0  0  0  0  0
  193.1870  172.1740  144.7180 C   0  0  0  0  0  2  0  0  0  0  0  0
  194.4090  171.2830  144.5040 C   0  0  2  0  0  3  0  0  0  0  0  0
  194.5910  170.3490  145.6860 C   0  0  0  0  0  1  0  0  0  0  0  0
  195.6640  172.1330  144.3660 C   0  0  0  0  0  2  0  0  0  0  0  0
  196.5180  172.0810  145.6240 C   0  0  0  0  0  2  0  0  0  0  0  0
  196.7960  173.4850  146.1350 C   0  0  0  0  0  2  0  0  0  0  0  0
  196.0670  174.5150  145.2910 C   0  0  0  0  0  2  0  0  0  0  0  0
  195.0780  175.2930  146.1380 C   0  0  0  0  0  1  0  0  0  0  0  0
  1 17  1  0  0  0  0
  2  5  1  0  0  0  0
  3 14  1  0  0  0  0
  4  6  1  0  0  0  0
  5 16  1  0  0  0  0
  5  7  1  0  0  0  0
  6  2  1  0  0  0  0
  6  9  1  0  0  0  0
  7  3  1  0  0  0  0
  8 12  1  0  0  0  0
  8  4  1  0  0  0  0
  9 16  1  0  0  0  0
 10 13  2  0  0  0  0
 11 12  1  0  0  0  0
 12 15  1  0  0  0  0
 13  9  1  0  0  0  0
 13 30  1  0  0  0  0
 15 22  1  0  0  0  0
 15  2  1  0  0  0  0
 17  4  1  0  0  0  0
 17 19  1  0  0  0  0
 18  7  1  0  0  0  0
 18 23  1  0  0  0  0
 19 10  1  0  0  0  0
 20 16  1  0  0  0  0
 21 20  1  0  0  0  0
 21 14  1  0  0  0  0
 22 18  1  0  0  0  0
 23 24  1  0  0  0  0
 24 25  1  0  0  0  0
 26 23  1  0  0  0  0
 26 29  1  0  0  0  0
 29 27  1  0  0  0  0
 29 28  2  0  0  0  0
 31 30  1  0  0  0  0
 31 32  1  0  0  0  0
 33 31  1  0  0  0  0
 33 34  1  0  0  0  0
 34 35  1  0  0  0  0
 36 35  1  0  0  0  0
 36 37  1  0  0  0  0
M  END
>  <MODEL>
5

>  <REMARK>
 VINA RESULT:      -6.6      3.565      7.997
  Name = 
  10 active torsions:
  status: ('A' for Active; 'I' for Inactive)
    1  A    between atoms: C_1  and  C_5
    2  A    between atoms: C_1  and  C_23
    3  A    between atoms: C_2  and  C_6
    4  A    between atoms: C_5  and  C_17
    5  A    between atoms: C_6  and  S_8
    6  A    between atoms: C_6  and  C_31
    7  A    between atoms: S_8  and  C_19
    8  A    between atoms: C_11  and  C_26
    9  A    between atoms: C_17  and  C_26
   10  A    between atoms: C_23  and  C_25
                            x       y       z     vdW  Elec       q    Type
                         _______ _______ _______ _____ _____    ______ ____

>  <TORSDO>
F 10

$$$$
=
 OpenBabel11052420093D

 37 41  0  0  1  0  0  0  0  0999 V2000
  193.6810  173.7470  146.1420 O   0  0  0  0  0  1  0  0  0  0  0  0
  190.4020  177.0470  144.7450 C   0  0  2  0  0  3  0  0  0  0  0  0
  188.2520  175.5320  142.0260 C   0  0  0  0  0  2  0  0  0  0  0  0
  191.9620  175.3910  145.8130 C   0  0  2  0  0  3  0  0  0  0  0  0
  190.0120  176.0980  143.7110 N   0  0  1  0  0  0  0  0  0  0  0  0
  191.8510  176.7430  145.0590 C   0  0  1  0  0  3  0  0  0  0  0  0
  188.7570  176.5430  143.0810 C   0  0  2  0  0  3  0  0  0  0  0  0
  190.9930  175.3110  147.0000 C   0  0  0  0  0  2  0  0  0  0  0  0
  192.3620  176.6270  143.6260 C   0  0  1  0  0  3  0  0  0  0  0  0
  194.6640  175.8010  144.2880 C   0  0  0  0  0  3  0  0  0  0  0  0
  188.7320  175.5210  147.6870 F   0  0  0  0  0  0  0  0  0  0  0  0
  189.5500  175.5760  146.5740 C   0  0  1  0  0  3  0  0  0  0  0  0
  193.7420  176.0410  143.3390 C   0  0  0  0  0  0  0  0  0  0  0  0
  189.3270  174.9440  141.1210 C   0  0  0  0  0  2  0  0  0  0  0  0
  189.4690  176.9610  145.9370 C   0  0  2  0  0  3  0  0  0  0  0  0
  191.1530  176.1460  142.7930 C   0  0  1  0  0  3  0  0  0  0  0  0
  193.3710  175.0940  146.3340 C   0  0  2  0  0  3  0  0  0  0  0  0
  187.6420  176.6290  144.1570 C   0  0  1  0  0  3  0  0  0  0  0  0
  194.4710  175.9870  145.7620 C   0  0  0  0  0  2  0  0  0  0  0  0
  191.3490  174.7720  142.1290 C   0  0  0  0  0  2  0  0  0  0  0  0
  190.1410  174.0960  141.8830 O   0  0  0  0  0  0  0  0  0  0  0  0
  188.0640  177.3330  145.4640 C   0  0  0  0  0  2  0  0  0  0  0  0
  186.3520  177.2330  143.5860 C   0  0  2  0  0  3  0  0  0  0  0  0
  186.6130  178.5050  142.7870 C   0  0  0  0  0  2  0  0  0  0  0  0
  186.3200  178.2910  141.4400 O   0  0  0  0  0  1  0  0  0  0  0  0
  185.1400  177.5350  144.9120 S   0  0  0  0  0  0  0  0  0  0  0  0
  184.7770  180.1670  144.2620 F   0  0  0  0  0  0  0  0  0  0  0  0
  183.5220  178.6660  143.1860 O   0  0  0  0  0  0  0  0  0  0  0  0
  184.3850  178.8900  144.0190 C   0  0  0  0  0  0  0  0  0  0  0  0
  194.2130  176.0040  141.9110 C   0  0  0  0  0  2  0  0  0  0  0  0
  195.5220  175.2350  141.7370 C   0  0  2  0  0  3  0  0  0  0  0  0
  196.4340  175.9620  140.7670 C   0  0  0  0  0  1  0  0  0  0  0  0
  195.2450  173.8430  141.1840 C   0  0  0  0  0  2  0  0  0  0  0  0
  195.3960  172.7750  142.2560 C   0  0  0  0  0  2  0  0  0  0  0  0
  196.6650  173.0050  143.0590 C   0  0  0  0  0  2  0  0  0  0  0  0
  196.5060  172.4800  144.4740 C   0  0  0  0  0  2  0  0  0  0  0  0
  197.1910  173.4030  145.4640 C   0  0  0  0  0  1  0  0  0  0  0  0
  1 17  1  0  0  0  0
  2  6  1  0  0  0  0
  2 15  1  0  0  0  0
  3  7  1  0  0  0  0
  4 17  1  0  0  0  0
  4  8  1  0  0  0  0
  5  2  1  0  0  0  0
  6  4  1  0  0  0  0
  7  5  1  0  0  0  0
  7 18  1  0  0  0  0
  9  6  1  0  0  0  0
 10 19  1  0  0  0  0
 12  8  1  0  0  0  0
 12 11  1  0  0  0  0
 13  9  1  0  0  0  0
 13 10  2  0  0  0  0
 14 21  1  0  0  0  0
 14  3  1  0  0  0  0
 15 12  1  0  0  0  0
 16  9  1  0  0  0  0
 16  5  1  0  0  0  0
 18 22  1  0  0  0  0
 19 17  1  0  0  0  0
 20 16  1  0  0  0  0
 21 20  1  0  0  0  0
 22 15  1  0  0  0  0
 23 18  1  0  0  0  0
 23 26  1  0  0  0  0
 24 23  1  0  0  0  0
 25 24  1  0  0  0  0
 28 29  2  0  0  0  0
 29 27  1  0  0  0  0
 29 26  1  0  0  0  0
 30 13  1  0  0  0  0
 31 30  1  0  0  0  0
 32 31  1  0  0  0  0
 33 31  1  0  0  0  0
 33 34  1  0  0  0  0
 34 35  1  0  0  0  0
 35 36  1  0  0  0  0
 36 37  1  0  0  0  0
M  END
>  <MODEL>
6

>  <REMARK>
 VINA RESULT:      -6.6      3.473      8.594
  Name = 
  10 active torsions:
  status: ('A' for Active; 'I' for Inactive)
    1  A    between atoms: C_1  and  C_5
    2  A    between atoms: C_1  and  C_23
    3  A    between atoms: C_2  and  C_6
    4  A    between atoms: C_5  and  C_17
    5  A    between atoms: C_6  and  S_8
    6  A    between atoms: C_6  and  C_31
    7  A    between atoms: S_8  and  C_19
    8  A    between atoms: C_11  and  C_26
    9  A    between atoms: C_17  and  C_26
   10  A    between atoms: C_23  and  C_25
                            x       y       z     vdW  Elec       q    Type
                         _______ _______ _______ _____ _____    ______ ____

>  <TORSDO>
F 10

$$$$
=
 OpenBabel11052420093D

 37 41  0  0  1  0  0  0  0  0999 V2000
  186.7890  179.8190  147.5300 O   0  0  0  0  0  1  0  0  0  0  0  0
  189.4570  175.8870  146.5230 C   0  0  2  0  0  3  0  0  0  0  0  0
  191.5940  176.6260  143.4900 C   0  0  0  0  0  2  0  0  0  0  0  0
  188.2290  177.9030  147.3860 C   0  0  2  0  0  3  0  0  0  0  0  0
  189.9000  176.5970  145.3310 N   0  0  1  0  0  0  0  0  0  0  0  0
  188.0920  176.4500  146.8560 C   0  0  1  0  0  3  0  0  0  0  0  0
  191.0300  175.8750  144.7190 C   0  0  2  0  0  3  0  0  0  0  0  0
  189.2840  178.0160  148.4940 C   0  0  0  0  0  2  0  0  0  0  0  0
  187.4980  176.4230  145.4500 C   0  0  1  0  0  3  0  0  0  0  0  0
  185.3910  177.6780  146.0850 C   0  0  0  0  0  3  0  0  0  0  0  0
  191.5380  177.5740  149.0920 F   0  0  0  0  0  0  0  0  0  0  0  0
  190.6400  177.4730  148.0450 C   0  0  1  0  0  3  0  0  0  0  0  0
  186.1980  177.1590  145.1420 C   0  0  0  0  0  0  0  0  0  0  0  0
  190.5490  177.2250  142.5570 C   0  0  0  0  0  2  0  0  0  0  0  0
  190.4770  176.0110  147.6380 C   0  0  2  0  0  3  0  0  0  0  0  0
  188.6990  176.5820  144.4920 C   0  0  1  0  0  3  0  0  0  0  0  0
  186.9180  178.4860  147.9220 C   0  0  2  0  0  3  0  0  0  0  0  0
  192.1970  175.7870  145.7370 C   0  0  1  0  0  3  0  0  0  0  0  0
  185.6650  177.6930  147.5580 C   0  0  0  0  0  2  0  0  0  0  0  0
  188.6500  177.8520  143.6240 C   0  0  0  0  0  2  0  0  0  0  0  0
  189.9210  178.2920  143.2120 O   0  0  0  0  0  0  0  0  0  0  0  0
  191.7760  175.3630  147.1610 C   0  0  0  0  0  2  0  0  0  0  0  0
  193.3430  174.9160  145.2080 C   0  0  2  0  0  3  0  0  0  0  0  0
  193.0630  173.4260  145.3770 C   0  0  0  0  0  2  0  0  0  0  0  0
  192.8110  172.8430  144.1360 O   0  0  0  0  0  1  0  0  0  0  0  0
  194.9190  175.3740  145.9960 S   0  0  0  0  0  0  0  0  0  0  0  0
  195.2050  178.0280  145.3990 F   0  0  0  0  0  0  0  0  0  0  0  0
  195.2710  176.5850  143.6970 O   0  0  0  0  0  0  0  0  0  0  0  0
  195.1530  176.7680  144.8970 C   0  0  0  0  0  0  0  0  0  0  0  0
  185.6330  177.0490  143.7530 C   0  0  0  0  0  2  0  0  0  0  0  0
  185.1220  178.3820  143.2110 C   0  0  2  0  0  3  0  0  0  0  0  0
  183.6410  178.2900  142.8980 C   0  0  0  0  0  1  0  0  0  0  0  0
  185.8610  178.7490  141.9310 C   0  0  0  0  0  2  0  0  0  0  0  0
  185.1450  178.2180  140.6990 C   0  0  0  0  0  2  0  0  0  0  0  0
  186.1320  177.5380  139.7640 C   0  0  0  0  0  2  0  0  0  0  0  0
  187.4430  177.2650  140.4790 C   0  0  0  0  0  2  0  0  0  0  0  0
  187.6050  175.7790  140.7420 C   0  0  0  0  0  1  0  0  0  0  0  0
  1 17  1  0  0  0  0
  2  6  1  0  0  0  0
  2 15  1  0  0  0  0
  3  7  1  0  0  0  0
  4 17  1  0  0  0  0
  4  8  1  0  0  0  0
  5  2  1  0  0  0  0
  6  4  1  0  0  0  0
  7  5  1  0  0  0  0
  7 18  1  0  0  0  0
  9  6  1  0  0  0  0
 10 19  1  0  0  0  0
 12  8  1  0  0  0  0
 12 11  1  0  0  0  0
 13  9  1  0  0  0  0
 13 10  2  0  0  0  0
 14 21  1  0  0  0  0
 14  3  1  0  0  0  0
 15 12  1  0  0  0  0
 16  5  1  0  0  0  0
 16  9  1  0  0  0  0
 18 22  1  0  0  0  0
 19 17  1  0  0  0  0
 20 16  1  0  0  0  0
 21 20  1  0  0  0  0
 22 15  1  0  0  0  0
 23 24  1  0  0  0  0
 23 18  1  0  0  0  0
 23 26  1  0  0  0  0
 25 24  1  0  0  0  0
 28 29  2  0  0  0  0
 29 27  1  0  0  0  0
 29 26  1  0  0  0  0
 30 13  1  0  0  0  0
 31 30  1  0  0  0  0
 32 31  1  0  0  0  0
 33 31  1  0  0  0  0
 34 33  1  0  0  0  0
 35 36  1  0  0  0  0
 35 34  1  0  0  0  0
 36 37  1  0  0  0  0
M  END
>  <MODEL>
7

>  <REMARK>
 VINA RESULT:      -6.5      2.411      5.009
  Name = 
  10 active torsions:
  status: ('A' for Active; 'I' for Inactive)
    1  A    between atoms: C_1  and  C_5
    2  A    between atoms: C_1  and  C_23
    3  A    between atoms: C_2  and  C_6
    4  A    between atoms: C_5  and  C_17
    5  A    between atoms: C_6  and  S_8
    6  A    between atoms: C_6  and  C_31
    7  A    between atoms: S_8  and  C_19
    8  A    between atoms: C_11  and  C_26
    9  A    between atoms: C_17  and  C_26
   10  A    between atoms: C_23  and  C_25
                            x       y       z     vdW  Elec       q    Type
                         _______ _______ _______ _____ _____    ______ ____

>  <TORSDO>
F 10

$$$$
=
 OpenBabel11052420093D

 37 41  0  0  1  0  0  0  0  0999 V2000
  186.6050  178.4280  147.2940 O   0  0  0  0  0  1  0  0  0  0  0  0
  189.1020  175.0550  144.8480 C   0  0  2  0  0  3  0  0  0  0  0  0
  192.1910  176.6720  143.3810 C   0  0  0  0  0  2  0  0  0  0  0  0
  187.8360  176.5670  146.4060 C   0  0  2  0  0  3  0  0  0  0  0  0
  189.9810  176.1360  144.4220 N   0  0  1  0  0  0  0  0  0  0  0  0
  187.7590  175.6980  145.1220 C   0  0  1  0  0  3  0  0  0  0  0  0
  191.1830  175.5710  143.7840 C   0  0  2  0  0  3  0  0  0  0  0  0
  188.4630  175.8060  147.5820 C   0  0  0  0  0  2  0  0  0  0  0  0
  187.6730  176.5630  143.8670 C   0  0  1  0  0  3  0  0  0  0  0  0
  185.5940  177.8060  144.6080 C   0  0  0  0  0  3  0  0  0  0  0  0
  190.3350  174.5440  148.3110 F   0  0  0  0  0  0  0  0  0  0  0  0
  189.8370  175.2420  147.2260 C   0  0  1  0  0  3  0  0  0  0  0  0
  186.6220  177.6630  143.7530 C   0  0  0  0  0  0  0  0  0  0  0  0
  191.5780  177.9180  142.7540 C   0  0  0  0  0  2  0  0  0  0  0  0
  189.6940  174.3090  146.0270 C   0  0  2  0  0  3  0  0  0  0  0  0
  189.1360  176.8760  143.4810 C   0  0  1  0  0  3  0  0  0  0  0  0
  186.4780  177.1070  146.8630 C   0  0  2  0  0  3  0  0  0  0  0  0
  191.9270  174.6630  144.7990 C   0  0  1  0  0  3  0  0  0  0  0  0
  185.3550  176.9800  145.8350 C   0  0  0  0  0  2  0  0  0  0  0  0
  189.4930  178.3720  143.5200 C   0  0  0  0  0  2  0  0  0  0  0  0
  190.8620  178.6100  143.7400 O   0  0  0  0  0  0  0  0  0  0  0  0
  191.0160  173.6890  145.5760 C   0  0  0  0  0  2  0  0  0  0  0  0
  193.1030  173.9300  144.1430 C   0  0  2  0  0  3  0  0  0  0  0  0
  192.6570  172.6870  143.3810 C   0  0  0  0  0  2  0  0  0  0  0  0
  192.4980  172.9870  142.0280 O   0  0  0  0  0  1  0  0  0  0  0  0
  194.3740  173.5120  145.3800 S   0  0  0  0  0  0  0  0  0  0  0  0
  194.1290  175.9590  146.5780 F   0  0  0  0  0  0  0  0  0  0  0  0
  195.6800  175.7520  144.9850 O   0  0  0  0  0  0  0  0  0  0  0  0
  194.7930  175.2330  145.6430 C   0  0  0  0  0  0  0  0  0  0  0  0
  186.5500  178.4440  142.4700 C   0  0  0  0  0  2  0  0  0  0  0  0
  185.9620  177.6350  141.3150 C   0  0  2  0  0  3  0  0  0  0  0  0
  187.0290  177.3540  140.2730 C   0  0  0  0  0  1  0  0  0  0  0  0
  184.8340  178.4120  140.6480 C   0  0  0  0  0  2  0  0  0  0  0  0
  183.5390  178.3090  141.4390 C   0  0  0  0  0  2  0  0  0  0  0  0
  182.3920  177.9110  140.5260 C   0  0  0  0  0  2  0  0  0  0  0  0
  181.1270  178.6630  140.8980 C   0  0  0  0  0  2  0  0  0  0  0  0
  181.1400  179.0300  142.3700 C   0  0  0  0  0  1  0  0  0  0  0  0
  2  6  1  0  0  0  0
  2 15  1  0  0  0  0
  3  7  1  0  0  0  0
  4 17  1  0  0  0  0
  4  8  1  0  0  0  0
  5  2  1  0  0  0  0
  6  4  1  0  0  0  0
  7  5  1  0  0  0  0
  7 18  1  0  0  0  0
  9  6  1  0  0  0  0
 10 19  1  0  0  0  0
 12  8  1  0  0  0  0
 12 11  1  0  0  0  0
 13  9  1  0  0  0  0
 13 10  2  0  0  0  0
 14  3  1  0  0  0  0
 14 21  1  0  0  0  0
 15 12  1  0  0  0  0
 16 20  1  0  0  0  0
 16  9  1  0  0  0  0
 16  5  1  0  0  0  0
 17  1  1  0  0  0  0
 18 22  1  0  0  0  0
 19 17  1  0  0  0  0
 20 21  1  0  0  0  0
 22 15  1  0  0  0  0
 23 18  1  0  0  0  0
 23 26  1  0  0  0  0
 24 23  1  0  0  0  0
 25 24  1  0  0  0  0
 26 29  1  0  0  0  0
 28 29  2  0  0  0  0
 29 27  1  0  0  0  0
 30 13  1  0  0  0  0
 31 30  1  0  0  0  0
 32 31  1  0  0  0  0
 33 31  1  0  0  0  0
 33 34  1  0  0  0  0
 35 36  1  0  0  0  0
 35 34  1  0  0  0  0
 36 37  1  0  0  0  0
M  END
>  <MODEL>
8

>  <REMARK>
 VINA RESULT:      -6.5      2.743      4.646
  Name = 
  10 active torsions:
  status: ('A' for Active; 'I' for Inactive)
    1  A    between atoms: C_1  and  C_5
    2  A    between atoms: C_1  and  C_23
    3  A    between atoms: C_2  and  C_6
    4  A    between atoms: C_5  and  C_17
    5  A    between atoms: C_6  and  S_8
    6  A    between atoms: C_6  and  C_31
    7  A    between atoms: S_8  and  C_19
    8  A    between atoms: C_11  and  C_26
    9  A    between atoms: C_17  and  C_26
   10  A    between atoms: C_23  and  C_25
                            x       y       z     vdW  Elec       q    Type
                         _______ _______ _______ _____ _____    ______ ____

>  <TORSDO>
F 10

$$$$
=
 OpenBabel11052420093D

 37 41  0  0  1  0  0  0  0  0999 V2000
  191.2660  178.6380  143.5080 O   0  0  0  0  0  1  0  0  0  0  0  0
  191.0700  173.7850  143.5030 C   0  0  2  0  0  3  0  0  0  0  0  0
  189.0240  172.6660  140.5240 C   0  0  0  0  0  2  0  0  0  0  0  0
  191.5440  176.2530  143.5090 C   0  0  2  0  0  3  0  0  0  0  0  0
  190.1460  173.9070  142.3830 N   0  0  1  0  0  0  0  0  0  0  0  0
  190.9280  175.0650  144.2970 C   0  0  1  0  0  3  0  0  0  0  0  0
  189.9370  172.5840  141.7690 C   0  0  2  0  0  3  0  0  0  0  0  0
  192.9560  175.9370  143.0010 C   0  0  0  0  0  2  0  0  0  0  0  0
  189.4030  175.1390  144.3170 C   0  0  1  0  0  3  0  0  0  0  0  0
  189.3170  177.4490  145.3550 C   0  0  0  0  0  3  0  0  0  0  0  0
  194.2870  174.4120  141.7630 F   0  0  0  0  0  0  0  0  0  0  0  0
  192.9870  174.6590  142.1650 C   0  0  1  0  0  3  0  0  0  0  0  0
  188.6940  176.4160  144.7610 C   0  0  0  0  0  0  0  0  0  0  0  0
  187.8140  173.5800  140.6620 C   0  0  0  0  0  2  0  0  0  0  0  0
  192.4760  173.4990  143.0160 C   0  0  2  0  0  3  0  0  0  0  0  0
  188.9380  174.4300  143.0260 C   0  0  1  0  0  3  0  0  0  0  0  0
  191.6110  177.5530  144.3150 C   0  0  2  0  0  3  0  0  0  0  0  0
  191.2950  172.0280  141.2670 C   0  0  1  0  0  3  0  0  0  0  0  0
  190.7910  177.5560  145.6030 C   0  0  0  0  0  2  0  0  0  0  0  0
  188.1730  175.3370  142.0470 C   0  0  0  0  0  2  0  0  0  0  0  0
  188.2580  174.9080  140.7100 O   0  0  0  0  0  0  0  0  0  0  0  0
  192.4560  172.1630  142.2750 C   0  0  0  0  0  2  0  0  0  0  0  0
  191.1610  170.5880  140.7560 C   0  0  2  0  0  3  0  0  0  0  0  0
  191.5010  169.5590  141.8280 C   0  0  0  0  0  2  0  0  0  0  0  0
  190.7430  168.4040  141.6400 O   0  0  0  0  0  1  0  0  0  0  0  0
  192.1780  170.3350  139.2660 S   0  0  0  0  0  0  0  0  0  0  0  0
  190.1220  170.8500  137.5370 F   0  0  0  0  0  0  0  0  0  0  0  0
  190.3530  168.7480  138.2530 O   0  0  0  0  0  0  0  0  0  0  0  0
  190.7540  169.9000  138.2730 C   0  0  0  0  0  0  0  0  0  0  0  0
  187.1910  176.4090  144.8140 C   0  0  0  0  0  2  0  0  0  0  0  0
  186.6370  177.0950  146.0610 C   0  0  2  0  0  3  0  0  0  0  0  0
  187.0480  176.3330  147.3070 C   0  0  0  0  0  1  0  0  0  0  0  0
  185.1160  177.1400  146.0060 C   0  0  0  0  0  2  0  0  0  0  0  0
  184.5960  178.5690  146.0410 C   0  0  0  0  0  2  0  0  0  0  0  0
  184.3220  179.0670  144.6320 C   0  0  0  0  0  2  0  0  0  0  0  0
  185.5620  179.7170  144.0440 C   0  0  0  0  0  2  0  0  0  0  0  0
  185.9490  179.0430  142.7420 C   0  0  0  0  0  1  0  0  0  0  0  0
  1 17  1  0  0  0  0
  2  6  1  0  0  0  0
  3 14  1  0  0  0  0
  3  7  1  0  0  0  0
  4  6  1  0  0  0  0
  4 17  1  0  0  0  0
  5 16  1  0  0  0  0
  5  2  1  0  0  0  0
  6  9  1  0  0  0  0
  7  5  1  0  0  0  0
  8  4  1  0  0  0  0
  9 13  1  0  0  0  0
 10 19  1  0  0  0  0
 11 12  1  0  0  0  0
 12  8  1  0  0  0  0
 12 15  1  0  0  0  0
 13 30  1  0  0  0  0
 13 10  2  0  0  0  0
 14 21  1  0  0  0  0
 15  2  1  0  0  0  0
 16  9  1  0  0  0  0
 17 19  1  0  0  0  0
 18  7  1  0  0  0  0
 18 22  1  0  0  0  0
 20 16  1  0  0  0  0
 21 20  1  0  0  0  0
 22 15  1  0  0  0  0
 23 18  1  0  0  0  0
 23 24  1  0  0  0  0
 25 24  1  0  0  0  0
 26 23  1  0  0  0  0
 27 29  1  0  0  0  0
 28 29  2  0  0  0  0
 29 26  1  0  0  0  0
 30 31  1  0  0  0  0
 31 32  1  0  0  0  0
 33 34  1  0  0  0  0
 33 31  1  0  0  0  0
 35 34  1  0  0  0  0
 36 35  1  0  0  0  0
 37 36  1  0  0  0  0
M  END
>  <MODEL>
9

>  <REMARK>
 VINA RESULT:      -6.3      3.091      5.739
  Name = 
  10 active torsions:
  status: ('A' for Active; 'I' for Inactive)
    1  A    between atoms: C_1  and  C_5
    2  A    between atoms: C_1  and  C_23
    3  A    between atoms: C_2  and  C_6
    4  A    between atoms: C_5  and  C_17
    5  A    between atoms: C_6  and  S_8
    6  A    between atoms: C_6  and  C_31
    7  A    between atoms: S_8  and  C_19
    8  A    between atoms: C_11  and  C_26
    9  A    between atoms: C_17  and  C_26
   10  A    between atoms: C_23  and  C_25
                            x       y       z     vdW  Elec       q    Type
                         _______ _______ _______ _____ _____    ______ ____

>  <TORSDO>
F 10

$$$$
