=
 OpenBabel11052421003D

 43 48  0  0  1  0  0  0  0  0999 V2000
  190.4650  171.0490  136.8000 C   0  0  0  0  0  0  0  0  0  0  0  0
  190.3600  172.3090  141.6730 C   0  0  0  0  0  0  0  0  0  0  0  0
  188.3550  174.1810  141.9460 C   0  0  0  0  0  0  0  0  0  0  0  0
  190.9130  171.2260  139.1720 C   0  0  0  0  0  0  0  0  0  0  0  0
  189.4410  171.9940  136.9160 C   0  0  0  0  0  3  0  0  0  0  0  0
  190.8380  170.3550  135.2380 Cl  0  0  0  0  0  0  0  0  0  0  0  0
  189.8780  172.1820  139.2960 C   0  0  0  0  0  0  0  0  0  0  0  0
  191.2010  170.6680  137.9240 C   0  0  0  0  0  3  0  0  0  0  0  0
  189.1480  172.5590  138.1590 C   0  0  0  0  0  3  0  0  0  0  0  0
  188.6230  173.6520  140.7250 N   0  0  0  0  0  0  0  0  0  0  0  0
  189.6070  172.7280  140.5590 C   0  0  0  0  0  0  0  0  0  0  0  0
  191.3760  171.3630  141.4960 C   0  0  0  0  0  3  0  0  0  0  0  0
  190.0540  172.8540  142.9310 C   0  0  0  0  0  0  0  0  0  0  0  0
  189.0630  173.7790  143.0330 N   0  0  0  0  0  0  0  0  0  0  0  0
  191.6280  170.8490  140.2640 N   0  0  0  0  0  0  0  0  0  0  0  0
  190.9390  172.3620  144.4210 S   0  0  0  0  0  0  0  0  0  0  0  0
  194.3870  174.5200  145.2480 C   0  0  0  0  0  2  0  0  0  0  0  0
  193.7950  175.8520  145.1380 N   0  0  0  0  0  0  0  0  0  0  0  0
  191.8350  174.9560  143.9730 C   0  0  0  0  0  2  0  0  0  0  0  0
  193.2890  173.4720  145.4140 C   0  0  0  0  0  2  0  0  0  0  0  0
  192.3320  173.5330  144.2240 C   0  0  0  0  0  3  0  0  0  0  0  0
  193.0250  175.9060  143.8940 C   0  0  0  0  0  2  0  0  0  0  0  0
  194.7950  177.7920  145.9530 O   0  0  0  0  0  1  0  0  0  0  0  0
  194.8970  176.7860  144.9910 C   0  0  0  0  0  2  0  0  0  0  0  0
  187.2370  175.1450  142.1070 C   0  0  0  0  0  2  0  0  0  0  0  0
  187.6040  176.3730  141.5500 O   0  0  0  0  0  0  0  0  0  0  0  0
  186.4800  177.1930  141.6970 C   0  0  2  0  0  3  0  0  0  0  0  0
  184.8790  178.4850  140.4880 O   0  0  0  0  0  1  0  0  0  0  0  0
  186.0580  177.7520  140.3480 C   0  0  0  0  0  2  0  0  0  0  0  0
  186.7670  178.3240  142.6830 C   0  0  0  0  0  2  0  0  0  0  0  0
  185.8610  178.2700  143.8320 N   0  0  0  0  0  0  0  0  0  0  0  0
  185.9540  178.2130  146.1940 N   0  0  0  0  0  2  0  0  0  0  0  0
  185.6380  179.6250  144.2960 C   0  0  0  0  0  2  0  0  0  0  0  0
  186.4600  177.5800  144.9820 C   0  0  1  0  0  0  0  0  0  0  0  0
  186.0700  176.2520  144.9610 F   0  0  0  0  0  0  0  0  0  0  0  0
  185.5310  179.5470  145.7990 C   0  0  0  0  0  2  0  0  0  0  0  0
  187.8930  177.6680  144.9650 O   0  0  0  0  0  0  0  0  0  0  0  0
  188.7480  176.9170  145.7830 C   0  0  0  0  0  0  0  0  0  0  0  0
  190.7730  176.6650  147.1030 C   0  0  0  0  0  3  0  0  0  0  0  0
  189.2240  174.8160  146.9010 C   0  0  0  0  0  3  0  0  0  0  0  0
  190.4120  175.3500  147.4080 C   0  0  0  0  0  3  0  0  0  0  0  0
  188.3970  175.5980  146.0900 C   0  0  0  0  0  3  0  0  0  0  0  0
  189.9430  177.4470  146.2950 C   0  0  0  0  0  3  0  0  0  0  0  0
  1  5  2  0  0  0  0
  1  8  1  0  0  0  0
  2 13  1  0  0  0  0
  3 25  1  0  0  0  0
  3 14  1  0  0  0  0
  4  7  1  0  0  0  0
  4 15  1  0  0  0  0
  5  9  1  0  0  0  0
  6  1  1  0  0  0  0
  7 11  1  0  0  0  0
  8  4  2  0  0  0  0
  9  7  2  0  0  0  0
 10  3  2  0  0  0  0
 11 10  1  0  0  0  0
 11  2  2  0  0  0  0
 12  2  1  0  0  0  0
 13 14  2  0  0  0  0
 13 16  1  0  0  0  0
 15 12  2  0  0  0  0
 17 20  1  0  0  0  0
 18 17  1  0  0  0  0
 19 21  1  0  0  0  0
 21 16  1  0  0  0  0
 21 20  1  0  0  0  0
 22 19  1  0  0  0  0
 22 18  1  0  0  0  0
 24 18  1  0  0  0  0
 24 23  1  0  0  0  0
 26 27  1  0  0  0  0
 26 25  1  0  0  0  0
 27 29  1  6  0  0  0
 27 30  1  0  0  0  0
 29 28  1  0  0  0  0
 30 31  1  0  0  0  0
 31 33  1  0  0  0  0
 31 34  1  0  0  0  0
 33 36  1  0  0  0  0
 34 35  1  6  0  0  0
 34 32  1  0  0  0  0
 36 32  1  0  0  0  0
 37 34  1  0  0  0  0
 37 38  1  0  0  0  0
 38 42  2  0  0  0  0
 38 43  1  0  0  0  0
 39 41  1  0  0  0  0
 40 41  2  0  0  0  0
 42 40  1  0  0  0  0
 43 39  2  0  0  0  0
M  END
>  <MODEL>
1

>  <REMARK>
 VINA RESULT:      -7.6      0.000      0.000
  Name = 
  11 active torsions:
  status: ('A' for Active; 'I' for Inactive)
    1  A    between atoms: S_1  and  C_34
    2  A    between atoms: S_1  and  C_35
    3  A    between atoms: C_2  and  O_6
    4  A    between atoms: C_2  and  C_13
    5  A    between atoms: C_3  and  N_4
    6  A    between atoms: C_3  and  C_12
    7  A    between atoms: O_6  and  C_12
    8  A    between atoms: C_11  and  O_14
    9  A    between atoms: C_12  and  C_17
   10  A    between atoms: O_14  and  C_22
   11  A    between atoms: N_19  and  C_37
                            x       y       z     vdW  Elec       q    Type
                         _______ _______ _______ _____ _____    ______ ____

>  <TORSDO>
F 11

$$$$
=
 OpenBabel11052421003D

 43 48  0  0  1  0  0  0  0  0999 V2000
  185.5790  177.9650  146.4690 C   0  0  0  0  0  0  0  0  0  0  0  0
  190.2240  176.0240  146.4440 C   0  0  0  0  0  0  0  0  0  0  0  0
  190.0600  173.6400  145.0710 C   0  0  0  0  0  0  0  0  0  0  0  0
  187.9450  177.5760  146.8030 C   0  0  0  0  0  0  0  0  0  0  0  0
  185.4740  176.7620  145.7660 C   0  0  0  0  0  3  0  0  0  0  0  0
  184.1610  178.9600  146.7150 Cl  0  0  0  0  0  0  0  0  0  0  0  0
  187.8440  176.3570  146.0920 C   0  0  0  0  0  0  0  0  0  0  0  0
  186.8110  178.3710  146.9880 C   0  0  0  0  0  3  0  0  0  0  0  0
  186.6010  175.9600  145.5780 C   0  0  0  0  0  3  0  0  0  0  0  0
  188.9460  174.3960  145.2440 N   0  0  0  0  0  0  0  0  0  0  0  0
  188.9970  175.5760  145.9190 C   0  0  0  0  0  0  0  0  0  0  0  0
  190.2690  177.2350  147.1430 C   0  0  0  0  0  3  0  0  0  0  0  0
  191.3670  175.2350  146.2360 C   0  0  0  0  0  0  0  0  0  0  0  0
  191.2540  174.0620  145.5600 N   0  0  0  0  0  0  0  0  0  0  0  0
  189.1420  177.9760  147.3060 N   0  0  0  0  0  0  0  0  0  0  0  0
  192.9890  175.7330  146.8430 S   0  0  0  0  0  0  0  0  0  0  0  0
  196.1410  175.0330  144.2360 C   0  0  0  0  0  2  0  0  0  0  0  0
  195.8430  176.1170  143.3000 N   0  0  0  0  0  0  0  0  0  0  0  0
  193.5770  176.3570  144.1990 C   0  0  0  0  0  2  0  0  0  0  0  0
  195.4100  175.2660  145.5550 C   0  0  0  0  0  2  0  0  0  0  0  0
  193.9060  175.3560  145.3050 C   0  0  0  0  0  3  0  0  0  0  0  0
  194.4200  176.0500  142.9650 C   0  0  0  0  0  2  0  0  0  0  0  0
  196.3390  176.8260  141.1380 O   0  0  0  0  0  1  0  0  0  0  0  0
  196.5760  175.8250  142.0810 C   0  0  0  0  0  2  0  0  0  0  0  0
  189.9860  172.3840  144.2810 C   0  0  0  0  0  2  0  0  0  0  0  0
  191.2770  171.9900  143.9200 O   0  0  0  0  0  0  0  0  0  0  0  0
  191.1600  171.5040  142.6130 C   0  0  2  0  0  3  0  0  0  0  0  0
  192.5070  169.7430  143.4970 O   0  0  0  0  0  1  0  0  0  0  0  0
  192.2430  170.4740  142.3370 C   0  0  0  0  0  2  0  0  0  0  0  0
  191.2380  172.6490  141.6060 C   0  0  0  0  0  2  0  0  0  0  0  0
  190.1520  172.5720  140.6270 N   0  0  0  0  0  0  0  0  0  0  0  0
  188.5690  173.9830  139.5810 N   0  0  0  0  0  2  0  0  0  0  0  0
  190.6900  172.9190  139.3260 C   0  0  0  0  0  2  0  0  0  0  0  0
  189.1070  173.5740  140.8740 C   0  0  1  0  0  0  0  0  0  0  0  0
  188.1000  172.9960  141.6280 F   0  0  0  0  0  0  0  0  0  0  0  0
  189.6020  173.6760  138.6050 C   0  0  0  0  0  2  0  0  0  0  0  0
  189.6280  174.7250  141.5560 O   0  0  0  0  0  0  0  0  0  0  0  0
  188.8620  175.8280  141.9560 C   0  0  0  0  0  0  0  0  0  0  0  0
  186.7440  177.0030  142.1590 C   0  0  0  0  0  3  0  0  0  0  0  0
  188.7760  178.0250  142.9860 C   0  0  0  0  0  3  0  0  0  0  0  0
  187.3950  178.0730  142.7780 C   0  0  0  0  0  3  0  0  0  0  0  0
  189.5050  176.9060  142.5740 C   0  0  0  0  0  3  0  0  0  0  0  0
  187.4730  175.8830  141.7510 C   0  0  0  0  0  3  0  0  0  0  0  0
  1  6  1  0  0  0  0
  1  8  1  0  0  0  0
  2 12  1  0  0  0  0
  3 10  2  0  0  0  0
  3 14  1  0  0  0  0
  4  8  2  0  0  0  0
  4 15  1  0  0  0  0
  5  1  2  0  0  0  0
  7  4  1  0  0  0  0
  9  5  1  0  0  0  0
  9  7  2  0  0  0  0
 10 11  1  0  0  0  0
 11  7  1  0  0  0  0
 11  2  2  0  0  0  0
 12 15  2  0  0  0  0
 13  2  1  0  0  0  0
 13 16  1  0  0  0  0
 14 13  2  0  0  0  0
 17 20  1  0  0  0  0
 18 17  1  0  0  0  0
 19 21  1  0  0  0  0
 21 20  1  0  0  0  0
 21 16  1  0  0  0  0
 22 18  1  0  0  0  0
 22 19  1  0  0  0  0
 23 24  1  0  0  0  0
 24 18  1  0  0  0  0
 25  3  1  0  0  0  0
 26 25  1  0  0  0  0
 27 30  1  6  0  0  0
 27 26  1  0  0  0  0
 29 27  1  0  0  0  0
 29 28  1  0  0  0  0
 31 34  1  0  0  0  0
 31 30  1  0  0  0  0
 32 34  1  0  0  0  0
 33 31  1  0  0  0  0
 34 37  1  0  0  0  0
 34 35  1  1  0  0  0
 36 33  1  0  0  0  0
 36 32  1  0  0  0  0
 37 38  1  0  0  0  0
 38 42  1  0  0  0  0
 39 41  2  0  0  0  0
 41 40  1  0  0  0  0
 42 40  2  0  0  0  0
 43 38  2  0  0  0  0
 43 39  1  0  0  0  0
M  END
>  <MODEL>
2

>  <REMARK>
 VINA RESULT:      -7.4      3.595      7.369
  Name = 
  11 active torsions:
  status: ('A' for Active; 'I' for Inactive)
    1  A    between atoms: S_1  and  C_34
    2  A    between atoms: S_1  and  C_35
    3  A    between atoms: C_2  and  O_6
    4  A    between atoms: C_2  and  C_13
    5  A    between atoms: C_3  and  N_4
    6  A    between atoms: C_3  and  C_12
    7  A    between atoms: O_6  and  C_12
    8  A    between atoms: C_11  and  O_14
    9  A    between atoms: C_12  and  C_17
   10  A    between atoms: O_14  and  C_22
   11  A    between atoms: N_19  and  C_37
                            x       y       z     vdW  Elec       q    Type
                         _______ _______ _______ _____ _____    ______ ____

>  <TORSDO>
F 11

$$$$
=
 OpenBabel11052421003D

 43 48  0  0  1  0  0  0  0  0999 V2000
  185.9060  177.9930  146.4780 C   0  0  0  0  0  0  0  0  0  0  0  0
  188.1780  175.7890  142.5620 C   0  0  0  0  0  0  0  0  0  0  0  0
  190.8760  176.2680  142.8620 C   0  0  0  0  0  0  0  0  0  0  0  0
  186.3780  176.7790  144.4370 C   0  0  0  0  0  0  0  0  0  0  0  0
  187.2700  178.2430  146.6520 C   0  0  0  0  0  3  0  0  0  0  0  0
  184.7510  178.6070  147.6390 Cl  0  0  0  0  0  0  0  0  0  0  0  0
  187.7600  177.0300  144.6080 C   0  0  0  0  0  0  0  0  0  0  0  0
  185.4610  177.2640  145.3720 C   0  0  0  0  0  3  0  0  0  0  0  0
  188.1950  177.7650  145.7200 C   0  0  0  0  0  3  0  0  0  0  0  0
  189.9990  176.7510  143.7790 N   0  0  0  0  0  0  0  0  0  0  0  0
  188.6620  176.5320  143.6560 C   0  0  0  0  0  0  0  0  0  0  0  0
  186.8010  175.5730  142.4370 C   0  0  0  0  0  3  0  0  0  0  0  0
  189.1040  175.2830  141.6360 C   0  0  0  0  0  0  0  0  0  0  0  0
  190.4270  175.5400  141.8080 N   0  0  0  0  0  0  0  0  0  0  0  0
  185.9410  176.0670  143.3660 N   0  0  0  0  0  0  0  0  0  0  0  0
  188.5880  174.2970  140.2190 S   0  0  0  0  0  0  0  0  0  0  0  0
  190.0660  171.2090  142.5640 C   0  0  0  0  0  2  0  0  0  0  0  0
  191.4840  171.4410  142.2930 N   0  0  0  0  0  0  0  0  0  0  0  0
  190.9510  172.8390  140.3530 C   0  0  0  0  0  2  0  0  0  0  0  0
  189.2520  172.4420  142.1830 C   0  0  0  0  0  2  0  0  0  0  0  0
  189.4660  172.7670  140.7050 C   0  0  0  0  0  3  0  0  0  0  0  0
  191.6540  171.5780  140.8460 C   0  0  0  0  0  2  0  0  0  0  0  0
  191.5280  169.1160  142.1680 O   0  0  0  0  0  1  0  0  0  0  0  0
  192.1860  170.2320  142.6860 C   0  0  0  0  0  2  0  0  0  0  0  0
  192.3340  176.4740  143.0520 C   0  0  0  0  0  2  0  0  0  0  0  0
  193.0230  175.9200  141.9700 O   0  0  0  0  0  0  0  0  0  0  0  0
  194.3780  176.0330  142.3010 C   0  0  2  0  0  3  0  0  0  0  0  0
  196.4520  176.8040  141.4090 O   0  0  0  0  0  1  0  0  0  0  0  0
  195.2030  176.2950  141.0520 C   0  0  0  0  0  2  0  0  0  0  0  0
  194.8620  174.7710  143.0120 C   0  0  0  0  0  2  0  0  0  0  0  0
  195.6270  175.0980  144.2160 N   0  0  0  0  0  0  0  0  0  0  0  0
  195.6930  174.5390  146.5130 N   0  0  0  0  0  2  0  0  0  0  0  0
  196.6660  174.1000  144.3790 C   0  0  0  0  0  2  0  0  0  0  0  0
  194.8170  174.9900  145.4370 C   0  0  1  0  0  0  0  0  0  0  0  0
  194.3100  176.2400  145.7510 F   0  0  0  0  0  0  0  0  0  0  0  0
  196.8130  173.8780  145.8630 C   0  0  0  0  0  2  0  0  0  0  0  0
  193.7420  174.0530  145.2770 O   0  0  0  0  0  0  0  0  0  0  0  0
  192.4390  174.2460  145.7550 C   0  0  0  0  0  0  0  0  0  0  0  0
  190.8470  175.2810  147.2720 C   0  0  0  0  0  3  0  0  0  0  0  0
  190.0770  173.7070  145.6030 C   0  0  0  0  0  3  0  0  0  0  0  0
  189.8050  174.5760  146.6630 C   0  0  0  0  0  3  0  0  0  0  0  0
  191.3900  173.5420  145.1540 C   0  0  0  0  0  3  0  0  0  0  0  0
  192.1590  175.1190  146.8190 C   0  0  0  0  0  3  0  0  0  0  0  0
  1  5  1  0  0  0  0
  1  6  1  0  0  0  0
  2 11  1  0  0  0  0
  3 25  1  0  0  0  0
  3 10  2  0  0  0  0
  4  7  1  0  0  0  0
  4  8  1  0  0  0  0
  7  9  1  0  0  0  0
  8  1  2  0  0  0  0
  9  5  2  0  0  0  0
 11 10  1  0  0  0  0
 11  7  2  0  0  0  0
 12  2  2  0  0  0  0
 12 15  1  0  0  0  0
 13 14  2  0  0  0  0
 13  2  1  0  0  0  0
 14  3  1  0  0  0  0
 15  4  2  0  0  0  0
 16 21  1  0  0  0  0
 16 13  1  0  0  0  0
 18 17  1  0  0  0  0
 18 24  1  0  0  0  0
 19 21  1  0  0  0  0
 19 22  1  0  0  0  0
 20 17  1  0  0  0  0
 21 20  1  0  0  0  0
 22 18  1  0  0  0  0
 23 24  1  0  0  0  0
 26 27  1  0  0  0  0
 26 25  1  0  0  0  0
 27 29  1  6  0  0  0
 27 30  1  0  0  0  0
 29 28  1  0  0  0  0
 30 31  1  0  0  0  0
 31 33  1  0  0  0  0
 31 34  1  0  0  0  0
 33 36  1  0  0  0  0
 34 35  1  1  0  0  0
 34 32  1  0  0  0  0
 36 32  1  0  0  0  0
 37 34  1  0  0  0  0
 37 38  1  0  0  0  0
 38 43  1  0  0  0  0
 40 41  2  0  0  0  0
 41 39  1  0  0  0  0
 42 40  1  0  0  0  0
 42 38  2  0  0  0  0
 43 39  2  0  0  0  0
M  END
>  <MODEL>
3

>  <REMARK>
 VINA RESULT:      -7.3      3.933      7.860
  Name = 
  11 active torsions:
  status: ('A' for Active; 'I' for Inactive)
    1  A    between atoms: S_1  and  C_34
    2  A    between atoms: S_1  and  C_35
    3  A    between atoms: C_2  and  O_6
    4  A    between atoms: C_2  and  C_13
    5  A    between atoms: C_3  and  N_4
    6  A    between atoms: C_3  and  C_12
    7  A    between atoms: O_6  and  C_12
    8  A    between atoms: C_11  and  O_14
    9  A    between atoms: C_12  and  C_17
   10  A    between atoms: O_14  and  C_22
   11  A    between atoms: N_19  and  C_37
                            x       y       z     vdW  Elec       q    Type
                         _______ _______ _______ _____ _____    ______ ____

>  <TORSDO>
F 11

$$$$
=
 OpenBabel11052421003D

 43 48  0  0  1  0  0  0  0  0999 V2000
  188.3610  177.2110  147.0800 C   0  0  0  0  0  0  0  0  0  0  0  0
  192.6920  174.9040  145.9540 C   0  0  0  0  0  0  0  0  0  0  0  0
  192.0110  172.5750  144.6470 C   0  0  0  0  0  0  0  0  0  0  0  0
  190.6980  176.6250  146.8470 C   0  0  0  0  0  0  0  0  0  0  0  0
  187.9940  176.0380  146.4150 C   0  0  0  0  0  3  0  0  0  0  0  0
  187.1280  178.3110  147.6570 Cl  0  0  0  0  0  0  0  0  0  0  0  0
  190.3320  175.4360  146.1740 C   0  0  0  0  0  0  0  0  0  0  0  0
  189.7100  177.5040  147.2970 C   0  0  0  0  0  3  0  0  0  0  0  0
  188.9750  175.1520  145.9640 C   0  0  0  0  0  3  0  0  0  0  0  0
  191.0360  173.4140  145.0810 N   0  0  0  0  0  0  0  0  0  0  0  0
  191.3420  174.5700  145.7300 C   0  0  0  0  0  0  0  0  0  0  0  0
  193.0000  176.0900  146.6290 C   0  0  0  0  0  3  0  0  0  0  0  0
  193.6840  174.0310  145.4800 C   0  0  0  0  0  0  0  0  0  0  0  0
  193.3180  172.8880  144.8440 N   0  0  0  0  0  0  0  0  0  0  0  0
  192.0090  176.9150  147.0570 N   0  0  0  0  0  0  0  0  0  0  0  0
  195.4390  174.3830  145.6920 S   0  0  0  0  0  0  0  0  0  0  0  0
  197.3000  174.0560  141.9960 C   0  0  0  0  0  2  0  0  0  0  0  0
  197.6370  175.4710  141.8410 N   0  0  0  0  0  0  0  0  0  0  0  0
  196.0590  176.1080  143.6020 C   0  0  0  0  0  2  0  0  0  0  0  0
  196.9710  173.7550  143.4560 C   0  0  0  0  0  2  0  0  0  0  0  0
  195.8100  174.6340  143.9170 C   0  0  0  0  0  3  0  0  0  0  0  0
  196.4400  176.2590  142.1330 C   0  0  0  0  0  2  0  0  0  0  0  0
  196.9670  175.0570  139.6490 O   0  0  0  0  0  1  0  0  0  0  0  0
  197.9410  175.6730  140.4350 C   0  0  0  0  0  2  0  0  0  0  0  0
  191.6500  171.3490  143.8910 C   0  0  0  0  0  2  0  0  0  0  0  0
  192.6470  171.0760  142.9510 O   0  0  0  0  0  0  0  0  0  0  0  0
  191.9790  170.9730  141.7260 C   0  0  2  0  0  3  0  0  0  0  0  0
  193.6870  171.5370  140.1570 O   0  0  0  0  0  1  0  0  0  0  0  0
  192.9300  170.4740  140.6500 C   0  0  0  0  0  2  0  0  0  0  0  0
  191.3770  172.3200  141.3290 C   0  0  0  0  0  2  0  0  0  0  0  0
  189.9140  172.2670  141.3230 N   0  0  0  0  0  0  0  0  0  0  0  0
  188.0630  173.7000  140.9900 N   0  0  0  0  0  2  0  0  0  0  0  0
  189.4730  172.0770  139.9550 C   0  0  0  0  0  2  0  0  0  0  0  0
  189.3090  173.5410  141.7330 C   0  0  1  0  0  0  0  0  0  0  0  0
  189.0310  173.4900  143.0880 F   0  0  0  0  0  0  0  0  0  0  0  0
  188.1960  172.8660  139.8070 C   0  0  0  0  0  2  0  0  0  0  0  0
  190.1730  174.6520  141.4520 O   0  0  0  0  0  0  0  0  0  0  0  0
  190.2250  175.8320  142.2070 C   0  0  0  0  0  0  0  0  0  0  0  0
  189.1610  177.7400  143.2720 C   0  0  0  0  0  3  0  0  0  0  0  0
  191.5620  177.4630  143.4080 C   0  0  0  0  0  3  0  0  0  0  0  0
  190.4070  178.1890  143.7170 C   0  0  0  0  0  3  0  0  0  0  0  0
  191.4690  176.2900  142.6540 C   0  0  0  0  0  3  0  0  0  0  0  0
  189.0690  176.5650  142.5220 C   0  0  0  0  0  3  0  0  0  0  0  0
  1  8  1  0  0  0  0
  1  6  1  0  0  0  0
  2 12  1  0  0  0  0
  3 14  1  0  0  0  0
  3 10  2  0  0  0  0
  4 15  1  0  0  0  0
  4  8  2  0  0  0  0
  5  1  2  0  0  0  0
  7  4  1  0  0  0  0
  9  7  2  0  0  0  0
  9  5  1  0  0  0  0
 10 11  1  0  0  0  0
 11  2  2  0  0  0  0
 11  7  1  0  0  0  0
 12 15  2  0  0  0  0
 13 16  1  0  0  0  0
 13  2  1  0  0  0  0
 14 13  2  0  0  0  0
 17 20  1  0  0  0  0
 18 17  1  0  0  0  0
 18 22  1  0  0  0  0
 19 21  1  0  0  0  0
 20 21  1  0  0  0  0
 21 16  1  0  0  0  0
 22 19  1  0  0  0  0
 23 24  1  0  0  0  0
 24 18  1  0  0  0  0
 25  3  1  0  0  0  0
 26 25  1  0  0  0  0
 27 29  1  6  0  0  0
 27 26  1  0  0  0  0
 28 29  1  0  0  0  0
 30 27  1  0  0  0  0
 31 30  1  0  0  0  0
 31 34  1  0  0  0  0
 32 34  1  0  0  0  0
 33 31  1  0  0  0  0
 34 35  1  1  0  0  0
 36 33  1  0  0  0  0
 36 32  1  0  0  0  0
 37 34  1  0  0  0  0
 37 38  1  0  0  0  0
 38 43  2  0  0  0  0
 38 42  1  0  0  0  0
 39 41  2  0  0  0  0
 40 41  1  0  0  0  0
 42 40  2  0  0  0  0
 43 39  1  0  0  0  0
M  END
>  <MODEL>
4

>  <REMARK>
 VINA RESULT:      -7.2      3.917      7.286
  Name = 
  11 active torsions:
  status: ('A' for Active; 'I' for Inactive)
    1  A    between atoms: S_1  and  C_34
    2  A    between atoms: S_1  and  C_35
    3  A    between atoms: C_2  and  O_6
    4  A    between atoms: C_2  and  C_13
    5  A    between atoms: C_3  and  N_4
    6  A    between atoms: C_3  and  C_12
    7  A    between atoms: O_6  and  C_12
    8  A    between atoms: C_11  and  O_14
    9  A    between atoms: C_12  and  C_17
   10  A    between atoms: O_14  and  C_22
   11  A    between atoms: N_19  and  C_37
                            x       y       z     vdW  Elec       q    Type
                         _______ _______ _______ _____ _____    ______ ____

>  <TORSDO>
F 11

$$$$
=
 OpenBabel11052421003D

 43 48  0  0  1  0  0  0  0  0999 V2000
  195.6190  173.9710  145.7420 C   0  0  0  0  0  0  0  0  0  0  0  0
  191.4450  175.8930  143.6860 C   0  0  0  0  0  0  0  0  0  0  0  0
  189.9810  173.7500  142.7580 C   0  0  0  0  0  0  0  0  0  0  0  0
  193.8940  175.4630  144.9320 C   0  0  0  0  0  0  0  0  0  0  0  0
  194.8910  172.8690  145.2830 C   0  0  0  0  0  3  0  0  0  0  0  0
  197.1650  173.7300  146.5260 Cl  0  0  0  0  0  0  0  0  0  0  0  0
  193.1530  174.3520  144.4660 C   0  0  0  0  0  0  0  0  0  0  0  0
  195.1230  175.2640  145.5660 C   0  0  0  0  0  3  0  0  0  0  0  0
  193.6630  173.0580  144.6460 C   0  0  0  0  0  3  0  0  0  0  0  0
  191.1760  173.5380  143.3670 N   0  0  0  0  0  0  0  0  0  0  0  0
  191.9200  174.5760  143.8330 C   0  0  0  0  0  0  0  0  0  0  0  0
  192.2190  176.9580  144.1610 C   0  0  0  0  0  3  0  0  0  0  0  0
  190.1980  176.0890  143.0700 C   0  0  0  0  0  0  0  0  0  0  0  0
  189.5020  175.0130  142.6180 N   0  0  0  0  0  0  0  0  0  0  0  0
  193.4130  176.7230  144.7670 N   0  0  0  0  0  0  0  0  0  0  0  0
  189.4900  177.7320  142.8590 S   0  0  0  0  0  0  0  0  0  0  0  0
  185.6460  178.1550  144.3650 C   0  0  0  0  0  2  0  0  0  0  0  0
  186.0230  178.3540  145.7640 N   0  0  0  0  0  0  0  0  0  0  0  0
  188.2760  177.4880  145.3490 C   0  0  0  0  0  2  0  0  0  0  0  0
  186.8530  178.3850  143.4610 C   0  0  0  0  0  2  0  0  0  0  0  0
  187.9810  177.4310  143.8510 C   0  0  0  0  0  3  0  0  0  0  0  0
  186.9790  177.3090  146.1310 C   0  0  0  0  0  2  0  0  0  0  0  0
  183.7280  178.7190  145.9300 O   0  0  0  0  0  1  0  0  0  0  0  0
  184.8260  178.1240  146.5540 C   0  0  0  0  0  2  0  0  0  0  0  0
  189.1630  172.5950  142.3100 C   0  0  0  0  0  2  0  0  0  0  0  0
  188.3240  173.0000  141.2680 O   0  0  0  0  0  0  0  0  0  0  0  0
  189.1080  172.9160  140.1120 C   0  0  2  0  0  3  0  0  0  0  0  0
  188.4290  174.0130  138.1040 O   0  0  0  0  0  1  0  0  0  0  0  0
  188.2210  172.8710  138.8790 C   0  0  0  0  0  2  0  0  0  0  0  0
  190.0160  171.6890  140.1680 C   0  0  0  0  0  2  0  0  0  0  0  0
  190.8200  171.5670  138.9510 N   0  0  0  0  0  0  0  0  0  0  0  0
  193.0870  171.6130  138.2800 N   0  0  0  0  0  2  0  0  0  0  0  0
  191.2530  170.1890  138.8300 C   0  0  0  0  0  2  0  0  0  0  0  0
  192.0670  172.3400  139.0270 C   0  0  1  0  0  0  0  0  0  0  0  0
  191.8640  173.5780  138.4400 F   0  0  0  0  0  0  0  0  0  0  0  0
  192.6420  170.2290  138.2420 C   0  0  0  0  0  2  0  0  0  0  0  0
  192.5030  172.5090  140.3840 O   0  0  0  0  0  0  0  0  0  0  0  0
  193.5750  173.3210  140.7820 C   0  0  0  0  0  0  0  0  0  0  0  0
  195.8380  173.6210  141.6150 C   0  0  0  0  0  3  0  0  0  0  0  0
  194.4620  175.5530  141.1320 C   0  0  0  0  0  3  0  0  0  0  0  0
  195.6720  175.0070  141.5690 C   0  0  0  0  0  3  0  0  0  0  0  0
  193.4170  174.7100  140.7420 C   0  0  0  0  0  3  0  0  0  0  0  0
  194.7940  172.7790  141.2210 C   0  0  0  0  0  3  0  0  0  0  0  0
  1  6  1  0  0  0  0
  2 11  2  0  0  0  0
  2 12  1  0  0  0  0
  3 10  2  0  0  0  0
  4  8  2  0  0  0  0
  5  1  2  0  0  0  0
  7  9  2  0  0  0  0
  7  4  1  0  0  0  0
  8  1  1  0  0  0  0
  9  5  1  0  0  0  0
 10 11  1  0  0  0  0
 11  7  1  0  0  0  0
 12 15  2  0  0  0  0
 13  2  1  0  0  0  0
 14  3  1  0  0  0  0
 14 13  2  0  0  0  0
 15  4  1  0  0  0  0
 16 13  1  0  0  0  0
 16 21  1  0  0  0  0
 17 18  1  0  0  0  0
 18 22  1  0  0  0  0
 18 24  1  0  0  0  0
 19 22  1  0  0  0  0
 20 21  1  0  0  0  0
 20 17  1  0  0  0  0
 21 19  1  0  0  0  0
 23 24  1  0  0  0  0
 25  3  1  0  0  0  0
 26 25  1  0  0  0  0
 27 29  1  6  0  0  0
 27 30  1  0  0  0  0
 27 26  1  0  0  0  0
 28 29  1  0  0  0  0
 31 34  1  0  0  0  0
 31 30  1  0  0  0  0
 32 34  1  0  0  0  0
 33 31  1  0  0  0  0
 34 35  1  6  0  0  0
 34 37  1  0  0  0  0
 36 32  1  0  0  0  0
 36 33  1  0  0  0  0
 37 38  1  0  0  0  0
 38 43  1  0  0  0  0
 40 41  2  0  0  0  0
 41 39  1  0  0  0  0
 42 38  2  0  0  0  0
 42 40  1  0  0  0  0
 43 39  2  0  0  0  0
M  END
>  <MODEL>
5

>  <REMARK>
 VINA RESULT:      -7.2      3.566      8.073
  Name = 
  11 active torsions:
  status: ('A' for Active; 'I' for Inactive)
    1  A    between atoms: S_1  and  C_34
    2  A    between atoms: S_1  and  C_35
    3  A    between atoms: C_2  and  O_6
    4  A    between atoms: C_2  and  C_13
    5  A    between atoms: C_3  and  N_4
    6  A    between atoms: C_3  and  C_12
    7  A    between atoms: O_6  and  C_12
    8  A    between atoms: C_11  and  O_14
    9  A    between atoms: C_12  and  C_17
   10  A    between atoms: O_14  and  C_22
   11  A    between atoms: N_19  and  C_37
                            x       y       z     vdW  Elec       q    Type
                         _______ _______ _______ _____ _____    ______ ____

>  <TORSDO>
F 11

$$$$
=
 OpenBabel11052421003D

 43 48  0  0  1  0  0  0  0  0999 V2000
  188.4140  176.0510  146.0560 C   0  0  0  0  0  0  0  0  0  0  0  0
  190.6340  173.4700  142.3470 C   0  0  0  0  0  0  0  0  0  0  0  0
  191.9070  171.3370  143.5410 C   0  0  0  0  0  0  0  0  0  0  0  0
  189.2200  175.2890  143.9040 C   0  0  0  0  0  0  0  0  0  0  0  0
  189.0480  174.9740  146.6820 C   0  0  0  0  0  3  0  0  0  0  0  0
  187.5210  177.2140  147.0110 Cl  0  0  0  0  0  0  0  0  0  0  0  0
  189.8640  174.1980  144.5320 C   0  0  0  0  0  0  0  0  0  0  0  0
  188.5010  176.2100  144.6710 C   0  0  0  0  0  3  0  0  0  0  0  0
  189.7720  174.0510  145.9240 C   0  0  0  0  0  3  0  0  0  0  0  0
  191.2170  172.2240  144.3040 N   0  0  0  0  0  0  0  0  0  0  0  0
  190.5800  173.2860  143.7420 C   0  0  0  0  0  0  0  0  0  0  0  0
  189.9830  174.5690  141.7750 C   0  0  0  0  0  3  0  0  0  0  0  0
  191.3380  172.5310  141.5750 C   0  0  0  0  0  0  0  0  0  0  0  0
  191.9590  171.4920  142.1940 N   0  0  0  0  0  0  0  0  0  0  0  0
  189.2990  175.4450  142.5570 N   0  0  0  0  0  0  0  0  0  0  0  0
  191.4420  172.6610  139.7820 S   0  0  0  0  0  0  0  0  0  0  0  0
  194.9010  174.9340  140.0970 C   0  0  0  0  0  2  0  0  0  0  0  0
  195.3000  174.8460  138.6930 N   0  0  0  0  0  0  0  0  0  0  0  0
  193.7810  172.9640  138.3100 C   0  0  0  0  0  2  0  0  0  0  0  0
  193.4310  174.5510  140.2460 C   0  0  0  0  0  2  0  0  0  0  0  0
  193.2080  173.1350  139.7160 C   0  0  0  0  0  3  0  0  0  0  0  0
  195.2290  173.4420  138.2860 C   0  0  0  0  0  2  0  0  0  0  0  0
  197.5040  174.0910  138.6960 O   0  0  0  0  0  1  0  0  0  0  0  0
  196.7000  175.2300  138.6350 C   0  0  0  0  0  2  0  0  0  0  0  0
  192.5440  170.1550  144.1750 C   0  0  0  0  0  2  0  0  0  0  0  0
  193.8120  169.9620  143.6210 O   0  0  0  0  0  0  0  0  0  0  0  0
  194.6350  169.6180  144.6990 C   0  0  2  0  0  3  0  0  0  0  0  0
  194.3700  168.6650  146.8710 O   0  0  0  0  0  1  0  0  0  0  0  0
  193.9760  168.5360  145.5380 C   0  0  0  0  0  2  0  0  0  0  0  0
  194.9440  170.8470  145.5510 C   0  0  0  0  0  2  0  0  0  0  0  0
  195.9450  171.7020  144.9100 N   0  0  0  0  0  0  0  0  0  0  0  0
  196.4110  173.9980  144.5910 N   0  0  0  0  0  2  0  0  0  0  0  0
  196.9280  172.0760  145.9070 C   0  0  0  0  0  2  0  0  0  0  0  0
  195.3780  172.9780  144.4540 C   0  0  1  0  0  0  0  0  0  0  0  0
  195.0230  172.8610  143.1210 F   0  0  0  0  0  0  0  0  0  0  0  0
  197.3410  173.4910  145.5880 C   0  0  0  0  0  2  0  0  0  0  0  0
  194.2320  173.3570  145.2330 O   0  0  0  0  0  0  0  0  0  0  0  0
  193.5970  174.6040  145.1620 C   0  0  0  0  0  0  0  0  0  0  0  0
  192.7680  176.5160  143.9110 C   0  0  0  0  0  3  0  0  0  0  0  0
  192.5140  176.4440  146.3170 C   0  0  0  0  0  3  0  0  0  0  0  0
  192.3240  177.1020  145.0980 C   0  0  0  0  0  3  0  0  0  0  0  0
  193.1510  175.2000  146.3460 C   0  0  0  0  0  3  0  0  0  0  0  0
  193.4010  175.2700  143.9410 C   0  0  0  0  0  3  0  0  0  0  0  0
  1  5  1  0  0  0  0
  1  6  1  0  0  0  0
  2 11  1  0  0  0  0
  3 25  1  0  0  0  0
  3 10  2  0  0  0  0
  4  7  1  0  0  0  0
  4  8  1  0  0  0  0
  7  9  1  0  0  0  0
  8  1  2  0  0  0  0
  9  5  2  0  0  0  0
 11 10  1  0  0  0  0
 11  7  2  0  0  0  0
 12  2  2  0  0  0  0
 12 15  1  0  0  0  0
 13 14  2  0  0  0  0
 13  2  1  0  0  0  0
 14  3  1  0  0  0  0
 15  4  2  0  0  0  0
 16 13  1  0  0  0  0
 17 20  1  0  0  0  0
 18 17  1  0  0  0  0
 19 21  1  0  0  0  0
 21 16  1  0  0  0  0
 21 20  1  0  0  0  0
 22 19  1  0  0  0  0
 22 18  1  0  0  0  0
 24 18  1  0  0  0  0
 24 23  1  0  0  0  0
 26 25  1  0  0  0  0
 26 27  1  0  0  0  0
 27 29  1  1  0  0  0
 27 30  1  0  0  0  0
 29 28  1  0  0  0  0
 31 30  1  0  0  0  0
 31 33  1  0  0  0  0
 32 36  1  0  0  0  0
 34 35  1  6  0  0  0
 34 32  1  0  0  0  0
 34 31  1  0  0  0  0
 34 37  1  0  0  0  0
 36 33  1  0  0  0  0
 38 37  1  0  0  0  0
 38 42  1  0  0  0  0
 39 43  1  0  0  0  0
 39 41  2  0  0  0  0
 40 42  2  0  0  0  0
 41 40  1  0  0  0  0
 43 38  2  0  0  0  0
M  END
>  <MODEL>
6

>  <REMARK>
 VINA RESULT:      -7.2      4.572      8.234
  Name = 
  11 active torsions:
  status: ('A' for Active; 'I' for Inactive)
    1  A    between atoms: S_1  and  C_34
    2  A    between atoms: S_1  and  C_35
    3  A    between atoms: C_2  and  O_6
    4  A    between atoms: C_2  and  C_13
    5  A    between atoms: C_3  and  N_4
    6  A    between atoms: C_3  and  C_12
    7  A    between atoms: O_6  and  C_12
    8  A    between atoms: C_11  and  O_14
    9  A    between atoms: C_12  and  C_17
   10  A    between atoms: O_14  and  C_22
   11  A    between atoms: N_19  and  C_37
                            x       y       z     vdW  Elec       q    Type
                         _______ _______ _______ _____ _____    ______ ____

>  <TORSDO>
F 11

$$$$
=
 OpenBabel11052421003D

 43 48  0  0  1  0  0  0  0  0999 V2000
  186.1220  178.6960  143.6560 C   0  0  0  0  0  0  0  0  0  0  0  0
  187.8620  175.2570  140.4170 C   0  0  0  0  0  0  0  0  0  0  0  0
  188.7460  173.1370  141.9400 C   0  0  0  0  0  0  0  0  0  0  0  0
  186.7850  177.5000  141.6590 C   0  0  0  0  0  0  0  0  0  0  0  0
  186.5590  177.6300  144.4480 C   0  0  0  0  0  3  0  0  0  0  0  0
  185.4430  180.1220  144.4100 Cl  0  0  0  0  0  0  0  0  0  0  0  0
  187.2290  176.4190  142.4550 C   0  0  0  0  0  0  0  0  0  0  0  0
  186.2350  178.6330  142.2650 C   0  0  0  0  0  3  0  0  0  0  0  0
  187.1120  176.4960  143.8500 C   0  0  0  0  0  3  0  0  0  0  0  0
  188.2190  174.2300  142.5480 N   0  0  0  0  0  0  0  0  0  0  0  0
  187.7760  175.2920  141.8230 C   0  0  0  0  0  0  0  0  0  0  0  0
  187.4120  176.3560  139.6770 C   0  0  0  0  0  3  0  0  0  0  0  0
  188.3930  174.1080  139.8090 C   0  0  0  0  0  0  0  0  0  0  0  0
  188.8250  173.0810  140.5860 N   0  0  0  0  0  0  0  0  0  0  0  0
  186.8900  177.4410  140.3060 N   0  0  0  0  0  0  0  0  0  0  0  0
  188.5190  173.9550  138.0180 S   0  0  0  0  0  0  0  0  0  0  0  0
  192.3730  172.5590  137.3620 C   0  0  0  0  0  2  0  0  0  0  0  0
  192.0060  171.3950  136.5550 N   0  0  0  0  0  0  0  0  0  0  0  0
  189.6770  171.5310  137.3000 C   0  0  0  0  0  2  0  0  0  0  0  0
  191.2060  173.5400  137.4230 C   0  0  0  0  0  2  0  0  0  0  0  0
  189.9770  172.8480  138.0120 C   0  0  0  0  0  3  0  0  0  0  0  0
  190.9390  170.6760  137.2520 C   0  0  0  0  0  2  0  0  0  0  0  0
  193.9580  170.7690  137.6610 O   0  0  0  0  0  1  0  0  0  0  0  0
  193.1640  170.5190  136.5410 C   0  0  0  0  0  2  0  0  0  0  0  0
  189.1680  171.9690  142.7550 C   0  0  0  0  0  2  0  0  0  0  0  0
  190.3110  172.3050  143.4850 O   0  0  0  0  0  0  0  0  0  0  0  0
  191.3590  172.2810  142.5580 C   0  0  2  0  0  3  0  0  0  0  0  0
  191.7670  170.7560  140.7680 O   0  0  0  0  0  1  0  0  0  0  0  0
  191.6720  170.8490  142.1570 C   0  0  0  0  0  2  0  0  0  0  0  0
  192.5990  172.9630  143.1320 C   0  0  0  0  0  2  0  0  0  0  0  0
  192.8620  174.2390  142.4640 N   0  0  0  0  0  0  0  0  0  0  0  0
  193.1770  176.5200  143.0020 N   0  0  0  0  0  2  0  0  0  0  0  0
  194.2920  174.4750  142.4850 C   0  0  0  0  0  2  0  0  0  0  0  0
  192.2890  175.3780  143.1930 C   0  0  1  0  0  0  0  0  0  0  0  0
  191.0440  175.6710  142.6630 F   0  0  0  0  0  0  0  0  0  0  0  0
  194.4750  175.9620  142.6610 C   0  0  0  0  0  2  0  0  0  0  0  0
  192.1690  175.1020  144.5970 O   0  0  0  0  0  0  0  0  0  0  0  0
  191.0730  175.4690  145.3910 C   0  0  0  0  0  0  0  0  0  0  0  0
  189.0820  174.9250  146.6740 C   0  0  0  0  0  3  0  0  0  0  0  0
  189.7990  177.2290  146.4730 C   0  0  0  0  0  3  0  0  0  0  0  0
  188.8990  176.2790  146.9660 C   0  0  0  0  0  3  0  0  0  0  0  0
  190.8810  176.8230  145.6860 C   0  0  0  0  0  3  0  0  0  0  0  0
  190.1660  174.5200  145.8910 C   0  0  0  0  0  3  0  0  0  0  0  0
  1  6  1  0  0  0  0
  1  5  1  0  0  0  0
  2 11  1  0  0  0  0
  3 10  2  0  0  0  0
  3 25  1  0  0  0  0
  4  8  1  0  0  0  0
  4  7  1  0  0  0  0
  7  9  1  0  0  0  0
  8  1  2  0  0  0  0
  9  5  2  0  0  0  0
 11  7  2  0  0  0  0
 11 10  1  0  0  0  0
 12 15  1  0  0  0  0
 12  2  2  0  0  0  0
 13  2  1  0  0  0  0
 13 14  2  0  0  0  0
 14  3  1  0  0  0  0
 15  4  2  0  0  0  0
 16 13  1  0  0  0  0
 17 20  1  0  0  0  0
 18 22  1  0  0  0  0
 18 17  1  0  0  0  0
 19 21  1  0  0  0  0
 20 21  1  0  0  0  0
 21 16  1  0  0  0  0
 22 19  1  0  0  0  0
 24 18  1  0  0  0  0
 24 23  1  0  0  0  0
 25 26  1  0  0  0  0
 27 29  1  1  0  0  0
 27 30  1  0  0  0  0
 27 26  1  0  0  0  0
 28 29  1  0  0  0  0
 31 33  1  0  0  0  0
 31 30  1  0  0  0  0
 31 34  1  0  0  0  0
 32 34  1  0  0  0  0
 33 36  1  0  0  0  0
 34 35  1  6  0  0  0
 34 37  1  0  0  0  0
 36 32  1  0  0  0  0
 37 38  1  0  0  0  0
 38 42  2  0  0  0  0
 38 43  1  0  0  0  0
 39 41  1  0  0  0  0
 40 41  2  0  0  0  0
 42 40  1  0  0  0  0
 43 39  2  0  0  0  0
M  END
>  <MODEL>
7

>  <REMARK>
 VINA RESULT:      -7.2      3.664      7.422
  Name = 
  11 active torsions:
  status: ('A' for Active; 'I' for Inactive)
    1  A    between atoms: S_1  and  C_34
    2  A    between atoms: S_1  and  C_35
    3  A    between atoms: C_2  and  O_6
    4  A    between atoms: C_2  and  C_13
    5  A    between atoms: C_3  and  N_4
    6  A    between atoms: C_3  and  C_12
    7  A    between atoms: O_6  and  C_12
    8  A    between atoms: C_11  and  O_14
    9  A    between atoms: C_12  and  C_17
   10  A    between atoms: O_14  and  C_22
   11  A    between atoms: N_19  and  C_37
                            x       y       z     vdW  Elec       q    Type
                         _______ _______ _______ _____ _____    ______ ____

>  <TORSDO>
F 11

$$$$
=
 OpenBabel11052421003D

 43 48  0  0  1  0  0  0  0  0999 V2000
  186.5570  177.2650  144.1230 C   0  0  0  0  0  0  0  0  0  0  0  0
  191.2490  176.2050  142.6370 C   0  0  0  0  0  0  0  0  0  0  0  0
  191.0700  173.9580  141.0500 C   0  0  0  0  0  0  0  0  0  0  0  0
  188.9530  177.2820  143.7780 C   0  0  0  0  0  0  0  0  0  0  0  0
  186.4430  176.1280  143.3180 C   0  0  0  0  0  3  0  0  0  0  0  0
  185.1300  177.9620  144.8570 Cl  0  0  0  0  0  0  0  0  0  0  0  0
  188.8430  176.1320  142.9620 C   0  0  0  0  0  0  0  0  0  0  0  0
  187.8090  177.8400  144.3540 C   0  0  0  0  0  3  0  0  0  0  0  0
  187.5810  175.5620  142.7390 C   0  0  0  0  0  3  0  0  0  0  0  0
  189.9480  174.4830  141.6050 N   0  0  0  0  0  0  0  0  0  0  0  0
  190.0060  175.5900  142.3930 C   0  0  0  0  0  0  0  0  0  0  0  0
  191.3030  177.3390  143.4550 C   0  0  0  0  0  3  0  0  0  0  0  0
  192.3950  175.6560  142.0380 C   0  0  0  0  0  0  0  0  0  0  0  0
  192.2750  174.5450  141.2640 N   0  0  0  0  0  0  0  0  0  0  0  0
  190.1680  177.8470  144.0020 N   0  0  0  0  0  0  0  0  0  0  0  0
  194.0270  176.3850  142.2640 S   0  0  0  0  0  0  0  0  0  0  0  0
  195.6380  174.9160  145.7960 C   0  0  0  0  0  2  0  0  0  0  0  0
  196.7210  174.1440  145.1900 N   0  0  0  0  0  0  0  0  0  0  0  0
  195.6540  174.2500  142.9880 C   0  0  0  0  0  2  0  0  0  0  0  0
  195.0950  175.9300  144.7930 C   0  0  0  0  0  2  0  0  0  0  0  0
  194.5990  175.2060  143.5420 C   0  0  0  0  0  3  0  0  0  0  0  0
  196.1560  173.3410  144.1050 C   0  0  0  0  0  2  0  0  0  0  0  0
  197.0590  171.9040  145.7350 O   0  0  0  0  0  1  0  0  0  0  0  0
  197.1840  173.2120  146.2040 C   0  0  0  0  0  2  0  0  0  0  0  0
  190.9690  172.7830  140.1470 C   0  0  0  0  0  2  0  0  0  0  0  0
  190.2340  171.7780  140.7800 O   0  0  0  0  0  0  0  0  0  0  0  0
  191.0180  170.6240  140.6680 C   0  0  2  0  0  3  0  0  0  0  0  0
  190.7700  168.3790  139.8970 O   0  0  0  0  0  1  0  0  0  0  0  0
  190.4490  169.7040  139.6000 C   0  0  0  0  0  2  0  0  0  0  0  0
  191.1040  169.9010  142.0100 C   0  0  0  0  0  2  0  0  0  0  0  0
  192.4360  170.0350  142.6020 N   0  0  0  0  0  0  0  0  0  0  0  0
  193.4550  170.8450  144.5760 N   0  0  0  0  0  2  0  0  0  0  0  0
  192.6680  168.8890  143.4590 C   0  0  0  0  0  2  0  0  0  0  0  0
  192.5340  171.1930  143.5000 C   0  0  1  0  0  0  0  0  0  0  0  0
  193.0420  172.2690  142.7920 F   0  0  0  0  0  0  0  0  0  0  0  0
  193.4670  169.3920  144.6360 C   0  0  0  0  0  2  0  0  0  0  0  0
  191.2580  171.5360  144.0620 O   0  0  0  0  0  0  0  0  0  0  0  0
  191.0020  172.6940  144.8090 C   0  0  0  0  0  0  0  0  0  0  0  0
  189.4810  174.2420  145.9050 C   0  0  0  0  0  3  0  0  0  0  0  0
  191.8660  174.6520  145.9540 C   0  0  0  0  0  3  0  0  0  0  0  0
  190.5660  175.0280  146.3010 C   0  0  0  0  0  3  0  0  0  0  0  0
  192.0810  173.4890  145.2080 C   0  0  0  0  0  3  0  0  0  0  0  0
  189.6980  173.0770  145.1630 C   0  0  0  0  0  3  0  0  0  0  0  0
  1  8  1  0  0  0  0
  1  6  1  0  0  0  0
  2 12  1  0  0  0  0
  3 14  1  0  0  0  0
  3 10  2  0  0  0  0
  4 15  1  0  0  0  0
  4  8  2  0  0  0  0
  5  1  2  0  0  0  0
  7  4  1  0  0  0  0
  9  7  2  0  0  0  0
  9  5  1  0  0  0  0
 10 11  1  0  0  0  0
 11  2  2  0  0  0  0
 11  7  1  0  0  0  0
 12 15  2  0  0  0  0
 13 16  1  0  0  0  0
 13  2  1  0  0  0  0
 14 13  2  0  0  0  0
 16 21  1  0  0  0  0
 18 17  1  0  0  0  0
 18 24  1  0  0  0  0
 19 21  1  0  0  0  0
 19 22  1  0  0  0  0
 20 17  1  0  0  0  0
 21 20  1  0  0  0  0
 22 18  1  0  0  0  0
 23 24  1  0  0  0  0
 25 26  1  0  0  0  0
 25  3  1  0  0  0  0
 27 29  1  6  0  0  0
 27 26  1  0  0  0  0
 27 30  1  0  0  0  0
 29 28  1  0  0  0  0
 30 31  1  0  0  0  0
 31 33  1  0  0  0  0
 31 34  1  0  0  0  0
 32 36  1  0  0  0  0
 33 36  1  0  0  0  0
 34 35  1  6  0  0  0
 34 37  1  0  0  0  0
 34 32  1  0  0  0  0
 37 38  1  0  0  0  0
 38 43  2  0  0  0  0
 38 42  1  0  0  0  0
 39 41  2  0  0  0  0
 40 41  1  0  0  0  0
 42 40  2  0  0  0  0
 43 39  1  0  0  0  0
M  END
>  <MODEL>
8

>  <REMARK>
 VINA RESULT:      -7.2      3.949      7.121
  Name = 
  11 active torsions:
  status: ('A' for Active; 'I' for Inactive)
    1  A    between atoms: S_1  and  C_34
    2  A    between atoms: S_1  and  C_35
    3  A    between atoms: C_2  and  O_6
    4  A    between atoms: C_2  and  C_13
    5  A    between atoms: C_3  and  N_4
    6  A    between atoms: C_3  and  C_12
    7  A    between atoms: O_6  and  C_12
    8  A    between atoms: C_11  and  O_14
    9  A    between atoms: C_12  and  C_17
   10  A    between atoms: O_14  and  C_22
   11  A    between atoms: N_19  and  C_37
                            x       y       z     vdW  Elec       q    Type
                         _______ _______ _______ _____ _____    ______ ____

>  <TORSDO>
F 11

$$$$
=
 OpenBabel11052421003D

 43 48  0  0  1  0  0  0  0  0999 V2000
  190.4530  170.2610  139.2010 C   0  0  0  0  0  0  0  0  0  0  0  0
  188.6540  174.5510  141.1250 C   0  0  0  0  0  0  0  0  0  0  0  0
  189.3150  174.5370  143.8010 C   0  0  0  0  0  0  0  0  0  0  0  0
  189.3800  172.4090  139.5070 C   0  0  0  0  0  0  0  0  0  0  0  0
  190.8020  170.2350  140.5540 C   0  0  0  0  0  3  0  0  0  0  0  0
  190.8930  168.9250  138.1600 Cl  0  0  0  0  0  0  0  0  0  0  0  0
  189.7310  172.3890  140.8770 C   0  0  0  0  0  0  0  0  0  0  0  0
  189.7420  171.3440  138.6790 C   0  0  0  0  0  3  0  0  0  0  0  0
  190.4430  171.2940  141.3900 C   0  0  0  0  0  3  0  0  0  0  0  0
  189.6720  173.4910  143.0120 N   0  0  0  0  0  0  0  0  0  0  0  0
  189.3580  173.4700  141.6890 C   0  0  0  0  0  0  0  0  0  0  0  0
  188.3270  174.5210  139.7650 C   0  0  0  0  0  3  0  0  0  0  0  0
  188.3120  175.6320  141.9540 C   0  0  0  0  0  0  0  0  0  0  0  0
  188.6470  175.5940  143.2710 N   0  0  0  0  0  0  0  0  0  0  0  0
  188.6920  173.4630  138.9940 N   0  0  0  0  0  0  0  0  0  0  0  0
  187.4360  177.0740  141.3230 S   0  0  0  0  0  0  0  0  0  0  0  0
  185.2390  177.1980  144.8420 C   0  0  0  0  0  2  0  0  0  0  0  0
  184.5800  178.4790  144.5960 N   0  0  0  0  0  0  0  0  0  0  0  0
  186.1880  179.0440  142.8370 C   0  0  0  0  0  2  0  0  0  0  0  0
  185.8100  176.6450  143.5390 C   0  0  0  0  0  2  0  0  0  0  0  0
  186.7960  177.6460  142.9390 C   0  0  0  0  0  3  0  0  0  0  0  0
  185.6000  179.4450  144.1850 C   0  0  0  0  0  2  0  0  0  0  0  0
  184.4240  178.0310  146.8760 O   0  0  0  0  0  1  0  0  0  0  0  0
  184.0620  178.9330  145.8750 C   0  0  0  0  0  2  0  0  0  0  0  0
  189.7210  174.5600  145.2290 C   0  0  0  0  0  2  0  0  0  0  0  0
  191.0010  174.0130  145.3530 O   0  0  0  0  0  0  0  0  0  0  0  0
  191.7040  174.9050  146.1710 C   0  0  2  0  0  3  0  0  0  0  0  0
  191.4630  176.2570  148.1220 O   0  0  0  0  0  1  0  0  0  0  0  0
  190.7460  175.6250  147.1060 C   0  0  0  0  0  2  0  0  0  0  0  0
  192.4850  175.9080  145.3240 C   0  0  0  0  0  2  0  0  0  0  0  0
  193.9120  175.5860  145.3010 N   0  0  0  0  0  0  0  0  0  0  0  0
  195.6040  175.0210  143.7480 N   0  0  0  0  0  2  0  0  0  0  0  0
  194.6460  176.8030  145.0140 C   0  0  0  0  0  2  0  0  0  0  0  0
  194.2610  174.6770  144.2010 C   0  0  1  0  0  0  0  0  0  0  0  0
  194.2560  173.3760  144.6750 F   0  0  0  0  0  0  0  0  0  0  0  0
  195.8210  176.3990  144.1580 C   0  0  0  0  0  2  0  0  0  0  0  0
  193.3440  174.8000  143.1020 O   0  0  0  0  0  0  0  0  0  0  0  0
  193.3880  174.0210  141.9370 C   0  0  0  0  0  0  0  0  0  0  0  0
  193.9700  171.9860  140.7440 C   0  0  0  0  0  3  0  0  0  0  0  0
  192.8930  173.8090  139.5700 C   0  0  0  0  0  3  0  0  0  0  0  0
  193.4460  172.5250  139.5660 C   0  0  0  0  0  3  0  0  0  0  0  0
  192.8670  174.5540  140.7530 C   0  0  0  0  0  3  0  0  0  0  0  0
  193.9400  172.7300  141.9260 C   0  0  0  0  0  3  0  0  0  0  0  0
  1  5  1  0  0  0  0
  2 11  1  0  0  0  0
  2 13  1  0  0  0  0
  3 25  1  0  0  0  0
  4  7  1  0  0  0  0
  5  9  2  0  0  0  0
  6  1  1  0  0  0  0
  7  9  1  0  0  0  0
  7 11  2  0  0  0  0
  8  1  2  0  0  0  0
  8  4  1  0  0  0  0
 10  3  2  0  0  0  0
 11 10  1  0  0  0  0
 12  2  2  0  0  0  0
 13 14  2  0  0  0  0
 14  3  1  0  0  0  0
 15  4  2  0  0  0  0
 15 12  1  0  0  0  0
 16 13  1  0  0  0  0
 16 21  1  0  0  0  0
 18 17  1  0  0  0  0
 18 24  1  0  0  0  0
 19 21  1  0  0  0  0
 19 22  1  0  0  0  0
 20 17  1  0  0  0  0
 21 20  1  0  0  0  0
 22 18  1  0  0  0  0
 24 23  1  0  0  0  0
 25 26  1  0  0  0  0
 26 27  1  0  0  0  0
 27 30  1  6  0  0  0
 27 29  1  0  0  0  0
 29 28  1  0  0  0  0
 31 30  1  0  0  0  0
 32 36  1  0  0  0  0
 32 34  1  0  0  0  0
 33 31  1  0  0  0  0
 34 35  1  1  0  0  0
 34 31  1  0  0  0  0
 36 33  1  0  0  0  0
 37 34  1  0  0  0  0
 38 37  1  0  0  0  0
 39 43  2  0  0  0  0
 40 42  1  0  0  0  0
 41 40  2  0  0  0  0
 41 39  1  0  0  0  0
 42 38  2  0  0  0  0
 43 38  1  0  0  0  0
M  END
>  <MODEL>
9

>  <REMARK>
 VINA RESULT:      -7.2      2.785      6.993
  Name = 
  11 active torsions:
  status: ('A' for Active; 'I' for Inactive)
    1  A    between atoms: S_1  and  C_34
    2  A    between atoms: S_1  and  C_35
    3  A    between atoms: C_2  and  O_6
    4  A    between atoms: C_2  and  C_13
    5  A    between atoms: C_3  and  N_4
    6  A    between atoms: C_3  and  C_12
    7  A    between atoms: O_6  and  C_12
    8  A    between atoms: C_11  and  O_14
    9  A    between atoms: C_12  and  C_17
   10  A    between atoms: O_14  and  C_22
   11  A    between atoms: N_19  and  C_37
                            x       y       z     vdW  Elec       q    Type
                         _______ _______ _______ _____ _____    ______ ____

>  <TORSDO>
F 11

$$$$
