=
 OpenBabel11052421333D

 32 37  0  0  1  0  0  0  0  0999 V2000
  191.2650  169.7870  138.0890 C   0  0  0  0  0  0  0  0  0  0  0  0
  190.7280  170.6210  141.3010 C   0  0  0  0  0  3  0  0  0  0  0  0
  188.4170  175.2310  141.8320 C   0  0  0  0  0  0  0  0  0  0  0  0
  189.1180  175.9180  146.5660 C   0  0  0  0  0  3  0  0  0  0  0  0
  188.5660  177.1550  146.4450 N   0  0  0  0  0  0  0  0  0  0  0  0
  189.0550  173.2100  140.7580 C   0  0  0  0  0  0  0  0  0  0  0  0
  189.4190  173.4880  143.1080 N   0  0  0  0  0  0  0  0  0  0  0  0
  191.7880  170.1230  139.2110 N   0  0  0  0  0  0  0  0  0  0  0  0
  190.0610  171.3410  142.2000 C   0  0  0  0  0  3  0  0  0  0  0  0
  189.2380  175.0900  145.4500 C   0  0  0  0  0  3  0  0  0  0  0  0
  188.8870  174.7370  143.0580 C   0  0  0  0  0  0  0  0  0  0  0  0
  188.7860  175.5410  144.2040 C   0  0  0  0  0  0  0  0  0  0  0  0
  187.7630  177.2830  142.8430 C   0  0  0  0  0  0  0  0  0  0  0  0
  189.7510  170.6120  137.6130 S   0  0  0  0  0  0  0  0  0  0  0  0
  189.8850  171.4770  139.1650 C   0  0  0  0  0  0  0  0  0  0  0  0
  191.8840  168.7340  137.2380 C   0  0  0  0  0  1  0  0  0  0  0  0
  189.5330  172.7070  141.9990 C   0  0  0  0  0  0  0  0  0  0  0  0
  189.0260  172.4350  139.5010 C   0  0  0  0  0  3  0  0  0  0  0  0
  191.1000  171.1420  139.9550 C   0  0  1  0  0  3  0  0  0  0  0  0
  188.1180  177.6220  145.2490 C   0  0  0  0  0  3  0  0  0  0  0  0
  188.2180  176.8310  144.0980 C   0  0  0  0  0  0  0  0  0  0  0  0
  188.5030  174.4520  140.7250 N   0  0  0  0  0  0  0  0  0  0  0  0
  187.8720  176.4730  141.7550 N   0  0  0  0  0  0  0  0  0  0  0  0
  187.1700  178.6470  142.6730 C   0  0  0  0  0  2  0  0  0  0  0  0
  184.8370  178.7770  143.6280 N   0  0  0  0  0  0  0  0  0  0  0  0
  184.9220  178.2080  141.5050 C   0  0  0  0  0  0  0  0  0  0  0  0
  183.6040  178.2340  141.9260 C   0  0  0  0  0  3  0  0  0  0  0  0
  183.5890  178.5900  143.2290 N   0  0  0  0  0  0  0  0  0  0  0  0
  185.4060  177.8650  140.1410 C   0  0  0  0  0  1  0  0  0  0  0  0
  185.6770  178.5650  142.6000 C   0  0  0  0  0  0  0  0  0  0  0  0
  185.2000  179.1980  144.9720 C   0  0  0  0  0  2  0  0  0  0  0  0
  184.2910  178.5290  145.9860 C   0  0  0  0  0  1  0  0  0  0  0  0
  1  8  2  0  0  0  0
  2  9  2  0  0  0  0
  3 11  1  0  0  0  0
  5  4  1  0  0  0  0
  6 17  2  0  0  0  0
  8 19  1  0  0  0  0
 10  4  2  0  0  0  0
 11  7  2  0  0  0  0
 11 12  1  0  0  0  0
 12 10  1  0  0  0  0
 13 21  1  0  0  0  0
 14  1  1  0  0  0  0
 14 15  1  0  0  0  0
 15 18  2  0  0  0  0
 15 19  1  0  0  0  0
 16  1  1  0  0  0  0
 17  9  1  0  0  0  0
 17  7  1  0  0  0  0
 18  6  1  0  0  0  0
 19  2  1  1  0  0  0
 20  5  2  0  0  0  0
 21 12  2  0  0  0  0
 21 20  1  0  0  0  0
 22  6  1  0  0  0  0
 22  3  2  0  0  0  0
 23  3  1  0  0  0  0
 23 13  2  0  0  0  0
 24 13  1  0  0  0  0
 25 31  1  0  0  0  0
 26 27  1  0  0  0  0
 26 30  2  0  0  0  0
 27 28  2  0  0  0  0
 28 25  1  0  0  0  0
 29 26  1  0  0  0  0
 30 24  1  0  0  0  0
 30 25  1  0  0  0  0
 31 32  1  0  0  0  0
M  END
>  <MODEL>
1

>  <REMARK>
 VINA RESULT:      -8.1      0.000      0.000
  Name = 
  3 active torsions:
  status: ('A' for Active; 'I' for Inactive)
    1  A    between atoms: C_6  and  N_7
    2  A    between atoms: C_16  and  C_27
    3  A    between atoms: C_27  and  C_32
                            x       y       z     vdW  Elec       q    Type
                         _______ _______ _______ _____ _____    ______ ____

>  <TORSDO>
F 3

$$$$
=
 OpenBabel11052421333D

 32 37  0  0  1  0  0  0  0  0999 V2000
  183.0650  178.3470  141.2340 C   0  0  0  0  0  0  0  0  0  0  0  0
  185.1150  178.8140  143.8560 C   0  0  0  0  0  3  0  0  0  0  0  0
  189.6140  176.2830  143.3800 C   0  0  0  0  0  0  0  0  0  0  0  0
  191.2260  176.6890  147.9200 C   0  0  0  0  0  3  0  0  0  0  0  0
  192.2860  175.9030  147.5890 N   0  0  0  0  0  0  0  0  0  0  0  0
  187.6090  177.3430  142.6700 C   0  0  0  0  0  0  0  0  0  0  0  0
  188.3620  177.5880  144.9280 N   0  0  0  0  0  0  0  0  0  0  0  0
  183.2800  178.1260  142.4790 N   0  0  0  0  0  0  0  0  0  0  0  0
  186.3450  178.7950  144.3650 C   0  0  0  0  0  3  0  0  0  0  0  0
  190.2610  177.0050  146.9640 C   0  0  0  0  0  3  0  0  0  0  0  0
  189.4410  176.8020  144.6710 C   0  0  0  0  0  0  0  0  0  0  0  0
  190.3900  176.5060  145.6620 C   0  0  0  0  0  0  0  0  0  0  0  0
  191.6250  175.1890  144.0270 C   0  0  0  0  0  0  0  0  0  0  0  0
  184.4740  178.2740  140.1340 S   0  0  0  0  0  0  0  0  0  0  0  0
  185.4340  177.9250  141.5950 C   0  0  0  0  0  0  0  0  0  0  0  0
  181.7010  178.6780  140.7370 C   0  0  0  0  0  1  0  0  0  0  0  0
  187.4300  177.8700  143.9780 C   0  0  0  0  0  0  0  0  0  0  0  0
  186.7320  177.6470  141.5210 C   0  0  0  0  0  3  0  0  0  0  0  0
  184.6370  177.8270  142.8470 C   0  0  1  0  0  3  0  0  0  0  0  0
  192.4390  175.4040  146.3340 C   0  0  0  0  0  3  0  0  0  0  0  0
  191.4960  175.6890  145.3380 C   0  0  0  0  0  0  0  0  0  0  0  0
  188.7050  176.5770  142.4170 N   0  0  0  0  0  0  0  0  0  0  0  0
  190.6870  175.5020  143.0910 N   0  0  0  0  0  0  0  0  0  0  0  0
  192.7680  174.3040  143.6370 C   0  0  0  0  0  2  0  0  0  0  0  0
  194.6340  175.8500  142.9300 N   0  0  0  0  0  0  0  0  0  0  0  0
  193.5520  174.9050  141.2640 C   0  0  0  0  0  0  0  0  0  0  0  0
  194.5380  175.7370  140.7640 C   0  0  0  0  0  3  0  0  0  0  0  0
  195.1830  176.2970  141.8110 N   0  0  0  0  0  0  0  0  0  0  0  0
  192.5990  174.0870  140.4660 C   0  0  0  0  0  1  0  0  0  0  0  0
  193.6440  174.9890  142.6350 C   0  0  0  0  0  0  0  0  0  0  0  0
  195.0950  176.2210  144.2590 C   0  0  0  0  0  2  0  0  0  0  0  0
  196.0540  175.1690  144.7840 C   0  0  0  0  0  1  0  0  0  0  0  0
  1  8  2  0  0  0  0
  2  9  2  0  0  0  0
  3 11  1  0  0  0  0
  5  4  1  0  0  0  0
  6 17  2  0  0  0  0
  8 19  1  0  0  0  0
 10  4  2  0  0  0  0
 11  7  2  0  0  0  0
 11 12  1  0  0  0  0
 12 10  1  0  0  0  0
 13 21  1  0  0  0  0
 14  1  1  0  0  0  0
 14 15  1  0  0  0  0
 15 19  1  0  0  0  0
 16  1  1  0  0  0  0
 17  9  1  0  0  0  0
 17  7  1  0  0  0  0
 18 15  2  0  0  0  0
 18  6  1  0  0  0  0
 19  2  1  1  0  0  0
 20  5  2  0  0  0  0
 21 12  2  0  0  0  0
 21 20  1  0  0  0  0
 22  6  1  0  0  0  0
 22  3  2  0  0  0  0
 23  3  1  0  0  0  0
 23 13  2  0  0  0  0
 24 13  1  0  0  0  0
 25 31  1  0  0  0  0
 26 30  2  0  0  0  0
 27 26  1  0  0  0  0
 27 28  2  0  0  0  0
 28 25  1  0  0  0  0
 29 26  1  0  0  0  0
 30 25  1  0  0  0  0
 30 24  1  0  0  0  0
 31 32  1  0  0  0  0
M  END
>  <MODEL>
2

>  <REMARK>
 VINA RESULT:      -8.0      3.707      8.099
  Name = 
  3 active torsions:
  status: ('A' for Active; 'I' for Inactive)
    1  A    between atoms: C_6  and  N_7
    2  A    between atoms: C_16  and  C_27
    3  A    between atoms: C_27  and  C_32
                            x       y       z     vdW  Elec       q    Type
                         _______ _______ _______ _____ _____    ______ ____

>  <TORSDO>
F 3

$$$$
=
 OpenBabel11052421333D

 32 37  0  0  1  0  0  0  0  0999 V2000
  183.0590  178.3410  141.2420 C   0  0  0  0  0  0  0  0  0  0  0  0
  185.1080  178.7870  143.8690 C   0  0  0  0  0  3  0  0  0  0  0  0
  189.6370  176.3220  143.3390 C   0  0  0  0  0  0  0  0  0  0  0  0
  191.2540  176.6660  147.8820 C   0  0  0  0  0  3  0  0  0  0  0  0
  192.3220  175.9000  147.5360 N   0  0  0  0  0  0  0  0  0  0  0  0
  187.6180  177.3680  142.6520 C   0  0  0  0  0  0  0  0  0  0  0  0
  188.3730  177.5830  144.9130 N   0  0  0  0  0  0  0  0  0  0  0  0
  183.2790  178.1010  142.4820 N   0  0  0  0  0  0  0  0  0  0  0  0
  186.3390  178.7740  144.3740 C   0  0  0  0  0  3  0  0  0  0  0  0
  190.2820  176.9870  146.9340 C   0  0  0  0  0  3  0  0  0  0  0  0
  189.4600  176.8150  144.6390 C   0  0  0  0  0  0  0  0  0  0  0  0
  190.4150  176.5130  145.6230 C   0  0  0  0  0  0  0  0  0  0  0  0
  191.6630  175.2410  143.9630 C   0  0  0  0  0  0  0  0  0  0  0  0
  184.4660  178.3050  140.1390 S   0  0  0  0  0  0  0  0  0  0  0  0
  185.4330  177.9420  141.5910 C   0  0  0  0  0  0  0  0  0  0  0  0
  181.6900  178.6640  140.7540 C   0  0  0  0  0  1  0  0  0  0  0  0
  187.4350  177.8700  143.9690 C   0  0  0  0  0  0  0  0  0  0  0  0
  186.7350  177.6820  141.5100 C   0  0  0  0  0  3  0  0  0  0  0  0
  184.6400  177.8120  142.8430 C   0  0  1  0  0  3  0  0  0  0  0  0
  192.4790  175.4250  146.2710 C   0  0  0  0  0  3  0  0  0  0  0  0
  191.5310  175.7150  145.2830 C   0  0  0  0  0  0  0  0  0  0  0  0
  188.7220  176.6210  142.3830 N   0  0  0  0  0  0  0  0  0  0  0  0
  190.7200  175.5590  143.0340 N   0  0  0  0  0  0  0  0  0  0  0  0
  192.8170  174.3770  143.5550 C   0  0  0  0  0  2  0  0  0  0  0  0
  193.6190  174.9500  141.2310 N   0  0  0  0  0  0  0  0  0  0  0  0
  194.7170  175.9580  142.8490 C   0  0  0  0  0  0  0  0  0  0  0  0
  195.2460  176.3320  141.6260 C   0  0  0  0  0  3  0  0  0  0  0  0
  194.5480  175.6990  140.6580 N   0  0  0  0  0  0  0  0  0  0  0  0
  195.1800  176.4140  144.1870 C   0  0  0  0  0  1  0  0  0  0  0  0
  193.6840  175.0930  142.5670 C   0  0  0  0  0  0  0  0  0  0  0  0
  192.6590  174.1470  140.4900 C   0  0  0  0  0  2  0  0  0  0  0  0
  193.0330  174.1220  139.0200 C   0  0  0  0  0  1  0  0  0  0  0  0
  1  8  2  0  0  0  0
  2  9  2  0  0  0  0
  3 11  1  0  0  0  0
  5  4  1  0  0  0  0
  6 17  2  0  0  0  0
  8 19  1  0  0  0  0
 10  4  2  0  0  0  0
 11  7  2  0  0  0  0
 11 12  1  0  0  0  0
 12 10  1  0  0  0  0
 13 21  1  0  0  0  0
 14  1  1  0  0  0  0
 14 15  1  0  0  0  0
 15 19  1  0  0  0  0
 16  1  1  0  0  0  0
 17  9  1  0  0  0  0
 17  7  1  0  0  0  0
 18 15  2  0  0  0  0
 18  6  1  0  0  0  0
 19  2  1  1  0  0  0
 20  5  2  0  0  0  0
 21 12  2  0  0  0  0
 21 20  1  0  0  0  0
 22  6  1  0  0  0  0
 22  3  2  0  0  0  0
 23  3  1  0  0  0  0
 23 13  2  0  0  0  0
 24 13  1  0  0  0  0
 25 30  1  0  0  0  0
 26 29  1  0  0  0  0
 27 26  1  0  0  0  0
 28 25  1  0  0  0  0
 28 27  2  0  0  0  0
 30 26  2  0  0  0  0
 30 24  1  0  0  0  0
 31 25  1  0  0  0  0
 32 31  1  0  0  0  0
M  END
>  <MODEL>
3

>  <REMARK>
 VINA RESULT:      -8.0      3.631      8.195
  Name = 
  3 active torsions:
  status: ('A' for Active; 'I' for Inactive)
    1  A    between atoms: C_6  and  N_7
    2  A    between atoms: C_16  and  C_27
    3  A    between atoms: C_27  and  C_32
                            x       y       z     vdW  Elec       q    Type
                         _______ _______ _______ _____ _____    ______ ____

>  <TORSDO>
F 3

$$$$
=
 OpenBabel11052421333D

 32 37  0  0  1  0  0  0  0  0999 V2000
  182.6360  178.4490  141.3540 C   0  0  0  0  0  0  0  0  0  0  0  0
  184.7120  179.0630  143.9260 C   0  0  0  0  0  3  0  0  0  0  0  0
  189.2330  176.5610  143.5170 C   0  0  0  0  0  0  0  0  0  0  0  0
  190.8940  177.2020  148.0120 C   0  0  0  0  0  3  0  0  0  0  0  0
  191.9580  176.4130  147.7070 N   0  0  0  0  0  0  0  0  0  0  0  0
  187.2080  177.5630  142.7810 C   0  0  0  0  0  0  0  0  0  0  0  0
  187.9850  177.9250  145.0160 N   0  0  0  0  0  0  0  0  0  0  0  0
  182.8690  178.2900  142.6060 N   0  0  0  0  0  0  0  0  0  0  0  0
  185.9480  179.0820  144.4200 C   0  0  0  0  0  3  0  0  0  0  0  0
  189.9130  177.4610  147.0540 C   0  0  0  0  0  3  0  0  0  0  0  0
  189.0690  177.1400  144.7840 C   0  0  0  0  0  0  0  0  0  0  0  0
  190.0330  176.9010  145.7760 C   0  0  0  0  0  0  0  0  0  0  0  0
  191.2640  175.5210  144.1920 C   0  0  0  0  0  0  0  0  0  0  0  0
  184.0330  178.3380  140.2430 S   0  0  0  0  0  0  0  0  0  0  0  0
  185.0140  178.0700  141.7060 C   0  0  0  0  0  0  0  0  0  0  0  0
  181.2630  178.7410  140.8590 C   0  0  0  0  0  1  0  0  0  0  0  0
  187.0390  178.1510  144.0650 C   0  0  0  0  0  0  0  0  0  0  0  0
  186.3140  177.8020  141.6300 C   0  0  0  0  0  3  0  0  0  0  0  0
  184.2330  178.0240  142.9710 C   0  0  1  0  0  3  0  0  0  0  0  0
  192.1020  175.8550  146.4750 C   0  0  0  0  0  3  0  0  0  0  0  0
  191.1450  176.0810  145.4780 C   0  0  0  0  0  0  0  0  0  0  0  0
  188.3090  176.7980  142.5520 N   0  0  0  0  0  0  0  0  0  0  0  0
  190.3120  175.7780  143.2530 N   0  0  0  0  0  0  0  0  0  0  0  0
  192.4120  174.6300  143.8310 C   0  0  0  0  0  2  0  0  0  0  0  0
  192.2600  173.6400  141.5140 N   0  0  0  0  0  0  0  0  0  0  0  0
  191.2020  172.4950  143.0650 C   0  0  0  0  0  0  0  0  0  0  0  0
  191.0410  171.8730  141.8390 C   0  0  0  0  0  3  0  0  0  0  0  0
  191.7050  172.5990  140.9130 N   0  0  0  0  0  0  0  0  0  0  0  0
  190.6400  172.0400  144.3650 C   0  0  0  0  0  1  0  0  0  0  0  0
  191.9850  173.6030  142.8290 C   0  0  0  0  0  0  0  0  0  0  0  0
  193.0790  174.6270  140.8260 C   0  0  0  0  0  2  0  0  0  0  0  0
  193.7830  173.9820  139.6480 C   0  0  0  0  0  1  0  0  0  0  0  0
  1  8  2  0  0  0  0
  2  9  2  0  0  0  0
  3 11  1  0  0  0  0
  5  4  1  0  0  0  0
  6 17  2  0  0  0  0
  8 19  1  0  0  0  0
 10  4  2  0  0  0  0
 11  7  2  0  0  0  0
 11 12  1  0  0  0  0
 12 10  1  0  0  0  0
 13 21  1  0  0  0  0
 14  1  1  0  0  0  0
 14 15  1  0  0  0  0
 15 19  1  0  0  0  0
 16  1  1  0  0  0  0
 17  9  1  0  0  0  0
 17  7  1  0  0  0  0
 18 15  2  0  0  0  0
 18  6  1  0  0  0  0
 19  2  1  1  0  0  0
 20  5  2  0  0  0  0
 21 12  2  0  0  0  0
 21 20  1  0  0  0  0
 22  6  1  0  0  0  0
 22  3  2  0  0  0  0
 23  3  1  0  0  0  0
 23 13  2  0  0  0  0
 24 13  1  0  0  0  0
 25 30  1  0  0  0  0
 26 29  1  0  0  0  0
 27 26  1  0  0  0  0
 28 25  1  0  0  0  0
 28 27  2  0  0  0  0
 30 26  2  0  0  0  0
 30 24  1  0  0  0  0
 31 25  1  0  0  0  0
 32 31  1  0  0  0  0
M  END
>  <MODEL>
4

>  <REMARK>
 VINA RESULT:      -7.6      2.838      8.039
  Name = 
  3 active torsions:
  status: ('A' for Active; 'I' for Inactive)
    1  A    between atoms: C_6  and  N_7
    2  A    between atoms: C_16  and  C_27
    3  A    between atoms: C_27  and  C_32
                            x       y       z     vdW  Elec       q    Type
                         _______ _______ _______ _____ _____    ______ ____

>  <TORSDO>
F 3

$$$$
=
 OpenBabel11052421333D

 32 37  0  0  1  0  0  0  0  0999 V2000
  196.5050  175.1650  143.7230 C   0  0  0  0  0  0  0  0  0  0  0  0
  194.4950  176.3440  146.1450 C   0  0  0  0  0  3  0  0  0  0  0  0
  189.4670  176.0640  144.9120 C   0  0  0  0  0  0  0  0  0  0  0  0
  187.6500  178.8970  148.3820 C   0  0  0  0  0  3  0  0  0  0  0  0
  186.4220  178.7660  147.8140 N   0  0  0  0  0  0  0  0  0  0  0  0
  191.7770  175.5090  144.8370 C   0  0  0  0  0  0  0  0  0  0  0  0
  190.9330  176.9090  146.5860 N   0  0  0  0  0  0  0  0  0  0  0  0
  196.1020  176.1920  144.3750 N   0  0  0  0  0  0  0  0  0  0  0  0
  193.2910  176.3900  146.7110 C   0  0  0  0  0  3  0  0  0  0  0  0
  188.7560  178.2610  147.8190 C   0  0  0  0  0  3  0  0  0  0  0  0
  189.6800  176.8300  146.0670 C   0  0  0  0  0  0  0  0  0  0  0  0
  188.5930  177.4870  146.6630 C   0  0  0  0  0  0  0  0  0  0  0  0
  187.1460  176.5870  144.9230 C   0  0  0  0  0  0  0  0  0  0  0  0
  195.2780  173.9380  143.2900 S   0  0  0  0  0  0  0  0  0  0  0  0
  194.1150  174.9860  144.1400 C   0  0  0  0  0  0  0  0  0  0  0  0
  197.9410  174.9930  143.3690 C   0  0  0  0  0  1  0  0  0  0  0  0
  191.9960  176.2860  146.0080 C   0  0  0  0  0  0  0  0  0  0  0  0
  192.8160  174.7040  144.1650 C   0  0  0  0  0  3  0  0  0  0  0  0
  194.6970  176.2480  144.6710 C   0  0  1  0  0  3  0  0  0  0  0  0
  186.2310  178.0230  146.6910 C   0  0  0  0  0  3  0  0  0  0  0  0
  187.3090  177.3660  146.0850 C   0  0  0  0  0  0  0  0  0  0  0  0
  190.5140  175.4180  144.3390 N   0  0  0  0  0  0  0  0  0  0  0  0
  188.2230  175.9600  144.3750 N   0  0  0  0  0  0  0  0  0  0  0  0
  185.8110  176.4410  144.2600 C   0  0  0  0  0  2  0  0  0  0  0  0
  185.1090  178.3060  142.7100 N   0  0  0  0  0  0  0  0  0  0  0  0
  186.4060  176.7910  141.7830 C   0  0  0  0  0  0  0  0  0  0  0  0
  186.0730  177.7520  140.8450 C   0  0  0  0  0  3  0  0  0  0  0  0
  185.2810  178.6660  141.4480 N   0  0  0  0  0  0  0  0  0  0  0  0
  187.2620  175.5950  141.5560 C   0  0  0  0  0  1  0  0  0  0  0  0
  185.7910  177.1730  142.9540 C   0  0  0  0  0  0  0  0  0  0  0  0
  184.3320  179.0750  143.6700 C   0  0  0  0  0  2  0  0  0  0  0  0
  185.1920  180.1720  144.2690 C   0  0  0  0  0  1  0  0  0  0  0  0
  1  8  2  0  0  0  0
  2  9  2  0  0  0  0
  3 11  1  0  0  0  0
  5  4  2  0  0  0  0
  6 17  2  0  0  0  0
  8 19  1  0  0  0  0
 10  4  1  0  0  0  0
 11  7  2  0  0  0  0
 11 12  1  0  0  0  0
 12 10  2  0  0  0  0
 13 21  1  0  0  0  0
 14  1  1  0  0  0  0
 14 15  1  0  0  0  0
 15 18  2  0  0  0  0
 15 19  1  0  0  0  0
 16  1  1  0  0  0  0
 17  7  1  0  0  0  0
 17  9  1  0  0  0  0
 18  6  1  0  0  0  0
 19  2  1  1  0  0  0
 20  5  1  0  0  0  0
 21 12  1  0  0  0  0
 21 20  2  0  0  0  0
 22  6  1  0  0  0  0
 22  3  2  0  0  0  0
 23  3  1  0  0  0  0
 23 13  2  0  0  0  0
 24 13  1  0  0  0  0
 25 30  1  0  0  0  0
 25 31  1  0  0  0  0
 26 30  2  0  0  0  0
 27 28  2  0  0  0  0
 27 26  1  0  0  0  0
 28 25  1  0  0  0  0
 29 26  1  0  0  0  0
 30 24  1  0  0  0  0
 31 32  1  0  0  0  0
M  END
>  <MODEL>
5

>  <REMARK>
 VINA RESULT:      -7.6      3.981      5.297
  Name = 
  3 active torsions:
  status: ('A' for Active; 'I' for Inactive)
    1  A    between atoms: C_6  and  N_7
    2  A    between atoms: C_16  and  C_27
    3  A    between atoms: C_27  and  C_32
                            x       y       z     vdW  Elec       q    Type
                         _______ _______ _______ _____ _____    ______ ____

>  <TORSDO>
F 3

$$$$
=
 OpenBabel11052421333D

 32 37  0  0  1  0  0  0  0  0999 V2000
  190.9520  170.6730  137.4750 C   0  0  0  0  0  0  0  0  0  0  0  0
  190.6720  170.8830  140.8180 C   0  0  0  0  0  3  0  0  0  0  0  0
  188.6440  175.3850  142.3970 C   0  0  0  0  0  0  0  0  0  0  0  0
  189.6920  175.1070  147.1090 C   0  0  0  0  0  3  0  0  0  0  0  0
  189.1970  176.3630  147.2690 N   0  0  0  0  0  0  0  0  0  0  0  0
  189.1040  173.5900  140.9100 C   0  0  0  0  0  0  0  0  0  0  0  0
  189.6360  173.3890  143.2350 N   0  0  0  0  0  0  0  0  0  0  0  0
  191.5640  170.7620  138.5980 N   0  0  0  0  0  0  0  0  0  0  0  0
  190.1050  171.4390  141.8860 C   0  0  0  0  0  3  0  0  0  0  0  0
  189.6940  174.5090  145.8490 C   0  0  0  0  0  3  0  0  0  0  0  0
  189.1670  174.6440  143.4670 C   0  0  0  0  0  0  0  0  0  0  0  0
  189.1850  175.2120  144.7500 C   0  0  0  0  0  0  0  0  0  0  0  0
  188.1660  177.2230  143.8300 C   0  0  0  0  0  0  0  0  0  0  0  0
  189.4550  171.6320  137.2810 S   0  0  0  0  0  0  0  0  0  0  0  0
  189.7350  172.1720  138.9560 C   0  0  0  0  0  0  0  0  0  0  0  0
  191.4570  169.7840  136.3930 C   0  0  0  0  0  1  0  0  0  0  0  0
  189.6360  172.8360  141.9920 C   0  0  0  0  0  0  0  0  0  0  0  0
  188.9510  173.0780  139.5330 C   0  0  0  0  0  3  0  0  0  0  0  0
  190.9810  171.6430  139.5730 C   0  0  1  0  0  3  0  0  0  0  0  0
  188.6970  177.0720  146.2220 C   0  0  0  0  0  3  0  0  0  0  0  0
  188.6780  176.5180  144.9360 C   0  0  0  0  0  0  0  0  0  0  0  0
  188.6160  174.8350  141.1570 N   0  0  0  0  0  0  0  0  0  0  0  0
  188.1610  176.6380  142.6010 N   0  0  0  0  0  0  0  0  0  0  0  0
  187.6350  178.6160  143.9690 C   0  0  0  0  0  2  0  0  0  0  0  0
  185.2950  178.5760  143.0240 N   0  0  0  0  0  0  0  0  0  0  0  0
  185.3890  178.6680  145.2190 C   0  0  0  0  0  0  0  0  0  0  0  0
  184.0660  178.6650  144.8120 C   0  0  0  0  0  3  0  0  0  0  0  0
  184.0460  178.6040  143.4620 N   0  0  0  0  0  0  0  0  0  0  0  0
  185.8790  178.7270  146.6230 C   0  0  0  0  0  1  0  0  0  0  0  0
  186.1410  178.6010  144.0680 C   0  0  0  0  0  0  0  0  0  0  0  0
  185.6540  178.4820  141.6170 C   0  0  0  0  0  2  0  0  0  0  0  0
  184.4060  178.2900  140.7770 C   0  0  0  0  0  1  0  0  0  0  0  0
  1  8  2  0  0  0  0
  2  9  2  0  0  0  0
  3 23  1  0  0  0  0
  3 11  1  0  0  0  0
  4  5  1  0  0  0  0
  6 22  1  0  0  0  0
  6 17  2  0  0  0  0
  7 11  2  0  0  0  0
  8 19  1  0  0  0  0
  9 17  1  0  0  0  0
 10  4  2  0  0  0  0
 11 12  1  0  0  0  0
 12 21  2  0  0  0  0
 12 10  1  0  0  0  0
 13 24  1  0  0  0  0
 13 21  1  0  0  0  0
 14  1  1  0  0  0  0
 14 15  1  0  0  0  0
 15 18  2  0  0  0  0
 15 19  1  0  0  0  0
 16  1  1  0  0  0  0
 17  7  1  0  0  0  0
 18  6  1  0  0  0  0
 19  2  1  1  0  0  0
 20  5  2  0  0  0  0
 21 20  1  0  0  0  0
 22  3  2  0  0  0  0
 23 13  2  0  0  0  0
 24 30  1  0  0  0  0
 25 28  1  0  0  0  0
 25 30  1  0  0  0  0
 26 29  1  0  0  0  0
 27 26  1  0  0  0  0
 28 27  2  0  0  0  0
 30 26  2  0  0  0  0
 31 25  1  0  0  0  0
 32 31  1  0  0  0  0
M  END
>  <MODEL>
6

>  <REMARK>
 VINA RESULT:      -7.5      0.924      1.996
  Name = 
  3 active torsions:
  status: ('A' for Active; 'I' for Inactive)
    1  A    between atoms: C_6  and  N_7
    2  A    between atoms: C_16  and  C_27
    3  A    between atoms: C_27  and  C_32
                            x       y       z     vdW  Elec       q    Type
                         _______ _______ _______ _____ _____    ______ ____

>  <TORSDO>
F 3

$$$$
=
 OpenBabel11052421333D

 32 37  0  0  1  0  0  0  0  0999 V2000
  185.5920  178.1850  145.5720 C   0  0  0  0  0  0  0  0  0  0  0  0
  186.3890  176.2100  142.9720 C   0  0  0  0  0  3  0  0  0  0  0  0
  191.3040  174.5690  143.1140 C   0  0  0  0  0  0  0  0  0  0  0  0
  191.6910  172.8610  138.6070 C   0  0  0  0  0  3  0  0  0  0  0  0
  193.0080  172.6120  138.8390 N   0  0  0  0  0  0  0  0  0  0  0  0
  189.2440  175.3940  143.9610 C   0  0  0  0  0  0  0  0  0  0  0  0
  189.3710  174.5520  141.7240 N   0  0  0  0  0  0  0  0  0  0  0  0
  185.7920  178.1060  144.3080 N   0  0  0  0  0  0  0  0  0  0  0  0
  187.1800  175.2800  142.4420 C   0  0  0  0  0  3  0  0  0  0  0  0
  190.8950  173.4200  139.6070 C   0  0  0  0  0  3  0  0  0  0  0  0
  190.6940  174.2850  141.8830 C   0  0  0  0  0  0  0  0  0  0  0  0
  191.4620  173.7240  140.8510 C   0  0  0  0  0  0  0  0  0  0  0  0
  193.4000  173.7650  142.3250 C   0  0  0  0  0  0  0  0  0  0  0  0
  186.6800  177.2420  146.6330 S   0  0  0  0  0  0  0  0  0  0  0  0
  187.4530  176.6830  145.1280 C   0  0  0  0  0  0  0  0  0  0  0  0
  184.4790  179.0060  146.1250 C   0  0  0  0  0  1  0  0  0  0  0  0
  188.6220  175.1080  142.7150 C   0  0  0  0  0  0  0  0  0  0  0  0
  188.5310  175.9050  145.1500 C   0  0  0  0  0  3  0  0  0  0  0  0
  186.8870  177.2760  143.8870 C   0  0  1  0  0  3  0  0  0  0  0  0
  193.5870  172.8960  140.0360 C   0  0  0  0  0  3  0  0  0  0  0  0
  192.8320  173.4600  141.0720 C   0  0  0  0  0  0  0  0  0  0  0  0
  190.5630  175.1010  144.1170 N   0  0  0  0  0  0  0  0  0  0  0  0
  192.6230  174.3040  143.3040 N   0  0  0  0  0  0  0  0  0  0  0  0
  194.8510  173.5230  142.6050 C   0  0  0  0  0  2  0  0  0  0  0  0
  195.8540  175.3630  144.0120 N   0  0  0  0  0  0  0  0  0  0  0  0
  195.9980  175.6940  141.8420 C   0  0  0  0  0  0  0  0  0  0  0  0
  196.5640  176.7640  142.5120 C   0  0  0  0  0  3  0  0  0  0  0  0
  196.4620  176.5270  143.8380 N   0  0  0  0  0  0  0  0  0  0  0  0
  195.8910  175.5340  140.3660 C   0  0  0  0  0  1  0  0  0  0  0  0
  195.5680  174.8200  142.8150 C   0  0  0  0  0  0  0  0  0  0  0  0
  195.6000  174.7730  145.3160 C   0  0  0  0  0  2  0  0  0  0  0  0
  194.6580  175.6590  146.1090 C   0  0  0  0  0  1  0  0  0  0  0  0
  1 16  1  0  0  0  0
  1 14  1  0  0  0  0
  3 23  1  0  0  0  0
  3 22  2  0  0  0  0
  4  5  2  0  0  0  0
  4 10  1  0  0  0  0
  5 20  1  0  0  0  0
  6 22  1  0  0  0  0
  6 18  1  0  0  0  0
  7 11  2  0  0  0  0
  7 17  1  0  0  0  0
  8  1  2  0  0  0  0
  9 17  1  0  0  0  0
  9  2  2  0  0  0  0
 10 12  2  0  0  0  0
 11  3  1  0  0  0  0
 12 21  1  0  0  0  0
 12 11  1  0  0  0  0
 13 24  1  0  0  0  0
 13 23  2  0  0  0  0
 15 18  2  0  0  0  0
 15 14  1  0  0  0  0
 17  6  2  0  0  0  0
 19  2  1  6  0  0  0
 19  8  1  0  0  0  0
 19 15  1  0  0  0  0
 20 21  2  0  0  0  0
 21 13  1  0  0  0  0
 24 30  1  0  0  0  0
 25 31  1  0  0  0  0
 26 27  1  0  0  0  0
 26 30  2  0  0  0  0
 27 28  2  0  0  0  0
 28 25  1  0  0  0  0
 29 26  1  0  0  0  0
 30 25  1  0  0  0  0
 31 32  1  0  0  0  0
M  END
>  <MODEL>
7

>  <REMARK>
 VINA RESULT:      -7.4      4.446      8.960
  Name = 
  3 active torsions:
  status: ('A' for Active; 'I' for Inactive)
    1  A    between atoms: C_6  and  N_7
    2  A    between atoms: C_16  and  C_27
    3  A    between atoms: C_27  and  C_32
                            x       y       z     vdW  Elec       q    Type
                         _______ _______ _______ _____ _____    ______ ____

>  <TORSDO>
F 3

$$$$
=
 OpenBabel11052421333D

 32 37  0  0  1  0  0  0  0  0999 V2000
  191.3160  169.8450  137.2990 C   0  0  0  0  0  0  0  0  0  0  0  0
  192.2030  170.3560  140.5010 C   0  0  0  0  0  3  0  0  0  0  0  0
  190.0330  174.5950  142.5470 C   0  0  0  0  0  0  0  0  0  0  0  0
  192.7140  174.9940  146.5510 C   0  0  0  0  0  3  0  0  0  0  0  0
  192.0740  176.1600  146.8350 N   0  0  0  0  0  0  0  0  0  0  0  0
  190.2750  172.7560  141.0630 C   0  0  0  0  0  0  0  0  0  0  0  0
  191.6250  172.8930  143.0350 N   0  0  0  0  0  0  0  0  0  0  0  0
  192.2560  170.1530  138.1150 N   0  0  0  0  0  0  0  0  0  0  0  0
  191.9540  170.9180  141.6810 C   0  0  0  0  0  3  0  0  0  0  0  0
  192.3860  174.2750  145.4010 C   0  0  0  0  0  3  0  0  0  0  0  0
  191.0340  174.0690  143.3760 C   0  0  0  0  0  0  0  0  0  0  0  0
  191.3940  174.7640  144.5410 C   0  0  0  0  0  0  0  0  0  0  0  0
  189.7450  176.4680  143.9870 C   0  0  0  0  0  0  0  0  0  0  0  0
  189.6910  170.5140  137.6340 S   0  0  0  0  0  0  0  0  0  0  0  0
  190.4360  171.2660  139.0670 C   0  0  0  0  0  0  0  0  0  0  0  0
  191.5670  168.9440  136.1410 C   0  0  0  0  0  1  0  0  0  0  0  0
  191.2920  172.2200  141.9000 C   0  0  0  0  0  0  0  0  0  0  0  0
  189.7480  172.0840  139.8580 C   0  0  0  0  0  3  0  0  0  0  0  0
  191.8970  171.0210  139.2030 C   0  0  1  0  0  3  0  0  0  0  0  0
  191.1080  176.6610  146.0200 C   0  0  0  0  0  3  0  0  0  0  0  0
  190.7430  175.9790  144.8520 C   0  0  0  0  0  0  0  0  0  0  0  0
  189.6740  173.9210  141.4260 N   0  0  0  0  0  0  0  0  0  0  0  0
  189.4190  175.7640  142.8680 N   0  0  0  0  0  0  0  0  0  0  0  0
  189.0380  177.7590  144.2600 C   0  0  0  0  0  2  0  0  0  0  0  0
  186.6380  177.8290  143.4820 N   0  0  0  0  0  0  0  0  0  0  0  0
  186.9140  177.0400  145.5160 C   0  0  0  0  0  0  0  0  0  0  0  0
  185.5670  177.0450  145.2010 C   0  0  0  0  0  3  0  0  0  0  0  0
  185.4340  177.5310  143.9470 N   0  0  0  0  0  0  0  0  0  0  0  0
  187.5180  176.5850  146.7980 C   0  0  0  0  0  1  0  0  0  0  0  0
  187.5660  177.5300  144.4080 C   0  0  0  0  0  0  0  0  0  0  0  0
  186.8800  178.3520  142.1470 C   0  0  0  0  0  2  0  0  0  0  0  0
  186.6910  177.2510  141.1200 C   0  0  0  0  0  1  0  0  0  0  0  0
  1 14  1  0  0  0  0
  1  8  2  0  0  0  0
  2  9  2  0  0  0  0
  3 23  1  0  0  0  0
  3 11  1  0  0  0  0
  4  5  1  0  0  0  0
  6 22  1  0  0  0  0
  6 17  2  0  0  0  0
  7 11  2  0  0  0  0
  8 19  1  0  0  0  0
  9 17  1  0  0  0  0
 10  4  2  0  0  0  0
 11 12  1  0  0  0  0
 12 21  2  0  0  0  0
 12 10  1  0  0  0  0
 13 24  1  0  0  0  0
 13 21  1  0  0  0  0
 14 15  1  0  0  0  0
 15 19  1  0  0  0  0
 15 18  2  0  0  0  0
 16  1  1  0  0  0  0
 17  7  1  0  0  0  0
 18  6  1  0  0  0  0
 19  2  1  1  0  0  0
 20  5  2  0  0  0  0
 21 20  1  0  0  0  0
 22  3  2  0  0  0  0
 23 13  2  0  0  0  0
 24 30  1  0  0  0  0
 25 28  1  0  0  0  0
 25 30  1  0  0  0  0
 26 29  1  0  0  0  0
 27 26  1  0  0  0  0
 28 27  2  0  0  0  0
 30 26  2  0  0  0  0
 31 25  1  0  0  0  0
 32 31  1  0  0  0  0
M  END
>  <MODEL>
8

>  <REMARK>
 VINA RESULT:      -7.4      1.822      2.860
  Name = 
  3 active torsions:
  status: ('A' for Active; 'I' for Inactive)
    1  A    between atoms: C_6  and  N_7
    2  A    between atoms: C_16  and  C_27
    3  A    between atoms: C_27  and  C_32
                            x       y       z     vdW  Elec       q    Type
                         _______ _______ _______ _____ _____    ______ ____

>  <TORSDO>
F 3

$$$$
=
 OpenBabel11052421333D

 32 37  0  0  1  0  0  0  0  0999 V2000
  185.4000  177.6720  146.0260 C   0  0  0  0  0  0  0  0  0  0  0  0
  188.6480  177.5910  146.8900 C   0  0  0  0  0  3  0  0  0  0  0  0
  191.5980  175.1060  143.4270 C   0  0  0  0  0  0  0  0  0  0  0  0
  195.6320  174.6100  146.0460 C   0  0  0  0  0  3  0  0  0  0  0  0
  196.1710  173.8800  145.0330 N   0  0  0  0  0  0  0  0  0  0  0  0
  189.7250  176.3210  144.2400 C   0  0  0  0  0  0  0  0  0  0  0  0
  191.6990  176.1180  145.5790 N   0  0  0  0  0  0  0  0  0  0  0  0
  186.2830  177.2150  146.8370 N   0  0  0  0  0  0  0  0  0  0  0  0
  189.9230  177.4510  146.5350 C   0  0  0  0  0  3  0  0  0  0  0  0
  194.3390  175.1210  145.9310 C   0  0  0  0  0  3  0  0  0  0  0  0
  192.2970  175.3740  144.6120 C   0  0  0  0  0  0  0  0  0  0  0  0
  193.6000  174.8760  144.7670 C   0  0  0  0  0  0  0  0  0  0  0  0
  193.4330  173.8680  142.5560 C   0  0  0  0  0  0  0  0  0  0  0  0
  185.8530  177.7800  144.3000 S   0  0  0  0  0  0  0  0  0  0  0  0
  187.4370  177.1410  144.8070 C   0  0  0  0  0  0  0  0  0  0  0  0
  184.0670  178.1190  146.5150 C   0  0  0  0  0  1  0  0  0  0  0  0
  190.4310  176.5940  145.4440 C   0  0  0  0  0  0  0  0  0  0  0  0
  188.3860  176.8560  143.9200 C   0  0  0  0  0  3  0  0  0  0  0  0
  187.5380  176.8240  146.2560 C   0  0  1  0  0  3  0  0  0  0  0  0
  195.4800  173.6250  143.8900 C   0  0  0  0  0  3  0  0  0  0  0  0
  194.1770  174.1130  143.7270 C   0  0  0  0  0  0  0  0  0  0  0  0
  190.3420  175.5950  143.2690 N   0  0  0  0  0  0  0  0  0  0  0  0
  192.1740  174.3720  142.4400 N   0  0  0  0  0  0  0  0  0  0  0  0
  193.9910  173.0500  141.4320 C   0  0  0  0  0  2  0  0  0  0  0  0
  194.8700  174.7740  139.8110 N   0  0  0  0  0  0  0  0  0  0  0  0
  193.0270  173.7670  139.1600 C   0  0  0  0  0  0  0  0  0  0  0  0
  193.4090  174.6950  138.2070 C   0  0  0  0  0  3  0  0  0  0  0  0
  194.5430  175.2900  138.6370 N   0  0  0  0  0  0  0  0  0  0  0  0
  191.8320  172.8820  139.0990 C   0  0  0  0  0  1  0  0  0  0  0  0
  193.9750  173.8320  140.1560 C   0  0  0  0  0  0  0  0  0  0  0  0
  196.0570  175.1580  140.5590 C   0  0  0  0  0  2  0  0  0  0  0  0
  195.8070  176.4660  141.2860 C   0  0  0  0  0  1  0  0  0  0  0  0
  1 16  1  0  0  0  0
  1  8  2  0  0  0  0
  3 11  1  0  0  0  0
  5  4  2  0  0  0  0
  6 17  2  0  0  0  0
  9  2  2  0  0  0  0
 10  4  1  0  0  0  0
 11 12  1  0  0  0  0
 11  7  2  0  0  0  0
 12 10  2  0  0  0  0
 13 21  1  0  0  0  0
 14 15  1  0  0  0  0
 14  1  1  0  0  0  0
 15 19  1  0  0  0  0
 17  7  1  0  0  0  0
 17  9  1  0  0  0  0
 18  6  1  0  0  0  0
 18 15  2  0  0  0  0
 19  8  1  0  0  0  0
 19  2  1  1  0  0  0
 20  5  1  0  0  0  0
 21 20  2  0  0  0  0
 21 12  1  0  0  0  0
 22  3  2  0  0  0  0
 22  6  1  0  0  0  0
 23 13  2  0  0  0  0
 23  3  1  0  0  0  0
 24 13  1  0  0  0  0
 25 30  1  0  0  0  0
 25 31  1  0  0  0  0
 26 30  2  0  0  0  0
 27 28  2  0  0  0  0
 27 26  1  0  0  0  0
 28 25  1  0  0  0  0
 29 26  1  0  0  0  0
 30 24  1  0  0  0  0
 31 32  1  0  0  0  0
M  END
>  <MODEL>
9

>  <REMARK>
 VINA RESULT:      -7.2      4.401      8.815
  Name = 
  3 active torsions:
  status: ('A' for Active; 'I' for Inactive)
    1  A    between atoms: C_6  and  N_7
    2  A    between atoms: C_16  and  C_27
    3  A    between atoms: C_27  and  C_32
                            x       y       z     vdW  Elec       q    Type
                         _______ _______ _______ _____ _____    ______ ____

>  <TORSDO>
F 3

$$$$
