=
 OpenBabel11052418503D

 34 39  0  0  1  0  0  0  0  0999 V2000
  185.8250  178.5340  144.8130 C   0  0  0  0  0  0  0  0  0  0  0  0
  186.8370  177.0840  146.5040 C   0  0  0  0  0  0  0  0  0  0  0  0
  187.7220  177.1690  144.2340 C   0  0  0  0  0  0  0  0  0  0  0  0
  189.7430  175.5770  143.8470 C   0  0  2  0  0  3  0  0  0  0  0  0
  184.9220  178.4650  147.0620 C   0  0  0  0  0  3  0  0  0  0  0  0
  185.8940  177.5250  147.4370 C   0  0  0  0  0  3  0  0  0  0  0  0
  188.7620  175.7140  145.9470 C   0  0  0  0  0  0  0  0  0  0  0  0
  186.7940  177.5940  145.1890 C   0  0  0  0  0  0  0  0  0  0  0  0
  190.4740  174.6610  144.7480 N   0  0  0  0  0  2  0  0  0  0  0  0
  184.8870  178.9690  145.7530 C   0  0  0  0  0  3  0  0  0  0  0  0
  186.7270  178.5820  142.6240 C   0  0  0  0  0  3  0  0  0  0  0  0
  185.8100  179.0090  143.5390 N   0  0  0  0  0  0  0  0  0  0  0  0
  187.8780  176.0970  146.8800 C   0  0  0  0  0  3  0  0  0  0  0  0
  189.8680  174.7480  146.0900 C   0  0  1  0  0  3  0  0  0  0  0  0
  188.6990  176.1990  144.6310 N   0  0  0  0  0  0  0  0  0  0  0  0
  187.6750  177.6680  142.9700 N   0  0  0  0  0  0  0  0  0  0  0  0
  190.9120  175.2500  147.0750 C   0  0  0  0  0  2  0  0  0  0  0  0
  192.3070  175.0550  146.5150 C   0  0  0  0  0  2  0  0  0  0  0  0
  193.0730  176.3580  146.6070 C   0  0  0  0  0  2  0  0  0  0  0  0
  193.2090  176.9330  145.2800 N   0  0  0  0  0  2  0  0  0  0  0  0
  193.4920  176.0910  143.1060 O   0  0  0  0  0  1  0  0  0  0  0  0
  193.8730  175.9400  144.4440 C   0  0  1  0  0  3  0  0  0  0  0  0
  195.2770  175.9830  144.5920 O   0  0  0  0  0  0  0  0  0  0  0  0
  196.2450  174.2030  145.8470 C   0  0  0  0  0  1  0  0  0  0  0  0
  195.7810  174.6770  144.4860 C   0  0  0  0  0  2  0  0  0  0  0  0
  189.1320  174.7850  142.7000 C   0  0  0  0  0  2  0  0  0  0  0  0
  189.3410  172.0110  138.7960 C   0  0  0  0  0  3  0  0  0  0  0  0
  188.2520  172.5840  139.3670 C   0  0  0  0  0  3  0  0  0  0  0  0
  190.3390  173.1980  141.2780 C   0  0  1  0  0  3  0  0  0  0  0  0
  188.2160  173.1130  140.7040 N   0  0  0  0  0  2  0  0  0  0  0  0
  191.1120  172.0230  140.7760 C   0  0  0  0  0  2  0  0  0  0  0  0
  189.0800  172.5370  141.6370 N   0  0  2  0  0  0  0  0  0  0  0  0
  189.7750  173.4070  142.6050 C   0  0  2  0  0  3  0  0  0  0  0  0
  190.7980  171.9320  139.2720 C   0  0  0  0  0  2  0  0  0  0  0  0
  1  8  1  0  0  0  0
  1 10  2  0  0  0  0
  2 13  1  0  0  0  0
  2  6  1  0  0  0  0
  3 15  1  0  0  0  0
  3  8  1  0  0  0  0
  4 26  1  6  0  0  0
  4 15  1  0  0  0  0
  4  9  1  0  0  0  0
  5  6  2  0  0  0  0
  7 14  1  0  0  0  0
  7 13  2  0  0  0  0
  8  2  2  0  0  0  0
  9 14  1  0  0  0  0
 10  5  1  0  0  0  0
 11 16  1  0  0  0  0
 11 12  2  0  0  0  0
 12  1  1  0  0  0  0
 14 17  1  1  0  0  0
 15  7  1  0  0  0  0
 16  3  2  0  0  0  0
 18 19  1  0  0  0  0
 18 17  1  0  0  0  0
 20 19  1  0  0  0  0
 22 21  1  6  0  0  0
 22 23  1  0  0  0  0
 22 20  1  0  0  0  0
 25 23  1  0  0  0  0
 25 24  1  0  0  0  0
 27 34  1  0  0  0  0
 27 28  2  0  0  0  0
 28 30  1  0  0  0  0
 29 31  1  1  0  0  0
 29 32  1  0  0  0  0
 29 33  1  0  0  0  0
 32 30  1  6  0  0  0
 32 33  1  0  0  0  0
 33 26  1  6  0  0  0
 34 31  1  0  0  0  0
M  END
>  <MODEL>
1

>  <REMARK>
 VINA RESULT:      -7.5      0.000      0.000
  Name = 
  9 active torsions:
  status: ('A' for Active; 'I' for Inactive)
    1  A    between atoms: C_3  and  C_13
    2  A    between atoms: C_3  and  C_17
    3  A    between atoms: C_5  and  C_26
    4  A    between atoms: C_13  and  N_33
    5  A    between atoms: C_14  and  O_20
    6  A    between atoms: C_17  and  C_29
    7  A    between atoms: O_20  and  C_34
    8  A    between atoms: C_26  and  C_28
    9  A    between atoms: N_33  and  C_34
                            x       y       z     vdW  Elec       q    Type
                         _______ _______ _______ _____ _____    ______ ____

>  <TORSDO>
F 9

$$$$
=
 OpenBabel11052418503D

 34 39  0  0  1  0  0  0  0  0999 V2000
  185.0110  178.0920  144.7030 C   0  0  0  0  0  0  0  0  0  0  0  0
  186.5200  177.1700  146.3930 C   0  0  0  0  0  0  0  0  0  0  0  0
  186.9920  176.9100  144.0160 C   0  0  0  0  0  0  0  0  0  0  0  0
  189.1660  175.5650  143.5300 C   0  0  2  0  0  3  0  0  0  0  0  0
  184.5150  178.3600  147.0610 C   0  0  0  0  0  3  0  0  0  0  0  0
  185.6820  177.6590  147.3990 C   0  0  0  0  0  3  0  0  0  0  0  0
  188.5340  175.9930  145.7230 C   0  0  0  0  0  0  0  0  0  0  0  0
  186.1750  177.3900  145.0430 C   0  0  0  0  0  0  0  0  0  0  0  0
  190.1820  174.9620  144.4180 N   0  0  0  0  0  2  0  0  0  0  0  0
  184.1790  178.5770  145.7160 C   0  0  0  0  0  3  0  0  0  0  0  0
  185.5180  177.8140  142.4070 C   0  0  0  0  0  3  0  0  0  0  0  0
  184.7050  178.2890  143.3930 N   0  0  0  0  0  0  0  0  0  0  0  0
  187.7630  176.4330  146.7270 C   0  0  0  0  0  3  0  0  0  0  0  0
  189.7980  175.2370  145.8150 C   0  0  1  0  0  3  0  0  0  0  0  0
  188.1730  176.1850  144.3800 N   0  0  0  0  0  0  0  0  0  0  0  0
  186.6530  177.1290  142.7170 N   0  0  0  0  0  0  0  0  0  0  0  0
  190.8880  176.0680  146.4750 C   0  0  0  0  0  2  0  0  0  0  0  0
  192.1470  175.2440  146.6590 C   0  0  0  0  0  2  0  0  0  0  0  0
  193.3550  176.0870  146.3150 C   0  0  0  0  0  2  0  0  0  0  0  0
  193.1570  176.7110  145.0180 N   0  0  0  0  0  2  0  0  0  0  0  0
  195.3370  175.8620  144.8180 O   0  0  0  0  0  1  0  0  0  0  0  0
  194.1650  176.1640  144.1170 C   0  0  1  0  0  3  0  0  0  0  0  0
  193.6810  175.0430  143.4060 O   0  0  0  0  0  0  0  0  0  0  0  0
  193.5430  174.9370  141.0290 C   0  0  0  0  0  1  0  0  0  0  0  0
  192.9430  175.4960  142.3010 C   0  0  0  0  0  2  0  0  0  0  0  0
  188.5200  174.4800  142.6810 C   0  0  0  0  0  2  0  0  0  0  0  0
  190.3540  171.3190  139.5780 C   0  0  0  0  0  3  0  0  0  0  0  0
  190.8480  171.7040  140.7820 C   0  0  0  0  0  3  0  0  0  0  0  0
  188.6030  173.5010  140.4370 C   0  0  1  0  0  3  0  0  0  0  0  0
  190.4330  172.8830  141.4930 N   0  0  0  0  0  2  0  0  0  0  0  0
  188.7050  173.3080  138.9600 C   0  0  0  0  0  2  0  0  0  0  0  0
  189.9670  173.9540  140.7280 N   0  0  2  0  0  0  0  0  0  0  0  0
  188.8020  174.7240  141.2040 C   0  0  2  0  0  3  0  0  0  0  0  0
  189.1690  171.8530  138.7630 C   0  0  0  0  0  2  0  0  0  0  0  0
  1  8  1  0  0  0  0
  1 10  2  0  0  0  0
  2 13  1  0  0  0  0
  2  6  1  0  0  0  0
  3 15  1  0  0  0  0
  3  8  1  0  0  0  0
  4 26  1  1  0  0  0
  4 15  1  0  0  0  0
  4  9  1  0  0  0  0
  5  6  2  0  0  0  0
  7 14  1  0  0  0  0
  7 13  2  0  0  0  0
  8  2  2  0  0  0  0
  9 14  1  0  0  0  0
 10  5  1  0  0  0  0
 11 16  1  0  0  0  0
 11 12  2  0  0  0  0
 12  1  1  0  0  0  0
 14 17  1  6  0  0  0
 15  7  1  0  0  0  0
 16  3  2  0  0  0  0
 17 18  1  0  0  0  0
 19 18  1  0  0  0  0
 20 19  1  0  0  0  0
 22 21  1  1  0  0  0
 22 20  1  0  0  0  0
 23 22  1  0  0  0  0
 24 25  1  0  0  0  0
 25 23  1  0  0  0  0
 27 28  2  0  0  0  0
 28 30  1  0  0  0  0
 29 31  1  6  0  0  0
 29 32  1  0  0  0  0
 29 33  1  0  0  0  0
 32 33  1  0  0  0  0
 32 30  1  1  0  0  0
 33 26  1  1  0  0  0
 34 31  1  0  0  0  0
 34 27  1  0  0  0  0
M  END
>  <MODEL>
2

>  <REMARK>
 VINA RESULT:      -7.1      1.134      1.806
  Name = 
  9 active torsions:
  status: ('A' for Active; 'I' for Inactive)
    1  A    between atoms: C_3  and  C_13
    2  A    between atoms: C_3  and  C_17
    3  A    between atoms: C_5  and  C_26
    4  A    between atoms: C_13  and  N_33
    5  A    between atoms: C_14  and  O_20
    6  A    between atoms: C_17  and  C_29
    7  A    between atoms: O_20  and  C_34
    8  A    between atoms: C_26  and  C_28
    9  A    between atoms: N_33  and  C_34
                            x       y       z     vdW  Elec       q    Type
                         _______ _______ _______ _____ _____    ______ ____

>  <TORSDO>
F 9

$$$$
=
 OpenBabel11052418503D

 34 39  0  0  1  0  0  0  0  0999 V2000
  190.0970  174.6930  145.6490 C   0  0  0  0  0  0  0  0  0  0  0  0
  189.4050  176.8240  144.6670 C   0  0  0  0  0  0  0  0  0  0  0  0
  189.0730  174.7260  143.4700 C   0  0  0  0  0  0  0  0  0  0  0  0
  187.9860  175.0280  141.1260 C   0  0  2  0  0  3  0  0  0  0  0  0
  190.4430  176.7650  146.8580 C   0  0  0  0  0  3  0  0  0  0  0  0
  189.8690  177.4910  145.8050 C   0  0  0  0  0  3  0  0  0  0  0  0
  188.3520  176.8790  142.4810 C   0  0  0  0  0  0  0  0  0  0  0  0
  189.5250  175.4200  144.5970 C   0  0  0  0  0  0  0  0  0  0  0  0
  187.5020  176.2220  140.4010 N   0  0  0  0  0  2  0  0  0  0  0  0
  190.5580  175.3690  146.7820 C   0  0  0  0  0  3  0  0  0  0  0  0
  189.7490  172.6830  144.4460 C   0  0  0  0  0  3  0  0  0  0  0  0
  190.1980  173.3410  145.5530 N   0  0  0  0  0  0  0  0  0  0  0  0
  188.7870  177.5700  143.5440 C   0  0  0  0  0  3  0  0  0  0  0  0
  187.7180  177.4040  141.2560 C   0  0  1  0  0  3  0  0  0  0  0  0
  188.5010  175.4850  142.3980 N   0  0  0  0  0  0  0  0  0  0  0  0
  189.1910  173.3730  143.4130 N   0  0  0  0  0  0  0  0  0  0  0  0
  186.3740  178.0450  141.5660 C   0  0  0  0  0  2  0  0  0  0  0  0
  185.6220  177.2290  142.5990 C   0  0  0  0  0  2  0  0  0  0  0  0
  184.6260  178.1170  143.3140 C   0  0  0  0  0  2  0  0  0  0  0  0
  185.3020  179.3060  143.8020 N   0  0  0  0  0  2  0  0  0  0  0  0
  183.9540  178.7890  145.6540 O   0  0  0  0  0  1  0  0  0  0  0  0
  185.1950  179.2980  145.2570 C   0  0  1  0  0  3  0  0  0  0  0  0
  186.2620  178.5920  145.8580 O   0  0  0  0  0  0  0  0  0  0  0  0
  186.5800  176.6460  147.1980 C   0  0  0  0  0  1  0  0  0  0  0  0
  185.7710  177.9070  146.9810 C   0  0  0  0  0  2  0  0  0  0  0  0
  189.0940  174.3590  140.3260 C   0  0  0  0  0  2  0  0  0  0  0  0
  189.8340  172.5900  135.9330 C   0  0  0  0  0  3  0  0  0  0  0  0
  189.2900  173.7830  136.2810 C   0  0  0  0  0  3  0  0  0  0  0  0
  189.5830  172.4690  138.8460 C   0  0  1  0  0  3  0  0  0  0  0  0
  188.7950  174.1000  137.5940 N   0  0  0  0  0  2  0  0  0  0  0  0
  189.5530  171.1500  138.1470 C   0  0  0  0  0  2  0  0  0  0  0  0
  188.3190  173.0380  138.3660 N   0  0  2  0  0  0  0  0  0  0  0  0
  188.6280  173.0030  139.8080 C   0  0  2  0  0  3  0  0  0  0  0  0
  190.2400  171.3840  136.7900 C   0  0  0  0  0  2  0  0  0  0  0  0
  1 10  2  0  0  0  0
  2  6  1  0  0  0  0
  3  8  1  0  0  0  0
  4 26  1  6  0  0  0
  4 15  1  0  0  0  0
  6  5  2  0  0  0  0
  7 13  2  0  0  0  0
  8  2  2  0  0  0  0
  8  1  1  0  0  0  0
  9  4  1  0  0  0  0
  9 14  1  0  0  0  0
 10  5  1  0  0  0  0
 11 12  2  0  0  0  0
 12  1  1  0  0  0  0
 13  2  1  0  0  0  0
 14 17  1  1  0  0  0
 14  7  1  0  0  0  0
 15  7  1  0  0  0  0
 15  3  1  0  0  0  0
 16  3  2  0  0  0  0
 16 11  1  0  0  0  0
 17 18  1  0  0  0  0
 18 19  1  0  0  0  0
 19 20  1  0  0  0  0
 20 22  1  0  0  0  0
 22 21  1  6  0  0  0
 22 23  1  0  0  0  0
 23 25  1  0  0  0  0
 25 24  1  0  0  0  0
 27 28  2  0  0  0  0
 27 34  1  0  0  0  0
 28 30  1  0  0  0  0
 29 31  1  1  0  0  0
 29 33  1  0  0  0  0
 32 30  1  6  0  0  0
 32 29  1  0  0  0  0
 32 33  1  0  0  0  0
 33 26  1  6  0  0  0
 34 31  1  0  0  0  0
M  END
>  <MODEL>
3

>  <REMARK>
 VINA RESULT:      -6.9      3.114      6.080
  Name = 
  9 active torsions:
  status: ('A' for Active; 'I' for Inactive)
    1  A    between atoms: C_3  and  C_13
    2  A    between atoms: C_3  and  C_17
    3  A    between atoms: C_5  and  C_26
    4  A    between atoms: C_13  and  N_33
    5  A    between atoms: C_14  and  O_20
    6  A    between atoms: C_17  and  C_29
    7  A    between atoms: O_20  and  C_34
    8  A    between atoms: C_26  and  C_28
    9  A    between atoms: N_33  and  C_34
                            x       y       z     vdW  Elec       q    Type
                         _______ _______ _______ _____ _____    ______ ____

>  <TORSDO>
F 9

$$$$
=
 OpenBabel11052418503D

 34 39  0  0  1  0  0  0  0  0999 V2000
  190.4480  173.4720  140.6180 C   0  0  0  0  0  0  0  0  0  0  0  0
  192.0500  174.6810  142.0180 C   0  0  0  0  0  0  0  0  0  0  0  0
  189.7580  174.3130  142.7660 C   0  0  0  0  0  0  0  0  0  0  0  0
  189.2480  175.3470  145.0980 C   0  0  2  0  0  3  0  0  0  0  0  0
  192.7190  173.8290  139.8480 C   0  0  0  0  0  3  0  0  0  0  0  0
  193.0270  174.5120  141.0340 C   0  0  0  0  0  3  0  0  0  0  0  0
  191.3820  175.5180  144.1960 C   0  0  0  0  0  0  0  0  0  0  0  0
  190.7580  174.1570  141.8010 C   0  0  0  0  0  0  0  0  0  0  0  0
  190.0910  176.0820  146.0650 N   0  0  0  0  0  2  0  0  0  0  0  0
  191.4330  173.3090  139.6400 C   0  0  0  0  0  3  0  0  0  0  0  0
  188.2360  173.1390  141.3930 C   0  0  0  0  0  3  0  0  0  0  0  0
  189.1950  172.9780  140.4370 N   0  0  0  0  0  0  0  0  0  0  0  0
  192.3550  175.3930  143.2830 C   0  0  0  0  0  3  0  0  0  0  0  0
  191.4520  176.1870  145.5100 C   0  0  1  0  0  3  0  0  0  0  0  0
  190.0870  175.0250  143.9650 N   0  0  0  0  0  0  0  0  0  0  0  0
  188.5170  173.8020  142.5490 N   0  0  0  0  0  0  0  0  0  0  0  0
  192.4240  175.4740  146.4370 C   0  0  0  0  0  2  0  0  0  0  0  0
  193.6900  176.2890  146.6070 C   0  0  0  0  0  2  0  0  0  0  0  0
  194.8830  175.4630  146.1770 C   0  0  0  0  0  2  0  0  0  0  0  0
  195.4640  176.0410  144.9770 N   0  0  0  0  0  2  0  0  0  0  0  0
  195.5620  174.0090  143.8050 O   0  0  0  0  0  1  0  0  0  0  0  0
  196.3280  175.0270  144.3830 C   0  0  1  0  0  3  0  0  0  0  0  0
  197.2330  175.5860  143.4550 O   0  0  0  0  0  0  0  0  0  0  0  0
  196.2420  176.6240  141.5520 C   0  0  0  0  0  1  0  0  0  0  0  0
  196.7030  176.7970  142.9830 C   0  0  0  0  0  2  0  0  0  0  0  0
  188.0910  176.2300  144.6540 C   0  0  0  0  0  2  0  0  0  0  0  0
  184.2720  179.1280  144.6620 C   0  0  0  0  0  3  0  0  0  0  0  0
  185.2760  179.0570  143.7520 C   0  0  0  0  0  3  0  0  0  0  0  0
  186.1980  177.2550  145.8230 C   0  0  1  0  0  3  0  0  0  0  0  0
  186.5410  178.4140  143.9830 N   0  0  0  0  0  2  0  0  0  0  0  0
  185.3470  177.9880  146.8080 C   0  0  0  0  0  2  0  0  0  0  0  0
  186.9980  178.3680  145.3020 N   0  0  2  0  0  0  0  0  0  0  0  0
  187.6500  177.1400  145.7940 C   0  0  2  0  0  3  0  0  0  0  0  0
  184.1020  178.4400  146.0230 C   0  0  0  0  0  2  0  0  0  0  0  0
  1  8  1  0  0  0  0
  2 13  1  0  0  0  0
  3 15  1  0  0  0  0
  4 26  1  6  0  0  0
  4  9  1  0  0  0  0
  5  6  1  0  0  0  0
  6  2  2  0  0  0  0
  7 14  1  0  0  0  0
  8  2  1  0  0  0  0
  8  3  2  0  0  0  0
 10  5  2  0  0  0  0
 10  1  1  0  0  0  0
 11 16  2  0  0  0  0
 12  1  2  0  0  0  0
 12 11  1  0  0  0  0
 13  7  2  0  0  0  0
 14  9  1  0  0  0  0
 14 17  1  1  0  0  0
 15  7  1  0  0  0  0
 15  4  1  0  0  0  0
 16  3  1  0  0  0  0
 17 18  1  0  0  0  0
 19 18  1  0  0  0  0
 20 19  1  0  0  0  0
 22 21  1  6  0  0  0
 22 20  1  0  0  0  0
 23 22  1  0  0  0  0
 24 25  1  0  0  0  0
 25 23  1  0  0  0  0
 27 34  1  0  0  0  0
 28 30  1  0  0  0  0
 28 27  2  0  0  0  0
 29 31  1  1  0  0  0
 32 30  1  6  0  0  0
 32 33  1  0  0  0  0
 32 29  1  0  0  0  0
 33 26  1  6  0  0  0
 33 29  1  0  0  0  0
 34 31  1  0  0  0  0
M  END
>  <MODEL>
4

>  <REMARK>
 VINA RESULT:      -6.9      1.752      6.312
  Name = 
  9 active torsions:
  status: ('A' for Active; 'I' for Inactive)
    1  A    between atoms: C_3  and  C_13
    2  A    between atoms: C_3  and  C_17
    3  A    between atoms: C_5  and  C_26
    4  A    between atoms: C_13  and  N_33
    5  A    between atoms: C_14  and  O_20
    6  A    between atoms: C_17  and  C_29
    7  A    between atoms: O_20  and  C_34
    8  A    between atoms: C_26  and  C_28
    9  A    between atoms: N_33  and  C_34
                            x       y       z     vdW  Elec       q    Type
                         _______ _______ _______ _____ _____    ______ ____

>  <TORSDO>
F 9

$$$$
=
 OpenBabel11052418503D

 34 39  0  0  1  0  0  0  0  0999 V2000
  185.4070  178.3830  145.6150 C   0  0  0  0  0  0  0  0  0  0  0  0
  185.6430  177.3630  143.4030 C   0  0  0  0  0  0  0  0  0  0  0  0
  187.2830  176.9440  145.1580 C   0  0  0  0  0  0  0  0  0  0  0  0
  189.2320  175.3910  144.4090 C   0  0  2  0  0  3  0  0  0  0  0  0
  183.7660  178.8210  143.8850 C   0  0  0  0  0  3  0  0  0  0  0  0
  184.4680  177.9990  142.9920 C   0  0  0  0  0  3  0  0  0  0  0  0
  187.5150  175.8930  142.9270 C   0  0  0  0  0  0  0  0  0  0  0  0
  186.1080  177.5630  144.7200 C   0  0  0  0  0  0  0  0  0  0  0  0
  189.5120  174.6910  143.1380 N   0  0  0  0  0  2  0  0  0  0  0  0
  184.2330  179.0130  145.1940 C   0  0  0  0  0  3  0  0  0  0  0  0
  187.0260  177.9390  147.2850 C   0  0  0  0  0  3  0  0  0  0  0  0
  185.8800  178.5550  146.8770 N   0  0  0  0  0  0  0  0  0  0  0  0
  186.3980  176.4830  142.4780 C   0  0  0  0  0  3  0  0  0  0  0  0
  188.4230  174.9920  142.1910 C   0  0  1  0  0  3  0  0  0  0  0  0
  187.9940  176.1180  144.2280 N   0  0  0  0  0  0  0  0  0  0  0  0
  187.7220  177.1400  146.4300 N   0  0  0  0  0  0  0  0  0  0  0  0
  187.7220  173.6970  141.8120 C   0  0  0  0  0  2  0  0  0  0  0  0
  188.4250  173.0350  140.6430 C   0  0  0  0  0  2  0  0  0  0  0  0
  188.5230  174.0150  139.4940 C   0  0  0  0  0  2  0  0  0  0  0  0
  188.1910  173.3390  138.2520 N   0  0  0  0  0  2  0  0  0  0  0  0
  190.4860  173.7880  138.0330 O   0  0  0  0  0  1  0  0  0  0  0  0
  189.2980  173.5620  137.3290 C   0  0  1  0  0  3  0  0  0  0  0  0
  189.4360  172.5000  136.4070 O   0  0  0  0  0  0  0  0  0  0  0  0
  189.7890  170.2790  137.1950 C   0  0  0  0  0  1  0  0  0  0  0  0
  190.4200  171.6180  136.8810 C   0  0  0  0  0  2  0  0  0  0  0  0
  190.3630  176.3600  144.7200 C   0  0  0  0  0  2  0  0  0  0  0  0
  195.1370  176.4200  144.2870 C   0  0  0  0  0  3  0  0  0  0  0  0
  194.2120  176.0300  143.3740 C   0  0  0  0  0  3  0  0  0  0  0  0
  192.5910  176.5010  145.7280 C   0  0  1  0  0  3  0  0  0  0  0  0
  192.8410  175.7220  143.6840 N   0  0  0  0  0  2  0  0  0  0  0  0
  193.7980  176.2710  146.5770 C   0  0  0  0  0  2  0  0  0  0  0  0
  192.5730  175.2460  144.9690 N   0  0  2  0  0  0  0  0  0  0  0  0
  191.3640  175.7170  145.6720 C   0  0  2  0  0  3  0  0  0  0  0  0
  194.9860  176.8130  145.7620 C   0  0  0  0  0  2  0  0  0  0  0  0
  1 12  1  0  0  0  0
  2  8  1  0  0  0  0
  3 16  2  0  0  0  0
  4 26  1  6  0  0  0
  5 10  2  0  0  0  0
  6  2  2  0  0  0  0
  6  5  1  0  0  0  0
  7 15  1  0  0  0  0
  8  3  1  0  0  0  0
  8  1  2  0  0  0  0
  9  4  1  0  0  0  0
 10  1  1  0  0  0  0
 12 11  2  0  0  0  0
 13  7  2  0  0  0  0
 13  2  1  0  0  0  0
 14 17  1  1  0  0  0
 14  7  1  0  0  0  0
 14  9  1  0  0  0  0
 15  4  1  0  0  0  0
 15  3  1  0  0  0  0
 16 11  1  0  0  0  0
 18 17  1  0  0  0  0
 19 18  1  0  0  0  0
 20 19  1  0  0  0  0
 22 21  1  1  0  0  0
 22 20  1  0  0  0  0
 23 25  1  0  0  0  0
 23 22  1  0  0  0  0
 25 24  1  0  0  0  0
 27 34  1  0  0  0  0
 28 30  1  0  0  0  0
 28 27  2  0  0  0  0
 29 31  1  1  0  0  0
 32 30  1  6  0  0  0
 32 33  1  0  0  0  0
 32 29  1  0  0  0  0
 33 26  1  6  0  0  0
 33 29  1  0  0  0  0
 34 31  1  0  0  0  0
M  END
>  <MODEL>
5

>  <REMARK>
 VINA RESULT:      -6.7      2.530      6.143
  Name = 
  9 active torsions:
  status: ('A' for Active; 'I' for Inactive)
    1  A    between atoms: C_3  and  C_13
    2  A    between atoms: C_3  and  C_17
    3  A    between atoms: C_5  and  C_26
    4  A    between atoms: C_13  and  N_33
    5  A    between atoms: C_14  and  O_20
    6  A    between atoms: C_17  and  C_29
    7  A    between atoms: O_20  and  C_34
    8  A    between atoms: C_26  and  C_28
    9  A    between atoms: N_33  and  C_34
                            x       y       z     vdW  Elec       q    Type
                         _______ _______ _______ _____ _____    ______ ____

>  <TORSDO>
F 9

$$$$
=
 OpenBabel11052418503D

 34 39  0  0  1  0  0  0  0  0999 V2000
  186.6850  177.1490  147.0530 C   0  0  0  0  0  0  0  0  0  0  0  0
  185.7150  178.3180  145.1350 C   0  0  0  0  0  0  0  0  0  0  0  0
  187.6010  176.7980  144.8540 C   0  0  0  0  0  0  0  0  0  0  0  0
  188.4310  176.6180  142.3940 C   0  0  2  0  0  3  0  0  0  0  0  0
  184.8140  178.6590  147.3610 C   0  0  0  0  0  3  0  0  0  0  0  0
  184.7920  178.9330  145.9850 C   0  0  0  0  0  3  0  0  0  0  0  0
  186.6090  177.9630  142.9060 C   0  0  0  0  0  0  0  0  0  0  0  0
  186.6630  177.4250  145.6790 C   0  0  0  0  0  0  0  0  0  0  0  0
  187.9570  177.2330  141.1380 N   0  0  0  0  0  2  0  0  0  0  0  0
  185.7580  177.7690  147.8940 C   0  0  0  0  0  3  0  0  0  0  0  0
  188.5140  175.6800  146.7240 C   0  0  0  0  0  3  0  0  0  0  0  0
  187.6090  176.2840  147.5480 N   0  0  0  0  0  0  0  0  0  0  0  0
  185.7060  178.5860  143.6760 C   0  0  0  0  0  3  0  0  0  0  0  0
  186.7910  178.0810  141.4460 C   0  0  1  0  0  3  0  0  0  0  0  0
  187.5720  177.1000  143.4530 N   0  0  0  0  0  0  0  0  0  0  0  0
  188.5080  175.9370  145.3870 N   0  0  0  0  0  0  0  0  0  0  0  0
  185.5780  177.5510  140.6980 C   0  0  0  0  0  2  0  0  0  0  0  0
  184.5000  178.6130  140.6150 C   0  0  0  0  0  2  0  0  0  0  0  0
  183.1450  177.9470  140.5010 C   0  0  0  0  0  2  0  0  0  0  0  0
  182.1940  178.6370  141.3550 N   0  0  0  0  0  2  0  0  0  0  0  0
  180.0340  178.0270  142.0470 O   0  0  0  0  0  1  0  0  0  0  0  0
  180.8580  178.2260  140.9340 C   0  0  1  0  0  3  0  0  0  0  0  0
  180.2890  179.1440  140.0240 O   0  0  0  0  0  0  0  0  0  0  0  0
  179.5660  181.4000  139.7650 C   0  0  0  0  0  1  0  0  0  0  0  0
  179.8620  180.2760  140.7350 C   0  0  0  0  0  2  0  0  0  0  0  0
  189.8690  177.0400  142.6590 C   0  0  0  0  0  2  0  0  0  0  0  0
  193.3250  175.5470  145.6270 C   0  0  0  0  0  3  0  0  0  0  0  0
  193.1150  176.7940  145.1370 C   0  0  0  0  0  3  0  0  0  0  0  0
  191.1560  175.2270  143.6900 C   0  0  1  0  0  3  0  0  0  0  0  0
  192.2790  177.0940  144.0060 N   0  0  0  0  0  2  0  0  0  0  0  0
  191.9950  174.0130  143.9140 C   0  0  0  0  0  2  0  0  0  0  0  0
  192.1400  176.0970  143.0370 N   0  0  2  0  0  0  0  0  0  0  0  0
  190.8170  175.8690  142.4260 C   0  0  2  0  0  3  0  0  0  0  0  0
  192.6480  174.2110  145.2940 C   0  0  0  0  0  2  0  0  0  0  0  0
  1 12  1  0  0  0  0
  1 10  2  0  0  0  0
  2  8  2  0  0  0  0
  2  6  1  0  0  0  0
  3 16  2  0  0  0  0
  3  8  1  0  0  0  0
  4 26  1  1  0  0  0
  4 15  1  0  0  0  0
  5 10  1  0  0  0  0
  6  5  2  0  0  0  0
  7 15  1  0  0  0  0
  7 13  2  0  0  0  0
  8  1  1  0  0  0  0
  9 14  1  0  0  0  0
  9  4  1  0  0  0  0
 11 12  2  0  0  0  0
 13  2  1  0  0  0  0
 14 17  1  6  0  0  0
 14  7  1  0  0  0  0
 15  3  1  0  0  0  0
 16 11  1  0  0  0  0
 18 17  1  0  0  0  0
 19 18  1  0  0  0  0
 19 20  1  0  0  0  0
 22 20  1  0  0  0  0
 22 21  1  1  0  0  0
 23 25  1  0  0  0  0
 23 22  1  0  0  0  0
 24 25  1  0  0  0  0
 28 27  2  0  0  0  0
 29 31  1  6  0  0  0
 30 28  1  0  0  0  0
 31 34  1  0  0  0  0
 32 29  1  0  0  0  0
 32 30  1  1  0  0  0
 33 26  1  1  0  0  0
 33 32  1  0  0  0  0
 33 29  1  0  0  0  0
 34 27  1  0  0  0  0
M  END
>  <MODEL>
6

>  <REMARK>
 VINA RESULT:      -6.7      4.347      8.156
  Name = 
  9 active torsions:
  status: ('A' for Active; 'I' for Inactive)
    1  A    between atoms: C_3  and  C_13
    2  A    between atoms: C_3  and  C_17
    3  A    between atoms: C_5  and  C_26
    4  A    between atoms: C_13  and  N_33
    5  A    between atoms: C_14  and  O_20
    6  A    between atoms: C_17  and  C_29
    7  A    between atoms: O_20  and  C_34
    8  A    between atoms: C_26  and  C_28
    9  A    between atoms: N_33  and  C_34
                            x       y       z     vdW  Elec       q    Type
                         _______ _______ _______ _____ _____    ______ ____

>  <TORSDO>
F 9

$$$$
=
 OpenBabel11052418503D

 34 39  0  0  1  0  0  0  0  0999 V2000
  193.6780  173.9960  145.0540 C   0  0  0  0  0  0  0  0  0  0  0  0
  192.6060  176.1440  145.5240 C   0  0  0  0  0  0  0  0  0  0  0  0
  191.4290  174.3990  144.2930 C   0  0  0  0  0  0  0  0  0  0  0  0
  189.0340  175.0890  143.5480 C   0  0  2  0  0  3  0  0  0  0  0  0
  194.8720  175.7160  146.2760 C   0  0  0  0  0  3  0  0  0  0  0  0
  193.7630  176.5700  146.1820 C   0  0  0  0  0  3  0  0  0  0  0  0
  190.3330  176.5650  144.7850 C   0  0  0  0  0  0  0  0  0  0  0  0
  192.5720  174.8520  144.9600 C   0  0  0  0  0  0  0  0  0  0  0  0
  188.2430  176.3200  143.7580 N   0  0  0  0  0  2  0  0  0  0  0  0
  194.8300  174.4320  145.7140 C   0  0  0  0  0  3  0  0  0  0  0  0
  192.4890  172.3340  143.8580 C   0  0  0  0  0  3  0  0  0  0  0  0
  193.6150  172.7560  144.5020 N   0  0  0  0  0  0  0  0  0  0  0  0
  191.4190  177.0270  145.4190 C   0  0  0  0  0  3  0  0  0  0  0  0
  189.0520  177.2620  144.5530 C   0  0  1  0  0  3  0  0  0  0  0  0
  190.3110  175.2900  144.1960 N   0  0  0  0  0  0  0  0  0  0  0  0
  191.4050  173.1510  143.7550 N   0  0  0  0  0  0  0  0  0  0  0  0
  188.3380  177.5460  145.8650 C   0  0  0  0  0  2  0  0  0  0  0  0
  187.4630  176.3720  146.2580 C   0  0  0  0  0  2  0  0  0  0  0  0
  186.3590  176.8510  147.1760 C   0  0  0  0  0  2  0  0  0  0  0  0
  185.1190  176.9570  146.4260 N   0  0  0  0  0  2  0  0  0  0  0  0
  185.4350  179.0420  147.4590 O   0  0  0  0  0  1  0  0  0  0  0  0
  184.5250  178.2490  146.7520 C   0  0  1  0  0  3  0  0  0  0  0  0
  184.0440  178.9110  145.6010 O   0  0  0  0  0  0  0  0  0  0  0  0
  185.6420  179.4460  143.9160 C   0  0  0  0  0  1  0  0  0  0  0  0
  184.7070  178.3960  144.4760 C   0  0  0  0  0  2  0  0  0  0  0  0
  189.2370  174.8610  142.0570 C   0  0  0  0  0  2  0  0  0  0  0  0
  189.0800  173.0110  137.6370 C   0  0  0  0  0  3  0  0  0  0  0  0
  188.4370  174.1050  138.1180 C   0  0  0  0  0  3  0  0  0  0  0  0
  189.6550  173.0110  140.5070 C   0  0  1  0  0  3  0  0  0  0  0  0
  188.2650  174.4000  139.5140 N   0  0  0  0  0  2  0  0  0  0  0  0
  189.6850  171.6700  139.8490 C   0  0  0  0  0  2  0  0  0  0  0  0
  188.2240  173.3150  140.3930 N   0  0  2  0  0  0  0  0  0  0  0  0
  188.9130  173.4170  141.6930 C   0  0  2  0  0  3  0  0  0  0  0  0
  189.9230  171.9480  138.3540 C   0  0  0  0  0  2  0  0  0  0  0  0
  1 10  2  0  0  0  0
  2  6  1  0  0  0  0
  3  8  1  0  0  0  0
  4 26  1  6  0  0  0
  4  9  1  0  0  0  0
  4 15  1  0  0  0  0
  6  5  2  0  0  0  0
  7 13  2  0  0  0  0
  8  1  1  0  0  0  0
  8  2  2  0  0  0  0
  9 14  1  0  0  0  0
 10  5  1  0  0  0  0
 11 12  2  0  0  0  0
 12  1  1  0  0  0  0
 13  2  1  0  0  0  0
 14  7  1  0  0  0  0
 14 17  1  1  0  0  0
 15  3  1  0  0  0  0
 15  7  1  0  0  0  0
 16 11  1  0  0  0  0
 16  3  2  0  0  0  0
 17 18  1  0  0  0  0
 18 19  1  0  0  0  0
 20 22  1  0  0  0  0
 20 19  1  0  0  0  0
 22 21  1  6  0  0  0
 23 22  1  0  0  0  0
 24 25  1  0  0  0  0
 25 23  1  0  0  0  0
 27 28  2  0  0  0  0
 27 34  1  0  0  0  0
 28 30  1  0  0  0  0
 29 31  1  1  0  0  0
 29 33  1  0  0  0  0
 32 30  1  6  0  0  0
 32 29  1  0  0  0  0
 32 33  1  0  0  0  0
 33 26  1  6  0  0  0
 34 31  1  0  0  0  0
M  END
>  <MODEL>
7

>  <REMARK>
 VINA RESULT:      -6.7      2.918      6.643
  Name = 
  9 active torsions:
  status: ('A' for Active; 'I' for Inactive)
    1  A    between atoms: C_3  and  C_13
    2  A    between atoms: C_3  and  C_17
    3  A    between atoms: C_5  and  C_26
    4  A    between atoms: C_13  and  N_33
    5  A    between atoms: C_14  and  O_20
    6  A    between atoms: C_17  and  C_29
    7  A    between atoms: O_20  and  C_34
    8  A    between atoms: C_26  and  C_28
    9  A    between atoms: N_33  and  C_34
                            x       y       z     vdW  Elec       q    Type
                         _______ _______ _______ _____ _____    ______ ____

>  <TORSDO>
F 9

$$$$
=
 OpenBabel11052418503D

 34 39  0  0  1  0  0  0  0  0999 V2000
  192.0030  174.7350  144.7720 C   0  0  0  0  0  0  0  0  0  0  0  0
  191.0830  176.8150  143.8700 C   0  0  0  0  0  0  0  0  0  0  0  0
  189.8180  174.7330  143.7610 C   0  0  0  0  0  0  0  0  0  0  0  0
  187.5070  174.9830  142.5900 C   0  0  2  0  0  3  0  0  0  0  0  0
  193.2840  176.7900  144.8890 C   0  0  0  0  0  3  0  0  0  0  0  0
  192.2470  177.4870  144.2510 C   0  0  0  0  0  3  0  0  0  0  0  0
  188.8740  176.8400  142.8650 C   0  0  0  0  0  0  0  0  0  0  0  0
  190.9690  175.4330  144.1340 C   0  0  0  0  0  0  0  0  0  0  0  0
  186.8060  176.1490  142.0130 N   0  0  0  0  0  2  0  0  0  0  0  0
  193.1630  175.4170  145.1490 C   0  0  0  0  0  3  0  0  0  0  0  0
  190.7300  172.7420  144.6440 C   0  0  0  0  0  3  0  0  0  0  0  0
  191.8640  173.4040  145.0140 N   0  0  0  0  0  0  0  0  0  0  0  0
  189.9710  177.5330  143.2020 C   0  0  0  0  0  3  0  0  0  0  0  0
  187.6580  177.3390  142.1920 C   0  0  1  0  0  3  0  0  0  0  0  0
  188.7740  175.4600  143.0990 N   0  0  0  0  0  0  0  0  0  0  0  0
  189.7160  173.4030  144.0210 N   0  0  0  0  0  0  0  0  0  0  0  0
  186.9250  178.3490  143.0600 C   0  0  0  0  0  2  0  0  0  0  0  0
  185.4420  178.0390  143.0980 C   0  0  0  0  0  2  0  0  0  0  0  0
  184.8300  178.6540  144.3380 C   0  0  0  0  0  2  0  0  0  0  0  0
  185.8870  179.0500  145.2530 N   0  0  0  0  0  2  0  0  0  0  0  0
  184.4010  177.7350  146.5080 O   0  0  0  0  0  1  0  0  0  0  0  0
  185.4980  178.5990  146.5840 C   0  0  1  0  0  3  0  0  0  0  0  0
  186.5790  178.0070  147.2750 O   0  0  0  0  0  0  0  0  0  0  0  0
  188.4140  176.6540  146.5800 C   0  0  0  0  0  1  0  0  0  0  0  0
  186.9090  176.7980  146.6410 C   0  0  0  0  0  2  0  0  0  0  0  0
  187.7410  173.9390  141.5080 C   0  0  0  0  0  2  0  0  0  0  0  0
  190.3950  171.4990  138.3490 C   0  0  0  0  0  3  0  0  0  0  0  0
  190.4340  171.4440  139.7040 C   0  0  0  0  0  3  0  0  0  0  0  0
  188.5850  173.6230  139.2300 C   0  0  1  0  0  3  0  0  0  0  0  0
  189.8580  172.4330  140.5750 N   0  0  0  0  0  2  0  0  0  0  0  0
  189.2120  173.8330  137.8910 C   0  0  0  0  0  2  0  0  0  0  0  0
  189.7710  173.7380  140.0850 N   0  0  2  0  0  0  0  0  0  0  0  0
  188.5610  174.5320  140.3680 C   0  0  2  0  0  3  0  0  0  0  0  0
  189.6280  172.4330  137.4040 C   0  0  0  0  0  2  0  0  0  0  0  0
  1 12  1  0  0  0  0
  1 10  2  0  0  0  0
  2  8  2  0  0  0  0
  2  6  1  0  0  0  0
  3 16  2  0  0  0  0
  3  8  1  0  0  0  0
  4 26  1  6  0  0  0
  4 15  1  0  0  0  0
  5 10  1  0  0  0  0
  6  5  2  0  0  0  0
  7 15  1  0  0  0  0
  7 13  2  0  0  0  0
  8  1  1  0  0  0  0
  9 14  1  0  0  0  0
  9  4  1  0  0  0  0
 11 12  2  0  0  0  0
 13  2  1  0  0  0  0
 14  7  1  0  0  0  0
 14 17  1  1  0  0  0
 15  3  1  0  0  0  0
 16 11  1  0  0  0  0
 17 18  1  0  0  0  0
 18 19  1  0  0  0  0
 19 20  1  0  0  0  0
 20 22  1  0  0  0  0
 22 21  1  6  0  0  0
 22 23  1  0  0  0  0
 24 25  1  0  0  0  0
 25 23  1  0  0  0  0
 27 28  2  0  0  0  0
 28 30  1  0  0  0  0
 29 31  1  6  0  0  0
 29 32  1  0  0  0  0
 29 33  1  0  0  0  0
 32 33  1  0  0  0  0
 32 30  1  1  0  0  0
 33 26  1  1  0  0  0
 34 31  1  0  0  0  0
 34 27  1  0  0  0  0
M  END
>  <MODEL>
8

>  <REMARK>
 VINA RESULT:      -6.7      2.743      6.139
  Name = 
  9 active torsions:
  status: ('A' for Active; 'I' for Inactive)
    1  A    between atoms: C_3  and  C_13
    2  A    between atoms: C_3  and  C_17
    3  A    between atoms: C_5  and  C_26
    4  A    between atoms: C_13  and  N_33
    5  A    between atoms: C_14  and  O_20
    6  A    between atoms: C_17  and  C_29
    7  A    between atoms: O_20  and  C_34
    8  A    between atoms: C_26  and  C_28
    9  A    between atoms: N_33  and  C_34
                            x       y       z     vdW  Elec       q    Type
                         _______ _______ _______ _____ _____    ______ ____

>  <TORSDO>
F 9

$$$$
=
 OpenBabel11052418503D

 34 39  0  0  1  0  0  0  0  0999 V2000
  185.4120  178.3810  146.2610 C   0  0  0  0  0  0  0  0  0  0  0  0
  185.4900  178.1950  143.8230 C   0  0  0  0  0  0  0  0  0  0  0  0
  187.4000  177.5440  145.1910 C   0  0  0  0  0  0  0  0  0  0  0  0
  189.4360  176.7110  143.8020 C   0  0  2  0  0  3  0  0  0  0  0  0
  183.5000  179.0400  144.9240 C   0  0  0  0  0  3  0  0  0  0  0  0
  184.1870  178.6970  143.7500 C   0  0  0  0  0  3  0  0  0  0  0  0
  187.4760  177.3340  142.7250 C   0  0  0  0  0  0  0  0  0  0  0  0
  186.0970  178.0410  145.0870 C   0  0  0  0  0  0  0  0  0  0  0  0
  189.6400  176.5250  142.3500 N   0  0  0  0  0  2  0  0  0  0  0  0
  184.1100  178.8820  146.1770 C   0  0  0  0  0  3  0  0  0  0  0  0
  187.2940  177.7320  147.5440 C   0  0  0  0  0  3  0  0  0  0  0  0
  186.0230  178.2210  147.4650 N   0  0  0  0  0  0  0  0  0  0  0  0
  186.2320  177.8190  142.5960 C   0  0  0  0  0  3  0  0  0  0  0  0
  188.3970  176.9070  141.6540 C   0  0  1  0  0  3  0  0  0  0  0  0
  188.0910  177.2120  143.9810 N   0  0  0  0  0  0  0  0  0  0  0  0
  187.9760  177.3970  146.4140 N   0  0  0  0  0  0  0  0  0  0  0  0
  187.8520  175.6970  140.9120 C   0  0  0  0  0  2  0  0  0  0  0  0
  188.7570  174.4980  141.1140 C   0  0  0  0  0  2  0  0  0  0  0  0
  187.9660  173.3690  141.7410 C   0  0  0  0  0  2  0  0  0  0  0  0
  188.8790  172.3440  142.2150 N   0  0  0  0  0  2  0  0  0  0  0  0
  189.9270  173.0960  144.1770 O   0  0  0  0  0  1  0  0  0  0  0  0
  190.0370  173.0250  142.7840 C   0  0  1  0  0  3  0  0  0  0  0  0
  191.2500  172.4190  142.3890 O   0  0  0  0  0  0  0  0  0  0  0  0
  192.7590  170.6570  142.9360 C   0  0  0  0  0  1  0  0  0  0  0  0
  191.3260  171.1440  142.9720 C   0  0  0  0  0  2  0  0  0  0  0  0
  190.4420  177.7200  144.3350 C   0  0  0  0  0  2  0  0  0  0  0  0
  193.2250  174.2670  146.1570 C   0  0  0  0  0  3  0  0  0  0  0  0
  192.6000  175.2800  146.8090 C   0  0  0  0  0  3  0  0  0  0  0  0
  192.0860  175.9290  144.0340 C   0  0  1  0  0  3  0  0  0  0  0  0
  192.0700  176.4550  146.1720 N   0  0  0  0  0  2  0  0  0  0  0  0
  193.2970  175.1440  143.6510 C   0  0  0  0  0  2  0  0  0  0  0  0
  192.6860  176.8680  144.9890 N   0  0  2  0  0  0  0  0  0  0  0  0
  191.8500  177.3580  143.8770 C   0  0  2  0  0  3  0  0  0  0  0  0
  193.3730  173.9820  144.6570 C   0  0  0  0  0  2  0  0  0  0  0  0
  1 12  1  0  0  0  0
  2  8  1  0  0  0  0
  3 16  2  0  0  0  0
  4 15  1  0  0  0  0
  4 26  1  6  0  0  0
  5 10  2  0  0  0  0
  6  2  2  0  0  0  0
  6  5  1  0  0  0  0
  7 15  1  0  0  0  0
  8  3  1  0  0  0  0
  8  1  2  0  0  0  0
  9  4  1  0  0  0  0
 10  1  1  0  0  0  0
 12 11  2  0  0  0  0
 13  7  2  0  0  0  0
 13  2  1  0  0  0  0
 14 17  1  1  0  0  0
 14  9  1  0  0  0  0
 14  7  1  0  0  0  0
 15  3  1  0  0  0  0
 16 11  1  0  0  0  0
 17 18  1  0  0  0  0
 18 19  1  0  0  0  0
 19 20  1  0  0  0  0
 20 22  1  0  0  0  0
 22 21  1  1  0  0  0
 23 22  1  0  0  0  0
 23 25  1  0  0  0  0
 24 25  1  0  0  0  0
 27 28  2  0  0  0  0
 29 31  1  6  0  0  0
 29 32  1  0  0  0  0
 30 28  1  0  0  0  0
 31 34  1  0  0  0  0
 32 30  1  1  0  0  0
 33 29  1  0  0  0  0
 33 26  1  1  0  0  0
 33 32  1  0  0  0  0
 34 27  1  0  0  0  0
M  END
>  <MODEL>
9

>  <REMARK>
 VINA RESULT:      -6.6      2.227      5.115
  Name = 
  9 active torsions:
  status: ('A' for Active; 'I' for Inactive)
    1  A    between atoms: C_3  and  C_13
    2  A    between atoms: C_3  and  C_17
    3  A    between atoms: C_5  and  C_26
    4  A    between atoms: C_13  and  N_33
    5  A    between atoms: C_14  and  O_20
    6  A    between atoms: C_17  and  C_29
    7  A    between atoms: O_20  and  C_34
    8  A    between atoms: C_26  and  C_28
    9  A    between atoms: N_33  and  C_34
                            x       y       z     vdW  Elec       q    Type
                         _______ _______ _______ _____ _____    ______ ____

>  <TORSDO>
F 9

$$$$
