=
 OpenBabel11052420213D

 34 38  0  0  1  0  0  0  0  0999 V2000
  193.0970  173.5430  145.2820 C   0  0  2  0  0  3  0  0  0  0  0  0
  190.9820  174.4120  142.1260 C   0  0  0  0  0  2  0  0  0  0  0  0
  193.6670  174.6050  142.2750 S   0  0  0  0  0  0  0  0  0  0  0  0
  195.4970  173.4430  145.5990 C   0  0  0  0  0  3  0  0  0  0  0  0
  197.1950  174.6050  144.2940 C   0  0  0  0  0  3  0  0  0  0  0  0
  196.8780  173.8960  145.3750 C   0  0  0  0  0  3  0  0  0  0  0  0
  194.7340  174.8820  143.7290 C   0  0  1  0  0  3  0  0  0  0  0  0
  194.4910  173.8460  144.8150 C   0  0  0  0  0  0  0  0  0  0  0  0
  196.1840  174.8630  143.2160 C   0  0  0  0  0  2  0  0  0  0  0  0
  189.6290  174.1620  142.7750 C   0  0  2  0  0  3  0  0  0  0  0  0
  189.6820  172.8710  143.5790 C   0  0  0  0  0  2  0  0  0  0  0  0
  192.0880  174.5400  143.1730 C   0  0  2  0  0  3  0  0  0  0  0  0
  190.7130  173.0080  144.6890 C   0  0  0  0  0  2  0  0  0  0  0  0
  192.1030  173.3340  144.1290 C   0  0  2  0  0  3  0  0  0  0  0  0
  188.3660  175.1270  140.8430 O   0  0  0  0  0  0  0  0  0  0  0  0
  187.8430  173.0520  141.6600 O   0  0  0  0  0  1  0  0  0  0  0  0
  188.5680  174.0770  141.7310 C   0  0  0  0  0  0  0  0  0  0  0  0
  192.6310  174.5610  146.3330 C   0  0  0  0  0  2  0  0  0  0  0  0
  192.9860  175.8620  145.9670 O   0  0  0  0  0  0  0  0  0  0  0  0
  191.9240  176.6580  146.3980 C   0  0  0  0  0  2  0  0  0  0  0  0
  189.8360  177.8040  143.3900 C   0  0  0  0  0  2  0  0  0  0  0  0
  189.4530  176.6770  146.0750 C   0  0  0  0  0  2  0  0  0  0  0  0
  186.0160  177.2540  143.4870 C   0  0  2  0  0  0  0  0  0  0  0  0
  185.9170  175.8930  143.1760 O   0  0  0  0  0  1  0  0  0  0  0  0
  187.3740  177.7780  142.9870 C   0  0  0  0  0  2  0  0  0  0  0  0
  188.4660  177.8310  144.0630 C   0  0  1  0  0  3  0  0  0  0  0  0
  186.9770  176.7280  145.7940 C   0  0  0  0  0  2  0  0  0  0  0  0
  188.3190  176.6680  145.0560 C   0  0  2  0  0  3  0  0  0  0  0  0
  185.8670  177.4330  145.0020 C   0  0  0  0  0  2  0  0  0  0  0  0
  190.8070  176.6320  145.3700 C   0  0  1  0  0  3  0  0  0  0  0  0
  190.9430  177.8300  144.4390 C   0  0  0  0  0  2  0  0  0  0  0  0
  184.9250  178.0160  142.7950 C   0  0  0  0  0  0  0  0  0  0  0  0
  184.9530  178.1680  141.4130 O   0  0  0  0  0  0  0  0  0  0  0  0
  183.9660  178.5050  143.4500 O   0  0  0  0  0  1  0  0  0  0  0  0
  1 18  1  1  0  0  0
  2 10  1  0  0  0  0
  3 12  1  0  0  0  0
  3  7  1  0  0  0  0
  5  6  2  0  0  0  0
  6  4  1  0  0  0  0
  7  9  1  6  0  0  0
  7  8  1  0  0  0  0
  8  1  1  0  0  0  0
  8  4  2  0  0  0  0
  9  5  1  0  0  0  0
 10 17  1  6  0  0  0
 10 11  1  0  0  0  0
 11 13  1  0  0  0  0
 12  2  1  6  0  0  0
 12 14  1  0  0  0  0
 14 13  1  1  0  0  0
 14  1  1  0  0  0  0
 15 17  2  0  0  0  0
 16 17  1  0  0  0  0
 19 18  1  0  0  0  0
 19 20  1  0  0  0  0
 21 26  1  0  0  0  0
 21 31  1  0  0  0  0
 23 24  1  6  0  0  0
 23 29  1  0  0  0  0
 25 23  1  0  0  0  0
 26 25  1  6  0  0  0
 26 28  1  0  0  0  0
 28 27  1  1  0  0  0
 28 22  1  0  0  0  0
 29 27  1  0  0  0  0
 30 22  1  0  0  0  0
 30 20  1  1  0  0  0
 31 30  1  0  0  0  0
 32 34  1  0  0  0  0
 32 23  1  0  0  0  0
 33 32  2  0  0  0  0
M  END
>  <MODEL>
1

>  <REMARK>
 VINA RESULT:      -7.8      0.000      0.000
  Name = 
  6 active torsions:
  status: ('A' for Active; 'I' for Inactive)
    1  A    between atoms: C_1  and  C_9
    2  A    between atoms: C_7  and  C_11
    3  A    between atoms: O_8  and  C_9
    4  A    between atoms: O_8  and  C_18
    5  A    between atoms: C_18  and  C_30
    6  A    between atoms: C_23  and  C_25
                            x       y       z     vdW  Elec       q    Type
                         _______ _______ _______ _____ _____    ______ ____

>  <TORSDO>
F 6

$$$$
=
 OpenBabel11052420213D

 34 38  0  0  1  0  0  0  0  0999 V2000
  192.8290  173.9350  145.2780 C   0  0  2  0  0  3  0  0  0  0  0  0
  190.5740  174.9550  142.2670 C   0  0  0  0  0  2  0  0  0  0  0  0
  193.2530  175.2460  142.3460 S   0  0  0  0  0  0  0  0  0  0  0  0
  195.2400  173.9100  145.5110 C   0  0  0  0  0  3  0  0  0  0  0  0
  196.8460  175.2360  144.2480 C   0  0  0  0  0  3  0  0  0  0  0  0
  196.5940  174.4350  145.2800 C   0  0  0  0  0  3  0  0  0  0  0  0
  194.3580  175.4550  143.7830 C   0  0  1  0  0  3  0  0  0  0  0  0
  194.1930  174.3300  144.7930 C   0  0  0  0  0  0  0  0  0  0  0  0
  195.7890  175.5340  143.2260 C   0  0  0  0  0  2  0  0  0  0  0  0
  189.2550  174.6010  142.9360 C   0  0  2  0  0  3  0  0  0  0  0  0
  189.3850  173.2560  143.6360 C   0  0  0  0  0  2  0  0  0  0  0  0
  191.7090  175.0480  143.2860 C   0  0  2  0  0  3  0  0  0  0  0  0
  190.4470  173.3500  144.7210 C   0  0  0  0  0  2  0  0  0  0  0  0
  191.8040  173.7740  144.1440 C   0  0  2  0  0  3  0  0  0  0  0  0
  188.4570  174.3810  140.5750 O   0  0  0  0  0  0  0  0  0  0  0  0
  186.9660  174.6800  142.2880 O   0  0  0  0  0  1  0  0  0  0  0  0
  188.1630  174.5530  141.9220 C   0  0  0  0  0  0  0  0  0  0  0  0
  192.3600  174.8510  146.4190 C   0  0  0  0  0  2  0  0  0  0  0  0
  191.6500  175.9480  145.9260 O   0  0  0  0  0  0  0  0  0  0  0  0
  190.9190  176.4210  147.0160 C   0  0  0  0  0  2  0  0  0  0  0  0
  187.1510  176.4930  146.2920 C   0  0  0  0  0  2  0  0  0  0  0  0
  189.6780  177.3480  145.0630 C   0  0  0  0  0  2  0  0  0  0  0  0
  185.9160  178.3880  143.1640 C   0  0  2  0  0  0  0  0  0  0  0  0
  185.9680  179.7170  143.5980 O   0  0  0  0  0  1  0  0  0  0  0  0
  185.8560  177.4670  144.3960 C   0  0  0  0  0  2  0  0  0  0  0  0
  187.2110  176.8890  144.8190 C   0  0  1  0  0  3  0  0  0  0  0  0
  188.4640  178.2420  143.0790 C   0  0  0  0  0  2  0  0  0  0  0  0
  188.3440  177.8950  144.5660 C   0  0  2  0  0  3  0  0  0  0  0  0
  187.1490  178.0940  142.3020 C   0  0  0  0  0  2  0  0  0  0  0  0
  189.5880  176.9790  146.5420 C   0  0  1  0  0  3  0  0  0  0  0  0
  188.4960  175.9360  146.7480 C   0  0  0  0  0  2  0  0  0  0  0  0
  184.6800  178.1690  142.3420 C   0  0  0  0  0  0  0  0  0  0  0  0
  184.7900  177.7220  141.0300 O   0  0  0  0  0  0  0  0  0  0  0  0
  183.5360  178.3640  142.8340 O   0  0  0  0  0  1  0  0  0  0  0  0
  1 18  1  1  0  0  0
  2 10  1  0  0  0  0
  3 12  1  0  0  0  0
  3  7  1  0  0  0  0
  5  6  2  0  0  0  0
  6  4  1  0  0  0  0
  7  9  1  6  0  0  0
  7  8  1  0  0  0  0
  8  1  1  0  0  0  0
  8  4  2  0  0  0  0
  9  5  1  0  0  0  0
 10 17  1  6  0  0  0
 10 11  1  0  0  0  0
 11 13  1  0  0  0  0
 12  2  1  6  0  0  0
 12 14  1  0  0  0  0
 14 13  1  1  0  0  0
 14  1  1  0  0  0  0
 15 17  2  0  0  0  0
 17 16  1  0  0  0  0
 19 18  1  0  0  0  0
 19 20  1  0  0  0  0
 21 31  1  0  0  0  0
 22 30  1  0  0  0  0
 23 24  1  1  0  0  0
 23 25  1  0  0  0  0
 26 25  1  1  0  0  0
 26 21  1  0  0  0  0
 28 27  1  6  0  0  0
 28 26  1  0  0  0  0
 28 22  1  0  0  0  0
 29 27  1  0  0  0  0
 29 23  1  0  0  0  0
 30 31  1  0  0  0  0
 30 20  1  6  0  0  0
 32 34  1  0  0  0  0
 32 23  1  0  0  0  0
 33 32  2  0  0  0  0
M  END
>  <MODEL>
2

>  <REMARK>
 VINA RESULT:      -7.8      0.919      1.700
  Name = 
  6 active torsions:
  status: ('A' for Active; 'I' for Inactive)
    1  A    between atoms: C_1  and  C_9
    2  A    between atoms: C_7  and  C_11
    3  A    between atoms: O_8  and  C_9
    4  A    between atoms: O_8  and  C_18
    5  A    between atoms: C_18  and  C_30
    6  A    between atoms: C_23  and  C_25
                            x       y       z     vdW  Elec       q    Type
                         _______ _______ _______ _____ _____    ______ ____

>  <TORSDO>
F 6

$$$$
=
 OpenBabel11052420213D

 34 38  0  0  1  0  0  0  0  0999 V2000
  187.3930  177.3060  142.4240 C   0  0  2  0  0  3  0  0  0  0  0  0
  183.6750  178.3040  143.0290 C   0  0  0  0  0  2  0  0  0  0  0  0
  185.5900  178.2950  144.9270 S   0  0  0  0  0  0  0  0  0  0  0  0
  189.3170  177.4060  143.8940 C   0  0  0  0  0  3  0  0  0  0  0  0
  189.2990  177.4010  146.3290 C   0  0  0  0  0  3  0  0  0  0  0  0
  189.9900  177.2970  145.1970 C   0  0  0  0  0  3  0  0  0  0  0  0
  187.1170  177.3010  145.0330 C   0  0  1  0  0  3  0  0  0  0  0  0
  187.9850  177.4630  143.7950 C   0  0  0  0  0  0  0  0  0  0  0  0
  187.8390  177.7480  146.3150 C   0  0  0  0  0  2  0  0  0  0  0  0
  183.2030  178.0010  141.6150 C   0  0  2  0  0  3  0  0  0  0  0  0
  184.2040  178.5590  140.6140 C   0  0  0  0  0  2  0  0  0  0  0  0
  185.0390  177.6760  143.3080 C   0  0  2  0  0  3  0  0  0  0  0  0
  185.5500  177.8790  140.8120 C   0  0  0  0  0  2  0  0  0  0  0  0
  186.0740  178.0720  142.2410 C   0  0  2  0  0  3  0  0  0  0  0  0
  181.2270  179.3280  142.3870 O   0  0  0  0  0  1  0  0  0  0  0  0
  181.2780  178.4280  140.2810 O   0  0  0  0  0  0  0  0  0  0  0  0
  181.8550  178.5970  141.3860 C   0  0  0  0  0  0  0  0  0  0  0  0
  187.3190  175.8260  142.0190 C   0  0  0  0  0  2  0  0  0  0  0  0
  188.4460  175.4480  141.2850 O   0  0  0  0  0  0  0  0  0  0  0  0
  188.5470  174.0680  141.4700 C   0  0  0  0  0  2  0  0  0  0  0  0
  190.6880  173.3270  144.5670 C   0  0  0  0  0  2  0  0  0  0  0  0
  190.8510  174.8250  142.0450 C   0  0  0  0  0  2  0  0  0  0  0  0
  194.3270  174.6130  144.6370 C   0  0  2  0  0  0  0  0  0  0  0  0
  194.9770  173.6740  143.8290 O   0  0  0  0  0  1  0  0  0  0  0  0
  193.0170  173.9960  145.1590 C   0  0  0  0  0  2  0  0  0  0  0  0
  191.7720  174.3800  144.3500 C   0  0  1  0  0  3  0  0  0  0  0  0
  193.1380  175.6320  142.6190 C   0  0  0  0  0  2  0  0  0  0  0  0
  192.1060  174.5240  142.8570 C   0  0  2  0  0  3  0  0  0  0  0  0
  194.0640  175.8820  143.8180 C   0  0  0  0  0  2  0  0  0  0  0  0
  189.7950  173.7450  142.2720 C   0  0  1  0  0  3  0  0  0  0  0  0
  189.4450  173.6690  143.7530 C   0  0  0  0  0  2  0  0  0  0  0  0
  195.1930  174.9610  145.8120 C   0  0  0  0  0  0  0  0  0  0  0  0
  196.4020  174.3010  146.0020 O   0  0  0  0  0  0  0  0  0  0  0  0
  194.8480  175.8630  146.6220 O   0  0  0  0  0  1  0  0  0  0  0  0
  1 18  1  1  0  0  0
  1  8  1  0  0  0  0
  3  7  1  0  0  0  0
  4  6  1  0  0  0  0
  6  5  2  0  0  0  0
  7  9  1  1  0  0  0
  8  4  2  0  0  0  0
  8  7  1  0  0  0  0
  9  5  1  0  0  0  0
 10 17  1  6  0  0  0
 10  2  1  0  0  0  0
 11 13  1  0  0  0  0
 11 10  1  0  0  0  0
 12  2  1  6  0  0  0
 12  3  1  0  0  0  0
 14 13  1  6  0  0  0
 14  1  1  0  0  0  0
 14 12  1  0  0  0  0
 16 17  2  0  0  0  0
 17 15  1  0  0  0  0
 19 20  1  0  0  0  0
 19 18  1  0  0  0  0
 22 30  1  0  0  0  0
 23 24  1  6  0  0  0
 23 25  1  0  0  0  0
 23 32  1  0  0  0  0
 26 21  1  6  0  0  0
 26 25  1  0  0  0  0
 27 28  1  0  0  0  0
 27 29  1  0  0  0  0
 28 22  1  6  0  0  0
 28 26  1  0  0  0  0
 29 23  1  0  0  0  0
 30 20  1  6  0  0  0
 30 31  1  0  0  0  0
 31 21  1  0  0  0  0
 32 33  2  0  0  0  0
 32 34  1  0  0  0  0
M  END
>  <MODEL>
3

>  <REMARK>
 VINA RESULT:      -7.7      2.381      7.973
  Name = 
  6 active torsions:
  status: ('A' for Active; 'I' for Inactive)
    1  A    between atoms: C_1  and  C_9
    2  A    between atoms: C_7  and  C_11
    3  A    between atoms: O_8  and  C_9
    4  A    between atoms: O_8  and  C_18
    5  A    between atoms: C_18  and  C_30
    6  A    between atoms: C_23  and  C_25
                            x       y       z     vdW  Elec       q    Type
                         _______ _______ _______ _____ _____    ______ ____

>  <TORSDO>
F 6

$$$$
=
 OpenBabel11052420213D

 34 38  0  0  1  0  0  0  0  0999 V2000
  192.1540  174.4670  144.3750 C   0  0  2  0  0  3  0  0  0  0  0  0
  194.4000  171.3270  144.9150 C   0  0  0  0  0  2  0  0  0  0  0  0
  192.0340  171.3180  143.6220 S   0  0  0  0  0  0  0  0  0  0  0  0
  190.1180  174.7530  143.0950 C   0  0  0  0  0  3  0  0  0  0  0  0
  188.5260  173.0180  142.4710 C   0  0  0  0  0  3  0  0  0  0  0  0
  188.8180  174.3130  142.5660 C   0  0  0  0  0  3  0  0  0  0  0  0
  190.5990  172.4290  143.8140 C   0  0  1  0  0  3  0  0  0  0  0  0
  190.9850  173.8890  143.6320 C   0  0  0  0  0  0  0  0  0  0  0  0
  189.5510  171.9700  142.7880 C   0  0  0  0  0  2  0  0  0  0  0  0
  195.4580  172.0370  145.7460 C   0  0  2  0  0  3  0  0  0  0  0  0
  195.8000  173.3720  145.1010 C   0  0  0  0  0  2  0  0  0  0  0  0
  193.1210  172.1580  144.8140 C   0  0  2  0  0  3  0  0  0  0  0  0
  194.5610  174.2540  145.0740 C   0  0  0  0  0  2  0  0  0  0  0  0
  193.4100  173.5830  144.3120 C   0  0  2  0  0  3  0  0  0  0  0  0
  197.7740  171.4160  145.0310 O   0  0  0  0  0  0  0  0  0  0  0  0
  196.7130  170.2490  146.6930 O   0  0  0  0  0  1  0  0  0  0  0  0
  196.6780  171.1870  145.8550 C   0  0  0  0  0  0  0  0  0  0  0  0
  191.7550  174.8860  145.7980 C   0  0  0  0  0  2  0  0  0  0  0  0
  191.5380  176.2640  145.8740 O   0  0  0  0  0  0  0  0  0  0  0  0
  190.6530  176.4290  146.9400 C   0  0  0  0  0  2  0  0  0  0  0  0
  186.8970  176.5510  146.1650 C   0  0  0  0  0  2  0  0  0  0  0  0
  189.4550  177.3330  144.9510 C   0  0  0  0  0  2  0  0  0  0  0  0
  185.7360  178.3960  142.9790 C   0  0  2  0  0  0  0  0  0  0  0  0
  185.8070  179.7330  143.3830 O   0  0  0  0  0  1  0  0  0  0  0  0
  185.6440  177.5050  144.2300 C   0  0  0  0  0  2  0  0  0  0  0  0
  186.9830  176.9120  144.6840 C   0  0  1  0  0  3  0  0  0  0  0  0
  188.2830  178.2030  142.9300 C   0  0  0  0  0  2  0  0  0  0  0  0
  188.1370  177.8920  144.4240 C   0  0  2  0  0  3  0  0  0  0  0  0
  186.9750  178.0600  142.1400 C   0  0  0  0  0  2  0  0  0  0  0  0
  189.3390  177.0000  146.4360 C   0  0  1  0  0  3  0  0  0  0  0  0
  188.2260  175.9820  146.6510 C   0  0  0  0  0  2  0  0  0  0  0  0
  184.5070  178.1790  142.1460 C   0  0  0  0  0  0  0  0  0  0  0  0
  183.2560  178.5080  142.6550 O   0  0  0  0  0  1  0  0  0  0  0  0
  184.5960  177.7210  140.9750 O   0  0  0  0  0  0  0  0  0  0  0  0
  1 18  1  1  0  0  0
  2 10  1  0  0  0  0
  3  7  1  0  0  0  0
  3 12  1  0  0  0  0
  4  8  2  0  0  0  0
  5  6  2  0  0  0  0
  5  9  1  0  0  0  0
  6  4  1  0  0  0  0
  7  9  1  6  0  0  0
  8  7  1  0  0  0  0
  8  1  1  0  0  0  0
 10 17  1  6  0  0  0
 11 10  1  0  0  0  0
 12  2  1  6  0  0  0
 13 11  1  0  0  0  0
 14  1  1  0  0  0  0
 14 12  1  0  0  0  0
 14 13  1  1  0  0  0
 15 17  2  0  0  0  0
 17 16  1  0  0  0  0
 18 19  1  0  0  0  0
 19 20  1  0  0  0  0
 21 31  1  0  0  0  0
 22 30  1  0  0  0  0
 23 24  1  1  0  0  0
 23 25  1  0  0  0  0
 26 25  1  1  0  0  0
 26 21  1  0  0  0  0
 28 27  1  6  0  0  0
 28 26  1  0  0  0  0
 28 22  1  0  0  0  0
 29 27  1  0  0  0  0
 29 23  1  0  0  0  0
 30 31  1  0  0  0  0
 30 20  1  6  0  0  0
 32 33  1  0  0  0  0
 32 23  1  0  0  0  0
 34 32  2  0  0  0  0
M  END
>  <MODEL>
4

>  <REMARK>
 VINA RESULT:      -7.6      2.128      5.058
  Name = 
  6 active torsions:
  status: ('A' for Active; 'I' for Inactive)
    1  A    between atoms: C_1  and  C_9
    2  A    between atoms: C_7  and  C_11
    3  A    between atoms: O_8  and  C_9
    4  A    between atoms: O_8  and  C_18
    5  A    between atoms: C_18  and  C_30
    6  A    between atoms: C_23  and  C_25
                            x       y       z     vdW  Elec       q    Type
                         _______ _______ _______ _____ _____    ______ ____

>  <TORSDO>
F 6

$$$$
=
 OpenBabel11052420213D

 34 38  0  0  1  0  0  0  0  0999 V2000
  193.3220  173.8650  144.7170 C   0  0  2  0  0  3  0  0  0  0  0  0
  194.9030  170.3390  145.2210 C   0  0  0  0  0  2  0  0  0  0  0  0
  192.5610  170.8050  143.9710 S   0  0  0  0  0  0  0  0  0  0  0  0
  191.3610  174.5550  143.4730 C   0  0  0  0  0  3  0  0  0  0  0  0
  189.4430  173.1750  142.8820 C   0  0  0  0  0  3  0  0  0  0  0  0
  189.9900  174.3850  142.9690 C   0  0  0  0  0  3  0  0  0  0  0  0
  191.3810  172.1810  144.1880 C   0  0  1  0  0  3  0  0  0  0  0  0
  192.0480  173.5340  143.9960 C   0  0  0  0  0  0  0  0  0  0  0  0
  190.2430  171.9420  143.1820 C   0  0  0  0  0  2  0  0  0  0  0  0
  196.0970  170.8210  146.0320 C   0  0  2  0  0  3  0  0  0  0  0  0
  196.6880  172.0620  145.3790 C   0  0  0  0  0  2  0  0  0  0  0  0
  193.8150  171.4080  145.1420 C   0  0  2  0  0  3  0  0  0  0  0  0
  195.6500  173.1730  145.3720 C   0  0  0  0  0  2  0  0  0  0  0  0
  194.3740  172.7480  144.6330 C   0  0  2  0  0  3  0  0  0  0  0  0
  197.2360  168.9670  147.2680 O   0  0  0  0  0  1  0  0  0  0  0  0
  197.9040  169.5440  145.1540 O   0  0  0  0  0  0  0  0  0  0  0  0
  197.1250  169.7440  146.1210 C   0  0  0  0  0  0  0  0  0  0  0  0
  193.0400  174.3530  146.1450 C   0  0  0  0  0  2  0  0  0  0  0  0
  192.6880  175.7040  146.1550 O   0  0  0  0  0  0  0  0  0  0  0  0
  191.9950  175.8860  147.3530 C   0  0  0  0  0  2  0  0  0  0  0  0
  188.1910  175.6890  146.8870 C   0  0  0  0  0  2  0  0  0  0  0  0
  190.5260  176.9900  145.6700 C   0  0  0  0  0  2  0  0  0  0  0  0
  186.5470  177.9380  144.2160 C   0  0  2  0  0  0  0  0  0  0  0  0
  186.5120  179.1750  144.8670 O   0  0  0  0  0  1  0  0  0  0  0  0
  186.6680  176.8250  145.2720 C   0  0  0  0  0  2  0  0  0  0  0  0
  188.0990  176.3270  145.5040 C   0  0  1  0  0  3  0  0  0  0  0  0
  189.0840  178.0710  143.9480 C   0  0  0  0  0  2  0  0  0  0  0  0
  189.1130  177.4720  145.3580 C   0  0  2  0  0  3  0  0  0  0  0  0
  187.7300  177.9190  143.2400 C   0  0  0  0  0  2  0  0  0  0  0  0
  190.5870  176.3750  147.0660 C   0  0  1  0  0  3  0  0  0  0  0  0
  189.6130  175.2060  147.1560 C   0  0  0  0  0  2  0  0  0  0  0  0
  185.2760  177.7310  143.4460 C   0  0  0  0  0  0  0  0  0  0  0  0
  184.0700  178.1940  143.9610 O   0  0  0  0  0  1  0  0  0  0  0  0
  185.2890  177.1600  142.3230 O   0  0  0  0  0  0  0  0  0  0  0  0
  1 18  1  1  0  0  0
  2 10  1  0  0  0  0
  3  7  1  0  0  0  0
  3 12  1  0  0  0  0
  4  8  2  0  0  0  0
  5  6  2  0  0  0  0
  5  9  1  0  0  0  0
  6  4  1  0  0  0  0
  7  9  1  6  0  0  0
  8  7  1  0  0  0  0
  8  1  1  0  0  0  0
 10 17  1  6  0  0  0
 11 10  1  0  0  0  0
 12  2  1  6  0  0  0
 13 11  1  0  0  0  0
 14  1  1  0  0  0  0
 14 12  1  0  0  0  0
 14 13  1  1  0  0  0
 16 17  2  0  0  0  0
 17 15  1  0  0  0  0
 18 19  1  0  0  0  0
 19 20  1  0  0  0  0
 21 31  1  0  0  0  0
 22 30  1  0  0  0  0
 23 24  1  1  0  0  0
 23 25  1  0  0  0  0
 26 25  1  1  0  0  0
 26 21  1  0  0  0  0
 28 27  1  6  0  0  0
 28 26  1  0  0  0  0
 28 22  1  0  0  0  0
 29 27  1  0  0  0  0
 29 23  1  0  0  0  0
 30 31  1  0  0  0  0
 30 20  1  6  0  0  0
 32 33  1  0  0  0  0
 32 23  1  0  0  0  0
 34 32  2  0  0  0  0
M  END
>  <MODEL>
5

>  <REMARK>
 VINA RESULT:      -7.5      2.580      5.224
  Name = 
  6 active torsions:
  status: ('A' for Active; 'I' for Inactive)
    1  A    between atoms: C_1  and  C_9
    2  A    between atoms: C_7  and  C_11
    3  A    between atoms: O_8  and  C_9
    4  A    between atoms: O_8  and  C_18
    5  A    between atoms: C_18  and  C_30
    6  A    between atoms: C_23  and  C_25
                            x       y       z     vdW  Elec       q    Type
                         _______ _______ _______ _____ _____    ______ ____

>  <TORSDO>
F 6

$$$$
=
 OpenBabel11052420213D

 34 38  0  0  1  0  0  0  0  0999 V2000
  189.7930  177.0560  143.8030 C   0  0  2  0  0  3  0  0  0  0  0  0
  186.7240  177.6460  146.1310 C   0  0  0  0  0  2  0  0  0  0  0  0
  189.2320  177.1580  146.9920 S   0  0  0  0  0  0  0  0  0  0  0  0
  192.1460  176.8020  144.3220 C   0  0  0  0  0  3  0  0  0  0  0  0
  193.1060  176.0620  146.4340 C   0  0  0  0  0  3  0  0  0  0  0  0
  193.2740  176.3380  145.1430 C   0  0  0  0  0  3  0  0  0  0  0  0
  190.5880  176.2530  146.1710 C   0  0  1  0  0  3  0  0  0  0  0  0
  190.8960  176.8210  144.7940 C   0  0  0  0  0  0  0  0  0  0  0  0
  191.7970  176.3270  147.1170 C   0  0  0  0  0  2  0  0  0  0  0  0
  185.7020  177.7600  145.0100 C   0  0  2  0  0  3  0  0  0  0  0  0
  186.2590  178.6410  143.9020 C   0  0  0  0  0  2  0  0  0  0  0  0
  188.0300  177.0290  145.6330 C   0  0  2  0  0  3  0  0  0  0  0  0
  187.5110  177.9990  143.3250 C   0  0  0  0  0  2  0  0  0  0  0  0
  188.5780  177.7780  144.4060 C   0  0  2  0  0  3  0  0  0  0  0  0
  183.6030  179.0910  144.7130 O   0  0  0  0  0  0  0  0  0  0  0  0
  184.1040  178.1350  146.7340 O   0  0  0  0  0  1  0  0  0  0  0  0
  184.4280  178.3320  145.5350 C   0  0  0  0  0  0  0  0  0  0  0  0
  189.4440  175.7660  143.0470 C   0  0  0  0  0  2  0  0  0  0  0  0
  190.3630  175.5150  142.0260 O   0  0  0  0  0  0  0  0  0  0  0  0
  190.1770  174.1720  141.6970 C   0  0  0  0  0  2  0  0  0  0  0  0
  191.9060  172.1940  144.4930 C   0  0  0  0  0  2  0  0  0  0  0  0
  192.5870  174.0470  142.3180 C   0  0  0  0  0  2  0  0  0  0  0  0
  195.7620  172.2510  144.6720 C   0  0  2  0  0  0  0  0  0  0  0  0
  196.1070  171.3410  143.6660 O   0  0  0  0  0  1  0  0  0  0  0  0
  194.3130  171.9770  145.1120 C   0  0  0  0  0  2  0  0  0  0  0  0
  193.2680  172.8810  144.4470 C   0  0  1  0  0  3  0  0  0  0  0  0
  194.9970  173.9730  142.9480 C   0  0  0  0  0  2  0  0  0  0  0  0
  193.6670  173.2150  143.0020 C   0  0  2  0  0  3  0  0  0  0  0  0
  195.9260  173.6770  144.1340 C   0  0  0  0  0  2  0  0  0  0  0  0
  191.2430  173.3230  142.3660 C   0  0  1  0  0  3  0  0  0  0  0  0
  190.8500  173.0610  143.8150 C   0  0  0  0  0  2  0  0  0  0  0  0
  196.6650  172.0680  145.8560 C   0  0  0  0  0  0  0  0  0  0  0  0
  197.1860  173.1790  146.5100 O   0  0  0  0  0  1  0  0  0  0  0  0
  196.9420  170.9150  146.2820 O   0  0  0  0  0  0  0  0  0  0  0  0
  1 18  1  1  0  0  0
  1 14  1  0  0  0  0
  1  8  1  0  0  0  0
  4  8  2  0  0  0  0
  4  6  1  0  0  0  0
  5  9  1  0  0  0  0
  6  5  2  0  0  0  0
  7  3  1  0  0  0  0
  7  9  1  1  0  0  0
  8  7  1  0  0  0  0
 10 17  1  1  0  0  0
 10  2  1  0  0  0  0
 11 10  1  0  0  0  0
 12  2  1  1  0  0  0
 12  3  1  0  0  0  0
 13 11  1  0  0  0  0
 14 13  1  6  0  0  0
 14 12  1  0  0  0  0
 15 17  2  0  0  0  0
 17 16  1  0  0  0  0
 19 18  1  0  0  0  0
 20 19  1  0  0  0  0
 22 30  1  0  0  0  0
 23 24  1  6  0  0  0
 23 25  1  0  0  0  0
 23 32  1  0  0  0  0
 26 21  1  6  0  0  0
 26 25  1  0  0  0  0
 27 28  1  0  0  0  0
 27 29  1  0  0  0  0
 28 22  1  1  0  0  0
 28 26  1  0  0  0  0
 29 23  1  0  0  0  0
 30 20  1  1  0  0  0
 30 31  1  0  0  0  0
 31 21  1  0  0  0  0
 32 34  2  0  0  0  0
 32 33  1  0  0  0  0
M  END
>  <MODEL>
6

>  <REMARK>
 VINA RESULT:      -7.3      2.496      7.744
  Name = 
  6 active torsions:
  status: ('A' for Active; 'I' for Inactive)
    1  A    between atoms: C_1  and  C_9
    2  A    between atoms: C_7  and  C_11
    3  A    between atoms: O_8  and  C_9
    4  A    between atoms: O_8  and  C_18
    5  A    between atoms: C_18  and  C_30
    6  A    between atoms: C_23  and  C_25
                            x       y       z     vdW  Elec       q    Type
                         _______ _______ _______ _____ _____    ______ ____

>  <TORSDO>
F 6

$$$$
=
 OpenBabel11052420213D

 34 38  0  0  1  0  0  0  0  0999 V2000
  193.1130  173.8970  144.4600 C   0  0  2  0  0  3  0  0  0  0  0  0
  194.7290  170.4310  145.2120 C   0  0  0  0  0  2  0  0  0  0  0  0
  192.4790  170.7950  143.7730 S   0  0  0  0  0  0  0  0  0  0  0  0
  191.2380  174.4940  143.0470 C   0  0  0  0  0  3  0  0  0  0  0  0
  189.4020  173.0470  142.3640 C   0  0  0  0  0  3  0  0  0  0  0  0
  189.9130  174.2720  142.4480 C   0  0  0  0  0  3  0  0  0  0  0  0
  191.2560  172.1480  143.8490 C   0  0  1  0  0  3  0  0  0  0  0  0
  191.9050  173.5090  143.6580 C   0  0  0  0  0  0  0  0  0  0  0  0
  190.2040  171.8450  142.7690 C   0  0  0  0  0  2  0  0  0  0  0  0
  195.8460  170.9710  146.0920 C   0  0  2  0  0  3  0  0  0  0  0  0
  196.4570  172.2020  145.4400 C   0  0  0  0  0  2  0  0  0  0  0  0
  193.6260  171.4700  145.0120 C   0  0  2  0  0  3  0  0  0  0  0  0
  195.3990  173.2870  145.3140 C   0  0  0  0  0  2  0  0  0  0  0  0
  194.1930  172.8040  144.4970 C   0  0  2  0  0  3  0  0  0  0  0  0
  197.9370  169.7840  145.3960 O   0  0  0  0  0  0  0  0  0  0  0  0
  196.8110  169.1540  147.2900 O   0  0  0  0  0  1  0  0  0  0  0  0
  196.8880  169.9240  146.2980 C   0  0  0  0  0  0  0  0  0  0  0  0
  192.7130  174.4280  145.8440 C   0  0  0  0  0  2  0  0  0  0  0  0
  192.9520  175.8010  145.9450 O   0  0  0  0  0  0  0  0  0  0  0  0
  191.8520  176.3060  146.6390 C   0  0  0  0  0  2  0  0  0  0  0  0
  189.6480  177.8090  143.8810 C   0  0  0  0  0  2  0  0  0  0  0  0
  189.3730  176.5340  146.5120 C   0  0  0  0  0  2  0  0  0  0  0  0
  185.8140  177.5440  144.2410 C   0  0  2  0  0  0  0  0  0  0  0  0
  185.5830  176.2190  143.8550 O   0  0  0  0  0  1  0  0  0  0  0  0
  187.1700  177.9970  143.6700 C   0  0  0  0  0  2  0  0  0  0  0  0
  188.3380  177.8930  144.6580 C   0  0  1  0  0  3  0  0  0  0  0  0
  186.8960  176.7910  146.4290 C   0  0  0  0  0  2  0  0  0  0  0  0
  188.1700  176.6800  145.5860 C   0  0  2  0  0  3  0  0  0  0  0  0
  185.7910  177.6300  145.7720 C   0  0  0  0  0  2  0  0  0  0  0  0
  190.6640  176.4340  145.7020 C   0  0  1  0  0  3  0  0  0  0  0  0
  190.8280  177.6790  144.8390 C   0  0  0  0  0  2  0  0  0  0  0  0
  184.7400  178.4320  143.6850 C   0  0  0  0  0  0  0  0  0  0  0  0
  184.0520  178.0540  142.5370 O   0  0  0  0  0  0  0  0  0  0  0  0
  184.4370  179.5120  144.2590 O   0  0  0  0  0  1  0  0  0  0  0  0
  1 14  1  0  0  0  0
  1 18  1  1  0  0  0
  2 10  1  0  0  0  0
  3  7  1  0  0  0  0
  3 12  1  0  0  0  0
  4  8  2  0  0  0  0
  5  6  2  0  0  0  0
  5  9  1  0  0  0  0
  6  4  1  0  0  0  0
  7  9  1  6  0  0  0
  8  7  1  0  0  0  0
  8  1  1  0  0  0  0
 10 17  1  6  0  0  0
 11 10  1  0  0  0  0
 12  2  1  6  0  0  0
 13 11  1  0  0  0  0
 14 12  1  0  0  0  0
 14 13  1  1  0  0  0
 15 17  2  0  0  0  0
 17 16  1  0  0  0  0
 18 19  1  0  0  0  0
 19 20  1  0  0  0  0
 21 26  1  0  0  0  0
 21 31  1  0  0  0  0
 23 24  1  6  0  0  0
 23 29  1  0  0  0  0
 25 23  1  0  0  0  0
 26 25  1  6  0  0  0
 26 28  1  0  0  0  0
 28 27  1  1  0  0  0
 28 22  1  0  0  0  0
 29 27  1  0  0  0  0
 30 22  1  0  0  0  0
 30 20  1  1  0  0  0
 31 30  1  0  0  0  0
 32 23  1  0  0  0  0
 32 34  1  0  0  0  0
 33 32  2  0  0  0  0
M  END
>  <MODEL>
7

>  <REMARK>
 VINA RESULT:      -7.3      2.407      4.907
  Name = 
  6 active torsions:
  status: ('A' for Active; 'I' for Inactive)
    1  A    between atoms: C_1  and  C_9
    2  A    between atoms: C_7  and  C_11
    3  A    between atoms: O_8  and  C_9
    4  A    between atoms: O_8  and  C_18
    5  A    between atoms: C_18  and  C_30
    6  A    between atoms: C_23  and  C_25
                            x       y       z     vdW  Elec       q    Type
                         _______ _______ _______ _____ _____    ______ ____

>  <TORSDO>
F 6

$$$$
=
 OpenBabel11052420213D

 34 38  0  0  1  0  0  0  0  0999 V2000
  194.9440  174.0870  144.1260 C   0  0  2  0  0  3  0  0  0  0  0  0
  195.0030  170.5470  145.7530 C   0  0  0  0  0  2  0  0  0  0  0  0
  192.8740  171.6230  144.4990 S   0  0  0  0  0  0  0  0  0  0  0  0
  193.2480  175.1840  142.7880 C   0  0  0  0  0  3  0  0  0  0  0  0
  190.8600  174.7020  142.7710 C   0  0  0  0  0  3  0  0  0  0  0  0
  191.8610  175.5060  142.4190 C   0  0  0  0  0  3  0  0  0  0  0  0
  192.4220  173.3770  144.2720 C   0  0  1  0  0  3  0  0  0  0  0  0
  193.5380  174.1670  143.6060 C   0  0  0  0  0  0  0  0  0  0  0  0
  191.1250  173.3900  143.4470 C   0  0  0  0  0  2  0  0  0  0  0  0
  196.4150  170.6570  146.3090 C   0  0  2  0  0  3  0  0  0  0  0  0
  197.3330  171.2510  145.2500 C   0  0  0  0  0  2  0  0  0  0  0  0
  194.4550  171.9140  145.3500 C   0  0  2  0  0  3  0  0  0  0  0  0
  196.8600  172.6530  144.8990 C   0  0  0  0  0  2  0  0  0  0  0  0
  195.4110  172.6480  144.3940 C   0  0  2  0  0  3  0  0  0  0  0  0
  197.4880  168.4540  145.7990 O   0  0  0  0  0  0  0  0  0  0  0  0
  196.7900  168.9490  147.9240 O   0  0  0  0  0  1  0  0  0  0  0  0
  196.9090  169.3130  146.7260 C   0  0  0  0  0  0  0  0  0  0  0  0
  195.1520  175.0430  145.3090 C   0  0  0  0  0  2  0  0  0  0  0  0
  194.1280  175.9900  145.3780 O   0  0  0  0  0  0  0  0  0  0  0  0
  193.8250  176.0930  146.7370 C   0  0  0  0  0  2  0  0  0  0  0  0
  190.1480  175.2230  147.4050 C   0  0  0  0  0  2  0  0  0  0  0  0
  191.7510  176.9510  145.6530 C   0  0  0  0  0  2  0  0  0  0  0  0
  187.4200  177.1970  145.5200 C   0  0  2  0  0  0  0  0  0  0  0  0
  187.3810  178.3930  146.2440 O   0  0  0  0  0  1  0  0  0  0  0  0
  188.0390  176.1010  146.4050 C   0  0  0  0  0  2  0  0  0  0  0  0
  189.5350  175.8640  146.1640 C   0  0  1  0  0  3  0  0  0  0  0  0
  189.6950  177.7910  144.5230 C   0  0  0  0  0  2  0  0  0  0  0  0
  190.2520  177.1770  145.8120 C   0  0  2  0  0  3  0  0  0  0  0  0
  188.2350  177.4130  144.2390 C   0  0  0  0  0  2  0  0  0  0  0  0
  192.3360  176.3260  146.9180 C   0  0  1  0  0  3  0  0  0  0  0  0
  191.6440  174.9990  147.2040 C   0  0  0  0  0  2  0  0  0  0  0  0
  186.0270  176.7820  145.1480 C   0  0  0  0  0  0  0  0  0  0  0  0
  185.0910  176.5210  146.1430 O   0  0  0  0  0  1  0  0  0  0  0  0
  185.6840  176.6860  143.9390 O   0  0  0  0  0  0  0  0  0  0  0  0
  1 14  1  0  0  0  0
  1 18  1  1  0  0  0
  2 10  1  0  0  0  0
  3 12  1  0  0  0  0
  4  8  2  0  0  0  0
  5  9  1  0  0  0  0
  6  5  2  0  0  0  0
  6  4  1  0  0  0  0
  7  9  1  6  0  0  0
  7  3  1  0  0  0  0
  8  1  1  0  0  0  0
  8  7  1  0  0  0  0
 10 17  1  6  0  0  0
 11 10  1  0  0  0  0
 12  2  1  6  0  0  0
 13 11  1  0  0  0  0
 14 13  1  1  0  0  0
 14 12  1  0  0  0  0
 15 17  2  0  0  0  0
 17 16  1  0  0  0  0
 18 19  1  0  0  0  0
 19 20  1  0  0  0  0
 22 28  1  0  0  0  0
 22 30  1  0  0  0  0
 23 24  1  1  0  0  0
 23 25  1  0  0  0  0
 26 25  1  1  0  0  0
 26 21  1  0  0  0  0
 28 27  1  6  0  0  0
 28 26  1  0  0  0  0
 29 27  1  0  0  0  0
 29 23  1  0  0  0  0
 30 20  1  6  0  0  0
 30 31  1  0  0  0  0
 31 21  1  0  0  0  0
 32 23  1  0  0  0  0
 32 33  1  0  0  0  0
 34 32  2  0  0  0  0
M  END
>  <MODEL>
8

>  <REMARK>
 VINA RESULT:      -7.2      2.801      5.357
  Name = 
  6 active torsions:
  status: ('A' for Active; 'I' for Inactive)
    1  A    between atoms: C_1  and  C_9
    2  A    between atoms: C_7  and  C_11
    3  A    between atoms: O_8  and  C_9
    4  A    between atoms: O_8  and  C_18
    5  A    between atoms: C_18  and  C_30
    6  A    between atoms: C_23  and  C_25
                            x       y       z     vdW  Elec       q    Type
                         _______ _______ _______ _____ _____    ______ ____

>  <TORSDO>
F 6

$$$$
=
 OpenBabel11052420213D

 34 38  0  0  1  0  0  0  0  0999 V2000
  189.5510  175.6440  146.7260 C   0  0  2  0  0  3  0  0  0  0  0  0
  192.5710  177.1550  144.7820 C   0  0  0  0  0  2  0  0  0  0  0  0
  190.0070  177.9270  144.4730 S   0  0  0  0  0  0  0  0  0  0  0  0
  187.2170  176.2920  146.7740 C   0  0  0  0  0  3  0  0  0  0  0  0
  186.0040  177.5200  145.0550 C   0  0  0  0  0  3  0  0  0  0  0  0
  185.9730  176.7940  146.1700 C   0  0  0  0  0  3  0  0  0  0  0  0
  188.4680  176.9850  144.7480 C   0  0  1  0  0  3  0  0  0  0  0  0
  188.3960  176.4160  146.1570 C   0  0  0  0  0  0  0  0  0  0  0  0
  187.3070  177.9480  144.4470 C   0  0  0  0  0  2  0  0  0  0  0  0
  193.6180  176.2250  145.3770 C   0  0  2  0  0  3  0  0  0  0  0  0
  193.3950  176.1040  146.8780 C   0  0  0  0  0  2  0  0  0  0  0  0
  191.1570  176.6290  145.0210 C   0  0  2  0  0  3  0  0  0  0  0  0
  192.0270  175.4940  147.1400 C   0  0  0  0  0  2  0  0  0  0  0  0
  190.9070  176.3330  146.5100 C   0  0  2  0  0  3  0  0  0  0  0  0
  195.9630  175.9150  144.5630 O   0  0  0  0  0  0  0  0  0  0  0  0
  195.2610  177.9470  145.3570 O   0  0  0  0  0  1  0  0  0  0  0  0
  194.9860  176.7470  145.0980 C   0  0  0  0  0  0  0  0  0  0  0  0
  189.5140  174.1770  146.2740 C   0  0  0  0  0  2  0  0  0  0  0  0
  189.7080  174.0700  144.8950 O   0  0  0  0  0  0  0  0  0  0  0  0
  190.0520  172.7350  144.6830 C   0  0  0  0  0  2  0  0  0  0  0  0
  193.7490  172.1880  143.8150 C   0  0  0  0  0  2  0  0  0  0  0  0
  191.5380  173.9960  143.1300 C   0  0  0  0  0  2  0  0  0  0  0  0
  195.3340  174.3770  141.0590 C   0  0  2  0  0  0  0  0  0  0  0  0
  194.8580  173.7620  139.8970 O   0  0  0  0  0  1  0  0  0  0  0  0
  195.2600  173.3690  142.2200 C   0  0  0  0  0  2  0  0  0  0  0  0
  194.0120  173.5100  143.1000 C   0  0  1  0  0  3  0  0  0  0  0  0
  193.0160  175.3000  141.6050 C   0  0  0  0  0  2  0  0  0  0  0  0
  192.7940  173.9360  142.2660 C   0  0  2  0  0  3  0  0  0  0  0  0
  194.4930  175.6270  141.3450 C   0  0  0  0  0  2  0  0  0  0  0  0
  191.2950  172.6530  143.8150 C   0  0  1  0  0  3  0  0  0  0  0  0
  192.4970  172.2900  144.6790 C   0  0  0  0  0  2  0  0  0  0  0  0
  196.7660  174.7840  140.8700 C   0  0  0  0  0  0  0  0  0  0  0  0
  197.2200  175.9900  141.3940 O   0  0  0  0  0  1  0  0  0  0  0  0
  197.5730  174.0340  140.2580 O   0  0  0  0  0  0  0  0  0  0  0  0
  1 18  1  6  0  0  0
  2 10  1  0  0  0  0
  3  7  1  0  0  0  0
  3 12  1  0  0  0  0
  5  6  2  0  0  0  0
  6  4  1  0  0  0  0
  7  9  1  1  0  0  0
  7  8  1  0  0  0  0
  8  1  1  0  0  0  0
  8  4  2  0  0  0  0
  9  5  1  0  0  0  0
 10 17  1  1  0  0  0
 10 11  1  0  0  0  0
 11 13  1  0  0  0  0
 12  2  1  1  0  0  0
 12 14  1  0  0  0  0
 14  1  1  0  0  0  0
 14 13  1  6  0  0  0
 15 17  2  0  0  0  0
 17 16  1  0  0  0  0
 19 18  1  0  0  0  0
 20 19  1  0  0  0  0
 21 31  1  0  0  0  0
 22 30  1  0  0  0  0
 23 24  1  6  0  0  0
 23 29  1  0  0  0  0
 23 25  1  0  0  0  0
 26 25  1  6  0  0  0
 26 21  1  0  0  0  0
 28 27  1  1  0  0  0
 28 26  1  0  0  0  0
 28 22  1  0  0  0  0
 29 27  1  0  0  0  0
 30 31  1  0  0  0  0
 30 20  1  1  0  0  0
 32 23  1  0  0  0  0
 32 33  1  0  0  0  0
 34 32  2  0  0  0  0
M  END
>  <MODEL>
9

>  <REMARK>
 VINA RESULT:      -6.9      2.902      7.883
  Name = 
  6 active torsions:
  status: ('A' for Active; 'I' for Inactive)
    1  A    between atoms: C_1  and  C_9
    2  A    between atoms: C_7  and  C_11
    3  A    between atoms: O_8  and  C_9
    4  A    between atoms: O_8  and  C_18
    5  A    between atoms: C_18  and  C_30
    6  A    between atoms: C_23  and  C_25
                            x       y       z     vdW  Elec       q    Type
                         _______ _______ _______ _____ _____    ______ ____

>  <TORSDO>
F 6

$$$$
