=
 OpenBabel11052421353D

 32 35  0  0  1  0  0  0  0  0999 V2000
  188.3850  177.4280  143.6110 C   0  0  0  0  0  0  0  0  0  0  0  0
  188.5880  173.6640  140.4840 C   0  0  0  0  0  2  0  0  0  0  0  0
  190.0960  173.5900  140.6690 C   0  0  0  0  0  2  0  0  0  0  0  0
  186.1720  178.4100  143.9990 C   0  0  0  0  0  0  0  0  0  0  0  0
  186.4130  176.8860  142.0840 C   0  0  0  0  0  3  0  0  0  0  0  0
  188.1210  175.1120  140.5720 C   0  0  0  0  0  2  0  0  0  0  0  0
  187.8190  176.6460  142.4900 C   0  0  0  0  0  0  0  0  0  0  0  0
  188.5990  175.7600  141.8460 C   0  0  0  0  0  0  0  0  0  0  0  0
  190.3070  175.9640  143.6530 N   0  0  0  0  0  0  0  0  0  0  0  0
  185.3020  178.2740  145.2280 C   0  0  0  0  0  2  0  0  0  0  0  0
  185.6240  177.7170  142.7730 C   0  0  0  0  0  0  0  0  0  0  0  0
  185.4550  179.6270  144.5430 C   0  0  0  0  0  2  0  0  0  0  0  0
  190.4560  174.0910  142.0610 C   0  0  0  0  0  2  0  0  0  0  0  0
  190.0590  175.5640  142.2520 C   0  0  1  0  0  3  0  0  0  0  0  0
  187.6330  178.2850  144.3030 C   0  0  0  0  0  3  0  0  0  0  0  0
  189.8490  177.3360  143.8710 C   0  0  0  0  0  2  0  0  0  0  0  0
  184.2310  177.9700  142.2900 C   0  0  0  0  0  2  0  0  0  0  0  0
  184.2590  178.4550  140.9820 O   0  0  0  0  0  0  0  0  0  0  0  0
  182.9900  178.1770  140.4790 C   0  0  0  0  0  2  0  0  0  0  0  0
  181.9580  178.3860  141.5690 C   0  0  0  0  0  2  0  0  0  0  0  0
  180.6650  178.8080  140.9660 C   0  0  0  0  0  0  0  0  0  0  0  0
  180.5200  179.9880  140.5540 O   0  0  0  0  0  0  0  0  0  0  0  0
  179.6290  177.8950  140.8310 O   0  0  0  0  0  1  0  0  0  0  0  0
  191.7510  175.9930  143.8720 C   0  0  0  0  0  2  0  0  0  0  0  0
  192.1060  175.6440  145.3210 C   0  0  1  0  0  3  0  0  0  0  0  0
  190.1900  175.4210  146.9710 C   0  0  0  0  0  0  0  0  0  0  0  0
  189.0930  174.5880  147.5300 C   0  0  0  0  0  1  0  0  0  0  0  0
  191.0340  174.8830  145.9510 N   0  0  0  0  0  2  0  0  0  0  0  0
  190.3780  176.6160  147.4240 N   0  0  0  0  0  2  0  0  0  0  0  0
  193.4080  174.8560  145.4020 C   0  0  0  0  0  2  0  0  0  0  0  0
  194.3790  175.4920  146.3860 C   0  0  0  0  0  2  0  0  0  0  0  0
  194.2700  177.0040  146.3350 C   0  0  0  0  0  1  0  0  0  0  0  0
  1 16  1  0  0  0  0
  1 15  2  0  0  0  0
  2  6  1  0  0  0  0
  2  3  1  0  0  0  0
  3 13  1  0  0  0  0
  4 15  1  0  0  0  0
  4 12  1  0  0  0  0
  4 10  1  0  0  0  0
  5  7  1  0  0  0  0
  5 11  2  0  0  0  0
  6  8  1  0  0  0  0
  7  1  1  0  0  0  0
  8 14  1  0  0  0  0
  8  7  2  0  0  0  0
  9 16  1  0  0  0  0
  9 24  1  0  0  0  0
 11  4  1  0  0  0  0
 12 10  1  0  0  0  0
 14 13  1  1  0  0  0
 14  9  1  0  0  0  0
 17 11  1  0  0  0  0
 18 17  1  0  0  0  0
 19 18  1  0  0  0  0
 19 20  1  0  0  0  0
 21 20  1  0  0  0  0
 22 21  2  0  0  0  0
 23 21  1  0  0  0  0
 25 24  1  6  0  0  0
 25 30  1  0  0  0  0
 25 28  1  0  0  0  0
 26 29  2  0  0  0  0
 26 27  1  0  0  0  0
 28 26  1  0  0  0  0
 30 31  1  0  0  0  0
 32 31  1  0  0  0  0
M  END
>  <MODEL>
1

>  <REMARK>
 VINA RESULT:      -7.1      0.000      0.000
  Name = 
  10 active torsions:
  status: ('A' for Active; 'I' for Inactive)
    1  A    between atoms: C_1  and  C_10
    2  A    between atoms: O_2  and  C_12
    3  A    between atoms: O_2  and  C_24
    4  A    between atoms: C_6  and  C_7
    5  A    between atoms: C_7  and  C_32
    6  A    between atoms: C_10  and  C_24
    7  A    between atoms: C_12  and  C_21
    8  A    between atoms: N_16  and  C_27
    9  A    between atoms: N_22  and  C_32
   10  A    between atoms: C_27  and  C_32
                            x       y       z     vdW  Elec       q    Type
                         _______ _______ _______ _____ _____    ______ ____

>  <TORSDO>
F 10

$$$$
=
 OpenBabel11052421353D

 32 35  0  0  1  0  0  0  0  0999 V2000
  188.2380  177.1530  143.4850 C   0  0  0  0  0  0  0  0  0  0  0  0
  188.2930  173.6600  140.0520 C   0  0  0  0  0  2  0  0  0  0  0  0
  189.7840  173.4570  140.2810 C   0  0  0  0  0  2  0  0  0  0  0  0
  186.0880  178.2630  143.8810 C   0  0  0  0  0  0  0  0  0  0  0  0
  186.2940  176.8920  141.8510 C   0  0  0  0  0  3  0  0  0  0  0  0
  187.9290  175.1270  140.2490 C   0  0  0  0  0  2  0  0  0  0  0  0
  187.6620  176.5130  142.2820 C   0  0  0  0  0  0  0  0  0  0  0  0
  188.4010  175.6280  141.5900 C   0  0  0  0  0  0  0  0  0  0  0  0
  190.0460  175.5500  143.4640 N   0  0  0  0  0  0  0  0  0  0  0  0
  185.1620  178.0910  145.0650 C   0  0  0  0  0  2  0  0  0  0  0  0
  185.5400  177.7190  142.5830 C   0  0  0  0  0  0  0  0  0  0  0  0
  185.4400  179.4810  144.5050 C   0  0  0  0  0  2  0  0  0  0  0  0
  190.1230  173.8120  141.7210 C   0  0  0  0  0  2  0  0  0  0  0  0
  189.8260  175.2890  142.0260 C   0  0  1  0  0  3  0  0  0  0  0  0
  187.5230  178.0030  144.2220 C   0  0  0  0  0  3  0  0  0  0  0  0
  189.6800  176.9300  143.7850 C   0  0  0  0  0  2  0  0  0  0  0  0
  184.1900  178.1150  142.0780 C   0  0  0  0  0  2  0  0  0  0  0  0
  184.2140  178.2260  140.6870 O   0  0  0  0  0  0  0  0  0  0  0  0
  182.8970  177.9970  140.2950 C   0  0  0  0  0  2  0  0  0  0  0  0
  181.9620  178.3610  141.4310 C   0  0  0  0  0  2  0  0  0  0  0  0
  180.6600  178.8290  140.8840 C   0  0  0  0  0  0  0  0  0  0  0  0
  179.8270  177.9960  140.4430 O   0  0  0  0  0  0  0  0  0  0  0  0
  180.3500  180.1830  140.8860 O   0  0  0  0  0  1  0  0  0  0  0  0
  191.4790  175.4520  143.7320 C   0  0  0  0  0  2  0  0  0  0  0  0
  191.7510  174.8490  145.1140 C   0  0  1  0  0  3  0  0  0  0  0  0
  193.7550  176.1140  146.0230 C   0  0  0  0  0  0  0  0  0  0  0  0
  194.2800  177.1660  146.9340 C   0  0  0  0  0  1  0  0  0  0  0  0
  192.3530  175.8340  146.0040 N   0  0  0  0  0  2  0  0  0  0  0  0
  194.5720  175.4550  145.2710 N   0  0  0  0  0  2  0  0  0  0  0  0
  190.4750  174.3040  145.7460 C   0  0  0  0  0  2  0  0  0  0  0  0
  190.1090  175.0740  147.0060 C   0  0  0  0  0  2  0  0  0  0  0  0
  188.6240  175.3860  147.0250 C   0  0  0  0  0  1  0  0  0  0  0  0
  1 16  1  0  0  0  0
  1 15  2  0  0  0  0
  2  6  1  0  0  0  0
  2  3  1  0  0  0  0
  3 13  1  0  0  0  0
  4 15  1  0  0  0  0
  4 12  1  0  0  0  0
  4 10  1  0  0  0  0
  5  7  1  0  0  0  0
  5 11  2  0  0  0  0
  6  8  1  0  0  0  0
  7  1  1  0  0  0  0
  8 14  1  0  0  0  0
  8  7  2  0  0  0  0
  9 24  1  0  0  0  0
  9 16  1  0  0  0  0
 11  4  1  0  0  0  0
 12 10  1  0  0  0  0
 14 13  1  1  0  0  0
 14  9  1  0  0  0  0
 17 11  1  0  0  0  0
 18 17  1  0  0  0  0
 19 18  1  0  0  0  0
 19 20  1  0  0  0  0
 21 23  1  0  0  0  0
 21 20  1  0  0  0  0
 22 21  2  0  0  0  0
 25 24  1  6  0  0  0
 25 30  1  0  0  0  0
 25 28  1  0  0  0  0
 26 27  1  0  0  0  0
 28 26  1  0  0  0  0
 29 26  2  0  0  0  0
 30 31  1  0  0  0  0
 31 32  1  0  0  0  0
M  END
>  <MODEL>
2

>  <REMARK>
 VINA RESULT:      -6.9      0.893      2.172
  Name = 
  10 active torsions:
  status: ('A' for Active; 'I' for Inactive)
    1  A    between atoms: C_1  and  C_10
    2  A    between atoms: O_2  and  C_12
    3  A    between atoms: O_2  and  C_24
    4  A    between atoms: C_6  and  C_7
    5  A    between atoms: C_7  and  C_32
    6  A    between atoms: C_10  and  C_24
    7  A    between atoms: C_12  and  C_21
    8  A    between atoms: N_16  and  C_27
    9  A    between atoms: N_22  and  C_32
   10  A    between atoms: C_27  and  C_32
                            x       y       z     vdW  Elec       q    Type
                         _______ _______ _______ _____ _____    ______ ____

>  <TORSDO>
F 10

$$$$
=
 OpenBabel11052421353D

 32 35  0  0  1  0  0  0  0  0999 V2000
  188.7190  175.5600  143.4760 C   0  0  0  0  0  0  0  0  0  0  0  0
  190.5420  177.2140  147.7100 C   0  0  0  0  0  2  0  0  0  0  0  0
  191.2210  175.8720  147.9440 C   0  0  0  0  0  2  0  0  0  0  0  0
  187.2880  177.1080  142.2230 C   0  0  0  0  0  0  0  0  0  0  0  0
  187.7990  177.6820  144.5590 C   0  0  0  0  0  3  0  0  0  0  0  0
  189.2170  177.0100  146.9860 C   0  0  0  0  0  2  0  0  0  0  0  0
  188.6750  176.4870  144.6290 C   0  0  0  0  0  0  0  0  0  0  0  0
  189.4060  176.2090  145.7240 C   0  0  0  0  0  0  0  0  0  0  0  0
  190.6320  174.4500  144.4480 N   0  0  0  0  0  0  0  0  0  0  0  0
  187.6260  177.8590  140.9550 C   0  0  0  0  0  2  0  0  0  0  0  0
  187.1310  177.9870  143.4410 C   0  0  0  0  0  0  0  0  0  0  0  0
  186.2640  177.1940  141.1120 C   0  0  0  0  0  2  0  0  0  0  0  0
  191.5400  175.2320  146.6000 C   0  0  0  0  0  2  0  0  0  0  0  0
  190.2650  174.9470  145.7910 C   0  0  1  0  0  3  0  0  0  0  0  0
  188.0440  175.8220  142.3560 C   0  0  0  0  0  3  0  0  0  0  0  0
  189.4300  174.2610  143.6370 C   0  0  0  0  0  2  0  0  0  0  0  0
  186.2170  179.1700  143.4380 C   0  0  0  0  0  2  0  0  0  0  0  0
  185.7580  179.4220  144.7310 O   0  0  0  0  0  0  0  0  0  0  0  0
  184.4380  178.9750  144.7270 C   0  0  0  0  0  2  0  0  0  0  0  0
  183.9970  178.6920  146.1500 C   0  0  0  0  0  2  0  0  0  0  0  0
  184.9300  177.7230  146.7850 C   0  0  0  0  0  0  0  0  0  0  0  0
  185.0230  176.5520  146.3330 O   0  0  0  0  0  0  0  0  0  0  0  0
  185.7200  178.1170  147.8550 O   0  0  0  0  0  1  0  0  0  0  0  0
  191.2180  173.1200  144.5980 C   0  0  0  0  0  2  0  0  0  0  0  0
  192.5040  172.9780  143.7770 C   0  0  1  0  0  3  0  0  0  0  0  0
  194.4980  174.2330  144.7210 C   0  0  0  0  0  0  0  0  0  0  0  0
  195.6570  174.2490  145.6520 C   0  0  0  0  0  1  0  0  0  0  0  0
  193.6810  173.0640  144.6340 N   0  0  0  0  0  2  0  0  0  0  0  0
  194.2520  175.2700  143.9900 N   0  0  0  0  0  2  0  0  0  0  0  0
  192.5300  171.6650  143.0040 C   0  0  0  0  0  2  0  0  0  0  0  0
  191.5140  171.6690  141.8720 C   0  0  0  0  0  2  0  0  0  0  0  0
  190.6490  170.4240  141.9300 C   0  0  0  0  0  1  0  0  0  0  0  0
  1 16  1  0  0  0  0
  1  7  1  0  0  0  0
  2  3  1  0  0  0  0
  4 15  1  0  0  0  0
  4 11  1  0  0  0  0
  5  7  1  0  0  0  0
  6  2  1  0  0  0  0
  7  8  2  0  0  0  0
  8 14  1  0  0  0  0
  8  6  1  0  0  0  0
  9 24  1  0  0  0  0
  9 14  1  0  0  0  0
 10 12  1  0  0  0  0
 10  4  1  0  0  0  0
 11  5  2  0  0  0  0
 12  4  1  0  0  0  0
 13  3  1  0  0  0  0
 14 13  1  1  0  0  0
 15  1  2  0  0  0  0
 16  9  1  0  0  0  0
 17 11  1  0  0  0  0
 17 18  1  0  0  0  0
 19 18  1  0  0  0  0
 19 20  1  0  0  0  0
 20 21  1  0  0  0  0
 21 23  1  0  0  0  0
 22 21  2  0  0  0  0
 25 30  1  1  0  0  0
 25 24  1  0  0  0  0
 25 28  1  0  0  0  0
 26 27  1  0  0  0  0
 28 26  1  0  0  0  0
 29 26  2  0  0  0  0
 31 32  1  0  0  0  0
 31 30  1  0  0  0  0
M  END
>  <MODEL>
3

>  <REMARK>
 VINA RESULT:      -6.9      2.905      5.182
  Name = 
  10 active torsions:
  status: ('A' for Active; 'I' for Inactive)
    1  A    between atoms: C_1  and  C_10
    2  A    between atoms: O_2  and  C_12
    3  A    between atoms: O_2  and  C_24
    4  A    between atoms: C_6  and  C_7
    5  A    between atoms: C_7  and  C_32
    6  A    between atoms: C_10  and  C_24
    7  A    between atoms: C_12  and  C_21
    8  A    between atoms: N_16  and  C_27
    9  A    between atoms: N_22  and  C_32
   10  A    between atoms: C_27  and  C_32
                            x       y       z     vdW  Elec       q    Type
                         _______ _______ _______ _____ _____    ______ ____

>  <TORSDO>
F 10

$$$$
=
 OpenBabel11052421353D

 32 35  0  0  1  0  0  0  0  0999 V2000
  188.9900  175.5690  143.4990 C   0  0  0  0  0  0  0  0  0  0  0  0
  190.6560  177.0200  147.8700 C   0  0  0  0  0  2  0  0  0  0  0  0
  191.4860  175.7490  147.9770 C   0  0  0  0  0  2  0  0  0  0  0  0
  187.3790  177.0520  142.3960 C   0  0  0  0  0  0  0  0  0  0  0  0
  187.8460  177.4610  144.7750 C   0  0  0  0  0  3  0  0  0  0  0  0
  189.3560  176.7330  147.1290 C   0  0  0  0  0  2  0  0  0  0  0  0
  188.8530  176.3730  144.7330 C   0  0  0  0  0  0  0  0  0  0  0  0
  189.6210  176.0800  145.7980 C   0  0  0  0  0  0  0  0  0  0  0  0
  191.0270  174.5990  144.3640 N   0  0  0  0  0  0  0  0  0  0  0  0
  187.6160  177.9520  141.2030 C   0  0  0  0  0  2  0  0  0  0  0  0
  187.1360  177.7910  143.6900 C   0  0  0  0  0  0  0  0  0  0  0  0
  186.3400  177.1240  141.2970 C   0  0  0  0  0  2  0  0  0  0  0  0
  191.8620  175.2760  146.5800 C   0  0  0  0  0  2  0  0  0  0  0  0
  190.6190  174.9240  145.7470 C   0  0  1  0  0  3  0  0  0  0  0  0
  188.2780  175.8540  142.4080 C   0  0  0  0  0  3  0  0  0  0  0  0
  189.8450  174.3500  143.5380 C   0  0  0  0  0  2  0  0  0  0  0  0
  186.0930  178.8570  143.7980 C   0  0  0  0  0  2  0  0  0  0  0  0
  184.8690  178.2920  144.1600 O   0  0  0  0  0  0  0  0  0  0  0  0
  184.4550  179.0340  145.2650 C   0  0  0  0  0  2  0  0  0  0  0  0
  184.3000  178.1130  146.4600 C   0  0  0  0  0  2  0  0  0  0  0  0
  185.4440  178.2970  147.3920 C   0  0  0  0  0  0  0  0  0  0  0  0
  185.9900  177.2960  147.9220 O   0  0  0  0  0  1  0  0  0  0  0  0
  185.9310  179.5710  147.6540 O   0  0  0  0  0  0  0  0  0  0  0  0
  191.7610  173.3360  144.3890 C   0  0  0  0  0  2  0  0  0  0  0  0
  192.9850  173.3810  143.4680 C   0  0  1  0  0  3  0  0  0  0  0  0
  194.3360  175.5310  143.4780 C   0  0  0  0  0  0  0  0  0  0  0  0
  195.3790  176.3650  144.1290 C   0  0  0  0  0  1  0  0  0  0  0  0
  194.0210  174.2460  144.0200 N   0  0  0  0  0  2  0  0  0  0  0  0
  193.7360  175.9680  142.4210 N   0  0  0  0  0  2  0  0  0  0  0  0
  193.5560  171.9880  143.2310 C   0  0  0  0  0  2  0  0  0  0  0  0
  193.2370  171.0540  144.3880 C   0  0  0  0  0  2  0  0  0  0  0  0
  194.4390  170.9120  145.3030 C   0  0  0  0  0  1  0  0  0  0  0  0
  1 16  1  0  0  0  0
  1  7  1  0  0  0  0
  2  3  1  0  0  0  0
  4 15  1  0  0  0  0
  4 11  1  0  0  0  0
  6  2  1  0  0  0  0
  7  5  1  0  0  0  0
  7  8  2  0  0  0  0
  8  6  1  0  0  0  0
  9 24  1  0  0  0  0
  9 14  1  0  0  0  0
 10 12  1  0  0  0  0
 10  4  1  0  0  0  0
 11 17  1  0  0  0  0
 11  5  2  0  0  0  0
 12  4  1  0  0  0  0
 13  3  1  0  0  0  0
 14  8  1  0  0  0  0
 14 13  1  1  0  0  0
 15  1  2  0  0  0  0
 16  9  1  0  0  0  0
 17 18  1  0  0  0  0
 18 19  1  0  0  0  0
 19 20  1  0  0  0  0
 20 21  1  0  0  0  0
 21 23  2  0  0  0  0
 21 22  1  0  0  0  0
 25 30  1  1  0  0  0
 25 28  1  0  0  0  0
 25 24  1  0  0  0  0
 26 28  1  0  0  0  0
 26 27  1  0  0  0  0
 29 26  2  0  0  0  0
 30 31  1  0  0  0  0
 31 32  1  0  0  0  0
M  END
>  <MODEL>
4

>  <REMARK>
 VINA RESULT:      -6.8      2.780      5.196
  Name = 
  10 active torsions:
  status: ('A' for Active; 'I' for Inactive)
    1  A    between atoms: C_1  and  C_10
    2  A    between atoms: O_2  and  C_12
    3  A    between atoms: O_2  and  C_24
    4  A    between atoms: C_6  and  C_7
    5  A    between atoms: C_7  and  C_32
    6  A    between atoms: C_10  and  C_24
    7  A    between atoms: C_12  and  C_21
    8  A    between atoms: N_16  and  C_27
    9  A    between atoms: N_22  and  C_32
   10  A    between atoms: C_27  and  C_32
                            x       y       z     vdW  Elec       q    Type
                         _______ _______ _______ _____ _____    ______ ____

>  <TORSDO>
F 10

$$$$
=
 OpenBabel11052421353D

 32 35  0  0  1  0  0  0  0  0999 V2000
  189.3130  175.7010  143.2900 C   0  0  0  0  0  0  0  0  0  0  0  0
  190.5870  176.9800  147.8420 C   0  0  0  0  0  2  0  0  0  0  0  0
  191.5610  175.8120  147.8990 C   0  0  0  0  0  2  0  0  0  0  0  0
  187.5850  177.0670  142.2130 C   0  0  0  0  0  0  0  0  0  0  0  0
  187.8890  177.3350  144.6380 C   0  0  0  0  0  3  0  0  0  0  0  0
  189.3670  176.6020  147.0120 C   0  0  0  0  0  2  0  0  0  0  0  0
  189.0220  176.3800  144.5710 C   0  0  0  0  0  0  0  0  0  0  0  0
  189.7710  176.0960  145.6520 C   0  0  0  0  0  0  0  0  0  0  0  0
  191.4120  174.9120  144.1910 N   0  0  0  0  0  0  0  0  0  0  0  0
  187.7640  178.0820  141.1060 C   0  0  0  0  0  2  0  0  0  0  0  0
  187.1940  177.6650  143.5440 C   0  0  0  0  0  0  0  0  0  0  0  0
  186.5960  177.1040  141.0670 C   0  0  0  0  0  2  0  0  0  0  0  0
  192.0550  175.5020  146.4930 C   0  0  0  0  0  2  0  0  0  0  0  0
  190.9050  175.0730  145.5690 C   0  0  1  0  0  3  0  0  0  0  0  0
  188.6220  175.9870  142.1850 C   0  0  0  0  0  3  0  0  0  0  0  0
  190.3080  174.5930  143.2850 C   0  0  0  0  0  2  0  0  0  0  0  0
  186.0240  178.5870  143.6730 C   0  0  0  0  0  2  0  0  0  0  0  0
  184.9820  177.9460  144.3440 O   0  0  0  0  0  0  0  0  0  0  0  0
  184.3680  178.9550  145.0820 C   0  0  0  0  0  2  0  0  0  0  0  0
  184.0950  178.4570  146.4880 C   0  0  0  0  0  2  0  0  0  0  0  0
  185.3700  178.3720  147.2500 C   0  0  0  0  0  0  0  0  0  0  0  0
  185.9420  179.4230  147.6380 O   0  0  0  0  0  1  0  0  0  0  0  0
  185.9140  177.1330  147.5600 O   0  0  0  0  0  0  0  0  0  0  0  0
  192.2940  173.7470  144.1610 C   0  0  0  0  0  2  0  0  0  0  0  0
  193.6920  174.1160  143.6540 C   0  0  1  0  0  3  0  0  0  0  0  0
  195.7110  174.3960  145.1670 C   0  0  0  0  0  0  0  0  0  0  0  0
  196.7010  173.7710  146.0820 C   0  0  0  0  0  1  0  0  0  0  0  0
  194.7230  173.5790  144.5330 N   0  0  0  0  0  2  0  0  0  0  0  0
  195.7620  175.6670  144.9420 N   0  0  0  0  0  2  0  0  0  0  0  0
  193.9200  173.6120  142.2330 C   0  0  0  0  0  2  0  0  0  0  0  0
  193.6000  174.6890  141.2070 C   0  0  0  0  0  2  0  0  0  0  0  0
  194.1780  176.0240  141.6410 C   0  0  0  0  0  1  0  0  0  0  0  0
  1  7  1  0  0  0  0
  2  3  1  0  0  0  0
  4 11  1  0  0  0  0
  6  2  1  0  0  0  0
  7  5  1  0  0  0  0
  7  8  2  0  0  0  0
  8  6  1  0  0  0  0
  9 14  1  0  0  0  0
 10  4  1  0  0  0  0
 11 17  1  0  0  0  0
 11  5  2  0  0  0  0
 12 10  1  0  0  0  0
 12  4  1  0  0  0  0
 13  3  1  0  0  0  0
 14  8  1  0  0  0  0
 14 13  1  1  0  0  0
 15  4  1  0  0  0  0
 15  1  2  0  0  0  0
 16  1  1  0  0  0  0
 16  9  1  0  0  0  0
 17 18  1  0  0  0  0
 18 19  1  0  0  0  0
 19 20  1  0  0  0  0
 20 21  1  0  0  0  0
 21 23  2  0  0  0  0
 21 22  1  0  0  0  0
 24  9  1  0  0  0  0
 25 30  1  6  0  0  0
 25 24  1  0  0  0  0
 25 28  1  0  0  0  0
 26 27  1  0  0  0  0
 28 26  1  0  0  0  0
 29 26  2  0  0  0  0
 31 32  1  0  0  0  0
 31 30  1  0  0  0  0
M  END
>  <MODEL>
5

>  <REMARK>
 VINA RESULT:      -6.8      2.754      5.126
  Name = 
  10 active torsions:
  status: ('A' for Active; 'I' for Inactive)
    1  A    between atoms: C_1  and  C_10
    2  A    between atoms: O_2  and  C_12
    3  A    between atoms: O_2  and  C_24
    4  A    between atoms: C_6  and  C_7
    5  A    between atoms: C_7  and  C_32
    6  A    between atoms: C_10  and  C_24
    7  A    between atoms: C_12  and  C_21
    8  A    between atoms: N_16  and  C_27
    9  A    between atoms: N_22  and  C_32
   10  A    between atoms: C_27  and  C_32
                            x       y       z     vdW  Elec       q    Type
                         _______ _______ _______ _____ _____    ______ ____

>  <TORSDO>
F 10

$$$$
=
 OpenBabel11052421353D

 32 35  0  0  1  0  0  0  0  0999 V2000
  188.1960  177.1520  143.8790 C   0  0  0  0  0  0  0  0  0  0  0  0
  188.4410  174.0200  140.1210 C   0  0  0  0  0  2  0  0  0  0  0  0
  189.9230  173.8080  140.3930 C   0  0  0  0  0  2  0  0  0  0  0  0
  186.0160  178.1980  144.2900 C   0  0  0  0  0  0  0  0  0  0  0  0
  186.3260  177.0380  142.1440 C   0  0  0  0  0  3  0  0  0  0  0  0
  188.0500  175.4570  140.4470 C   0  0  0  0  0  2  0  0  0  0  0  0
  187.6790  176.6300  142.5940 C   0  0  0  0  0  0  0  0  0  0  0  0
  188.4580  175.8250  141.8500 C   0  0  0  0  0  0  0  0  0  0  0  0
  190.0230  175.5750  143.7770 N   0  0  0  0  0  0  0  0  0  0  0  0
  185.0430  177.9000  145.4090 C   0  0  0  0  0  2  0  0  0  0  0  0
  185.5310  177.7820  142.9210 C   0  0  0  0  0  0  0  0  0  0  0  0
  185.3270  179.3410  145.0030 C   0  0  0  0  0  2  0  0  0  0  0  0
  190.1960  174.0200  141.8750 C   0  0  0  0  0  2  0  0  0  0  0  0
  189.8680  175.4560  142.3120 C   0  0  1  0  0  3  0  0  0  0  0  0
  187.4390  177.9180  144.6660 C   0  0  0  0  0  3  0  0  0  0  0  0
  189.6260  176.9120  144.2170 C   0  0  0  0  0  2  0  0  0  0  0  0
  184.1980  178.2150  142.4000 C   0  0  0  0  0  2  0  0  0  0  0  0
  184.1980  178.1840  141.0050 O   0  0  0  0  0  0  0  0  0  0  0  0
  182.8570  178.3170  140.6520 C   0  0  0  0  0  2  0  0  0  0  0  0
  182.0100  178.3910  141.9070 C   0  0  0  0  0  2  0  0  0  0  0  0
  180.6810  178.9770  141.5860 C   0  0  0  0  0  0  0  0  0  0  0  0
  179.6830  178.6970  142.3000 O   0  0  0  0  0  1  0  0  0  0  0  0
  180.5460  179.8540  140.5190 O   0  0  0  0  0  0  0  0  0  0  0  0
  191.4450  175.4620  144.0960 C   0  0  0  0  0  2  0  0  0  0  0  0
  191.6920  174.4230  145.1940 C   0  0  1  0  0  3  0  0  0  0  0  0
  191.6340  172.0250  144.3630 C   0  0  0  0  0  0  0  0  0  0  0  0
  192.3660  170.8740  143.7710 C   0  0  0  0  0  1  0  0  0  0  0  0
  192.3390  173.2350  144.6510 N   0  0  0  0  0  2  0  0  0  0  0  0
  190.3740  171.9150  144.6250 N   0  0  0  0  0  2  0  0  0  0  0  0
  192.5410  174.9960  146.3240 C   0  0  0  0  0  2  0  0  0  0  0  0
  191.7340  175.9470  147.1940 C   0  0  0  0  0  2  0  0  0  0  0  0
  190.4320  175.2980  147.6230 C   0  0  0  0  0  1  0  0  0  0  0  0
  1 16  1  0  0  0  0
  1 15  2  0  0  0  0
  2  3  1  0  0  0  0
  2  6  1  0  0  0  0
  3 13  1  0  0  0  0
  4 15  1  0  0  0  0
  4 12  1  0  0  0  0
  4 10  1  0  0  0  0
  5  7  1  0  0  0  0
  5 11  2  0  0  0  0
  6  8  1  0  0  0  0
  7  1  1  0  0  0  0
  8 14  1  0  0  0  0
  8  7  2  0  0  0  0
  9 24  1  0  0  0  0
  9 16  1  0  0  0  0
 11  4  1  0  0  0  0
 12 10  1  0  0  0  0
 14 13  1  1  0  0  0
 14  9  1  0  0  0  0
 17 11  1  0  0  0  0
 18 17  1  0  0  0  0
 19 18  1  0  0  0  0
 19 20  1  0  0  0  0
 21 20  1  0  0  0  0
 21 22  1  0  0  0  0
 23 21  2  0  0  0  0
 25 24  1  6  0  0  0
 25 30  1  0  0  0  0
 26 29  2  0  0  0  0
 26 28  1  0  0  0  0
 27 26  1  0  0  0  0
 28 25  1  0  0  0  0
 30 31  1  0  0  0  0
 31 32  1  0  0  0  0
M  END
>  <MODEL>
6

>  <REMARK>
 VINA RESULT:      -6.8      1.348      2.088
  Name = 
  10 active torsions:
  status: ('A' for Active; 'I' for Inactive)
    1  A    between atoms: C_1  and  C_10
    2  A    between atoms: O_2  and  C_12
    3  A    between atoms: O_2  and  C_24
    4  A    between atoms: C_6  and  C_7
    5  A    between atoms: C_7  and  C_32
    6  A    between atoms: C_10  and  C_24
    7  A    between atoms: C_12  and  C_21
    8  A    between atoms: N_16  and  C_27
    9  A    between atoms: N_22  and  C_32
   10  A    between atoms: C_27  and  C_32
                            x       y       z     vdW  Elec       q    Type
                         _______ _______ _______ _____ _____    ______ ____

>  <TORSDO>
F 10

$$$$
=
 OpenBabel11052421353D

 32 35  0  0  1  0  0  0  0  0999 V2000
  188.5250  175.4740  143.5000 C   0  0  0  0  0  0  0  0  0  0  0  0
  190.5750  177.1570  147.6170 C   0  0  0  0  0  2  0  0  0  0  0  0
  191.1780  175.7850  147.8800 C   0  0  0  0  0  2  0  0  0  0  0  0
  187.1530  177.0630  142.2330 C   0  0  0  0  0  0  0  0  0  0  0  0
  187.7710  177.6850  144.5310 C   0  0  0  0  0  3  0  0  0  0  0  0
  189.2190  177.0110  146.9390 C   0  0  0  0  0  2  0  0  0  0  0  0
  188.5740  176.4410  144.6190 C   0  0  0  0  0  0  0  0  0  0  0  0
  189.3190  176.1570  145.7020 C   0  0  0  0  0  0  0  0  0  0  0  0
  190.3960  174.2820  144.4580 N   0  0  0  0  0  0  0  0  0  0  0  0
  187.4970  177.7480  140.9290 C   0  0  0  0  0  2  0  0  0  0  0  0
  187.0890  177.9930  143.4220 C   0  0  0  0  0  0  0  0  0  0  0  0
  186.1030  177.1740  141.1490 C   0  0  0  0  0  2  0  0  0  0  0  0
  191.4160  175.0800  146.5520 C   0  0  0  0  0  2  0  0  0  0  0  0
  190.1020  174.8470  145.7910 C   0  0  1  0  0  3  0  0  0  0  0  0
  187.8330  175.7380  142.3910 C   0  0  0  0  0  3  0  0  0  0  0  0
  189.1600  174.1400  143.6880 C   0  0  0  0  0  2  0  0  0  0  0  0
  186.2480  179.2290  143.4020 C   0  0  0  0  0  2  0  0  0  0  0  0
  185.7500  179.4890  144.6790 O   0  0  0  0  0  0  0  0  0  0  0  0
  184.4980  178.8760  144.6980 C   0  0  0  0  0  2  0  0  0  0  0  0
  184.0610  178.6660  146.1340 C   0  0  0  0  0  2  0  0  0  0  0  0
  185.0220  177.7670  146.8280 C   0  0  0  0  0  0  0  0  0  0  0  0
  185.0840  176.5500  146.5140 O   0  0  0  0  0  0  0  0  0  0  0  0
  185.8720  178.2750  147.8010 O   0  0  0  0  0  1  0  0  0  0  0  0
  190.9040  172.9230  144.6390 C   0  0  0  0  0  2  0  0  0  0  0  0
  192.4160  172.8550  144.4070 C   0  0  1  0  0  3  0  0  0  0  0  0
  193.9540  170.8980  144.9090 C   0  0  0  0  0  0  0  0  0  0  0  0
  194.3030  169.4720  144.6750 C   0  0  0  0  0  1  0  0  0  0  0  0
  192.8510  171.4770  144.2080 N   0  0  0  0  0  2  0  0  0  0  0  0
  194.6600  171.6020  145.7310 N   0  0  0  0  0  2  0  0  0  0  0  0
  192.8360  173.7000  143.2100 C   0  0  0  0  0  2  0  0  0  0  0  0
  193.8670  174.7460  143.6070 C   0  0  0  0  0  2  0  0  0  0  0  0
  193.5070  176.0970  143.0170 C   0  0  0  0  0  1  0  0  0  0  0  0
  1 16  1  0  0  0  0
  1  7  1  0  0  0  0
  2  3  1  0  0  0  0
  4 15  1  0  0  0  0
  4 11  1  0  0  0  0
  5  7  1  0  0  0  0
  6  2  1  0  0  0  0
  7  8  2  0  0  0  0
  8 14  1  0  0  0  0
  8  6  1  0  0  0  0
  9 24  1  0  0  0  0
  9 14  1  0  0  0  0
 10 12  1  0  0  0  0
 10  4  1  0  0  0  0
 11  5  2  0  0  0  0
 12  4  1  0  0  0  0
 13  3  1  0  0  0  0
 14 13  1  6  0  0  0
 15  1  2  0  0  0  0
 16  9  1  0  0  0  0
 17 11  1  0  0  0  0
 17 18  1  0  0  0  0
 18 19  1  0  0  0  0
 19 20  1  0  0  0  0
 20 21  1  0  0  0  0
 21 23  1  0  0  0  0
 22 21  2  0  0  0  0
 25 30  1  6  0  0  0
 25 24  1  0  0  0  0
 26 29  2  0  0  0  0
 27 26  1  0  0  0  0
 28 25  1  0  0  0  0
 28 26  1  0  0  0  0
 30 31  1  0  0  0  0
 32 31  1  0  0  0  0
M  END
>  <MODEL>
7

>  <REMARK>
 VINA RESULT:      -6.7      2.952      5.014
  Name = 
  10 active torsions:
  status: ('A' for Active; 'I' for Inactive)
    1  A    between atoms: C_1  and  C_10
    2  A    between atoms: O_2  and  C_12
    3  A    between atoms: O_2  and  C_24
    4  A    between atoms: C_6  and  C_7
    5  A    between atoms: C_7  and  C_32
    6  A    between atoms: C_10  and  C_24
    7  A    between atoms: C_12  and  C_21
    8  A    between atoms: N_16  and  C_27
    9  A    between atoms: N_22  and  C_32
   10  A    between atoms: C_27  and  C_32
                            x       y       z     vdW  Elec       q    Type
                         _______ _______ _______ _____ _____    ______ ____

>  <TORSDO>
F 10

$$$$
=
 OpenBabel11052421353D

 32 35  0  0  1  0  0  0  0  0999 V2000
  188.6540  175.5550  143.5040 C   0  0  0  0  0  0  0  0  0  0  0  0
  190.5450  177.2960  147.6730 C   0  0  0  0  0  2  0  0  0  0  0  0
  191.1960  175.9470  147.9420 C   0  0  0  0  0  2  0  0  0  0  0  0
  187.2480  177.0960  142.2140 C   0  0  0  0  0  0  0  0  0  0  0  0
  187.7900  177.7290  144.5270 C   0  0  0  0  0  3  0  0  0  0  0  0
  189.2100  177.1000  146.9640 C   0  0  0  0  0  2  0  0  0  0  0  0
  188.6400  176.5170  144.6280 C   0  0  0  0  0  0  0  0  0  0  0  0
  189.3720  176.2570  145.7260 C   0  0  0  0  0  0  0  0  0  0  0  0
  190.5490  174.4320  144.4970 N   0  0  0  0  0  0  0  0  0  0  0  0
  187.5930  177.8000  140.9210 C   0  0  0  0  0  2  0  0  0  0  0  0
  187.1210  178.0150  143.4050 C   0  0  0  0  0  0  0  0  0  0  0  0
  186.2180  177.1710  141.1070 C   0  0  0  0  0  2  0  0  0  0  0  0
  191.4900  175.2590  146.6170 C   0  0  0  0  0  2  0  0  0  0  0  0
  190.2030  174.9780  145.8260 C   0  0  1  0  0  3  0  0  0  0  0  0
  187.9760  175.7980  142.3810 C   0  0  0  0  0  3  0  0  0  0  0  0
  189.3360  174.2460  143.7000 C   0  0  0  0  0  2  0  0  0  0  0  0
  186.2330  179.2180  143.3720 C   0  0  0  0  0  2  0  0  0  0  0  0
  185.7310  179.4760  144.6480 O   0  0  0  0  0  0  0  0  0  0  0  0
  184.4650  178.8940  144.6500 C   0  0  0  0  0  2  0  0  0  0  0  0
  184.0220  178.6550  146.0810 C   0  0  0  0  0  2  0  0  0  0  0  0
  185.0100  177.7880  146.7770 C   0  0  0  0  0  0  0  0  0  0  0  0
  185.1130  176.5740  146.4630 O   0  0  0  0  0  0  0  0  0  0  0  0
  185.8390  178.3230  147.7530 O   0  0  0  0  0  1  0  0  0  0  0  0
  191.1060  173.0940  144.6830 C   0  0  0  0  0  2  0  0  0  0  0  0
  192.2970  172.8480  143.7510 C   0  0  1  0  0  3  0  0  0  0  0  0
  191.9860  170.9900  142.0490 C   0  0  0  0  0  0  0  0  0  0  0  0
  191.4650  170.5640  140.7240 C   0  0  0  0  0  1  0  0  0  0  0  0
  191.8500  172.3540  142.4540 N   0  0  0  0  0  2  0  0  0  0  0  0
  192.5690  170.1280  142.8130 N   0  0  0  0  0  2  0  0  0  0  0  0
  193.1250  174.1130  143.5590 C   0  0  0  0  0  2  0  0  0  0  0  0
  194.5870  173.8740  143.9060 C   0  0  0  0  0  2  0  0  0  0  0  0
  194.8250  174.1030  145.3870 C   0  0  0  0  0  1  0  0  0  0  0  0
  1 16  1  0  0  0  0
  1  7  1  0  0  0  0
  2  3  1  0  0  0  0
  4 15  1  0  0  0  0
  4 11  1  0  0  0  0
  5  7  1  0  0  0  0
  6  2  1  0  0  0  0
  7  8  2  0  0  0  0
  8 14  1  0  0  0  0
  8  6  1  0  0  0  0
  9 24  1  0  0  0  0
  9 14  1  0  0  0  0
 10 12  1  0  0  0  0
 10  4  1  0  0  0  0
 11  5  2  0  0  0  0
 12  4  1  0  0  0  0
 13  3  1  0  0  0  0
 14 13  1  6  0  0  0
 15  1  2  0  0  0  0
 16  9  1  0  0  0  0
 17 11  1  0  0  0  0
 17 18  1  0  0  0  0
 18 19  1  0  0  0  0
 19 20  1  0  0  0  0
 20 21  1  0  0  0  0
 21 23  1  0  0  0  0
 22 21  2  0  0  0  0
 25 30  1  6  0  0  0
 25 24  1  0  0  0  0
 26 28  1  0  0  0  0
 26 29  2  0  0  0  0
 27 26  1  0  0  0  0
 28 25  1  0  0  0  0
 30 31  1  0  0  0  0
 31 32  1  0  0  0  0
M  END
>  <MODEL>
8

>  <REMARK>
 VINA RESULT:      -6.6      2.894      5.121
  Name = 
  10 active torsions:
  status: ('A' for Active; 'I' for Inactive)
    1  A    between atoms: C_1  and  C_10
    2  A    between atoms: O_2  and  C_12
    3  A    between atoms: O_2  and  C_24
    4  A    between atoms: C_6  and  C_7
    5  A    between atoms: C_7  and  C_32
    6  A    between atoms: C_10  and  C_24
    7  A    between atoms: C_12  and  C_21
    8  A    between atoms: N_16  and  C_27
    9  A    between atoms: N_22  and  C_32
   10  A    between atoms: C_27  and  C_32
                            x       y       z     vdW  Elec       q    Type
                         _______ _______ _______ _____ _____    ______ ____

>  <TORSDO>
F 10

$$$$
=
 OpenBabel11052421353D

 32 35  0  0  1  0  0  0  0  0999 V2000
  188.5270  175.3040  142.2590 C   0  0  0  0  0  0  0  0  0  0  0  0
  190.4400  176.7900  146.5150 C   0  0  0  0  0  2  0  0  0  0  0  0
  189.1360  177.4980  146.8560 C   0  0  0  0  0  2  0  0  0  0  0  0
  189.9990  173.9990  140.7950 C   0  0  0  0  0  0  0  0  0  0  0  0
  191.0440  175.1910  142.6750 C   0  0  0  0  0  3  0  0  0  0  0  0
  190.6910  176.8520  145.0140 C   0  0  0  0  0  2  0  0  0  0  0  0
  189.6940  175.6240  143.1110 C   0  0  0  0  0  0  0  0  0  0  0  0
  189.5080  176.3260  144.2430 C   0  0  0  0  0  0  0  0  0  0  0  0
  187.0460  175.9780  144.0450 N   0  0  0  0  0  0  0  0  0  0  0  0
  189.9440  172.5140  140.5130 C   0  0  0  0  0  2  0  0  0  0  0  0
  191.2110  174.4340  141.5850 C   0  0  0  0  0  0  0  0  0  0  0  0
  190.1800  173.5010  139.3770 C   0  0  0  0  0  2  0  0  0  0  0  0
  187.9810  176.7740  146.1790 C   0  0  0  0  0  2  0  0  0  0  0  0
  188.1130  176.8020  144.6480 C   0  0  1  0  0  3  0  0  0  0  0  0
  188.6630  174.5730  141.1510 C   0  0  0  0  0  3  0  0  0  0  0  0
  187.2150  175.9230  142.5920 C   0  0  0  0  0  2  0  0  0  0  0  0
  192.5960  174.0710  141.1540 C   0  0  0  0  0  2  0  0  0  0  0  0
  193.5090  175.0040  141.6480 O   0  0  0  0  0  0  0  0  0  0  0  0
  194.5810  174.2370  142.1030 C   0  0  0  0  0  2  0  0  0  0  0  0
  194.7880  174.4900  143.5830 C   0  0  0  0  0  2  0  0  0  0  0  0
  194.9580  175.9480  143.8280 C   0  0  0  0  0  0  0  0  0  0  0  0
  194.0770  176.5860  144.4590 O   0  0  0  0  0  1  0  0  0  0  0  0
  196.1020  176.5990  143.3870 O   0  0  0  0  0  0  0  0  0  0  0  0
  185.7680  176.6520  144.2660 C   0  0  0  0  0  2  0  0  0  0  0  0
  185.6660  177.9440  143.4480 C   0  0  1  0  0  3  0  0  0  0  0  0
  184.4050  178.1810  141.2580 C   0  0  0  0  0  0  0  0  0  0  0  0
  183.1040  178.1550  140.5390 C   0  0  0  0  0  1  0  0  0  0  0  0
  184.4320  177.9730  142.6720 N   0  0  0  0  0  2  0  0  0  0  0  0
  185.4930  178.4060  140.6010 N   0  0  0  0  0  2  0  0  0  0  0  0
  185.7370  179.1760  144.3420 C   0  0  0  0  0  2  0  0  0  0  0  0
  184.8240  179.0370  145.5500 C   0  0  0  0  0  2  0  0  0  0  0  0
  185.6040  179.2570  146.8330 C   0  0  0  0  0  1  0  0  0  0  0  0
  1 16  1  0  0  0  0
  1  7  1  0  0  0  0
  2  3  1  0  0  0  0
  4 15  1  0  0  0  0
  4 11  1  0  0  0  0
  5  7  1  0  0  0  0
  6  2  1  0  0  0  0
  7  8  2  0  0  0  0
  8 14  1  0  0  0  0
  8  6  1  0  0  0  0
  9 24  1  0  0  0  0
  9 14  1  0  0  0  0
 10  4  1  0  0  0  0
 11  5  2  0  0  0  0
 12 10  1  0  0  0  0
 12  4  1  0  0  0  0
 13  3  1  0  0  0  0
 14 13  1  1  0  0  0
 15  1  2  0  0  0  0
 16  9  1  0  0  0  0
 17 11  1  0  0  0  0
 17 18  1  0  0  0  0
 18 19  1  0  0  0  0
 19 20  1  0  0  0  0
 20 21  1  0  0  0  0
 21 22  1  0  0  0  0
 23 21  2  0  0  0  0
 25 24  1  1  0  0  0
 25 30  1  0  0  0  0
 26 28  1  0  0  0  0
 27 26  1  0  0  0  0
 28 25  1  0  0  0  0
 29 26  2  0  0  0  0
 30 31  1  0  0  0  0
 31 32  1  0  0  0  0
M  END
>  <MODEL>
9

>  <REMARK>
 VINA RESULT:      -6.5      4.368      8.670
  Name = 
  10 active torsions:
  status: ('A' for Active; 'I' for Inactive)
    1  A    between atoms: C_1  and  C_10
    2  A    between atoms: O_2  and  C_12
    3  A    between atoms: O_2  and  C_24
    4  A    between atoms: C_6  and  C_7
    5  A    between atoms: C_7  and  C_32
    6  A    between atoms: C_10  and  C_24
    7  A    between atoms: C_12  and  C_21
    8  A    between atoms: N_16  and  C_27
    9  A    between atoms: N_22  and  C_32
   10  A    between atoms: C_27  and  C_32
                            x       y       z     vdW  Elec       q    Type
                         _______ _______ _______ _____ _____    ______ ____

>  <TORSDO>
F 10

$$$$
