=
 OpenBabel11052417513D

 31 35  0  0  0  0  0  0  0  0999 V2000
  187.4370  177.3580  144.3830 C   0  0  0  0  0  0  0  0  0  0  0  0
  186.5790  177.7470  145.4370 C   0  0  0  0  0  0  0  0  0  0  0  0
  184.4860  178.5730  146.2170 C   0  0  0  0  0  0  0  0  0  0  0  0
  187.0780  177.3970  143.0220 C   0  0  0  0  0  0  0  0  0  0  0  0
  186.0910  177.6280  141.0840 C   0  0  0  0  0  0  0  0  0  0  0  0
  185.3140  178.1980  145.2050 N   0  0  0  0  0  2  0  0  0  0  0  0
  189.6330  176.4980  143.6640 C   0  0  0  0  0  0  0  0  0  0  0  0
  188.3050  177.2200  147.0270 N   0  0  0  0  0  0  0  0  0  0  0  0
  183.3260  178.9840  145.9590 O   0  0  0  0  0  0  0  0  0  0  0  0
  189.1980  176.5670  142.3320 C   0  0  0  0  0  3  0  0  0  0  0  0
  188.7460  176.8960  144.6920 C   0  0  0  0  0  0  0  0  0  0  0  0
  185.8820  177.7990  142.4490 C   0  0  0  0  0  3  0  0  0  0  0  0
  184.9210  178.5030  147.5420 C   0  0  0  0  0  3  0  0  0  0  0  0
  187.9470  177.0120  142.0710 N   0  0  0  0  0  0  0  0  0  0  0  0
  187.3690  177.1420  140.8690 C   0  0  0  0  0  3  0  0  0  0  0  0
  189.1480  176.8400  146.0330 C   0  0  0  0  0  3  0  0  0  0  0  0
  187.0500  177.6650  146.7660 C   0  0  0  0  0  0  0  0  0  0  0  0
  186.2110  178.0460  147.8140 C   0  0  0  0  0  3  0  0  0  0  0  0
  192.1280  178.0440  143.7950 O   0  0  0  0  0  0  0  0  0  0  0  0
  192.1600  176.8120  144.0530 C   0  0  0  0  0  0  0  0  0  0  0  0
  190.9530  176.0340  143.9960 N   0  0  0  0  0  2  0  0  0  0  0  0
  195.8850  174.8590  144.9560 C   0  0  0  0  0  0  0  0  0  0  0  0
  194.2620  175.6970  143.3760 C   0  0  0  0  0  3  0  0  0  0  0  0
  192.9330  176.4380  147.1660 Cl  0  0  0  0  0  0  0  0  0  0  0  0
  197.1770  174.1820  145.2390 C   0  0  0  0  0  1  0  0  0  0  0  0
  195.4760  175.0600  143.6390 C   0  0  0  0  0  3  0  0  0  0  0  0
  193.8610  175.9340  145.7570 C   0  0  0  0  0  0  0  0  0  0  0  0
  193.4350  176.1440  144.4190 C   0  0  0  0  0  0  0  0  0  0  0  0
  195.0790  175.2940  146.0080 C   0  0  0  0  0  3  0  0  0  0  0  0
  185.1220  177.9130  140.0240 C   0  0  0  0  0  3  0  0  0  0  0  0
  183.9150  178.2780  140.3060 N   0  0  0  0  0  2  0  0  0  0  0  0
  1 11  2  0  0  0  0
  1  2  1  0  0  0  0
  2 17  2  0  0  0  0
  3 13  1  0  0  0  0
  4  1  1  0  0  0  0
  5 12  1  0  0  0  0
  6  2  1  0  0  0  0
  6  3  1  0  0  0  0
  7 21  1  0  0  0  0
  7 11  1  0  0  0  0
  9  3  2  0  0  0  0
 10  7  2  0  0  0  0
 11 16  1  0  0  0  0
 12  4  2  0  0  0  0
 13 18  2  0  0  0  0
 14 10  1  0  0  0  0
 14  4  1  0  0  0  0
 15  5  2  0  0  0  0
 15 14  1  0  0  0  0
 16  8  2  0  0  0  0
 17  8  1  0  0  0  0
 17 18  1  0  0  0  0
 19 20  2  0  0  0  0
 20 28  1  0  0  0  0
 21 20  1  0  0  0  0
 22 25  1  0  0  0  0
 22 29  1  0  0  0  0
 23 26  1  0  0  0  0
 23 28  2  0  0  0  0
 26 22  2  0  0  0  0
 27 29  2  0  0  0  0
 27 24  1  0  0  0  0
 28 27  1  0  0  0  0
 30 31  2  0  0  0  0
 30  5  1  0  0  0  0
M  END
>  <MODEL>
1

>  <REMARK>
 VINA RESULT:      -8.9      0.000      0.000
  Name = 
  3 active torsions:
  status: ('A' for Active; 'I' for Inactive)
    1  A    between atoms: C_2  and  C_13
    2  A    between atoms: C_9  and  C_22
    3  A    between atoms: C_15  and  N_23
                            x       y       z     vdW  Elec       q    Type
                         _______ _______ _______ _____ _____    ______ ____

>  <TORSDO>
F 3

$$$$
=
 OpenBabel11052417513D

 31 35  0  0  0  0  0  0  0  0999 V2000
  187.4630  177.1670  144.3800 C   0  0  0  0  0  0  0  0  0  0  0  0
  186.6030  177.5950  145.4170 C   0  0  0  0  0  0  0  0  0  0  0  0
  184.5330  178.5130  146.1550 C   0  0  0  0  0  0  0  0  0  0  0  0
  187.1310  177.2170  143.0120 C   0  0  0  0  0  0  0  0  0  0  0  0
  186.1910  177.4830  141.0560 C   0  0  0  0  0  0  0  0  0  0  0  0
  185.3630  178.1000  145.1590 N   0  0  0  0  0  2  0  0  0  0  0  0
  189.6320  176.2110  143.7040 C   0  0  0  0  0  0  0  0  0  0  0  0
  188.2750  177.0000  147.0400 N   0  0  0  0  0  0  0  0  0  0  0  0
  183.3970  178.9720  145.8740 O   0  0  0  0  0  0  0  0  0  0  0  0
  189.2260  176.2940  142.3640 C   0  0  0  0  0  3  0  0  0  0  0  0
  188.7450  176.6500  144.7140 C   0  0  0  0  0  0  0  0  0  0  0  0
  185.9640  177.6680  142.4160 C   0  0  0  0  0  3  0  0  0  0  0  0
  184.9400  178.4290  147.4880 C   0  0  0  0  0  3  0  0  0  0  0  0
  188.0000  176.7910  142.0790 N   0  0  0  0  0  0  0  0  0  0  0  0
  187.4500  176.9420  140.8650 C   0  0  0  0  0  3  0  0  0  0  0  0
  189.1190  176.5810  146.0630 C   0  0  0  0  0  3  0  0  0  0  0  0
  187.0450  177.4980  146.7540 C   0  0  0  0  0  0  0  0  0  0  0  0
  186.2040  177.9180  147.7850 C   0  0  0  0  0  3  0  0  0  0  0  0
  192.1690  177.6690  143.9780 O   0  0  0  0  0  0  0  0  0  0  0  0
  192.1530  176.4270  144.1890 C   0  0  0  0  0  0  0  0  0  0  0  0
  190.9250  175.6920  144.0620 N   0  0  0  0  0  2  0  0  0  0  0  0
  195.7320  174.3970  145.4440 C   0  0  0  0  0  0  0  0  0  0  0  0
  193.8710  175.8720  145.8810 C   0  0  0  0  0  3  0  0  0  0  0  0
  193.6410  174.5490  142.0250 Cl  0  0  0  0  0  0  0  0  0  0  0  0
  196.9660  173.7080  145.9040 C   0  0  0  0  0  1  0  0  0  0  0  0
  195.0300  175.2260  146.3160 C   0  0  0  0  0  3  0  0  0  0  0  0
  194.1160  174.8570  143.6910 C   0  0  0  0  0  0  0  0  0  0  0  0
  193.3930  175.7040  144.5710 C   0  0  0  0  0  0  0  0  0  0  0  0
  195.2760  174.2160  144.1380 C   0  0  0  0  0  3  0  0  0  0  0  0
  185.2550  177.8060  139.9760 C   0  0  0  0  0  3  0  0  0  0  0  0
  184.0460  178.1810  140.2340 N   0  0  0  0  0  2  0  0  0  0  0  0
  1 11  2  0  0  0  0
  1  2  1  0  0  0  0
  2 17  2  0  0  0  0
  3 13  1  0  0  0  0
  4  1  1  0  0  0  0
  5 12  1  0  0  0  0
  6  2  1  0  0  0  0
  6  3  1  0  0  0  0
  7 21  1  0  0  0  0
  7 11  1  0  0  0  0
  9  3  2  0  0  0  0
 10  7  2  0  0  0  0
 11 16  1  0  0  0  0
 12  4  2  0  0  0  0
 13 18  2  0  0  0  0
 14 10  1  0  0  0  0
 14  4  1  0  0  0  0
 15  5  2  0  0  0  0
 15 14  1  0  0  0  0
 16  8  2  0  0  0  0
 17  8  1  0  0  0  0
 17 18  1  0  0  0  0
 19 20  2  0  0  0  0
 20 28  1  0  0  0  0
 21 20  1  0  0  0  0
 22 25  1  0  0  0  0
 22 26  1  0  0  0  0
 23 26  2  0  0  0  0
 24 27  1  0  0  0  0
 27 29  1  0  0  0  0
 27 28  2  0  0  0  0
 28 23  1  0  0  0  0
 29 22  2  0  0  0  0
 30 31  2  0  0  0  0
 30  5  1  0  0  0  0
M  END
>  <MODEL>
2

>  <REMARK>
 VINA RESULT:      -8.8      1.063      1.358
  Name = 
  3 active torsions:
  status: ('A' for Active; 'I' for Inactive)
    1  A    between atoms: C_2  and  C_13
    2  A    between atoms: C_9  and  C_22
    3  A    between atoms: C_15  and  N_23
                            x       y       z     vdW  Elec       q    Type
                         _______ _______ _______ _____ _____    ______ ____

>  <TORSDO>
F 3

$$$$
=
 OpenBabel11052417513D

 31 35  0  0  0  0  0  0  0  0999 V2000
  187.3040  177.7880  144.0900 C   0  0  0  0  0  0  0  0  0  0  0  0
  186.6150  177.9410  145.3150 C   0  0  0  0  0  0  0  0  0  0  0  0
  184.6080  178.3300  146.5360 C   0  0  0  0  0  0  0  0  0  0  0  0
  186.6880  177.8670  142.8260 C   0  0  0  0  0  0  0  0  0  0  0  0
  185.3230  178.0700  141.1300 C   0  0  0  0  0  0  0  0  0  0  0  0
  185.2740  178.1820  145.3590 N   0  0  0  0  0  2  0  0  0  0  0  0
  189.4270  177.3790  142.9060 C   0  0  0  0  0  0  0  0  0  0  0  0
  188.6750  177.6020  146.5080 N   0  0  0  0  0  0  0  0  0  0  0  0
  183.3700  178.5510  146.5330 O   0  0  0  0  0  0  0  0  0  0  0  0
  188.7390  177.4720  141.6860 C   0  0  0  0  0  3  0  0  0  0  0  0
  188.7040  177.5370  144.1100 C   0  0  0  0  0  0  0  0  0  0  0  0
  185.3560  178.0980  142.5200 C   0  0  0  0  0  3  0  0  0  0  0  0
  185.2960  178.2360  147.7480 C   0  0  0  0  0  3  0  0  0  0  0  0
  187.4070  177.7120  141.7010 N   0  0  0  0  0  0  0  0  0  0  0  0
  186.5950  177.8300  140.6400 C   0  0  0  0  0  3  0  0  0  0  0  0
  189.3600  177.4500  145.3460 C   0  0  0  0  0  3  0  0  0  0  0  0
  187.3390  177.8410  146.5220 C   0  0  0  0  0  0  0  0  0  0  0  0
  186.6690  177.9900  147.7370 C   0  0  0  0  0  3  0  0  0  0  0  0
  190.8180  174.7900  142.8960 O   0  0  0  0  0  0  0  0  0  0  0  0
  191.4990  175.8490  142.9410 C   0  0  0  0  0  0  0  0  0  0  0  0
  190.8420  177.1270  142.9470 N   0  0  0  0  0  2  0  0  0  0  0  0
  195.7910  175.7650  143.2250 C   0  0  0  0  0  0  0  0  0  0  0  0
  193.6180  176.2940  144.1380 C   0  0  0  0  0  3  0  0  0  0  0  0
  193.1370  174.6190  140.4450 Cl  0  0  0  0  0  0  0  0  0  0  0  0
  197.2710  175.7490  143.3490 C   0  0  0  0  0  1  0  0  0  0  0  0
  195.0090  176.2800  144.2570 C   0  0  0  0  0  3  0  0  0  0  0  0
  193.7880  175.2750  141.9420 C   0  0  0  0  0  0  0  0  0  0  0  0
  192.9830  175.7970  142.9880 C   0  0  0  0  0  0  0  0  0  0  0  0
  195.1810  175.2670  142.0740 C   0  0  0  0  0  3  0  0  0  0  0  0
  184.1360  178.2620  140.2940 C   0  0  0  0  0  3  0  0  0  0  0  0
  182.9490  178.2080  140.8020 N   0  0  0  0  0  2  0  0  0  0  0  0
  1 11  2  0  0  0  0
  1  2  1  0  0  0  0
  2  6  1  0  0  0  0
  2 17  2  0  0  0  0
  3 13  1  0  0  0  0
  4  1  1  0  0  0  0
  5 12  1  0  0  0  0
  6  3  1  0  0  0  0
  7 21  1  0  0  0  0
  7 11  1  0  0  0  0
  8 17  1  0  0  0  0
  9  3  2  0  0  0  0
 10 14  1  0  0  0  0
 10  7  2  0  0  0  0
 11 16  1  0  0  0  0
 12  4  2  0  0  0  0
 14  4  1  0  0  0  0
 15  5  2  0  0  0  0
 15 14  1  0  0  0  0
 16  8  2  0  0  0  0
 17 18  1  0  0  0  0
 18 13  2  0  0  0  0
 19 20  2  0  0  0  0
 20 21  1  0  0  0  0
 20 28  1  0  0  0  0
 22 25  1  0  0  0  0
 22 26  1  0  0  0  0
 23 26  2  0  0  0  0
 24 27  1  0  0  0  0
 27 29  1  0  0  0  0
 27 28  2  0  0  0  0
 28 23  1  0  0  0  0
 29 22  2  0  0  0  0
 30 31  2  0  0  0  0
 30  5  1  0  0  0  0
M  END
>  <MODEL>
3

>  <REMARK>
 VINA RESULT:      -8.2      1.767      2.011
  Name = 
  3 active torsions:
  status: ('A' for Active; 'I' for Inactive)
    1  A    between atoms: C_2  and  C_13
    2  A    between atoms: C_9  and  C_22
    3  A    between atoms: C_15  and  N_23
                            x       y       z     vdW  Elec       q    Type
                         _______ _______ _______ _____ _____    ______ ____

>  <TORSDO>
F 3

$$$$
=
 OpenBabel11052417513D

 31 35  0  0  0  0  0  0  0  0999 V2000
  188.1040  176.6430  144.6410 C   0  0  0  0  0  0  0  0  0  0  0  0
  186.9260  177.3470  144.9770 C   0  0  0  0  0  0  0  0  0  0  0  0
  185.6490  178.6540  146.5060 C   0  0  0  0  0  0  0  0  0  0  0  0
  189.2190  176.5240  145.4930 C   0  0  0  0  0  0  0  0  0  0  0  0
  190.6750  176.6110  147.1220 C   0  0  0  0  0  0  0  0  0  0  0  0
  186.7820  177.9750  146.1790 N   0  0  0  0  0  2  0  0  0  0  0  0
  189.3550  175.2950  142.9990 C   0  0  0  0  0  0  0  0  0  0  0  0
  185.9850  176.7820  142.8370 N   0  0  0  0  0  0  0  0  0  0  0  0
  185.5580  179.2200  147.6250 O   0  0  0  0  0  0  0  0  0  0  0  0
  190.4230  175.2240  143.9060 C   0  0  0  0  0  3  0  0  0  0  0  0
  188.1920  176.0090  143.3710 C   0  0  0  0  0  0  0  0  0  0  0  0
  189.3980  177.0370  146.7680 C   0  0  0  0  0  3  0  0  0  0  0  0
  184.5880  178.7240  145.6010 C   0  0  0  0  0  3  0  0  0  0  0  0
  190.3080  175.8370  145.1060 N   0  0  0  0  0  0  0  0  0  0  0  0
  191.2210  175.8730  146.0870 C   0  0  0  0  0  3  0  0  0  0  0  0
  187.1060  176.1000  142.4890 C   0  0  0  0  0  3  0  0  0  0  0  0
  185.8700  177.3990  144.0410 C   0  0  0  0  0  0  0  0  0  0  0  0
  184.7020  178.0910  144.3630 C   0  0  0  0  0  3  0  0  0  0  0  0
  188.4310  172.6120  142.2380 O   0  0  0  0  0  0  0  0  0  0  0  0
  188.9650  173.3440  141.3630 C   0  0  0  0  0  0  0  0  0  0  0  0
  189.4250  174.6600  141.7110 N   0  0  0  0  0  2  0  0  0  0  0  0
  189.3470  172.0810  137.2690 C   0  0  0  0  0  0  0  0  0  0  0  0
  188.4960  173.5950  138.9470 C   0  0  0  0  0  3  0  0  0  0  0  0
  190.7310  170.7060  140.7730 Cl  0  0  0  0  0  0  0  0  0  0  0  0
  189.4610  171.6670  135.8470 C   0  0  0  0  0  1  0  0  0  0  0  0
  188.6020  173.2090  137.6100 C   0  0  0  0  0  3  0  0  0  0  0  0
  189.8840  171.7180  139.6090 C   0  0  0  0  0  0  0  0  0  0  0  0
  189.1280  172.8650  139.9670 C   0  0  0  0  0  0  0  0  0  0  0  0
  189.9830  171.3410  138.2660 C   0  0  0  0  0  3  0  0  0  0  0  0
  191.3530  176.8890  148.3910 C   0  0  0  0  0  3  0  0  0  0  0  0
  191.1860  178.0160  149.0010 N   0  0  0  0  0  2  0  0  0  0  0  0
  1  2  1  0  0  0  0
  1  4  1  0  0  0  0
  2  6  1  0  0  0  0
  3  9  2  0  0  0  0
  4 12  2  0  0  0  0
  5 30  1  0  0  0  0
  6  3  1  0  0  0  0
  7 11  1  0  0  0  0
  7 10  2  0  0  0  0
  8 17  1  0  0  0  0
 10 14  1  0  0  0  0
 11  1  2  0  0  0  0
 12  5  1  0  0  0  0
 13  3  1  0  0  0  0
 14  4  1  0  0  0  0
 14 15  1  0  0  0  0
 15  5  2  0  0  0  0
 16  8  2  0  0  0  0
 16 11  1  0  0  0  0
 17 18  1  0  0  0  0
 17  2  2  0  0  0  0
 18 13  2  0  0  0  0
 20 21  1  0  0  0  0
 20 19  2  0  0  0  0
 21  7  1  0  0  0  0
 22 26  2  0  0  0  0
 22 29  1  0  0  0  0
 23 28  2  0  0  0  0
 25 22  1  0  0  0  0
 26 23  1  0  0  0  0
 27 28  1  0  0  0  0
 27 24  1  0  0  0  0
 28 20  1  0  0  0  0
 29 27  2  0  0  0  0
 30 31  2  0  0  0  0
M  END
>  <MODEL>
4

>  <REMARK>
 VINA RESULT:      -8.1      3.826      6.438
  Name = 
  3 active torsions:
  status: ('A' for Active; 'I' for Inactive)
    1  A    between atoms: C_2  and  C_13
    2  A    between atoms: C_9  and  C_22
    3  A    between atoms: C_15  and  N_23
                            x       y       z     vdW  Elec       q    Type
                         _______ _______ _______ _____ _____    ______ ____

>  <TORSDO>
F 3

$$$$
=
 OpenBabel11052417513D

 31 35  0  0  0  0  0  0  0  0999 V2000
  188.0080  176.4430  144.4620 C   0  0  0  0  0  0  0  0  0  0  0  0
  186.8560  177.1890  144.8000 C   0  0  0  0  0  0  0  0  0  0  0  0
  185.5980  178.4780  146.3580 C   0  0  0  0  0  0  0  0  0  0  0  0
  189.0880  176.2220  145.3390 C   0  0  0  0  0  0  0  0  0  0  0  0
  190.4930  176.1490  147.0130 C   0  0  0  0  0  0  0  0  0  0  0  0
  186.7050  177.7600  146.0290 N   0  0  0  0  0  2  0  0  0  0  0  0
  189.2430  175.1210  142.7870 C   0  0  0  0  0  0  0  0  0  0  0  0
  185.9590  176.7860  142.6060 N   0  0  0  0  0  0  0  0  0  0  0  0
  185.4980  178.9880  147.5030 O   0  0  0  0  0  0  0  0  0  0  0  0
  190.2760  174.9470  143.7200 C   0  0  0  0  0  3  0  0  0  0  0  0
  188.1060  175.8730  143.1620 C   0  0  0  0  0  0  0  0  0  0  0  0
  189.2510  176.6580  146.6440 C   0  0  0  0  0  3  0  0  0  0  0  0
  184.5710  178.6500  145.4280 C   0  0  0  0  0  3  0  0  0  0  0  0
  190.1530  175.5020  144.9480 N   0  0  0  0  0  0  0  0  0  0  0  0
  191.0350  175.4400  145.9560 C   0  0  0  0  0  3  0  0  0  0  0  0
  187.0550  176.0660  142.2550 C   0  0  0  0  0  3  0  0  0  0  0  0
  185.8360  177.3440  143.8370 C   0  0  0  0  0  0  0  0  0  0  0  0
  184.6940  178.0770  144.1610 C   0  0  0  0  0  3  0  0  0  0  0  0
  188.3530  172.4670  141.8930 O   0  0  0  0  0  0  0  0  0  0  0  0
  188.8800  173.2480  141.0560 C   0  0  0  0  0  0  0  0  0  0  0  0
  189.3230  174.5510  141.4690 N   0  0  0  0  0  2  0  0  0  0  0  0
  189.4550  171.9380  137.0000 C   0  0  0  0  0  0  0  0  0  0  0  0
  189.7500  171.6510  139.3790 C   0  0  0  0  0  3  0  0  0  0  0  0
  187.6540  175.0900  138.7050 Cl  0  0  0  0  0  0  0  0  0  0  0  0
  189.6680  171.4620  135.6080 C   0  0  0  0  0  1  0  0  0  0  0  0
  189.9520  171.2010  138.0730 C   0  0  0  0  0  3  0  0  0  0  0  0
  188.5480  173.5840  138.5380 C   0  0  0  0  0  0  0  0  0  0  0  0
  189.0510  172.8410  139.6380 C   0  0  0  0  0  0  0  0  0  0  0  0
  188.7580  173.1230  137.2340 C   0  0  0  0  0  3  0  0  0  0  0  0
  191.1420  176.3260  148.3140 C   0  0  0  0  0  3  0  0  0  0  0  0
  191.5990  177.4780  148.6790 N   0  0  0  0  0  2  0  0  0  0  0  0
  1  2  1  0  0  0  0
  1  4  1  0  0  0  0
  2  6  1  0  0  0  0
  3  9  2  0  0  0  0
  4 12  2  0  0  0  0
  5 30  1  0  0  0  0
  6  3  1  0  0  0  0
  7 11  1  0  0  0  0
  7 10  2  0  0  0  0
  8 17  1  0  0  0  0
 10 14  1  0  0  0  0
 11  1  2  0  0  0  0
 12  5  1  0  0  0  0
 13  3  1  0  0  0  0
 14  4  1  0  0  0  0
 14 15  1  0  0  0  0
 15  5  2  0  0  0  0
 16  8  2  0  0  0  0
 16 11  1  0  0  0  0
 17 18  1  0  0  0  0
 17  2  2  0  0  0  0
 18 13  2  0  0  0  0
 20 21  1  0  0  0  0
 20 19  2  0  0  0  0
 21  7  1  0  0  0  0
 22 29  2  0  0  0  0
 22 26  1  0  0  0  0
 23 28  1  0  0  0  0
 25 22  1  0  0  0  0
 26 23  2  0  0  0  0
 27 24  1  0  0  0  0
 27 28  2  0  0  0  0
 28 20  1  0  0  0  0
 29 27  1  0  0  0  0
 30 31  2  0  0  0  0
M  END
>  <MODEL>
5

>  <REMARK>
 VINA RESULT:      -7.8      4.034      6.590
  Name = 
  3 active torsions:
  status: ('A' for Active; 'I' for Inactive)
    1  A    between atoms: C_2  and  C_13
    2  A    between atoms: C_9  and  C_22
    3  A    between atoms: C_15  and  N_23
                            x       y       z     vdW  Elec       q    Type
                         _______ _______ _______ _____ _____    ______ ____

>  <TORSDO>
F 3

$$$$
=
 OpenBabel11052417513D

 31 35  0  0  0  0  0  0  0  0999 V2000
  187.6770  176.3290  143.7080 C   0  0  0  0  0  0  0  0  0  0  0  0
  187.1650  176.6840  142.4380 C   0  0  0  0  0  0  0  0  0  0  0  0
  185.5720  177.8220  141.0840 C   0  0  0  0  0  0  0  0  0  0  0  0
  187.1160  176.7540  144.9280 C   0  0  0  0  0  0  0  0  0  0  0  0
  185.9230  177.6450  146.5290 C   0  0  0  0  0  0  0  0  0  0  0  0
  186.0670  177.4800  142.3030 N   0  0  0  0  0  2  0  0  0  0  0  0
  189.3670  175.1200  145.0330 C   0  0  0  0  0  0  0  0  0  0  0  0
  188.9060  175.4020  141.3860 N   0  0  0  0  0  0  0  0  0  0  0  0
  184.5560  178.5600  141.0030 O   0  0  0  0  0  0  0  0  0  0  0  0
  188.7490  175.5850  146.2040 C   0  0  0  0  0  3  0  0  0  0  0  0
  188.8260  175.4950  143.7820 C   0  0  0  0  0  0  0  0  0  0  0  0
  186.0110  177.5610  145.1430 C   0  0  0  0  0  3  0  0  0  0  0  0
  186.1890  177.3580  139.9200 C   0  0  0  0  0  3  0  0  0  0  0  0
  187.6570  176.3770  146.1000 N   0  0  0  0  0  0  0  0  0  0  0  0
  186.9450  176.9100  147.1030 C   0  0  0  0  0  3  0  0  0  0  0  0
  189.4180  175.0480  142.5930 C   0  0  0  0  0  3  0  0  0  0  0  0
  187.8110  176.1970  141.2820 C   0  0  0  0  0  0  0  0  0  0  0  0
  187.3140  176.5400  140.0240 C   0  0  0  0  0  3  0  0  0  0  0  0
  192.1950  175.8990  144.8630 O   0  0  0  0  0  0  0  0  0  0  0  0
  191.9050  174.6810  145.0020 C   0  0  0  0  0  0  0  0  0  0  0  0
  190.5290  174.2750  145.0870 N   0  0  0  0  0  2  0  0  0  0  0  0
  194.8900  171.5880  145.1600 C   0  0  0  0  0  0  0  0  0  0  0  0
  192.6690  172.3600  144.6120 C   0  0  0  0  0  3  0  0  0  0  0  0
  194.7950  175.4560  146.2160 Cl  0  0  0  0  0  0  0  0  0  0  0  0
  195.9010  170.5000  145.2030 C   0  0  0  0  0  1  0  0  0  0  0  0
  193.6170  171.3370  144.6510 C   0  0  0  0  0  3  0  0  0  0  0  0
  194.2710  173.8950  145.5960 C   0  0  0  0  0  0  0  0  0  0  0  0
  192.9710  173.6500  145.0790 C   0  0  0  0  0  0  0  0  0  0  0  0
  195.2120  172.8610  145.6300 C   0  0  0  0  0  3  0  0  0  0  0  0
  184.9120  178.3900  147.2830 C   0  0  0  0  0  3  0  0  0  0  0  0
  183.8000  178.7470  146.7320 N   0  0  0  0  0  2  0  0  0  0  0  0
  1 11  1  0  0  0  0
  1  4  1  0  0  0  0
  2  1  2  0  0  0  0
  3  6  1  0  0  0  0
  4 12  2  0  0  0  0
  4 14  1  0  0  0  0
  5 15  2  0  0  0  0
  5 30  1  0  0  0  0
  6  2  1  0  0  0  0
  7 21  1  0  0  0  0
  7 10  2  0  0  0  0
  8 16  1  0  0  0  0
  9  3  2  0  0  0  0
 11  7  1  0  0  0  0
 12  5  1  0  0  0  0
 13 18  2  0  0  0  0
 13  3  1  0  0  0  0
 14 10  1  0  0  0  0
 14 15  1  0  0  0  0
 16 11  2  0  0  0  0
 17  8  2  0  0  0  0
 17  2  1  0  0  0  0
 18 17  1  0  0  0  0
 19 20  2  0  0  0  0
 20 28  1  0  0  0  0
 20 21  1  0  0  0  0
 22 25  1  0  0  0  0
 22 29  1  0  0  0  0
 23 26  1  0  0  0  0
 23 28  2  0  0  0  0
 26 22  2  0  0  0  0
 27 29  2  0  0  0  0
 27 24  1  0  0  0  0
 28 27  1  0  0  0  0
 31 30  2  0  0  0  0
M  END
>  <MODEL>
6

>  <REMARK>
 VINA RESULT:      -7.7      2.231      4.390
  Name = 
  3 active torsions:
  status: ('A' for Active; 'I' for Inactive)
    1  A    between atoms: C_2  and  C_13
    2  A    between atoms: C_9  and  C_22
    3  A    between atoms: C_15  and  N_23
                            x       y       z     vdW  Elec       q    Type
                         _______ _______ _______ _____ _____    ______ ____

>  <TORSDO>
F 3

$$$$
=
 OpenBabel11052417513D

 31 35  0  0  0  0  0  0  0  0999 V2000
  187.9240  176.1430  144.4070 C   0  0  0  0  0  0  0  0  0  0  0  0
  187.0690  176.6800  145.3970 C   0  0  0  0  0  0  0  0  0  0  0  0
  185.1340  177.9190  146.0220 C   0  0  0  0  0  0  0  0  0  0  0  0
  187.7160  176.2940  143.0230 C   0  0  0  0  0  0  0  0  0  0  0  0
  186.9960  176.7840  141.0170 C   0  0  0  0  0  0  0  0  0  0  0  0
  185.9580  177.4000  145.0730 N   0  0  0  0  0  2  0  0  0  0  0  0
  189.9450  174.8470  143.8490 C   0  0  0  0  0  0  0  0  0  0  0  0
  188.4790  175.7500  147.1090 N   0  0  0  0  0  0  0  0  0  0  0  0
  184.1190  178.5780  145.6810 O   0  0  0  0  0  0  0  0  0  0  0  0
  189.6680  175.0430  142.4880 C   0  0  0  0  0  3  0  0  0  0  0  0
  189.0680  175.4000  144.8100 C   0  0  0  0  0  0  0  0  0  0  0  0
  186.6950  176.9600  142.3640 C   0  0  0  0  0  3  0  0  0  0  0  0
  185.4130  177.7220  147.3770 C   0  0  0  0  0  3  0  0  0  0  0  0
  188.5710  175.7550  142.1370 N   0  0  0  0  0  0  0  0  0  0  0  0
  188.1550  176.0390  140.8950 C   0  0  0  0  0  3  0  0  0  0  0  0
  189.3150  175.2230  146.1780 C   0  0  0  0  0  3  0  0  0  0  0  0
  187.3790  176.4630  146.7570 C   0  0  0  0  0  0  0  0  0  0  0  0
  186.5430  176.9900  147.7420 C   0  0  0  0  0  3  0  0  0  0  0  0
  192.7810  175.4230  143.3420 O   0  0  0  0  0  0  0  0  0  0  0  0
  192.4770  174.4030  144.0150 C   0  0  0  0  0  0  0  0  0  0  0  0
  191.0970  174.0990  144.2760 N   0  0  0  0  0  2  0  0  0  0  0  0
  195.4520  171.6650  145.4850 C   0  0  0  0  0  0  0  0  0  0  0  0
  193.4270  172.1310  144.2540 C   0  0  0  0  0  3  0  0  0  0  0  0
  194.8910  175.6260  145.7760 Cl  0  0  0  0  0  0  0  0  0  0  0  0
  196.4650  170.6970  145.9810 C   0  0  0  0  0  1  0  0  0  0  0  0
  194.3770  171.2190  144.7180 C   0  0  0  0  0  3  0  0  0  0  0  0
  194.6290  173.9440  145.3290 C   0  0  0  0  0  0  0  0  0  0  0  0
  193.5300  173.5000  144.5470 C   0  0  0  0  0  0  0  0  0  0  0  0
  195.5740  173.0210  145.7890 C   0  0  0  0  0  3  0  0  0  0  0  0
  186.2180  177.3000  139.8880 C   0  0  0  0  0  3  0  0  0  0  0  0
  185.0690  177.8610  140.0720 N   0  0  0  0  0  2  0  0  0  0  0  0
  1 11  2  0  0  0  0
  1  2  1  0  0  0  0
  2 17  2  0  0  0  0
  3 13  1  0  0  0  0
  4  1  1  0  0  0  0
  5 12  1  0  0  0  0
  6  2  1  0  0  0  0
  6  3  1  0  0  0  0
  7 21  1  0  0  0  0
  7 11  1  0  0  0  0
  9  3  2  0  0  0  0
 10  7  2  0  0  0  0
 11 16  1  0  0  0  0
 12  4  2  0  0  0  0
 13 18  2  0  0  0  0
 14 10  1  0  0  0  0
 14  4  1  0  0  0  0
 15  5  2  0  0  0  0
 15 14  1  0  0  0  0
 16  8  2  0  0  0  0
 17  8  1  0  0  0  0
 17 18  1  0  0  0  0
 19 20  2  0  0  0  0
 20 21  1  0  0  0  0
 20 28  1  0  0  0  0
 22 29  1  0  0  0  0
 22 25  1  0  0  0  0
 23 28  2  0  0  0  0
 23 26  1  0  0  0  0
 26 22  2  0  0  0  0
 27 24  1  0  0  0  0
 27 29  2  0  0  0  0
 28 27  1  0  0  0  0
 30 31  2  0  0  0  0
 30  5  1  0  0  0  0
M  END
>  <MODEL>
7

>  <REMARK>
 VINA RESULT:      -7.6      1.951      2.046
  Name = 
  3 active torsions:
  status: ('A' for Active; 'I' for Inactive)
    1  A    between atoms: C_2  and  C_13
    2  A    between atoms: C_9  and  C_22
    3  A    between atoms: C_15  and  N_23
                            x       y       z     vdW  Elec       q    Type
                         _______ _______ _______ _____ _____    ______ ____

>  <TORSDO>
F 3

$$$$
=
 OpenBabel11052417513D

 31 35  0  0  0  0  0  0  0  0999 V2000
  188.9600  175.8910  144.5610 C   0  0  0  0  0  0  0  0  0  0  0  0
  189.7120  176.1520  145.7290 C   0  0  0  0  0  0  0  0  0  0  0  0
  190.1850  177.4900  147.6410 C   0  0  0  0  0  0  0  0  0  0  0  0
  187.9050  176.7060  144.1070 C   0  0  0  0  0  0  0  0  0  0  0  0
  186.3750  178.2390  143.8030 C   0  0  0  0  0  0  0  0  0  0  0  0
  189.4640  177.2360  146.5170 N   0  0  0  0  0  2  0  0  0  0  0  0
  188.5390  174.4500  142.6060 C   0  0  0  0  0  0  0  0  0  0  0  0
  191.0190  174.1760  145.3190 N   0  0  0  0  0  0  0  0  0  0  0  0
  189.9230  178.5020  148.3400 O   0  0  0  0  0  0  0  0  0  0  0  0
  187.5010  175.3120  142.2220 C   0  0  0  0  0  3  0  0  0  0  0  0
  189.2690  174.7430  143.7810 C   0  0  0  0  0  0  0  0  0  0  0  0
  187.4010  177.8690  144.6670 C   0  0  0  0  0  3  0  0  0  0  0  0
  191.2170  176.6290  148.0220 C   0  0  0  0  0  3  0  0  0  0  0  0
  187.2320  176.3970  142.9850 N   0  0  0  0  0  0  0  0  0  0  0  0
  186.2850  177.3210  142.7720 C   0  0  0  0  0  3  0  0  0  0  0  0
  190.3120  173.9020  144.1940 C   0  0  0  0  0  3  0  0  0  0  0  0
  190.7490  175.2630  146.0850 C   0  0  0  0  0  0  0  0  0  0  0  0
  191.4980  175.5110  147.2360 C   0  0  0  0  0  3  0  0  0  0  0  0
  190.6010  174.1610  140.5330 O   0  0  0  0  0  0  0  0  0  0  0  0
  189.8820  173.1680  140.8200 C   0  0  0  0  0  0  0  0  0  0  0  0
  188.8660  173.2840  141.8310 N   0  0  0  0  0  2  0  0  0  0  0  0
  190.3460  169.4640  138.6820 C   0  0  0  0  0  0  0  0  0  0  0  0
  189.5700  171.7470  138.8190 C   0  0  0  0  0  3  0  0  0  0  0  0
  191.3910  170.7480  142.3350 Cl  0  0  0  0  0  0  0  0  0  0  0  0
  190.4920  168.1970  137.9200 C   0  0  0  0  0  1  0  0  0  0  0  0
  189.7060  170.5580  138.1010 C   0  0  0  0  0  3  0  0  0  0  0  0
  190.7180  170.7480  140.7090 C   0  0  0  0  0  0  0  0  0  0  0  0
  190.0680  171.8680  140.1270 C   0  0  0  0  0  0  0  0  0  0  0  0
  190.8470  169.5620  139.9800 C   0  0  0  0  0  3  0  0  0  0  0  0
  185.5140  179.4160  143.9450 C   0  0  0  0  0  3  0  0  0  0  0  0
  184.5130  179.4130  144.7610 N   0  0  0  0  0  2  0  0  0  0  0  0
  1  2  1  0  0  0  0
  2 17  2  0  0  0  0
  2  6  1  0  0  0  0
  3 13  1  0  0  0  0
  3  9  2  0  0  0  0
  4  1  1  0  0  0  0
  4 12  2  0  0  0  0
  5 30  1  0  0  0  0
  5 12  1  0  0  0  0
  6  3  1  0  0  0  0
  7 11  1  0  0  0  0
  8 17  1  0  0  0  0
 10  7  2  0  0  0  0
 10 14  1  0  0  0  0
 11 16  1  0  0  0  0
 11  1  2  0  0  0  0
 14  4  1  0  0  0  0
 15 14  1  0  0  0  0
 15  5  2  0  0  0  0
 16  8  2  0  0  0  0
 17 18  1  0  0  0  0
 18 13  2  0  0  0  0
 19 20  2  0  0  0  0
 20 21  1  0  0  0  0
 21  7  1  0  0  0  0
 22 29  1  0  0  0  0
 23 28  2  0  0  0  0
 25 22  1  0  0  0  0
 26 22  2  0  0  0  0
 26 23  1  0  0  0  0
 27 24  1  0  0  0  0
 28 27  1  0  0  0  0
 28 20  1  0  0  0  0
 29 27  2  0  0  0  0
 30 31  2  0  0  0  0
M  END
>  <MODEL>
8

>  <REMARK>
 VINA RESULT:      -7.4      4.317      5.786
  Name = 
  3 active torsions:
  status: ('A' for Active; 'I' for Inactive)
    1  A    between atoms: C_2  and  C_13
    2  A    between atoms: C_9  and  C_22
    3  A    between atoms: C_15  and  N_23
                            x       y       z     vdW  Elec       q    Type
                         _______ _______ _______ _____ _____    ______ ____

>  <TORSDO>
F 3

$$$$
=
 OpenBabel11052417513D

 31 35  0  0  0  0  0  0  0  0999 V2000
  189.7580  175.5020  143.8960 C   0  0  0  0  0  0  0  0  0  0  0  0
  190.4920  175.7600  145.0760 C   0  0  0  0  0  0  0  0  0  0  0  0
  192.4630  175.5250  146.3910 C   0  0  0  0  0  0  0  0  0  0  0  0
  190.2480  174.7430  142.8150 C   0  0  0  0  0  0  0  0  0  0  0  0
  191.4120  173.5260  141.4210 C   0  0  0  0  0  0  0  0  0  0  0  0
  191.7550  175.2800  145.2570 N   0  0  0  0  0  2  0  0  0  0  0  0
  187.6810  175.7950  142.6030 C   0  0  0  0  0  0  0  0  0  0  0  0
  188.6400  177.0250  145.9430 N   0  0  0  0  0  0  0  0  0  0  0  0
  193.6270  175.0640  146.5170 O   0  0  0  0  0  0  0  0  0  0  0  0
  188.2420  175.0290  141.5700 C   0  0  0  0  0  3  0  0  0  0  0  0
  188.4450  176.0320  143.7690 C   0  0  0  0  0  0  0  0  0  0  0  0
  191.4790  174.1210  142.6770 C   0  0  0  0  0  3  0  0  0  0  0  0
  191.9030  176.2890  147.4170 C   0  0  0  0  0  3  0  0  0  0  0  0
  189.4940  174.5390  141.7220 N   0  0  0  0  0  0  0  0  0  0  0  0
  190.1830  173.7930  140.8460 C   0  0  0  0  0  3  0  0  0  0  0  0
  187.9150  176.7930  144.8190 C   0  0  0  0  0  3  0  0  0  0  0  0
  189.8960  176.5350  146.0950 C   0  0  0  0  0  0  0  0  0  0  0  0
  190.6110  176.7950  147.2640 C   0  0  0  0  0  3  0  0  0  0  0  0
  186.8300  178.2700  141.2660 O   0  0  0  0  0  0  0  0  0  0  0  0
  185.9620  177.5540  141.8320 C   0  0  0  0  0  0  0  0  0  0  0  0
  186.3530  176.3390  142.4930 N   0  0  0  0  0  2  0  0  0  0  0  0
  181.8110  178.6660  141.6620 C   0  0  0  0  0  0  0  0  0  0  0  0
  183.8520  177.9350  140.5990 C   0  0  0  0  0  3  0  0  0  0  0  0
  184.5270  178.3920  144.6000 Cl  0  0  0  0  0  0  0  0  0  0  0  0
  180.3770  179.0450  141.5740 C   0  0  0  0  0  1  0  0  0  0  0  0
  182.5050  178.2910  140.5130 C   0  0  0  0  0  3  0  0  0  0  0  0
  183.8130  178.3300  142.9930 C   0  0  0  0  0  0  0  0  0  0  0  0
  184.5300  177.9470  141.8280 C   0  0  0  0  0  0  0  0  0  0  0  0
  182.4640  178.6850  142.8940 C   0  0  0  0  0  3  0  0  0  0  0  0
  192.4690  172.7340  140.7880 C   0  0  0  0  0  3  0  0  0  0  0  0
  192.2800  171.4920  140.4850 N   0  0  0  0  0  2  0  0  0  0  0  0
  1  2  1  0  0  0  0
  2  6  1  0  0  0  0
  2 17  2  0  0  0  0
  3  9  2  0  0  0  0
  3 13  1  0  0  0  0
  4  1  1  0  0  0  0
  5 12  1  0  0  0  0
  6  3  1  0  0  0  0
  7 11  1  0  0  0  0
  8 17  1  0  0  0  0
 10 14  1  0  0  0  0
 10  7  2  0  0  0  0
 11  1  2  0  0  0  0
 11 16  1  0  0  0  0
 12  4  2  0  0  0  0
 14  4  1  0  0  0  0
 15  5  2  0  0  0  0
 15 14  1  0  0  0  0
 16  8  2  0  0  0  0
 17 18  1  0  0  0  0
 18 13  2  0  0  0  0
 19 20  2  0  0  0  0
 20 21  1  0  0  0  0
 21  7  1  0  0  0  0
 22 29  1  0  0  0  0
 23 28  2  0  0  0  0
 25 22  1  0  0  0  0
 26 23  1  0  0  0  0
 26 22  2  0  0  0  0
 27 24  1  0  0  0  0
 28 20  1  0  0  0  0
 28 27  1  0  0  0  0
 29 27  2  0  0  0  0
 30  5  1  0  0  0  0
 31 30  2  0  0  0  0
M  END
>  <MODEL>
9

>  <REMARK>
 VINA RESULT:      -7.4      3.312      8.279
  Name = 
  3 active torsions:
  status: ('A' for Active; 'I' for Inactive)
    1  A    between atoms: C_2  and  C_13
    2  A    between atoms: C_9  and  C_22
    3  A    between atoms: C_15  and  N_23
                            x       y       z     vdW  Elec       q    Type
                         _______ _______ _______ _____ _____    ______ ____

>  <TORSDO>
F 3

$$$$
