=
 OpenBabel11052418453D

 34 40  0  0  1  0  0  0  0  0999 V2000
  185.2990  177.9280  145.2610 C   0  0  0  0  0  0  0  0  0  0  0  0
  187.0870  178.0040  146.9020 C   0  0  0  0  0  3  0  0  0  0  0  0
  187.6260  177.7310  144.5170 C   0  0  0  0  0  0  0  0  0  0  0  0
  190.0190  177.7860  143.5620 C   0  0  1  0  0  3  0  0  0  0  0  0
  184.7800  178.1720  147.6130 C   0  0  0  0  0  3  0  0  0  0  0  0
  186.1410  178.1450  147.9210 C   0  0  0  0  0  3  0  0  0  0  0  0
  189.6050  176.4580  145.4530 C   0  0  0  0  0  0  0  0  0  0  0  0
  186.6830  177.8810  145.5620 C   0  0  0  0  0  0  0  0  0  0  0  0
  191.2960  177.0390  143.9620 C   0  0  0  0  0  2  0  0  0  0  0  0
  184.3590  178.0660  146.2860 C   0  0  0  0  0  3  0  0  0  0  0  0
  187.1710  177.6760  143.1800 C   0  0  0  0  0  0  0  0  0  0  0  0
  184.8690  177.8630  143.9380 C   0  0  0  0  0  3  0  0  0  0  0  0
  188.9730  175.7920  146.3160 O   0  0  0  0  0  0  0  0  0  0  0  0
  189.4220  177.0530  142.4480 N   0  0  0  0  0  2  0  0  0  0  0  0
  188.1760  177.6970  142.0480 C   0  0  1  0  0  3  0  0  0  0  0  0
  190.8940  176.0970  144.9940 N   0  0  0  0  0  0  0  0  0  0  0  0
  189.1160  177.7050  144.8130 C   0  0  2  0  0  3  0  0  0  0  0  0
  185.7970  177.7560  142.9070 C   0  0  0  0  0  3  0  0  0  0  0  0
  191.9760  174.5070  146.3450 O   0  0  0  0  0  0  0  0  0  0  0  0
  192.8920  172.2970  145.0010 O   0  0  0  0  0  1  0  0  0  0  0  0
  192.8870  174.7100  145.2940 C   0  0  1  0  0  0  0  0  0  0  0  0
  193.6930  173.4420  144.9610 C   0  0  1  0  0  3  0  0  0  0  0  0
  191.4150  174.7370  145.0660 C   0  0  2  0  0  3  0  0  0  0  0  0
  195.6280  174.3920  145.6580 C   0  0  0  0  0  2  0  0  0  0  0  0
  195.0010  175.6650  146.2370 C   0  0  0  0  0  2  0  0  0  0  0  0
  193.6980  175.9880  145.5050 C   0  0  0  0  0  2  0  0  0  0  0  0
  194.7630  173.3000  145.8640 O   0  0  0  0  0  0  0  0  0  0  0  0
  187.5710  175.1850  139.2500 C   0  0  0  0  0  0  0  0  0  0  0  0
  186.6720  175.8910  138.4450 C   0  0  0  0  0  3  0  0  0  0  0  0
  187.6630  177.0590  140.7900 C   0  0  0  0  0  0  0  0  0  0  0  0
  186.2680  177.1780  138.8110 C   0  0  0  0  0  3  0  0  0  0  0  0
  188.0660  175.7660  140.4210 C   0  0  0  0  0  3  0  0  0  0  0  0
  186.7620  177.7610  139.9820 C   0  0  0  0  0  3  0  0  0  0  0  0
  188.0750  173.5730  138.7930 Cl  0  0  0  0  0  0  0  0  0  0  0  0
  1  8  1  0  0  0  0
  1 10  2  0  0  0  0
  2  6  1  0  0  0  0
  3  8  1  0  0  0  0
  4  9  1  1  0  0  0
  4 17  1  0  0  0  0
  5  6  2  0  0  0  0
  7 13  2  0  0  0  0
  8  2  2  0  0  0  0
  9 16  1  0  0  0  0
 10  5  1  0  0  0  0
 11  3  2  0  0  0  0
 12  1  1  0  0  0  0
 14  4  1  0  0  0  0
 15 30  1  6  0  0  0
 15 14  1  0  0  0  0
 15 11  1  0  0  0  0
 16  7  1  0  0  0  0
 17  3  1  6  0  0  0
 17  7  1  0  0  0  0
 18 11  1  0  0  0  0
 18 12  2  0  0  0  0
 21 26  1  6  0  0  0
 21 19  1  0  0  0  0
 22 20  1  1  0  0  0
 22 21  1  0  0  0  0
 22 27  1  0  0  0  0
 23 16  1  1  0  0  0
 23 21  1  0  0  0  0
 23 19  1  0  0  0  0
 24 27  1  0  0  0  0
 24 25  1  0  0  0  0
 26 25  1  0  0  0  0
 28 32  1  0  0  0  0
 29 31  1  0  0  0  0
 29 28  2  0  0  0  0
 31 33  2  0  0  0  0
 32 30  2  0  0  0  0
 33 30  1  0  0  0  0
 34 28  1  0  0  0  0
M  END
>  <MODEL>
1

>  <REMARK>
 VINA RESULT:      -8.8      0.000      0.000
  Name = 
  2 active torsions:
  status: ('A' for Active; 'I' for Inactive)
    1  A    between atoms: C_12  and  C_28
    2  A    between atoms: C_17  and  N_29
                            x       y       z     vdW  Elec       q    Type
                         _______ _______ _______ _____ _____    ______ ____

>  <TORSDO>
F 2

$$$$
=
 OpenBabel11052418453D

 34 40  0  0  1  0  0  0  0  0999 V2000
  190.8300  172.9980  140.7310 C   0  0  0  0  0  0  0  0  0  0  0  0
  188.7730  174.2710  140.5200 C   0  0  0  0  0  3  0  0  0  0  0  0
  190.5980  175.1220  141.9330 C   0  0  0  0  0  0  0  0  0  0  0  0
  190.6080  177.4540  143.0300 C   0  0  1  0  0  3  0  0  0  0  0  0
  189.0170  172.1590  139.3630 C   0  0  0  0  0  3  0  0  0  0  0  0
  188.2550  173.2860  139.6750 C   0  0  0  0  0  3  0  0  0  0  0  0
  188.6740  176.1380  143.2290 C   0  0  0  0  0  0  0  0  0  0  0  0
  190.0590  174.1380  141.0700 C   0  0  0  0  0  0  0  0  0  0  0  0
  189.5690  178.1830  143.8900 C   0  0  0  0  0  2  0  0  0  0  0  0
  190.3040  172.0170  139.8870 C   0  0  0  0  0  3  0  0  0  0  0  0
  191.9210  174.9720  142.4080 C   0  0  0  0  0  0  0  0  0  0  0  0
  192.1290  172.8640  141.2160 C   0  0  0  0  0  3  0  0  0  0  0  0
  187.9300  175.1210  143.2330 O   0  0  0  0  0  0  0  0  0  0  0  0
  191.5740  176.8460  143.9440 N   0  0  0  0  0  2  0  0  0  0  0  0
  192.5690  176.1010  143.1810 C   0  0  1  0  0  3  0  0  0  0  0  0
  188.5090  177.2170  144.1280 N   0  0  0  0  0  0  0  0  0  0  0  0
  189.8010  176.3650  142.2890 C   0  0  2  0  0  3  0  0  0  0  0  0
  192.6750  173.8500  142.0320 C   0  0  0  0  0  3  0  0  0  0  0  0
  186.6350  176.3560  145.2570 O   0  0  0  0  0  0  0  0  0  0  0  0
  186.2940  177.3130  147.8050 O   0  0  0  0  0  1  0  0  0  0  0  0
  186.5010  177.7450  145.4220 C   0  0  1  0  0  0  0  0  0  0  0  0
  185.8330  178.1160  146.7580 C   0  0  1  0  0  3  0  0  0  0  0  0
  187.8370  177.0870  145.4160 C   0  0  2  0  0  3  0  0  0  0  0  0
  184.0050  178.9430  145.7060 C   0  0  0  0  0  2  0  0  0  0  0  0
  184.3900  178.4870  144.2950 C   0  0  0  0  0  2  0  0  0  0  0  0
  185.9110  178.3950  144.1710 C   0  0  0  0  0  2  0  0  0  0  0  0
  184.4350  177.9900  146.6490 O   0  0  0  0  0  0  0  0  0  0  0  0
  195.9890  175.1000  144.5250 C   0  0  0  0  0  0  0  0  0  0  0  0
  195.6750  174.7890  145.8520 C   0  0  0  0  0  3  0  0  0  0  0  0
  193.6610  175.6380  144.1010 C   0  0  0  0  0  0  0  0  0  0  0  0
  194.3570  174.9030  146.3040 C   0  0  0  0  0  3  0  0  0  0  0  0
  194.9850  175.5240  143.6510 C   0  0  0  0  0  3  0  0  0  0  0  0
  193.3510  175.3280  145.4300 C   0  0  0  0  0  3  0  0  0  0  0  0
  197.6390  174.9590  143.9600 Cl  0  0  0  0  0  0  0  0  0  0  0  0
  1  8  2  0  0  0  0
  1 12  1  0  0  0  0
  2  8  1  0  0  0  0
  3 11  2  0  0  0  0
  4  9  1  1  0  0  0
  4 14  1  0  0  0  0
  5  6  1  0  0  0  0
  5 10  2  0  0  0  0
  6  2  2  0  0  0  0
  7 13  2  0  0  0  0
  7 16  1  0  0  0  0
  8  3  1  0  0  0  0
  9 16  1  0  0  0  0
 10  1  1  0  0  0  0
 11 15  1  0  0  0  0
 12 18  2  0  0  0  0
 15 14  1  0  0  0  0
 15 30  1  1  0  0  0
 17  3  1  1  0  0  0
 17  4  1  0  0  0  0
 17  7  1  0  0  0  0
 18 11  1  0  0  0  0
 19 23  1  0  0  0  0
 19 21  1  0  0  0  0
 21 26  1  6  0  0  0
 21 22  1  0  0  0  0
 22 20  1  1  0  0  0
 23 16  1  6  0  0  0
 23 21  1  0  0  0  0
 24 27  1  0  0  0  0
 25 24  1  0  0  0  0
 26 25  1  0  0  0  0
 27 22  1  0  0  0  0
 28 29  1  0  0  0  0
 29 31  2  0  0  0  0
 30 33  2  0  0  0  0
 32 30  1  0  0  0  0
 32 28  2  0  0  0  0
 33 31  1  0  0  0  0
 34 28  1  0  0  0  0
M  END
>  <MODEL>
2

>  <REMARK>
 VINA RESULT:      -8.7      3.194      8.027
  Name = 
  2 active torsions:
  status: ('A' for Active; 'I' for Inactive)
    1  A    between atoms: C_12  and  C_28
    2  A    between atoms: C_17  and  N_29
                            x       y       z     vdW  Elec       q    Type
                         _______ _______ _______ _____ _____    ______ ____

>  <TORSDO>
F 2

$$$$
=
 OpenBabel11052418453D

 34 40  0  0  1  0  0  0  0  0999 V2000
  187.8210  177.4620  144.3710 C   0  0  0  0  0  0  0  0  0  0  0  0
  186.7230  175.9580  142.8140 C   0  0  0  0  0  3  0  0  0  0  0  0
  188.9840  175.4350  143.6320 C   0  0  0  0  0  0  0  0  0  0  0  0
  190.2140  173.2200  143.1620 C   0  0  1  0  0  3  0  0  0  0  0  0
  185.6060  177.9780  143.5400 C   0  0  0  0  0  3  0  0  0  0  0  0
  185.6120  176.8040  142.7850 C   0  0  0  0  0  3  0  0  0  0  0  0
  189.1870  174.3270  141.3640 C   0  0  0  0  0  0  0  0  0  0  0  0
  187.8460  176.2770  143.5940 C   0  0  0  0  0  0  0  0  0  0  0  0
  190.4810  172.4560  141.8610 C   0  0  0  0  0  2  0  0  0  0  0  0
  186.7070  178.3050  144.3340 C   0  0  0  0  0  3  0  0  0  0  0  0
  190.0620  175.7700  144.4830 C   0  0  0  0  0  0  0  0  0  0  0  0
  188.8960  177.7800  145.1970 C   0  0  0  0  0  3  0  0  0  0  0  0
  188.6650  175.2520  140.6860 O   0  0  0  0  0  0  0  0  0  0  0  0
  191.4110  174.0060  143.4550 N   0  0  0  0  0  2  0  0  0  0  0  0
  191.2000  174.7890  144.6670 C   0  0  1  0  0  3  0  0  0  0  0  0
  189.9950  173.3150  140.7930 N   0  0  0  0  0  0  0  0  0  0  0  0
  189.0230  174.1470  142.8280 C   0  0  2  0  0  3  0  0  0  0  0  0
  189.9980  176.9330  145.2650 C   0  0  0  0  0  3  0  0  0  0  0  0
  189.7980  173.3280  138.4510 O   0  0  0  0  0  0  0  0  0  0  0  0
  192.1860  173.2600  137.1010 O   0  0  0  0  0  1  0  0  0  0  0  0
  190.6580  172.2440  138.6960 C   0  0  1  0  0  0  0  0  0  0  0  0
  191.6840  172.0410  137.5670 C   0  0  1  0  0  3  0  0  0  0  0  0
  190.7040  173.4780  139.5290 C   0  0  2  0  0  3  0  0  0  0  0  0
  190.7670  170.0540  136.9820 C   0  0  0  0  0  2  0  0  0  0  0  0
  189.5480  170.1430  137.9050 C   0  0  0  0  0  2  0  0  0  0  0  0
  189.8750  171.0040  139.1250 C   0  0  0  0  0  2  0  0  0  0  0  0
  191.0950  171.3370  136.5010 O   0  0  0  0  0  0  0  0  0  0  0  0
  194.6890  176.3080  144.5190 C   0  0  0  0  0  0  0  0  0  0  0  0
  194.8710  176.6920  145.8510 C   0  0  0  0  0  3  0  0  0  0  0  0
  192.4880  175.4460  145.0690 C   0  0  0  0  0  0  0  0  0  0  0  0
  193.8640  176.4550  146.7910 C   0  0  0  0  0  3  0  0  0  0  0  0
  193.5000  175.6870  144.1270 C   0  0  0  0  0  3  0  0  0  0  0  0
  192.6740  175.8330  146.4010 C   0  0  0  0  0  3  0  0  0  0  0  0
  195.9490  176.6060  143.3420 Cl  0  0  0  0  0  0  0  0  0  0  0  0
  1 12  1  0  0  0  0
  2  8  1  0  0  0  0
  3 11  2  0  0  0  0
  4  9  1  6  0  0  0
  4 14  1  0  0  0  0
  5 10  2  0  0  0  0
  6  2  2  0  0  0  0
  6  5  1  0  0  0  0
  8  3  1  0  0  0  0
  8  1  2  0  0  0  0
 10  1  1  0  0  0  0
 11 15  1  0  0  0  0
 11 18  1  0  0  0  0
 12 18  2  0  0  0  0
 13  7  2  0  0  0  0
 14 15  1  0  0  0  0
 15 30  1  6  0  0  0
 16  7  1  0  0  0  0
 16  9  1  0  0  0  0
 17  7  1  6  0  0  0
 17  4  1  0  0  0  0
 17  3  1  0  0  0  0
 19 21  1  0  0  0  0
 19 23  1  0  0  0  0
 21 26  1  1  0  0  0
 21 23  1  0  0  0  0
 22 20  1  6  0  0  0
 22 21  1  0  0  0  0
 23 16  1  1  0  0  0
 24 25  1  0  0  0  0
 25 26  1  0  0  0  0
 27 24  1  0  0  0  0
 27 22  1  0  0  0  0
 28 29  1  0  0  0  0
 29 31  2  0  0  0  0
 30 33  2  0  0  0  0
 32 28  2  0  0  0  0
 32 30  1  0  0  0  0
 33 31  1  0  0  0  0
 34 28  1  0  0  0  0
M  END
>  <MODEL>
3

>  <REMARK>
 VINA RESULT:      -8.6      4.063      6.931
  Name = 
  2 active torsions:
  status: ('A' for Active; 'I' for Inactive)
    1  A    between atoms: C_12  and  C_28
    2  A    between atoms: C_17  and  N_29
                            x       y       z     vdW  Elec       q    Type
                         _______ _______ _______ _____ _____    ______ ____

>  <TORSDO>
F 2

$$$$
=
 OpenBabel11052418453D

 34 40  0  0  1  0  0  0  0  0999 V2000
  185.4080  177.7100  145.3650 C   0  0  0  0  0  0  0  0  0  0  0  0
  187.2360  177.9050  146.9510 C   0  0  0  0  0  3  0  0  0  0  0  0
  187.7180  177.7010  144.5460 C   0  0  0  0  0  0  0  0  0  0  0  0
  190.0680  177.9500  143.5180 C   0  0  1  0  0  3  0  0  0  0  0  0
  184.9470  177.8880  147.7350 C   0  0  0  0  0  3  0  0  0  0  0  0
  186.3150  177.9620  148.0000 C   0  0  0  0  0  3  0  0  0  0  0  0
  189.8170  176.5720  145.4030 C   0  0  0  0  0  0  0  0  0  0  0  0
  186.8000  177.7660  145.6220 C   0  0  0  0  0  0  0  0  0  0  0  0
  191.4100  177.2980  143.8680 C   0  0  0  0  0  2  0  0  0  0  0  0
  184.4930  177.7650  146.4200 C   0  0  0  0  0  3  0  0  0  0  0  0
  187.2260  177.6260  143.2240 C   0  0  0  0  0  0  0  0  0  0  0  0
  184.9410  177.6280  144.0550 C   0  0  0  0  0  3  0  0  0  0  0  0
  189.2650  175.8500  146.2760 O   0  0  0  0  0  0  0  0  0  0  0  0
  189.4920  177.1860  142.4130 N   0  0  0  0  0  2  0  0  0  0  0  0
  188.1890  177.7370  142.0620 C   0  0  1  0  0  3  0  0  0  0  0  0
  191.1140  176.3160  144.9000 N   0  0  0  0  0  0  0  0  0  0  0  0
  189.2140  177.7850  144.7960 C   0  0  2  0  0  3  0  0  0  0  0  0
  185.8420  177.6040  142.9940 C   0  0  0  0  0  3  0  0  0  0  0  0
  192.0430  174.5780  143.6190 O   0  0  0  0  0  0  0  0  0  0  0  0
  192.4480  172.2360  144.9890 O   0  0  0  0  0  1  0  0  0  0  0  0
  190.9280  173.9720  144.2230 C   0  0  1  0  0  0  0  0  0  0  0  0
  191.1570  172.4780  144.5120 C   0  0  1  0  0  3  0  0  0  0  0  0
  191.7390  174.9990  144.9360 C   0  0  2  0  0  3  0  0  0  0  0  0
  189.5780  171.8650  143.0070 C   0  0  0  0  0  2  0  0  0  0  0  0
  189.3290  173.2620  142.4310 C   0  0  0  0  0  2  0  0  0  0  0  0
  189.6380  174.3260  143.4840 C   0  0  0  0  0  2  0  0  0  0  0  0
  190.9380  171.7230  143.3440 O   0  0  0  0  0  0  0  0  0  0  0  0
  187.6130  175.1770  139.3010 C   0  0  0  0  0  0  0  0  0  0  0  0
  186.7140  175.8650  138.4810 C   0  0  0  0  0  3  0  0  0  0  0  0
  187.6870  177.0760  140.8110 C   0  0  0  0  0  0  0  0  0  0  0  0
  186.3000  177.1550  138.8240 C   0  0  0  0  0  3  0  0  0  0  0  0
  188.0980  175.7800  140.4650 C   0  0  0  0  0  3  0  0  0  0  0  0
  186.7850  177.7600  139.9880 C   0  0  0  0  0  3  0  0  0  0  0  0
  188.1280  173.5610  138.8730 Cl  0  0  0  0  0  0  0  0  0  0  0  0
  1  8  1  0  0  0  0
  1 10  2  0  0  0  0
  2  6  1  0  0  0  0
  3  8  1  0  0  0  0
  4  9  1  1  0  0  0
  4 17  1  0  0  0  0
  5  6  2  0  0  0  0
  7 13  2  0  0  0  0
  8  2  2  0  0  0  0
  9 16  1  0  0  0  0
 10  5  1  0  0  0  0
 11  3  2  0  0  0  0
 12  1  1  0  0  0  0
 14  4  1  0  0  0  0
 15 30  1  6  0  0  0
 15 14  1  0  0  0  0
 15 11  1  0  0  0  0
 16  7  1  0  0  0  0
 17  3  1  6  0  0  0
 17  7  1  0  0  0  0
 18 11  1  0  0  0  0
 18 12  2  0  0  0  0
 19 21  1  0  0  0  0
 19 23  1  0  0  0  0
 21 26  1  6  0  0  0
 21 22  1  0  0  0  0
 21 23  1  0  0  0  0
 22 20  1  6  0  0  0
 23 16  1  6  0  0  0
 24 27  1  0  0  0  0
 25 24  1  0  0  0  0
 25 26  1  0  0  0  0
 27 22  1  0  0  0  0
 28 32  1  0  0  0  0
 29 31  1  0  0  0  0
 29 28  2  0  0  0  0
 31 33  2  0  0  0  0
 32 30  2  0  0  0  0
 33 30  1  0  0  0  0
 34 28  1  0  0  0  0
M  END
>  <MODEL>
4

>  <REMARK>
 VINA RESULT:      -8.2      1.301      2.244
  Name = 
  2 active torsions:
  status: ('A' for Active; 'I' for Inactive)
    1  A    between atoms: C_12  and  C_28
    2  A    between atoms: C_17  and  N_29
                            x       y       z     vdW  Elec       q    Type
                         _______ _______ _______ _____ _____    ______ ____

>  <TORSDO>
F 2

$$$$
=
 OpenBabel11052418453D

 34 40  0  0  1  0  0  0  0  0999 V2000
  193.8900  175.3240  144.6890 C   0  0  0  0  0  0  0  0  0  0  0  0
  191.7730  175.8090  145.7750 C   0  0  0  0  0  3  0  0  0  0  0  0
  191.8040  174.5550  143.6580 C   0  0  0  0  0  0  0  0  0  0  0  0
  189.7280  173.4510  142.6030 C   0  0  1  0  0  3  0  0  0  0  0  0
  193.8450  176.5780  146.7610 C   0  0  0  0  0  3  0  0  0  0  0  0
  192.4530  176.4790  146.7940 C   0  0  0  0  0  3  0  0  0  0  0  0
  189.5510  175.6690  143.3510 C   0  0  0  0  0  0  0  0  0  0  0  0
  192.4760  175.2330  144.7040 C   0  0  0  0  0  0  0  0  0  0  0  0
  188.3300  173.9950  142.2890 C   0  0  0  0  0  2  0  0  0  0  0  0
  194.5630  175.9990  145.7120 C   0  0  0  0  0  3  0  0  0  0  0  0
  192.5620  173.9380  142.6370 C   0  0  0  0  0  0  0  0  0  0  0  0
  194.6200  174.7170  143.6710 C   0  0  0  0  0  3  0  0  0  0  0  0
  189.8930  176.8250  143.7180 O   0  0  0  0  0  0  0  0  0  0  0  0
  190.5090  173.5290  141.3690 N   0  0  0  0  0  2  0  0  0  0  0  0
  191.8670  173.0600  141.6180 C   0  0  1  0  0  3  0  0  0  0  0  0
  188.3850  175.4160  142.5910 N   0  0  0  0  0  0  0  0  0  0  0  0
  190.2910  174.4210  143.6650 C   0  0  2  0  0  3  0  0  0  0  0  0
  193.9630  174.0160  142.6640 C   0  0  0  0  0  3  0  0  0  0  0  0
  187.7790  177.6800  142.4090 O   0  0  0  0  0  0  0  0  0  0  0  0
  186.0240  178.2350  140.3750 O   0  0  0  0  0  1  0  0  0  0  0  0
  186.5410  177.0150  142.4120 C   0  0  1  0  0  0  0  0  0  0  0  0
  185.4820  177.7410  141.5640 C   0  0  1  0  0  3  0  0  0  0  0  0
  187.7410  176.4240  141.7570 C   0  0  2  0  0  3  0  0  0  0  0  0
  184.2370  178.2290  143.3930 C   0  0  0  0  0  2  0  0  0  0  0  0
  185.2480  177.7340  144.4330 C   0  0  0  0  0  2  0  0  0  0  0  0
  186.1220  176.6340  143.8320 C   0  0  0  0  0  2  0  0  0  0  0  0
  184.9180  178.8000  142.3010 O   0  0  0  0  0  0  0  0  0  0  0  0
  193.3330  173.9340  138.2130 C   0  0  0  0  0  0  0  0  0  0  0  0
  194.0200  172.7550  137.9060 C   0  0  0  0  0  3  0  0  0  0  0  0
  192.6090  172.9640  140.3160 C   0  0  0  0  0  0  0  0  0  0  0  0
  194.0030  171.6830  138.8030 C   0  0  0  0  0  3  0  0  0  0  0  0
  192.6290  174.0400  139.4160 C   0  0  0  0  0  3  0  0  0  0  0  0
  193.3000  171.7870  140.0070 C   0  0  0  0  0  3  0  0  0  0  0  0
  193.3550  175.2770  137.0920 Cl  0  0  0  0  0  0  0  0  0  0  0  0
  1  8  1  0  0  0  0
  1 10  2  0  0  0  0
  2  6  1  0  0  0  0
  3 17  1  0  0  0  0
  3  8  1  0  0  0  0
  4  9  1  6  0  0  0
  4 17  1  0  0  0  0
  5  6  2  0  0  0  0
  7 13  2  0  0  0  0
  8  2  2  0  0  0  0
  9 16  1  0  0  0  0
 10  5  1  0  0  0  0
 11 18  1  0  0  0  0
 11  3  2  0  0  0  0
 12  1  1  0  0  0  0
 14 15  1  0  0  0  0
 14  4  1  0  0  0  0
 15 30  1  6  0  0  0
 15 11  1  0  0  0  0
 16  7  1  0  0  0  0
 17  7  1  6  0  0  0
 18 12  2  0  0  0  0
 19 21  1  0  0  0  0
 21 26  1  1  0  0  0
 22 20  1  6  0  0  0
 22 27  1  0  0  0  0
 22 21  1  0  0  0  0
 23 19  1  0  0  0  0
 23 21  1  0  0  0  0
 23 16  1  1  0  0  0
 24 25  1  0  0  0  0
 26 25  1  0  0  0  0
 27 24  1  0  0  0  0
 28 32  1  0  0  0  0
 29 28  2  0  0  0  0
 29 31  1  0  0  0  0
 31 33  2  0  0  0  0
 32 30  2  0  0  0  0
 33 30  1  0  0  0  0
 34 28  1  0  0  0  0
M  END
>  <MODEL>
5

>  <REMARK>
 VINA RESULT:      -8.2      3.642      7.520
  Name = 
  2 active torsions:
  status: ('A' for Active; 'I' for Inactive)
    1  A    between atoms: C_12  and  C_28
    2  A    between atoms: C_17  and  N_29
                            x       y       z     vdW  Elec       q    Type
                         _______ _______ _______ _____ _____    ______ ____

>  <TORSDO>
F 2

$$$$
=
 OpenBabel11052418453D

 34 40  0  0  1  0  0  0  0  0999 V2000
  193.5140  174.4960  141.2940 C   0  0  0  0  0  0  0  0  0  0  0  0
  192.3930  175.4770  143.2110 C   0  0  0  0  0  3  0  0  0  0  0  0
  191.1230  174.0790  141.6340 C   0  0  0  0  0  0  0  0  0  0  0  0
  188.6850  173.3310  142.0070 C   0  0  1  0  0  3  0  0  0  0  0  0
  194.7480  175.8930  142.8400 C   0  0  0  0  0  3  0  0  0  0  0  0
  193.5920  176.0770  143.6010 C   0  0  0  0  0  3  0  0  0  0  0  0
  189.2200  175.5920  142.3420 C   0  0  0  0  0  0  0  0  0  0  0  0
  192.3310  174.6900  142.0490 C   0  0  0  0  0  0  0  0  0  0  0  0
  187.4190  174.1160  142.3690 C   0  0  0  0  0  2  0  0  0  0  0  0
  194.7100  175.1020  141.6900 C   0  0  0  0  0  3  0  0  0  0  0  0
  191.1280  173.2440  140.4940 C   0  0  0  0  0  0  0  0  0  0  0  0
  193.4980  173.6770  140.1680 C   0  0  0  0  0  3  0  0  0  0  0  0
  189.8490  176.6820  142.2750 O   0  0  0  0  0  0  0  0  0  0  0  0
  188.6840  173.1540  140.5560 N   0  0  0  0  0  2  0  0  0  0  0  0
  189.8910  172.4450  140.1470 C   0  0  1  0  0  3  0  0  0  0  0  0
  187.8070  175.5180  142.3490 N   0  0  0  0  0  0  0  0  0  0  0  0
  189.8480  174.2510  142.4420 C   0  0  2  0  0  3  0  0  0  0  0  0
  192.3210  173.0430  139.7820 C   0  0  0  0  0  3  0  0  0  0  0  0
  187.2830  177.8090  142.3920 O   0  0  0  0  0  0  0  0  0  0  0  0
  184.9320  178.4690  141.1420 O   0  0  0  0  0  1  0  0  0  0  0  0
  186.1030  177.2000  142.8520 C   0  0  1  0  0  0  0  0  0  0  0  0
  184.8420  177.9840  142.4500 C   0  0  1  0  0  3  0  0  0  0  0  0
  186.9500  176.5640  141.8040 C   0  0  2  0  0  3  0  0  0  0  0  0
  184.3790  178.5030  144.6060 C   0  0  0  0  0  2  0  0  0  0  0  0
  185.6770  177.9500  145.2040 C   0  0  0  0  0  2  0  0  0  0  0  0
  186.2180  176.8190  144.3280 C   0  0  0  0  0  2  0  0  0  0  0  0
  184.6380  179.0570  143.3370 O   0  0  0  0  0  0  0  0  0  0  0  0
  189.5270  172.7570  136.3690 C   0  0  0  0  0  0  0  0  0  0  0  0
  189.6500  171.4210  135.9760 C   0  0  0  0  0  3  0  0  0  0  0  0
  189.7980  172.1000  138.6890 C   0  0  0  0  0  0  0  0  0  0  0  0
  189.8470  170.4250  136.9370 C   0  0  0  0  0  3  0  0  0  0  0  0
  189.6020  173.0980  137.7220 C   0  0  0  0  0  3  0  0  0  0  0  0
  189.9220  170.7640  138.2920 C   0  0  0  0  0  3  0  0  0  0  0  0
  189.2810  174.0040  135.1660 Cl  0  0  0  0  0  0  0  0  0  0  0  0
  1 10  2  0  0  0  0
  1  8  1  0  0  0  0
  2  6  1  0  0  0  0
  3  8  1  0  0  0  0
  4  9  1  6  0  0  0
  4 17  1  0  0  0  0
  5  6  2  0  0  0  0
  7 16  1  0  0  0  0
  7 17  1  0  0  0  0
  8  2  2  0  0  0  0
 10  5  1  0  0  0  0
 11  3  2  0  0  0  0
 12  1  1  0  0  0  0
 13  7  2  0  0  0  0
 14  4  1  0  0  0  0
 15 30  1  6  0  0  0
 15 11  1  0  0  0  0
 15 14  1  0  0  0  0
 16  9  1  0  0  0  0
 17  3  1  6  0  0  0
 18 12  2  0  0  0  0
 18 11  1  0  0  0  0
 19 21  1  0  0  0  0
 21 26  1  1  0  0  0
 22 20  1  6  0  0  0
 22 21  1  0  0  0  0
 22 27  1  0  0  0  0
 23 16  1  1  0  0  0
 23 19  1  0  0  0  0
 23 21  1  0  0  0  0
 24 25  1  0  0  0  0
 26 25  1  0  0  0  0
 27 24  1  0  0  0  0
 28 32  1  0  0  0  0
 29 28  2  0  0  0  0
 29 31  1  0  0  0  0
 31 33  2  0  0  0  0
 32 30  2  0  0  0  0
 33 30  1  0  0  0  0
 34 28  1  0  0  0  0
M  END
>  <MODEL>
6

>  <REMARK>
 VINA RESULT:      -8.1      3.771      7.682
  Name = 
  2 active torsions:
  status: ('A' for Active; 'I' for Inactive)
    1  A    between atoms: C_12  and  C_28
    2  A    between atoms: C_17  and  N_29
                            x       y       z     vdW  Elec       q    Type
                         _______ _______ _______ _____ _____    ______ ____

>  <TORSDO>
F 2

$$$$
=
 OpenBabel11052418453D

 34 40  0  0  1  0  0  0  0  0999 V2000
  189.2950  172.2000  139.0790 C   0  0  0  0  0  0  0  0  0  0  0  0
  191.0610  170.9240  140.1500 C   0  0  0  0  0  3  0  0  0  0  0  0
  189.9800  172.7730  141.3610 C   0  0  0  0  0  0  0  0  0  0  0  0
  190.4000  173.3140  143.8460 C   0  0  1  0  0  3  0  0  0  0  0  0
  190.3820  170.3930  137.8890 C   0  0  0  0  0  3  0  0  0  0  0  0
  191.1910  170.1440  138.9990 C   0  0  0  0  0  3  0  0  0  0  0  0
  192.2570  172.9440  142.4570 C   0  0  0  0  0  0  0  0  0  0  0  0
  190.1230  171.9680  140.2050 C   0  0  0  0  0  0  0  0  0  0  0  0
  191.6930  173.5140  144.6430 C   0  0  0  0  0  2  0  0  0  0  0  0
  189.4340  171.4170  137.9290 C   0  0  0  0  0  3  0  0  0  0  0  0
  188.9780  173.7700  141.3880 C   0  0  0  0  0  0  0  0  0  0  0  0
  188.3190  173.1920  139.1200 C   0  0  0  0  0  3  0  0  0  0  0  0
  192.9470  172.8350  141.4090 O   0  0  0  0  0  0  0  0  0  0  0  0
  189.9100  174.6410  143.4760 N   0  0  0  0  0  2  0  0  0  0  0  0
  188.6970  174.5110  142.6770 C   0  0  1  0  0  3  0  0  0  0  0  0
  192.7690  173.4740  143.6650 N   0  0  0  0  0  0  0  0  0  0  0  0
  190.8380  172.5270  142.5900 C   0  0  2  0  0  3  0  0  0  0  0  0
  188.1500  173.9570  140.2710 C   0  0  0  0  0  3  0  0  0  0  0  0
  195.0680  173.7020  143.2350 O   0  0  0  0  0  0  0  0  0  0  0  0
  196.2230  175.9330  144.3390 O   0  0  0  0  0  1  0  0  0  0  0  0
  194.9830  173.8620  144.6290 C   0  0  1  0  0  0  0  0  0  0  0  0
  196.0500  174.8270  145.1760 C   0  0  1  0  0  3  0  0  0  0  0  0
  193.9180  174.3700  143.7200 C   0  0  2  0  0  3  0  0  0  0  0  0
  197.0900  173.1630  146.3070 C   0  0  0  0  0  2  0  0  0  0  0  0
  196.2610  172.0110  145.7300 C   0  0  0  0  0  2  0  0  0  0  0  0
  194.8720  172.5110  145.3350 C   0  0  0  0  0  2  0  0  0  0  0  0
  197.2780  174.1540  145.3250 O   0  0  0  0  0  0  0  0  0  0  0  0
  186.1840  177.3650  142.4660 C   0  0  0  0  0  0  0  0  0  0  0  0
  187.0080  178.4200  142.0630 C   0  0  0  0  0  3  0  0  0  0  0  0
  188.0950  175.8690  142.4600 C   0  0  0  0  0  0  0  0  0  0  0  0
  188.3740  178.2010  141.8600 C   0  0  0  0  0  3  0  0  0  0  0  0
  186.7250  176.0910  142.6650 C   0  0  0  0  0  3  0  0  0  0  0  0
  188.9170  176.9280  142.0590 C   0  0  0  0  0  3  0  0  0  0  0  0
  184.4750  177.6380  142.7220 Cl  0  0  0  0  0  0  0  0  0  0  0  0
  1 12  2  0  0  0  0
  1  8  1  0  0  0  0
  2  8  1  0  0  0  0
  3 11  1  0  0  0  0
  4  9  1  1  0  0  0
  5 10  2  0  0  0  0
  5  6  1  0  0  0  0
  6  2  2  0  0  0  0
  7 17  1  0  0  0  0
  7 16  1  0  0  0  0
  8  3  2  0  0  0  0
 10  1  1  0  0  0  0
 11 15  1  0  0  0  0
 12 18  1  0  0  0  0
 13  7  2  0  0  0  0
 14  4  1  0  0  0  0
 15 30  1  6  0  0  0
 15 14  1  0  0  0  0
 16  9  1  0  0  0  0
 17  3  1  6  0  0  0
 17  4  1  0  0  0  0
 18 11  2  0  0  0  0
 19 23  1  0  0  0  0
 19 21  1  0  0  0  0
 21 22  1  0  0  0  0
 21 26  1  1  0  0  0
 22 20  1  6  0  0  0
 22 27  1  0  0  0  0
 23 16  1  1  0  0  0
 23 21  1  0  0  0  0
 25 24  1  0  0  0  0
 26 25  1  0  0  0  0
 27 24  1  0  0  0  0
 28 32  1  0  0  0  0
 28 34  1  0  0  0  0
 29 28  2  0  0  0  0
 30 32  2  0  0  0  0
 31 33  2  0  0  0  0
 31 29  1  0  0  0  0
 33 30  1  0  0  0  0
M  END
>  <MODEL>
7

>  <REMARK>
 VINA RESULT:      -8.1      3.251      6.215
  Name = 
  2 active torsions:
  status: ('A' for Active; 'I' for Inactive)
    1  A    between atoms: C_12  and  C_28
    2  A    between atoms: C_17  and  N_29
                            x       y       z     vdW  Elec       q    Type
                         _______ _______ _______ _____ _____    ______ ____

>  <TORSDO>
F 2

$$$$
=
 OpenBabel11052418453D

 34 40  0  0  1  0  0  0  0  0999 V2000
  188.3790  177.3520  143.9940 C   0  0  0  0  0  0  0  0  0  0  0  0
  186.9200  175.7570  142.8880 C   0  0  0  0  0  3  0  0  0  0  0  0
  189.1670  175.0630  143.6100 C   0  0  0  0  0  0  0  0  0  0  0  0
  190.0260  172.6350  143.5240 C   0  0  1  0  0  3  0  0  0  0  0  0
  186.1740  178.0300  143.2570 C   0  0  0  0  0  3  0  0  0  0  0  0
  185.9370  176.7430  142.7710 C   0  0  0  0  0  3  0  0  0  0  0  0
  188.9620  173.5080  141.6220 C   0  0  0  0  0  0  0  0  0  0  0  0
  188.1560  176.0470  143.4880 C   0  0  0  0  0  0  0  0  0  0  0  0
  190.0390  171.5950  142.3970 C   0  0  0  0  0  2  0  0  0  0  0  0
  187.3910  178.3330  143.8700 C   0  0  0  0  0  3  0  0  0  0  0  0
  190.3690  175.3880  144.2790 C   0  0  0  0  0  0  0  0  0  0  0  0
  189.5730  177.6560  144.6430 C   0  0  0  0  0  3  0  0  0  0  0  0
  188.4970  174.3500  140.8080 O   0  0  0  0  0  0  0  0  0  0  0  0
  191.3430  173.2670  143.5440 N   0  0  0  0  0  2  0  0  0  0  0  0
  191.3770  174.2980  144.5740 C   0  0  1  0  0  3  0  0  0  0  0  0
  189.5570  172.2910  141.2150 N   0  0  0  0  0  0  0  0  0  0  0  0
  188.9410  173.6500  143.0990 C   0  0  2  0  0  3  0  0  0  0  0  0
  190.5510  176.6780  144.7990 C   0  0  0  0  0  3  0  0  0  0  0  0
  191.4650  171.6200  140.0170 O   0  0  0  0  0  0  0  0  0  0  0  0
  191.4050  172.2180  137.3400 O   0  0  0  0  0  1  0  0  0  0  0  0
  191.3120  172.9680  139.6510 C   0  0  1  0  0  0  0  0  0  0  0  0
  191.7840  173.2430  138.2120 C   0  0  1  0  0  3  0  0  0  0  0  0
  190.1340  172.0880  139.8910 C   0  0  2  0  0  3  0  0  0  0  0  0
  193.4940  174.5410  138.9360 C   0  0  0  0  0  2  0  0  0  0  0  0
  193.3210  174.2450  140.4290 C   0  0  0  0  0  2  0  0  0  0  0  0
  191.8620  173.9000  140.7290 C   0  0  0  0  0  2  0  0  0  0  0  0
  193.1840  173.3910  138.1840 O   0  0  0  0  0  0  0  0  0  0  0  0
  194.7860  175.7960  143.7720 C   0  0  0  0  0  0  0  0  0  0  0  0
  195.3870  175.7850  145.0340 C   0  0  0  0  0  3  0  0  0  0  0  0
  192.7800  174.8140  144.7200 C   0  0  0  0  0  0  0  0  0  0  0  0
  194.6870  175.2910  146.1380 C   0  0  0  0  0  3  0  0  0  0  0  0
  193.4840  175.3120  143.6140 C   0  0  0  0  0  3  0  0  0  0  0  0
  193.3850  174.8070  145.9820 C   0  0  0  0  0  3  0  0  0  0  0  0
  195.6620  176.4160  142.3900 Cl  0  0  0  0  0  0  0  0  0  0  0  0
  1 12  1  0  0  0  0
  2  8  1  0  0  0  0
  3 11  2  0  0  0  0
  4  9  1  6  0  0  0
  4 14  1  0  0  0  0
  5 10  2  0  0  0  0
  6  2  2  0  0  0  0
  6  5  1  0  0  0  0
  8  3  1  0  0  0  0
  8  1  2  0  0  0  0
 10  1  1  0  0  0  0
 11 15  1  0  0  0  0
 11 18  1  0  0  0  0
 12 18  2  0  0  0  0
 13  7  2  0  0  0  0
 14 15  1  0  0  0  0
 15 30  1  6  0  0  0
 16  7  1  0  0  0  0
 16  9  1  0  0  0  0
 17  7  1  6  0  0  0
 17  4  1  0  0  0  0
 17  3  1  0  0  0  0
 21 23  1  0  0  0  0
 21 19  1  0  0  0  0
 21 26  1  1  0  0  0
 22 20  1  6  0  0  0
 22 21  1  0  0  0  0
 23 19  1  0  0  0  0
 23 16  1  1  0  0  0
 24 25  1  0  0  0  0
 25 26  1  0  0  0  0
 27 22  1  0  0  0  0
 27 24  1  0  0  0  0
 28 29  1  0  0  0  0
 29 31  2  0  0  0  0
 30 33  2  0  0  0  0
 32 28  2  0  0  0  0
 32 30  1  0  0  0  0
 33 31  1  0  0  0  0
 34 28  1  0  0  0  0
M  END
>  <MODEL>
8

>  <REMARK>
 VINA RESULT:      -8.0      3.795      6.380
  Name = 
  2 active torsions:
  status: ('A' for Active; 'I' for Inactive)
    1  A    between atoms: C_12  and  C_28
    2  A    between atoms: C_17  and  N_29
                            x       y       z     vdW  Elec       q    Type
                         _______ _______ _______ _____ _____    ______ ____

>  <TORSDO>
F 2

$$$$
=
 OpenBabel11052418453D

 34 40  0  0  1  0  0  0  0  0999 V2000
  194.7720  175.2630  143.9230 C   0  0  0  0  0  0  0  0  0  0  0  0
  193.7400  176.8070  145.4880 C   0  0  0  0  0  3  0  0  0  0  0  0
  192.5100  174.8080  144.7520 C   0  0  0  0  0  0  0  0  0  0  0  0
  190.2520  174.0560  145.7390 C   0  0  1  0  0  3  0  0  0  0  0  0
  195.9630  177.2480  144.6370 C   0  0  0  0  0  3  0  0  0  0  0  0
  194.8820  177.6110  145.4420 C   0  0  0  0  0  3  0  0  0  0  0  0
  190.5070  176.3090  145.1300 C   0  0  0  0  0  0  0  0  0  0  0  0
  193.6610  175.6320  144.7230 C   0  0  0  0  0  0  0  0  0  0  0  0
  188.9370  174.8090  145.9720 C   0  0  0  0  0  2  0  0  0  0  0  0
  195.9090  176.0750  143.8810 C   0  0  0  0  0  3  0  0  0  0  0  0
  192.5070  173.6020  144.0140 C   0  0  0  0  0  0  0  0  0  0  0  0
  194.7470  174.0760  143.1960 C   0  0  0  0  0  3  0  0  0  0  0  0
  190.9710  177.3380  144.5710 O   0  0  0  0  0  0  0  0  0  0  0  0
  190.1180  173.3360  144.4750 N   0  0  0  0  0  2  0  0  0  0  0  0
  191.3590  172.6290  144.1790 C   0  0  1  0  0  3  0  0  0  0  0  0
  189.1260  176.1230  145.3780 N   0  0  0  0  0  0  0  0  0  0  0  0
  191.3190  175.1680  145.6220 C   0  0  2  0  0  3  0  0  0  0  0  0
  193.6320  173.2460  143.2550 C   0  0  0  0  0  3  0  0  0  0  0  0
  188.1010  178.1870  144.9160 O   0  0  0  0  0  0  0  0  0  0  0  0
  185.7180  178.0060  143.5700 O   0  0  0  0  0  1  0  0  0  0  0  0
  187.0690  177.4400  145.5100 C   0  0  1  0  0  0  0  0  0  0  0  0
  185.6830  177.8100  144.9530 C   0  0  1  0  0  3  0  0  0  0  0  0
  188.0810  176.8030  144.6220 C   0  0  2  0  0  3  0  0  0  0  0  0
  185.0240  178.6660  146.9450 C   0  0  0  0  0  2  0  0  0  0  0  0
  186.3850  178.5670  147.6400 C   0  0  0  0  0  2  0  0  0  0  0  0
  187.2020  177.4260  147.0320 C   0  0  0  0  0  2  0  0  0  0  0  0
  185.2050  178.9750  145.5830 O   0  0  0  0  0  0  0  0  0  0  0  0
  190.3460  171.3840  140.7250 C   0  0  0  0  0  0  0  0  0  0  0  0
  190.8170  170.0680  140.7650 C   0  0  0  0  0  3  0  0  0  0  0  0
  191.1580  171.7440  142.9840 C   0  0  0  0  0  0  0  0  0  0  0  0
  191.4580  169.5900  141.9110 C   0  0  0  0  0  3  0  0  0  0  0  0
  190.5160  172.2220  141.8310 C   0  0  0  0  0  3  0  0  0  0  0  0
  191.6300  170.4260  143.0190 C   0  0  0  0  0  3  0  0  0  0  0  0
  189.5450  171.9830  139.2900 Cl  0  0  0  0  0  0  0  0  0  0  0  0
  1  8  1  0  0  0  0
  4  9  1  6  0  0  0
  5  6  2  0  0  0  0
  6  2  1  0  0  0  0
  7 16  1  0  0  0  0
  7 17  1  0  0  0  0
  8  3  1  0  0  0  0
  8  2  2  0  0  0  0
 10  1  2  0  0  0  0
 10  5  1  0  0  0  0
 11 15  1  0  0  0  0
 11  3  2  0  0  0  0
 12 18  2  0  0  0  0
 12  1  1  0  0  0  0
 13  7  2  0  0  0  0
 14  4  1  0  0  0  0
 15 30  1  6  0  0  0
 15 14  1  0  0  0  0
 16  9  1  0  0  0  0
 17  3  1  6  0  0  0
 17  4  1  0  0  0  0
 18 11  1  0  0  0  0
 19 21  1  0  0  0  0
 21 26  1  1  0  0  0
 22 20  1  6  0  0  0
 22 21  1  0  0  0  0
 22 27  1  0  0  0  0
 23 19  1  0  0  0  0
 23 16  1  1  0  0  0
 23 21  1  0  0  0  0
 24 25  1  0  0  0  0
 26 25  1  0  0  0  0
 27 24  1  0  0  0  0
 28 29  2  0  0  0  0
 28 32  1  0  0  0  0
 29 31  1  0  0  0  0
 30 33  1  0  0  0  0
 31 33  2  0  0  0  0
 32 30  2  0  0  0  0
 34 28  1  0  0  0  0
M  END
>  <MODEL>
9

>  <REMARK>
 VINA RESULT:      -8.0      2.979      7.531
  Name = 
  2 active torsions:
  status: ('A' for Active; 'I' for Inactive)
    1  A    between atoms: C_12  and  C_28
    2  A    between atoms: C_17  and  N_29
                            x       y       z     vdW  Elec       q    Type
                         _______ _______ _______ _____ _____    ______ ____

>  <TORSDO>
F 2

$$$$
