=
 OpenBabel11052419523D

 37 43  0  0  1  0  0  0  0  0999 V2000
  188.6810  174.2480  139.9600 C   0  0  0  0  0  2  0  0  0  0  0  0
  185.7090  178.2000  142.4670 C   0  0  2  0  0  3  0  0  0  0  0  0
  189.2060  176.2690  144.3620 C   0  0  1  0  0  3  0  0  0  0  0  0
  188.1980  172.9650  139.2770 C   0  0  2  0  0  3  0  0  0  0  0  0
  191.6320  173.6590  143.3540 O   0  0  0  0  0  0  0  0  0  0  0  0
  186.6680  176.5230  144.2720 C   0  0  1  0  0  3  0  0  0  0  0  0
  189.7180  175.0770  143.5990 C   0  0  2  0  0  3  0  0  0  0  0  0
  187.9920  176.7280  143.5850 C   0  0  2  0  0  3  0  0  0  0  0  0
  191.2450  174.9740  143.6350 C   0  0  1  0  0  3  0  0  0  0  0  0
  186.7200  177.0660  145.6800 C   0  0  0  0  0  2  0  0  0  0  0  0
  188.9920  171.7060  139.6660 C   0  0  0  0  0  2  0  0  0  0  0  0
  187.9390  176.0080  142.3180 N   0  0  1  0  0  0  0  0  0  0  0  0
  187.0110  178.2760  141.6290 C   0  0  0  0  0  2  0  0  0  0  0  0
  189.7990  174.8540  146.4160 C   0  0  0  0  0  2  0  0  0  0  0  0
  187.6530  176.1450  146.4610 C   0  0  0  0  0  2  0  0  0  0  0  0
  187.6860  176.9440  141.2100 C   0  0  0  0  0  2  0  0  0  0  0  0
  190.3440  171.9890  140.3330 C   0  0  2  0  0  3  0  0  0  0  0  0
  191.5960  173.5500  141.9580 C   0  0  0  0  0  2  0  0  0  0  0  0
  189.0890  176.1170  145.9060 C   0  0  2  0  0  3  0  0  0  0  0  0
  189.2280  175.3220  142.1780 C   0  0  2  0  0  3  0  0  0  0  0  0
  185.4860  176.9940  143.4080 C   0  0  0  0  0  2  0  0  0  0  0  0
  191.8650  175.4830  144.9550 C   0  0  1  0  0  3  0  0  0  0  0  0
  184.5110  178.3460  141.5530 C   0  0  0  0  0  1  0  0  0  0  0  0
  190.2430  172.9820  141.5140 C   0  0  1  0  0  3  0  0  0  0  0  0
  189.0610  173.9920  141.4140 C   0  0  2  0  0  3  0  0  0  0  0  0
  191.3280  174.8620  146.2570 C   0  0  0  0  0  2  0  0  0  0  0  0
  194.1230  174.8560  145.8980 C   0  0  0  0  0  3  0  0  0  0  0  0
  193.3600  175.5000  144.9130 C   0  0  0  0  0  0  0  0  0  0  0  0
  194.0050  176.1520  143.8550 C   0  0  0  0  0  3  0  0  0  0  0  0
  196.0210  176.8010  142.7600 F   0  0  0  0  0  0  0  0  0  0  0  0
  196.1580  175.5270  144.7710 C   0  0  0  0  0  3  0  0  0  0  0  0
  195.4010  176.1680  143.7850 C   0  0  0  0  0  0  0  0  0  0  0  0
  195.5190  174.8720  145.8270 C   0  0  0  0  0  3  0  0  0  0  0  0
  191.4790  172.2270  139.3260 C   0  0  0  0  0  2  0  0  0  0  0  0
  191.3600  171.3840  138.0680 C   0  0  0  0  0  1  0  0  0  0  0  0
  188.1140  174.5110  137.6960 C   0  0  0  0  0  1  0  0  0  0  0  0
  188.2230  173.1320  137.8910 O   0  0  0  0  0  0  0  0  0  0  0  0
  1 25  1  0  0  0  0
  2 23  1  6  0  0  0
  2 21  1  0  0  0  0
  3 19  1  0  0  0  0
  4 11  1  0  0  0  0
  4  1  1  0  0  0  0
  5  9  1  0  0  0  0
  6 10  1  0  0  0  0
  7  9  1  0  0  0  0
  7  3  1  0  0  0  0
  8  6  1  0  0  0  0
  8  3  1  0  0  0  0
  9 22  1  0  0  0  0
 10 15  1  0  0  0  0
 11 17  1  0  0  0  0
 12  8  1  0  0  0  0
 13  2  1  0  0  0  0
 16 13  1  0  0  0  0
 16 12  1  0  0  0  0
 17 24  1  0  0  0  0
 18  5  1  0  0  0  0
 19 14  1  0  0  0  0
 19 15  1  0  0  0  0
 20 12  1  0  0  0  0
 20  7  1  0  0  0  0
 21  6  1  0  0  0  0
 22 26  1  0  0  0  0
 24 18  1  0  0  0  0
 25 24  1  0  0  0  0
 25 20  1  0  0  0  0
 26 14  1  0  0  0  0
 28 22  1  0  0  0  0
 28 27  2  0  0  0  0
 29 28  1  0  0  0  0
 30 32  1  0  0  0  0
 31 33  2  0  0  0  0
 32 29  2  0  0  0  0
 32 31  1  0  0  0  0
 33 27  1  0  0  0  0
 34 17  1  0  0  0  0
 35 34  1  0  0  0  0
 36 37  1  0  0  0  0
 37  4  1  0  0  0  0
M  END
>  <MODEL>
1

>  <REMARK>
 VINA RESULT:      -9.1      0.000      0.000
  Name = 
  3 active torsions:
  status: ('A' for Active; 'I' for Inactive)
    1  A    between atoms: C_5  and  O_23
    2  A    between atoms: C_6  and  C_31
    3  A    between atoms: C_11  and  C_26
                            x       y       z     vdW  Elec       q    Type
                         _______ _______ _______ _____ _____    ______ ____

>  <TORSDO>
F 3

$$$$
=
 OpenBabel11052419523D

 37 43  0  0  1  0  0  0  0  0999 V2000
  188.7300  177.0940  143.8630 C   0  0  0  0  0  2  0  0  0  0  0  0
  193.7970  175.8740  145.7550 C   0  0  2  0  0  3  0  0  0  0  0  0
  191.7250  173.4270  142.7110 C   0  0  1  0  0  3  0  0  0  0  0  0
  187.4540  177.4000  144.6510 C   0  0  2  0  0  3  0  0  0  0  0  0
  188.4540  173.6000  140.9830 O   0  0  0  0  0  0  0  0  0  0  0  0
  192.5180  173.6470  145.1260 C   0  0  1  0  0  3  0  0  0  0  0  0
  190.2830  173.8110  142.5140 C   0  0  2  0  0  3  0  0  0  0  0  0
  192.2140  174.3310  143.8200 C   0  0  2  0  0  3  0  0  0  0  0  0
  189.8480  173.7100  141.0500 C   0  0  1  0  0  3  0  0  0  0  0  0
  193.4060  172.4480  144.8950 C   0  0  0  0  0  2  0  0  0  0  0  0
  186.2070  176.6530  144.1480 C   0  0  0  0  0  2  0  0  0  0  0  0
  191.2000  175.3450  144.0870 N   0  0  1  0  0  0  0  0  0  0  0  0
  193.3360  176.6670  144.5050 C   0  0  0  0  0  2  0  0  0  0  0  0
  190.8440  171.0440  142.3690 C   0  0  0  0  0  2  0  0  0  0  0  0
  192.5510  171.4170  144.1630 C   0  0  0  0  0  2  0  0  0  0  0  0
  191.8220  176.6780  144.1680 C   0  0  0  0  0  2  0  0  0  0  0  0
  186.3480  176.0590  142.7410 C   0  0  2  0  0  3  0  0  0  0  0  0
  187.9700  174.9100  141.1010 C   0  0  0  0  0  2  0  0  0  0  0  0
  192.0420  171.9060  142.7940 C   0  0  2  0  0  3  0  0  0  0  0  0
  190.2270  175.2550  142.9940 C   0  0  2  0  0  3  0  0  0  0  0  0
  192.9870  174.6370  146.2060 C   0  0  0  0  0  2  0  0  0  0  0  0
  190.5490  172.5720  140.2770 C   0  0  1  0  0  3  0  0  0  0  0  0
  193.9520  176.8210  146.9260 C   0  0  0  0  0  1  0  0  0  0  0  0
  187.6270  175.2090  142.5650 C   0  0  1  0  0  3  0  0  0  0  0  0
  188.8120  175.6180  143.4910 C   0  0  2  0  0  3  0  0  0  0  0  0
  190.4560  171.1610  140.8860 C   0  0  0  0  0  2  0  0  0  0  0  0
  189.9630  171.3890  138.1230 C   0  0  0  0  0  3  0  0  0  0  0  0
  190.2100  172.5810  138.8190 C   0  0  0  0  0  0  0  0  0  0  0  0
  190.1160  173.8050  138.1490 C   0  0  0  0  0  3  0  0  0  0  0  0
  189.6980  175.0280  136.1450 F   0  0  0  0  0  0  0  0  0  0  0  0
  189.5430  172.6490  136.0990 C   0  0  0  0  0  3  0  0  0  0  0  0
  189.7860  173.8400  136.7910 C   0  0  0  0  0  0  0  0  0  0  0  0
  189.6310  171.4240  136.7660 C   0  0  0  0  0  3  0  0  0  0  0  0
  186.0280  177.0650  141.6240 C   0  0  0  0  0  2  0  0  0  0  0  0
  184.8140  177.9300  141.9160 C   0  0  0  0  0  1  0  0  0  0  0  0
  185.9720  178.9260  145.2600 C   0  0  0  0  0  1  0  0  0  0  0  0
  187.2180  178.7760  144.6470 O   0  0  0  0  0  0  0  0  0  0  0  0
  1  4  1  0  0  0  0
  2 21  1  0  0  0  0
  2 23  1  1  0  0  0
  3 19  1  0  0  0  0
  3  8  1  0  0  0  0
  5  9  1  0  0  0  0
  5 18  1  0  0  0  0
  6 21  1  0  0  0  0
  7  3  1  0  0  0  0
  7 20  1  0  0  0  0
  8 12  1  0  0  0  0
  8  6  1  0  0  0  0
  9  7  1  0  0  0  0
 10  6  1  0  0  0  0
 11  4  1  0  0  0  0
 12 16  1  0  0  0  0
 13  2  1  0  0  0  0
 14 19  1  0  0  0  0
 15 10  1  0  0  0  0
 16 13  1  0  0  0  0
 17 11  1  0  0  0  0
 18 24  1  0  0  0  0
 19 15  1  0  0  0  0
 20 25  1  0  0  0  0
 20 12  1  0  0  0  0
 22 26  1  0  0  0  0
 22  9  1  0  0  0  0
 24 17  1  0  0  0  0
 24 25  1  0  0  0  0
 25  1  1  0  0  0  0
 26 14  1  0  0  0  0
 27 28  1  0  0  0  0
 28 22  1  0  0  0  0
 29 28  2  0  0  0  0
 30 32  1  0  0  0  0
 31 33  1  0  0  0  0
 31 32  2  0  0  0  0
 32 29  1  0  0  0  0
 33 27  2  0  0  0  0
 34 35  1  0  0  0  0
 34 17  1  0  0  0  0
 37  4  1  0  0  0  0
 37 36  1  0  0  0  0
M  END
>  <MODEL>
2

>  <REMARK>
 VINA RESULT:      -8.1      2.589      7.135
  Name = 
  3 active torsions:
  status: ('A' for Active; 'I' for Inactive)
    1  A    between atoms: C_5  and  O_23
    2  A    between atoms: C_6  and  C_31
    3  A    between atoms: C_11  and  C_26
                            x       y       z     vdW  Elec       q    Type
                         _______ _______ _______ _____ _____    ______ ____

>  <TORSDO>
F 3

$$$$
=
 OpenBabel11052419523D

 37 43  0  0  1  0  0  0  0  0999 V2000
  191.9450  171.5250  141.6530 C   0  0  0  0  0  2  0  0  0  0  0  0
  195.6540  171.2100  145.7620 C   0  0  2  0  0  3  0  0  0  0  0  0
  192.8970  174.6330  145.2830 C   0  0  1  0  0  3  0  0  0  0  0  0
  192.1540  171.3360  140.1480 C   0  0  2  0  0  3  0  0  0  0  0  0
  190.2150  175.5310  142.8920 O   0  0  0  0  0  0  0  0  0  0  0  0
  195.2790  173.7400  145.0890 C   0  0  1  0  0  3  0  0  0  0  0  0
  192.1410  174.6150  143.9820 C   0  0  2  0  0  3  0  0  0  0  0  0
  193.8100  173.4310  145.2110 C   0  0  2  0  0  3  0  0  0  0  0  0
  190.7030  175.1170  144.1370 C   0  0  1  0  0  3  0  0  0  0  0  0
  195.6910  174.7440  146.1380 C   0  0  0  0  0  2  0  0  0  0  0  0
  191.4960  172.4200  139.2780 C   0  0  0  0  0  2  0  0  0  0  0  0
  193.4400  172.6210  144.0560 N   0  0  1  0  0  0  0  0  0  0  0  0
  194.1550  170.8190  145.7060 C   0  0  0  0  0  2  0  0  0  0  0  0
  192.9550  177.1660  144.8880 C   0  0  0  0  0  2  0  0  0  0  0  0
  195.0330  176.0650  145.7480 C   0  0  0  0  0  2  0  0  0  0  0  0
  193.3500  171.2020  144.4360 C   0  0  0  0  0  2  0  0  0  0  0  0
  190.4340  173.2570  140.0020 C   0  0  2  0  0  3  0  0  0  0  0  0
  189.8010  174.3600  142.2440 C   0  0  0  0  0  2  0  0  0  0  0  0
  193.4950  175.9990  145.7280 C   0  0  2  0  0  3  0  0  0  0  0  0
  192.1580  173.1480  143.5760 C   0  0  2  0  0  3  0  0  0  0  0  0
  196.1360  172.4650  145.0000 C   0  0  0  0  0  2  0  0  0  0  0  0
  190.5470  176.2180  145.2080 C   0  0  1  0  0  3  0  0  0  0  0  0
  196.5020  170.0240  145.3550 C   0  0  0  0  0  1  0  0  0  0  0  0
  190.9290  173.8340  141.3480 C   0  0  1  0  0  3  0  0  0  0  0  0
  192.0420  172.9960  142.0450 C   0  0  2  0  0  3  0  0  0  0  0  0
  191.4560  177.4540  145.0680 C   0  0  0  0  0  2  0  0  0  0  0  0
  188.3780  176.0360  146.4910 C   0  0  0  0  0  3  0  0  0  0  0  0
  189.1160  176.5930  145.4370 C   0  0  0  0  0  0  0  0  0  0  0  0
  188.5160  177.5370  144.5950 C   0  0  0  0  0  3  0  0  0  0  0  0
  186.6080  178.8280  143.9800 F   0  0  0  0  0  0  0  0  0  0  0  0
  186.4520  177.3550  145.8490 C   0  0  0  0  0  3  0  0  0  0  0  0
  187.1860  177.9160  144.7990 C   0  0  0  0  0  0  0  0  0  0  0  0
  187.0490  176.4160  146.6950 C   0  0  0  0  0  3  0  0  0  0  0  0
  189.0430  172.6040  140.0010 C   0  0  0  0  0  2  0  0  0  0  0  0
  188.1910  172.9940  138.8060 C   0  0  0  0  0  1  0  0  0  0  0  0
  191.0810  169.5560  140.9080 C   0  0  0  0  0  1  0  0  0  0  0  0
  191.6940  170.0740  139.7650 O   0  0  0  0  0  0  0  0  0  0  0  0
  1 25  1  0  0  0  0
  2 23  1  6  0  0  0
  3 19  1  0  0  0  0
  4  1  1  0  0  0  0
  5  9  1  0  0  0  0
  6  8  1  0  0  0  0
  6 10  1  0  0  0  0
  7  9  1  0  0  0  0
  7  3  1  0  0  0  0
  8  3  1  0  0  0  0
  9 22  1  0  0  0  0
 11 17  1  0  0  0  0
 11  4  1  0  0  0  0
 12 16  1  0  0  0  0
 12  8  1  0  0  0  0
 13  2  1  0  0  0  0
 14 26  1  0  0  0  0
 14 19  1  0  0  0  0
 15 10  1  0  0  0  0
 16 13  1  0  0  0  0
 17 24  1  0  0  0  0
 18  5  1  0  0  0  0
 19 15  1  0  0  0  0
 20  7  1  0  0  0  0
 20 12  1  0  0  0  0
 21  6  1  0  0  0  0
 21  2  1  0  0  0  0
 22 28  1  0  0  0  0
 24 25  1  0  0  0  0
 24 18  1  0  0  0  0
 25 20  1  0  0  0  0
 26 22  1  0  0  0  0
 27 33  1  0  0  0  0
 28 27  2  0  0  0  0
 29 32  2  0  0  0  0
 29 28  1  0  0  0  0
 30 32  1  0  0  0  0
 31 33  2  0  0  0  0
 32 31  1  0  0  0  0
 34 17  1  0  0  0  0
 35 34  1  0  0  0  0
 37  4  1  0  0  0  0
 37 36  1  0  0  0  0
M  END
>  <MODEL>
3

>  <REMARK>
 VINA RESULT:      -8.1      2.809      6.795
  Name = 
  3 active torsions:
  status: ('A' for Active; 'I' for Inactive)
    1  A    between atoms: C_5  and  O_23
    2  A    between atoms: C_6  and  C_31
    3  A    between atoms: C_11  and  C_26
                            x       y       z     vdW  Elec       q    Type
                         _______ _______ _______ _____ _____    ______ ____

>  <TORSDO>
F 3

$$$$
=
 OpenBabel11052419523D

 37 43  0  0  1  0  0  0  0  0999 V2000
  194.7750  175.6820  143.4340 C   0  0  0  0  0  2  0  0  0  0  0  0
  190.8670  176.2260  147.3300 C   0  0  2  0  0  3  0  0  0  0  0  0
  190.0320  174.5720  143.3150 C   0  0  1  0  0  3  0  0  0  0  0  0
  195.7780  176.7200  142.9240 C   0  0  2  0  0  3  0  0  0  0  0  0
  192.0460  173.8930  140.2830 O   0  0  0  0  0  0  0  0  0  0  0  0
  189.7890  176.5290  144.9350 C   0  0  1  0  0  3  0  0  0  0  0  0
  191.1790  174.7270  142.3540 C   0  0  2  0  0  3  0  0  0  0  0  0
  190.5010  175.2500  144.5830 C   0  0  2  0  0  3  0  0  0  0  0  0
  191.3260  173.5200  141.4240 C   0  0  1  0  0  3  0  0  0  0  0  0
  188.2940  176.3280  144.8810 C   0  0  0  0  0  2  0  0  0  0  0  0
  195.8880  176.7910  141.3910 C   0  0  0  0  0  2  0  0  0  0  0  0
  191.9200  175.5640  144.4560 N   0  0  1  0  0  0  0  0  0  0  0  0
  191.7590  175.0210  146.9390 C   0  0  0  0  0  2  0  0  0  0  0  0
  188.6000  175.0610  141.2460 C   0  0  0  0  0  2  0  0  0  0  0  0
  187.9400  176.1370  143.4080 C   0  0  0  0  0  2  0  0  0  0  0  0
  192.6430  175.1510  145.6700 C   0  0  0  0  0  2  0  0  0  0  0  0
  195.3000  175.5800  140.6560 C   0  0  2  0  0  3  0  0  0  0  0  0
  193.3950  173.8440  140.6600 C   0  0  0  0  0  2  0  0  0  0  0  0
  188.6120  174.9050  142.7740 C   0  0  2  0  0  3  0  0  0  0  0  0
  192.3940  174.8580  143.2620 C   0  0  2  0  0  3  0  0  0  0  0  0
  190.3390  177.1670  146.2220 C   0  0  0  0  0  2  0  0  0  0  0  0
  189.9800  172.8560  141.0590 C   0  0  1  0  0  3  0  0  0  0  0  0
  191.5660  177.0500  148.3900 C   0  0  0  0  0  1  0  0  0  0  0  0
  193.8620  175.2350  141.1050 C   0  0  1  0  0  3  0  0  0  0  0  0
  193.5200  175.6520  142.5680 C   0  0  2  0  0  3  0  0  0  0  0  0
  188.8960  173.7720  140.4610 C   0  0  0  0  0  2  0  0  0  0  0  0
  190.7960  170.4780  140.8110 C   0  0  0  0  0  3  0  0  0  0  0  0
  190.1600  171.6010  140.2640 C   0  0  0  0  0  0  0  0  0  0  0  0
  189.6600  171.5450  138.9580 C   0  0  0  0  0  3  0  0  0  0  0  0
  189.3170  170.3280  136.9360 F   0  0  0  0  0  0  0  0  0  0  0  0
  190.4390  169.2610  138.7490 C   0  0  0  0  0  3  0  0  0  0  0  0
  189.8010  170.3780  138.2010 C   0  0  0  0  0  0  0  0  0  0  0  0
  190.9360  169.3120  140.0550 C   0  0  0  0  0  3  0  0  0  0  0  0
  196.2850  174.4070  140.5350 C   0  0  0  0  0  2  0  0  0  0  0  0
  197.7280  174.8440  140.3490 C   0  0  0  0  0  1  0  0  0  0  0  0
  196.9180  175.2140  144.0770 C   0  0  0  0  0  1  0  0  0  0  0  0
  197.0350  176.4700  143.4790 O   0  0  0  0  0  0  0  0  0  0  0  0
  2 23  1  1  0  0  0
  3  8  1  0  0  0  0
  4  1  1  0  0  0  0
  4 37  1  0  0  0  0
  5 18  1  0  0  0  0
  5  9  1  0  0  0  0
  6 21  1  0  0  0  0
  7 20  1  0  0  0  0
  7  3  1  0  0  0  0
  8  6  1  0  0  0  0
  9  7  1  0  0  0  0
 10  6  1  0  0  0  0
 11  4  1  0  0  0  0
 12  8  1  0  0  0  0
 12 16  1  0  0  0  0
 13  2  1  0  0  0  0
 14 19  1  0  0  0  0
 15 10  1  0  0  0  0
 16 13  1  0  0  0  0
 17 24  1  0  0  0  0
 17 11  1  0  0  0  0
 18 24  1  0  0  0  0
 19  3  1  0  0  0  0
 19 15  1  0  0  0  0
 20 12  1  0  0  0  0
 21  2  1  0  0  0  0
 22  9  1  0  0  0  0
 24 25  1  0  0  0  0
 25 20  1  0  0  0  0
 25  1  1  0  0  0  0
 26 22  1  0  0  0  0
 26 14  1  0  0  0  0
 28 27  1  0  0  0  0
 28 22  1  0  0  0  0
 29 28  2  0  0  0  0
 30 32  1  0  0  0  0
 31 33  1  0  0  0  0
 32 31  2  0  0  0  0
 32 29  1  0  0  0  0
 33 27  2  0  0  0  0
 34 17  1  0  0  0  0
 35 34  1  0  0  0  0
 37 36  1  0  0  0  0
M  END
>  <MODEL>
4

>  <REMARK>
 VINA RESULT:      -7.9      2.874      6.757
  Name = 
  3 active torsions:
  status: ('A' for Active; 'I' for Inactive)
    1  A    between atoms: C_5  and  O_23
    2  A    between atoms: C_6  and  C_31
    3  A    between atoms: C_11  and  C_26
                            x       y       z     vdW  Elec       q    Type
                         _______ _______ _______ _____ _____    ______ ____

>  <TORSDO>
F 3

$$$$
=
 OpenBabel11052419523D

 37 43  0  0  1  0  0  0  0  0999 V2000
  190.0410  176.4030  146.9060 C   0  0  0  0  0  2  0  0  0  0  0  0
  184.7290  177.9030  146.3800 C   0  0  2  0  0  3  0  0  0  0  0  0
  187.0760  176.1970  143.0450 C   0  0  1  0  0  3  0  0  0  0  0  0
  191.2170  177.2020  147.4760 C   0  0  2  0  0  3  0  0  0  0  0  0
  190.5460  174.9700  142.6310 O   0  0  0  0  0  0  0  0  0  0  0  0
  185.9890  178.2580  144.0830 C   0  0  1  0  0  3  0  0  0  0  0  0
  188.5450  176.0750  143.3470 C   0  0  2  0  0  3  0  0  0  0  0  0
  186.4850  176.8490  144.2740 C   0  0  2  0  0  3  0  0  0  0  0  0
  189.1600  174.8080  142.7470 C   0  0  1  0  0  3  0  0  0  0  0  0
  185.0910  178.3380  142.8720 C   0  0  0  0  0  2  0  0  0  0  0  0
  192.4870  177.1590  146.6100 C   0  0  0  0  0  2  0  0  0  0  0  0
  187.4950  176.8840  145.3250 N   0  0  1  0  0  0  0  0  0  0  0  0
  185.3770  176.5300  146.6940 C   0  0  0  0  0  2  0  0  0  0  0  0
  187.8990  176.8190  140.6980 C   0  0  0  0  0  2  0  0  0  0  0  0
  185.9920  178.1280  141.6570 C   0  0  0  0  0  2  0  0  0  0  0  0
  186.9210  176.4160  146.5980 C   0  0  0  0  0  2  0  0  0  0  0  0
  192.5050  176.0370  145.5640 C   0  0  2  0  0  3  0  0  0  0  0  0
  191.0620  174.6930  143.9040 C   0  0  0  0  0  2  0  0  0  0  0  0
  186.6910  176.7560  141.6450 C   0  0  2  0  0  3  0  0  0  0  0  0
  188.5970  176.0300  144.8680 C   0  0  2  0  0  3  0  0  0  0  0  0
  185.4250  178.8570  145.3830 C   0  0  0  0  0  2  0  0  0  0  0  0
  188.5200  174.3880  141.4070 C   0  0  1  0  0  3  0  0  0  0  0  0
  184.4620  178.6430  147.6730 C   0  0  0  0  0  1  0  0  0  0  0  0
  191.2270  175.9960  144.6960 C   0  0  1  0  0  3  0  0  0  0  0  0
  189.9500  176.5560  145.3910 C   0  0  2  0  0  3  0  0  0  0  0  0
  188.4780  175.4530  140.2950 C   0  0  0  0  0  2  0  0  0  0  0  0
  189.0480  172.7650  139.5440 C   0  0  0  0  0  3  0  0  0  0  0  0
  189.0430  173.0760  140.9110 C   0  0  0  0  0  0  0  0  0  0  0  0
  189.5580  172.1560  141.8310 C   0  0  0  0  0  3  0  0  0  0  0  0
  190.5620  170.0420  142.2860 F   0  0  0  0  0  0  0  0  0  0  0  0
  190.0660  170.6230  140.0270 C   0  0  0  0  0  3  0  0  0  0  0  0
  190.0660  170.9310  141.3920 C   0  0  0  0  0  0  0  0  0  0  0  0
  189.5580  171.5400  139.1040 C   0  0  0  0  0  3  0  0  0  0  0  0
  193.0040  174.6960  146.1220 C   0  0  0  0  0  2  0  0  0  0  0  0
  194.4110  174.3380  145.6730 C   0  0  0  0  0  1  0  0  0  0  0  0
  191.5660  177.9160  149.5410 C   0  0  0  0  0  1  0  0  0  0  0  0
  191.5050  176.7550  148.7660 O   0  0  0  0  0  0  0  0  0  0  0  0
  1  4  1  0  0  0  0
  2 13  1  0  0  0  0
  2 23  1  1  0  0  0
  3  7  1  0  0  0  0
  3  8  1  0  0  0  0
  4 37  1  0  0  0  0
  5  9  1  0  0  0  0
  5 18  1  0  0  0  0
  6  8  1  0  0  0  0
  6 21  1  0  0  0  0
  7 20  1  0  0  0  0
  8 12  1  0  0  0  0
  9  7  1  0  0  0  0
 10  6  1  0  0  0  0
 11  4  1  0  0  0  0
 12 16  1  0  0  0  0
 14 19  1  0  0  0  0
 15 10  1  0  0  0  0
 16 13  1  0  0  0  0
 17 34  1  0  0  0  0
 17 11  1  0  0  0  0
 18 24  1  0  0  0  0
 19 15  1  0  0  0  0
 19  3  1  0  0  0  0
 20 12  1  0  0  0  0
 20 25  1  0  0  0  0
 21  2  1  0  0  0  0
 22  9  1  0  0  0  0
 24 25  1  0  0  0  0
 24 17  1  0  0  0  0
 25  1  1  0  0  0  0
 26 14  1  0  0  0  0
 26 22  1  0  0  0  0
 27 28  1  0  0  0  0
 28 22  1  0  0  0  0
 28 29  2  0  0  0  0
 31 32  2  0  0  0  0
 32 29  1  0  0  0  0
 32 30  1  0  0  0  0
 33 27  2  0  0  0  0
 33 31  1  0  0  0  0
 35 34  1  0  0  0  0
 37 36  1  0  0  0  0
M  END
>  <MODEL>
5

>  <REMARK>
 VINA RESULT:      -7.5      2.396      6.527
  Name = 
  3 active torsions:
  status: ('A' for Active; 'I' for Inactive)
    1  A    between atoms: C_5  and  O_23
    2  A    between atoms: C_6  and  C_31
    3  A    between atoms: C_11  and  C_26
                            x       y       z     vdW  Elec       q    Type
                         _______ _______ _______ _____ _____    ______ ____

>  <TORSDO>
F 3

$$$$
=
 OpenBabel11052419523D

 37 43  0  0  1  0  0  0  0  0999 V2000
  194.4690  175.1610  142.9490 C   0  0  0  0  0  2  0  0  0  0  0  0
  194.1620  173.1280  137.8010 C   0  0  2  0  0  3  0  0  0  0  0  0
  190.5900  173.8670  140.3000 C   0  0  1  0  0  3  0  0  0  0  0  0
  195.3340  174.6900  144.1220 C   0  0  2  0  0  3  0  0  0  0  0  0
  189.9970  175.1850  143.7090 O   0  0  0  0  0  0  0  0  0  0  0  0
  192.1810  172.1630  139.2620 C   0  0  1  0  0  3  0  0  0  0  0  0
  190.9190  174.2030  141.7290 C   0  0  2  0  0  3  0  0  0  0  0  0
  191.9300  173.5950  139.6520 C   0  0  2  0  0  3  0  0  0  0  0  0
  189.9750  175.2580  142.3120 C   0  0  1  0  0  3  0  0  0  0  0  0
  191.0130  171.6230  138.4720 C   0  0  0  0  0  2  0  0  0  0  0  0
  194.5740  174.5610  145.4540 C   0  0  0  0  0  2  0  0  0  0  0  0
  192.9900  173.9850  140.5750 N   0  0  1  0  0  0  0  0  0  0  0  0
  194.0470  174.5780  138.3350 C   0  0  0  0  0  2  0  0  0  0  0  0
  188.6250  172.5970  141.3470 C   0  0  0  0  0  2  0  0  0  0  0  0
  189.8490  171.5080  139.4530 C   0  0  0  0  0  2  0  0  0  0  0  0
  194.0060  174.7870  139.8720 C   0  0  0  0  0  2  0  0  0  0  0  0
  193.2230  175.2850  145.4870 C   0  0  2  0  0  3  0  0  0  0  0  0
  191.1370  175.8990  144.1030 C   0  0  0  0  0  2  0  0  0  0  0  0
  189.4300  172.8570  140.0650 C   0  0  2  0  0  3  0  0  0  0  0  0
  192.3430  174.7370  141.6550 C   0  0  2  0  0  3  0  0  0  0  0  0
  193.5710  171.9670  138.6320 C   0  0  0  0  0  2  0  0  0  0  0  0
  188.5370  175.1700  141.7570 C   0  0  1  0  0  3  0  0  0  0  0  0
  195.6080  172.8220  137.4760 C   0  0  0  0  0  1  0  0  0  0  0  0
  192.3180  174.9370  144.2830 C   0  0  1  0  0  3  0  0  0  0  0  0
  193.0840  174.5240  142.9910 C   0  0  2  0  0  3  0  0  0  0  0  0
  187.8330  173.8050  141.8710 C   0  0  0  0  0  2  0  0  0  0  0  0
  187.7050  177.5520  141.6190 C   0  0  0  0  0  3  0  0  0  0  0  0
  187.6710  176.2930  142.2360 C   0  0  0  0  0  0  0  0  0  0  0  0
  186.7960  176.0700  143.3050 C   0  0  0  0  0  3  0  0  0  0  0  0
  185.1210  176.8790  144.7960 F   0  0  0  0  0  0  0  0  0  0  0  0
  186.0050  178.3530  143.1440 C   0  0  0  0  0  3  0  0  0  0  0  0
  185.9650  177.0980  143.7600 C   0  0  0  0  0  0  0  0  0  0  0  0
  186.8740  178.5790  142.0730 C   0  0  0  0  0  3  0  0  0  0  0  0
  193.3400  176.7720  145.8560 C   0  0  0  0  0  2  0  0  0  0  0  0
  194.4810  177.0700  146.8130 C   0  0  0  0  0  1  0  0  0  0  0  0
  196.2360  176.5410  143.3120 C   0  0  0  0  0  1  0  0  0  0  0  0
  196.4230  175.5500  144.2780 O   0  0  0  0  0  0  0  0  0  0  0  0
  1 25  1  0  0  0  0
  1  4  1  0  0  0  0
  2 23  1  1  0  0  0
  2 13  1  0  0  0  0
  2 21  1  0  0  0  0
  3  7  1  0  0  0  0
  4 37  1  0  0  0  0
  4 11  1  0  0  0  0
  5 18  1  0  0  0  0
  6  8  1  0  0  0  0
  7  9  1  0  0  0  0
  8  3  1  0  0  0  0
  8 12  1  0  0  0  0
  9  5  1  0  0  0  0
 10  6  1  0  0  0  0
 10 15  1  0  0  0  0
 11 17  1  0  0  0  0
 12 20  1  0  0  0  0
 13 16  1  0  0  0  0
 14 26  1  0  0  0  0
 15 19  1  0  0  0  0
 16 12  1  0  0  0  0
 17 34  1  0  0  0  0
 18 24  1  0  0  0  0
 19  3  1  0  0  0  0
 19 14  1  0  0  0  0
 20  7  1  0  0  0  0
 20 25  1  0  0  0  0
 21  6  1  0  0  0  0
 22 26  1  0  0  0  0
 22 28  1  0  0  0  0
 22  9  1  0  0  0  0
 24 17  1  0  0  0  0
 25 24  1  0  0  0  0
 27 33  2  0  0  0  0
 27 28  1  0  0  0  0
 28 29  2  0  0  0  0
 29 32  1  0  0  0  0
 31 32  2  0  0  0  0
 32 30  1  0  0  0  0
 33 31  1  0  0  0  0
 34 35  1  0  0  0  0
 36 37  1  0  0  0  0
M  END
>  <MODEL>
6

>  <REMARK>
 VINA RESULT:      -7.5      2.796      7.884
  Name = 
  3 active torsions:
  status: ('A' for Active; 'I' for Inactive)
    1  A    between atoms: C_5  and  O_23
    2  A    between atoms: C_6  and  C_31
    3  A    between atoms: C_11  and  C_26
                            x       y       z     vdW  Elec       q    Type
                         _______ _______ _______ _____ _____    ______ ____

>  <TORSDO>
F 3

$$$$
=
 OpenBabel11052419523D

 37 43  0  0  1  0  0  0  0  0999 V2000
  193.0750  175.5660  144.8650 C   0  0  0  0  0  2  0  0  0  0  0  0
  187.7850  176.7780  145.9960 C   0  0  2  0  0  3  0  0  0  0  0  0
  188.9870  174.2990  142.5380 C   0  0  1  0  0  3  0  0  0  0  0  0
  194.2780  176.5070  144.7540 C   0  0  2  0  0  3  0  0  0  0  0  0
  192.2050  173.0710  141.1780 O   0  0  0  0  0  0  0  0  0  0  0  0
  188.1080  176.5410  143.3820 C   0  0  1  0  0  3  0  0  0  0  0  0
  190.4720  174.2880  142.2970 C   0  0  2  0  0  3  0  0  0  0  0  0
  188.7950  175.2410  143.7050 C   0  0  2  0  0  3  0  0  0  0  0  0
  190.9760  172.9200  141.8320 C   0  0  1  0  0  3  0  0  0  0  0  0
  186.8390  176.2830  142.6060 C   0  0  0  0  0  2  0  0  0  0  0  0
  195.1590  176.2620  143.5170 C   0  0  0  0  0  2  0  0  0  0  0  0
  190.1000  175.5690  144.2690 N   0  0  1  0  0  0  0  0  0  0  0  0
  188.6530  175.5480  146.3640 C   0  0  0  0  0  2  0  0  0  0  0  0
  188.8560  174.2980  139.9780 C   0  0  0  0  0  2  0  0  0  0  0  0
  187.2720  175.7780  141.2320 C   0  0  0  0  0  2  0  0  0  0  0  0
  190.0670  175.4400  145.7360 C   0  0  0  0  0  2  0  0  0  0  0  0
  194.9350  174.9060  142.8370 C   0  0  2  0  0  3  0  0  0  0  0  0
  193.1630  173.1470  142.1970 C   0  0  0  0  0  2  0  0  0  0  0  0
  188.0740  174.4640  141.2890 C   0  0  2  0  0  3  0  0  0  0  0  0
  191.0600  174.6450  143.6550 C   0  0  2  0  0  3  0  0  0  0  0  0
  187.9720  177.4500  144.6160 C   0  0  0  0  0  2  0  0  0  0  0  0
  189.9580  172.1510  140.9630 C   0  0  1  0  0  3  0  0  0  0  0  0
  187.9080  177.8270  147.0800 C   0  0  0  0  0  1  0  0  0  0  0  0
  193.4470  174.6150  142.5380 C   0  0  1  0  0  3  0  0  0  0  0  0
  192.4410  175.3140  143.5010 C   0  0  2  0  0  3  0  0  0  0  0  0
  189.4070  172.8850  139.7270 C   0  0  0  0  0  2  0  0  0  0  0  0
  190.8140  169.8730  141.6440 C   0  0  0  0  0  3  0  0  0  0  0  0
  190.4180  170.7640  140.6360 C   0  0  0  0  0  0  0  0  0  0  0  0
  190.4270  170.3460  139.3010 C   0  0  0  0  0  3  0  0  0  0  0  0
  190.8470  168.6510  137.6780 F   0  0  0  0  0  0  0  0  0  0  0  0
  191.2350  168.1670  139.9800 C   0  0  0  0  0  3  0  0  0  0  0  0
  190.8370  169.0510  138.9720 C   0  0  0  0  0  0  0  0  0  0  0  0
  191.2230  168.5780  141.3160 C   0  0  0  0  0  3  0  0  0  0  0  0
  195.7470  173.7670  143.4730 C   0  0  0  0  0  2  0  0  0  0  0  0
  197.1050  174.2070  143.9930 C   0  0  0  0  0  1  0  0  0  0  0  0
  194.2730  177.0190  146.9070 C   0  0  0  0  0  1  0  0  0  0  0  0
  195.0510  176.4210  145.9130 O   0  0  0  0  0  0  0  0  0  0  0  0
  2 13  1  0  0  0  0
  2 23  1  1  0  0  0
  3  8  1  0  0  0  0
  4  1  1  0  0  0  0
  4 37  1  0  0  0  0
  5  9  1  0  0  0  0
  5 18  1  0  0  0  0
  6  8  1  0  0  0  0
  6 21  1  0  0  0  0
  7  3  1  0  0  0  0
  7 20  1  0  0  0  0
  8 12  1  0  0  0  0
  9  7  1  0  0  0  0
 10  6  1  0  0  0  0
 11  4  1  0  0  0  0
 12 16  1  0  0  0  0
 14 19  1  0  0  0  0
 15 19  1  0  0  0  0
 15 10  1  0  0  0  0
 16 13  1  0  0  0  0
 17 34  1  0  0  0  0
 17 11  1  0  0  0  0
 18 24  1  0  0  0  0
 19  3  1  0  0  0  0
 20 12  1  0  0  0  0
 21  2  1  0  0  0  0
 22  9  1  0  0  0  0
 24 17  1  0  0  0  0
 24 25  1  0  0  0  0
 25 20  1  0  0  0  0
 25  1  1  0  0  0  0
 26 14  1  0  0  0  0
 26 22  1  0  0  0  0
 28 22  1  0  0  0  0
 28 27  2  0  0  0  0
 29 28  1  0  0  0  0
 30 32  1  0  0  0  0
 31 33  2  0  0  0  0
 32 29  2  0  0  0  0
 32 31  1  0  0  0  0
 33 27  1  0  0  0  0
 34 35  1  0  0  0  0
 37 36  1  0  0  0  0
M  END
>  <MODEL>
7

>  <REMARK>
 VINA RESULT:      -7.2      2.601      6.486
  Name = 
  3 active torsions:
  status: ('A' for Active; 'I' for Inactive)
    1  A    between atoms: C_5  and  O_23
    2  A    between atoms: C_6  and  C_31
    3  A    between atoms: C_11  and  C_26
                            x       y       z     vdW  Elec       q    Type
                         _______ _______ _______ _____ _____    ______ ____

>  <TORSDO>
F 3

$$$$
=
 OpenBabel11052419523D

 37 43  0  0  1  0  0  0  0  0999 V2000
  191.2700  175.1100  142.7640 C   0  0  0  0  0  2  0  0  0  0  0  0
  194.3740  174.5360  138.2070 C   0  0  2  0  0  3  0  0  0  0  0  0
  195.6530  173.0670  142.1750 C   0  0  1  0  0  3  0  0  0  0  0  0
  190.5960  176.3680  143.3200 C   0  0  2  0  0  3  0  0  0  0  0  0
  194.1790  173.0530  145.5720 O   0  0  0  0  0  0  0  0  0  0  0  0
  195.9360  174.7990  140.3230 C   0  0  1  0  0  3  0  0  0  0  0  0
  194.7650  173.5270  143.2990 C   0  0  2  0  0  3  0  0  0  0  0  0
  195.0800  173.7240  140.9400 C   0  0  2  0  0  3  0  0  0  0  0  0
  194.5800  172.4520  144.3730 C   0  0  1  0  0  3  0  0  0  0  0  0
  197.3490  174.3010  140.1370 C   0  0  0  0  0  2  0  0  0  0  0  0
  190.8030  176.5800  144.8300 C   0  0  0  0  0  2  0  0  0  0  0  0
  193.7980  174.3310  141.2770 N   0  0  1  0  0  0  0  0  0  0  0  0
  193.3660  173.5730  138.8850 C   0  0  0  0  0  2  0  0  0  0  0  0
  197.5260  173.4120  143.8910 C   0  0  0  0  0  2  0  0  0  0  0  0
  197.9410  174.1580  141.5370 C   0  0  0  0  0  2  0  0  0  0  0  0
  192.7870  173.9800  140.2650 C   0  0  0  0  0  2  0  0  0  0  0  0
  191.2860  175.3360  145.5850 C   0  0  2  0  0  3  0  0  0  0  0  0
  192.7970  173.2520  145.4460 C   0  0  0  0  0  2  0  0  0  0  0  0
  197.1880  173.1430  142.4170 C   0  0  2  0  0  3  0  0  0  0  0  0
  193.4420  173.8320  142.6100 C   0  0  2  0  0  3  0  0  0  0  0  0
  195.2730  175.4330  139.0880 C   0  0  0  0  0  2  0  0  0  0  0  0
  195.8230  171.5590  144.5700 C   0  0  1  0  0  3  0  0  0  0  0  0
  193.6470  175.4000  137.1980 C   0  0  0  0  0  1  0  0  0  0  0  0
  192.5200  174.6700  144.9320 C   0  0  1  0  0  3  0  0  0  0  0  0
  192.6410  174.8920  143.3950 C   0  0  2  0  0  3  0  0  0  0  0  0
  197.1540  172.2770  144.8580 C   0  0  0  0  0  2  0  0  0  0  0  0
  194.4020  169.6640  145.4490 C   0  0  0  0  0  3  0  0  0  0  0  0
  195.5720  170.4330  145.5240 C   0  0  0  0  0  0  0  0  0  0  0  0
  196.5360  170.1320  146.4920 C   0  0  0  0  0  3  0  0  0  0  0  0
  197.2670  168.7880  148.3210 F   0  0  0  0  0  0  0  0  0  0  0  0
  195.1620  168.3120  147.3080 C   0  0  0  0  0  3  0  0  0  0  0  0
  196.3320  169.0750  147.3840 C   0  0  0  0  0  0  0  0  0  0  0  0
  194.1980  168.6070  146.3400 C   0  0  0  0  0  3  0  0  0  0  0  0
  190.1430  174.4030  146.0110 C   0  0  0  0  0  2  0  0  0  0  0  0
  189.2370  175.0010  147.0740 C   0  0  0  0  0  1  0  0  0  0  0  0
  188.9870  177.5290  142.3390 C   0  0  0  0  0  1  0  0  0  0  0  0
  189.2310  176.3380  143.0270 O   0  0  0  0  0  0  0  0  0  0  0  0
  1  4  1  0  0  0  0
  1 25  1  0  0  0  0
  2 23  1  6  0  0  0
  2 13  1  0  0  0  0
  2 21  1  0  0  0  0
  3 19  1  0  0  0  0
  3  7  1  0  0  0  0
  4 11  1  0  0  0  0
  6  8  1  0  0  0  0
  7  9  1  0  0  0  0
  8 12  1  0  0  0  0
  8  3  1  0  0  0  0
  9 22  1  0  0  0  0
  9  5  1  0  0  0  0
 10  6  1  0  0  0  0
 10 15  1  0  0  0  0
 11 17  1  0  0  0  0
 12 20  1  0  0  0  0
 13 16  1  0  0  0  0
 14 26  1  0  0  0  0
 15 19  1  0  0  0  0
 16 12  1  0  0  0  0
 17 34  1  0  0  0  0
 18  5  1  0  0  0  0
 19 14  1  0  0  0  0
 20  7  1  0  0  0  0
 20 25  1  0  0  0  0
 21  6  1  0  0  0  0
 22 26  1  0  0  0  0
 22 28  1  0  0  0  0
 24 18  1  0  0  0  0
 24 17  1  0  0  0  0
 25 24  1  0  0  0  0
 27 28  2  0  0  0  0
 27 33  1  0  0  0  0
 28 29  1  0  0  0  0
 29 32  2  0  0  0  0
 31 32  1  0  0  0  0
 32 30  1  0  0  0  0
 33 31  2  0  0  0  0
 34 35  1  0  0  0  0
 36 37  1  0  0  0  0
 37  4  1  0  0  0  0
M  END
>  <MODEL>
8

>  <REMARK>
 VINA RESULT:      -7.0      3.943      7.497
  Name = 
  3 active torsions:
  status: ('A' for Active; 'I' for Inactive)
    1  A    between atoms: C_5  and  O_23
    2  A    between atoms: C_6  and  C_31
    3  A    between atoms: C_11  and  C_26
                            x       y       z     vdW  Elec       q    Type
                         _______ _______ _______ _____ _____    ______ ____

>  <TORSDO>
F 3

$$$$
=
 OpenBabel11052419523D

 37 43  0  0  1  0  0  0  0  0999 V2000
  191.4600  175.5920  145.8020 C   0  0  0  0  0  2  0  0  0  0  0  0
  196.4060  173.1320  145.3350 C   0  0  2  0  0  3  0  0  0  0  0  0
  192.9770  172.1260  142.7320 C   0  0  1  0  0  3  0  0  0  0  0  0
  190.5990  175.7970  147.0510 C   0  0  2  0  0  3  0  0  0  0  0  0
  189.4800  173.3050  142.4210 O   0  0  0  0  0  0  0  0  0  0  0  0
  194.4970  171.4320  144.6610 C   0  0  1  0  0  3  0  0  0  0  0  0
  191.6830  172.7490  143.1800 C   0  0  2  0  0  3  0  0  0  0  0  0
  193.9850  172.5410  143.7800 C   0  0  2  0  0  3  0  0  0  0  0  0
  190.8110  173.1930  142.0020 C   0  0  1  0  0  3  0  0  0  0  0  0
  194.9530  170.2640  143.8200 C   0  0  0  0  0  2  0  0  0  0  0  0
  189.1160  175.4360  146.8610 C   0  0  0  0  0  2  0  0  0  0  0  0
  193.3790  173.5420  144.6510 N   0  0  1  0  0  0  0  0  0  0  0  0
  195.7940  174.3450  144.5900 C   0  0  0  0  0  2  0  0  0  0  0  0
  191.4830  170.1320  142.1290 C   0  0  0  0  0  2  0  0  0  0  0  0
  193.6920  169.6580  143.2090 C   0  0  0  0  0  2  0  0  0  0  0  0
  194.2990  174.6760  144.8410 C   0  0  0  0  0  2  0  0  0  0  0  0
  188.6730  175.3210  145.3970 C   0  0  2  0  0  3  0  0  0  0  0  0
  189.3880  174.5580  143.0420 C   0  0  0  0  0  2  0  0  0  0  0  0
  192.9250  170.6330  142.2970 C   0  0  2  0  0  3  0  0  0  0  0  0
  192.1270  173.9490  144.0040 C   0  0  2  0  0  3  0  0  0  0  0  0
  195.4980  171.9400  145.7130 C   0  0  0  0  0  2  0  0  0  0  0  0
  190.9450  172.2850  140.7610 C   0  0  1  0  0  3  0  0  0  0  0  0
  197.1360  173.6130  146.5710 C   0  0  0  0  0  1  0  0  0  0  0  0
  189.5900  174.4070  144.5540 C   0  0  1  0  0  3  0  0  0  0  0  0
  191.0630  174.3220  145.0570 C   0  0  2  0  0  3  0  0  0  0  0  0
  190.7030  170.7800  140.9740 C   0  0  0  0  0  2  0  0  0  0  0  0
  188.7950  172.7140  139.5040 C   0  0  0  0  0  3  0  0  0  0  0  0
  190.1920  172.8170  139.5820 C   0  0  0  0  0  0  0  0  0  0  0  0
  190.8960  173.4500  138.5520 C   0  0  0  0  0  3  0  0  0  0  0  0
  190.9000  174.5790  136.4520 F   0  0  0  0  0  0  0  0  0  0  0  0
  188.8210  173.8600  137.3730 C   0  0  0  0  0  3  0  0  0  0  0  0
  190.2140  173.9690  137.4480 C   0  0  0  0  0  0  0  0  0  0  0  0
  188.1130  173.2330  138.4010 C   0  0  0  0  0  3  0  0  0  0  0  0
  188.2830  176.6710  144.7750 C   0  0  0  0  0  2  0  0  0  0  0  0
  187.4970  177.5680  145.7150 C   0  0  0  0  0  1  0  0  0  0  0  0
  191.5730  177.0540  148.5890 C   0  0  0  0  0  1  0  0  0  0  0  0
  190.7140  177.1170  147.4900 O   0  0  0  0  0  0  0  0  0  0  0  0
  1  4  1  0  0  0  0
  2 21  1  0  0  0  0
  2 23  1  1  0  0  0
  3  7  1  0  0  0  0
  3  8  1  0  0  0  0
  4 37  1  0  0  0  0
  5 18  1  0  0  0  0
  6 21  1  0  0  0  0
  7 20  1  0  0  0  0
  8 12  1  0  0  0  0
  8  6  1  0  0  0  0
  9  5  1  0  0  0  0
  9  7  1  0  0  0  0
 10  6  1  0  0  0  0
 11  4  1  0  0  0  0
 12 16  1  0  0  0  0
 13 16  1  0  0  0  0
 13  2  1  0  0  0  0
 14 19  1  0  0  0  0
 15 10  1  0  0  0  0
 17 11  1  0  0  0  0
 18 24  1  0  0  0  0
 19  3  1  0  0  0  0
 19 15  1  0  0  0  0
 20 12  1  0  0  0  0
 20 25  1  0  0  0  0
 22 26  1  0  0  0  0
 22  9  1  0  0  0  0
 24 25  1  0  0  0  0
 24 17  1  0  0  0  0
 25  1  1  0  0  0  0
 26 14  1  0  0  0  0
 27 28  1  0  0  0  0
 28 22  1  0  0  0  0
 29 28  2  0  0  0  0
 30 32  1  0  0  0  0
 31 32  2  0  0  0  0
 31 33  1  0  0  0  0
 32 29  1  0  0  0  0
 33 27  2  0  0  0  0
 34 17  1  0  0  0  0
 34 35  1  0  0  0  0
 37 36  1  0  0  0  0
M  END
>  <MODEL>
9

>  <REMARK>
 VINA RESULT:      -6.9      2.846      8.213
  Name = 
  3 active torsions:
  status: ('A' for Active; 'I' for Inactive)
    1  A    between atoms: C_5  and  O_23
    2  A    between atoms: C_6  and  C_31
    3  A    between atoms: C_11  and  C_26
                            x       y       z     vdW  Elec       q    Type
                         _______ _______ _______ _____ _____    ______ ____

>  <TORSDO>
F 3

$$$$
