=
 OpenBabel11052421423D

 32 34  0  0  1  0  0  0  0  0999 V2000
  187.8450  177.1050  141.9010 C   0  0  2  0  0  3  0  0  0  0  0  0
  188.2020  175.4130  141.3170 S   0  0  0  0  0  0  0  0  0  0  0  0
  188.8840  177.6180  142.7030 O   0  0  0  0  0  0  0  0  0  0  0  0
  189.5350  176.5200  143.2810 C   0  0  1  0  0  3  0  0  0  0  0  0
  189.7470  175.4680  142.2260 C   0  0  0  0  0  2  0  0  0  0  0  0
  186.4990  178.1420  143.7960 C   0  0  0  0  0  2  0  0  0  0  0  0
  184.2620  178.8570  143.3000 O   0  0  0  0  0  0  0  0  0  0  0  0
  184.0880  177.8390  142.3440 C   0  0  2  0  0  3  0  0  0  0  0  0
  186.4840  177.1920  142.5950 C   0  0  1  0  0  3  0  0  0  0  0  0
  185.4000  177.5940  141.5930 C   0  0  0  0  0  2  0  0  0  0  0  0
  185.0740  178.3210  144.3150 C   0  0  2  0  0  3  0  0  0  0  0  0
  181.8260  178.7590  141.8650 O   0  0  0  0  0  1  0  0  0  0  0  0
  183.1560  178.0280  140.1510 O   0  0  0  0  0  0  0  0  0  0  0  0
  183.0080  178.2140  141.3880 C   0  0  0  0  0  0  0  0  0  0  0  0
  185.0860  179.2500  145.5180 C   0  0  0  0  0  2  0  0  0  0  0  0
  184.6400  178.5180  146.7740 C   0  0  0  0  0  2  0  0  0  0  0  0
  185.5280  177.4820  147.0650 O   0  0  0  0  0  0  0  0  0  0  0  0
  186.6060  178.1090  147.6900 C   0  0  0  0  0  2  0  0  0  0  0  0
  187.9020  177.6110  147.0860 C   0  0  0  0  0  2  0  0  0  0  0  0
  187.7220  176.1860  146.6080 C   0  0  0  0  0  1  0  0  0  0  0  0
  190.8670  176.9570  143.8760 C   0  0  0  0  0  2  0  0  0  0  0  0
  193.6960  176.5340  145.8400 C   0  0  0  0  0  0  0  0  0  0  0  0
  193.8370  175.8050  143.4420 C   0  0  2  0  0  3  0  0  0  0  0  0
  191.6040  175.8200  144.5960 C   0  0  1  0  0  3  0  0  0  0  0  0
  195.6690  176.8600  144.5490 O   0  0  0  0  0  1  0  0  0  0  0  0
  194.2100  177.1430  146.8180 O   0  0  0  0  0  0  0  0  0  0  0  0
  192.5410  175.0410  143.6700 C   0  0  0  0  0  2  0  0  0  0  0  0
  194.6340  175.1030  142.5380 O   0  0  0  0  0  1  0  0  0  0  0  0
  192.2780  176.2750  145.8170 N   0  0  0  0  0  0  0  0  0  0  0  0
  194.5900  175.9970  144.7540 C   0  0  1  0  0  3  0  0  0  0  0  0
  191.4500  176.5970  146.9730 C   0  0  0  0  0  2  0  0  0  0  0  0
  191.1890  175.3490  147.7950 C   0  0  0  0  0  1  0  0  0  0  0  0
  1  2  1  1  0  0  0
  1  9  1  0  0  0  0
  1  3  1  0  0  0  0
  2  5  1  0  0  0  0
  3  4  1  0  0  0  0
  4 21  1  6  0  0  0
  5  4  1  0  0  0  0
  6 11  1  0  0  0  0
  7 11  1  0  0  0  0
  8 14  1  6  0  0  0
  8  7  1  0  0  0  0
  9 10  1  6  0  0  0
  9  6  1  0  0  0  0
 10  8  1  0  0  0  0
 11 15  1  1  0  0  0
 13 14  2  0  0  0  0
 14 12  1  0  0  0  0
 15 16  1  0  0  0  0
 16 17  1  0  0  0  0
 17 18  1  0  0  0  0
 19 18  1  0  0  0  0
 20 19  1  0  0  0  0
 22 26  2  0  0  0  0
 23 28  1  6  0  0  0
 23 27  1  0  0  0  0
 23 30  1  0  0  0  0
 24 21  1  6  0  0  0
 24 29  1  0  0  0  0
 27 24  1  0  0  0  0
 29 22  1  0  0  0  0
 29 31  1  0  0  0  0
 30 25  1  6  0  0  0
 30 22  1  0  0  0  0
 31 32  1  0  0  0  0
M  END
>  <MODEL>
1

>  <REMARK>
 VINA RESULT:      -6.9      0.000      0.000
  Name = 
  10 active torsions:
  status: ('A' for Active; 'I' for Inactive)
    1  A    between atoms: C_1  and  C_20
    2  A    between atoms: C_4  and  C_12
    3  A    between atoms: C_6  and  N_31
    4  A    between atoms: C_9  and  C_28
    5  A    between atoms: C_10  and  C_19
    6  A    between atoms: C_10  and  C_23
    7  A    between atoms: C_15  and  C_26
    8  A    between atoms: C_16  and  C_26
    9  A    between atoms: C_19  and  O_24
   10  A    between atoms: C_20  and  O_24
                            x       y       z     vdW  Elec       q    Type
                         _______ _______ _______ _____ _____    ______ ____

>  <TORSDO>
F 10

$$$$
=
 OpenBabel11052421423D

 32 34  0  0  1  0  0  0  0  0999 V2000
  189.4470  177.6120  143.0140 C   0  0  2  0  0  3  0  0  0  0  0  0
  187.8910  177.5280  142.0640 S   0  0  0  0  0  0  0  0  0  0  0  0
  190.2760  176.4970  142.7700 O   0  0  0  0  0  0  0  0  0  0  0  0
  189.4400  175.4410  142.3900 C   0  0  1  0  0  3  0  0  0  0  0  0
  188.4280  175.9510  141.3990 C   0  0  0  0  0  2  0  0  0  0  0  0
  187.8000  177.3500  144.9370 C   0  0  0  0  0  2  0  0  0  0  0  0
  188.6720  176.5990  147.0430 O   0  0  0  0  0  0  0  0  0  0  0  0
  189.9100  177.2300  146.8200 C   0  0  2  0  0  3  0  0  0  0  0  0
  189.1920  177.8250  144.5070 C   0  0  1  0  0  3  0  0  0  0  0  0
  190.2820  177.1460  145.3370 C   0  0  0  0  0  2  0  0  0  0  0  0
  187.6910  177.4200  146.4580 C   0  0  2  0  0  3  0  0  0  0  0  0
  191.5140  177.2860  148.7230 O   0  0  0  0  0  1  0  0  0  0  0  0
  191.3770  175.4300  147.3880 O   0  0  0  0  0  0  0  0  0  0  0  0
  190.9670  176.5910  147.6540 C   0  0  0  0  0  0  0  0  0  0  0  0
  186.3070  176.9650  146.8880 C   0  0  0  0  0  2  0  0  0  0  0  0
  185.5350  178.1060  147.5300 C   0  0  0  0  0  2  0  0  0  0  0  0
  185.2780  179.1010  146.5850 O   0  0  0  0  0  0  0  0  0  0  0  0
  184.1050  178.6880  145.9520 C   0  0  0  0  0  2  0  0  0  0  0  0
  184.2200  178.9310  144.4630 C   0  0  0  0  0  2  0  0  0  0  0  0
  185.3660  179.8820  144.1920 C   0  0  0  0  0  1  0  0  0  0  0  0
  190.2640  174.3150  141.7800 C   0  0  0  0  0  2  0  0  0  0  0  0
  191.2760  170.9970  141.7940 C   0  0  0  0  0  0  0  0  0  0  0  0
  190.0120  171.8080  139.7830 C   0  0  2  0  0  3  0  0  0  0  0  0
  189.6460  172.9290  142.0040 C   0  0  1  0  0  3  0  0  0  0  0  0
  191.8350  170.2800  139.5940 O   0  0  0  0  0  1  0  0  0  0  0  0
  192.2530  170.3570  142.2730 O   0  0  0  0  0  0  0  0  0  0  0  0
  188.9760  172.3690  140.7470 C   0  0  0  0  0  2  0  0  0  0  0  0
  189.3740  171.3750  138.6210 O   0  0  0  0  0  1  0  0  0  0  0  0
  190.5970  171.9820  142.5970 N   0  0  0  0  0  0  0  0  0  0  0  0
  190.7700  170.6480  140.4200 C   0  0  1  0  0  3  0  0  0  0  0  0
  190.9460  172.1580  144.0020 C   0  0  0  0  0  2  0  0  0  0  0  0
  189.6890  172.2420  144.8470 C   0  0  0  0  0  1  0  0  0  0  0  0
  1  2  1  6  0  0  0
  1  9  1  0  0  0  0
  3  1  1  0  0  0  0
  4 21  1  6  0  0  0
  4  3  1  0  0  0  0
  5  2  1  0  0  0  0
  5  4  1  0  0  0  0
  6 11  1  0  0  0  0
  8  7  1  0  0  0  0
  8 14  1  1  0  0  0
  9  6  1  1  0  0  0
  9 10  1  0  0  0  0
 10  8  1  0  0  0  0
 11 15  1  6  0  0  0
 11  7  1  0  0  0  0
 13 14  2  0  0  0  0
 14 12  1  0  0  0  0
 15 16  1  0  0  0  0
 17 16  1  0  0  0  0
 18 17  1  0  0  0  0
 19 18  1  0  0  0  0
 20 19  1  0  0  0  0
 22 26  2  0  0  0  0
 22 29  1  0  0  0  0
 23 28  1  6  0  0  0
 23 30  1  0  0  0  0
 23 27  1  0  0  0  0
 24 21  1  6  0  0  0
 24 29  1  0  0  0  0
 27 24  1  0  0  0  0
 29 31  1  0  0  0  0
 30 25  1  6  0  0  0
 30 22  1  0  0  0  0
 31 32  1  0  0  0  0
M  END
>  <MODEL>
2

>  <REMARK>
 VINA RESULT:      -6.7      3.262      5.940
  Name = 
  10 active torsions:
  status: ('A' for Active; 'I' for Inactive)
    1  A    between atoms: C_1  and  C_20
    2  A    between atoms: C_4  and  C_12
    3  A    between atoms: C_6  and  N_31
    4  A    between atoms: C_9  and  C_28
    5  A    between atoms: C_10  and  C_19
    6  A    between atoms: C_10  and  C_23
    7  A    between atoms: C_15  and  C_26
    8  A    between atoms: C_16  and  C_26
    9  A    between atoms: C_19  and  O_24
   10  A    between atoms: C_20  and  O_24
                            x       y       z     vdW  Elec       q    Type
                         _______ _______ _______ _____ _____    ______ ____

>  <TORSDO>
F 10

$$$$
=
 OpenBabel11052421423D

 32 34  0  0  1  0  0  0  0  0999 V2000
  188.0080  177.7410  141.4440 C   0  0  2  0  0  3  0  0  0  0  0  0
  187.8830  175.9250  141.3230 S   0  0  0  0  0  0  0  0  0  0  0  0
  189.0790  178.1440  142.2680 O   0  0  0  0  0  0  0  0  0  0  0  0
  189.3090  177.1030  143.1760 C   0  0  1  0  0  3  0  0  0  0  0  0
  189.2840  175.7930  142.4350 C   0  0  0  0  0  2  0  0  0  0  0  0
  185.5280  178.0040  140.9330 C   0  0  0  0  0  2  0  0  0  0  0  0
  184.0050  177.9330  142.7870 O   0  0  0  0  0  0  0  0  0  0  0  0
  184.9490  178.5090  143.6580 C   0  0  2  0  0  3  0  0  0  0  0  0
  186.6820  178.3760  141.8690 C   0  0  1  0  0  3  0  0  0  0  0  0
  186.3530  178.0050  143.3160 C   0  0  0  0  0  2  0  0  0  0  0  0
  184.2160  178.5150  141.5230 C   0  0  2  0  0  3  0  0  0  0  0  0
  185.3270  177.1940  145.7360 O   0  0  0  0  0  1  0  0  0  0  0  0
  183.6710  178.7740  145.6610 O   0  0  0  0  0  0  0  0  0  0  0  0
  184.6110  178.1770  145.0700 C   0  0  0  0  0  0  0  0  0  0  0  0
  183.0700  178.1620  140.5900 C   0  0  0  0  0  2  0  0  0  0  0  0
  181.7340  178.2610  141.3090 C   0  0  0  0  0  2  0  0  0  0  0  0
  180.7190  178.5500  140.3950 O   0  0  0  0  0  0  0  0  0  0  0  0
  180.1690  179.7490  140.8500 C   0  0  0  0  0  2  0  0  0  0  0  0
  178.6860  179.5650  141.0950 C   0  0  0  0  0  2  0  0  0  0  0  0
  177.9790  179.3530  139.7740 C   0  0  0  0  0  1  0  0  0  0  0  0
  190.6520  177.3000  143.8660 C   0  0  0  0  0  2  0  0  0  0  0  0
  192.0540  176.5140  146.9410 C   0  0  0  0  0  0  0  0  0  0  0  0
  193.5780  176.5130  144.9450 C   0  0  2  0  0  3  0  0  0  0  0  0
  191.1260  176.0540  144.6260 C   0  0  1  0  0  3  0  0  0  0  0  0
  194.2900  177.3210  147.0750 O   0  0  0  0  0  1  0  0  0  0  0  0
  191.8390  176.8490  148.1380 O   0  0  0  0  0  0  0  0  0  0  0  0
  192.5490  175.6350  144.2470 C   0  0  0  0  0  2  0  0  0  0  0  0
  194.8560  176.1520  144.5220 O   0  0  0  0  0  1  0  0  0  0  0  0
  190.9500  176.1830  146.0760 N   0  0  0  0  0  0  0  0  0  0  0  0
  193.4730  176.3690  146.4600 C   0  0  1  0  0  3  0  0  0  0  0  0
  189.5940  176.1070  146.6070 C   0  0  0  0  0  2  0  0  0  0  0  0
  189.2530  174.6740  146.9710 C   0  0  0  0  0  1  0  0  0  0  0  0
  1  2  1  1  0  0  0
  1  9  1  0  0  0  0
  1  3  1  0  0  0  0
  2  5  1  0  0  0  0
  3  4  1  0  0  0  0
  4 21  1  6  0  0  0
  5  4  1  0  0  0  0
  6 11  1  0  0  0  0
  7  8  1  0  0  0  0
  8 14  1  1  0  0  0
  9  6  1  6  0  0  0
  9 10  1  0  0  0  0
 10  8  1  0  0  0  0
 11 15  1  6  0  0  0
 11  7  1  0  0  0  0
 14 13  2  0  0  0  0
 14 12  1  0  0  0  0
 15 16  1  0  0  0  0
 17 18  1  0  0  0  0
 17 16  1  0  0  0  0
 18 19  1  0  0  0  0
 20 19  1  0  0  0  0
 22 26  2  0  0  0  0
 23 28  1  6  0  0  0
 23 30  1  0  0  0  0
 24 21  1  6  0  0  0
 24 29  1  0  0  0  0
 27 24  1  0  0  0  0
 27 23  1  0  0  0  0
 29 31  1  0  0  0  0
 29 22  1  0  0  0  0
 30 22  1  0  0  0  0
 30 25  1  1  0  0  0
 31 32  1  0  0  0  0
M  END
>  <MODEL>
3

>  <REMARK>
 VINA RESULT:      -6.7      1.806      4.523
  Name = 
  10 active torsions:
  status: ('A' for Active; 'I' for Inactive)
    1  A    between atoms: C_1  and  C_20
    2  A    between atoms: C_4  and  C_12
    3  A    between atoms: C_6  and  N_31
    4  A    between atoms: C_9  and  C_28
    5  A    between atoms: C_10  and  C_19
    6  A    between atoms: C_10  and  C_23
    7  A    between atoms: C_15  and  C_26
    8  A    between atoms: C_16  and  C_26
    9  A    between atoms: C_19  and  O_24
   10  A    between atoms: C_20  and  O_24
                            x       y       z     vdW  Elec       q    Type
                         _______ _______ _______ _____ _____    ______ ____

>  <TORSDO>
F 10

$$$$
=
 OpenBabel11052421423D

 32 34  0  0  1  0  0  0  0  0999 V2000
  190.7060  174.8950  146.1540 C   0  0  2  0  0  3  0  0  0  0  0  0
  191.1290  175.5280  147.8130 S   0  0  0  0  0  0  0  0  0  0  0  0
  191.6900  175.2190  145.1990 O   0  0  0  0  0  0  0  0  0  0  0  0
  192.3310  176.3800  145.6480 C   0  0  1  0  0  3  0  0  0  0  0  0
  192.6210  176.2390  147.1180 C   0  0  0  0  0  2  0  0  0  0  0  0
  188.7270  176.4260  146.6230 C   0  0  0  0  0  2  0  0  0  0  0  0
  187.6740  177.4770  144.7390 O   0  0  0  0  0  0  0  0  0  0  0  0
  187.9620  176.3860  143.8970 C   0  0  2  0  0  3  0  0  0  0  0  0
  189.3080  175.3370  145.7160 C   0  0  1  0  0  3  0  0  0  0  0  0
  189.3270  175.7930  144.2560 C   0  0  0  0  0  2  0  0  0  0  0  0
  187.4250  176.9440  146.0170 C   0  0  2  0  0  3  0  0  0  0  0  0
  187.4780  178.0860  142.1440 O   0  0  0  0  0  1  0  0  0  0  0  0
  188.3460  176.0480  141.5620 O   0  0  0  0  0  0  0  0  0  0  0  0
  187.9470  176.8220  142.4720 C   0  0  0  0  0  0  0  0  0  0  0  0
  186.8360  178.0140  146.9210 C   0  0  0  0  0  2  0  0  0  0  0  0
  185.3980  177.6840  147.2880 C   0  0  0  0  0  2  0  0  0  0  0  0
  184.6600  177.4140  146.1330 O   0  0  0  0  0  0  0  0  0  0  0  0
  184.0920  178.6400  145.7870 C   0  0  0  0  0  2  0  0  0  0  0  0
  184.3230  178.9080  144.3150 C   0  0  0  0  0  2  0  0  0  0  0  0
  185.3760  179.9840  144.1570 C   0  0  0  0  0  1  0  0  0  0  0  0
  193.6200  176.6010  144.8680 C   0  0  0  0  0  2  0  0  0  0  0  0
  196.4850  174.8220  144.0530 C   0  0  0  0  0  0  0  0  0  0  0  0
  195.5890  176.4150  142.3330 C   0  0  2  0  0  3  0  0  0  0  0  0
  194.0150  175.3940  144.0060 C   0  0  1  0  0  3  0  0  0  0  0  0
  197.9310  176.1370  142.6940 O   0  0  0  0  0  1  0  0  0  0  0  0
  197.4710  174.3630  144.6940 O   0  0  0  0  0  0  0  0  0  0  0  0
  194.2300  175.7610  142.5360 C   0  0  0  0  0  2  0  0  0  0  0  0
  195.7210  176.8020  140.9990 O   0  0  0  0  0  1  0  0  0  0  0  0
  195.1500  174.6540  144.5680 N   0  0  0  0  0  0  0  0  0  0  0  0
  196.7130  175.4540  142.7060 C   0  0  1  0  0  3  0  0  0  0  0  0
  194.9130  173.8460  145.7590 C   0  0  0  0  0  2  0  0  0  0  0  0
  194.0400  172.6530  145.4180 C   0  0  0  0  0  1  0  0  0  0  0  0
  1  3  1  6  0  0  0
  1  2  1  0  0  0  0
  3  4  1  0  0  0  0
  4 21  1  6  0  0  0
  4  5  1  0  0  0  0
  5  2  1  0  0  0  0
  7 11  1  0  0  0  0
  8 14  1  6  0  0  0
  8 10  1  0  0  0  0
  8  7  1  0  0  0  0
  9 10  1  6  0  0  0
  9  1  1  0  0  0  0
  9  6  1  0  0  0  0
 11  6  1  0  0  0  0
 11 15  1  1  0  0  0
 12 14  1  0  0  0  0
 13 14  2  0  0  0  0
 15 16  1  0  0  0  0
 17 16  1  0  0  0  0
 18 17  1  0  0  0  0
 19 18  1  0  0  0  0
 20 19  1  0  0  0  0
 22 29  1  0  0  0  0
 22 26  2  0  0  0  0
 23 28  1  6  0  0  0
 23 27  1  0  0  0  0
 23 30  1  0  0  0  0
 24 29  1  0  0  0  0
 24 21  1  1  0  0  0
 27 24  1  0  0  0  0
 29 31  1  0  0  0  0
 30 25  1  1  0  0  0
 30 22  1  0  0  0  0
 32 31  1  0  0  0  0
M  END
>  <MODEL>
4

>  <REMARK>
 VINA RESULT:      -6.7      2.597      4.173
  Name = 
  10 active torsions:
  status: ('A' for Active; 'I' for Inactive)
    1  A    between atoms: C_1  and  C_20
    2  A    between atoms: C_4  and  C_12
    3  A    between atoms: C_6  and  N_31
    4  A    between atoms: C_9  and  C_28
    5  A    between atoms: C_10  and  C_19
    6  A    between atoms: C_10  and  C_23
    7  A    between atoms: C_15  and  C_26
    8  A    between atoms: C_16  and  C_26
    9  A    between atoms: C_19  and  O_24
   10  A    between atoms: C_20  and  O_24
                            x       y       z     vdW  Elec       q    Type
                         _______ _______ _______ _____ _____    ______ ____

>  <TORSDO>
F 10

$$$$
=
 OpenBabel11052421423D

 32 34  0  0  1  0  0  0  0  0999 V2000
  192.1250  174.9950  144.8090 C   0  0  2  0  0  3  0  0  0  0  0  0
  191.8360  174.7920  143.0190 S   0  0  0  0  0  0  0  0  0  0  0  0
  191.2520  175.9430  145.3810 O   0  0  0  0  0  0  0  0  0  0  0  0
  190.8850  176.8300  144.3620 C   0  0  1  0  0  3  0  0  0  0  0  0
  190.5530  176.0410  143.1240 C   0  0  0  0  0  2  0  0  0  0  0  0
  194.3620  174.0650  145.5910 C   0  0  0  0  0  2  0  0  0  0  0  0
  196.3320  174.8110  144.4390 O   0  0  0  0  0  0  0  0  0  0  0  0
  195.7700  176.0760  144.1800 C   0  0  2  0  0  3  0  0  0  0  0  0
  193.5920  175.3020  145.1180 C   0  0  1  0  0  3  0  0  0  0  0  0
  194.2710  175.9370  143.9030 C   0  0  0  0  0  2  0  0  0  0  0  0
  195.8470  174.4060  145.6960 C   0  0  2  0  0  3  0  0  0  0  0  0
  195.8040  176.7840  141.7950 O   0  0  0  0  0  0  0  0  0  0  0  0
  197.6210  177.1700  143.1350 O   0  0  0  0  0  1  0  0  0  0  0  0
  196.4530  176.7100  143.0180 C   0  0  0  0  0  0  0  0  0  0  0  0
  196.6130  173.1860  146.1810 C   0  0  0  0  0  2  0  0  0  0  0  0
  197.3040  172.4840  145.0230 C   0  0  0  0  0  2  0  0  0  0  0  0
  197.5570  171.1510  145.3550 O   0  0  0  0  0  0  0  0  0  0  0  0
  196.3100  170.6350  145.7070 C   0  0  0  0  0  2  0  0  0  0  0  0
  196.4890  169.5140  146.7080 C   0  0  0  0  0  2  0  0  0  0  0  0
  195.1370  169.0950  147.2440 C   0  0  0  0  0  1  0  0  0  0  0  0
  189.6900  177.6650  144.8000 C   0  0  0  0  0  2  0  0  0  0  0  0
  186.3860  178.6220  144.3500 C   0  0  0  0  0  0  0  0  0  0  0  0
  186.9730  177.4870  146.5110 C   0  0  2  0  0  3  0  0  0  0  0  0
  188.3440  177.0130  144.4570 C   0  0  1  0  0  3  0  0  0  0  0  0
  185.4170  179.2940  146.4180 O   0  0  0  0  0  1  0  0  0  0  0  0
  185.7970  179.5590  143.7450 O   0  0  0  0  0  0  0  0  0  0  0  0
  187.6500  176.4070  145.6800 C   0  0  0  0  0  2  0  0  0  0  0  0
  186.4160  176.9110  147.6520 O   0  0  0  0  0  1  0  0  0  0  0  0
  187.4630  177.9140  143.7060 N   0  0  0  0  0  0  0  0  0  0  0  0
  185.8870  178.1900  145.7030 C   0  0  1  0  0  3  0  0  0  0  0  0
  187.7950  178.1840  142.3120 C   0  0  0  0  0  2  0  0  0  0  0  0
  187.3250  177.0420  141.4300 C   0  0  0  0  0  1  0  0  0  0  0  0
  1  2  1  6  0  0  0
  1  9  1  0  0  0  0
  1  3  1  0  0  0  0
  2  5  1  0  0  0  0
  4 21  1  1  0  0  0
  4  3  1  0  0  0  0
  5  4  1  0  0  0  0
  6 11  1  0  0  0  0
  7 11  1  0  0  0  0
  8 14  1  6  0  0  0
  8  7  1  0  0  0  0
  9 10  1  6  0  0  0
  9  6  1  0  0  0  0
 10  8  1  0  0  0  0
 11 15  1  6  0  0  0
 12 14  2  0  0  0  0
 14 13  1  0  0  0  0
 16 17  1  0  0  0  0
 16 15  1  0  0  0  0
 17 18  1  0  0  0  0
 18 19  1  0  0  0  0
 19 20  1  0  0  0  0
 22 30  1  0  0  0  0
 23 28  1  1  0  0  0
 24 21  1  1  0  0  0
 24 27  1  0  0  0  0
 26 22  2  0  0  0  0
 27 23  1  0  0  0  0
 29 22  1  0  0  0  0
 29 24  1  0  0  0  0
 30 25  1  1  0  0  0
 30 23  1  0  0  0  0
 31 29  1  0  0  0  0
 32 31  1  0  0  0  0
M  END
>  <MODEL>
5

>  <REMARK>
 VINA RESULT:      -6.5      3.160      9.628
  Name = 
  10 active torsions:
  status: ('A' for Active; 'I' for Inactive)
    1  A    between atoms: C_1  and  C_20
    2  A    between atoms: C_4  and  C_12
    3  A    between atoms: C_6  and  N_31
    4  A    between atoms: C_9  and  C_28
    5  A    between atoms: C_10  and  C_19
    6  A    between atoms: C_10  and  C_23
    7  A    between atoms: C_15  and  C_26
    8  A    between atoms: C_16  and  C_26
    9  A    between atoms: C_19  and  O_24
   10  A    between atoms: C_20  and  O_24
                            x       y       z     vdW  Elec       q    Type
                         _______ _______ _______ _____ _____    ______ ____

>  <TORSDO>
F 10

$$$$
=
 OpenBabel11052421423D

 32 34  0  0  1  0  0  0  0  0999 V2000
  189.6020  176.6650  143.1360 C   0  0  2  0  0  3  0  0  0  0  0  0
  188.9780  174.9650  142.9100 S   0  0  0  0  0  0  0  0  0  0  0  0
  190.9690  176.7740  142.8070 O   0  0  0  0  0  0  0  0  0  0  0  0
  191.5380  175.5090  142.9970 C   0  0  1  0  0  3  0  0  0  0  0  0
  190.6260  174.4690  142.4050 C   0  0  0  0  0  2  0  0  0  0  0  0
  187.8930  176.8330  145.0150 C   0  0  0  0  0  2  0  0  0  0  0  0
  188.6910  176.5570  147.2620 O   0  0  0  0  0  0  0  0  0  0  0  0
  189.9420  177.1200  146.9480 C   0  0  2  0  0  3  0  0  0  0  0  0
  189.3020  177.2000  144.5380 C   0  0  1  0  0  3  0  0  0  0  0  0
  190.3590  176.7140  145.5310 C   0  0  0  0  0  2  0  0  0  0  0  0
  187.7370  177.2340  146.4800 C   0  0  2  0  0  3  0  0  0  0  0  0
  191.2860  175.3290  148.0340 O   0  0  0  0  0  0  0  0  0  0  0  0
  191.5340  177.5100  148.6870 O   0  0  0  0  0  1  0  0  0  0  0  0
  190.9660  176.6750  147.9340 C   0  0  0  0  0  0  0  0  0  0  0  0
  186.3360  176.8870  146.9540 C   0  0  0  0  0  2  0  0  0  0  0  0
  185.6420  178.1080  147.5380 C   0  0  0  0  0  2  0  0  0  0  0  0
  185.3730  179.0330  146.5280 O   0  0  0  0  0  0  0  0  0  0  0  0
  184.3070  178.4790  145.8200 C   0  0  0  0  0  2  0  0  0  0  0  0
  184.2440  179.0920  144.4370 C   0  0  0  0  0  2  0  0  0  0  0  0
  185.5690  179.7500  144.1150 C   0  0  0  0  0  1  0  0  0  0  0  0
  192.9110  175.4510  142.3420 C   0  0  0  0  0  2  0  0  0  0  0  0
  196.2020  176.1180  143.2160 C   0  0  0  0  0  0  0  0  0  0  0  0
  195.7920  174.2060  141.6410 C   0  0  2  0  0  3  0  0  0  0  0  0
  193.9930  174.8730  143.2650 C   0  0  1  0  0  3  0  0  0  0  0  0
  197.6630  175.6670  141.3910 O   0  0  0  0  0  1  0  0  0  0  0  0
  196.8600  177.1520  143.5140 O   0  0  0  0  0  0  0  0  0  0  0  0
  194.7510  173.7050  142.6310 C   0  0  0  0  0  2  0  0  0  0  0  0
  196.4110  173.1170  141.0290 O   0  0  0  0  0  1  0  0  0  0  0  0
  194.8950  175.9070  143.7840 N   0  0  0  0  0  0  0  0  0  0  0  0
  196.8360  175.0670  142.3440 C   0  0  1  0  0  3  0  0  0  0  0  0
  194.3770  176.8140  144.8020 C   0  0  0  0  0  2  0  0  0  0  0  0
  194.2130  176.0840  146.1210 C   0  0  0  0  0  1  0  0  0  0  0  0
  1  3  1  1  0  0  0
  1  9  1  0  0  0  0
  2  1  1  0  0  0  0
  3  4  1  0  0  0  0
  4 21  1  6  0  0  0
  5  2  1  0  0  0  0
  5  4  1  0  0  0  0
  6 11  1  0  0  0  0
  8  7  1  0  0  0  0
  8 14  1  1  0  0  0
  9  6  1  1  0  0  0
  9 10  1  0  0  0  0
 10  8  1  0  0  0  0
 11 15  1  1  0  0  0
 11  7  1  0  0  0  0
 14 12  2  0  0  0  0
 14 13  1  0  0  0  0
 15 16  1  0  0  0  0
 17 16  1  0  0  0  0
 18 17  1  0  0  0  0
 19 18  1  0  0  0  0
 20 19  1  0  0  0  0
 22 26  2  0  0  0  0
 22 29  1  0  0  0  0
 23 28  1  1  0  0  0
 23 30  1  0  0  0  0
 23 27  1  0  0  0  0
 24 21  1  6  0  0  0
 24 29  1  0  0  0  0
 27 24  1  0  0  0  0
 29 31  1  0  0  0  0
 30 25  1  6  0  0  0
 30 22  1  0  0  0  0
 31 32  1  0  0  0  0
M  END
>  <MODEL>
6

>  <REMARK>
 VINA RESULT:      -6.5      2.515      4.958
  Name = 
  10 active torsions:
  status: ('A' for Active; 'I' for Inactive)
    1  A    between atoms: C_1  and  C_20
    2  A    between atoms: C_4  and  C_12
    3  A    between atoms: C_6  and  N_31
    4  A    between atoms: C_9  and  C_28
    5  A    between atoms: C_10  and  C_19
    6  A    between atoms: C_10  and  C_23
    7  A    between atoms: C_15  and  C_26
    8  A    between atoms: C_16  and  C_26
    9  A    between atoms: C_19  and  O_24
   10  A    between atoms: C_20  and  O_24
                            x       y       z     vdW  Elec       q    Type
                         _______ _______ _______ _____ _____    ______ ____

>  <TORSDO>
F 10

$$$$
=
 OpenBabel11052421423D

 32 34  0  0  1  0  0  0  0  0999 V2000
  190.5040  175.4790  145.8560 C   0  0  2  0  0  3  0  0  0  0  0  0
  190.8280  175.7540  147.6310 S   0  0  0  0  0  0  0  0  0  0  0  0
  191.6620  175.6620  145.0730 O   0  0  0  0  0  0  0  0  0  0  0  0
  192.4920  176.5470  145.7710 C   0  0  1  0  0  3  0  0  0  0  0  0
  192.5300  176.1420  147.2200 C   0  0  0  0  0  2  0  0  0  0  0  0
  188.8000  175.8390  143.9990 C   0  0  0  0  0  2  0  0  0  0  0  0
  186.5520  176.3730  144.6520 O   0  0  0  0  0  0  0  0  0  0  0  0
  186.9880  177.0560  145.8030 C   0  0  2  0  0  3  0  0  0  0  0  0
  189.3290  176.3210  145.3540 C   0  0  1  0  0  3  0  0  0  0  0  0
  188.2120  176.3530  146.3980 C   0  0  0  0  0  2  0  0  0  0  0  0
  187.5220  176.6020  143.6580 C   0  0  2  0  0  3  0  0  0  0  0  0
  186.1560  176.8230  148.1370 O   0  0  0  0  0  1  0  0  0  0  0  0
  184.7190  177.4230  146.4580 O   0  0  0  0  0  0  0  0  0  0  0  0
  185.8890  177.1170  146.8080 C   0  0  0  0  0  0  0  0  0  0  0  0
  187.0010  176.1390  142.3080 C   0  0  0  0  0  2  0  0  0  0  0  0
  186.9530  177.2930  141.3200 C   0  0  0  0  0  2  0  0  0  0  0  0
  186.4420  178.4340  141.9420 O   0  0  0  0  0  0  0  0  0  0  0  0
  185.0580  178.2940  141.8480 C   0  0  0  0  0  2  0  0  0  0  0  0
  184.4180  178.6800  143.1640 C   0  0  0  0  0  2  0  0  0  0  0  0
  185.3100  179.6650  143.8890 C   0  0  0  0  0  1  0  0  0  0  0  0
  193.8930  176.5290  145.1740 C   0  0  0  0  0  2  0  0  0  0  0  0
  196.5190  174.6240  143.9460 C   0  0  0  0  0  0  0  0  0  0  0  0
  195.6060  176.4250  142.4550 C   0  0  2  0  0  3  0  0  0  0  0  0
  194.1090  175.3780  144.1830 C   0  0  1  0  0  3  0  0  0  0  0  0
  197.9410  175.9430  142.5670 O   0  0  0  0  0  1  0  0  0  0  0  0
  197.5170  174.0380  144.4500 O   0  0  0  0  0  0  0  0  0  0  0  0
  194.2220  175.8580  142.7340 C   0  0  0  0  0  2  0  0  0  0  0  0
  195.6500  176.9180  141.1510 O   0  0  0  0  0  1  0  0  0  0  0  0
  195.2260  174.5090  144.5700 N   0  0  0  0  0  0  0  0  0  0  0  0
  196.6760  175.3540  142.6390 C   0  0  1  0  0  3  0  0  0  0  0  0
  195.0310  173.6180  145.7080 C   0  0  0  0  0  2  0  0  0  0  0  0
  193.7350  172.8450  145.5530 C   0  0  0  0  0  1  0  0  0  0  0  0
  1  3  1  6  0  0  0
  1  2  1  0  0  0  0
  3  4  1  0  0  0  0
  4 21  1  6  0  0  0
  4  5  1  0  0  0  0
  5  2  1  0  0  0  0
  7  8  1  0  0  0  0
  8 10  1  0  0  0  0
  8 14  1  1  0  0  0
  9  6  1  6  0  0  0
  9  1  1  0  0  0  0
  9 10  1  0  0  0  0
 11 15  1  6  0  0  0
 11  6  1  0  0  0  0
 11  7  1  0  0  0  0
 13 14  2  0  0  0  0
 14 12  1  0  0  0  0
 16 17  1  0  0  0  0
 16 15  1  0  0  0  0
 18 17  1  0  0  0  0
 18 19  1  0  0  0  0
 19 20  1  0  0  0  0
 22 26  2  0  0  0  0
 22 29  1  0  0  0  0
 23 28  1  6  0  0  0
 23 30  1  0  0  0  0
 23 27  1  0  0  0  0
 24 29  1  0  0  0  0
 24 21  1  1  0  0  0
 27 24  1  0  0  0  0
 29 31  1  0  0  0  0
 30 25  1  1  0  0  0
 30 22  1  0  0  0  0
 32 31  1  0  0  0  0
M  END
>  <MODEL>
7

>  <REMARK>
 VINA RESULT:      -6.5      2.416      4.712
  Name = 
  10 active torsions:
  status: ('A' for Active; 'I' for Inactive)
    1  A    between atoms: C_1  and  C_20
    2  A    between atoms: C_4  and  C_12
    3  A    between atoms: C_6  and  N_31
    4  A    between atoms: C_9  and  C_28
    5  A    between atoms: C_10  and  C_19
    6  A    between atoms: C_10  and  C_23
    7  A    between atoms: C_15  and  C_26
    8  A    between atoms: C_16  and  C_26
    9  A    between atoms: C_19  and  O_24
   10  A    between atoms: C_20  and  O_24
                            x       y       z     vdW  Elec       q    Type
                         _______ _______ _______ _____ _____    ______ ____

>  <TORSDO>
F 10

$$$$
=
 OpenBabel11052421423D

 32 34  0  0  1  0  0  0  0  0999 V2000
  189.2210  177.1780  143.0140 C   0  0  2  0  0  3  0  0  0  0  0  0
  187.7000  177.6510  142.1230 S   0  0  0  0  0  0  0  0  0  0  0  0
  189.5290  175.8130  142.8450 O   0  0  0  0  0  0  0  0  0  0  0  0
  188.3230  175.1500  142.5850 C   0  0  1  0  0  3  0  0  0  0  0  0
  187.5330  175.9490  141.5840 C   0  0  0  0  0  2  0  0  0  0  0  0
  187.7960  177.2940  145.1210 C   0  0  0  0  0  2  0  0  0  0  0  0
  188.8430  176.6940  147.1960 O   0  0  0  0  0  0  0  0  0  0  0  0
  190.0960  177.1700  146.7670 C   0  0  2  0  0  3  0  0  0  0  0  0
  189.1630  177.5780  144.4900 C   0  0  1  0  0  3  0  0  0  0  0  0
  190.2810  176.8880  145.2730 C   0  0  0  0  0  2  0  0  0  0  0  0
  187.8750  177.5410  146.6250 C   0  0  2  0  0  3  0  0  0  0  0  0
  191.5670  177.0640  148.7710 O   0  0  0  0  0  1  0  0  0  0  0  0
  191.7690  175.4980  147.1130 O   0  0  0  0  0  0  0  0  0  0  0  0
  191.1850  176.5240  147.5530 C   0  0  0  0  0  0  0  0  0  0  0  0
  186.5170  177.2760  147.2530 C   0  0  0  0  0  2  0  0  0  0  0  0
  185.5220  176.7910  146.2110 C   0  0  0  0  0  2  0  0  0  0  0  0
  184.2610  177.3330  146.4650 O   0  0  0  0  0  0  0  0  0  0  0  0
  184.4060  178.6950  146.2040 C   0  0  0  0  0  2  0  0  0  0  0  0
  184.2730  178.9430  144.7170 C   0  0  0  0  0  2  0  0  0  0  0  0
  185.3660  179.8870  144.2620 C   0  0  0  0  0  1  0  0  0  0  0  0
  188.6010  173.7500  142.0520 C   0  0  0  0  0  2  0  0  0  0  0  0
  190.4710  171.4000  140.3160 C   0  0  0  0  0  0  0  0  0  0  0  0
  190.8010  171.5270  142.8010 C   0  0  2  0  0  3  0  0  0  0  0  0
  190.0410  173.5730  141.5520 C   0  0  1  0  0  3  0  0  0  0  0  0
  190.7970  169.4460  141.6340 O   0  0  0  0  0  1  0  0  0  0  0  0
  190.2960  170.6990  139.2820 O   0  0  0  0  0  0  0  0  0  0  0  0
  190.9800  173.0290  142.6310 C   0  0  0  0  0  2  0  0  0  0  0  0
  191.6170  171.0790  143.8390 O   0  0  0  0  0  1  0  0  0  0  0  0
  190.1090  172.7950  140.3100 N   0  0  0  0  0  0  0  0  0  0  0  0
  191.1520  170.7910  141.5120 C   0  0  1  0  0  3  0  0  0  0  0  0
  189.6590  173.4360  139.0800 C   0  0  0  0  0  2  0  0  0  0  0  0
  188.1940  173.1310  138.8340 C   0  0  0  0  0  1  0  0  0  0  0  0
  1  2  1  1  0  0  0
  1  9  1  0  0  0  0
  3  1  1  0  0  0  0
  4 21  1  6  0  0  0
  4  3  1  0  0  0  0
  5  2  1  0  0  0  0
  5  4  1  0  0  0  0
  6 11  1  0  0  0  0
  8  7  1  0  0  0  0
  8 14  1  1  0  0  0
  9  6  1  1  0  0  0
  9 10  1  0  0  0  0
 10  8  1  0  0  0  0
 11  7  1  0  0  0  0
 11 15  1  1  0  0  0
 13 14  2  0  0  0  0
 14 12  1  0  0  0  0
 16 17  1  0  0  0  0
 16 15  1  0  0  0  0
 18 17  1  0  0  0  0
 19 18  1  0  0  0  0
 20 19  1  0  0  0  0
 22 30  1  0  0  0  0
 23 28  1  1  0  0  0
 24 21  1  1  0  0  0
 24 27  1  0  0  0  0
 26 22  2  0  0  0  0
 27 23  1  0  0  0  0
 29 22  1  0  0  0  0
 29 24  1  0  0  0  0
 30 25  1  1  0  0  0
 30 23  1  0  0  0  0
 31 29  1  0  0  0  0
 32 31  1  0  0  0  0
M  END
>  <MODEL>
8

>  <REMARK>
 VINA RESULT:      -6.4      3.299      6.295
  Name = 
  10 active torsions:
  status: ('A' for Active; 'I' for Inactive)
    1  A    between atoms: C_1  and  C_20
    2  A    between atoms: C_4  and  C_12
    3  A    between atoms: C_6  and  N_31
    4  A    between atoms: C_9  and  C_28
    5  A    between atoms: C_10  and  C_19
    6  A    between atoms: C_10  and  C_23
    7  A    between atoms: C_15  and  C_26
    8  A    between atoms: C_16  and  C_26
    9  A    between atoms: C_19  and  O_24
   10  A    between atoms: C_20  and  O_24
                            x       y       z     vdW  Elec       q    Type
                         _______ _______ _______ _____ _____    ______ ____

>  <TORSDO>
F 10

$$$$
=
 OpenBabel11052421423D

 32 34  0  0  1  0  0  0  0  0999 V2000
  189.9060  177.2370  144.9460 C   0  0  2  0  0  3  0  0  0  0  0  0
  189.2310  177.0140  146.6270 S   0  0  0  0  0  0  0  0  0  0  0  0
  188.9040  177.1450  143.9580 O   0  0  0  0  0  0  0  0  0  0  0  0
  187.8830  176.3440  144.4840 C   0  0  1  0  0  3  0  0  0  0  0  0
  187.6090  176.7700  145.9020 C   0  0  0  0  0  2  0  0  0  0  0  0
  191.0580  175.7350  143.2440 C   0  0  0  0  0  2  0  0  0  0  0  0
  193.4550  175.8050  143.1530 O   0  0  0  0  0  0  0  0  0  0  0  0
  193.5560  176.0750  144.5310 C   0  0  2  0  0  3  0  0  0  0  0  0
  191.0750  176.2890  144.6720 C   0  0  1  0  0  3  0  0  0  0  0  0
  192.4050  176.9820  144.9740 C   0  0  0  0  0  2  0  0  0  0  0  0
  192.3460  174.9560  142.9900 C   0  0  2  0  0  3  0  0  0  0  0  0
  194.9320  177.7360  145.7730 O   0  0  0  0  0  1  0  0  0  0  0  0
  195.9100  176.3570  144.2280 O   0  0  0  0  0  0  0  0  0  0  0  0
  194.8660  176.7200  144.8310 C   0  0  0  0  0  0  0  0  0  0  0  0
  192.3260  174.3900  141.5800 C   0  0  0  0  0  2  0  0  0  0  0  0
  191.4450  173.1530  141.5040 C   0  0  0  0  0  2  0  0  0  0  0  0
  191.8000  172.2510  142.5080 O   0  0  0  0  0  0  0  0  0  0  0  0
  190.6450  171.5020  142.7300 C   0  0  0  0  0  2  0  0  0  0  0  0
  189.5590  172.3980  143.2850 C   0  0  0  0  0  2  0  0  0  0  0  0
  189.7080  172.5020  144.7880 C   0  0  0  0  0  1  0  0  0  0  0  0
  186.6260  176.4750  143.6350 C   0  0  0  0  0  2  0  0  0  0  0  0
  184.1320  178.2860  142.0400 C   0  0  0  0  0  0  0  0  0  0  0  0
  186.0870  177.5450  140.6500 C   0  0  2  0  0  3  0  0  0  0  0  0
  186.3950  177.9020  143.1200 C   0  0  1  0  0  3  0  0  0  0  0  0
  183.8590  177.5420  139.7960 O   0  0  0  0  0  1  0  0  0  0  0  0
  182.8830  178.4050  142.1750 O   0  0  0  0  0  0  0  0  0  0  0  0
  186.9870  178.1330  141.7280 C   0  0  0  0  0  2  0  0  0  0  0  0
  186.6910  177.7090  139.4040 O   0  0  0  0  0  1  0  0  0  0  0  0
  184.9870  178.3040  143.2010 N   0  0  0  0  0  0  0  0  0  0  0  0
  184.7220  178.2250  140.6570 C   0  0  1  0  0  3  0  0  0  0  0  0
  184.4340  178.5890  144.5200 C   0  0  0  0  0  2  0  0  0  0  0  0
  185.3330  179.5560  145.2670 C   0  0  0  0  0  1  0  0  0  0  0  0
  1  3  1  6  0  0  0
  1  2  1  0  0  0  0
  3  4  1  0  0  0  0
  4 21  1  6  0  0  0
  4  5  1  0  0  0  0
  5  2  1  0  0  0  0
  7  8  1  0  0  0  0
  8 14  1  6  0  0  0
  8 10  1  0  0  0  0
  9  6  1  6  0  0  0
  9  1  1  0  0  0  0
  9 10  1  0  0  0  0
 11 15  1  6  0  0  0
 11  7  1  0  0  0  0
 11  6  1  0  0  0  0
 13 14  2  0  0  0  0
 14 12  1  0  0  0  0
 16 15  1  0  0  0  0
 16 17  1  0  0  0  0
 17 18  1  0  0  0  0
 18 19  1  0  0  0  0
 19 20  1  0  0  0  0
 22 26  2  0  0  0  0
 22 29  1  0  0  0  0
 23 28  1  6  0  0  0
 23 30  1  0  0  0  0
 23 27  1  0  0  0  0
 24 29  1  0  0  0  0
 24 21  1  6  0  0  0
 27 24  1  0  0  0  0
 29 31  1  0  0  0  0
 30 25  1  6  0  0  0
 30 22  1  0  0  0  0
 31 32  1  0  0  0  0
M  END
>  <MODEL>
9

>  <REMARK>
 VINA RESULT:      -6.4      2.572      8.605
  Name = 
  10 active torsions:
  status: ('A' for Active; 'I' for Inactive)
    1  A    between atoms: C_1  and  C_20
    2  A    between atoms: C_4  and  C_12
    3  A    between atoms: C_6  and  N_31
    4  A    between atoms: C_9  and  C_28
    5  A    between atoms: C_10  and  C_19
    6  A    between atoms: C_10  and  C_23
    7  A    between atoms: C_15  and  C_26
    8  A    between atoms: C_16  and  C_26
    9  A    between atoms: C_19  and  O_24
   10  A    between atoms: C_20  and  O_24
                            x       y       z     vdW  Elec       q    Type
                         _______ _______ _______ _____ _____    ______ ____

>  <TORSDO>
F 10

$$$$
