=
 OpenBabel11052420483D

 43 48  0  0  1  0  0  0  0  0999 V2000
  196.0060  169.0740  147.0120 C   0  0  0  0  0  0  0  0  0  0  0  0
  195.2400  172.8060  143.6760 C   0  0  0  0  0  0  0  0  0  0  0  0
  192.7940  172.3090  142.4340 C   0  0  0  0  0  0  0  0  0  0  0  0
  196.2170  171.0790  145.6660 C   0  0  0  0  0  0  0  0  0  0  0  0
  194.7710  168.7990  146.4180 C   0  0  0  0  0  3  0  0  0  0  0  0
  196.5460  168.1660  148.0510 C   0  0  0  0  0  1  0  0  0  0  0  0
  194.9740  170.7970  145.0440 C   0  0  0  0  0  0  0  0  0  0  0  0
  196.7250  170.2160  146.6420 C   0  0  0  0  0  3  0  0  0  0  0  0
  194.2580  169.6520  145.4380 C   0  0  0  0  0  3  0  0  0  0  0  0
  193.2590  171.4210  143.4070 C   0  0  0  0  0  3  0  0  0  0  0  0
  194.4860  171.6630  144.0430 C   0  0  0  0  0  0  0  0  0  0  0  0
  196.4700  173.0670  144.3120 C   0  0  0  0  0  3  0  0  0  0  0  0
  194.7410  173.6630  142.6770 C   0  0  0  0  0  0  0  0  0  0  0  0
  193.5370  173.4020  142.1060 N   0  0  0  0  0  0  0  0  0  0  0  0
  196.9550  172.2090  145.2980 C   0  0  0  0  0  3  0  0  0  0  0  0
  191.4440  172.1260  141.8040 C   0  0  1  0  0  3  0  0  0  0  0  0
  191.4610  170.9790  140.8160 C   0  0  0  0  0  1  0  0  0  0  0  0
  190.3390  171.9120  142.8390 C   0  0  0  0  0  2  0  0  0  0  0  0
  189.1970  174.0190  143.7030 N   0  0  0  0  0  0  0  0  0  0  0  0
  188.5590  175.2580  143.3500 C   0  0  0  0  0  3  0  0  0  0  0  0
  189.1820  176.1910  145.5500 C   0  0  0  0  0  2  0  0  0  0  0  0
  189.2750  172.9630  142.7320 C   0  0  0  0  0  0  0  0  0  0  0  0
  189.8670  173.8690  145.0000 C   0  0  0  0  0  2  0  0  0  0  0  0
  188.4960  172.9510  141.7410 O   0  0  0  0  0  0  0  0  0  0  0  0
  188.5140  176.2880  144.2070 C   0  0  0  0  0  0  0  0  0  0  0  0
  189.2080  174.7510  146.0520 C   0  0  0  0  0  2  0  0  0  0  0  0
  187.8040  177.5620  143.8530 C   0  0  1  0  0  3  0  0  0  0  0  0
  187.5130  177.6630  142.3580 C   0  0  0  0  0  1  0  0  0  0  0  0
  186.5810  177.7880  144.6930 C   0  0  0  0  0  0  0  0  0  0  0  0
  184.9780  177.0440  146.3580 C   0  0  0  0  0  3  0  0  0  0  0  0
  184.7830  179.2570  145.3920 C   0  0  0  0  0  3  0  0  0  0  0  0
  184.3120  178.2710  146.2630 C   0  0  0  0  0  3  0  0  0  0  0  0
  185.9130  179.0150  144.6060 C   0  0  0  0  0  3  0  0  0  0  0  0
  186.1120  176.8050  145.5790 C   0  0  0  0  0  3  0  0  0  0  0  0
  195.4820  174.8910  142.2560 C   0  0  0  0  0  2  0  0  0  0  0  0
  194.6350  176.1260  142.5000 C   0  0  0  0  0  2  0  0  0  0  0  0
  192.7240  176.1940  144.5490 S   0  0  0  0  0  0  0  0  0  0  0  0
  193.1920  176.4370  146.1450 C   0  0  0  0  0  0  0  0  0  0  0  0
  195.1920  176.4480  144.9670 C   0  0  0  0  0  3  0  0  0  0  0  0
  194.2870  176.2160  143.9380 C   0  0  0  0  0  0  0  0  0  0  0  0
  194.5710  176.5750  146.2190 C   0  0  0  0  0  3  0  0  0  0  0  0
  191.5440  176.7040  148.1980 C   0  0  0  0  0  3  0  0  0  0  0  0
  192.2950  176.5840  147.2570 C   0  0  0  0  0  0  0  0  0  0  0  0
  1  6  1  0  0  0  0
  2 11  1  0  0  0  0
  2 12  1  0  0  0  0
  3 10  1  0  0  0  0
  4  8  2  0  0  0  0
  5  1  2  0  0  0  0
  7  9  2  0  0  0  0
  7  4  1  0  0  0  0
  8  1  1  0  0  0  0
  9  5  1  0  0  0  0
 10 11  2  0  0  0  0
 11  7  1  0  0  0  0
 12 15  2  0  0  0  0
 13  2  2  0  0  0  0
 14  3  2  0  0  0  0
 14 13  1  0  0  0  0
 15  4  1  0  0  0  0
 16 17  1  6  0  0  0
 16  3  1  0  0  0  0
 16 18  1  0  0  0  0
 19 23  1  0  0  0  0
 20 19  1  0  0  0  0
 20 25  2  0  0  0  0
 21 26  1  0  0  0  0
 22 18  1  0  0  0  0
 22 19  1  0  0  0  0
 23 26  1  0  0  0  0
 24 22  2  0  0  0  0
 25 21  1  0  0  0  0
 27 28  1  6  0  0  0
 27 25  1  0  0  0  0
 27 29  1  0  0  0  0
 29 34  1  0  0  0  0
 31 32  2  0  0  0  0
 32 30  1  0  0  0  0
 33 29  2  0  0  0  0
 33 31  1  0  0  0  0
 34 30  2  0  0  0  0
 35 36  1  0  0  0  0
 35 13  1  0  0  0  0
 36 40  1  0  0  0  0
 37 38  1  0  0  0  0
 38 41  2  0  0  0  0
 38 43  1  0  0  0  0
 39 41  1  0  0  0  0
 40 37  1  0  0  0  0
 40 39  2  0  0  0  0
 43 42  3  0  0  0  0
M  END
>  <MODEL>
1

>  <REMARK>
 VINA RESULT:      -8.8      0.000      0.000
  Name = 
  9 active torsions:
  status: ('A' for Active; 'I' for Inactive)
    1  A    between atoms: C_1  and  C_34
    2  A    between atoms: C_1  and  C_35
    3  A    between atoms: C_2  and  C_6
    4  A    between atoms: C_2  and  C_13
    5  A    between atoms: C_6  and  C_12
    6  A    between atoms: C_11  and  C_14
    7  A    between atoms: C_14  and  C_22
    8  A    between atoms: C_19  and  C_37
    9  A    between atoms: C_32  and  C_35
                            x       y       z     vdW  Elec       q    Type
                         _______ _______ _______ _____ _____    ______ ____

>  <TORSDO>
F 9

$$$$
=
 OpenBabel11052420483D

 43 48  0  0  1  0  0  0  0  0999 V2000
  186.0150  177.8850  147.1640 C   0  0  0  0  0  0  0  0  0  0  0  0
  190.7420  176.1300  146.7020 C   0  0  0  0  0  0  0  0  0  0  0  0
  190.6350  173.9120  145.0140 C   0  0  0  0  0  0  0  0  0  0  0  0
  188.4130  177.5690  147.3310 C   0  0  0  0  0  0  0  0  0  0  0  0
  185.9250  176.7840  146.3060 C   0  0  0  0  0  3  0  0  0  0  0  0
  184.7950  178.6460  147.5210 C   0  0  0  0  0  1  0  0  0  0  0  0
  188.3270  176.4390  146.4780 C   0  0  0  0  0  0  0  0  0  0  0  0
  187.2570  178.2810  147.6700 C   0  0  0  0  0  3  0  0  0  0  0  0
  187.0720  176.0630  145.9670 C   0  0  0  0  0  3  0  0  0  0  0  0
  189.4550  174.5950  145.3210 C   0  0  0  0  0  3  0  0  0  0  0  0
  189.4970  175.7160  146.1650 C   0  0  0  0  0  0  0  0  0  0  0  0
  190.8020  177.2580  147.5430 C   0  0  0  0  0  3  0  0  0  0  0  0
  191.9020  175.3990  146.3800 C   0  0  0  0  0  0  0  0  0  0  0  0
  191.8180  174.3360  145.5400 N   0  0  0  0  0  0  0  0  0  0  0  0
  189.6450  177.9710  147.8560 C   0  0  0  0  0  3  0  0  0  0  0  0
  190.6340  172.7690  144.0420 C   0  0  1  0  0  3  0  0  0  0  0  0
  189.6120  171.7240  144.4400 C   0  0  0  0  0  1  0  0  0  0  0  0
  190.3880  173.2220  142.6030 C   0  0  0  0  0  2  0  0  0  0  0  0
  189.1590  175.4410  142.3570 N   0  0  0  0  0  0  0  0  0  0  0  0
  188.0520  176.1280  141.7480 C   0  0  0  0  0  3  0  0  0  0  0  0
  189.2890  178.2570  141.9340 C   0  0  0  0  0  2  0  0  0  0  0  0
  189.1190  174.0100  142.4840 C   0  0  0  0  0  0  0  0  0  0  0  0
  190.3720  176.1730  142.7400 C   0  0  0  0  0  2  0  0  0  0  0  0
  188.0180  173.3970  142.4250 O   0  0  0  0  0  0  0  0  0  0  0  0
  188.0750  177.4550  141.5590 C   0  0  0  0  0  0  0  0  0  0  0  0
  190.0380  177.6150  143.0970 C   0  0  0  0  0  2  0  0  0  0  0  0
  186.8970  178.1740  140.9690 C   0  0  1  0  0  3  0  0  0  0  0  0
  186.3290  177.4490  139.7520 C   0  0  0  0  0  1  0  0  0  0  0  0
  185.8460  178.4880  141.9940 C   0  0  0  0  0  0  0  0  0  0  0  0
  185.1340  179.5730  144.0460 C   0  0  0  0  0  3  0  0  0  0  0  0
  183.5490  178.2880  142.7420 C   0  0  0  0  0  3  0  0  0  0  0  0
  183.8410  179.0720  143.8610 C   0  0  0  0  0  3  0  0  0  0  0  0
  184.5490  177.9940  141.8120 C   0  0  0  0  0  3  0  0  0  0  0  0
  186.1320  179.2870  143.1120 C   0  0  0  0  0  3  0  0  0  0  0  0
  193.2460  175.7930  146.9030 C   0  0  0  0  0  2  0  0  0  0  0  0
  193.9650  176.6720  145.8960 C   0  0  0  0  0  2  0  0  0  0  0  0
  195.4450  176.0440  143.6010 S   0  0  0  0  0  0  0  0  0  0  0  0
  196.5710  174.7960  143.6260 C   0  0  0  0  0  0  0  0  0  0  0  0
  195.7330  174.8370  145.7900 C   0  0  0  0  0  3  0  0  0  0  0  0
  195.0240  175.8880  145.2180 C   0  0  0  0  0  0  0  0  0  0  0  0
  196.6090  174.2170  144.8860 C   0  0  0  0  0  3  0  0  0  0  0  0
  197.9410  173.9300  141.5340 C   0  0  0  0  0  3  0  0  0  0  0  0
  197.3120  174.3290  142.4880 C   0  0  0  0  0  0  0  0  0  0  0  0
  1  6  1  0  0  0  0
  1  8  1  0  0  0  0
  2 12  1  0  0  0  0
  3 10  2  0  0  0  0
  3 14  1  0  0  0  0
  4  8  2  0  0  0  0
  4 15  1  0  0  0  0
  5  1  2  0  0  0  0
  7  4  1  0  0  0  0
  9  5  1  0  0  0  0
  9  7  2  0  0  0  0
 10 11  1  0  0  0  0
 11  7  1  0  0  0  0
 11  2  2  0  0  0  0
 12 15  2  0  0  0  0
 13  2  1  0  0  0  0
 13 35  1  0  0  0  0
 14 13  2  0  0  0  0
 16 17  1  1  0  0  0
 16  3  1  0  0  0  0
 18 16  1  0  0  0  0
 19 22  1  0  0  0  0
 19 23  1  0  0  0  0
 20 19  1  0  0  0  0
 21 26  1  0  0  0  0
 22 18  1  0  0  0  0
 23 26  1  0  0  0  0
 24 22  2  0  0  0  0
 25 20  2  0  0  0  0
 25 21  1  0  0  0  0
 27 28  1  6  0  0  0
 27 25  1  0  0  0  0
 27 29  1  0  0  0  0
 29 34  1  0  0  0  0
 31 32  2  0  0  0  0
 32 30  1  0  0  0  0
 33 29  2  0  0  0  0
 33 31  1  0  0  0  0
 34 30  2  0  0  0  0
 36 35  1  0  0  0  0
 37 38  1  0  0  0  0
 37 40  1  0  0  0  0
 38 41  2  0  0  0  0
 40 39  2  0  0  0  0
 40 36  1  0  0  0  0
 41 39  1  0  0  0  0
 42 43  3  0  0  0  0
 43 38  1  0  0  0  0
M  END
>  <MODEL>
2

>  <REMARK>
 VINA RESULT:      -8.5      2.701      6.324
  Name = 
  9 active torsions:
  status: ('A' for Active; 'I' for Inactive)
    1  A    between atoms: C_1  and  C_34
    2  A    between atoms: C_1  and  C_35
    3  A    between atoms: C_2  and  C_6
    4  A    between atoms: C_2  and  C_13
    5  A    between atoms: C_6  and  C_12
    6  A    between atoms: C_11  and  C_14
    7  A    between atoms: C_14  and  C_22
    8  A    between atoms: C_19  and  C_37
    9  A    between atoms: C_32  and  C_35
                            x       y       z     vdW  Elec       q    Type
                         _______ _______ _______ _____ _____    ______ ____

>  <TORSDO>
F 9

$$$$
=
 OpenBabel11052420483D

 43 48  0  0  1  0  0  0  0  0999 V2000
  196.4490  175.1750  142.2120 C   0  0  0  0  0  0  0  0  0  0  0  0
  191.4090  175.6320  142.3870 C   0  0  0  0  0  0  0  0  0  0  0  0
  190.3440  173.6020  140.7980 C   0  0  0  0  0  0  0  0  0  0  0  0
  194.1880  175.8910  142.7120 C   0  0  0  0  0  0  0  0  0  0  0  0
  195.9510  174.1390  141.4150 C   0  0  0  0  0  3  0  0  0  0  0  0
  197.9130  175.3380  142.3820 C   0  0  0  0  0  1  0  0  0  0  0  0
  193.6740  174.8550  141.8900 C   0  0  0  0  0  0  0  0  0  0  0  0
  195.5700  176.0450  142.8640 C   0  0  0  0  0  3  0  0  0  0  0  0
  194.5720  173.9810  141.2520 C   0  0  0  0  0  3  0  0  0  0  0  0
  191.7310  173.7150  140.9250 C   0  0  0  0  0  3  0  0  0  0  0  0
  192.2790  174.7280  141.7250 C   0  0  0  0  0  0  0  0  0  0  0  0
  191.9440  176.6490  143.2010 C   0  0  0  0  0  3  0  0  0  0  0  0
  190.0190  175.4930  142.2140 C   0  0  0  0  0  0  0  0  0  0  0  0
  189.5330  174.4810  141.4500 N   0  0  0  0  0  0  0  0  0  0  0  0
  193.3230  176.7780  143.3610 C   0  0  0  0  0  3  0  0  0  0  0  0
  189.7280  172.4740  140.0240 C   0  0  1  0  0  3  0  0  0  0  0  0
  189.5120  172.8660  138.5780 C   0  0  0  0  0  1  0  0  0  0  0  0
  190.5550  171.1900  140.1020 C   0  0  0  0  0  2  0  0  0  0  0  0
  192.3080  170.7250  141.8930 N   0  0  0  0  0  0  0  0  0  0  0  0
  192.6890  170.9210  143.2650 C   0  0  0  0  0  3  0  0  0  0  0  0
  195.0590  170.6320  142.6330 C   0  0  0  0  0  2  0  0  0  0  0  0
  190.9270  170.8620  141.5160 C   0  0  0  0  0  0  0  0  0  0  0  0
  193.3260  170.5030  140.8590 C   0  0  0  0  0  2  0  0  0  0  0  0
  190.0200  170.7780  142.3880 O   0  0  0  0  0  0  0  0  0  0  0  0
  193.9730  170.8580  143.6470 C   0  0  0  0  0  0  0  0  0  0  0  0
  194.5490  169.8150  141.4500 C   0  0  0  0  0  2  0  0  0  0  0  0
  194.3620  171.0150  145.0880 C   0  0  1  0  0  3  0  0  0  0  0  0
  195.4750  170.0520  145.4920 C   0  0  0  0  0  1  0  0  0  0  0  0
  194.6750  172.4380  145.4450 C   0  0  0  0  0  0  0  0  0  0  0  0
  193.9760  174.6700  146.0990 C   0  0  0  0  0  3  0  0  0  0  0  0
  196.3300  174.1660  145.8380 C   0  0  0  0  0  3  0  0  0  0  0  0
  195.3130  175.0770  146.1370 C   0  0  0  0  0  3  0  0  0  0  0  0
  196.0120  172.8500  145.4900 C   0  0  0  0  0  3  0  0  0  0  0  0
  193.6570  173.3530  145.7590 C   0  0  0  0  0  3  0  0  0  0  0  0
  189.0500  176.4040  142.8960 C   0  0  0  0  0  2  0  0  0  0  0  0
  188.3090  175.6600  143.9920 C   0  0  0  0  0  2  0  0  0  0  0  0
  189.3820  177.1930  146.0770 S   0  0  0  0  0  0  0  0  0  0  0  0
  190.3230  176.4730  147.2700 C   0  0  0  0  0  0  0  0  0  0  0  0
  189.7190  174.7070  145.8910 C   0  0  0  0  0  3  0  0  0  0  0  0
  189.0670  175.7610  145.2620 C   0  0  0  0  0  0  0  0  0  0  0  0
  190.4330  175.1110  147.0300 C   0  0  0  0  0  3  0  0  0  0  0  0
  191.5650  177.7710  149.2130 C   0  0  0  0  0  3  0  0  0  0  0  0
  190.9980  177.1730  148.3260 C   0  0  0  0  0  0  0  0  0  0  0  0
  1  6  1  0  0  0  0
  1  8  1  0  0  0  0
  2 12  1  0  0  0  0
  3 10  2  0  0  0  0
  3 14  1  0  0  0  0
  4  8  2  0  0  0  0
  4 15  1  0  0  0  0
  5  1  2  0  0  0  0
  7  4  1  0  0  0  0
  9  5  1  0  0  0  0
  9  7  2  0  0  0  0
 10 11  1  0  0  0  0
 11  7  1  0  0  0  0
 11  2  2  0  0  0  0
 12 15  2  0  0  0  0
 13  2  1  0  0  0  0
 13 35  1  0  0  0  0
 14 13  2  0  0  0  0
 16 17  1  6  0  0  0
 16 18  1  0  0  0  0
 16  3  1  0  0  0  0
 18 22  1  0  0  0  0
 19 20  1  0  0  0  0
 20 25  2  0  0  0  0
 21 25  1  0  0  0  0
 22 19  1  0  0  0  0
 22 24  2  0  0  0  0
 23 26  1  0  0  0  0
 23 19  1  0  0  0  0
 25 27  1  0  0  0  0
 26 21  1  0  0  0  0
 27 29  1  0  0  0  0
 27 28  1  6  0  0  0
 29 33  2  0  0  0  0
 29 34  1  0  0  0  0
 30 32  1  0  0  0  0
 31 32  2  0  0  0  0
 33 31  1  0  0  0  0
 34 30  2  0  0  0  0
 35 36  1  0  0  0  0
 36 40  1  0  0  0  0
 37 38  1  0  0  0  0
 38 43  1  0  0  0  0
 39 41  1  0  0  0  0
 40 39  2  0  0  0  0
 40 37  1  0  0  0  0
 41 38  2  0  0  0  0
 43 42  3  0  0  0  0
M  END
>  <MODEL>
3

>  <REMARK>
 VINA RESULT:      -8.2      2.263      6.793
  Name = 
  9 active torsions:
  status: ('A' for Active; 'I' for Inactive)
    1  A    between atoms: C_1  and  C_34
    2  A    between atoms: C_1  and  C_35
    3  A    between atoms: C_2  and  C_6
    4  A    between atoms: C_2  and  C_13
    5  A    between atoms: C_6  and  C_12
    6  A    between atoms: C_11  and  C_14
    7  A    between atoms: C_14  and  C_22
    8  A    between atoms: C_19  and  C_37
    9  A    between atoms: C_32  and  C_35
                            x       y       z     vdW  Elec       q    Type
                         _______ _______ _______ _____ _____    ______ ____

>  <TORSDO>
F 9

$$$$
=
 OpenBabel11052420483D

 43 48  0  0  1  0  0  0  0  0999 V2000
  186.1010  177.7070  146.5390 C   0  0  0  0  0  0  0  0  0  0  0  0
  190.0010  176.3950  143.5880 C   0  0  0  0  0  0  0  0  0  0  0  0
  189.0520  174.5190  141.7560 C   0  0  0  0  0  0  0  0  0  0  0  0
  188.2840  177.5330  145.4990 C   0  0  0  0  0  0  0  0  0  0  0  0
  185.5880  176.7760  145.6300 C   0  0  0  0  0  3  0  0  0  0  0  0
  185.2140  178.3050  147.5650 C   0  0  0  0  0  1  0  0  0  0  0  0
  187.7760  176.5730  144.5860 C   0  0  0  0  0  0  0  0  0  0  0  0
  187.4450  178.0900  146.4690 C   0  0  0  0  0  3  0  0  0  0  0  0
  186.4200  176.2100  144.6600 C   0  0  0  0  0  3  0  0  0  0  0  0
  188.1760  175.0520  142.7050 C   0  0  0  0  0  3  0  0  0  0  0  0
  188.6400  176.0010  143.6290 C   0  0  0  0  0  0  0  0  0  0  0  0
  190.4800  177.3530  144.5030 C   0  0  0  0  0  3  0  0  0  0  0  0
  190.8520  175.8170  142.6270 C   0  0  0  0  0  0  0  0  0  0  0  0
  190.3530  174.9210  141.7370 N   0  0  0  0  0  0  0  0  0  0  0  0
  189.6280  177.9160  145.4520 C   0  0  0  0  0  3  0  0  0  0  0  0
  188.5630  173.5730  140.6990 C   0  0  1  0  0  3  0  0  0  0  0  0
  188.7480  174.1660  139.3170 C   0  0  0  0  0  1  0  0  0  0  0  0
  189.2390  172.2040  140.7780 C   0  0  0  0  0  2  0  0  0  0  0  0
  191.1410  171.7470  142.4120 N   0  0  0  0  0  0  0  0  0  0  0  0
  191.6590  171.9800  143.7320 C   0  0  0  0  0  3  0  0  0  0  0  0
  193.9460  171.5850  142.8910 C   0  0  0  0  0  2  0  0  0  0  0  0
  189.7350  171.9170  142.1630 C   0  0  0  0  0  0  0  0  0  0  0  0
  192.0480  171.4500  141.2960 C   0  0  0  0  0  2  0  0  0  0  0  0
  188.9140  171.8980  143.1190 O   0  0  0  0  0  0  0  0  0  0  0  0
  192.9710  171.8870  143.9930 C   0  0  0  0  0  0  0  0  0  0  0  0
  193.3000  170.7420  141.7960 C   0  0  0  0  0  2  0  0  0  0  0  0
  193.5010  172.0840  145.3830 C   0  0  1  0  0  3  0  0  0  0  0  0
  194.7110  171.1990  145.6690 C   0  0  0  0  0  1  0  0  0  0  0  0
  193.7580  173.5280  145.6980 C   0  0  0  0  0  0  0  0  0  0  0  0
  193.0080  175.6990  146.4880 C   0  0  0  0  0  3  0  0  0  0  0  0
  195.3150  175.3820  145.8230 C   0  0  0  0  0  3  0  0  0  0  0  0
  194.2960  176.2110  146.3020 C   0  0  0  0  0  3  0  0  0  0  0  0
  195.0460  174.0450  145.5190 C   0  0  0  0  0  3  0  0  0  0  0  0
  192.7410  174.3600  146.1920 C   0  0  0  0  0  3  0  0  0  0  0  0
  192.2930  176.2010  142.5250 C   0  0  0  0  0  2  0  0  0  0  0  0
  193.1620  174.9620  142.4130 C   0  0  0  0  0  2  0  0  0  0  0  0
  194.7100  174.8270  140.0810 S   0  0  0  0  0  0  0  0  0  0  0  0
  196.2660  175.4630  140.0510 C   0  0  0  0  0  0  0  0  0  0  0  0
  195.5190  175.9130  142.2020 C   0  0  0  0  0  3  0  0  0  0  0  0
  194.4000  175.2870  141.6650 C   0  0  0  0  0  0  0  0  0  0  0  0
  196.5780  176.0110  141.2870 C   0  0  0  0  0  3  0  0  0  0  0  0
  197.9410  175.2850  138.0100 C   0  0  0  0  0  3  0  0  0  0  0  0
  197.1780  175.3650  138.9460 C   0  0  0  0  0  0  0  0  0  0  0  0
  1  6  1  0  0  0  0
  2 11  1  0  0  0  0
  2 12  1  0  0  0  0
  3 10  1  0  0  0  0
  4  8  2  0  0  0  0
  5  1  2  0  0  0  0
  7  9  2  0  0  0  0
  7  4  1  0  0  0  0
  8  1  1  0  0  0  0
  9  5  1  0  0  0  0
 10 11  2  0  0  0  0
 11  7  1  0  0  0  0
 12 15  2  0  0  0  0
 13  2  2  0  0  0  0
 14  3  2  0  0  0  0
 14 13  1  0  0  0  0
 15  4  1  0  0  0  0
 16 17  1  6  0  0  0
 16 18  1  0  0  0  0
 16  3  1  0  0  0  0
 18 22  1  0  0  0  0
 19 20  1  0  0  0  0
 20 25  2  0  0  0  0
 21 25  1  0  0  0  0
 22 19  1  0  0  0  0
 22 24  2  0  0  0  0
 23 26  1  0  0  0  0
 23 19  1  0  0  0  0
 25 27  1  0  0  0  0
 26 21  1  0  0  0  0
 27 28  1  6  0  0  0
 27 29  1  0  0  0  0
 29 34  1  0  0  0  0
 31 32  2  0  0  0  0
 32 30  1  0  0  0  0
 33 29  2  0  0  0  0
 33 31  1  0  0  0  0
 34 30  2  0  0  0  0
 35 13  1  0  0  0  0
 36 35  1  0  0  0  0
 37 40  1  0  0  0  0
 38 37  1  0  0  0  0
 38 41  2  0  0  0  0
 40 39  2  0  0  0  0
 40 36  1  0  0  0  0
 41 39  1  0  0  0  0
 42 43  3  0  0  0  0
 43 38  1  0  0  0  0
M  END
>  <MODEL>
4

>  <REMARK>
 VINA RESULT:      -8.2      2.099      7.818
  Name = 
  9 active torsions:
  status: ('A' for Active; 'I' for Inactive)
    1  A    between atoms: C_1  and  C_34
    2  A    between atoms: C_1  and  C_35
    3  A    between atoms: C_2  and  C_6
    4  A    between atoms: C_2  and  C_13
    5  A    between atoms: C_6  and  C_12
    6  A    between atoms: C_11  and  C_14
    7  A    between atoms: C_14  and  C_22
    8  A    between atoms: C_19  and  C_37
    9  A    between atoms: C_32  and  C_35
                            x       y       z     vdW  Elec       q    Type
                         _______ _______ _______ _____ _____    ______ ____

>  <TORSDO>
F 9

$$$$
=
 OpenBabel11052420483D

 43 48  0  0  1  0  0  0  0  0999 V2000
  191.4920  172.8950  139.8050 C   0  0  0  0  0  0  0  0  0  0  0  0
  188.9200  175.4600  143.3330 C   0  0  0  0  0  0  0  0  0  0  0  0
  190.6890  175.9760  145.4270 C   0  0  0  0  0  0  0  0  0  0  0  0
  189.7730  174.0730  141.0430 C   0  0  0  0  0  0  0  0  0  0  0  0
  192.4090  173.1440  140.8310 C   0  0  0  0  0  3  0  0  0  0  0  0
  191.9180  172.1500  138.5970 C   0  0  0  0  0  1  0  0  0  0  0  0
  190.6910  174.3130  142.0970 C   0  0  0  0  0  0  0  0  0  0  0  0
  190.1780  173.3640  139.9070 C   0  0  0  0  0  3  0  0  0  0  0  0
  192.0120  173.8460  141.9720 C   0  0  0  0  0  3  0  0  0  0  0  0
  191.1400  175.2680  144.3100 C   0  0  0  0  0  3  0  0  0  0  0  0
  190.2610  175.0070  143.2470 C   0  0  0  0  0  0  0  0  0  0  0  0
  188.0290  175.2130  142.2710 C   0  0  0  0  0  3  0  0  0  0  0  0
  188.5050  176.1520  144.4870 C   0  0  0  0  0  0  0  0  0  0  0  0
  189.3960  176.4040  145.4790 N   0  0  0  0  0  0  0  0  0  0  0  0
  188.4520  174.5230  141.1350 C   0  0  0  0  0  3  0  0  0  0  0  0
  191.6280  176.3500  146.5350 C   0  0  1  0  0  3  0  0  0  0  0  0
  190.8640  176.8210  147.7550 C   0  0  0  0  0  1  0  0  0  0  0  0
  192.5710  175.2070  146.9150 C   0  0  0  0  0  2  0  0  0  0  0  0
  194.3310  174.2840  145.3210 N   0  0  0  0  0  0  0  0  0  0  0  0
  195.2830  174.5940  144.2890 C   0  0  0  0  0  3  0  0  0  0  0  0
  195.0960  172.2830  143.4400 C   0  0  0  0  0  2  0  0  0  0  0  0
  193.8880  175.3240  146.2090 C   0  0  0  0  0  0  0  0  0  0  0  0
  193.7260  172.9500  145.4010 C   0  0  0  0  0  2  0  0  0  0  0  0
  194.5680  176.3760  146.3450 O   0  0  0  0  0  0  0  0  0  0  0  0
  195.6800  173.6670  143.4060 C   0  0  0  0  0  0  0  0  0  0  0  0
  194.6780  171.8940  144.8550 C   0  0  0  0  0  2  0  0  0  0  0  0
  196.7110  173.9820  142.3610 C   0  0  1  0  0  3  0  0  0  0  0  0
  197.8860  173.0080  142.3990 C   0  0  0  0  0  1  0  0  0  0  0  0
  196.1150  174.1110  140.9900 C   0  0  0  0  0  0  0  0  0  0  0  0
  195.6600  173.2210  138.7770 C   0  0  0  0  0  3  0  0  0  0  0  0
  194.8260  175.4090  139.3990 C   0  0  0  0  0  3  0  0  0  0  0  0
  194.9570  174.3870  138.4540 C   0  0  0  0  0  3  0  0  0  0  0  0
  195.4070  175.2730  140.6620 C   0  0  0  0  0  3  0  0  0  0  0  0
  196.2330  173.0810  140.0430 C   0  0  0  0  0  3  0  0  0  0  0  0
  187.1090  176.6670  144.6300 C   0  0  0  0  0  2  0  0  0  0  0  0
  187.0280  178.1070  144.1590 C   0  0  0  0  0  2  0  0  0  0  0  0
  184.3840  178.2070  143.2380 S   0  0  0  0  0  0  0  0  0  0  0  0
  184.0540  178.2500  141.5900 C   0  0  0  0  0  0  0  0  0  0  0  0
  186.3720  178.2150  141.6970 C   0  0  0  0  0  3  0  0  0  0  0  0
  186.0510  178.2140  143.0490 C   0  0  0  0  0  0  0  0  0  0  0  0
  185.2390  178.2340  140.8690 C   0  0  0  0  0  3  0  0  0  0  0  0
  181.6360  178.1780  140.5150 C   0  0  0  0  0  3  0  0  0  0  0  0
  182.7420  178.2060  141.0080 C   0  0  0  0  0  0  0  0  0  0  0  0
  1  8  2  0  0  0  0
  1  5  1  0  0  0  0
  2 13  1  0  0  0  0
  3 14  1  0  0  0  0
  3 16  1  0  0  0  0
  4 15  2  0  0  0  0
  4  7  1  0  0  0  0
  5  9  2  0  0  0  0
  6  1  1  0  0  0  0
  7 11  2  0  0  0  0
  8  4  1  0  0  0  0
  9  7  1  0  0  0  0
 10  3  2  0  0  0  0
 11  2  1  0  0  0  0
 11 10  1  0  0  0  0
 12  2  2  0  0  0  0
 13 35  1  0  0  0  0
 13 14  2  0  0  0  0
 15 12  1  0  0  0  0
 16 18  1  0  0  0  0
 16 17  1  1  0  0  0
 19 23  1  0  0  0  0
 19 22  1  0  0  0  0
 20 19  1  0  0  0  0
 21 26  1  0  0  0  0
 22 24  2  0  0  0  0
 22 18  1  0  0  0  0
 25 21  1  0  0  0  0
 25 20  2  0  0  0  0
 26 23  1  0  0  0  0
 27 28  1  6  0  0  0
 27 25  1  0  0  0  0
 29 27  1  0  0  0  0
 30 34  1  0  0  0  0
 31 33  2  0  0  0  0
 32 30  2  0  0  0  0
 32 31  1  0  0  0  0
 33 29  1  0  0  0  0
 34 29  2  0  0  0  0
 36 35  1  0  0  0  0
 38 37  1  0  0  0  0
 39 40  2  0  0  0  0
 40 37  1  0  0  0  0
 40 36  1  0  0  0  0
 41 38  2  0  0  0  0
 41 39  1  0  0  0  0
 42 43  3  0  0  0  0
 43 38  1  0  0  0  0
M  END
>  <MODEL>
5

>  <REMARK>
 VINA RESULT:      -8.2      2.961      8.949
  Name = 
  9 active torsions:
  status: ('A' for Active; 'I' for Inactive)
    1  A    between atoms: C_1  and  C_34
    2  A    between atoms: C_1  and  C_35
    3  A    between atoms: C_2  and  C_6
    4  A    between atoms: C_2  and  C_13
    5  A    between atoms: C_6  and  C_12
    6  A    between atoms: C_11  and  C_14
    7  A    between atoms: C_14  and  C_22
    8  A    between atoms: C_19  and  C_37
    9  A    between atoms: C_32  and  C_35
                            x       y       z     vdW  Elec       q    Type
                         _______ _______ _______ _____ _____    ______ ____

>  <TORSDO>
F 9

$$$$
=
 OpenBabel11052420483D

 43 48  0  0  1  0  0  0  0  0999 V2000
  189.9490  174.3730  146.5420 C   0  0  0  0  0  0  0  0  0  0  0  0
  194.0490  174.5870  143.5790 C   0  0  0  0  0  0  0  0  0  0  0  0
  193.6120  172.8480  141.4430 C   0  0  0  0  0  0  0  0  0  0  0  0
  192.1010  174.9290  145.5740 C   0  0  0  0  0  0  0  0  0  0  0  0
  189.6910  173.5000  145.4810 C   0  0  0  0  0  3  0  0  0  0  0  0
  188.9410  174.5540  147.6130 C   0  0  0  0  0  1  0  0  0  0  0  0
  191.8560  174.0300  144.5040 C   0  0  0  0  0  0  0  0  0  0  0  0
  191.1490  175.0920  146.5850 C   0  0  0  0  0  3  0  0  0  0  0  0
  190.6390  173.3260  144.4690 C   0  0  0  0  0  3  0  0  0  0  0  0
  192.6300  172.9810  142.4280 C   0  0  0  0  0  3  0  0  0  0  0  0
  192.8360  173.8570  143.5050 C   0  0  0  0  0  0  0  0  0  0  0  0
  194.2670  175.4760  144.6480 C   0  0  0  0  0  3  0  0  0  0  0  0
  195.0190  174.4050  142.5740 C   0  0  0  0  0  0  0  0  0  0  0  0
  194.7660  173.5650  141.5370 N   0  0  0  0  0  0  0  0  0  0  0  0
  193.3010  175.6450  145.6390 C   0  0  0  0  0  3  0  0  0  0  0  0
  193.3810  171.9900  140.2340 C   0  0  1  0  0  3  0  0  0  0  0  0
  194.0710  170.6500  140.3830 C   0  0  0  0  0  1  0  0  0  0  0  0
  191.8950  171.7850  139.9360 C   0  0  0  0  0  2  0  0  0  0  0  0
  190.0160  173.3740  140.5980 N   0  0  0  0  0  0  0  0  0  0  0  0
  189.6450  174.7390  140.8520 C   0  0  0  0  0  3  0  0  0  0  0  0
  187.8220  173.9570  142.3220 C   0  0  0  0  0  2  0  0  0  0  0  0
  191.1770  173.0930  139.7990 C   0  0  0  0  0  0  0  0  0  0  0  0
  189.2900  172.2720  141.2410 C   0  0  0  0  0  2  0  0  0  0  0  0
  191.6460  173.9740  139.0280 O   0  0  0  0  0  0  0  0  0  0  0  0
  188.6030  175.0430  141.6380 C   0  0  0  0  0  0  0  0  0  0  0  0
  187.8440  172.6660  141.5090 C   0  0  0  0  0  2  0  0  0  0  0  0
  188.1890  176.4690  141.8610 C   0  0  1  0  0  3  0  0  0  0  0  0
  186.6930  176.6760  141.6440 C   0  0  0  0  0  1  0  0  0  0  0  0
  188.6570  177.0010  143.1840 C   0  0  0  0  0  0  0  0  0  0  0  0
  188.2650  177.5360  145.5200 C   0  0  0  0  0  3  0  0  0  0  0  0
  190.4470  177.9150  144.5400 C   0  0  0  0  0  3  0  0  0  0  0  0
  189.5880  177.9710  145.6420 C   0  0  0  0  0  3  0  0  0  0  0  0
  189.9820  177.4340  143.3140 C   0  0  0  0  0  3  0  0  0  0  0  0
  187.8020  177.0470  144.2960 C   0  0  0  0  0  3  0  0  0  0  0  0
  196.3110  175.1550  142.5880 C   0  0  0  0  0  2  0  0  0  0  0  0
  197.4800  174.1890  142.6640 C   0  0  0  0  0  2  0  0  0  0  0  0
  197.0360  171.7070  143.8860 S   0  0  0  0  0  0  0  0  0  0  0  0
  196.9570  171.5820  145.5610 C   0  0  0  0  0  0  0  0  0  0  0  0
  197.3740  173.8340  145.1870 C   0  0  0  0  0  3  0  0  0  0  0  0
  197.3570  173.3540  143.8820 C   0  0  0  0  0  0  0  0  0  0  0  0
  197.1450  172.8280  146.1390 C   0  0  0  0  0  3  0  0  0  0  0  0
  196.3680  169.3730  146.8950 C   0  0  0  0  0  3  0  0  0  0  0  0
  196.6410  170.3830  146.2860 C   0  0  0  0  0  0  0  0  0  0  0  0
  1  8  1  0  0  0  0
  1  6  1  0  0  0  0
  2 12  1  0  0  0  0
  3 14  2  0  0  0  0
  3 10  1  0  0  0  0
  4 15  1  0  0  0  0
  4  8  2  0  0  0  0
  5  1  2  0  0  0  0
  7  4  1  0  0  0  0
  9  7  2  0  0  0  0
  9  5  1  0  0  0  0
 10 11  2  0  0  0  0
 11  2  1  0  0  0  0
 11  7  1  0  0  0  0
 12 15  2  0  0  0  0
 13 35  1  0  0  0  0
 13  2  2  0  0  0  0
 14 13  1  0  0  0  0
 16 17  1  1  0  0  0
 16  3  1  0  0  0  0
 18 16  1  0  0  0  0
 19 20  1  0  0  0  0
 19 23  1  0  0  0  0
 20 25  2  0  0  0  0
 22 18  1  0  0  0  0
 22 19  1  0  0  0  0
 23 26  1  0  0  0  0
 24 22  2  0  0  0  0
 25 27  1  0  0  0  0
 25 21  1  0  0  0  0
 26 21  1  0  0  0  0
 27 28  1  1  0  0  0
 27 29  1  0  0  0  0
 29 33  2  0  0  0  0
 29 34  1  0  0  0  0
 30 32  1  0  0  0  0
 31 32  2  0  0  0  0
 33 31  1  0  0  0  0
 34 30  2  0  0  0  0
 35 36  1  0  0  0  0
 36 40  1  0  0  0  0
 37 38  1  0  0  0  0
 38 41  2  0  0  0  0
 38 43  1  0  0  0  0
 39 41  1  0  0  0  0
 40 37  1  0  0  0  0
 40 39  2  0  0  0  0
 43 42  3  0  0  0  0
M  END
>  <MODEL>
6

>  <REMARK>
 VINA RESULT:      -8.2      2.185      4.671
  Name = 
  9 active torsions:
  status: ('A' for Active; 'I' for Inactive)
    1  A    between atoms: C_1  and  C_34
    2  A    between atoms: C_1  and  C_35
    3  A    between atoms: C_2  and  C_6
    4  A    between atoms: C_2  and  C_13
    5  A    between atoms: C_6  and  C_12
    6  A    between atoms: C_11  and  C_14
    7  A    between atoms: C_14  and  C_22
    8  A    between atoms: C_19  and  C_37
    9  A    between atoms: C_32  and  C_35
                            x       y       z     vdW  Elec       q    Type
                         _______ _______ _______ _____ _____    ______ ____

>  <TORSDO>
F 9

$$$$
=
 OpenBabel11052420483D

 43 48  0  0  1  0  0  0  0  0999 V2000
  196.1790  175.9930  143.1430 C   0  0  0  0  0  0  0  0  0  0  0  0
  191.5320  176.0730  145.1530 C   0  0  0  0  0  0  0  0  0  0  0  0
  189.7810  175.0950  143.2160 C   0  0  0  0  0  0  0  0  0  0  0  0
  194.2890  176.2530  144.6380 C   0  0  0  0  0  0  0  0  0  0  0  0
  195.3320  175.4890  142.1510 C   0  0  0  0  0  3  0  0  0  0  0  0
  197.6330  176.1120  142.8840 C   0  0  0  0  0  1  0  0  0  0  0  0
  193.4190  175.7610  143.6300 C   0  0  0  0  0  0  0  0  0  0  0  0
  195.6590  176.3690  144.3870 C   0  0  0  0  0  3  0  0  0  0  0  0
  193.9600  175.3750  142.3910 C   0  0  0  0  0  3  0  0  0  0  0  0
  191.1440  175.1880  142.9210 C   0  0  0  0  0  3  0  0  0  0  0  0
  192.0360  175.6740  143.8890 C   0  0  0  0  0  0  0  0  0  0  0  0
  192.4160  176.5540  146.1390 C   0  0  0  0  0  3  0  0  0  0  0  0
  190.1490  175.9800  145.3990 C   0  0  0  0  0  0  0  0  0  0  0  0
  189.3270  175.4810  144.4400 N   0  0  0  0  0  0  0  0  0  0  0  0
  193.7830  176.6450  145.8820 C   0  0  0  0  0  3  0  0  0  0  0  0
  188.8190  174.4940  142.2340 C   0  0  1  0  0  3  0  0  0  0  0  0
  187.9230  175.5580  141.6350 C   0  0  0  0  0  1  0  0  0  0  0  0
  189.5240  173.7150  141.1230 C   0  0  0  0  0  2  0  0  0  0  0  0
  191.7170  172.4270  141.2810 N   0  0  0  0  0  0  0  0  0  0  0  0
  192.6220  171.7190  142.1440 C   0  0  0  0  0  3  0  0  0  0  0  0
  194.4790  172.2400  140.6030 C   0  0  0  0  0  2  0  0  0  0  0  0
  190.3450  172.5900  141.6770 C   0  0  0  0  0  0  0  0  0  0  0  0
  192.2060  173.0810  140.0620 C   0  0  0  0  0  2  0  0  0  0  0  0
  189.8400  171.8320  142.5490 O   0  0  0  0  0  0  0  0  0  0  0  0
  193.9220  171.5930  141.8390 C   0  0  0  0  0  0  0  0  0  0  0  0
  193.4210  172.3470  139.5100 C   0  0  0  0  0  2  0  0  0  0  0  0
  194.8530  170.8110  142.7190 C   0  0  1  0  0  3  0  0  0  0  0  0
  195.8110  169.9390  141.9120 C   0  0  0  0  0  1  0  0  0  0  0  0
  195.5650  171.6790  143.7140 C   0  0  0  0  0  0  0  0  0  0  0  0
  195.5770  173.0350  145.7290 C   0  0  0  0  0  3  0  0  0  0  0  0
  197.6250  172.7020  144.4800 C   0  0  0  0  0  3  0  0  0  0  0  0
  196.9460  173.2680  145.5630 C   0  0  0  0  0  3  0  0  0  0  0  0
  196.9360  171.9120  143.5560 C   0  0  0  0  0  3  0  0  0  0  0  0
  194.8890  172.2390  144.8100 C   0  0  0  0  0  3  0  0  0  0  0  0
  189.5590  176.3720  146.7150 C   0  0  0  0  0  2  0  0  0  0  0  0
  188.2060  175.7090  146.9040 C   0  0  0  0  0  2  0  0  0  0  0  0
  186.2010  176.7020  145.2170 S   0  0  0  0  0  0  0  0  0  0  0  0
  185.3570  178.0980  145.6230 C   0  0  0  0  0  0  0  0  0  0  0  0
  186.8170  177.7890  147.4010 C   0  0  0  0  0  3  0  0  0  0  0  0
  187.1290  176.6860  146.6150 C   0  0  0  0  0  0  0  0  0  0  0  0
  185.8120  178.5910  146.8370 C   0  0  0  0  0  3  0  0  0  0  0  0
  183.5570  179.2850  144.0880 C   0  0  0  0  0  3  0  0  0  0  0  0
  184.3810  178.7460  144.7930 C   0  0  0  0  0  0  0  0  0  0  0  0
  1  8  1  0  0  0  0
  2 13  1  0  0  0  0
  2 12  1  0  0  0  0
  3 14  1  0  0  0  0
  4 15  1  0  0  0  0
  5  9  1  0  0  0  0
  5  1  2  0  0  0  0
  6  1  1  0  0  0  0
  7 11  1  0  0  0  0
  7  4  1  0  0  0  0
  8  4  2  0  0  0  0
  9  7  2  0  0  0  0
 10  3  2  0  0  0  0
 10 11  1  0  0  0  0
 11  2  2  0  0  0  0
 13 35  1  0  0  0  0
 14 13  2  0  0  0  0
 15 12  2  0  0  0  0
 16 17  1  6  0  0  0
 16  3  1  0  0  0  0
 18 22  1  0  0  0  0
 18 16  1  0  0  0  0
 19 22  1  0  0  0  0
 19 20  1  0  0  0  0
 21 25  1  0  0  0  0
 22 24  2  0  0  0  0
 23 19  1  0  0  0  0
 25 20  2  0  0  0  0
 25 27  1  0  0  0  0
 26 23  1  0  0  0  0
 26 21  1  0  0  0  0
 27 28  1  6  0  0  0
 27 29  1  0  0  0  0
 29 34  1  0  0  0  0
 31 32  2  0  0  0  0
 32 30  1  0  0  0  0
 33 29  2  0  0  0  0
 33 31  1  0  0  0  0
 34 30  2  0  0  0  0
 35 36  1  0  0  0  0
 37 38  1  0  0  0  0
 37 40  1  0  0  0  0
 38 41  2  0  0  0  0
 40 36  1  0  0  0  0
 40 39  2  0  0  0  0
 41 39  1  0  0  0  0
 42 43  3  0  0  0  0
 43 38  1  0  0  0  0
M  END
>  <MODEL>
7

>  <REMARK>
 VINA RESULT:      -8.1      2.199      7.838
  Name = 
  9 active torsions:
  status: ('A' for Active; 'I' for Inactive)
    1  A    between atoms: C_1  and  C_34
    2  A    between atoms: C_1  and  C_35
    3  A    between atoms: C_2  and  C_6
    4  A    between atoms: C_2  and  C_13
    5  A    between atoms: C_6  and  C_12
    6  A    between atoms: C_11  and  C_14
    7  A    between atoms: C_14  and  C_22
    8  A    between atoms: C_19  and  C_37
    9  A    between atoms: C_32  and  C_35
                            x       y       z     vdW  Elec       q    Type
                         _______ _______ _______ _____ _____    ______ ____

>  <TORSDO>
F 9

$$$$
=
 OpenBabel11052420483D

 43 48  0  0  1  0  0  0  0  0999 V2000
  195.9140  173.9720  145.7320 C   0  0  0  0  0  0  0  0  0  0  0  0
  191.7450  175.8980  143.5980 C   0  0  0  0  0  0  0  0  0  0  0  0
  190.4680  173.8110  142.2590 C   0  0  0  0  0  0  0  0  0  0  0  0
  194.1300  175.4480  145.0150 C   0  0  0  0  0  0  0  0  0  0  0  0
  195.2960  172.9000  145.0810 C   0  0  0  0  0  3  0  0  0  0  0  0
  197.1810  173.7580  146.4700 C   0  0  0  0  0  1  0  0  0  0  0  0
  193.5070  174.3700  144.3340 C   0  0  0  0  0  0  0  0  0  0  0  0
  195.3290  175.2420  145.7050 C   0  0  0  0  0  3  0  0  0  0  0  0
  194.1010  173.0970  144.3840 C   0  0  0  0  0  3  0  0  0  0  0  0
  191.6620  173.5580  142.9390 C   0  0  0  0  0  3  0  0  0  0  0  0
  192.3110  174.5980  143.6210 C   0  0  0  0  0  0  0  0  0  0  0  0
  192.3810  176.9500  144.2850 C   0  0  0  0  0  3  0  0  0  0  0  0
  190.5510  176.1110  142.8820 C   0  0  0  0  0  0  0  0  0  0  0  0
  189.9450  175.0690  142.2580 N   0  0  0  0  0  0  0  0  0  0  0  0
  193.5650  176.7270  144.9870 C   0  0  0  0  0  3  0  0  0  0  0  0
  189.7040  172.7000  141.6000 C   0  0  1  0  0  3  0  0  0  0  0  0
  188.2230  173.0140  141.5590 C   0  0  0  0  0  1  0  0  0  0  0  0
  190.2150  172.3940  140.1910 C   0  0  0  0  0  2  0  0  0  0  0  0
  192.6080  172.9950  139.5560 N   0  0  0  0  0  0  0  0  0  0  0  0
  193.9840  173.0060  139.9730 C   0  0  0  0  0  3  0  0  0  0  0  0
  194.4220  174.8860  138.4340 C   0  0  0  0  0  2  0  0  0  0  0  0
  191.6840  172.0970  140.1930 C   0  0  0  0  0  0  0  0  0  0  0  0
  192.1190  173.9690  138.5730 C   0  0  0  0  0  2  0  0  0  0  0  0
  192.1070  171.0890  140.8200 O   0  0  0  0  0  0  0  0  0  0  0  0
  194.8660  173.8670  139.4450 C   0  0  0  0  0  0  0  0  0  0  0  0
  193.2350  174.3780  137.6210 C   0  0  0  0  0  2  0  0  0  0  0  0
  196.3110  173.8420  139.8480 C   0  0  1  0  0  3  0  0  0  0  0  0
  197.2440  174.0540  138.6590 C   0  0  0  0  0  1  0  0  0  0  0  0
  196.6050  174.7780  140.9840 C   0  0  0  0  0  0  0  0  0  0  0  0
  196.1320  176.7910  142.2570 C   0  0  0  0  0  3  0  0  0  0  0  0
  197.9230  175.3130  142.9470 C   0  0  0  0  0  3  0  0  0  0  0  0
  197.1720  176.4770  143.1380 C   0  0  0  0  0  3  0  0  0  0  0  0
  197.6420  174.4670  141.8710 C   0  0  0  0  0  3  0  0  0  0  0  0
  195.8460  175.9420  141.1860 C   0  0  0  0  0  3  0  0  0  0  0  0
  189.8980  177.4540  142.8320 C   0  0  0  0  0  2  0  0  0  0  0  0
  188.6080  177.3820  142.0350 C   0  0  0  0  0  2  0  0  0  0  0  0
  187.2000  177.5280  144.4540 S   0  0  0  0  0  0  0  0  0  0  0  0
  185.7810  178.4230  144.5640 C   0  0  0  0  0  0  0  0  0  0  0  0
  186.4660  178.7270  142.3670 C   0  0  0  0  0  3  0  0  0  0  0  0
  187.4910  177.9200  142.8480 C   0  0  0  0  0  0  0  0  0  0  0  0
  185.4960  179.0110  143.3400 C   0  0  0  0  0  3  0  0  0  0  0  0
  184.2150  178.5370  146.6940 C   0  0  0  0  0  3  0  0  0  0  0  0
  184.9320  178.4890  145.7200 C   0  0  0  0  0  0  0  0  0  0  0  0
  1  6  1  0  0  0  0
  2 11  1  0  0  0  0
  2 12  1  0  0  0  0
  3 10  1  0  0  0  0
  4  8  2  0  0  0  0
  5  1  2  0  0  0  0
  7  9  2  0  0  0  0
  7  4  1  0  0  0  0
  8  1  1  0  0  0  0
  9  5  1  0  0  0  0
 10 11  2  0  0  0  0
 11  7  1  0  0  0  0
 12 15  2  0  0  0  0
 13  2  2  0  0  0  0
 14  3  2  0  0  0  0
 14 13  1  0  0  0  0
 15  4  1  0  0  0  0
 16 17  1  6  0  0  0
 16  3  1  0  0  0  0
 18 22  1  0  0  0  0
 18 16  1  0  0  0  0
 19 20  1  0  0  0  0
 19 22  1  0  0  0  0
 21 25  1  0  0  0  0
 22 24  2  0  0  0  0
 23 19  1  0  0  0  0
 25 27  1  0  0  0  0
 25 20  2  0  0  0  0
 26 21  1  0  0  0  0
 26 23  1  0  0  0  0
 27 28  1  6  0  0  0
 27 29  1  0  0  0  0
 29 34  2  0  0  0  0
 29 33  1  0  0  0  0
 30 32  2  0  0  0  0
 31 32  1  0  0  0  0
 33 31  2  0  0  0  0
 34 30  1  0  0  0  0
 35 13  1  0  0  0  0
 36 35  1  0  0  0  0
 36 40  1  0  0  0  0
 37 38  1  0  0  0  0
 38 43  1  0  0  0  0
 39 40  2  0  0  0  0
 39 41  1  0  0  0  0
 40 37  1  0  0  0  0
 41 38  2  0  0  0  0
 43 42  3  0  0  0  0
M  END
>  <MODEL>
8

>  <REMARK>
 VINA RESULT:      -8.1      2.542      7.459
  Name = 
  9 active torsions:
  status: ('A' for Active; 'I' for Inactive)
    1  A    between atoms: C_1  and  C_34
    2  A    between atoms: C_1  and  C_35
    3  A    between atoms: C_2  and  C_6
    4  A    between atoms: C_2  and  C_13
    5  A    between atoms: C_6  and  C_12
    6  A    between atoms: C_11  and  C_14
    7  A    between atoms: C_14  and  C_22
    8  A    between atoms: C_19  and  C_37
    9  A    between atoms: C_32  and  C_35
                            x       y       z     vdW  Elec       q    Type
                         _______ _______ _______ _____ _____    ______ ____

>  <TORSDO>
F 9

$$$$
=
 OpenBabel11052420483D

 43 48  0  0  1  0  0  0  0  0999 V2000
  181.6750  178.9520  141.4850 C   0  0  0  0  0  0  0  0  0  0  0  0
  186.5360  177.6680  142.0910 C   0  0  0  0  0  0  0  0  0  0  0  0
  187.0650  177.7220  144.8290 C   0  0  0  0  0  0  0  0  0  0  0  0
  183.9720  178.2720  141.1120 C   0  0  0  0  0  0  0  0  0  0  0  0
  181.9010  178.9790  142.8640 C   0  0  0  0  0  3  0  0  0  0  0  0
  180.3340  179.2840  140.9480 C   0  0  0  0  0  1  0  0  0  0  0  0
  184.2150  178.3170  142.5090 C   0  0  0  0  0  0  0  0  0  0  0  0
  182.7060  178.5920  140.6100 C   0  0  0  0  0  3  0  0  0  0  0  0
  183.1640  178.6670  143.3750 C   0  0  0  0  0  3  0  0  0  0  0  0
  185.7840  178.0450  144.3740 C   0  0  0  0  0  3  0  0  0  0  0  0
  185.5030  178.0170  142.9990 C   0  0  0  0  0  0  0  0  0  0  0  0
  186.2670  177.6260  140.7090 C   0  0  0  0  0  3  0  0  0  0  0  0
  187.8170  177.3700  142.5940 C   0  0  0  0  0  0  0  0  0  0  0  0
  188.0350  177.3860  143.9340 N   0  0  0  0  0  0  0  0  0  0  0  0
  184.9960  177.9280  140.2240 C   0  0  0  0  0  3  0  0  0  0  0  0
  187.3680  177.6550  146.2970 C   0  0  1  0  0  3  0  0  0  0  0  0
  186.0970  177.7380  147.1150 C   0  0  0  0  0  1  0  0  0  0  0  0
  188.1540  176.3990  146.6760 C   0  0  0  0  0  2  0  0  0  0  0  0
  190.6120  175.9470  146.1760 N   0  0  0  0  0  0  0  0  0  0  0  0
  191.9090  176.5260  145.9570 C   0  0  0  0  0  3  0  0  0  0  0  0
  192.5610  174.5410  144.6420 C   0  0  0  0  0  2  0  0  0  0  0  0
  189.6090  176.7020  146.8760 C   0  0  0  0  0  0  0  0  0  0  0  0
  190.2690  174.6440  145.5930 C   0  0  0  0  0  2  0  0  0  0  0  0
  189.9400  177.6730  147.6080 O   0  0  0  0  0  0  0  0  0  0  0  0
  192.8540  175.8780  145.2610 C   0  0  0  0  0  0  0  0  0  0  0  0
  191.5130  173.7780  145.4460 C   0  0  0  0  0  2  0  0  0  0  0  0
  194.2230  176.4660  145.0780 C   0  0  1  0  0  3  0  0  0  0  0  0
  194.5320  177.5410  146.1160 C   0  0  0  0  0  1  0  0  0  0  0  0
  195.2910  175.4150  145.0010 C   0  0  0  0  0  0  0  0  0  0  0  0
  197.0340  174.2380  143.7870 C   0  0  0  0  0  3  0  0  0  0  0  0
  196.5660  173.6660  146.0930 C   0  0  0  0  0  3  0  0  0  0  0  0
  197.2980  173.4620  144.9200 C   0  0  0  0  0  3  0  0  0  0  0  0
  195.5630  174.6380  146.1330 C   0  0  0  0  0  3  0  0  0  0  0  0
  196.0370  175.2160  143.8290 C   0  0  0  0  0  3  0  0  0  0  0  0
  188.9420  176.9830  141.6900 C   0  0  0  0  0  2  0  0  0  0  0  0
  189.9470  176.1260  142.4380 C   0  0  0  0  0  2  0  0  0  0  0  0
  191.0030  173.8230  141.2400 S   0  0  0  0  0  0  0  0  0  0  0  0
  190.0500  172.4540  141.0340 C   0  0  0  0  0  0  0  0  0  0  0  0
  188.6400  173.9640  142.0930 C   0  0  0  0  0  3  0  0  0  0  0  0
  189.8090  174.7120  142.0150 C   0  0  0  0  0  0  0  0  0  0  0  0
  188.7770  172.6830  141.5350 C   0  0  0  0  0  3  0  0  0  0  0  0
  190.8020  170.2550  139.7690 C   0  0  0  0  0  3  0  0  0  0  0  0
  190.4570  171.2580  140.3510 C   0  0  0  0  0  0  0  0  0  0  0  0
  1  5  1  0  0  0  0
  2 13  2  0  0  0  0
  2 11  1  0  0  0  0
  3 16  1  0  0  0  0
  4  7  2  0  0  0  0
  5  9  2  0  0  0  0
  6  1  1  0  0  0  0
  7 11  1  0  0  0  0
  7  9  1  0  0  0  0
  8  4  1  0  0  0  0
  8  1  2  0  0  0  0
 10  3  1  0  0  0  0
 11 10  2  0  0  0  0
 12  2  1  0  0  0  0
 13 14  1  0  0  0  0
 14  3  2  0  0  0  0
 15 12  2  0  0  0  0
 15  4  1  0  0  0  0
 16 18  1  0  0  0  0
 16 17  1  1  0  0  0
 18 22  1  0  0  0  0
 19 22  1  0  0  0  0
 20 19  1  0  0  0  0
 21 25  1  0  0  0  0
 21 26  1  0  0  0  0
 22 24  2  0  0  0  0
 23 19  1  0  0  0  0
 25 20  2  0  0  0  0
 26 23  1  0  0  0  0
 27 25  1  0  0  0  0
 27 28  1  1  0  0  0
 29 27  1  0  0  0  0
 29 33  1  0  0  0  0
 30 34  1  0  0  0  0
 30 32  2  0  0  0  0
 31 33  2  0  0  0  0
 32 31  1  0  0  0  0
 34 29  2  0  0  0  0
 35 36  1  0  0  0  0
 35 13  1  0  0  0  0
 37 40  1  0  0  0  0
 38 37  1  0  0  0  0
 38 41  2  0  0  0  0
 40 39  2  0  0  0  0
 40 36  1  0  0  0  0
 41 39  1  0  0  0  0
 42 43  3  0  0  0  0
 43 38  1  0  0  0  0
M  END
>  <MODEL>
9

>  <REMARK>
 VINA RESULT:      -8.0      2.897     10.357
  Name = 
  9 active torsions:
  status: ('A' for Active; 'I' for Inactive)
    1  A    between atoms: C_1  and  C_34
    2  A    between atoms: C_1  and  C_35
    3  A    between atoms: C_2  and  C_6
    4  A    between atoms: C_2  and  C_13
    5  A    between atoms: C_6  and  C_12
    6  A    between atoms: C_11  and  C_14
    7  A    between atoms: C_14  and  C_22
    8  A    between atoms: C_19  and  C_37
    9  A    between atoms: C_32  and  C_35
                            x       y       z     vdW  Elec       q    Type
                         _______ _______ _______ _____ _____    ______ ____

>  <TORSDO>
F 9

$$$$
