=
 OpenBabel11052420063D

 37 45  0  0  1  0  0  0  0  0999 V2000
  192.0700  173.9340  144.3180 O   0  0  0  0  0  0  0  0  0  0  0  0
  190.6900  172.7650  139.9890 C   0  0  0  0  0  2  0  0  0  0  0  0
  188.4630  175.6790  142.2280 C   0  0  0  0  0  0  0  0  0  0  0  0
  193.1620  174.3540  145.1040 C   0  0  0  0  0  0  0  0  0  0  0  0
  188.8900  176.4250  145.9980 C   0  0  0  0  0  2  0  0  0  0  0  0
  188.5500  174.2250  140.2070 C   0  0  1  0  0  3  0  0  0  0  0  0
  189.0310  175.8300  143.6010 C   0  0  1  0  0  3  0  0  0  0  0  0
  194.1170  175.3760  144.5280 C   0  0  0  0  0  2  0  0  0  0  0  0
  189.0400  174.6810  141.5670 C   0  0  0  0  0  0  0  0  0  0  0  0
  188.0490  176.0780  144.7610 C   0  0  2  0  0  3  0  0  0  0  0  0
  187.8270  175.3270  139.4750 C   0  0  0  0  0  3  0  0  0  0  0  0
  193.0640  174.2320  146.5130 O   0  0  0  0  0  0  0  0  0  0  0  0
  190.0280  173.9500  142.4170 C   0  0  2  0  0  3  0  0  0  0  0  0
  191.0530  171.6780  142.1840 C   0  0  0  0  0  2  0  0  0  0  0  0
  186.1140  176.4140  142.2560 C   0  0  0  0  0  3  0  0  0  0  0  0
  194.4930  173.8980  144.5600 C   0  0  0  0  0  2  0  0  0  0  0  0
  187.3200  176.3960  140.1090 C   0  0  0  0  0  3  0  0  0  0  0  0
  189.7580  172.4430  142.3720 C   0  0  2  0  0  3  0  0  0  0  0  0
  191.9100  174.9160  146.9780 C   0  0  2  0  0  3  0  0  0  0  0  0
  189.3600  175.1590  146.7110 C   0  0  0  0  0  2  0  0  0  0  0  0
  187.4440  176.5980  141.6010 C   0  0  2  0  0  3  0  0  0  0  0  0
  189.7540  174.5020  143.8140 C   0  0  1  0  0  3  0  0  0  0  0  0
  189.6330  173.6310  139.2940 C   0  0  0  0  0  2  0  0  0  0  0  0
  187.0130  177.1880  144.4570 C   0  0  1  0  0  3  0  0  0  0  0  0
  190.0950  171.7980  141.0160 C   0  0  1  0  0  3  0  0  0  0  0  0
  190.6650  174.5490  146.1620 C   0  0  1  0  0  3  0  0  0  0  0  0
  190.9860  174.7550  144.6760 C   0  0  1  0  0  3  0  0  0  0  0  0
  185.9210  176.6840  143.5500 C   0  0  0  0  0  3  0  0  0  0  0  0
  184.9860  177.7490  145.8740 C   0  0  0  0  0  3  0  0  0  0  0  0
  186.3790  177.7670  145.6910 C   0  0  0  0  0  0  0  0  0  0  0  0
  187.1980  178.3300  146.6760 C   0  0  0  0  0  3  0  0  0  0  0  0
  187.4300  179.4160  148.7860 F   0  0  0  0  0  0  0  0  0  0  0  0
  185.2460  178.8520  148.0130 C   0  0  0  0  0  3  0  0  0  0  0  0
  186.6330  178.8710  147.8350 C   0  0  0  0  0  0  0  0  0  0  0  0
  184.4240  178.2910  147.0320 C   0  0  0  0  0  3  0  0  0  0  0  0
  192.1460  176.4250  147.0560 C   0  0  0  0  0  2  0  0  0  0  0  0
  191.6620  176.9630  148.3880 C   0  0  0  0  0  1  0  0  0  0  0  0
  1 27  1  0  0  0  0
  1  4  1  0  0  0  0
  2 25  1  0  0  0  0
  4 12  1  0  0  0  0
  5 20  1  0  0  0  0
  6 23  1  6  0  0  0
  6  9  1  0  0  0  0
  7  3  1  6  0  0  0
  7 22  1  0  0  0  0
  7 10  1  0  0  0  0
  8 16  1  0  0  0  0
  8  4  1  0  0  0  0
  9  3  2  0  0  0  0
 10  5  1  1  0  0  0
 11 17  2  0  0  0  0
 11  6  1  0  0  0  0
 12 19  1  0  0  0  0
 13  9  1  6  0  0  0
 13 22  1  0  0  0  0
 15 28  2  0  0  0  0
 16  4  1  0  0  0  0
 18 14  1  1  0  0  0
 18 13  1  0  0  0  0
 19 36  1  6  0  0  0
 21 17  1  6  0  0  0
 21  3  1  0  0  0  0
 21 15  1  0  0  0  0
 22 27  1  0  0  0  0
 23  2  1  0  0  0  0
 24 10  1  0  0  0  0
 24 30  1  0  0  0  0
 25 14  1  0  0  0  0
 25 18  1  0  0  0  0
 26 20  1  0  0  0  0
 26 19  1  0  0  0  0
 27 26  1  0  0  0  0
 28 24  1  0  0  0  0
 29 35  1  0  0  0  0
 30 29  2  0  0  0  0
 30 31  1  0  0  0  0
 31 34  2  0  0  0  0
 34 33  1  0  0  0  0
 34 32  1  0  0  0  0
 35 33  2  0  0  0  0
 36 37  1  0  0  0  0
M  END
>  <MODEL>
1

>  <REMARK>
 VINA RESULT:      -9.4      0.000      0.000
  Name = 
  2 active torsions:
  status: ('A' for Active; 'I' for Inactive)
    1  A    between atoms: C_6  and  C_31
    2  A    between atoms: C_11  and  C_26
                            x       y       z     vdW  Elec       q    Type
                         _______ _______ _______ _____ _____    ______ ____

>  <TORSDO>
F 2

$$$$
=
 OpenBabel11052420063D

 37 45  0  0  1  0  0  0  0  0999 V2000
  193.5940  173.5550  144.1470 O   0  0  0  0  0  0  0  0  0  0  0  0
  192.4510  171.0100  140.3750 C   0  0  0  0  0  2  0  0  0  0  0  0
  189.8170  174.1210  141.7330 C   0  0  0  0  0  0  0  0  0  0  0  0
  194.6080  174.3270  144.7500 C   0  0  0  0  0  0  0  0  0  0  0  0
  190.0820  175.9770  145.1150 C   0  0  0  0  0  2  0  0  0  0  0  0
  190.1300  172.1700  140.2160 C   0  0  1  0  0  3  0  0  0  0  0  0
  190.3390  174.7380  142.9880 C   0  0  1  0  0  3  0  0  0  0  0  0
  195.4240  175.2570  143.8800 C   0  0  0  0  0  2  0  0  0  0  0  0
  190.5330  173.0610  141.3740 C   0  0  0  0  0  0  0  0  0  0  0  0
  189.3140  175.1770  144.0510 C   0  0  2  0  0  3  0  0  0  0  0  0
  189.2760  172.9060  139.2160 C   0  0  0  0  0  3  0  0  0  0  0  0
  194.5070  174.6060  146.1360 O   0  0  0  0  0  0  0  0  0  0  0  0
  191.5980  172.7460  142.3730 C   0  0  2  0  0  3  0  0  0  0  0  0
  192.9250  170.6630  142.7810 C   0  0  0  0  0  2  0  0  0  0  0  0
  187.3900  174.5110  141.6050 C   0  0  0  0  0  3  0  0  0  0  0  0
  195.9970  173.9160  144.3280 C   0  0  0  0  0  2  0  0  0  0  0  0
  188.6190  174.0350  139.5250 C   0  0  0  0  0  3  0  0  0  0  0  0
  191.5360  171.2690  142.7720 C   0  0  2  0  0  3  0  0  0  0  0  0
  193.2630  175.2340  146.4130 C   0  0  2  0  0  3  0  0  0  0  0  0
  190.7080  175.0460  146.1510 C   0  0  0  0  0  2  0  0  0  0  0  0
  188.6920  174.6740  140.8920 C   0  0  2  0  0  3  0  0  0  0  0  0
  191.2310  173.6380  143.5580 C   0  0  1  0  0  3  0  0  0  0  0  0
  191.2970  171.4880  139.4870 C   0  0  0  0  0  2  0  0  0  0  0  0
  188.1420  176.0020  143.4660 C   0  0  1  0  0  3  0  0  0  0  0  0
  191.9770  170.3110  141.6520 C   0  0  1  0  0  3  0  0  0  0  0  0
  192.0920  174.4830  145.7690 C   0  0  1  0  0  3  0  0  0  0  0  0
  192.4040  174.2920  144.2790 C   0  0  1  0  0  3  0  0  0  0  0  0
  187.1430  175.1160  142.7700 C   0  0  0  0  0  3  0  0  0  0  0  0
  187.2040  176.3410  145.7970 C   0  0  0  0  0  3  0  0  0  0  0  0
  187.4170  176.8240  144.4950 C   0  0  0  0  0  0  0  0  0  0  0  0
  186.9500  178.0960  144.1460 C   0  0  0  0  0  3  0  0  0  0  0  0
  185.8270  180.1120  144.7420 F   0  0  0  0  0  0  0  0  0  0  0  0
  186.0670  178.3970  146.3800 C   0  0  0  0  0  3  0  0  0  0  0  0
  186.2770  178.8810  145.0860 C   0  0  0  0  0  0  0  0  0  0  0  0
  186.5310  177.1270  146.7360 C   0  0  0  0  0  3  0  0  0  0  0  0
  193.2920  176.7190  146.0460 C   0  0  0  0  0  2  0  0  0  0  0  0
  194.4990  177.3900  146.6700 C   0  0  0  0  0  1  0  0  0  0  0  0
  1 27  1  0  0  0  0
  1  4  1  0  0  0  0
  2 25  1  0  0  0  0
  4 12  1  0  0  0  0
  5 20  1  0  0  0  0
  6 11  1  6  0  0  0
  6  9  1  0  0  0  0
  7  3  1  6  0  0  0
  7 22  1  0  0  0  0
  7 10  1  0  0  0  0
  8 16  1  0  0  0  0
  8  4  1  0  0  0  0
  9  3  2  0  0  0  0
 10  5  1  1  0  0  0
 11 17  2  0  0  0  0
 12 19  1  0  0  0  0
 13  9  1  6  0  0  0
 13 18  1  0  0  0  0
 13 22  1  0  0  0  0
 15 28  2  0  0  0  0
 16  4  1  0  0  0  0
 18 14  1  1  0  0  0
 19 36  1  6  0  0  0
 21 17  1  6  0  0  0
 21 15  1  0  0  0  0
 21  3  1  0  0  0  0
 22 27  1  0  0  0  0
 23  6  1  0  0  0  0
 23  2  1  0  0  0  0
 24 10  1  0  0  0  0
 24 30  1  0  0  0  0
 25 18  1  0  0  0  0
 25 14  1  0  0  0  0
 26 20  1  0  0  0  0
 26 19  1  0  0  0  0
 27 26  1  0  0  0  0
 28 24  1  0  0  0  0
 29 35  1  0  0  0  0
 30 29  2  0  0  0  0
 31 30  1  0  0  0  0
 31 34  2  0  0  0  0
 32 34  1  0  0  0  0
 33 35  2  0  0  0  0
 34 33  1  0  0  0  0
 36 37  1  0  0  0  0
M  END
>  <MODEL>
2

>  <REMARK>
 VINA RESULT:      -9.3      1.548      2.229
  Name = 
  2 active torsions:
  status: ('A' for Active; 'I' for Inactive)
    1  A    between atoms: C_6  and  C_31
    2  A    between atoms: C_11  and  C_26
                            x       y       z     vdW  Elec       q    Type
                         _______ _______ _______ _____ _____    ______ ____

>  <TORSDO>
F 2

$$$$
=
 OpenBabel11052420063D

 37 45  0  0  1  0  0  0  0  0999 V2000
  187.6180  176.7000  144.4090 O   0  0  0  0  0  0  0  0  0  0  0  0
  190.9620  176.1090  147.6470 C   0  0  0  0  0  2  0  0  0  0  0  0
  191.6620  174.8550  143.5970 C   0  0  0  0  0  0  0  0  0  0  0  0
  186.7260  177.6270  143.8310 C   0  0  0  0  0  0  0  0  0  0  0  0
  188.9760  174.5820  140.8300 C   0  0  0  0  0  2  0  0  0  0  0  0
  192.4620  174.8230  145.9570 C   0  0  1  0  0  3  0  0  0  0  0  0
  190.4400  175.0620  142.7660 C   0  0  1  0  0  3  0  0  0  0  0  0
  187.2080  179.0390  143.5850 C   0  0  0  0  0  2  0  0  0  0  0  0
  191.4270  175.0960  144.8830 C   0  0  0  0  0  0  0  0  0  0  0  0
  190.1290  174.0200  141.6750 C   0  0  2  0  0  3  0  0  0  0  0  0
  193.8630  174.8560  145.4040 C   0  0  0  0  0  3  0  0  0  0  0  0
  185.6500  177.1300  143.0540 O   0  0  0  0  0  0  0  0  0  0  0  0
  189.9910  175.4230  145.1330 C   0  0  2  0  0  3  0  0  0  0  0  0
  188.6260  175.3980  147.2310 C   0  0  0  0  0  2  0  0  0  0  0  0
  193.0590  173.1270  142.5390 C   0  0  0  0  0  3  0  0  0  0  0  0
  186.3150  178.7240  144.7810 C   0  0  0  0  0  2  0  0  0  0  0  0
  194.1220  174.7120  144.0940 C   0  0  0  0  0  3  0  0  0  0  0  0
  189.4360  174.5550  146.2660 C   0  0  2  0  0  3  0  0  0  0  0  0
  186.1480  176.3030  142.0120 C   0  0  2  0  0  3  0  0  0  0  0  0
  187.6260  174.2650  141.4700 C   0  0  0  0  0  2  0  0  0  0  0  0
  193.0340  174.5250  143.0620 C   0  0  2  0  0  3  0  0  0  0  0  0
  189.3220  175.0650  143.8070 C   0  0  1  0  0  3  0  0  0  0  0  0
  192.3760  175.7410  147.1860 C   0  0  0  0  0  2  0  0  0  0  0  0
  191.3540  173.6750  140.7940 C   0  0  1  0  0  3  0  0  0  0  0  0
  190.0010  174.9170  147.6500 C   0  0  1  0  0  3  0  0  0  0  0  0
  187.1580  175.2750  142.5360 C   0  0  1  0  0  3  0  0  0  0  0  0
  188.2300  176.0210  143.3400 C   0  0  1  0  0  3  0  0  0  0  0  0
  192.2980  172.7450  141.5090 C   0  0  0  0  0  3  0  0  0  0  0  0
  191.3030  173.6880  138.2590 C   0  0  0  0  0  3  0  0  0  0  0  0
  190.9860  173.0580  139.4730 C   0  0  0  0  0  0  0  0  0  0  0  0
  190.3160  171.8290  139.4590 C   0  0  0  0  0  3  0  0  0  0  0  0
  189.3180  170.0430  138.2360 F   0  0  0  0  0  0  0  0  0  0  0  0
  190.2840  171.8630  137.0380 C   0  0  0  0  0  3  0  0  0  0  0  0
  189.9660  171.2330  138.2440 C   0  0  0  0  0  0  0  0  0  0  0  0
  190.9530  173.0910  137.0460 C   0  0  0  0  0  3  0  0  0  0  0  0
  186.6940  177.1340  140.8500 C   0  0  0  0  0  2  0  0  0  0  0  0
  185.5740  177.9160  140.1920 C   0  0  0  0  0  1  0  0  0  0  0  0
  2 25  1  0  0  0  0
  3  9  2  0  0  0  0
  4  1  1  0  0  0  0
  4 16  1  0  0  0  0
  5 20  1  0  0  0  0
  6 11  1  6  0  0  0
  6 23  1  0  0  0  0
  7  3  1  1  0  0  0
  7 22  1  0  0  0  0
  8  4  1  0  0  0  0
  8 16  1  0  0  0  0
  9  6  1  0  0  0  0
 10  5  1  6  0  0  0
 10  7  1  0  0  0  0
 12  4  1  0  0  0  0
 13  9  1  6  0  0  0
 13 18  1  0  0  0  0
 14 25  1  0  0  0  0
 17 11  2  0  0  0  0
 18 14  1  1  0  0  0
 18 25  1  0  0  0  0
 19 36  1  6  0  0  0
 19 26  1  0  0  0  0
 19 12  1  0  0  0  0
 20 26  1  0  0  0  0
 21 15  1  1  0  0  0
 21  3  1  0  0  0  0
 21 17  1  0  0  0  0
 22 13  1  0  0  0  0
 23  2  1  0  0  0  0
 24 28  1  0  0  0  0
 24 10  1  0  0  0  0
 26 27  1  0  0  0  0
 27 22  1  0  0  0  0
 27  1  1  0  0  0  0
 28 15  2  0  0  0  0
 29 30  1  0  0  0  0
 30 24  1  0  0  0  0
 31 30  2  0  0  0  0
 32 34  1  0  0  0  0
 33 35  1  0  0  0  0
 33 34  2  0  0  0  0
 34 31  1  0  0  0  0
 35 29  2  0  0  0  0
 37 36  1  0  0  0  0
M  END
>  <MODEL>
3

>  <REMARK>
 VINA RESULT:      -9.1      3.114      8.021
  Name = 
  2 active torsions:
  status: ('A' for Active; 'I' for Inactive)
    1  A    between atoms: C_6  and  C_31
    2  A    between atoms: C_11  and  C_26
                            x       y       z     vdW  Elec       q    Type
                         _______ _______ _______ _____ _____    ______ ____

>  <TORSDO>
F 2

$$$$
=
 OpenBabel11052420063D

 37 45  0  0  1  0  0  0  0  0999 V2000
  191.2180  174.2390  141.7680 O   0  0  0  0  0  0  0  0  0  0  0  0
  194.9550  175.2210  144.4290 C   0  0  0  0  0  2  0  0  0  0  0  0
  191.0130  176.1830  145.8410 C   0  0  0  0  0  0  0  0  0  0  0  0
  190.5670  173.2330  141.0250 C   0  0  0  0  0  0  0  0  0  0  0  0
  187.7850  176.1260  143.7140 C   0  0  0  0  0  2  0  0  0  0  0  0
  193.4680  176.4320  146.1840 C   0  0  1  0  0  3  0  0  0  0  0  0
  189.9910  175.8610  144.8020 C   0  0  1  0  0  3  0  0  0  0  0  0
  190.5340  171.8280  141.5820 C   0  0  0  0  0  2  0  0  0  0  0  0
  192.2490  176.0330  145.3770 C   0  0  0  0  0  0  0  0  0  0  0  0
  188.7780  176.8000  144.6730 C   0  0  2  0  0  3  0  0  0  0  0  0
  193.1880  176.4160  147.6640 C   0  0  0  0  0  3  0  0  0  0  0  0
  189.5650  173.6220  140.1000 O   0  0  0  0  0  0  0  0  0  0  0  0
  192.2560  175.6670  143.9280 C   0  0  2  0  0  3  0  0  0  0  0  0
  194.0570  175.7980  142.1940 C   0  0  0  0  0  2  0  0  0  0  0  0
  190.0880  177.8810  147.3650 C   0  0  0  0  0  3  0  0  0  0  0  0
  191.5130  172.1970  140.4720 C   0  0  0  0  0  2  0  0  0  0  0  0
  191.9410  176.4670  148.1590 C   0  0  0  0  0  3  0  0  0  0  0  0
  193.1910  176.5970  143.1470 C   0  0  2  0  0  3  0  0  0  0  0  0
  188.5660  174.3850  140.7620 C   0  0  2  0  0  3  0  0  0  0  0  0
  188.1360  176.4350  142.2600 C   0  0  0  0  0  2  0  0  0  0  0  0
  190.7140  176.5270  147.2800 C   0  0  2  0  0  3  0  0  0  0  0  0
  190.8040  175.8920  143.5100 C   0  0  1  0  0  3  0  0  0  0  0  0
  194.7340  175.6110  145.8940 C   0  0  0  0  0  2  0  0  0  0  0  0
  188.1120  177.1270  146.0320 C   0  0  1  0  0  3  0  0  0  0  0  0
  194.6810  176.3680  143.4530 C   0  0  1  0  0  3  0  0  0  0  0  0
  189.1790  175.4930  141.6280 C   0  0  1  0  0  3  0  0  0  0  0  0
  190.2270  174.8580  142.5500 C   0  0  1  0  0  3  0  0  0  0  0  0
  188.9080  178.1490  146.8000 C   0  0  0  0  0  3  0  0  0  0  0  0
  185.6540  177.0580  146.6510 C   0  0  0  0  0  3  0  0  0  0  0  0
  186.6980  177.6220  145.9010 C   0  0  0  0  0  0  0  0  0  0  0  0
  186.4240  178.6710  145.0150 C   0  0  0  0  0  3  0  0  0  0  0  0
  184.8590  180.1680  144.0200 F   0  0  0  0  0  0  0  0  0  0  0  0
  184.0820  178.5880  145.6260 C   0  0  0  0  0  3  0  0  0  0  0  0
  185.1190  179.1530  144.8790 C   0  0  0  0  0  0  0  0  0  0  0  0
  184.3500  177.5410  146.5130 C   0  0  0  0  0  3  0  0  0  0  0  0
  187.6000  173.4890  141.5380 C   0  0  0  0  0  2  0  0  0  0  0  0
  187.2060  172.2910  140.6980 C   0  0  0  0  0  1  0  0  0  0  0  0
  1 27  1  0  0  0  0
  2 23  1  0  0  0  0
  3 21  1  0  0  0  0
  4  8  1  0  0  0  0
  4  1  1  0  0  0  0
  6 23  1  1  0  0  0
  6 11  1  0  0  0  0
  7  3  1  1  0  0  0
  9  3  2  0  0  0  0
  9  6  1  0  0  0  0
 10  5  1  6  0  0  0
 10  7  1  0  0  0  0
 10 24  1  0  0  0  0
 11 17  2  0  0  0  0
 12 19  1  0  0  0  0
 12  4  1  0  0  0  0
 13  9  1  1  0  0  0
 14 25  1  0  0  0  0
 16  4  1  0  0  0  0
 16  8  1  0  0  0  0
 18 14  1  6  0  0  0
 18 25  1  0  0  0  0
 18 13  1  0  0  0  0
 19 36  1  1  0  0  0
 19 26  1  0  0  0  0
 20  5  1  0  0  0  0
 21 15  1  6  0  0  0
 21 17  1  0  0  0  0
 22 13  1  0  0  0  0
 22  7  1  0  0  0  0
 24 28  1  0  0  0  0
 25  2  1  0  0  0  0
 26 20  1  0  0  0  0
 26 27  1  0  0  0  0
 27 22  1  0  0  0  0
 28 15  2  0  0  0  0
 30 24  1  0  0  0  0
 30 29  2  0  0  0  0
 31 30  1  0  0  0  0
 32 34  1  0  0  0  0
 33 35  2  0  0  0  0
 34 31  2  0  0  0  0
 34 33  1  0  0  0  0
 35 29  1  0  0  0  0
 37 36  1  0  0  0  0
M  END
>  <MODEL>
4

>  <REMARK>
 VINA RESULT:      -8.8      1.896      5.491
  Name = 
  2 active torsions:
  status: ('A' for Active; 'I' for Inactive)
    1  A    between atoms: C_6  and  C_31
    2  A    between atoms: C_11  and  C_26
                            x       y       z     vdW  Elec       q    Type
                         _______ _______ _______ _____ _____    ______ ____

>  <TORSDO>
F 2

$$$$
=
 OpenBabel11052420063D

 37 45  0  0  1  0  0  0  0  0999 V2000
  194.2010  173.5520  144.6560 O   0  0  0  0  0  0  0  0  0  0  0  0
  193.4250  169.8890  141.8300 C   0  0  0  0  0  2  0  0  0  0  0  0
  190.6280  173.1490  141.9200 C   0  0  0  0  0  0  0  0  0  0  0  0
  195.1460  174.5200  145.0510 C   0  0  0  0  0  0  0  0  0  0  0  0
  190.5750  175.9960  144.5360 C   0  0  0  0  0  2  0  0  0  0  0  0
  191.1030  170.8320  141.1370 C   0  0  1  0  0  3  0  0  0  0  0  0
  191.0310  174.1570  142.9450 C   0  0  1  0  0  3  0  0  0  0  0  0
  196.0140  175.1600  143.9910 C   0  0  0  0  0  2  0  0  0  0  0  0
  191.3920  172.0630  141.9730 C   0  0  0  0  0  0  0  0  0  0  0  0
  189.9140  174.8650  143.7330 C   0  0  2  0  0  3  0  0  0  0  0  0
  190.3220  171.1720  139.8940 C   0  0  0  0  0  3  0  0  0  0  0  0
  194.9240  175.2220  146.2630 O   0  0  0  0  0  0  0  0  0  0  0  0
  192.3760  172.1320  143.0960 C   0  0  2  0  0  3  0  0  0  0  0  0
  193.7040  170.3490  144.2470 C   0  0  0  0  0  2  0  0  0  0  0  0
  188.2130  173.3690  141.4970 C   0  0  0  0  0  3  0  0  0  0  0  0
  196.5730  174.0590  144.8860 C   0  0  0  0  0  2  0  0  0  0  0  0
  189.6200  172.3100  139.7760 C   0  0  0  0  0  3  0  0  0  0  0  0
  192.3080  170.8570  143.9430 C   0  0  2  0  0  3  0  0  0  0  0  0
  193.6500  175.8490  146.2320 C   0  0  2  0  0  3  0  0  0  0  0  0
  191.1300  175.4730  145.8590 C   0  0  0  0  0  2  0  0  0  0  0  0
  189.5670  173.3540  140.8660 C   0  0  2  0  0  3  0  0  0  0  0  0
  191.8940  173.3370  143.9020 C   0  0  1  0  0  3  0  0  0  0  0  0
  192.3400  170.0060  140.7530 C   0  0  0  0  0  2  0  0  0  0  0  0
  188.7790  175.4070  142.8300 C   0  0  1  0  0  3  0  0  0  0  0  0
  192.8600  169.6130  143.2250 C   0  0  1  0  0  3  0  0  0  0  0  0
  192.5510  174.8800  145.7800 C   0  0  1  0  0  3  0  0  0  0  0  0
  192.9900  174.2380  144.4580 C   0  0  1  0  0  3  0  0  0  0  0  0
  187.8580  174.3020  142.3850 C   0  0  0  0  0  3  0  0  0  0  0  0
  187.6600  177.6830  142.8220 C   0  0  0  0  0  3  0  0  0  0  0  0
  187.9550  176.4810  143.4850 C   0  0  0  0  0  0  0  0  0  0  0  0
  187.4720  176.2710  144.7820 C   0  0  0  0  0  3  0  0  0  0  0  0
  186.2340  177.0440  146.6670 F   0  0  0  0  0  0  0  0  0  0  0  0
  186.4080  178.4460  144.7480 C   0  0  0  0  0  3  0  0  0  0  0  0
  186.6990  177.2520  145.4110 C   0  0  0  0  0  0  0  0  0  0  0  0
  186.8880  178.6610  143.4520 C   0  0  0  0  0  3  0  0  0  0  0  0
  193.6810  177.1390  145.4100 C   0  0  0  0  0  2  0  0  0  0  0  0
  194.9090  177.9560  145.7630 C   0  0  0  0  0  1  0  0  0  0  0  0
  1  4  1  0  0  0  0
  2 25  1  0  0  0  0
  3  9  2  0  0  0  0
  4 12  1  0  0  0  0
  5 20  1  0  0  0  0
  6 11  1  6  0  0  0
  6  9  1  0  0  0  0
  7  3  1  6  0  0  0
  7 10  1  0  0  0  0
  7 22  1  0  0  0  0
  8 16  1  0  0  0  0
  8  4  1  0  0  0  0
 10  5  1  6  0  0  0
 13  9  1  6  0  0  0
 13 22  1  0  0  0  0
 13 18  1  0  0  0  0
 15 28  2  0  0  0  0
 16  4  1  0  0  0  0
 17 11  2  0  0  0  0
 18 14  1  1  0  0  0
 19 36  1  6  0  0  0
 19 12  1  0  0  0  0
 21 17  1  6  0  0  0
 21 15  1  0  0  0  0
 21  3  1  0  0  0  0
 22 27  1  0  0  0  0
 23  6  1  0  0  0  0
 23  2  1  0  0  0  0
 24 30  1  0  0  0  0
 24 10  1  0  0  0  0
 25 18  1  0  0  0  0
 25 14  1  0  0  0  0
 26 20  1  0  0  0  0
 26 19  1  0  0  0  0
 27  1  1  0  0  0  0
 27 26  1  0  0  0  0
 28 24  1  0  0  0  0
 29 35  2  0  0  0  0
 29 30  1  0  0  0  0
 30 31  2  0  0  0  0
 31 34  1  0  0  0  0
 33 34  2  0  0  0  0
 34 32  1  0  0  0  0
 35 33  1  0  0  0  0
 36 37  1  0  0  0  0
M  END
>  <MODEL>
5

>  <REMARK>
 VINA RESULT:      -8.7      1.862      3.296
  Name = 
  2 active torsions:
  status: ('A' for Active; 'I' for Inactive)
    1  A    between atoms: C_6  and  C_31
    2  A    between atoms: C_11  and  C_26
                            x       y       z     vdW  Elec       q    Type
                         _______ _______ _______ _____ _____    ______ ____

>  <TORSDO>
F 2

$$$$
=
 OpenBabel11052420063D

 37 45  0  0  1  0  0  0  0  0999 V2000
  191.9890  173.2430  141.3100 O   0  0  0  0  0  0  0  0  0  0  0  0
  195.9240  174.8530  143.2930 C   0  0  0  0  0  2  0  0  0  0  0  0
  192.1110  175.8030  145.0310 C   0  0  0  0  0  0  0  0  0  0  0  0
  191.3340  172.0960  140.8180 C   0  0  0  0  0  0  0  0  0  0  0  0
  188.6710  175.2200  143.3650 C   0  0  0  0  0  2  0  0  0  0  0  0
  194.5630  176.2450  145.0170 C   0  0  1  0  0  3  0  0  0  0  0  0
  191.0030  175.2600  144.1910 C   0  0  1  0  0  3  0  0  0  0  0  0
  191.4740  170.7990  141.5830 C   0  0  0  0  0  2  0  0  0  0  0  0
  193.2920  175.6510  144.4410 C   0  0  0  0  0  0  0  0  0  0  0  0
  189.7140  176.0960  144.0760 C   0  0  2  0  0  3  0  0  0  0  0  0
  194.4590  176.4510  146.5060 C   0  0  0  0  0  3  0  0  0  0  0  0
  190.2050  172.2730  139.9800 O   0  0  0  0  0  0  0  0  0  0  0  0
  193.1590  175.0580  143.0770 C   0  0  2  0  0  3  0  0  0  0  0  0
  194.7300  175.0110  141.1290 C   0  0  0  0  0  2  0  0  0  0  0  0
  191.2430  177.6690  146.3820 C   0  0  0  0  0  3  0  0  0  0  0  0
  192.2860  171.0400  140.3150 C   0  0  0  0  0  2  0  0  0  0  0  0
  193.2780  176.5100  147.1410 C   0  0  0  0  0  3  0  0  0  0  0  0
  193.9220  175.9010  142.0510 C   0  0  2  0  0  3  0  0  0  0  0  0
  189.2340  173.0740  140.6380 C   0  0  2  0  0  3  0  0  0  0  0  0
  188.8250  175.3100  141.8480 C   0  0  0  0  0  2  0  0  0  0  0  0
  191.9560  176.3570  146.4270 C   0  0  2  0  0  3  0  0  0  0  0  0
  191.6550  175.1290  142.8170 C   0  0  1  0  0  3  0  0  0  0  0  0
  195.8450  175.4610  144.6980 C   0  0  0  0  0  2  0  0  0  0  0  0
  189.1880  176.5980  145.4430 C   0  0  1  0  0  3  0  0  0  0  0  0
  195.4510  175.8100  142.1960 C   0  0  1  0  0  3  0  0  0  0  0  0
  189.8570  174.3400  141.2400 C   0  0  1  0  0  3  0  0  0  0  0  0
  191.0510  173.9220  142.1080 C   0  0  1  0  0  3  0  0  0  0  0  0
  189.9870  177.7740  145.9380 C   0  0  0  0  0  3  0  0  0  0  0  0
  186.8030  176.3800  146.2770 C   0  0  0  0  0  3  0  0  0  0  0  0
  187.7350  176.9840  145.4180 C   0  0  0  0  0  0  0  0  0  0  0  0
  187.3080  177.9700  144.5200 C   0  0  0  0  0  3  0  0  0  0  0  0
  185.5560  179.3050  143.6110 F   0  0  0  0  0  0  0  0  0  0  0  0
  185.0400  177.7460  145.3380 C   0  0  0  0  0  3  0  0  0  0  0  0
  185.9630  178.3510  144.4810 C   0  0  0  0  0  0  0  0  0  0  0  0
  185.4600  176.7610  146.2360 C   0  0  0  0  0  3  0  0  0  0  0  0
  188.4360  172.2610  141.6590 C   0  0  0  0  0  2  0  0  0  0  0  0
  186.9530  172.5330  141.5010 C   0  0  0  0  0  1  0  0  0  0  0  0
  1 27  1  0  0  0  0
  2 23  1  0  0  0  0
  3 21  1  0  0  0  0
  4  1  1  0  0  0  0
  4  8  1  0  0  0  0
  6 23  1  1  0  0  0
  6 11  1  0  0  0  0
  7  3  1  1  0  0  0
  9  6  1  0  0  0  0
  9  3  2  0  0  0  0
 10  5  1  1  0  0  0
 10  7  1  0  0  0  0
 10 24  1  0  0  0  0
 11 17  2  0  0  0  0
 12 19  1  0  0  0  0
 12  4  1  0  0  0  0
 13  9  1  1  0  0  0
 14 25  1  0  0  0  0
 16  4  1  0  0  0  0
 16  8  1  0  0  0  0
 18 14  1  6  0  0  0
 18 25  1  0  0  0  0
 18 13  1  0  0  0  0
 19 26  1  0  0  0  0
 19 36  1  1  0  0  0
 20  5  1  0  0  0  0
 21 15  1  6  0  0  0
 21 17  1  0  0  0  0
 22 13  1  0  0  0  0
 22  7  1  0  0  0  0
 24 28  1  0  0  0  0
 25  2  1  0  0  0  0
 26 20  1  0  0  0  0
 26 27  1  0  0  0  0
 27 22  1  0  0  0  0
 28 15  2  0  0  0  0
 30 24  1  0  0  0  0
 30 29  2  0  0  0  0
 31 30  1  0  0  0  0
 32 34  1  0  0  0  0
 33 35  2  0  0  0  0
 34 31  2  0  0  0  0
 34 33  1  0  0  0  0
 35 29  1  0  0  0  0
 37 36  1  0  0  0  0
M  END
>  <MODEL>
6

>  <REMARK>
 VINA RESULT:      -8.6      2.109      5.550
  Name = 
  2 active torsions:
  status: ('A' for Active; 'I' for Inactive)
    1  A    between atoms: C_6  and  C_31
    2  A    between atoms: C_11  and  C_26
                            x       y       z     vdW  Elec       q    Type
                         _______ _______ _______ _____ _____    ______ ____

>  <TORSDO>
F 2

$$$$
=
 OpenBabel11052420063D

 37 45  0  0  1  0  0  0  0  0999 V2000
  192.9310  172.8780  140.0320 O   0  0  0  0  0  0  0  0  0  0  0  0
  197.5020  173.3560  140.9730 C   0  0  0  0  0  2  0  0  0  0  0  0
  194.5960  174.1530  144.0350 C   0  0  0  0  0  0  0  0  0  0  0  0
  191.9480  172.0160  139.5040 C   0  0  0  0  0  0  0  0  0  0  0  0
  190.7840  174.4950  143.4840 C   0  0  0  0  0  2  0  0  0  0  0  0
  196.9830  174.3000  143.3390 C   0  0  1  0  0  3  0  0  0  0  0  0
  193.2120  174.0190  143.4910 C   0  0  1  0  0  3  0  0  0  0  0  0
  192.0320  170.5410  139.8250 C   0  0  0  0  0  2  0  0  0  0  0  0
  195.5100  174.0560  143.0760 C   0  0  0  0  0  0  0  0  0  0  0  0
  192.1370  174.9900  144.0160 C   0  0  2  0  0  3  0  0  0  0  0  0
  197.3410  174.0530  144.7820 C   0  0  0  0  0  3  0  0  0  0  0  0
  190.6900  172.5660  139.1520 O   0  0  0  0  0  0  0  0  0  0  0  0
  194.8860  173.9260  141.7240 C   0  0  2  0  0  3  0  0  0  0  0  0
  195.8110  174.2980  139.4280 C   0  0  0  0  0  2  0  0  0  0  0  0
  194.5310  175.6040  146.0220 C   0  0  0  0  0  3  0  0  0  0  0  0
  192.4910  171.0640  138.4680 C   0  0  0  0  0  2  0  0  0  0  0  0
  196.4210  174.0480  145.7590 C   0  0  0  0  0  3  0  0  0  0  0  0
  195.4870  174.9500  140.7580 C   0  0  2  0  0  3  0  0  0  0  0  0
  190.1230  173.2320  140.2710 C   0  0  2  0  0  3  0  0  0  0  0  0
  190.5250  175.0250  142.0750 C   0  0  0  0  0  2  0  0  0  0  0  0
  194.9500  174.2700  145.4970 C   0  0  2  0  0  3  0  0  0  0  0  0
  193.4160  174.2410  141.9940 C   0  0  1  0  0  3  0  0  0  0  0  0
  197.9410  173.5120  142.4330 C   0  0  0  0  0  2  0  0  0  0  0  0
  192.1240  175.1080  145.5600 C   0  0  1  0  0  3  0  0  0  0  0  0
  196.9450  174.6480  140.3710 C   0  0  1  0  0  3  0  0  0  0  0  0
  191.1300  174.1760  140.9390 C   0  0  1  0  0  3  0  0  0  0  0  0
  192.4090  173.3830  141.2360 C   0  0  1  0  0  3  0  0  0  0  0  0
  193.2490  175.9800  146.0520 C   0  0  0  0  0  3  0  0  0  0  0  0
  190.4220  176.9640  145.8550 C   0  0  0  0  0  3  0  0  0  0  0  0
  190.8300  175.6440  146.1070 C   0  0  0  0  0  0  0  0  0  0  0  0
  190.0180  174.8050  146.8790 C   0  0  0  0  0  3  0  0  0  0  0  0
  188.0250  174.4630  148.1420 F   0  0  0  0  0  0  0  0  0  0  0  0
  188.4050  176.5930  147.1420 C   0  0  0  0  0  3  0  0  0  0  0  0
  188.8080  175.2790  147.3950 C   0  0  0  0  0  0  0  0  0  0  0  0
  189.2130  177.4350  146.3720 C   0  0  0  0  0  3  0  0  0  0  0  0
  189.4940  172.2420  141.2520 C   0  0  0  0  0  2  0  0  0  0  0  0
  188.0750  172.6610  141.5820 C   0  0  0  0  0  1  0  0  0  0  0  0
  1 27  1  0  0  0  0
  2 23  1  0  0  0  0
  3 21  1  0  0  0  0
  4  8  1  0  0  0  0
  4  1  1  0  0  0  0
  6 23  1  6  0  0  0
  6 11  1  0  0  0  0
  7 10  1  0  0  0  0
  7  3  1  1  0  0  0
  9  6  1  0  0  0  0
  9  3  2  0  0  0  0
 10  5  1  1  0  0  0
 10 24  1  0  0  0  0
 11 17  2  0  0  0  0
 12  4  1  0  0  0  0
 12 19  1  0  0  0  0
 13 22  1  0  0  0  0
 13  9  1  1  0  0  0
 14 25  1  0  0  0  0
 15 28  2  0  0  0  0
 16  4  1  0  0  0  0
 16  8  1  0  0  0  0
 18 14  1  6  0  0  0
 18 13  1  0  0  0  0
 19 26  1  0  0  0  0
 19 36  1  1  0  0  0
 20  5  1  0  0  0  0
 21 17  1  6  0  0  0
 21 15  1  0  0  0  0
 22  7  1  0  0  0  0
 24 28  1  0  0  0  0
 24 30  1  0  0  0  0
 25 18  1  0  0  0  0
 25  2  1  0  0  0  0
 26 27  1  0  0  0  0
 26 20  1  0  0  0  0
 27 22  1  0  0  0  0
 29 30  2  0  0  0  0
 29 35  1  0  0  0  0
 30 31  1  0  0  0  0
 31 34  2  0  0  0  0
 33 34  1  0  0  0  0
 34 32  1  0  0  0  0
 35 33  2  0  0  0  0
 36 37  1  0  0  0  0
M  END
>  <MODEL>
7

>  <REMARK>
 VINA RESULT:      -8.4      2.831      6.678
  Name = 
  2 active torsions:
  status: ('A' for Active; 'I' for Inactive)
    1  A    between atoms: C_6  and  C_31
    2  A    between atoms: C_11  and  C_26
                            x       y       z     vdW  Elec       q    Type
                         _______ _______ _______ _____ _____    ______ ____

>  <TORSDO>
F 2

$$$$
=
 OpenBabel11052420063D

 37 45  0  0  1  0  0  0  0  0999 V2000
  188.6720  174.9450  143.4880 O   0  0  0  0  0  0  0  0  0  0  0  0
  190.4130  176.7800  147.4390 C   0  0  0  0  0  2  0  0  0  0  0  0
  193.0810  175.3200  144.4040 C   0  0  0  0  0  0  0  0  0  0  0  0
  187.7770  175.1530  142.4190 C   0  0  0  0  0  0  0  0  0  0  0  0
  192.0570  173.1880  141.3460 C   0  0  0  0  0  2  0  0  0  0  0  0
  192.8370  176.1530  146.7400 C   0  0  1  0  0  3  0  0  0  0  0  0
  192.3110  174.7080  143.2810 C   0  0  1  0  0  3  0  0  0  0  0  0
  187.6810  176.5350  141.8140 C   0  0  0  0  0  2  0  0  0  0  0  0
  192.2890  175.6460  145.4200 C   0  0  0  0  0  0  0  0  0  0  0  0
  192.9120  173.4690  142.5910 C   0  0  2  0  0  3  0  0  0  0  0  0
  194.1900  176.7930  146.5740 C   0  0  0  0  0  3  0  0  0  0  0  0
  187.3990  174.0370  141.6310 O   0  0  0  0  0  0  0  0  0  0  0  0
  190.8740  175.2300  145.1770 C   0  0  2  0  0  3  0  0  0  0  0  0
  188.9480  174.9080  146.7440 C   0  0  0  0  0  2  0  0  0  0  0  0
  195.3590  174.3890  144.4070 C   0  0  0  0  0  3  0  0  0  0  0  0
  186.6140  176.0410  142.7850 C   0  0  0  0  0  2  0  0  0  0  0  0
  194.9700  176.5570  145.5070 C   0  0  0  0  0  3  0  0  0  0  0  0
  190.3390  174.4350  146.3710 C   0  0  2  0  0  3  0  0  0  0  0  0
  188.5570  173.4020  141.1060 C   0  0  2  0  0  3  0  0  0  0  0  0
  190.8310  172.3510  141.7040 C   0  0  0  0  0  2  0  0  0  0  0  0
  194.5540  175.6470  144.3760 C   0  0  2  0  0  3  0  0  0  0  0  0
  190.9870  174.3350  143.9440 C   0  0  1  0  0  3  0  0  0  0  0  0
  191.9080  177.1100  147.5010 C   0  0  0  0  0  2  0  0  0  0  0  0
  194.4050  173.6420  142.2200 C   0  0  1  0  0  3  0  0  0  0  0  0
  190.1170  175.2910  147.6300 C   0  0  1  0  0  3  0  0  0  0  0  0
  189.6120  173.1590  142.1920 C   0  0  1  0  0  3  0  0  0  0  0  0
  189.8720  174.4870  142.9160 C   0  0  1  0  0  3  0  0  0  0  0  0
  195.2910  173.4830  143.4270 C   0  0  0  0  0  3  0  0  0  0  0  0
  194.9330  171.3020  141.3950 C   0  0  0  0  0  3  0  0  0  0  0  0
  194.8710  172.6850  141.1570 C   0  0  0  0  0  0  0  0  0  0  0  0
  195.2440  173.1880  139.9050 C   0  0  0  0  0  3  0  0  0  0  0  0
  196.0370  172.8100  137.6890 F   0  0  0  0  0  0  0  0  0  0  0  0
  195.7370  170.9430  139.1400 C   0  0  0  0  0  3  0  0  0  0  0  0
  195.6760  172.3180  138.8990 C   0  0  0  0  0  0  0  0  0  0  0  0
  195.3650  170.4360  140.3890 C   0  0  0  0  0  3  0  0  0  0  0  0
  189.1110  174.1580  139.8970 C   0  0  0  0  0  2  0  0  0  0  0  0
  188.3120  173.8160  138.6550 C   0  0  0  0  0  1  0  0  0  0  0  0
  2 23  1  0  0  0  0
  2 25  1  0  0  0  0
  3  9  2  0  0  0  0
  4 16  1  0  0  0  0
  4  1  1  0  0  0  0
  5 20  1  0  0  0  0
  6 11  1  6  0  0  0
  6 23  1  0  0  0  0
  7 22  1  0  0  0  0
  7  3  1  1  0  0  0
  8  4  1  0  0  0  0
  8 16  1  0  0  0  0
  9  6  1  0  0  0  0
 10  5  1  6  0  0  0
 10  7  1  0  0  0  0
 12  4  1  0  0  0  0
 13  9  1  1  0  0  0
 13 18  1  0  0  0  0
 14 25  1  0  0  0  0
 17 11  2  0  0  0  0
 18 14  1  6  0  0  0
 18 25  1  0  0  0  0
 19 36  1  6  0  0  0
 19 12  1  0  0  0  0
 19 26  1  0  0  0  0
 20 26  1  0  0  0  0
 21  3  1  0  0  0  0
 21 15  1  1  0  0  0
 21 17  1  0  0  0  0
 22 13  1  0  0  0  0
 24 10  1  0  0  0  0
 24 28  1  0  0  0  0
 26 27  1  0  0  0  0
 27  1  1  0  0  0  0
 27 22  1  0  0  0  0
 28 15  2  0  0  0  0
 30 29  1  0  0  0  0
 30 24  1  0  0  0  0
 31 30  2  0  0  0  0
 32 34  1  0  0  0  0
 33 35  1  0  0  0  0
 34 33  2  0  0  0  0
 34 31  1  0  0  0  0
 35 29  2  0  0  0  0
 37 36  1  0  0  0  0
M  END
>  <MODEL>
8

>  <REMARK>
 VINA RESULT:      -8.4      3.530      8.766
  Name = 
  2 active torsions:
  status: ('A' for Active; 'I' for Inactive)
    1  A    between atoms: C_6  and  C_31
    2  A    between atoms: C_11  and  C_26
                            x       y       z     vdW  Elec       q    Type
                         _______ _______ _______ _____ _____    ______ ____

>  <TORSDO>
F 2

$$$$
=
 OpenBabel11052420063D

 37 45  0  0  1  0  0  0  0  0999 V2000
  194.8420  173.6590  142.9010 O   0  0  0  0  0  0  0  0  0  0  0  0
  193.3750  171.0460  139.2910 C   0  0  0  0  0  2  0  0  0  0  0  0
  190.6520  173.7580  141.2130 C   0  0  0  0  0  0  0  0  0  0  0  0
  195.8400  174.5490  143.3470 C   0  0  0  0  0  0  0  0  0  0  0  0
  191.2800  175.5770  144.5660 C   0  0  0  0  0  2  0  0  0  0  0  0
  190.9340  171.8900  139.5880 C   0  0  1  0  0  3  0  0  0  0  0  0
  191.3070  174.4180  142.3810 C   0  0  1  0  0  3  0  0  0  0  0  0
  196.3610  175.5930  142.3860 C   0  0  0  0  0  2  0  0  0  0  0  0
  191.4220  172.8080  140.6910 C   0  0  0  0  0  0  0  0  0  0  0  0
  190.4420  174.6990  143.6240 C   0  0  2  0  0  3  0  0  0  0  0  0
  189.8280  172.5220  138.7830 C   0  0  0  0  0  3  0  0  0  0  0  0
  195.9540  174.7890  144.7400 O   0  0  0  0  0  0  0  0  0  0  0  0
  192.6800  172.6210  141.4750 C   0  0  2  0  0  3  0  0  0  0  0  0
  194.3140  170.7260  141.5610 C   0  0  0  0  0  2  0  0  0  0  0  0
  188.2120  173.8240  141.5290 C   0  0  0  0  0  3  0  0  0  0  0  0
  197.1710  174.3320  142.6720 C   0  0  0  0  0  2  0  0  0  0  0  0
  189.0980  173.5490  139.2480 C   0  0  0  0  0  3  0  0  0  0  0  0
  192.8790  171.1420  141.8200 C   0  0  2  0  0  3  0  0  0  0  0  0
  194.7110  175.2420  145.2560 C   0  0  2  0  0  3  0  0  0  0  0  0
  192.1950  174.7200  145.4390 C   0  0  0  0  0  2  0  0  0  0  0  0
  189.3330  174.1700  140.6050 C   0  0  2  0  0  3  0  0  0  0  0  0
  192.4200  173.4360  142.7410 C   0  0  1  0  0  3  0  0  0  0  0  0
  192.0290  171.3810  138.6390 C   0  0  0  0  0  2  0  0  0  0  0  0
  189.0890  175.3710  143.2860 C   0  0  1  0  0  3  0  0  0  0  0  0
  193.2310  170.2700  140.6030 C   0  0  1  0  0  3  0  0  0  0  0  0
  193.5480  174.3520  144.7980 C   0  0  1  0  0  3  0  0  0  0  0  0
  193.6100  174.2280  143.2700 C   0  0  1  0  0  3  0  0  0  0  0  0
  188.1020  174.3710  142.7430 C   0  0  0  0  0  3  0  0  0  0  0  0
  188.6000  175.5770  145.7660 C   0  0  0  0  0  3  0  0  0  0  0  0
  188.4610  176.0710  144.4590 C   0  0  0  0  0  0  0  0  0  0  0  0
  187.7270  177.2430  144.2390 C   0  0  0  0  0  3  0  0  0  0  0  0
  186.4280  179.0490  145.0950 F   0  0  0  0  0  0  0  0  0  0  0  0
  187.2780  177.4190  146.6120 C   0  0  0  0  0  3  0  0  0  0  0  0
  187.1380  177.9160  145.3130 C   0  0  0  0  0  0  0  0  0  0  0  0
  188.0100  176.2500  146.8380 C   0  0  0  0  0  3  0  0  0  0  0  0
  194.4830  176.7230  144.9480 C   0  0  0  0  0  2  0  0  0  0  0  0
  194.5660  177.5410  146.2220 C   0  0  0  0  0  1  0  0  0  0  0  0
  1 27  1  0  0  0  0
  1  4  1  0  0  0  0
  2 25  1  0  0  0  0
  4 12  1  0  0  0  0
  5 20  1  0  0  0  0
  6 23  1  6  0  0  0
  6  9  1  0  0  0  0
  7  3  1  6  0  0  0
  7 22  1  0  0  0  0
  7 10  1  0  0  0  0
  8 16  1  0  0  0  0
  8  4  1  0  0  0  0
  9  3  2  0  0  0  0
 10  5  1  1  0  0  0
 11 17  2  0  0  0  0
 11  6  1  0  0  0  0
 12 19  1  0  0  0  0
 13  9  1  6  0  0  0
 13 18  1  0  0  0  0
 13 22  1  0  0  0  0
 15 28  2  0  0  0  0
 16  4  1  0  0  0  0
 18 14  1  1  0  0  0
 19 36  1  6  0  0  0
 21 17  1  6  0  0  0
 21  3  1  0  0  0  0
 21 15  1  0  0  0  0
 22 27  1  0  0  0  0
 23  2  1  0  0  0  0
 24 10  1  0  0  0  0
 24 30  1  0  0  0  0
 25 14  1  0  0  0  0
 25 18  1  0  0  0  0
 26 19  1  0  0  0  0
 26 20  1  0  0  0  0
 27 26  1  0  0  0  0
 28 24  1  0  0  0  0
 29 35  1  0  0  0  0
 30 29  2  0  0  0  0
 31 30  1  0  0  0  0
 31 34  2  0  0  0  0
 32 34  1  0  0  0  0
 33 35  2  0  0  0  0
 34 33  1  0  0  0  0
 36 37  1  0  0  0  0
M  END
>  <MODEL>
9

>  <REMARK>
 VINA RESULT:      -8.4      1.979      3.278
  Name = 
  2 active torsions:
  status: ('A' for Active; 'I' for Inactive)
    1  A    between atoms: C_6  and  C_31
    2  A    between atoms: C_11  and  C_26
                            x       y       z     vdW  Elec       q    Type
                         _______ _______ _______ _____ _____    ______ ____

>  <TORSDO>
F 2

$$$$
