=
 OpenBabel11052420173D

 34 37  0  0  1  0  0  0  0  0999 V2000
  183.7240  178.7010  145.8460 N   0  0  0  0  0  1  0  0  0  0  0  0
  186.7150  177.5890  147.0920 C   0  0  0  0  0  0  0  0  0  0  0  0
  186.4740  178.6500  147.7780 N   0  0  0  0  0  0  0  0  0  0  0  0
  184.4080  178.0110  146.9320 C   0  0  1  0  0  3  0  0  0  0  0  0
  185.4920  177.0250  146.4410 C   0  0  1  0  0  3  0  0  0  0  0  0
  185.1390  178.9480  147.7050 O   0  0  0  0  0  0  0  0  0  0  0  0
  185.6580  176.9980  144.9220 C   0  0  0  0  0  2  0  0  0  0  0  0
  186.3220  178.1610  144.4830 O   0  0  0  0  0  0  0  0  0  0  0  0
  186.8220  177.6140  140.8010 C   0  0  0  0  0  2  0  0  0  0  0  0
  188.9470  174.5390  141.3480 C   0  0  0  0  0  3  0  0  0  0  0  0
  187.4250  176.2640  140.4170 C   0  0  0  0  0  2  0  0  0  0  0  0
  188.5250  175.8070  141.3330 C   0  0  0  0  0  0  0  0  0  0  0  0
  189.1080  176.7360  142.3510 C   0  0  0  0  0  2  0  0  0  0  0  0
  186.1020  177.5210  142.1360 C   0  0  0  0  0  2  0  0  0  0  0  0
  188.1740  176.8510  143.5470 C   0  0  0  0  0  2  0  0  0  0  0  0
  187.0390  177.8590  143.3040 C   0  0  2  0  0  3  0  0  0  0  0  0
  189.0700  172.3350  140.4050 O   0  0  0  0  0  0  0  0  0  0  0  0
  188.4740  173.4440  140.4840 C   0  0  0  0  0  3  0  0  0  0  0  0
  188.0740  176.9700  147.0390 C   0  0  0  0  0  2  0  0  0  0  0  0
  187.9490  175.5830  146.9470 O   0  0  0  0  0  0  0  0  0  0  0  0
  189.2250  175.0720  147.2330 C   0  0  0  0  0  2  0  0  0  0  0  0
  191.3100  174.3250  144.2170 C   0  0  0  0  0  2  0  0  0  0  0  0
  191.4730  175.6280  146.7270 C   0  0  0  0  0  2  0  0  0  0  0  0
  194.5830  176.2000  144.0210 C   0  0  1  0  0  3  0  0  0  0  0  0
  193.6240  175.0510  143.6970 C   0  0  0  0  0  2  0  0  0  0  0  0
  192.6350  174.7670  144.8330 C   0  0  1  0  0  3  0  0  0  0  0  0
  193.6870  176.2760  146.3890 C   0  0  0  0  0  2  0  0  0  0  0  0
  192.4410  175.9570  145.6800 N   0  0  2  0  0  0  0  0  0  0  0  0
  194.9370  176.2190  145.5050 C   0  0  0  0  0  2  0  0  0  0  0  0
  190.1700  175.3220  146.1410 N   0  0  0  0  0  0  0  0  0  0  0  0
  190.2860  174.1100  145.3220 C   0  0  0  0  0  2  0  0  0  0  0  0
  195.7900  176.0920  143.2180 N   0  0  0  0  0  0  0  0  0  0  0  0
  196.8600  176.9190  143.4630 O   0  0  0  0  0  0  0  0  0  0  0  0
  195.7930  175.3610  142.2090 O   0  0  0  0  0  0  0  0  0  0  0  0
  2  3  2  0  0  0  0
  4  1  1  6  0  0  0
  4  6  1  0  0  0  0
  5  7  1  6  0  0  0
  5  4  1  0  0  0  0
  5  2  1  0  0  0  0
  6  3  1  0  0  0  0
  8  7  1  0  0  0  0
  9 14  1  0  0  0  0
 11  9  1  0  0  0  0
 11 12  1  0  0  0  0
 12 10  2  0  0  0  0
 12 13  1  0  0  0  0
 13 15  1  0  0  0  0
 14 16  1  0  0  0  0
 16 15  1  0  0  0  0
 16  8  1  1  0  0  0
 17 18  2  0  0  0  0
 18 10  1  0  0  0  0
 19  2  1  0  0  0  0
 20 19  1  0  0  0  0
 20 21  1  0  0  0  0
 22 26  1  0  0  0  0
 22 31  1  0  0  0  0
 24 32  1  6  0  0  0
 24 29  1  0  0  0  0
 25 24  1  0  0  0  0
 26 25  1  6  0  0  0
 26 28  1  0  0  0  0
 28 27  1  1  0  0  0
 28 23  1  0  0  0  0
 29 27  1  0  0  0  0
 30 23  1  0  0  0  0
 30 21  1  0  0  0  0
 31 30  1  0  0  0  0
 32 33  2  0  0  0  0
 34 32  2  0  0  0  0
M  END
>  <MODEL>
1

>  <REMARK>
 VINA RESULT:      -7.2      0.000      0.000
  Name = 
  9 active torsions:
  status: ('A' for Active; 'I' for Inactive)
    1  A    between atoms: C_1  and  O_9
    2  A    between atoms: C_1  and  C_20
    3  A    between atoms: C_3  and  C_24
    4  A    between atoms: C_7  and  N_11
    5  A    between atoms: C_8  and  C_10
    6  A    between atoms: C_8  and  O_17
    7  A    between atoms: O_9  and  C_34
    8  A    between atoms: O_17  and  C_18
    9  A    between atoms: C_18  and  N_30
                            x       y       z     vdW  Elec       q    Type
                         _______ _______ _______ _____ _____    ______ ____

>  <TORSDO>
F 9

$$$$
=
 OpenBabel11052420173D

 34 37  0  0  1  0  0  0  0  0999 V2000
  184.0560  178.1920  146.5160 N   0  0  0  0  0  1  0  0  0  0  0  0
  185.8890  178.3230  143.6240 C   0  0  0  0  0  0  0  0  0  0  0  0
  184.6850  178.5520  143.2350 N   0  0  0  0  0  0  0  0  0  0  0  0
  184.6720  179.0400  145.5050 C   0  0  1  0  0  3  0  0  0  0  0  0
  186.0830  178.5660  145.0880 C   0  0  1  0  0  3  0  0  0  0  0  0
  183.9280  178.9610  144.3010 O   0  0  0  0  0  0  0  0  0  0  0  0
  186.5340  177.2840  145.7880 C   0  0  0  0  0  2  0  0  0  0  0  0
  187.7320  177.5090  146.4950 O   0  0  0  0  0  0  0  0  0  0  0  0
  189.9430  174.5530  145.7980 C   0  0  0  0  0  2  0  0  0  0  0  0
  193.0680  176.6720  145.6830 C   0  0  0  0  0  3  0  0  0  0  0  0
  191.4420  174.8130  145.9310 C   0  0  0  0  0  2  0  0  0  0  0  0
  191.8800  176.1420  145.3790 C   0  0  0  0  0  0  0  0  0  0  0  0
  190.9440  176.9770  144.5620 C   0  0  0  0  0  2  0  0  0  0  0  0
  189.1500  175.5270  146.6550 C   0  0  0  0  0  2  0  0  0  0  0  0
  189.9540  177.6910  145.4710 C   0  0  0  0  0  2  0  0  0  0  0  0
  188.7740  176.7900  145.8680 C   0  0  2  0  0  3  0  0  0  0  0  0
  195.0200  175.3210  146.0380 O   0  0  0  0  0  0  0  0  0  0  0  0
  194.1180  176.0610  146.5170 C   0  0  0  0  0  3  0  0  0  0  0  0
  186.9710  177.9310  142.6720 C   0  0  0  0  0  2  0  0  0  0  0  0
  186.9230  176.5520  142.4570 O   0  0  0  0  0  0  0  0  0  0  0  0
  187.5890  176.3400  141.2390 C   0  0  0  0  0  2  0  0  0  0  0  0
  188.1690  172.7300  142.0340 C   0  0  0  0  0  2  0  0  0  0  0  0
  189.5830  175.1700  141.7620 C   0  0  0  0  0  2  0  0  0  0  0  0
  191.7900  171.6560  142.0760 C   0  0  1  0  0  3  0  0  0  0  0  0
  190.3080  171.5450  142.4460 C   0  0  0  0  0  2  0  0  0  0  0  0
  189.6090  172.9070  142.5080 C   0  0  1  0  0  3  0  0  0  0  0  0
  191.6380  174.1790  142.2400 C   0  0  0  0  0  2  0  0  0  0  0  0
  190.3090  173.9030  141.6770 N   0  0  2  0  0  0  0  0  0  0  0  0
  192.4080  172.9230  142.6590 C   0  0  0  0  0  2  0  0  0  0  0  0
  188.2430  175.0300  141.1960 N   0  0  0  0  0  0  0  0  0  0  0  0
  187.4740  174.0840  142.0130 C   0  0  0  0  0  2  0  0  0  0  0  0
  192.5150  170.4840  142.5390 N   0  0  0  0  0  0  0  0  0  0  0  0
  192.3210  170.0090  143.8140 O   0  0  0  0  0  0  0  0  0  0  0  0
  193.4270  170.0080  141.8350 O   0  0  0  0  0  0  0  0  0  0  0  0
  2  5  1  0  0  0  0
  3  2  2  0  0  0  0
  3  6  1  0  0  0  0
  4  1  1  1  0  0  0
  5  4  1  0  0  0  0
  5  7  1  1  0  0  0
  6  4  1  0  0  0  0
  7  8  1  0  0  0  0
  9 11  1  0  0  0  0
  9 14  1  0  0  0  0
 10 18  1  0  0  0  0
 12 10  2  0  0  0  0
 12 11  1  0  0  0  0
 13 12  1  0  0  0  0
 13 15  1  0  0  0  0
 15 16  1  0  0  0  0
 16  8  1  1  0  0  0
 16 14  1  0  0  0  0
 17 18  2  0  0  0  0
 19  2  1  0  0  0  0
 20 19  1  0  0  0  0
 21 20  1  0  0  0  0
 24 25  1  0  0  0  0
 24 32  1  1  0  0  0
 24 29  1  0  0  0  0
 25 26  1  0  0  0  0
 26 22  1  6  0  0  0
 27 29  1  0  0  0  0
 28 23  1  1  0  0  0
 28 27  1  0  0  0  0
 28 26  1  0  0  0  0
 30 21  1  0  0  0  0
 30 23  1  0  0  0  0
 30 31  1  0  0  0  0
 31 22  1  0  0  0  0
 32 33  2  0  0  0  0
 34 32  2  0  0  0  0
M  END
>  <MODEL>
2

>  <REMARK>
 VINA RESULT:      -7.0      2.752      5.179
  Name = 
  9 active torsions:
  status: ('A' for Active; 'I' for Inactive)
    1  A    between atoms: C_1  and  O_9
    2  A    between atoms: C_1  and  C_20
    3  A    between atoms: C_3  and  C_24
    4  A    between atoms: C_7  and  N_11
    5  A    between atoms: C_8  and  C_10
    6  A    between atoms: C_8  and  O_17
    7  A    between atoms: O_9  and  C_34
    8  A    between atoms: O_17  and  C_18
    9  A    between atoms: C_18  and  N_30
                            x       y       z     vdW  Elec       q    Type
                         _______ _______ _______ _____ _____    ______ ____

>  <TORSDO>
F 9

$$$$
=
 OpenBabel11052420173D

 34 37  0  0  1  0  0  0  0  0999 V2000
  186.0460  178.1860  141.0770 N   0  0  0  0  0  1  0  0  0  0  0  0
  185.7270  177.7550  144.4600 C   0  0  0  0  0  0  0  0  0  0  0  0
  185.4370  178.9940  144.2810 N   0  0  0  0  0  0  0  0  0  0  0  0
  185.1340  178.0120  142.1990 C   0  0  1  0  0  3  0  0  0  0  0  0
  185.6090  176.9420  143.2100 C   0  0  1  0  0  3  0  0  0  0  0  0
  185.0960  179.2010  142.9700 O   0  0  0  0  0  0  0  0  0  0  0  0
  186.9540  176.3110  142.8520 C   0  0  0  0  0  2  0  0  0  0  0  0
  186.7760  174.9680  142.4650 O   0  0  0  0  0  0  0  0  0  0  0  0
  189.0770  172.4780  140.8480 C   0  0  0  0  0  2  0  0  0  0  0  0
  191.8770  173.1940  143.2800 C   0  0  0  0  0  3  0  0  0  0  0  0
  190.3370  172.1420  141.6420 C   0  0  0  0  0  2  0  0  0  0  0  0
  190.9720  173.3320  142.3060 C   0  0  0  0  0  0  0  0  0  0  0  0
  190.5230  174.7210  141.9790 C   0  0  0  0  0  2  0  0  0  0  0  0
  187.9670  172.9510  141.7740 C   0  0  0  0  0  2  0  0  0  0  0  0
  189.2180  175.0290  142.6980 C   0  0  0  0  0  2  0  0  0  0  0  0
  187.9950  174.4760  141.9480 C   0  0  2  0  0  3  0  0  0  0  0  0
  193.6230  171.5880  143.6500 O   0  0  0  0  0  0  0  0  0  0  0  0
  192.4180  171.9280  143.8060 C   0  0  0  0  0  3  0  0  0  0  0  0
  186.0680  177.2050  145.8070 C   0  0  0  0  0  2  0  0  0  0  0  0
  187.1420  177.9200  146.3420 O   0  0  0  0  0  0  0  0  0  0  0  0
  188.0250  176.9500  146.8420 C   0  0  0  0  0  2  0  0  0  0  0  0
  190.8840  177.7700  144.5710 C   0  0  0  0  0  2  0  0  0  0  0  0
  190.1930  176.0060  146.6770 C   0  0  0  0  0  2  0  0  0  0  0  0
  194.1800  176.1760  145.4970 C   0  0  1  0  0  3  0  0  0  0  0  0
  193.1760  176.8250  144.5390 C   0  0  0  0  0  2  0  0  0  0  0  0
  191.7200  176.5450  144.9290 C   0  0  1  0  0  3  0  0  0  0  0  0
  192.2820  174.9730  146.6670 C   0  0  0  0  0  2  0  0  0  0  0  0
  191.6030  176.2400  146.3660 N   0  0  2  0  0  0  0  0  0  0  0  0
  193.6610  174.8370  146.0130 C   0  0  0  0  0  2  0  0  0  0  0  0
  189.4100  177.2180  146.4470 N   0  0  0  0  0  0  0  0  0  0  0  0
  189.4460  177.5480  145.0180 C   0  0  0  0  0  2  0  0  0  0  0  0
  195.4640  175.9980  144.8370 N   0  0  0  0  0  0  0  0  0  0  0  0
  196.2480  174.9080  145.1340 O   0  0  0  0  0  0  0  0  0  0  0  0
  195.9210  176.9130  144.1260 O   0  0  0  0  0  0  0  0  0  0  0  0
  2 19  1  0  0  0  0
  3  2  2  0  0  0  0
  4  1  1  6  0  0  0
  4  6  1  0  0  0  0
  4  5  1  0  0  0  0
  5  7  1  6  0  0  0
  5  2  1  0  0  0  0
  6  3  1  0  0  0  0
  8  7  1  0  0  0  0
  9 11  1  0  0  0  0
  9 14  1  0  0  0  0
 10 18  1  0  0  0  0
 11 12  1  0  0  0  0
 12 10  2  0  0  0  0
 13 12  1  0  0  0  0
 13 15  1  0  0  0  0
 14 16  1  0  0  0  0
 16  8  1  1  0  0  0
 16 15  1  0  0  0  0
 17 18  2  0  0  0  0
 19 20  1  0  0  0  0
 20 21  1  0  0  0  0
 22 26  1  0  0  0  0
 22 31  1  0  0  0  0
 24 32  1  6  0  0  0
 24 29  1  0  0  0  0
 25 24  1  0  0  0  0
 26 25  1  1  0  0  0
 26 28  1  0  0  0  0
 28 27  1  6  0  0  0
 28 23  1  0  0  0  0
 29 27  1  0  0  0  0
 30 23  1  0  0  0  0
 30 21  1  0  0  0  0
 31 30  1  0  0  0  0
 32 33  2  0  0  0  0
 34 32  2  0  0  0  0
M  END
>  <MODEL>
3

>  <REMARK>
 VINA RESULT:      -6.9      2.159      3.456
  Name = 
  9 active torsions:
  status: ('A' for Active; 'I' for Inactive)
    1  A    between atoms: C_1  and  O_9
    2  A    between atoms: C_1  and  C_20
    3  A    between atoms: C_3  and  C_24
    4  A    between atoms: C_7  and  N_11
    5  A    between atoms: C_8  and  C_10
    6  A    between atoms: C_8  and  O_17
    7  A    between atoms: O_9  and  C_34
    8  A    between atoms: O_17  and  C_18
    9  A    between atoms: C_18  and  N_30
                            x       y       z     vdW  Elec       q    Type
                         _______ _______ _______ _____ _____    ______ ____

>  <TORSDO>
F 9

$$$$
=
 OpenBabel11052420173D

 34 37  0  0  1  0  0  0  0  0999 V2000
  183.6530  179.0370  145.8610 N   0  0  0  0  0  1  0  0  0  0  0  0
  186.6640  177.6460  146.7200 C   0  0  0  0  0  0  0  0  0  0  0  0
  186.4470  178.5050  147.6510 N   0  0  0  0  0  0  0  0  0  0  0  0
  184.3560  178.1000  146.7260 C   0  0  1  0  0  3  0  0  0  0  0  0
  185.4210  177.2620  145.9810 C   0  0  1  0  0  3  0  0  0  0  0  0
  185.1130  178.8160  147.6870 O   0  0  0  0  0  0  0  0  0  0  0  0
  185.5510  177.6110  144.4980 C   0  0  0  0  0  2  0  0  0  0  0  0
  185.5950  176.4360  143.7230 O   0  0  0  0  0  0  0  0  0  0  0  0
  188.4950  175.0620  141.7700 C   0  0  0  0  0  2  0  0  0  0  0  0
  190.8250  177.7970  142.9350 C   0  0  0  0  0  3  0  0  0  0  0  0
  189.8550  175.6670  142.1090 C   0  0  0  0  0  2  0  0  0  0  0  0
  189.8210  177.1530  142.3310 C   0  0  0  0  0  0  0  0  0  0  0  0
  188.6020  177.9500  141.9900 C   0  0  0  0  0  2  0  0  0  0  0  0
  187.5440  175.1820  142.9500 C   0  0  0  0  0  2  0  0  0  0  0  0
  187.5450  177.7740  143.0710 C   0  0  0  0  0  2  0  0  0  0  0  0
  186.7320  176.4830  142.8850 C   0  0  2  0  0  3  0  0  0  0  0  0
  192.9890  176.8050  142.6230 O   0  0  0  0  0  0  0  0  0  0  0  0
  192.0890  177.2090  143.4100 C   0  0  0  0  0  3  0  0  0  0  0  0
  188.0150  177.0560  146.4820 C   0  0  0  0  0  2  0  0  0  0  0  0
  187.9260  175.6630  146.5100 O   0  0  0  0  0  0  0  0  0  0  0  0
  189.1310  175.2220  147.0800 C   0  0  0  0  0  2  0  0  0  0  0  0
  191.2620  173.4860  144.5410 C   0  0  0  0  0  2  0  0  0  0  0  0
  191.4740  175.2760  146.7260 C   0  0  0  0  0  2  0  0  0  0  0  0
  194.8290  174.7090  144.3300 C   0  0  1  0  0  3  0  0  0  0  0  0
  193.7010  173.6890  144.1460 C   0  0  0  0  0  2  0  0  0  0  0  0
  192.5950  173.8330  145.1970 C   0  0  1  0  0  3  0  0  0  0  0  0
  193.7880  175.4620  146.5140 C   0  0  0  0  0  2  0  0  0  0  0  0
  192.5600  175.1990  145.7500 N   0  0  2  0  0  0  0  0  0  0  0  0
  195.0680  175.0040  145.8070 C   0  0  0  0  0  2  0  0  0  0  0  0
  190.1840  175.0620  146.0740 N   0  0  0  0  0  0  0  0  0  0  0  0
  190.1360  173.6950  145.5440 C   0  0  0  0  0  2  0  0  0  0  0  0
  196.0520  174.2280  143.7080 N   0  0  0  0  0  0  0  0  0  0  0  0
  196.7520  173.1880  144.2730 O   0  0  0  0  0  0  0  0  0  0  0  0
  196.5470  174.8610  142.7560 O   0  0  0  0  0  0  0  0  0  0  0  0
  2  3  2  0  0  0  0
  3  6  1  0  0  0  0
  4  1  1  6  0  0  0
  4  6  1  0  0  0  0
  5  7  1  6  0  0  0
  5  2  1  0  0  0  0
  5  4  1  0  0  0  0
  8  7  1  0  0  0  0
  9 11  1  0  0  0  0
  9 14  1  0  0  0  0
 10 18  1  0  0  0  0
 11 12  1  0  0  0  0
 12 10  2  0  0  0  0
 13 12  1  0  0  0  0
 13 15  1  0  0  0  0
 16 14  1  0  0  0  0
 16 15  1  0  0  0  0
 16  8  1  1  0  0  0
 17 18  2  0  0  0  0
 19 20  1  0  0  0  0
 19  2  1  0  0  0  0
 20 21  1  0  0  0  0
 22 26  1  0  0  0  0
 22 31  1  0  0  0  0
 24 32  1  1  0  0  0
 24 29  1  0  0  0  0
 25 24  1  0  0  0  0
 26 25  1  6  0  0  0
 26 28  1  0  0  0  0
 28 27  1  1  0  0  0
 28 23  1  0  0  0  0
 29 27  1  0  0  0  0
 30 23  1  0  0  0  0
 30 21  1  0  0  0  0
 31 30  1  0  0  0  0
 32 33  2  0  0  0  0
 34 32  2  0  0  0  0
M  END
>  <MODEL>
4

>  <REMARK>
 VINA RESULT:      -6.9      1.574      2.204
  Name = 
  9 active torsions:
  status: ('A' for Active; 'I' for Inactive)
    1  A    between atoms: C_1  and  O_9
    2  A    between atoms: C_1  and  C_20
    3  A    between atoms: C_3  and  C_24
    4  A    between atoms: C_7  and  N_11
    5  A    between atoms: C_8  and  C_10
    6  A    between atoms: C_8  and  O_17
    7  A    between atoms: O_9  and  C_34
    8  A    between atoms: O_17  and  C_18
    9  A    between atoms: C_18  and  N_30
                            x       y       z     vdW  Elec       q    Type
                         _______ _______ _______ _____ _____    ______ ____

>  <TORSDO>
F 9

$$$$
=
 OpenBabel11052420173D

 34 37  0  0  1  0  0  0  0  0999 V2000
  193.7060  174.6120  143.4440 N   0  0  0  0  0  1  0  0  0  0  0  0
  192.0960  175.7890  146.2290 C   0  0  0  0  0  0  0  0  0  0  0  0
  193.2330  176.3890  146.2560 N   0  0  0  0  0  0  0  0  0  0  0  0
  192.9740  175.7170  144.0490 C   0  0  1  0  0  3  0  0  0  0  0  0
  191.7500  175.2580  144.8740 C   0  0  1  0  0  3  0  0  0  0  0  0
  193.7960  176.3620  145.0080 O   0  0  0  0  0  0  0  0  0  0  0  0
  191.5740  173.7410  144.9220 C   0  0  0  0  0  2  0  0  0  0  0  0
  190.2100  173.4120  145.0550 O   0  0  0  0  0  0  0  0  0  0  0  0
  190.3580  170.9960  142.1810 C   0  0  0  0  0  2  0  0  0  0  0  0
  189.2800  173.6100  139.6760 C   0  0  0  0  0  3  0  0  0  0  0  0
  190.2700  171.6260  140.7930 C   0  0  0  0  0  2  0  0  0  0  0  0
  189.2720  172.7470  140.6960 C   0  0  0  0  0  0  0  0  0  0  0  0
  188.3040  173.0070  141.8080 C   0  0  0  0  0  2  0  0  0  0  0  0
  190.9040  171.9930  143.1910 C   0  0  0  0  0  2  0  0  0  0  0  0
  189.0020  173.7400  142.9440 C   0  0  0  0  0  2  0  0  0  0  0  0
  189.7740  172.7830  143.8660 C   0  0  2  0  0  3  0  0  0  0  0  0
  190.0400  172.7610  137.5630 O   0  0  0  0  0  0  0  0  0  0  0  0
  190.1780  173.5840  138.5090 C   0  0  0  0  0  3  0  0  0  0  0  0
  191.2060  175.7180  147.4270 C   0  0  0  0  0  2  0  0  0  0  0  0
  189.8730  175.8010  147.0210 O   0  0  0  0  0  0  0  0  0  0  0  0
  189.5530  177.1670  147.0660 C   0  0  0  0  0  2  0  0  0  0  0  0
  186.3060  176.8480  145.2330 C   0  0  0  0  0  2  0  0  0  0  0  0
  189.0420  177.4120  144.7640 C   0  0  0  0  0  2  0  0  0  0  0  0
  186.3500  178.0770  141.6620 C   0  0  1  0  0  3  0  0  0  0  0  0
  185.8200  177.2460  142.8340 C   0  0  0  0  0  2  0  0  0  0  0  0
  186.9180  176.8660  143.8350 C   0  0  1  0  0  3  0  0  0  0  0  0
  188.7210  177.7070  142.4750 C   0  0  0  0  0  2  0  0  0  0  0  0
  188.0440  177.8150  143.7740 N   0  0  2  0  0  0  0  0  0  0  0  0
  187.7630  177.6500  141.2790 C   0  0  0  0  0  2  0  0  0  0  0  0
  188.4930  177.5100  146.1150 N   0  0  0  0  0  0  0  0  0  0  0  0
  187.3940  176.5490  146.2550 C   0  0  0  0  0  2  0  0  0  0  0  0
  185.4610  177.9580  140.5170 N   0  0  0  0  0  0  0  0  0  0  0  0
  185.8950  177.3440  139.3660 O   0  0  0  0  0  0  0  0  0  0  0  0
  184.3660  178.5530  140.5250 O   0  0  0  0  0  0  0  0  0  0  0  0
  2  3  2  0  0  0  0
  2 19  1  0  0  0  0
  4  1  1  1  0  0  0
  4  5  1  0  0  0  0
  4  6  1  0  0  0  0
  5  7  1  1  0  0  0
  5  2  1  0  0  0  0
  6  3  1  0  0  0  0
  7  8  1  0  0  0  0
  9 14  1  0  0  0  0
 10 12  2  0  0  0  0
 11  9  1  0  0  0  0
 12 11  1  0  0  0  0
 12 13  1  0  0  0  0
 13 15  1  0  0  0  0
 14 16  1  0  0  0  0
 15 16  1  0  0  0  0
 16  8  1  1  0  0  0
 17 18  2  0  0  0  0
 18 10  1  0  0  0  0
 20 21  1  0  0  0  0
 20 19  1  0  0  0  0
 22 31  1  0  0  0  0
 23 30  1  0  0  0  0
 24 32  1  6  0  0  0
 24 25  1  0  0  0  0
 26 25  1  6  0  0  0
 26 22  1  0  0  0  0
 28 27  1  6  0  0  0
 28 26  1  0  0  0  0
 28 23  1  0  0  0  0
 29 24  1  0  0  0  0
 29 27  1  0  0  0  0
 30 31  1  0  0  0  0
 30 21  1  0  0  0  0
 32 34  2  0  0  0  0
 33 32  2  0  0  0  0
M  END
>  <MODEL>
5

>  <REMARK>
 VINA RESULT:      -6.8      2.477      6.756
  Name = 
  9 active torsions:
  status: ('A' for Active; 'I' for Inactive)
    1  A    between atoms: C_1  and  O_9
    2  A    between atoms: C_1  and  C_20
    3  A    between atoms: C_3  and  C_24
    4  A    between atoms: C_7  and  N_11
    5  A    between atoms: C_8  and  C_10
    6  A    between atoms: C_8  and  O_17
    7  A    between atoms: O_9  and  C_34
    8  A    between atoms: O_17  and  C_18
    9  A    between atoms: C_18  and  N_30
                            x       y       z     vdW  Elec       q    Type
                         _______ _______ _______ _____ _____    ______ ____

>  <TORSDO>
F 9

$$$$
=
 OpenBabel11052420173D

 34 37  0  0  1  0  0  0  0  0999 V2000
  196.0280  174.4460  146.0580 N   0  0  0  0  0  1  0  0  0  0  0  0
  193.3080  173.8740  144.0550 C   0  0  0  0  0  0  0  0  0  0  0  0
  194.3090  173.7020  143.2680 N   0  0  0  0  0  0  0  0  0  0  0  0
  195.1890  173.4520  145.4020 C   0  0  1  0  0  3  0  0  0  0  0  0
  193.6790  173.7670  145.5010 C   0  0  1  0  0  3  0  0  0  0  0  0
  195.4390  173.4660  144.0060 O   0  0  0  0  0  0  0  0  0  0  0  0
  193.3690  175.0740  146.2310 C   0  0  0  0  0  2  0  0  0  0  0  0
  192.2290  174.9210  147.0440 O   0  0  0  0  0  0  0  0  0  0  0  0
  190.2020  177.5190  145.2410 C   0  0  0  0  0  2  0  0  0  0  0  0
  187.0420  176.6280  147.1080 C   0  0  0  0  0  3  0  0  0  0  0  0
  188.8220  177.7960  145.8320 C   0  0  0  0  0  2  0  0  0  0  0  0
  188.0990  176.5610  146.2930 C   0  0  0  0  0  0  0  0  0  0  0  0
  188.6150  175.1990  145.9500 C   0  0  0  0  0  2  0  0  0  0  0  0
  191.1450  176.9810  146.3060 C   0  0  0  0  0  2  0  0  0  0  0  0
  189.7840  174.8420  146.8560 C   0  0  0  0  0  2  0  0  0  0  0  0
  191.1080  175.4480  146.3640 C   0  0  2  0  0  3  0  0  0  0  0  0
  185.1650  178.0690  147.5140 O   0  0  0  0  0  0  0  0  0  0  0  0
  186.4030  177.8520  147.6230 C   0  0  0  0  0  3  0  0  0  0  0  0
  191.9200  174.0790  143.5430 C   0  0  0  0  0  2  0  0  0  0  0  0
  191.7790  173.4340  142.3120 O   0  0  0  0  0  0  0  0  0  0  0  0
  190.9940  174.2940  141.5270 C   0  0  0  0  0  2  0  0  0  0  0  0
  187.4100  174.3790  142.6000 C   0  0  0  0  0  2  0  0  0  0  0  0
  189.5030  176.1150  141.8050 C   0  0  0  0  0  2  0  0  0  0  0  0
  186.0540  177.8130  143.3990 C   0  0  1  0  0  3  0  0  0  0  0  0
  185.9440  176.3390  142.9950 C   0  0  0  0  0  2  0  0  0  0  0  0
  187.1750  175.8410  142.2300 C   0  0  1  0  0  3  0  0  0  0  0  0
  188.1830  178.0220  142.0420 C   0  0  0  0  0  2  0  0  0  0  0  0
  188.3630  176.6530  142.5470 N   0  0  2  0  0  0  0  0  0  0  0  0
  186.8040  178.6180  142.3420 C   0  0  0  0  0  2  0  0  0  0  0  0
  189.8040  174.7550  142.2470 N   0  0  0  0  0  0  0  0  0  0  0  0
  188.6740  173.8820  141.9120 C   0  0  0  0  0  2  0  0  0  0  0  0
  184.7320  178.3770  143.6170 N   0  0  0  0  0  0  0  0  0  0  0  0
  183.7370  178.1880  142.6870 O   0  0  0  0  0  0  0  0  0  0  0  0
  184.5480  179.1630  144.5660 O   0  0  0  0  0  0  0  0  0  0  0  0
  2  5  1  0  0  0  0
  3  6  1  0  0  0  0
  3  2  2  0  0  0  0
  4  5  1  0  0  0  0
  4  1  1  1  0  0  0
  5  7  1  1  0  0  0
  6  4  1  0  0  0  0
  7  8  1  0  0  0  0
  9 11  1  0  0  0  0
  9 14  1  0  0  0  0
 10 18  1  0  0  0  0
 11 12  1  0  0  0  0
 12 10  2  0  0  0  0
 13 12  1  0  0  0  0
 13 15  1  0  0  0  0
 14 16  1  0  0  0  0
 16 15  1  0  0  0  0
 16  8  1  1  0  0  0
 17 18  2  0  0  0  0
 19  2  1  0  0  0  0
 20 19  1  0  0  0  0
 21 30  1  0  0  0  0
 21 20  1  0  0  0  0
 23 30  1  0  0  0  0
 24 32  1  6  0  0  0
 25 24  1  0  0  0  0
 26 28  1  0  0  0  0
 26 22  1  1  0  0  0
 26 25  1  0  0  0  0
 27 29  1  0  0  0  0
 27 28  1  0  0  0  0
 28 23  1  6  0  0  0
 29 24  1  0  0  0  0
 31 30  1  0  0  0  0
 31 22  1  0  0  0  0
 32 34  2  0  0  0  0
 33 32  2  0  0  0  0
M  END
>  <MODEL>
6

>  <REMARK>
 VINA RESULT:      -6.8      2.225      8.066
  Name = 
  9 active torsions:
  status: ('A' for Active; 'I' for Inactive)
    1  A    between atoms: C_1  and  O_9
    2  A    between atoms: C_1  and  C_20
    3  A    between atoms: C_3  and  C_24
    4  A    between atoms: C_7  and  N_11
    5  A    between atoms: C_8  and  C_10
    6  A    between atoms: C_8  and  O_17
    7  A    between atoms: O_9  and  C_34
    8  A    between atoms: O_17  and  C_18
    9  A    between atoms: C_18  and  N_30
                            x       y       z     vdW  Elec       q    Type
                         _______ _______ _______ _____ _____    ______ ____

>  <TORSDO>
F 9

$$$$
=
 OpenBabel11052420173D

 34 37  0  0  1  0  0  0  0  0999 V2000
  194.7280  174.5080  140.9110 N   0  0  0  0  0  1  0  0  0  0  0  0
  194.8340  175.9920  143.9970 C   0  0  0  0  0  0  0  0  0  0  0  0
  195.9430  176.3450  143.4490 N   0  0  0  0  0  0  0  0  0  0  0  0
  194.5750  175.7390  141.6740 C   0  0  1  0  0  3  0  0  0  0  0  0
  193.8100  175.5430  143.0030 C   0  0  1  0  0  3  0  0  0  0  0  0
  195.8490  176.2020  142.0900 O   0  0  0  0  0  0  0  0  0  0  0  0
  193.4030  174.0950  143.2710 C   0  0  0  0  0  2  0  0  0  0  0  0
  192.2490  174.0530  144.0780 O   0  0  0  0  0  0  0  0  0  0  0  0
  190.7320  171.5240  141.7510 C   0  0  0  0  0  2  0  0  0  0  0  0
  188.5150  174.0940  140.0920 C   0  0  0  0  0  3  0  0  0  0  0  0
  189.9090  172.1050  140.6030 C   0  0  0  0  0  2  0  0  0  0  0  0
  189.0500  173.2730  141.0000 C   0  0  0  0  0  0  0  0  0  0  0  0
  188.8610  173.6280  142.4410 C   0  0  0  0  0  2  0  0  0  0  0  0
  191.7680  172.5290  142.2310 C   0  0  0  0  0  2  0  0  0  0  0  0
  190.0870  174.3650  142.9610 C   0  0  0  0  0  2  0  0  0  0  0  0
  191.2160  173.4040  143.3650 C   0  0  2  0  0  3  0  0  0  0  0  0
  187.8490  174.5860  137.8380 O   0  0  0  0  0  0  0  0  0  0  0  0
  188.6210  173.9750  138.6270 C   0  0  0  0  0  3  0  0  0  0  0  0
  194.6040  176.1060  145.4690 C   0  0  0  0  0  2  0  0  0  0  0  0
  193.4270  176.8200  145.7000 O   0  0  0  0  0  0  0  0  0  0  0  0
  192.8030  176.1740  146.7790 C   0  0  0  0  0  2  0  0  0  0  0  0
  189.1420  175.4820  147.1330 C   0  0  0  0  0  2  0  0  0  0  0  0
  190.9520  176.9410  145.5140 C   0  0  0  0  0  2  0  0  0  0  0  0
  186.8830  177.6890  145.0620 C   0  0  1  0  0  3  0  0  0  0  0  0
  187.2430  176.4250  145.8480 C   0  0  0  0  0  2  0  0  0  0  0  0
  188.7400  176.1020  145.7970 C   0  0  1  0  0  3  0  0  0  0  0  0
  189.2530  177.8070  144.1730 C   0  0  0  0  0  2  0  0  0  0  0  0
  189.5370  177.3120  145.5270 N   0  0  2  0  0  0  0  0  0  0  0  0
  187.7610  177.8340  143.8230 C   0  0  0  0  0  2  0  0  0  0  0  0
  191.3670  176.4600  146.8300 N   0  0  0  0  0  0  0  0  0  0  0  0
  190.6420  175.2220  147.1370 C   0  0  0  0  0  2  0  0  0  0  0  0
  185.4790  177.6660  144.6840 N   0  0  0  0  0  0  0  0  0  0  0  0
  184.5040  177.8420  145.6360 O   0  0  0  0  0  0  0  0  0  0  0  0
  185.1600  177.3300  143.5270 O   0  0  0  0  0  0  0  0  0  0  0  0
  2 19  1  0  0  0  0
  3  2  2  0  0  0  0
  4  1  1  1  0  0  0
  4  6  1  0  0  0  0
  4  5  1  0  0  0  0
  5  7  1  1  0  0  0
  5  2  1  0  0  0  0
  6  3  1  0  0  0  0
  7  8  1  0  0  0  0
  9 14  1  0  0  0  0
 10 12  2  0  0  0  0
 11 12  1  0  0  0  0
 11  9  1  0  0  0  0
 12 13  1  0  0  0  0
 13 15  1  0  0  0  0
 14 16  1  0  0  0  0
 15 16  1  0  0  0  0
 16  8  1  6  0  0  0
 17 18  2  0  0  0  0
 18 10  1  0  0  0  0
 19 20  1  0  0  0  0
 20 21  1  0  0  0  0
 21 30  1  0  0  0  0
 22 31  1  0  0  0  0
 23 28  1  0  0  0  0
 23 30  1  0  0  0  0
 24 32  1  6  0  0  0
 24 25  1  0  0  0  0
 26 25  1  1  0  0  0
 26 22  1  0  0  0  0
 28 27  1  6  0  0  0
 28 26  1  0  0  0  0
 29 27  1  0  0  0  0
 29 24  1  0  0  0  0
 30 31  1  0  0  0  0
 32 33  2  0  0  0  0
 34 32  2  0  0  0  0
M  END
>  <MODEL>
7

>  <REMARK>
 VINA RESULT:      -6.7      2.007      7.269
  Name = 
  9 active torsions:
  status: ('A' for Active; 'I' for Inactive)
    1  A    between atoms: C_1  and  O_9
    2  A    between atoms: C_1  and  C_20
    3  A    between atoms: C_3  and  C_24
    4  A    between atoms: C_7  and  N_11
    5  A    between atoms: C_8  and  C_10
    6  A    between atoms: C_8  and  O_17
    7  A    between atoms: O_9  and  C_34
    8  A    between atoms: O_17  and  C_18
    9  A    between atoms: C_18  and  N_30
                            x       y       z     vdW  Elec       q    Type
                         _______ _______ _______ _____ _____    ______ ____

>  <TORSDO>
F 9

$$$$
=
 OpenBabel11052420173D

 34 37  0  0  1  0  0  0  0  0999 V2000
  194.4460  173.8210  142.8600 N   0  0  0  0  0  1  0  0  0  0  0  0
  193.3750  175.1100  145.8480 C   0  0  0  0  0  0  0  0  0  0  0  0
  194.6550  175.2180  145.9090 N   0  0  0  0  0  0  0  0  0  0  0  0
  194.1880  175.0220  143.6430 C   0  0  1  0  0  3  0  0  0  0  0  0
  192.8700  174.9530  144.4480 C   0  0  1  0  0  3  0  0  0  0  0  0
  195.1810  175.1580  144.6460 O   0  0  0  0  0  0  0  0  0  0  0  0
  192.1230  173.6290  144.2940 C   0  0  0  0  0  2  0  0  0  0  0  0
  190.7330  173.8390  144.3880 O   0  0  0  0  0  0  0  0  0  0  0  0
  190.4650  171.4140  141.5300 C   0  0  0  0  0  2  0  0  0  0  0  0
  188.3380  173.7680  139.4790 C   0  0  0  0  0  3  0  0  0  0  0  0
  189.8990  171.9920  140.2350 C   0  0  0  0  0  2  0  0  0  0  0  0
  188.7480  172.9380  140.4420 C   0  0  0  0  0  0  0  0  0  0  0  0
  188.0960  173.0660  141.7830 C   0  0  0  0  0  2  0  0  0  0  0  0
  191.1030  172.5080  142.3730 C   0  0  0  0  0  2  0  0  0  0  0  0
  188.9540  173.9250  142.7000 C   0  0  0  0  0  2  0  0  0  0  0  0
  190.0920  173.1230  143.3510 C   0  0  2  0  0  3  0  0  0  0  0  0
  188.4400  174.6920  137.2660 O   0  0  0  0  0  0  0  0  0  0  0  0
  188.8730  173.8600  138.1100 C   0  0  0  0  0  3  0  0  0  0  0  0
  192.5110  175.2120  147.0620 C   0  0  0  0  0  2  0  0  0  0  0  0
  191.8730  176.4540  147.0740 O   0  0  0  0  0  0  0  0  0  0  0  0
  190.5450  176.1880  147.4470 C   0  0  0  0  0  2  0  0  0  0  0  0
  189.1310  177.6460  144.3040 C   0  0  0  0  0  2  0  0  0  0  0  0
  188.3140  176.7260  146.8550 C   0  0  0  0  0  2  0  0  0  0  0  0
  185.3660  177.5220  144.0280 C   0  0  1  0  0  3  0  0  0  0  0  0
  186.7620  178.0630  143.7030 C   0  0  0  0  0  2  0  0  0  0  0  0
  187.7410  177.9170  144.8730 C   0  0  1  0  0  3  0  0  0  0  0  0
  186.0650  177.1760  146.4380 C   0  0  0  0  0  2  0  0  0  0  0  0
  187.3300  176.8280  145.7770 N   0  0  2  0  0  0  0  0  0  0  0  0
  185.0110  177.7610  145.4920 C   0  0  0  0  0  2  0  0  0  0  0  0
  189.6210  176.3480  146.3220 N   0  0  0  0  0  0  0  0  0  0  0  0
  190.1090  177.4200  145.4480 C   0  0  0  0  0  2  0  0  0  0  0  0
  184.3720  178.1370  143.1630 N   0  0  0  0  0  0  0  0  0  0  0  0
  184.3750  177.8770  141.8130 O   0  0  0  0  0  0  0  0  0  0  0  0
  183.6210  179.0190  143.6200 O   0  0  0  0  0  0  0  0  0  0  0  0
  2  3  2  0  0  0  0
  2 19  1  0  0  0  0
  4  1  1  1  0  0  0
  4  5  1  0  0  0  0
  4  6  1  0  0  0  0
  5  7  1  1  0  0  0
  5  2  1  0  0  0  0
  6  3  1  0  0  0  0
  7  8  1  0  0  0  0
  9 14  1  0  0  0  0
 10 12  2  0  0  0  0
 11 12  1  0  0  0  0
 11  9  1  0  0  0  0
 12 13  1  0  0  0  0
 13 15  1  0  0  0  0
 14 16  1  0  0  0  0
 15 16  1  0  0  0  0
 16  8  1  1  0  0  0
 17 18  2  0  0  0  0
 18 10  1  0  0  0  0
 19 20  1  0  0  0  0
 20 21  1  0  0  0  0
 22 26  1  0  0  0  0
 22 31  1  0  0  0  0
 24 32  1  6  0  0  0
 24 29  1  0  0  0  0
 25 24  1  0  0  0  0
 26 25  1  6  0  0  0
 26 28  1  0  0  0  0
 28 27  1  1  0  0  0
 28 23  1  0  0  0  0
 29 27  1  0  0  0  0
 30 23  1  0  0  0  0
 30 21  1  0  0  0  0
 31 30  1  0  0  0  0
 32 34  2  0  0  0  0
 33 32  2  0  0  0  0
M  END
>  <MODEL>
8

>  <REMARK>
 VINA RESULT:      -6.7      2.185      7.271
  Name = 
  9 active torsions:
  status: ('A' for Active; 'I' for Inactive)
    1  A    between atoms: C_1  and  O_9
    2  A    between atoms: C_1  and  C_20
    3  A    between atoms: C_3  and  C_24
    4  A    between atoms: C_7  and  N_11
    5  A    between atoms: C_8  and  C_10
    6  A    between atoms: C_8  and  O_17
    7  A    between atoms: O_9  and  C_34
    8  A    between atoms: O_17  and  C_18
    9  A    between atoms: C_18  and  N_30
                            x       y       z     vdW  Elec       q    Type
                         _______ _______ _______ _____ _____    ______ ____

>  <TORSDO>
F 9

$$$$
=
 OpenBabel11052420173D

 34 37  0  0  1  0  0  0  0  0999 V2000
  185.9530  177.8700  140.6000 N   0  0  0  0  0  1  0  0  0  0  0  0
  186.2230  177.7800  144.0140 C   0  0  0  0  0  0  0  0  0  0  0  0
  185.8420  178.9840  143.7690 N   0  0  0  0  0  0  0  0  0  0  0  0
  185.2510  177.7810  141.8730 C   0  0  1  0  0  3  0  0  0  0  0  0
  185.9410  176.8390  142.8860 C   0  0  1  0  0  3  0  0  0  0  0  0
  185.2790  179.0420  142.5210 O   0  0  0  0  0  0  0  0  0  0  0  0
  187.2390  176.2220  142.3670 C   0  0  0  0  0  2  0  0  0  0  0  0
  187.0930  174.8290  142.2200 O   0  0  0  0  0  0  0  0  0  0  0  0
  189.4520  172.2340  140.8720 C   0  0  0  0  0  2  0  0  0  0  0  0
  191.9180  172.7320  143.6890 C   0  0  0  0  0  3  0  0  0  0  0  0
  190.5660  171.8070  141.8240 C   0  0  0  0  0  2  0  0  0  0  0  0
  191.1690  172.9430  142.6030 C   0  0  0  0  0  0  0  0  0  0  0  0
  190.8510  174.3630  142.2540 C   0  0  0  0  0  2  0  0  0  0  0  0
  188.2520  172.7560  141.6470 C   0  0  0  0  0  2  0  0  0  0  0  0
  189.4770  174.7360  142.7920 C   0  0  0  0  0  2  0  0  0  0  0  0
  188.3430  174.2730  141.8640 C   0  0  2  0  0  3  0  0  0  0  0  0
  193.3130  170.7840  143.8430 O   0  0  0  0  0  0  0  0  0  0  0  0
  192.3060  171.4270  144.2510 C   0  0  0  0  0  3  0  0  0  0  0  0
  186.8100  177.3860  145.3300 C   0  0  0  0  0  2  0  0  0  0  0  0
  188.1760  177.6770  145.3350 O   0  0  0  0  0  0  0  0  0  0  0  0
  188.6620  177.1710  146.5510 C   0  0  0  0  0  2  0  0  0  0  0  0
  191.7700  175.2890  147.4470 C   0  0  0  0  0  2  0  0  0  0  0  0
  190.7340  176.9720  145.4170 C   0  0  0  0  0  2  0  0  0  0  0  0
  194.3370  175.0210  144.6890 C   0  0  1  0  0  3  0  0  0  0  0  0
  193.8640  175.0210  146.1460 C   0  0  0  0  0  2  0  0  0  0  0  0
  192.6490  175.9270  146.3750 C   0  0  1  0  0  3  0  0  0  0  0  0
  192.6940  176.8760  144.1600 C   0  0  0  0  0  2  0  0  0  0  0  0
  191.8880  176.1210  145.1280 N   0  0  2  0  0  0  0  0  0  0  0  0
  194.1440  176.3920  144.0490 C   0  0  0  0  0  2  0  0  0  0  0  0
  189.8300  176.3080  146.3540 N   0  0  0  0  0  0  0  0  0  0  0  0
  190.5170  176.1320  147.6380 C   0  0  0  0  0  2  0  0  0  0  0  0
  195.7330  174.6210  144.6110 N   0  0  0  0  0  0  0  0  0  0  0  0
  196.2540  174.1560  143.4270 O   0  0  0  0  0  0  0  0  0  0  0  0
  196.4110  174.5510  145.6550 O   0  0  0  0  0  0  0  0  0  0  0  0
  2 19  1  0  0  0  0
  3  2  2  0  0  0  0
  4  1  1  6  0  0  0
  4  6  1  0  0  0  0
  4  5  1  0  0  0  0
  5  7  1  6  0  0  0
  5  2  1  0  0  0  0
  6  3  1  0  0  0  0
  8  7  1  0  0  0  0
  9 14  1  0  0  0  0
  9 11  1  0  0  0  0
 10 18  1  0  0  0  0
 11 12  1  0  0  0  0
 12 10  2  0  0  0  0
 13 12  1  0  0  0  0
 13 15  1  0  0  0  0
 14 16  1  0  0  0  0
 16  8  1  1  0  0  0
 16 15  1  0  0  0  0
 17 18  2  0  0  0  0
 19 20  1  0  0  0  0
 20 21  1  0  0  0  0
 22 31  1  0  0  0  0
 23 30  1  0  0  0  0
 24 32  1  1  0  0  0
 24 25  1  0  0  0  0
 26 25  1  6  0  0  0
 26 22  1  0  0  0  0
 28 27  1  6  0  0  0
 28 23  1  0  0  0  0
 28 26  1  0  0  0  0
 29 27  1  0  0  0  0
 29 24  1  0  0  0  0
 30 21  1  0  0  0  0
 30 31  1  0  0  0  0
 32 34  2  0  0  0  0
 33 32  2  0  0  0  0
M  END
>  <MODEL>
9

>  <REMARK>
 VINA RESULT:      -6.6      2.275      3.712
  Name = 
  9 active torsions:
  status: ('A' for Active; 'I' for Inactive)
    1  A    between atoms: C_1  and  O_9
    2  A    between atoms: C_1  and  C_20
    3  A    between atoms: C_3  and  C_24
    4  A    between atoms: C_7  and  N_11
    5  A    between atoms: C_8  and  C_10
    6  A    between atoms: C_8  and  O_17
    7  A    between atoms: O_9  and  C_34
    8  A    between atoms: O_17  and  C_18
    9  A    between atoms: C_18  and  N_30
                            x       y       z     vdW  Elec       q    Type
                         _______ _______ _______ _____ _____    ______ ____

>  <TORSDO>
F 9

$$$$
