=
 OpenBabel11052418553D

 34 39  0  0  1  0  0  0  0  0999 V2000
  186.3920  178.8190  143.8570 C   0  0  2  0  0  3  0  0  0  0  0  0
  185.6400  177.1770  145.6650 C   0  0  1  0  0  3  0  0  0  0  0  0
  187.8530  176.9200  144.4960 C   0  0  0  0  0  0  0  0  0  0  0  0
  189.9930  175.8150  144.5800 C   0  0  0  0  0  0  0  0  0  0  0  0
  184.0810  178.9580  144.8580 C   0  0  0  0  0  2  0  0  0  0  0  0
  184.5560  178.1690  146.0700 C   0  0  0  0  0  2  0  0  0  0  0  0
  189.3510  177.4020  146.2990 C   0  0  0  0  0  3  0  0  0  0  0  0
  186.8370  177.9040  145.0210 C   0  0  1  0  0  3  0  0  0  0  0  0
  190.5730  177.2010  146.9420 C   0  0  0  0  0  3  0  0  0  0  0  0
  191.2130  175.6200  145.2320 C   0  0  0  0  0  3  0  0  0  0  0  0
  185.2460  179.7440  144.2640 C   0  0  0  0  0  2  0  0  0  0  0  0
  187.4840  176.2160  143.2060 C   0  0  2  0  0  3  0  0  0  0  0  0
  186.0350  178.0060  142.6060 C   0  0  0  0  0  2  0  0  0  0  0  0
  186.0760  176.4100  146.9010 C   0  0  0  0  0  1  0  0  0  0  0  0
  189.7590  175.1400  143.4560 C   0  0  0  0  0  3  0  0  0  0  0  0
  188.5270  175.2990  142.7370 N   0  0  0  0  0  0  0  0  0  0  0  0
  191.5120  176.3060  146.4110 C   0  0  0  0  0  0  0  0  0  0  0  0
  189.0380  176.7150  145.1130 C   0  0  0  0  0  0  0  0  0  0  0  0
  187.1860  177.2120  142.1740 N   0  0  0  0  0  2  0  0  0  0  0  0
  189.1760  172.6520  140.1180 C   0  0  0  0  0  0  0  0  0  0  0  0
  188.6540  173.3170  139.0020 O   0  0  0  0  0  0  0  0  0  0  0  0
  188.2610  174.4870  141.5530 C   0  0  2  0  0  3  0  0  0  0  0  0
  187.8360  174.4800  139.1180 C   0  0  0  0  0  2  0  0  0  0  0  0
  189.2630  173.3360  141.4490 C   0  0  0  0  0  2  0  0  0  0  0  0
  188.2750  175.3450  140.2910 C   0  0  0  0  0  2  0  0  0  0  0  0
  189.6770  171.4720  139.9790 N   0  0  0  0  0  2  0  0  0  0  0  0
  192.7450  176.0830  147.0290 O   0  0  0  0  0  0  0  0  0  0  0  0
  193.9320  176.7630  146.6420 C   0  0  0  0  0  2  0  0  0  0  0  0
  196.0280  176.6800  143.8880 C   0  0  0  0  0  1  0  0  0  0  0  0
  194.7380  176.0660  144.3940 C   0  0  2  0  0  3  0  0  0  0  0  0
  194.7110  173.6710  144.8100 C   0  0  0  0  0  2  0  0  0  0  0  0
  194.4170  174.3800  146.1100 C   0  0  0  0  0  2  0  0  0  0  0  0
  194.8450  175.8150  145.8860 C   0  0  2  0  0  3  0  0  0  0  0  0
  194.5200  174.7170  143.7310 C   0  0  0  0  0  2  0  0  0  0  0  0
  1 13  1  6  0  0  0
  1 11  1  0  0  0  0
  1  8  1  0  0  0  0
  2  6  1  0  0  0  0
  2 14  1  1  0  0  0
  3 18  2  0  0  0  0
  4 18  1  0  0  0  0
  4 10  1  0  0  0  0
  5  6  1  0  0  0  0
  7  9  2  0  0  0  0
  8  3  1  6  0  0  0
  8  2  1  0  0  0  0
 10 17  2  0  0  0  0
 11  5  1  0  0  0  0
 12 19  1  6  0  0  0
 12  3  1  0  0  0  0
 15  4  2  0  0  0  0
 16 12  1  0  0  0  0
 16 15  1  0  0  0  0
 17  9  1  0  0  0  0
 17 27  1  0  0  0  0
 18  7  1  0  0  0  0
 19 13  1  0  0  0  0
 20 24  1  0  0  0  0
 21 23  1  0  0  0  0
 21 20  1  0  0  0  0
 22 25  1  6  0  0  0
 22 16  1  0  0  0  0
 23 25  1  0  0  0  0
 24 22  1  0  0  0  0
 26 20  2  0  0  0  0
 28 27  1  0  0  0  0
 30 29  1  6  0  0  0
 30 33  1  0  0  0  0
 31 32  1  0  0  0  0
 33 32  1  0  0  0  0
 33 28  1  1  0  0  0
 34 30  1  0  0  0  0
 34 31  1  0  0  0  0
M  END
>  <MODEL>
1

>  <REMARK>
 VINA RESULT:      -8.7      0.000      0.000
  Name = 
  4 active torsions:
  status: ('A' for Active; 'I' for Inactive)
    1  A    between atoms: O_3  and  C_13
    2  A    between atoms: O_3  and  C_29
    3  A    between atoms: C_12  and  N_28
    4  A    between atoms: C_13  and  C_33
                            x       y       z     vdW  Elec       q    Type
                         _______ _______ _______ _____ _____    ______ ____

>  <TORSDO>
F 4

$$$$
=
 OpenBabel11052418553D

 34 39  0  0  1  0  0  0  0  0999 V2000
  194.1560  172.3170  145.1890 C   0  0  2  0  0  3  0  0  0  0  0  0
  194.7290  174.7970  144.9660 C   0  0  1  0  0  3  0  0  0  0  0  0
  192.3700  173.9660  144.6920 C   0  0  0  0  0  0  0  0  0  0  0  0
  190.0580  174.6350  144.6030 C   0  0  0  0  0  0  0  0  0  0  0  0
  196.5500  173.1060  145.2410 C   0  0  0  0  0  2  0  0  0  0  0  0
  196.0830  174.5090  145.6040 C   0  0  0  0  0  2  0  0  0  0  0  0
  191.3500  174.9160  146.6370 C   0  0  0  0  0  3  0  0  0  0  0  0
  193.6770  173.7680  145.4220 C   0  0  1  0  0  3  0  0  0  0  0  0
  190.2340  175.4620  147.2720 C   0  0  0  0  0  3  0  0  0  0  0  0
  188.9460  175.1850  145.2470 C   0  0  0  0  0  3  0  0  0  0  0  0
  195.5520  172.0780  145.7620 C   0  0  0  0  0  2  0  0  0  0  0  0
  192.3380  173.4820  143.2570 C   0  0  2  0  0  3  0  0  0  0  0  0
  194.0890  171.9340  143.7040 C   0  0  0  0  0  2  0  0  0  0  0  0
  194.3080  176.2060  145.3480 C   0  0  0  0  0  1  0  0  0  0  0  0
  189.9300  174.2500  143.3340 C   0  0  0  0  0  3  0  0  0  0  0  0
  191.0330  173.6750  142.6180 N   0  0  0  0  0  0  0  0  0  0  0  0
  189.0240  175.6010  146.5780 C   0  0  0  0  0  0  0  0  0  0  0  0
  191.2840  174.4960  145.2970 C   0  0  0  0  0  0  0  0  0  0  0  0
  192.7190  172.0680  143.2090 N   0  0  0  0  0  2  0  0  0  0  0  0
  191.8040  173.7910  138.9200 C   0  0  0  0  0  0  0  0  0  0  0  0
  190.4980  173.6990  138.4220 O   0  0  0  0  0  0  0  0  0  0  0  0
  190.8910  173.3360  141.2050 C   0  0  2  0  0  3  0  0  0  0  0  0
  189.3950  173.3100  139.2380 C   0  0  0  0  0  2  0  0  0  0  0  0
  192.0590  173.8980  140.3930 C   0  0  0  0  0  2  0  0  0  0  0  0
  189.5540  173.8290  140.6600 C   0  0  0  0  0  2  0  0  0  0  0  0
  192.7940  173.8820  138.0970 N   0  0  0  0  0  2  0  0  0  0  0  0
  187.8880  176.1420  147.1850 O   0  0  0  0  0  0  0  0  0  0  0  0
  187.3940  177.4380  146.8710 C   0  0  0  0  0  2  0  0  0  0  0  0
  185.9590  176.7820  143.7900 C   0  0  0  0  0  1  0  0  0  0  0  0
  186.0880  177.9010  144.8040 C   0  0  2  0  0  3  0  0  0  0  0  0
  184.0630  178.6660  145.9110 C   0  0  0  0  0  2  0  0  0  0  0  0
  185.0070  178.1380  146.9640 C   0  0  0  0  0  2  0  0  0  0  0  0
  186.0340  177.3240  146.2060 C   0  0  2  0  0  3  0  0  0  0  0  0
  184.9110  178.8510  144.6700 C   0  0  0  0  0  2  0  0  0  0  0  0
  1 13  1  6  0  0  0
  1  8  1  0  0  0  0
  1 11  1  0  0  0  0
  2 14  1  1  0  0  0
  2  8  1  0  0  0  0
  2  6  1  0  0  0  0
  3 18  2  0  0  0  0
  4 10  1  0  0  0  0
  4 18  1  0  0  0  0
  5  6  1  0  0  0  0
  5 11  1  0  0  0  0
  7  9  2  0  0  0  0
  8  3  1  6  0  0  0
 10 17  2  0  0  0  0
 12 19  1  1  0  0  0
 12  3  1  0  0  0  0
 15  4  2  0  0  0  0
 16 12  1  0  0  0  0
 16 15  1  0  0  0  0
 17 27  1  0  0  0  0
 17  9  1  0  0  0  0
 18  7  1  0  0  0  0
 19 13  1  0  0  0  0
 20 24  1  0  0  0  0
 21 20  1  0  0  0  0
 21 23  1  0  0  0  0
 22 24  1  6  0  0  0
 22 16  1  0  0  0  0
 23 25  1  0  0  0  0
 25 22  1  0  0  0  0
 26 20  2  0  0  0  0
 28 27  1  0  0  0  0
 30 29  1  6  0  0  0
 30 33  1  0  0  0  0
 31 32  1  0  0  0  0
 33 28  1  1  0  0  0
 33 32  1  0  0  0  0
 34 30  1  0  0  0  0
 34 31  1  0  0  0  0
M  END
>  <MODEL>
2

>  <REMARK>
 VINA RESULT:      -8.6      2.132      7.350
  Name = 
  4 active torsions:
  status: ('A' for Active; 'I' for Inactive)
    1  A    between atoms: O_3  and  C_13
    2  A    between atoms: O_3  and  C_29
    3  A    between atoms: C_12  and  N_28
    4  A    between atoms: C_13  and  C_33
                            x       y       z     vdW  Elec       q    Type
                         _______ _______ _______ _____ _____    ______ ____

>  <TORSDO>
F 4

$$$$
=
 OpenBabel11052418553D

 34 39  0  0  1  0  0  0  0  0999 V2000
  191.5950  173.3290  139.8250 C   0  0  2  0  0  3  0  0  0  0  0  0
  190.2180  172.1090  141.5980 C   0  0  1  0  0  3  0  0  0  0  0  0
  190.6220  174.5890  141.7260 C   0  0  0  0  0  0  0  0  0  0  0  0
  189.9120  176.6350  142.7820 C   0  0  0  0  0  0  0  0  0  0  0  0
  191.3880  170.8150  139.8070 C   0  0  0  0  0  2  0  0  0  0  0  0
  190.1320  170.9100  140.6600 C   0  0  0  0  0  2  0  0  0  0  0  0
  188.4100  175.4070  141.3250 C   0  0  0  0  0  3  0  0  0  0  0  0
  190.4020  173.4160  140.8020 C   0  0  1  0  0  3  0  0  0  0  0  0
  187.4180  176.3660  141.5380 C   0  0  0  0  0  3  0  0  0  0  0  0
  188.9120  177.5890  142.9900 C   0  0  0  0  0  3  0  0  0  0  0  0
  191.5310  172.0730  138.9560 C   0  0  0  0  0  2  0  0  0  0  0  0
  191.9980  174.6830  142.3540 C   0  0  2  0  0  3  0  0  0  0  0  0
  192.9370  173.4270  140.5640 C   0  0  0  0  0  2  0  0  0  0  0  0
  188.9500  172.1580  142.4320 C   0  0  0  0  0  1  0  0  0  0  0  0
  191.0860  176.8030  143.3880 C   0  0  0  0  0  3  0  0  0  0  0  0
  192.1540  175.8600  143.2130 N   0  0  0  0  0  0  0  0  0  0  0  0
  187.6650  177.4640  142.3740 C   0  0  0  0  0  0  0  0  0  0  0  0
  189.6680  175.5210  141.9420 C   0  0  0  0  0  0  0  0  0  0  0  0
  193.0160  174.6890  141.3000 N   0  0  0  0  0  2  0  0  0  0  0  0
  195.0300  174.8490  145.4470 C   0  0  0  0  0  0  0  0  0  0  0  0
  195.1960  176.0500  146.1470 O   0  0  0  0  0  0  0  0  0  0  0  0
  193.4020  176.0240  143.9530 C   0  0  2  0  0  3  0  0  0  0  0  0
  194.5970  177.2730  145.7190 C   0  0  0  0  0  2  0  0  0  0  0  0
  193.9040  174.6760  144.4730 C   0  0  0  0  0  2  0  0  0  0  0  0
  193.2330  177.0250  145.0900 C   0  0  0  0  0  2  0  0  0  0  0  0
  195.7960  173.8460  145.7150 N   0  0  0  0  0  2  0  0  0  0  0  0
  186.6950  178.4420  142.6070 O   0  0  0  0  0  0  0  0  0  0  0  0
  185.4770  178.1680  143.2880 C   0  0  0  0  0  2  0  0  0  0  0  0
  187.1850  176.6930  145.9130 C   0  0  0  0  0  1  0  0  0  0  0  0
  185.7700  176.9370  145.4310 C   0  0  2  0  0  3  0  0  0  0  0  0
  184.3450  178.3710  146.7810 C   0  0  0  0  0  2  0  0  0  0  0  0
  184.4940  179.0020  145.4180 C   0  0  0  0  0  2  0  0  0  0  0  0
  185.6820  178.3070  144.7850 C   0  0  2  0  0  3  0  0  0  0  0  0
  184.8200  176.9430  146.6160 C   0  0  0  0  0  2  0  0  0  0  0  0
  1 11  1  1  0  0  0
  1 13  1  0  0  0  0
  1  8  1  0  0  0  0
  2 14  1  6  0  0  0
  3 18  2  0  0  0  0
  3 12  1  0  0  0  0
  4 10  1  0  0  0  0
  4 15  2  0  0  0  0
  5  6  1  0  0  0  0
  6  2  1  0  0  0  0
  7  9  2  0  0  0  0
  7 18  1  0  0  0  0
  8  2  1  0  0  0  0
  8  3  1  1  0  0  0
  9 17  1  0  0  0  0
 11  5  1  0  0  0  0
 12 19  1  6  0  0  0
 12 16  1  0  0  0  0
 13 19  1  0  0  0  0
 16 15  1  0  0  0  0
 17 27  1  0  0  0  0
 17 10  2  0  0  0  0
 18  4  1  0  0  0  0
 20 26  2  0  0  0  0
 20 21  1  0  0  0  0
 22 16  1  1  0  0  0
 22 24  1  0  0  0  0
 22 25  1  0  0  0  0
 23 21  1  0  0  0  0
 24 20  1  0  0  0  0
 25 23  1  0  0  0  0
 27 28  1  0  0  0  0
 30 29  1  1  0  0  0
 30 34  1  0  0  0  0
 32 31  1  0  0  0  0
 33 28  1  6  0  0  0
 33 32  1  0  0  0  0
 33 30  1  0  0  0  0
 34 31  1  0  0  0  0
M  END
>  <MODEL>
3

>  <REMARK>
 VINA RESULT:      -8.5      2.665      7.951
  Name = 
  4 active torsions:
  status: ('A' for Active; 'I' for Inactive)
    1  A    between atoms: O_3  and  C_13
    2  A    between atoms: O_3  and  C_29
    3  A    between atoms: C_12  and  N_28
    4  A    between atoms: C_13  and  C_33
                            x       y       z     vdW  Elec       q    Type
                         _______ _______ _______ _____ _____    ______ ____

>  <TORSDO>
F 4

$$$$
=
 OpenBabel11052418553D

 34 39  0  0  1  0  0  0  0  0999 V2000
  187.2240  176.7390  146.2560 C   0  0  2  0  0  3  0  0  0  0  0  0
  187.0580  178.3010  144.2410 C   0  0  1  0  0  3  0  0  0  0  0  0
  188.5690  176.2890  144.2200 C   0  0  0  0  0  0  0  0  0  0  0  0
  189.8700  174.8340  142.8090 C   0  0  0  0  0  0  0  0  0  0  0  0
  185.8820  178.8710  146.3730 C   0  0  0  0  0  2  0  0  0  0  0  0
  185.8000  178.9050  144.8530 C   0  0  0  0  0  2  0  0  0  0  0  0
  187.4550  174.9310  142.5950 C   0  0  0  0  0  3  0  0  0  0  0  0
  187.2570  176.8480  144.7150 C   0  0  1  0  0  3  0  0  0  0  0  0
  187.5070  173.9840  141.5710 C   0  0  0  0  0  3  0  0  0  0  0  0
  189.9120  173.8870  141.7820 C   0  0  0  0  0  3  0  0  0  0  0  0
  185.9970  177.4270  146.8520 C   0  0  0  0  0  2  0  0  0  0  0  0
  189.8070  176.7780  144.9440 C   0  0  2  0  0  3  0  0  0  0  0  0
  188.5200  177.2670  146.8850 C   0  0  0  0  0  2  0  0  0  0  0  0
  186.9350  178.3640  142.7290 C   0  0  0  0  0  1  0  0  0  0  0  0
  191.0170  175.2080  143.3740 C   0  0  0  0  0  3  0  0  0  0  0  0
  191.0410  176.1730  144.4360 N   0  0  0  0  0  0  0  0  0  0  0  0
  188.7390  173.4570  141.1580 C   0  0  0  0  0  0  0  0  0  0  0  0
  188.6300  175.3740  143.2280 C   0  0  0  0  0  0  0  0  0  0  0  0
  189.6700  176.5170  146.3790 N   0  0  0  0  0  2  0  0  0  0  0  0
  194.7960  176.5420  144.6550 C   0  0  0  0  0  0  0  0  0  0  0  0
  194.9400  176.4880  146.0470 O   0  0  0  0  0  0  0  0  0  0  0  0
  192.3170  176.6260  144.9830 C   0  0  2  0  0  3  0  0  0  0  0  0
  193.8330  176.6260  146.9360 C   0  0  0  0  0  2  0  0  0  0  0  0
  193.4600  176.3280  144.0120 C   0  0  0  0  0  2  0  0  0  0  0  0
  192.5770  175.9980  146.3480 C   0  0  0  0  0  2  0  0  0  0  0  0
  195.8420  176.6800  143.9130 N   0  0  0  0  0  2  0  0  0  0  0  0
  188.8240  172.5060  140.1380 O   0  0  0  0  0  0  0  0  0  0  0  0
  188.2770  172.7190  138.8430 C   0  0  0  0  0  2  0  0  0  0  0  0
  189.9080  170.1740  137.1560 C   0  0  0  0  0  1  0  0  0  0  0  0
  190.1890  171.2900  138.1410 C   0  0  2  0  0  3  0  0  0  0  0  0
  191.6450  173.0980  137.4170 C   0  0  0  0  0  2  0  0  0  0  0  0
  190.2940  173.6840  137.7490 C   0  0  0  0  0  2  0  0  0  0  0  0
  189.3470  172.5030  137.7890 C   0  0  2  0  0  3  0  0  0  0  0  0
  191.6440  171.7140  138.0310 C   0  0  0  0  0  2  0  0  0  0  0  0
  1 11  1  1  0  0  0
  1 13  1  0  0  0  0
  2 14  1  6  0  0  0
  2  8  1  0  0  0  0
  2  6  1  0  0  0  0
  4 18  1  0  0  0  0
  4 15  2  0  0  0  0
  5 11  1  0  0  0  0
  6  5  1  0  0  0  0
  7 18  1  0  0  0  0
  8  3  1  1  0  0  0
  8  1  1  0  0  0  0
  9  7  2  0  0  0  0
 10  4  1  0  0  0  0
 12  3  1  6  0  0  0
 12 19  1  0  0  0  0
 15 16  1  0  0  0  0
 16 12  1  0  0  0  0
 16 22  1  0  0  0  0
 17  9  1  0  0  0  0
 17 10  2  0  0  0  0
 18  3  2  0  0  0  0
 19 13  1  0  0  0  0
 20 21  1  0  0  0  0
 21 23  1  0  0  0  0
 22 24  1  6  0  0  0
 22 25  1  0  0  0  0
 24 20  1  0  0  0  0
 25 23  1  0  0  0  0
 26 20  2  0  0  0  0
 27 17  1  0  0  0  0
 28 27  1  0  0  0  0
 30 29  1  6  0  0  0
 31 32  1  0  0  0  0
 31 34  1  0  0  0  0
 32 33  1  0  0  0  0
 33 30  1  0  0  0  0
 33 28  1  1  0  0  0
 34 30  1  0  0  0  0
M  END
>  <MODEL>
4

>  <REMARK>
 VINA RESULT:      -8.5      2.291      6.518
  Name = 
  4 active torsions:
  status: ('A' for Active; 'I' for Inactive)
    1  A    between atoms: O_3  and  C_13
    2  A    between atoms: O_3  and  C_29
    3  A    between atoms: C_12  and  N_28
    4  A    between atoms: C_13  and  C_33
                            x       y       z     vdW  Elec       q    Type
                         _______ _______ _______ _____ _____    ______ ____

>  <TORSDO>
F 4

$$$$
=
 OpenBabel11052418553D

 34 39  0  0  1  0  0  0  0  0999 V2000
  191.4800  176.6800  144.7360 C   0  0  2  0  0  3  0  0  0  0  0  0
  190.5450  174.4240  145.4860 C   0  0  1  0  0  3  0  0  0  0  0  0
  189.5480  175.6780  143.5460 C   0  0  0  0  0  0  0  0  0  0  0  0
  188.0860  175.4930  141.6400 C   0  0  0  0  0  0  0  0  0  0  0  0
  192.3420  175.5440  146.8160 C   0  0  0  0  0  2  0  0  0  0  0  0
  191.8080  174.2110  146.3110 C   0  0  0  0  0  2  0  0  0  0  0  0
  190.1560  174.2320  141.7400 C   0  0  0  0  0  3  0  0  0  0  0  0
  190.8210  175.3550  144.2900 C   0  0  1  0  0  3  0  0  0  0  0  0
  189.8790  173.6770  140.4900 C   0  0  0  0  0  3  0  0  0  0  0  0
  187.8160  174.9310  140.3900 C   0  0  0  0  0  3  0  0  0  0  0  0
  192.6940  176.4410  145.6330 C   0  0  0  0  0  2  0  0  0  0  0  0
  188.6300  176.6800  144.2170 C   0  0  2  0  0  3  0  0  0  0  0  0
  190.4660  177.6160  145.4080 C   0  0  0  0  0  2  0  0  0  0  0  0
  190.0460  173.0700  145.0120 C   0  0  0  0  0  1  0  0  0  0  0  0
  187.2090  176.3570  142.1500 C   0  0  0  0  0  3  0  0  0  0  0  0
  187.4290  176.9720  143.4280 N   0  0  0  0  0  0  0  0  0  0  0  0
  188.7040  174.0240  139.8070 C   0  0  0  0  0  0  0  0  0  0  0  0
  189.2680  175.1440  142.3370 C   0  0  0  0  0  0  0  0  0  0  0  0
  189.3690  177.9160  144.4870 N   0  0  0  0  0  2  0  0  0  0  0  0
  184.9340  178.1970  145.9880 C   0  0  0  0  0  0  0  0  0  0  0  0
  183.9410  178.6650  145.1190 O   0  0  0  0  0  0  0  0  0  0  0  0
  186.4150  177.8520  144.0010 C   0  0  2  0  0  3  0  0  0  0  0  0
  184.1760  178.8610  143.7250 C   0  0  0  0  0  2  0  0  0  0  0  0
  186.1440  177.4880  145.4620 C   0  0  0  0  0  2  0  0  0  0  0  0
  185.1320  177.8110  143.1770 C   0  0  0  0  0  2  0  0  0  0  0  0
  184.7580  178.2910  147.2630 N   0  0  0  0  0  2  0  0  0  0  0  0
  188.3980  173.4870  138.5540 O   0  0  0  0  0  0  0  0  0  0  0  0
  188.6820  174.1670  137.3380 C   0  0  0  0  0  2  0  0  0  0  0  0
  189.6040  171.1650  135.8800 C   0  0  0  0  0  1  0  0  0  0  0  0
  189.9620  172.0520  137.0550 C   0  0  2  0  0  3  0  0  0  0  0  0
  192.1770  173.0530  137.0840 C   0  0  0  0  0  2  0  0  0  0  0  0
  191.1560  174.1650  137.0680 C   0  0  0  0  0  2  0  0  0  0  0  0
  189.8600  173.5090  136.6430 C   0  0  2  0  0  3  0  0  0  0  0  0
  191.4050  171.8060  137.4590 C   0  0  0  0  0  2  0  0  0  0  0  0
  1 13  1  1  0  0  0
  1 11  1  0  0  0  0
  2 14  1  6  0  0  0
  2  6  1  0  0  0  0
  4 15  2  0  0  0  0
  4 18  1  0  0  0  0
  6  5  1  0  0  0  0
  7 18  1  0  0  0  0
  8  3  1  1  0  0  0
  8  1  1  0  0  0  0
  8  2  1  0  0  0  0
  9  7  2  0  0  0  0
 10  4  1  0  0  0  0
 11  5  1  0  0  0  0
 12  3  1  6  0  0  0
 12 19  1  0  0  0  0
 15 16  1  0  0  0  0
 16 22  1  0  0  0  0
 16 12  1  0  0  0  0
 17 10  2  0  0  0  0
 17  9  1  0  0  0  0
 18  3  2  0  0  0  0
 19 13  1  0  0  0  0
 20 26  2  0  0  0  0
 21 20  1  0  0  0  0
 22 25  1  6  0  0  0
 22 24  1  0  0  0  0
 23 21  1  0  0  0  0
 24 20  1  0  0  0  0
 25 23  1  0  0  0  0
 27 17  1  0  0  0  0
 28 27  1  0  0  0  0
 30 29  1  6  0  0  0
 30 34  1  0  0  0  0
 31 34  1  0  0  0  0
 32 31  1  0  0  0  0
 33 30  1  0  0  0  0
 33 32  1  0  0  0  0
 33 28  1  1  0  0  0
M  END
>  <MODEL>
5

>  <REMARK>
 VINA RESULT:      -8.4      2.763      7.304
  Name = 
  4 active torsions:
  status: ('A' for Active; 'I' for Inactive)
    1  A    between atoms: O_3  and  C_13
    2  A    between atoms: O_3  and  C_29
    3  A    between atoms: C_12  and  N_28
    4  A    between atoms: C_13  and  C_33
                            x       y       z     vdW  Elec       q    Type
                         _______ _______ _______ _____ _____    ______ ____

>  <TORSDO>
F 4

$$$$
=
 OpenBabel11052418553D

 34 39  0  0  1  0  0  0  0  0999 V2000
  195.3370  172.4020  145.4460 C   0  0  2  0  0  3  0  0  0  0  0  0
  195.3580  174.7540  144.4470 C   0  0  1  0  0  3  0  0  0  0  0  0
  193.2140  173.4700  144.7340 C   0  0  0  0  0  0  0  0  0  0  0  0
  190.8120  173.6530  144.7590 C   0  0  0  0  0  0  0  0  0  0  0  0
  197.5090  173.5850  144.9560 C   0  0  0  0  0  2  0  0  0  0  0  0
  196.7840  174.9230  144.9590 C   0  0  0  0  0  2  0  0  0  0  0  0
  192.1570  174.7720  146.4390 C   0  0  0  0  0  3  0  0  0  0  0  0
  194.5810  173.7430  145.3130 C   0  0  1  0  0  3  0  0  0  0  0  0
  190.9980  175.2780  147.0310 C   0  0  0  0  0  3  0  0  0  0  0  0
  189.6570  174.1650  145.3570 C   0  0  0  0  0  3  0  0  0  0  0  0
  196.7890  172.6050  145.8760 C   0  0  0  0  0  2  0  0  0  0  0  0
  193.1830  172.5700  143.5150 C   0  0  2  0  0  3  0  0  0  0  0  0
  195.2480  171.5750  144.1560 C   0  0  0  0  0  2  0  0  0  0  0  0
  194.6790  176.1120  144.4600 C   0  0  0  0  0  1  0  0  0  0  0  0
  190.6790  172.8800  143.6820 C   0  0  0  0  0  3  0  0  0  0  0  0
  191.8250  172.3200  143.0240 N   0  0  0  0  0  0  0  0  0  0  0  0
  189.7400  174.9770  146.4900 C   0  0  0  0  0  0  0  0  0  0  0  0
  192.0860  173.9560  145.2970 C   0  0  0  0  0  0  0  0  0  0  0  0
  193.8490  171.3030  143.8260 N   0  0  0  0  0  2  0  0  0  0  0  0
  190.6120  171.5610  139.5260 C   0  0  0  0  0  0  0  0  0  0  0  0
  190.3520  170.1940  139.6770 O   0  0  0  0  0  0  0  0  0  0  0  0
  191.6580  171.5430  141.7990 C   0  0  2  0  0  3  0  0  0  0  0  0
  190.8290  169.4440  140.7930 C   0  0  0  0  0  2  0  0  0  0  0  0
  191.0300  172.3980  140.6970 C   0  0  0  0  0  2  0  0  0  0  0  0
  190.8330  170.2870  142.0590 C   0  0  0  0  0  2  0  0  0  0  0  0
  190.3940  172.1280  138.3880 N   0  0  0  0  0  2  0  0  0  0  0  0
  188.5610  175.4660  147.0590 O   0  0  0  0  0  0  0  0  0  0  0  0
  188.0910  176.7890  146.8330 C   0  0  0  0  0  2  0  0  0  0  0  0
  187.7640  177.2640  143.4200 C   0  0  0  0  0  1  0  0  0  0  0  0
  187.3250  177.8810  144.7330 C   0  0  2  0  0  3  0  0  0  0  0  0
  184.9500  177.8660  145.2520 C   0  0  0  0  0  2  0  0  0  0  0  0
  185.6730  177.0800  146.3200 C   0  0  0  0  0  2  0  0  0  0  0  0
  187.0390  176.7820  145.7400 C   0  0  2  0  0  3  0  0  0  0  0  0
  186.0290  178.6450  144.5300 C   0  0  0  0  0  2  0  0  0  0  0  0
  1 13  1  6  0  0  0
  1 11  1  0  0  0  0
  2 14  1  1  0  0  0
  2  6  1  0  0  0  0
  2  8  1  0  0  0  0
  3 18  2  0  0  0  0
  4 18  1  0  0  0  0
  4 10  1  0  0  0  0
  5  6  1  0  0  0  0
  5 11  1  0  0  0  0
  7  9  2  0  0  0  0
  8  3  1  6  0  0  0
  8  1  1  0  0  0  0
 10 17  2  0  0  0  0
 12 19  1  1  0  0  0
 12  3  1  0  0  0  0
 15  4  2  0  0  0  0
 16 12  1  0  0  0  0
 16 15  1  0  0  0  0
 17  9  1  0  0  0  0
 17 27  1  0  0  0  0
 18  7  1  0  0  0  0
 19 13  1  0  0  0  0
 20 21  1  0  0  0  0
 20 24  1  0  0  0  0
 21 23  1  0  0  0  0
 22 24  1  6  0  0  0
 22 25  1  0  0  0  0
 22 16  1  0  0  0  0
 23 25  1  0  0  0  0
 26 20  2  0  0  0  0
 28 27  1  0  0  0  0
 30 29  1  6  0  0  0
 30 33  1  0  0  0  0
 31 32  1  0  0  0  0
 33 32  1  0  0  0  0
 33 28  1  1  0  0  0
 34 30  1  0  0  0  0
 34 31  1  0  0  0  0
M  END
>  <MODEL>
6

>  <REMARK>
 VINA RESULT:      -8.3      2.424      7.588
  Name = 
  4 active torsions:
  status: ('A' for Active; 'I' for Inactive)
    1  A    between atoms: O_3  and  C_13
    2  A    between atoms: O_3  and  C_29
    3  A    between atoms: C_12  and  N_28
    4  A    between atoms: C_13  and  C_33
                            x       y       z     vdW  Elec       q    Type
                         _______ _______ _______ _____ _____    ______ ____

>  <TORSDO>
F 4

$$$$
=
 OpenBabel11052418553D

 34 39  0  0  1  0  0  0  0  0999 V2000
  188.1350  177.3170  144.2140 C   0  0  2  0  0  3  0  0  0  0  0  0
  188.1430  175.7300  146.2170 C   0  0  1  0  0  3  0  0  0  0  0  0
  189.9470  175.6420  144.4650 C   0  0  0  0  0  0  0  0  0  0  0  0
  192.1440  174.7930  143.9600 C   0  0  0  0  0  0  0  0  0  0  0  0
  186.2050  177.2650  145.8380 C   0  0  0  0  0  2  0  0  0  0  0  0
  187.1010  176.6200  146.8860 C   0  0  0  0  0  2  0  0  0  0  0  0
  191.8200  176.4140  145.7370 C   0  0  0  0  0  3  0  0  0  0  0  0
  189.0040  176.5410  145.2290 C   0  0  1  0  0  3  0  0  0  0  0  0
  193.1900  176.3960  146.0040 C   0  0  0  0  0  3  0  0  0  0  0  0
  193.5140  174.7810  144.2360 C   0  0  0  0  0  3  0  0  0  0  0  0
  187.0430  178.1340  144.9050 C   0  0  0  0  0  2  0  0  0  0  0  0
  189.3180  174.8140  143.3620 C   0  0  2  0  0  3  0  0  0  0  0  0
  187.5430  176.3850  143.1490 C   0  0  0  0  0  2  0  0  0  0  0  0
  189.0060  175.1040  147.2980 C   0  0  0  0  0  1  0  0  0  0  0  0
  191.6880  174.0200  142.9770 C   0  0  0  0  0  3  0  0  0  0  0  0
  190.2920  173.9900  142.6420 N   0  0  0  0  0  0  0  0  0  0  0  0
  194.0450  175.5770  145.2530 C   0  0  0  0  0  0  0  0  0  0  0  0
  191.2740  175.6150  144.7170 C   0  0  0  0  0  0  0  0  0  0  0  0
  188.6150  175.6970  142.4290 N   0  0  0  0  0  2  0  0  0  0  0  0
  190.4060  171.0500  140.2700 C   0  0  0  0  0  0  0  0  0  0  0  0
  189.7340  171.6210  139.1820 O   0  0  0  0  0  0  0  0  0  0  0  0
  189.8070  173.0740  141.6140 C   0  0  2  0  0  3  0  0  0  0  0  0
  188.9900  172.8330  139.2940 C   0  0  0  0  0  2  0  0  0  0  0  0
  190.7340  171.8640  141.4840 C   0  0  0  0  0  2  0  0  0  0  0  0
  189.6470  173.7910  140.2770 C   0  0  0  0  0  2  0  0  0  0  0  0
  190.8330  169.8350  140.1870 N   0  0  0  0  0  2  0  0  0  0  0  0
  195.4210  175.5370  145.4950 O   0  0  0  0  0  0  0  0  0  0  0  0
  196.3740  175.3010  144.4660 C   0  0  0  0  0  2  0  0  0  0  0  0
  197.7200  172.5810  142.8010 C   0  0  0  0  0  1  0  0  0  0  0  0
  196.6260  172.9180  143.7940 C   0  0  2  0  0  3  0  0  0  0  0  0
  196.8140  172.0060  146.0400 C   0  0  0  0  0  2  0  0  0  0  0  0
  196.8210  173.5130  146.1390 C   0  0  0  0  0  2  0  0  0  0  0  0
  197.1130  174.0030  144.7370 C   0  0  2  0  0  3  0  0  0  0  0  0
  196.3130  171.6990  144.6440 C   0  0  0  0  0  2  0  0  0  0  0  0
  1 13  1  6  0  0  0
  1 11  1  0  0  0  0
  1  8  1  0  0  0  0
  2  6  1  0  0  0  0
  2 14  1  1  0  0  0
  3 18  2  0  0  0  0
  4 10  1  0  0  0  0
  4 18  1  0  0  0  0
  5  6  1  0  0  0  0
  7  9  2  0  0  0  0
  8  3  1  6  0  0  0
  8  2  1  0  0  0  0
 10 17  2  0  0  0  0
 11  5  1  0  0  0  0
 12 19  1  6  0  0  0
 12  3  1  0  0  0  0
 15  4  2  0  0  0  0
 16 15  1  0  0  0  0
 16 12  1  0  0  0  0
 17 27  1  0  0  0  0
 17  9  1  0  0  0  0
 18  7  1  0  0  0  0
 19 13  1  0  0  0  0
 20 24  1  0  0  0  0
 21 23  1  0  0  0  0
 21 20  1  0  0  0  0
 22 25  1  6  0  0  0
 22 16  1  0  0  0  0
 23 25  1  0  0  0  0
 24 22  1  0  0  0  0
 26 20  2  0  0  0  0
 28 27  1  0  0  0  0
 30 29  1  6  0  0  0
 30 34  1  0  0  0  0
 30 33  1  0  0  0  0
 31 32  1  0  0  0  0
 33 28  1  6  0  0  0
 33 32  1  0  0  0  0
 34 31  1  0  0  0  0
M  END
>  <MODEL>
7

>  <REMARK>
 VINA RESULT:      -8.2      1.780      2.736
  Name = 
  4 active torsions:
  status: ('A' for Active; 'I' for Inactive)
    1  A    between atoms: O_3  and  C_13
    2  A    between atoms: O_3  and  C_29
    3  A    between atoms: C_12  and  N_28
    4  A    between atoms: C_13  and  C_33
                            x       y       z     vdW  Elec       q    Type
                         _______ _______ _______ _____ _____    ______ ____

>  <TORSDO>
F 4

$$$$
=
 OpenBabel11052418553D

 34 39  0  0  1  0  0  0  0  0999 V2000
  192.0900  176.7160  144.4600 C   0  0  2  0  0  3  0  0  0  0  0  0
  191.1040  174.5480  145.3830 C   0  0  1  0  0  3  0  0  0  0  0  0
  189.9880  175.8040  143.5120 C   0  0  0  0  0  0  0  0  0  0  0  0
  188.3260  175.6560  141.7730 C   0  0  0  0  0  0  0  0  0  0  0  0
  193.0940  175.5900  146.4810 C   0  0  0  0  0  2  0  0  0  0  0  0
  192.4320  174.2790  146.0830 C   0  0  0  0  0  2  0  0  0  0  0  0
  190.3160  174.2690  141.7060 C   0  0  0  0  0  3  0  0  0  0  0  0
  191.3100  175.4230  144.1320 C   0  0  1  0  0  3  0  0  0  0  0  0
  189.8770  173.6960  140.5120 C   0  0  0  0  0  3  0  0  0  0  0  0
  187.8940  175.0750  140.5780 C   0  0  0  0  0  3  0  0  0  0  0  0
  193.3740  176.4270  145.2370 C   0  0  0  0  0  2  0  0  0  0  0  0
  189.2060  176.8820  144.2360 C   0  0  2  0  0  3  0  0  0  0  0  0
  191.2100  177.7340  145.1980 C   0  0  0  0  0  2  0  0  0  0  0  0
  190.4780  173.2150  145.0130 C   0  0  0  0  0  1  0  0  0  0  0  0
  187.5610  176.5890  142.3380 C   0  0  0  0  0  3  0  0  0  0  0  0
  187.9500  177.2260  143.5640 N   0  0  0  0  0  0  0  0  0  0  0  0
  188.6600  174.0960  139.9410 C   0  0  0  0  0  0  0  0  0  0  0  0
  189.5520  175.2540  142.3570 C   0  0  0  0  0  0  0  0  0  0  0  0
  190.0430  178.0760  144.3830 N   0  0  0  0  0  2  0  0  0  0  0  0
  185.3030  178.4400  145.9730 C   0  0  0  0  0  0  0  0  0  0  0  0
  184.6420  179.3450  145.1330 O   0  0  0  0  0  0  0  0  0  0  0  0
  187.0560  178.1860  144.2050 C   0  0  2  0  0  3  0  0  0  0  0  0
  185.2020  179.7910  143.8980 C   0  0  0  0  0  2  0  0  0  0  0  0
  186.4120  177.5770  145.4520 C   0  0  0  0  0  2  0  0  0  0  0  0
  185.9980  178.6820  143.2250 C   0  0  0  0  0  2  0  0  0  0  0  0
  184.8890  178.2780  147.1840 N   0  0  0  0  0  2  0  0  0  0  0  0
  188.1930  173.5430  138.7460 O   0  0  0  0  0  0  0  0  0  0  0  0
  188.5750  174.0390  137.4690 C   0  0  0  0  0  2  0  0  0  0  0  0
  190.8250  173.9730  134.8400 C   0  0  0  0  0  1  0  0  0  0  0  0
  189.6380  173.2020  135.3810 C   0  0  2  0  0  3  0  0  0  0  0  0
  190.0200  170.9270  136.1480 C   0  0  0  0  0  2  0  0  0  0  0  0
  189.5180  171.7410  137.3160 C   0  0  0  0  0  2  0  0  0  0  0  0
  189.6920  173.1860  136.8980 C   0  0  2  0  0  3  0  0  0  0  0  0
  189.7130  171.7580  134.9190 C   0  0  0  0  0  2  0  0  0  0  0  0
  1 13  1  1  0  0  0
  1 11  1  0  0  0  0
  2 14  1  6  0  0  0
  2  6  1  0  0  0  0
  4 15  2  0  0  0  0
  4 18  1  0  0  0  0
  6  5  1  0  0  0  0
  7 18  1  0  0  0  0
  8  3  1  1  0  0  0
  8  1  1  0  0  0  0
  8  2  1  0  0  0  0
  9  7  2  0  0  0  0
 10  4  1  0  0  0  0
 11  5  1  0  0  0  0
 12  3  1  6  0  0  0
 12 19  1  0  0  0  0
 15 16  1  0  0  0  0
 16 22  1  0  0  0  0
 16 12  1  0  0  0  0
 17  9  1  0  0  0  0
 17 10  2  0  0  0  0
 18  3  2  0  0  0  0
 19 13  1  0  0  0  0
 20 26  2  0  0  0  0
 21 20  1  0  0  0  0
 22 25  1  6  0  0  0
 22 24  1  0  0  0  0
 23 21  1  0  0  0  0
 24 20  1  0  0  0  0
 25 23  1  0  0  0  0
 27 17  1  0  0  0  0
 28 27  1  0  0  0  0
 30 29  1  6  0  0  0
 30 33  1  0  0  0  0
 31 32  1  0  0  0  0
 33 32  1  0  0  0  0
 33 28  1  1  0  0  0
 34 30  1  0  0  0  0
 34 31  1  0  0  0  0
M  END
>  <MODEL>
8

>  <REMARK>
 VINA RESULT:      -8.1      2.867      7.624
  Name = 
  4 active torsions:
  status: ('A' for Active; 'I' for Inactive)
    1  A    between atoms: O_3  and  C_13
    2  A    between atoms: O_3  and  C_29
    3  A    between atoms: C_12  and  N_28
    4  A    between atoms: C_13  and  C_33
                            x       y       z     vdW  Elec       q    Type
                         _______ _______ _______ _____ _____    ______ ____

>  <TORSDO>
F 4

$$$$
=
 OpenBabel11052418553D

 34 39  0  0  1  0  0  0  0  0999 V2000
  185.7240  176.7020  146.1130 C   0  0  2  0  0  3  0  0  0  0  0  0
  186.3330  178.7550  144.7200 C   0  0  1  0  0  3  0  0  0  0  0  0
  187.6180  176.6020  144.5150 C   0  0  0  0  0  0  0  0  0  0  0  0
  189.1970  175.3870  143.1610 C   0  0  0  0  0  0  0  0  0  0  0  0
  184.5740  178.9150  146.4900 C   0  0  0  0  0  2  0  0  0  0  0  0
  184.9910  179.3720  145.0990 C   0  0  0  0  0  2  0  0  0  0  0  0
  186.9960  175.9370  142.3030 C   0  0  0  0  0  3  0  0  0  0  0  0
  186.2610  177.2170  144.7590 C   0  0  1  0  0  3  0  0  0  0  0  0
  187.3070  175.3060  141.0980 C   0  0  0  0  0  3  0  0  0  0  0  0
  189.5000  174.7590  141.9500 C   0  0  0  0  0  3  0  0  0  0  0  0
  184.4230  177.3980  146.5130 C   0  0  0  0  0  2  0  0  0  0  0  0
  188.5880  176.6660  145.6780 C   0  0  2  0  0  3  0  0  0  0  0  0
  186.7810  176.8190  147.2200 C   0  0  0  0  0  2  0  0  0  0  0  0
  186.7100  179.2440  143.3320 C   0  0  0  0  0  1  0  0  0  0  0  0
  190.1230  175.3990  144.1190 C   0  0  0  0  0  3  0  0  0  0  0  0
  189.8730  176.0250  145.3860 N   0  0  0  0  0  0  0  0  0  0  0  0
  188.5640  174.7140  140.9150 C   0  0  0  0  0  0  0  0  0  0  0  0
  187.9310  175.9920  143.3520 C   0  0  0  0  0  0  0  0  0  0  0  0
  187.9750  176.0540  146.8590 N   0  0  0  0  0  2  0  0  0  0  0  0
  191.7580  177.3950  148.3610 C   0  0  0  0  0  0  0  0  0  0  0  0
  193.0660  177.1660  147.9150 O   0  0  0  0  0  0  0  0  0  0  0  0
  190.9320  176.0950  146.3890 C   0  0  2  0  0  3  0  0  0  0  0  0
  193.3570  176.3190  146.8050 C   0  0  0  0  0  2  0  0  0  0  0  0
  190.5830  177.1160  147.4730 C   0  0  0  0  0  2  0  0  0  0  0  0
  192.2740  176.4170  145.7410 C   0  0  0  0  0  2  0  0  0  0  0  0
  191.5660  177.9430  149.5140 N   0  0  0  0  0  2  0  0  0  0  0  0
  188.9070  174.0730  139.7210 O   0  0  0  0  0  0  0  0  0  0  0  0
  188.5920  172.7110  139.4630 C   0  0  0  0  0  2  0  0  0  0  0  0
  192.0120  172.9740  139.9270 C   0  0  0  0  0  1  0  0  0  0  0  0
  190.9920  172.8230  138.8170 C   0  0  2  0  0  3  0  0  0  0  0  0
  191.0330  170.7710  137.5140 C   0  0  0  0  0  2  0  0  0  0  0  0
  189.6890  170.8720  138.1940 C   0  0  0  0  0  2  0  0  0  0  0  0
  189.8690  171.9130  139.2790 C   0  0  2  0  0  3  0  0  0  0  0  0
  191.6390  172.1540  137.6160 C   0  0  0  0  0  2  0  0  0  0  0  0
  1 11  1  1  0  0  0
  1 13  1  0  0  0  0
  2 14  1  6  0  0  0
  2  8  1  0  0  0  0
  2  6  1  0  0  0  0
  4 18  1  0  0  0  0
  4 15  2  0  0  0  0
  5 11  1  0  0  0  0
  6  5  1  0  0  0  0
  7 18  1  0  0  0  0
  8  3  1  1  0  0  0
  8  1  1  0  0  0  0
  9  7  2  0  0  0  0
 10  4  1  0  0  0  0
 12  3  1  6  0  0  0
 12 19  1  0  0  0  0
 15 16  1  0  0  0  0
 16 12  1  0  0  0  0
 17  9  1  0  0  0  0
 17 10  2  0  0  0  0
 18  3  2  0  0  0  0
 19 13  1  0  0  0  0
 20 26  2  0  0  0  0
 21 20  1  0  0  0  0
 22 16  1  6  0  0  0
 22 24  1  0  0  0  0
 23 21  1  0  0  0  0
 24 20  1  0  0  0  0
 25 22  1  0  0  0  0
 25 23  1  0  0  0  0
 27 17  1  0  0  0  0
 28 27  1  0  0  0  0
 30 33  1  0  0  0  0
 30 29  1  1  0  0  0
 31 34  1  0  0  0  0
 31 32  1  0  0  0  0
 32 33  1  0  0  0  0
 33 28  1  6  0  0  0
 34 30  1  0  0  0  0
M  END
>  <MODEL>
9

>  <REMARK>
 VINA RESULT:      -7.9      2.176      6.426
  Name = 
  4 active torsions:
  status: ('A' for Active; 'I' for Inactive)
    1  A    between atoms: O_3  and  C_13
    2  A    between atoms: O_3  and  C_29
    3  A    between atoms: C_12  and  N_28
    4  A    between atoms: C_13  and  C_33
                            x       y       z     vdW  Elec       q    Type
                         _______ _______ _______ _____ _____    ______ ____

>  <TORSDO>
F 4

$$$$
