=
 OpenBabel11052419123D

 32 36  0  0  1  0  0  0  0  0999 V2000
  187.7430  176.7950  145.3840 C   0  0  0  0  0  0  0  0  0  0  0  0
  187.5460  178.2190  143.2960 C   0  0  2  0  0  3  0  0  0  0  0  0
  187.2310  176.3910  146.6240 C   0  0  0  0  0  3  0  0  0  0  0  0
  187.1260  177.8470  144.6870 C   0  0  0  0  0  0  0  0  0  0  0  0
  186.3950  177.9730  142.3240 C   0  0  0  0  0  2  0  0  0  0  0  0
  188.8470  177.5430  142.8360 C   0  0  0  0  0  2  0  0  0  0  0  0
  185.9820  178.4590  145.2180 C   0  0  0  0  0  0  0  0  0  0  0  0
  185.1370  179.7310  144.2730 S   0  0  0  0  0  0  0  0  0  0  0  0
  185.4680  178.0390  146.4480 C   0  0  0  0  0  3  0  0  0  0  0  0
  189.0220  176.1660  143.3190 N   0  0  0  0  0  0  0  0  0  0  0  0
  188.9110  176.0560  144.7820 C   0  0  1  0  0  3  0  0  0  0  0  0
  185.1270  178.7830  142.6850 C   0  0  2  0  0  3  0  0  0  0  0  0
  186.0990  177.0140  147.1560 C   0  0  0  0  0  3  0  0  0  0  0  0
  191.8550  175.3220  147.2850 C   0  0  2  0  0  3  0  0  0  0  0  0
  194.5130  176.9750  146.0320 F   0  0  0  0  0  0  0  0  0  0  0  0
  191.2460  175.3910  148.5250 F   0  0  0  0  0  0  0  0  0  0  0  0
  192.5800  176.8930  144.6850 C   0  0  0  0  0  3  0  0  0  0  0  0
  190.2660  176.2260  145.4880 C   0  0  2  0  0  3  0  0  0  0  0  0
  192.5210  176.5370  147.0390 O   0  0  0  0  0  0  0  0  0  0  0  0
  191.2530  176.8040  144.4990 C   0  0  0  0  0  3  0  0  0  0  0  0
  190.8170  174.9700  146.1960 C   0  0  2  0  0  3  0  0  0  0  0  0
  189.8200  174.1810  146.7400 F   0  0  0  0  0  0  0  0  0  0  0  0
  193.2930  176.3430  145.8880 C   0  0  2  0  0  3  0  0  0  0  0  0
  183.9210  178.0990  142.4350 O   0  0  0  0  0  0  0  0  0  0  0  0
  183.6210  178.2180  141.0700 C   0  0  0  0  0  1  0  0  0  0  0  0
  188.0420  175.2880  142.6870 C   0  0  0  0  0  2  0  0  0  0  0  0
  190.2320  174.2740  142.0980 C   0  0  0  0  0  2  0  0  0  0  0  0
  189.3580  172.1330  142.7170 N   0  0  0  0  0  0  0  0  0  0  0  0
  188.3280  172.9010  142.1380 C   0  0  0  0  0  0  0  0  0  0  0  0
  187.1770  172.4370  141.9300 O   0  0  0  0  0  0  0  0  0  0  0  0
  190.5520  172.9510  142.8080 C   0  0  0  0  0  3  0  0  0  0  0  0
  188.7370  174.2770  141.7850 C   0  0  1  0  0  3  0  0  0  0  0  0
  1  3  1  0  0  0  0
  2  5  1  6  0  0  0
  2  4  1  0  0  0  0
  3 13  2  0  0  0  0
  4  7  1  0  0  0  0
  4  1  2  0  0  0  0
  5 12  1  0  0  0  0
  6  2  1  0  0  0  0
  6 10  1  0  0  0  0
  7  9  2  0  0  0  0
  8  7  1  0  0  0  0
  9 13  1  0  0  0  0
 10 11  1  0  0  0  0
 11  1  1  1  0  0  0
 11 18  1  0  0  0  0
 12 24  1  1  0  0  0
 12  8  1  0  0  0  0
 14 16  1  1  0  0  0
 17 23  1  0  0  0  0
 18 20  1  6  0  0  0
 18 21  1  0  0  0  0
 19 14  1  0  0  0  0
 20 17  2  0  0  0  0
 21 22  1  1  0  0  0
 21 14  1  0  0  0  0
 23 15  1  1  0  0  0
 23 19  1  0  0  0  0
 25 24  1  0  0  0  0
 26 10  1  0  0  0  0
 27 31  1  0  0  0  0
 28 31  2  0  0  0  0
 29 28  1  0  0  0  0
 30 29  2  0  0  0  0
 32 27  1  0  0  0  0
 32 29  1  0  0  0  0
 32 26  1  1  0  0  0
M  END
>  <MODEL>
1

>  <REMARK>
 VINA RESULT:      -9.2      0.000      0.000
  Name = 
  4 active torsions:
  status: ('A' for Active; 'I' for Inactive)
    1  A    between atoms: O_13  and  C_29
    2  A    between atoms: C_16  and  C_27
    3  A    between atoms: N_24  and  C_28
    4  A    between atoms: C_28  and  C_32
                            x       y       z     vdW  Elec       q    Type
                         _______ _______ _______ _____ _____    ______ ____

>  <TORSDO>
F 4

$$$$
=
 OpenBabel11052419123D

 32 36  0  0  1  0  0  0  0  0999 V2000
  188.0080  176.5300  144.8540 C   0  0  0  0  0  0  0  0  0  0  0  0
  187.4760  177.7410  142.6910 C   0  0  2  0  0  3  0  0  0  0  0  0
  187.7560  176.3220  146.2160 C   0  0  0  0  0  3  0  0  0  0  0  0
  187.3510  177.5700  144.1760 C   0  0  0  0  0  0  0  0  0  0  0  0
  186.1160  177.5360  142.0290 C   0  0  0  0  0  2  0  0  0  0  0  0
  188.5680  176.8680  142.0530 C   0  0  0  0  0  2  0  0  0  0  0  0
  186.4220  178.3680  144.8580 C   0  0  0  0  0  0  0  0  0  0  0  0
  185.5070  179.6270  143.9600 S   0  0  0  0  0  0  0  0  0  0  0  0
  186.1640  178.1450  146.2120 C   0  0  0  0  0  3  0  0  0  0  0  0
  188.7180  175.5380  142.6610 N   0  0  0  0  0  0  0  0  0  0  0  0
  188.9330  175.5960  144.1150 C   0  0  1  0  0  3  0  0  0  0  0  0
  185.0460  178.5270  142.5470 C   0  0  2  0  0  3  0  0  0  0  0  0
  186.8400  177.1300  146.8940 C   0  0  0  0  0  3  0  0  0  0  0  0
  192.5030  177.1670  144.6250 C   0  0  2  0  0  3  0  0  0  0  0  0
  194.1130  175.0500  146.6970 F   0  0  0  0  0  0  0  0  0  0  0  0
  192.8320  177.6280  143.3630 F   0  0  0  0  0  0  0  0  0  0  0  0
  191.8150  174.6530  146.3460 C   0  0  0  0  0  3  0  0  0  0  0  0
  190.4230  175.6740  144.4850 C   0  0  2  0  0  3  0  0  0  0  0  0
  193.1430  175.9320  144.8380 O   0  0  0  0  0  0  0  0  0  0  0  0
  190.6880  174.7090  145.6180 C   0  0  0  0  0  3  0  0  0  0  0  0
  190.9680  177.0870  144.7830 C   0  0  2  0  0  3  0  0  0  0  0  0
  190.3690  178.0660  144.0110 F   0  0  0  0  0  0  0  0  0  0  0  0
  192.9590  175.6150  146.1890 C   0  0  2  0  0  3  0  0  0  0  0  0
  183.7560  177.9710  142.6530 O   0  0  0  0  0  0  0  0  0  0  0  0
  183.0690  178.2210  141.4560 C   0  0  0  0  0  1  0  0  0  0  0  0
  187.5410  174.7240  142.3720 C   0  0  0  0  0  2  0  0  0  0  0  0
  188.5710  173.9340  140.2550 C   0  0  0  0  0  2  0  0  0  0  0  0
  190.2540  172.8170  141.5400 N   0  0  0  0  0  0  0  0  0  0  0  0
  189.0300  172.7630  142.2370 C   0  0  0  0  0  0  0  0  0  0  0  0
  188.8970  172.1320  143.3180 O   0  0  0  0  0  0  0  0  0  0  0  0
  190.0680  173.6070  140.3380 C   0  0  0  0  0  3  0  0  0  0  0  0
  187.9300  173.4910  141.5690 C   0  0  1  0  0  3  0  0  0  0  0  0
  1  3  1  0  0  0  0
  2  5  1  6  0  0  0
  2  4  1  0  0  0  0
  3 13  2  0  0  0  0
  4  1  2  0  0  0  0
  4  7  1  0  0  0  0
  5 12  1  0  0  0  0
  6 10  1  0  0  0  0
  6  2  1  0  0  0  0
  7  9  2  0  0  0  0
  8  7  1  0  0  0  0
  9 13  1  0  0  0  0
 10 11  1  0  0  0  0
 11 18  1  0  0  0  0
 11  1  1  6  0  0  0
 12 24  1  1  0  0  0
 12  8  1  0  0  0  0
 14 16  1  6  0  0  0
 14 21  1  0  0  0  0
 14 19  1  0  0  0  0
 18 21  1  0  0  0  0
 18 20  1  1  0  0  0
 19 23  1  0  0  0  0
 20 17  2  0  0  0  0
 21 22  1  6  0  0  0
 23 17  1  0  0  0  0
 23 15  1  6  0  0  0
 25 24  1  0  0  0  0
 26 10  1  0  0  0  0
 27 31  1  0  0  0  0
 27 32  1  0  0  0  0
 28 29  1  0  0  0  0
 29 30  2  0  0  0  0
 31 28  2  0  0  0  0
 32 29  1  0  0  0  0
 32 26  1  1  0  0  0
M  END
>  <MODEL>
2

>  <REMARK>
 VINA RESULT:      -8.1      1.476      2.025
  Name = 
  4 active torsions:
  status: ('A' for Active; 'I' for Inactive)
    1  A    between atoms: O_13  and  C_29
    2  A    between atoms: C_16  and  C_27
    3  A    between atoms: N_24  and  C_28
    4  A    between atoms: C_28  and  C_32
                            x       y       z     vdW  Elec       q    Type
                         _______ _______ _______ _____ _____    ______ ____

>  <TORSDO>
F 4

$$$$
=
 OpenBabel11052419123D

 32 36  0  0  1  0  0  0  0  0999 V2000
  190.2390  175.4740  145.3550 C   0  0  0  0  0  0  0  0  0  0  0  0
  189.4090  177.6860  144.4350 C   0  0  2  0  0  3  0  0  0  0  0  0
  190.0890  174.4040  146.2470 C   0  0  0  0  0  3  0  0  0  0  0  0
  189.3850  176.5850  145.4530 C   0  0  0  0  0  0  0  0  0  0  0  0
  188.0730  177.7400  143.6980 C   0  0  0  0  0  2  0  0  0  0  0  0
  190.6010  177.6140  143.4680 C   0  0  0  0  0  2  0  0  0  0  0  0
  188.3670  176.5990  146.4170 C   0  0  0  0  0  0  0  0  0  0  0  0
  187.2130  177.9740  146.4690 S   0  0  0  0  0  0  0  0  0  0  0  0
  188.2150  175.5210  147.2930 C   0  0  0  0  0  3  0  0  0  0  0  0
  191.0010  176.2490  143.0940 N   0  0  0  0  0  0  0  0  0  0  0  0
  191.2720  175.3940  144.2600 C   0  0  1  0  0  3  0  0  0  0  0  0
  186.8770  177.9810  144.6500 C   0  0  2  0  0  3  0  0  0  0  0  0
  189.0830  174.4300  147.2160 C   0  0  0  0  0  3  0  0  0  0  0  0
  194.4760  176.6410  146.1710 C   0  0  2  0  0  3  0  0  0  0  0  0
  196.6810  174.1010  145.9500 F   0  0  0  0  0  0  0  0  0  0  0  0
  194.5780  177.9670  145.7910 F   0  0  0  0  0  0  0  0  0  0  0  0
  194.4910  173.6770  145.1870 C   0  0  0  0  0  3  0  0  0  0  0  0
  192.7430  175.4520  144.7020 C   0  0  2  0  0  3  0  0  0  0  0  0
  195.3730  175.8790  145.4000 O   0  0  0  0  0  0  0  0  0  0  0  0
  193.3100  174.0520  144.6690 C   0  0  0  0  0  3  0  0  0  0  0  0
  193.0130  176.1590  146.0470 C   0  0  2  0  0  3  0  0  0  0  0  0
  192.1530  177.2180  146.2780 F   0  0  0  0  0  0  0  0  0  0  0  0
  195.3920  174.5970  145.9620 C   0  0  2  0  0  3  0  0  0  0  0  0
  185.7060  177.2910  144.2820 O   0  0  0  0  0  0  0  0  0  0  0  0
  186.0150  176.4320  143.2180 C   0  0  0  0  0  1  0  0  0  0  0  0
  189.9660  175.6360  142.2670 C   0  0  0  0  0  2  0  0  0  0  0  0
  188.7780  173.4550  142.2990 C   0  0  0  0  0  2  0  0  0  0  0  0
  189.6920  172.9740  140.1390 N   0  0  0  0  0  0  0  0  0  0  0  0
  190.6360  173.7060  140.8870 C   0  0  0  0  0  0  0  0  0  0  0  0
  191.7920  173.9540  140.4540 O   0  0  0  0  0  0  0  0  0  0  0  0
  188.4750  172.8550  140.9190 C   0  0  0  0  0  3  0  0  0  0  0  0
  190.1480  174.1260  142.2180 C   0  0  1  0  0  3  0  0  0  0  0  0
  1  4  2  0  0  0  0
  1  3  1  0  0  0  0
  2  6  1  6  0  0  0
  2  4  1  0  0  0  0
  3 13  2  0  0  0  0
  4  7  1  0  0  0  0
  5  2  1  0  0  0  0
  5 12  1  0  0  0  0
  7  8  1  0  0  0  0
  7  9  2  0  0  0  0
 10  6  1  0  0  0  0
 10 11  1  0  0  0  0
 11 18  1  0  0  0  0
 11  1  1  1  0  0  0
 12 24  1  1  0  0  0
 12  8  1  0  0  0  0
 13  9  1  0  0  0  0
 14 16  1  6  0  0  0
 17 23  1  0  0  0  0
 18 20  1  1  0  0  0
 18 21  1  0  0  0  0
 19 23  1  0  0  0  0
 19 14  1  0  0  0  0
 20 17  2  0  0  0  0
 21 14  1  0  0  0  0
 21 22  1  6  0  0  0
 23 15  1  6  0  0  0
 25 24  1  0  0  0  0
 26 10  1  0  0  0  0
 28 29  1  0  0  0  0
 28 31  2  0  0  0  0
 29 32  1  0  0  0  0
 30 29  2  0  0  0  0
 31 27  1  0  0  0  0
 32 26  1  6  0  0  0
 32 27  1  0  0  0  0
M  END
>  <MODEL>
3

>  <REMARK>
 VINA RESULT:      -8.0      2.177      3.120
  Name = 
  4 active torsions:
  status: ('A' for Active; 'I' for Inactive)
    1  A    between atoms: O_13  and  C_29
    2  A    between atoms: C_16  and  C_27
    3  A    between atoms: N_24  and  C_28
    4  A    between atoms: C_28  and  C_32
                            x       y       z     vdW  Elec       q    Type
                         _______ _______ _______ _____ _____    ______ ____

>  <TORSDO>
F 4

$$$$
=
 OpenBabel11052419123D

 32 36  0  0  1  0  0  0  0  0999 V2000
  187.2990  176.8420  145.8000 C   0  0  0  0  0  0  0  0  0  0  0  0
  187.7660  178.2780  143.7630 C   0  0  2  0  0  3  0  0  0  0  0  0
  186.4170  176.4150  146.8010 C   0  0  0  0  0  3  0  0  0  0  0  0
  186.9200  177.8830  144.9380 C   0  0  0  0  0  0  0  0  0  0  0  0
  187.0080  178.0110  142.4650 C   0  0  0  0  0  2  0  0  0  0  0  0
  189.1630  177.6370  143.7590 C   0  0  0  0  0  2  0  0  0  0  0  0
  185.6490  178.4620  145.0600 C   0  0  0  0  0  0  0  0  0  0  0  0
  185.1310  179.7210  143.8880 S   0  0  0  0  0  0  0  0  0  0  0  0
  184.7690  178.0210  146.0510 C   0  0  0  0  0  3  0  0  0  0  0  0
  189.2050  176.2610  144.2750 N   0  0  0  0  0  0  0  0  0  0  0  0
  188.6190  176.1370  145.6190 C   0  0  1  0  0  3  0  0  0  0  0  0
  185.6710  178.7860  142.3860 C   0  0  2  0  0  3  0  0  0  0  0  0
  185.1570  177.0060  146.9290 C   0  0  0  0  0  3  0  0  0  0  0  0
  192.0740  175.9120  147.4860 C   0  0  2  0  0  3  0  0  0  0  0  0
  191.9380  178.2780  149.8830 F   0  0  0  0  0  0  0  0  0  0  0  0
  192.3050  174.5510  147.5680 F   0  0  0  0  0  0  0  0  0  0  0  0
  190.1780  178.2510  148.3150 C   0  0  0  0  0  3  0  0  0  0  0  0
  189.6600  176.3350  146.7330 C   0  0  2  0  0  3  0  0  0  0  0  0
  191.5660  176.3590  148.7200 O   0  0  0  0  0  0  0  0  0  0  0  0
  189.3660  177.6400  147.4370 C   0  0  0  0  0  3  0  0  0  0  0  0
  191.1370  176.2270  146.2980 C   0  0  2  0  0  3  0  0  0  0  0  0
  191.3330  175.2980  145.2920 F   0  0  0  0  0  0  0  0  0  0  0  0
  191.5540  177.7580  148.6630 C   0  0  2  0  0  3  0  0  0  0  0  0
  184.6340  178.0740  141.7520 O   0  0  0  0  0  0  0  0  0  0  0  0
  184.7320  178.2890  140.3700 C   0  0  0  0  0  1  0  0  0  0  0  0
  188.5120  175.3640  143.3540 C   0  0  0  0  0  2  0  0  0  0  0  0
  188.5060  173.0690  142.4050 C   0  0  0  0  0  2  0  0  0  0  0  0
  190.0810  173.7920  140.7550 N   0  0  0  0  0  0  0  0  0  0  0  0
  190.3400  174.4640  141.9660 C   0  0  0  0  0  0  0  0  0  0  0  0
  191.3200  175.2430  142.1090 O   0  0  0  0  0  0  0  0  0  0  0  0
  188.8970  172.9720  140.9250 C   0  0  0  0  0  3  0  0  0  0  0  0
  189.3760  174.1500  143.0420 C   0  0  1  0  0  3  0  0  0  0  0  0
  1  3  1  0  0  0  0
  2  5  1  6  0  0  0
  2  4  1  0  0  0  0
  3 13  2  0  0  0  0
  4  7  1  0  0  0  0
  4  1  2  0  0  0  0
  6  2  1  0  0  0  0
  6 10  1  0  0  0  0
  7  9  2  0  0  0  0
  8  7  1  0  0  0  0
  9 13  1  0  0  0  0
 10 11  1  0  0  0  0
 11  1  1  1  0  0  0
 11 18  1  0  0  0  0
 12 24  1  1  0  0  0
 12  5  1  0  0  0  0
 12  8  1  0  0  0  0
 14 16  1  1  0  0  0
 14 19  1  0  0  0  0
 17 23  1  0  0  0  0
 18 20  1  6  0  0  0
 20 17  2  0  0  0  0
 21 22  1  6  0  0  0
 21 18  1  0  0  0  0
 21 14  1  0  0  0  0
 23 19  1  0  0  0  0
 23 15  1  1  0  0  0
 25 24  1  0  0  0  0
 26 10  1  0  0  0  0
 27 32  1  0  0  0  0
 28 31  2  0  0  0  0
 28 29  1  0  0  0  0
 29 30  2  0  0  0  0
 29 32  1  0  0  0  0
 31 27  1  0  0  0  0
 32 26  1  6  0  0  0
M  END
>  <MODEL>
4

>  <REMARK>
 VINA RESULT:      -7.8      1.760      2.147
  Name = 
  4 active torsions:
  status: ('A' for Active; 'I' for Inactive)
    1  A    between atoms: O_13  and  C_29
    2  A    between atoms: C_16  and  C_27
    3  A    between atoms: N_24  and  C_28
    4  A    between atoms: C_28  and  C_32
                            x       y       z     vdW  Elec       q    Type
                         _______ _______ _______ _____ _____    ______ ____

>  <TORSDO>
F 4

$$$$
=
 OpenBabel11052419123D

 32 36  0  0  1  0  0  0  0  0999 V2000
  189.9890  176.5290  144.3430 C   0  0  0  0  0  0  0  0  0  0  0  0
  191.1060  174.8760  145.9070 C   0  0  2  0  0  3  0  0  0  0  0  0
  190.0670  177.6740  143.5400 C   0  0  0  0  0  3  0  0  0  0  0  0
  191.0850  176.1670  145.1440 C   0  0  0  0  0  0  0  0  0  0  0  0
  192.2260  173.9820  145.3820 C   0  0  0  0  0  2  0  0  0  0  0  0
  189.7520  174.1490  145.9410 C   0  0  0  0  0  2  0  0  0  0  0  0
  192.2580  176.9320  145.1070 C   0  0  0  0  0  0  0  0  0  0  0  0
  193.6920  176.4050  146.0530 S   0  0  0  0  0  0  0  0  0  0  0  0
  192.3330  178.0640  144.2920 C   0  0  0  0  0  3  0  0  0  0  0  0
  188.9670  174.2660  144.7030 N   0  0  0  0  0  0  0  0  0  0  0  0
  188.7570  175.6620  144.2900 C   0  0  1  0  0  3  0  0  0  0  0  0
  193.6210  174.6420  145.4990 C   0  0  2  0  0  3  0  0  0  0  0  0
  191.2340  178.4420  143.5180 C   0  0  0  0  0  3  0  0  0  0  0  0
  186.3860  177.3520  146.9350 C   0  0  2  0  0  3  0  0  0  0  0  0
  183.7910  178.5570  145.1530 F   0  0  0  0  0  0  0  0  0  0  0  0
  186.4230  176.4740  148.0030 F   0  0  0  0  0  0  0  0  0  0  0  0
  185.6190  177.7100  143.9290 C   0  0  0  0  0  3  0  0  0  0  0  0
  187.4720  176.2620  144.8840 C   0  0  2  0  0  3  0  0  0  0  0  0
  185.2090  177.1190  146.1990 O   0  0  0  0  0  0  0  0  0  0  0  0
  186.6820  176.9050  143.7670 C   0  0  0  0  0  3  0  0  0  0  0  0
  187.6680  177.2140  146.0840 C   0  0  2  0  0  3  0  0  0  0  0  0
  188.7270  176.8450  146.8930 F   0  0  0  0  0  0  0  0  0  0  0  0
  185.1080  178.1600  145.2690 C   0  0  2  0  0  3  0  0  0  0  0  0
  194.4860  174.3440  144.4290 O   0  0  0  0  0  0  0  0  0  0  0  0
  193.7100  173.9530  143.3290 C   0  0  0  0  0  1  0  0  0  0  0  0
  189.6240  173.5300  143.6260 C   0  0  0  0  0  2  0  0  0  0  0  0
  190.3960  174.2460  141.3770 C   0  0  0  0  0  2  0  0  0  0  0  0
  189.0610  172.5080  140.4130 N   0  0  0  0  0  0  0  0  0  0  0  0
  188.4010  173.0220  141.5470 C   0  0  0  0  0  0  0  0  0  0  0  0
  187.2510  172.6390  141.8870 O   0  0  0  0  0  0  0  0  0  0  0  0
  190.3510  173.1590  140.2940 C   0  0  0  0  0  3  0  0  0  0  0  0
  189.1720  174.0540  142.2700 C   0  0  1  0  0  3  0  0  0  0  0  0
  1  4  1  0  0  0  0
  2  5  1  6  0  0  0
  2  6  1  0  0  0  0
  3  1  2  0  0  0  0
  4  2  1  0  0  0  0
  5 12  1  0  0  0  0
  7  4  2  0  0  0  0
  7  8  1  0  0  0  0
  9  7  1  0  0  0  0
 10  6  1  0  0  0  0
 11  1  1  1  0  0  0
 11 10  1  0  0  0  0
 11 18  1  0  0  0  0
 12 24  1  6  0  0  0
 12  8  1  0  0  0  0
 13  3  1  0  0  0  0
 13  9  2  0  0  0  0
 14 16  1  1  0  0  0
 17 23  1  0  0  0  0
 18 20  1  6  0  0  0
 18 21  1  0  0  0  0
 19 14  1  0  0  0  0
 20 17  2  0  0  0  0
 21 22  1  1  0  0  0
 21 14  1  0  0  0  0
 23 15  1  6  0  0  0
 23 19  1  0  0  0  0
 25 24  1  0  0  0  0
 26 10  1  0  0  0  0
 27 32  1  0  0  0  0
 28 29  1  0  0  0  0
 29 30  2  0  0  0  0
 29 32  1  0  0  0  0
 31 28  2  0  0  0  0
 31 27  1  0  0  0  0
 32 26  1  1  0  0  0
M  END
>  <MODEL>
5

>  <REMARK>
 VINA RESULT:      -7.4      2.852      6.024
  Name = 
  4 active torsions:
  status: ('A' for Active; 'I' for Inactive)
    1  A    between atoms: O_13  and  C_29
    2  A    between atoms: C_16  and  C_27
    3  A    between atoms: N_24  and  C_28
    4  A    between atoms: C_28  and  C_32
                            x       y       z     vdW  Elec       q    Type
                         _______ _______ _______ _____ _____    ______ ____

>  <TORSDO>
F 4

$$$$
=
 OpenBabel11052419123D

 32 36  0  0  1  0  0  0  0  0999 V2000
  188.7840  176.7010  143.2390 C   0  0  0  0  0  0  0  0  0  0  0  0
  188.1620  175.5350  145.4030 C   0  0  2  0  0  3  0  0  0  0  0  0
  188.5280  177.6940  142.2860 C   0  0  0  0  0  3  0  0  0  0  0  0
  187.8650  176.4840  144.2800 C   0  0  0  0  0  0  0  0  0  0  0  0
  188.2440  176.3020  146.7210 C   0  0  0  0  0  2  0  0  0  0  0  0
  189.4000  174.6560  145.1670 C   0  0  0  0  0  2  0  0  0  0  0  0
  186.7210  177.2870  144.3770 C   0  0  0  0  0  0  0  0  0  0  0  0
  185.6040  177.0750  145.7690 S   0  0  0  0  0  0  0  0  0  0  0  0
  186.4810  178.2860  143.4310 C   0  0  0  0  0  3  0  0  0  0  0  0
  190.4970  175.3280  144.4540 N   0  0  0  0  0  0  0  0  0  0  0  0
  190.0710  175.9180  143.1760 C   0  0  1  0  0  3  0  0  0  0  0  0
  186.9360  177.0590  147.0530 C   0  0  2  0  0  3  0  0  0  0  0  0
  187.3780  178.4820  142.3790 C   0  0  0  0  0  3  0  0  0  0  0  0
  191.8500  173.6120  140.5320 C   0  0  2  0  0  3  0  0  0  0  0  0
  189.4390  171.5480  139.3950 F   0  0  0  0  0  0  0  0  0  0  0  0
  192.6880  174.4840  139.8600 F   0  0  0  0  0  0  0  0  0  0  0  0
  188.8850  172.9220  141.2290 C   0  0  0  0  0  3  0  0  0  0  0  0
  190.2190  174.9390  142.0000 C   0  0  2  0  0  3  0  0  0  0  0  0
  190.6920  173.4120  139.7570 O   0  0  0  0  0  0  0  0  0  0  0  0
  189.0100  174.0330  141.9740 C   0  0  0  0  0  3  0  0  0  0  0  0
  191.5440  174.1470  141.9480 C   0  0  2  0  0  3  0  0  0  0  0  0
  192.6230  174.8760  142.4150 F   0  0  0  0  0  0  0  0  0  0  0  0
  189.9830  172.3690  140.3640 C   0  0  2  0  0  3  0  0  0  0  0  0
  187.1390  178.3030  147.6810 O   0  0  0  0  0  0  0  0  0  0  0  0
  185.9420  179.0310  147.6160 C   0  0  0  0  0  1  0  0  0  0  0  0
  191.0800  176.3640  145.3020 C   0  0  0  0  0  2  0  0  0  0  0  0
  193.3820  175.4800  145.5940 C   0  0  0  0  0  2  0  0  0  0  0  0
  193.7730  177.1650  147.2480 N   0  0  0  0  0  0  0  0  0  0  0  0
  192.4310  176.7420  147.3290 C   0  0  0  0  0  0  0  0  0  0  0  0
  191.6440  177.1650  148.2160 O   0  0  0  0  0  0  0  0  0  0  0  0
  194.4060  176.4880  146.1330 C   0  0  0  0  0  3  0  0  0  0  0  0
  192.0540  175.7520  146.2980 C   0  0  1  0  0  3  0  0  0  0  0  0
  1  4  1  0  0  0  0
  2  6  1  6  0  0  0
  2  5  1  0  0  0  0
  3 13  1  0  0  0  0
  3  1  2  0  0  0  0
  4  7  2  0  0  0  0
  4  2  1  0  0  0  0
  5 12  1  0  0  0  0
  7  8  1  0  0  0  0
  8 12  1  0  0  0  0
  9  7  1  0  0  0  0
 10  6  1  0  0  0  0
 10 26  1  0  0  0  0
 11  1  1  1  0  0  0
 11 10  1  0  0  0  0
 12 24  1  6  0  0  0
 13  9  2  0  0  0  0
 14 16  1  6  0  0  0
 14 21  1  0  0  0  0
 17 20  2  0  0  0  0
 18 20  1  1  0  0  0
 18 11  1  0  0  0  0
 19 23  1  0  0  0  0
 19 14  1  0  0  0  0
 21 18  1  0  0  0  0
 21 22  1  6  0  0  0
 23 15  1  6  0  0  0
 23 17  1  0  0  0  0
 25 24  1  0  0  0  0
 27 31  1  0  0  0  0
 27 32  1  0  0  0  0
 28 29  1  0  0  0  0
 29 30  2  0  0  0  0
 31 28  2  0  0  0  0
 32 26  1  6  0  0  0
 32 29  1  0  0  0  0
M  END
>  <MODEL>
6

>  <REMARK>
 VINA RESULT:      -7.3      2.927      5.700
  Name = 
  4 active torsions:
  status: ('A' for Active; 'I' for Inactive)
    1  A    between atoms: O_13  and  C_29
    2  A    between atoms: C_16  and  C_27
    3  A    between atoms: N_24  and  C_28
    4  A    between atoms: C_28  and  C_32
                            x       y       z     vdW  Elec       q    Type
                         _______ _______ _______ _____ _____    ______ ____

>  <TORSDO>
F 4

$$$$
=
 OpenBabel11052419123D

 32 36  0  0  1  0  0  0  0  0999 V2000
  189.9160  175.3840  145.1240 C   0  0  0  0  0  0  0  0  0  0  0  0
  189.0670  177.5530  144.1220 C   0  0  2  0  0  3  0  0  0  0  0  0
  189.8310  174.3950  146.1120 C   0  0  0  0  0  3  0  0  0  0  0  0
  189.1190  176.5360  145.2240 C   0  0  0  0  0  0  0  0  0  0  0  0
  187.6600  177.6090  143.5340 C   0  0  0  0  0  2  0  0  0  0  0  0
  190.1390  177.3520  143.0390 C   0  0  0  0  0  2  0  0  0  0  0  0
  188.2180  176.6710  146.2890 C   0  0  0  0  0  0  0  0  0  0  0  0
  187.1270  178.0960  146.3540 S   0  0  0  0  0  0  0  0  0  0  0  0
  188.1270  175.6720  147.2620 C   0  0  0  0  0  3  0  0  0  0  0  0
  190.4450  175.9470  142.7370 N   0  0  0  0  0  0  0  0  0  0  0  0
  190.8150  175.1730  143.9330 C   0  0  1  0  0  3  0  0  0  0  0  0
  186.5880  177.9770  144.5880 C   0  0  2  0  0  3  0  0  0  0  0  0
  188.9420  174.5410  147.1810 C   0  0  0  0  0  3  0  0  0  0  0  0
  194.3930  173.8340  144.8700 C   0  0  2  0  0  3  0  0  0  0  0  0
  196.5390  176.1670  143.7240 F   0  0  0  0  0  0  0  0  0  0  0  0
  194.2150  173.3090  146.1380 F   0  0  0  0  0  0  0  0  0  0  0  0
  194.2740  176.4160  143.1170 C   0  0  0  0  0  3  0  0  0  0  0  0
  192.3290  175.2000  144.2040 C   0  0  2  0  0  3  0  0  0  0  0  0
  194.9680  175.1130  144.9870 O   0  0  0  0  0  0  0  0  0  0  0  0
  192.9560  176.2510  143.3170 C   0  0  0  0  0  3  0  0  0  0  0  0
  193.0530  173.8410  144.1010 C   0  0  2  0  0  3  0  0  0  0  0  0
  192.2690  172.7820  144.5210 F   0  0  0  0  0  0  0  0  0  0  0  0
  195.3250  175.5090  143.6930 C   0  0  2  0  0  3  0  0  0  0  0  0
  185.3590  177.3140  144.4090 O   0  0  0  0  0  0  0  0  0  0  0  0
  184.6790  177.9240  143.3460 C   0  0  0  0  0  1  0  0  0  0  0  0
  189.3020  175.3180  142.0820 C   0  0  0  0  0  2  0  0  0  0  0  0
  188.1890  173.1360  141.6690 C   0  0  0  0  0  2  0  0  0  0  0  0
  189.5420  172.8650  139.7130 N   0  0  0  0  0  0  0  0  0  0  0  0
  190.2920  173.5290  140.7040 C   0  0  0  0  0  0  0  0  0  0  0  0
  191.5060  173.8230  140.5460 O   0  0  0  0  0  0  0  0  0  0  0  0
  188.1940  172.6660  140.2080 C   0  0  0  0  0  3  0  0  0  0  0  0
  189.5290  173.8200  141.9360 C   0  0  1  0  0  3  0  0  0  0  0  0
  1  4  2  0  0  0  0
  1  3  1  0  0  0  0
  2  6  1  6  0  0  0
  2  4  1  0  0  0  0
  3 13  2  0  0  0  0
  4  7  1  0  0  0  0
  5  2  1  0  0  0  0
  5 12  1  0  0  0  0
  7  8  1  0  0  0  0
  7  9  2  0  0  0  0
 10  6  1  0  0  0  0
 10 11  1  0  0  0  0
 11 18  1  0  0  0  0
 11  1  1  1  0  0  0
 12 24  1  1  0  0  0
 12  8  1  0  0  0  0
 13  9  1  0  0  0  0
 14 19  1  0  0  0  0
 14 16  1  1  0  0  0
 17 20  2  0  0  0  0
 17 23  1  0  0  0  0
 18 20  1  6  0  0  0
 21 18  1  0  0  0  0
 21 22  1  1  0  0  0
 21 14  1  0  0  0  0
 23 15  1  1  0  0  0
 23 19  1  0  0  0  0
 25 24  1  0  0  0  0
 26 10  1  0  0  0  0
 27 32  1  0  0  0  0
 28 31  2  0  0  0  0
 28 29  1  0  0  0  0
 29 32  1  0  0  0  0
 30 29  2  0  0  0  0
 31 27  1  0  0  0  0
 32 26  1  6  0  0  0
M  END
>  <MODEL>
7

>  <REMARK>
 VINA RESULT:      -7.3      2.282      2.917
  Name = 
  4 active torsions:
  status: ('A' for Active; 'I' for Inactive)
    1  A    between atoms: O_13  and  C_29
    2  A    between atoms: C_16  and  C_27
    3  A    between atoms: N_24  and  C_28
    4  A    between atoms: C_28  and  C_32
                            x       y       z     vdW  Elec       q    Type
                         _______ _______ _______ _____ _____    ______ ____

>  <TORSDO>
F 4

$$$$
=
 OpenBabel11052419123D

 32 36  0  0  1  0  0  0  0  0999 V2000
  187.7000  176.9370  144.1450 C   0  0  0  0  0  0  0  0  0  0  0  0
  186.9650  176.4160  146.5150 C   0  0  2  0  0  3  0  0  0  0  0  0
  187.5110  177.6400  142.9480 C   0  0  0  0  0  3  0  0  0  0  0  0
  186.7390  177.0310  145.1650 C   0  0  0  0  0  0  0  0  0  0  0  0
  187.0260  177.5090  147.5790 C   0  0  0  0  0  2  0  0  0  0  0  0
  188.1820  175.4790  146.5770 C   0  0  0  0  0  2  0  0  0  0  0  0
  185.6180  177.8550  144.9940 C   0  0  0  0  0  0  0  0  0  0  0  0
  184.4480  178.0530  146.3420 S   0  0  0  0  0  0  0  0  0  0  0  0
  185.4450  178.5650  143.8030 C   0  0  0  0  0  3  0  0  0  0  0  0
  189.3240  175.9080  145.7570 N   0  0  0  0  0  0  0  0  0  0  0  0
  188.9620  176.1380  144.3500 C   0  0  1  0  0  3  0  0  0  0  0  0
  185.7330  178.3560  147.6380 C   0  0  2  0  0  3  0  0  0  0  0  0
  186.3840  178.4490  142.7760 C   0  0  0  0  0  3  0  0  0  0  0  0
  189.8540  173.9240  141.2240 C   0  0  2  0  0  3  0  0  0  0  0  0
  190.0660  170.7730  142.4040 F   0  0  0  0  0  0  0  0  0  0  0  0
  189.0750  174.4640  140.2170 F   0  0  0  0  0  0  0  0  0  0  0  0
  189.8360  172.4940  144.0000 C   0  0  0  0  0  3  0  0  0  0  0  0
  189.1200  174.8740  143.4890 C   0  0  2  0  0  3  0  0  0  0  0  0
  189.2190  172.7690  141.7170 O   0  0  0  0  0  0  0  0  0  0  0  0
  189.4260  173.7080  144.4000 C   0  0  0  0  0  3  0  0  0  0  0  0
  190.1220  174.9800  142.3190 C   0  0  2  0  0  3  0  0  0  0  0  0
  190.1550  176.2410  141.7530 F   0  0  0  0  0  0  0  0  0  0  0  0
  190.1350  172.1430  142.5690 C   0  0  2  0  0  3  0  0  0  0  0  0
  185.9540  179.7190  147.9150 O   0  0  0  0  0  0  0  0  0  0  0  0
  187.0660  179.8220  148.7630 C   0  0  0  0  0  1  0  0  0  0  0  0
  189.9100  177.1220  146.3170 C   0  0  0  0  0  2  0  0  0  0  0  0
  191.6910  175.6750  147.2690 C   0  0  0  0  0  2  0  0  0  0  0  0
  192.5720  175.3820  145.0630 N   0  0  0  0  0  0  0  0  0  0  0  0
  192.0560  176.6880  145.1830 C   0  0  0  0  0  0  0  0  0  0  0  0
  192.1580  177.5410  144.2630 O   0  0  0  0  0  0  0  0  0  0  0  0
  192.3010  174.6610  146.2910 C   0  0  0  0  0  3  0  0  0  0  0  0
  191.4140  176.9580  146.4870 C   0  0  1  0  0  3  0  0  0  0  0  0
  1  4  1  0  0  0  0
  2  6  1  6  0  0  0
  2  5  1  0  0  0  0
  3  1  2  0  0  0  0
  4  2  1  0  0  0  0
  5 12  1  0  0  0  0
  7  4  2  0  0  0  0
  7  8  1  0  0  0  0
  8 12  1  0  0  0  0
  9  7  1  0  0  0  0
 10 26  1  0  0  0  0
 10  6  1  0  0  0  0
 11  1  1  1  0  0  0
 11 10  1  0  0  0  0
 12 24  1  6  0  0  0
 13  3  1  0  0  0  0
 13  9  2  0  0  0  0
 14 16  1  6  0  0  0
 14 19  1  0  0  0  0
 14 21  1  0  0  0  0
 17 20  2  0  0  0  0
 18 11  1  0  0  0  0
 18 20  1  1  0  0  0
 19 23  1  0  0  0  0
 21 22  1  6  0  0  0
 21 18  1  0  0  0  0
 23 15  1  1  0  0  0
 23 17  1  0  0  0  0
 24 25  1  0  0  0  0
 28 29  1  0  0  0  0
 28 31  2  0  0  0  0
 29 32  1  0  0  0  0
 30 29  2  0  0  0  0
 31 27  1  0  0  0  0
 32 26  1  6  0  0  0
 32 27  1  0  0  0  0
M  END
>  <MODEL>
8

>  <REMARK>
 VINA RESULT:      -7.3      2.736      5.171
  Name = 
  4 active torsions:
  status: ('A' for Active; 'I' for Inactive)
    1  A    between atoms: O_13  and  C_29
    2  A    between atoms: C_16  and  C_27
    3  A    between atoms: N_24  and  C_28
    4  A    between atoms: C_28  and  C_32
                            x       y       z     vdW  Elec       q    Type
                         _______ _______ _______ _____ _____    ______ ____

>  <TORSDO>
F 4

$$$$
=
 OpenBabel11052419123D

 32 36  0  0  1  0  0  0  0  0999 V2000
  191.1700  174.5270  142.0140 C   0  0  0  0  0  0  0  0  0  0  0  0
  189.1780  172.9860  141.7230 C   0  0  2  0  0  3  0  0  0  0  0  0
  192.4300  174.9670  141.5880 C   0  0  0  0  0  3  0  0  0  0  0  0
  190.5820  173.4070  141.4030 C   0  0  0  0  0  0  0  0  0  0  0  0
  188.3020  173.1160  140.4790 C   0  0  0  0  0  2  0  0  0  0  0  0
  188.5720  173.7070  142.9370 C   0  0  0  0  0  2  0  0  0  0  0  0
  191.2420  172.7620  140.3480 C   0  0  0  0  0  0  0  0  0  0  0  0
  190.4370  171.3970  139.5010 S   0  0  0  0  0  0  0  0  0  0  0  0
  192.4910  173.2170  139.9180 C   0  0  0  0  0  3  0  0  0  0  0  0
  188.9720  175.1150  143.0710 N   0  0  0  0  0  0  0  0  0  0  0  0
  190.4320  175.2960  143.0800 C   0  0  1  0  0  3  0  0  0  0  0  0
  188.8130  172.2580  139.2980 C   0  0  2  0  0  3  0  0  0  0  0  0
  193.0900  174.3110  140.5460 C   0  0  0  0  0  3  0  0  0  0  0  0
  192.7410  176.2180  146.1280 C   0  0  2  0  0  3  0  0  0  0  0  0
  191.1950  174.9260  148.8310 F   0  0  0  0  0  0  0  0  0  0  0  0
  194.0180  176.0210  145.6330 F   0  0  0  0  0  0  0  0  0  0  0  0
  190.0070  174.8660  146.7960 C   0  0  0  0  0  3  0  0  0  0  0  0
  191.0210  175.2380  144.4990 C   0  0  2  0  0  3  0  0  0  0  0  0
  192.3750  175.0950  146.8930 O   0  0  0  0  0  0  0  0  0  0  0  0
  189.9280  174.8200  145.4560 C   0  0  0  0  0  3  0  0  0  0  0  0
  191.7570  176.5090  144.9730 C   0  0  2  0  0  3  0  0  0  0  0  0
  192.4210  177.1580  143.9480 F   0  0  0  0  0  0  0  0  0  0  0  0
  191.1820  175.4280  147.5450 C   0  0  2  0  0  3  0  0  0  0  0  0
  188.6390  172.8610  138.0360 O   0  0  0  0  0  0  0  0  0  0  0  0
  188.1930  174.1750  138.2330 C   0  0  0  0  0  1  0  0  0  0  0  0
  188.3880  175.9040  141.9900 C   0  0  0  0  0  2  0  0  0  0  0  0
  186.9100  176.7710  143.7880 C   0  0  0  0  0  2  0  0  0  0  0  0
  186.4090  178.6600  142.4070 N   0  0  0  0  0  0  0  0  0  0  0  0
  186.5720  177.5230  141.5910 C   0  0  0  0  0  0  0  0  0  0  0  0
  186.3800  177.5530  140.3470 O   0  0  0  0  0  0  0  0  0  0  0  0
  186.6930  178.2900  143.7800 C   0  0  0  0  0  3  0  0  0  0  0  0
  186.9610  176.3060  142.3340 C   0  0  1  0  0  3  0  0  0  0  0  0
  2  5  1  6  0  0  0
  2  6  1  0  0  0  0
  3  1  1  0  0  0  0
  4  2  1  0  0  0  0
  4  1  2  0  0  0  0
  6 10  1  0  0  0  0
  7  4  1  0  0  0  0
  8  7  1  0  0  0  0
  9  7  2  0  0  0  0
  9 13  1  0  0  0  0
 10 11  1  0  0  0  0
 11  1  1  6  0  0  0
 11 18  1  0  0  0  0
 12 24  1  6  0  0  0
 12  8  1  0  0  0  0
 12  5  1  0  0  0  0
 13  3  2  0  0  0  0
 14 16  1  6  0  0  0
 14 19  1  0  0  0  0
 17 23  1  0  0  0  0
 18 21  1  0  0  0  0
 18 20  1  1  0  0  0
 19 23  1  0  0  0  0
 20 17  2  0  0  0  0
 21 22  1  6  0  0  0
 21 14  1  0  0  0  0
 23 15  1  1  0  0  0
 24 25  1  0  0  0  0
 26 10  1  0  0  0  0
 28 31  2  0  0  0  0
 29 32  1  0  0  0  0
 29 28  1  0  0  0  0
 30 29  2  0  0  0  0
 31 27  1  0  0  0  0
 32 26  1  6  0  0  0
 32 27  1  0  0  0  0
M  END
>  <MODEL>
9

>  <REMARK>
 VINA RESULT:      -7.2      2.817      5.849
  Name = 
  4 active torsions:
  status: ('A' for Active; 'I' for Inactive)
    1  A    between atoms: O_13  and  C_29
    2  A    between atoms: C_16  and  C_27
    3  A    between atoms: N_24  and  C_28
    4  A    between atoms: C_28  and  C_32
                            x       y       z     vdW  Elec       q    Type
                         _______ _______ _______ _____ _____    ______ ____

>  <TORSDO>
F 4

$$$$
