=
 OpenBabel11052418593D

 34 38  0  0  1  0  0  0  0  0999 V2000
  185.6140  177.5950  143.9660 C   0  0  0  0  0  0  0  0  0  0  0  0
  186.5330  177.9060  146.2900 C   0  0  2  0  0  3  0  0  0  0  0  0
  187.8190  176.6190  144.4260 C   0  0  0  0  0  0  0  0  0  0  0  0
  190.0500  175.6490  144.7060 C   0  0  0  0  0  0  0  0  0  0  0  0
  184.6000  178.5000  144.2760 O   0  0  0  0  0  0  0  0  0  0  0  0
  185.2740  178.7460  146.5550 C   0  0  0  0  0  2  0  0  0  0  0  0
  189.3100  177.2890  146.3040 C   0  0  0  0  0  3  0  0  0  0  0  0
  186.6850  177.3840  144.8620 C   0  0  0  0  0  0  0  0  0  0  0  0
  190.5160  177.1540  146.9890 C   0  0  0  0  0  3  0  0  0  0  0  0
  191.2170  175.5290  145.3960 N   0  0  0  0  0  0  0  0  0  0  0  0
  184.7830  179.4570  145.3080 C   0  0  0  0  0  2  0  0  0  0  0  0
  187.7310  175.9170  143.1850 C   0  0  0  0  0  0  0  0  0  0  0  0
  185.5570  176.9130  142.7580 C   0  0  0  0  0  3  0  0  0  0  0  0
  186.4850  176.7390  147.2640 C   0  0  0  0  0  1  0  0  0  0  0  0
  189.8880  174.9490  143.5610 N   0  0  0  0  0  0  0  0  0  0  0  0
  188.7860  175.0610  142.7760 C   0  0  0  0  0  0  0  0  0  0  0  0
  191.4670  176.2520  146.5180 C   0  0  0  0  0  0  0  0  0  0  0  0
  189.0370  176.5210  145.1600 C   0  0  0  0  0  0  0  0  0  0  0  0
  186.5880  176.0650  142.3880 C   0  0  0  0  0  3  0  0  0  0  0  0
  188.2890  174.1230  139.1440 C   0  0  0  0  0  0  0  0  0  0  0  0
  188.6330  172.7710  139.1680 C   0  0  0  0  0  3  0  0  0  0  0  0
  188.7650  174.2620  141.5190 C   0  0  0  0  0  0  0  0  0  0  0  0
  189.0200  172.1900  140.3340 N   0  0  0  0  0  0  0  0  0  0  0  0
  188.3500  174.8640  140.3240 C   0  0  0  0  0  3  0  0  0  0  0  0
  189.0860  172.8970  141.4940 C   0  0  0  0  0  3  0  0  0  0  0  0
  187.8570  174.7650  137.8760 C   0  0  0  0  0  1  0  0  0  0  0  0
  192.7480  176.0700  147.2520 C   0  0  0  0  0  2  0  0  0  0  0  0
  193.7440  175.3300  146.3770 C   0  0  0  0  0  2  0  0  0  0  0  0
  194.6450  177.5450  146.4300 O   0  0  0  0  0  1  0  0  0  0  0  0
  194.8060  176.2850  145.8540 C   0  0  2  0  0  3  0  0  0  0  0  0
  194.8290  176.3780  144.3200 C   0  0  0  0  0  2  0  0  0  0  0  0
  196.9390  177.0240  143.3300 O   0  0  0  0  0  1  0  0  0  0  0  0
  196.1310  175.9320  143.6470 C   0  0  0  0  0  3  0  0  0  0  0  0
  196.8340  175.0330  144.4500 O   0  0  0  0  0  1  0  0  0  0  0  0
  1  5  1  0  0  0  0
  1  8  1  0  0  0  0
  2  6  1  0  0  0  0
  2 14  1  1  0  0  0
  3  8  2  0  0  0  0
  3 18  1  0  0  0  0
  4 18  1  0  0  0  0
  4 10  2  0  0  0  0
  5 11  1  0  0  0  0
  7  9  1  0  0  0  0
  8  2  1  0  0  0  0
 10 17  1  0  0  0  0
 11  6  1  0  0  0  0
 12  3  1  0  0  0  0
 13  1  2  0  0  0  0
 15  4  1  0  0  0  0
 16 12  1  0  0  0  0
 16 15  2  0  0  0  0
 17  9  2  0  0  0  0
 17 27  1  0  0  0  0
 18  7  2  0  0  0  0
 19 13  1  0  0  0  0
 19 12  2  0  0  0  0
 20 21  2  0  0  0  0
 20 24  1  0  0  0  0
 21 23  1  0  0  0  0
 22 16  1  0  0  0  0
 23 25  2  0  0  0  0
 24 22  2  0  0  0  0
 25 22  1  0  0  0  0
 26 20  1  0  0  0  0
 28 27  1  0  0  0  0
 30 28  1  0  0  0  0
 30 29  1  1  0  0  0
 31 30  1  0  0  0  0
 32 33  1  0  0  0  0
 33 31  1  0  0  0  0
 33 34  1  0  0  0  0
M  END
>  <MODEL>
1

>  <REMARK>
 VINA RESULT:      -8.5      0.000      0.000
  Name = 
  6 active torsions:
  status: ('A' for Active; 'I' for Inactive)
    1  A    between atoms: C_3  and  C_13
    2  A    between atoms: C_3  and  C_29
    3  A    between atoms: C_12  and  C_28
    4  A    between atoms: C_13  and  C_33
    5  A    between atoms: C_20  and  C_22
    6  A    between atoms: C_22  and  C_33
                            x       y       z     vdW  Elec       q    Type
                         _______ _______ _______ _____ _____    ______ ____

>  <TORSDO>
F 6

$$$$
=
 OpenBabel11052418593D

 34 38  0  0  1  0  0  0  0  0999 V2000
  190.8510  173.1580  140.7280 C   0  0  0  0  0  0  0  0  0  0  0  0
  188.3720  173.5230  140.4720 C   0  0  2  0  0  3  0  0  0  0  0  0
  189.8660  175.0130  141.9990 C   0  0  0  0  0  0  0  0  0  0  0  0
  189.0490  176.9380  143.2740 C   0  0  0  0  0  0  0  0  0  0  0  0
  190.7970  172.2470  139.6740 O   0  0  0  0  0  0  0  0  0  0  0  0
  188.4220  172.3800  139.4480 C   0  0  0  0  0  2  0  0  0  0  0  0
  187.6800  176.0890  141.4880 C   0  0  0  0  0  3  0  0  0  0  0  0
  189.7200  173.9360  141.0610 C   0  0  0  0  0  0  0  0  0  0  0  0
  186.7200  177.0580  141.7730 C   0  0  0  0  0  3  0  0  0  0  0  0
  188.0950  177.8710  143.5400 N   0  0  0  0  0  0  0  0  0  0  0  0
  189.7500  172.3180  138.7180 C   0  0  0  0  0  2  0  0  0  0  0  0
  191.0920  175.1230  142.7250 C   0  0  0  0  0  0  0  0  0  0  0  0
  192.0360  173.2930  141.4370 C   0  0  0  0  0  3  0  0  0  0  0  0
  187.4410  173.0650  141.5830 C   0  0  0  0  0  1  0  0  0  0  0  0
  190.2000  176.9540  143.9830 N   0  0  0  0  0  0  0  0  0  0  0  0
  191.2310  176.1050  143.7400 C   0  0  0  0  0  0  0  0  0  0  0  0
  186.9450  177.9480  142.8210 C   0  0  0  0  0  0  0  0  0  0  0  0
  188.8560  175.9880  142.2480 C   0  0  0  0  0  0  0  0  0  0  0  0
  192.1430  174.2440  142.4390 C   0  0  0  0  0  3  0  0  0  0  0  0
  194.8680  176.4940  144.7100 C   0  0  0  0  0  0  0  0  0  0  0  0
  194.7740  176.4910  146.1020 C   0  0  0  0  0  3  0  0  0  0  0  0
  192.4550  176.2690  144.5710 C   0  0  0  0  0  0  0  0  0  0  0  0
  193.5600  176.3690  146.7010 N   0  0  0  0  0  0  0  0  0  0  0  0
  193.7060  176.3770  143.9480 C   0  0  0  0  0  3  0  0  0  0  0  0
  192.4160  176.2550  145.9740 C   0  0  0  0  0  3  0  0  0  0  0  0
  196.1910  176.6170  144.0470 C   0  0  0  0  0  1  0  0  0  0  0  0
  185.9200  178.9710  143.1620 C   0  0  0  0  0  2  0  0  0  0  0  0
  185.7730  179.0720  144.6700 C   0  0  0  0  0  2  0  0  0  0  0  0
  183.7200  178.7890  145.8640 O   0  0  0  0  0  1  0  0  0  0  0  0
  184.7140  178.1010  145.1680 C   0  0  2  0  0  3  0  0  0  0  0  0
  185.2960  176.9610  146.0190 C   0  0  0  0  0  2  0  0  0  0  0  0
  186.2240  177.7340  148.1140 O   0  0  0  0  0  1  0  0  0  0  0  0
  186.5500  177.3080  146.8270 C   0  0  0  0  0  3  0  0  0  0  0  0
  187.4290  176.2260  146.8890 O   0  0  0  0  0  1  0  0  0  0  0  0
  1  8  2  0  0  0  0
  1 13  1  0  0  0  0
  2  8  1  0  0  0  0
  2 14  1  1  0  0  0
  3 18  1  0  0  0  0
  3 12  2  0  0  0  0
  4 10  2  0  0  0  0
  4 15  1  0  0  0  0
  5  1  1  0  0  0  0
  6  2  1  0  0  0  0
  7  9  1  0  0  0  0
  7 18  2  0  0  0  0
  8  3  1  0  0  0  0
  9 17  2  0  0  0  0
 11  6  1  0  0  0  0
 11  5  1  0  0  0  0
 12 16  1  0  0  0  0
 13 19  2  0  0  0  0
 16 15  2  0  0  0  0
 16 22  1  0  0  0  0
 17 27  1  0  0  0  0
 17 10  1  0  0  0  0
 18  4  1  0  0  0  0
 19 12  1  0  0  0  0
 20 21  1  0  0  0  0
 21 23  2  0  0  0  0
 22 25  2  0  0  0  0
 24 22  1  0  0  0  0
 24 20  2  0  0  0  0
 25 23  1  0  0  0  0
 26 20  1  0  0  0  0
 27 28  1  0  0  0  0
 28 30  1  0  0  0  0
 30 29  1  1  0  0  0
 30 31  1  0  0  0  0
 31 33  1  0  0  0  0
 33 34  1  0  0  0  0
 33 32  1  0  0  0  0
M  END
>  <MODEL>
2

>  <REMARK>
 VINA RESULT:      -8.1      3.010      7.812
  Name = 
  6 active torsions:
  status: ('A' for Active; 'I' for Inactive)
    1  A    between atoms: C_3  and  C_13
    2  A    between atoms: C_3  and  C_29
    3  A    between atoms: C_12  and  C_28
    4  A    between atoms: C_13  and  C_33
    5  A    between atoms: C_20  and  C_22
    6  A    between atoms: C_22  and  C_33
                            x       y       z     vdW  Elec       q    Type
                         _______ _______ _______ _____ _____    ______ ____

>  <TORSDO>
F 6

$$$$
=
 OpenBabel11052418593D

 34 38  0  0  1  0  0  0  0  0999 V2000
  190.9230  173.7000  140.1560 C   0  0  0  0  0  0  0  0  0  0  0  0
  188.5400  173.8510  140.9550 C   0  0  2  0  0  3  0  0  0  0  0  0
  190.5550  174.7190  142.3580 C   0  0  0  0  0  0  0  0  0  0  0  0
  190.3490  175.8190  144.5370 C   0  0  0  0  0  0  0  0  0  0  0  0
  190.4480  173.3180  138.9010 O   0  0  0  0  0  0  0  0  0  0  0  0
  188.1610  173.2600  139.5890 C   0  0  0  0  0  2  0  0  0  0  0  0
  188.3880  175.6510  143.1540 C   0  0  0  0  0  3  0  0  0  0  0  0
  190.0280  174.1290  141.1610 C   0  0  0  0  0  0  0  0  0  0  0  0
  187.6450  176.2930  144.1430 C   0  0  0  0  0  3  0  0  0  0  0  0
  189.6020  176.4370  145.4920 N   0  0  0  0  0  0  0  0  0  0  0  0
  189.1320  173.6640  138.4970 C   0  0  0  0  0  2  0  0  0  0  0  0
  191.9640  174.6530  142.5870 C   0  0  0  0  0  0  0  0  0  0  0  0
  192.2890  173.6580  140.3950 C   0  0  0  0  0  3  0  0  0  0  0  0
  188.0500  172.8640  142.0030 C   0  0  0  0  0  1  0  0  0  0  0  0
  191.6780  175.6670  144.7370 N   0  0  0  0  0  0  0  0  0  0  0  0
  192.5080  175.1240  143.8100 C   0  0  0  0  0  0  0  0  0  0  0  0
  188.2760  176.6770  145.3230 C   0  0  0  0  0  0  0  0  0  0  0  0
  189.7530  175.3750  143.3370 C   0  0  0  0  0  0  0  0  0  0  0  0
  192.7970  174.1030  141.6050 C   0  0  0  0  0  3  0  0  0  0  0  0
  196.2180  175.8700  143.8030 C   0  0  0  0  0  0  0  0  0  0  0  0
  196.6840  174.9130  144.7040 C   0  0  0  0  0  3  0  0  0  0  0  0
  193.9560  175.0620  144.1510 C   0  0  0  0  0  0  0  0  0  0  0  0
  195.8110  174.0560  145.2970 N   0  0  0  0  0  0  0  0  0  0  0  0
  194.8530  175.9370  143.5240 C   0  0  0  0  0  3  0  0  0  0  0  0
  194.4770  174.1070  145.0380 C   0  0  0  0  0  3  0  0  0  0  0  0
  197.1660  176.8040  143.1430 C   0  0  0  0  0  1  0  0  0  0  0  0
  187.4950  177.3360  146.4040 C   0  0  0  0  0  2  0  0  0  0  0  0
  186.0090  177.1550  146.1510 C   0  0  0  0  0  2  0  0  0  0  0  0
  184.8690  178.6490  147.6310 O   0  0  0  0  0  1  0  0  0  0  0  0
  185.2770  178.4780  146.3090 C   0  0  2  0  0  3  0  0  0  0  0  0
  184.0920  178.6290  145.3420 C   0  0  0  0  0  2  0  0  0  0  0  0
  185.6710  179.7220  143.8710 O   0  0  0  0  0  1  0  0  0  0  0  0
  184.4510  179.0470  143.9120 C   0  0  0  0  0  3  0  0  0  0  0  0
  184.4840  177.9460  143.0550 O   0  0  0  0  0  1  0  0  0  0  0  0
  1 13  2  0  0  0  0
  1  8  1  0  0  0  0
  2  8  1  0  0  0  0
  2 14  1  1  0  0  0
  3 12  1  0  0  0  0
  3 18  1  0  0  0  0
  4 15  1  0  0  0  0
  4 10  2  0  0  0  0
  5  1  1  0  0  0  0
  6  2  1  0  0  0  0
  7 18  2  0  0  0  0
  7  9  1  0  0  0  0
  8  3  2  0  0  0  0
  9 17  2  0  0  0  0
 11  5  1  0  0  0  0
 11  6  1  0  0  0  0
 12 16  1  0  0  0  0
 13 19  1  0  0  0  0
 16 22  1  0  0  0  0
 16 15  2  0  0  0  0
 17 10  1  0  0  0  0
 17 27  1  0  0  0  0
 18  4  1  0  0  0  0
 19 12  2  0  0  0  0
 20 21  1  0  0  0  0
 21 23  2  0  0  0  0
 22 25  2  0  0  0  0
 24 20  2  0  0  0  0
 24 22  1  0  0  0  0
 25 23  1  0  0  0  0
 26 20  1  0  0  0  0
 28 30  1  0  0  0  0
 28 27  1  0  0  0  0
 30 29  1  1  0  0  0
 31 30  1  0  0  0  0
 32 33  1  0  0  0  0
 33 31  1  0  0  0  0
 34 33  1  0  0  0  0
M  END
>  <MODEL>
3

>  <REMARK>
 VINA RESULT:      -7.9      3.233      7.742
  Name = 
  6 active torsions:
  status: ('A' for Active; 'I' for Inactive)
    1  A    between atoms: C_3  and  C_13
    2  A    between atoms: C_3  and  C_29
    3  A    between atoms: C_12  and  C_28
    4  A    between atoms: C_13  and  C_33
    5  A    between atoms: C_20  and  C_22
    6  A    between atoms: C_22  and  C_33
                            x       y       z     vdW  Elec       q    Type
                         _______ _______ _______ _____ _____    ______ ____

>  <TORSDO>
F 6

$$$$
=
 OpenBabel11052418593D

 34 38  0  0  1  0  0  0  0  0999 V2000
  192.2360  174.2740  144.0550 C   0  0  0  0  0  0  0  0  0  0  0  0
  191.2700  176.4410  144.8980 C   0  0  2  0  0  3  0  0  0  0  0  0
  190.2650  175.1410  142.8780 C   0  0  0  0  0  0  0  0  0  0  0  0
  188.2660  175.8370  141.6450 C   0  0  0  0  0  0  0  0  0  0  0  0
  193.0530  174.2310  145.1840 O   0  0  0  0  0  0  0  0  0  0  0  0
  192.3390  176.3610  145.9990 C   0  0  0  0  0  2  0  0  0  0  0  0
  188.6680  176.8090  143.8080 C   0  0  0  0  0  3  0  0  0  0  0  0
  191.2260  175.2540  143.9380 C   0  0  0  0  0  0  0  0  0  0  0  0
  187.5110  177.5730  143.6720 C   0  0  0  0  0  3  0  0  0  0  0  0
  187.1450  176.5990  141.5300 N   0  0  0  0  0  0  0  0  0  0  0  0
  192.6830  174.9300  146.3630 C   0  0  0  0  0  2  0  0  0  0  0  0
  190.4910  174.1720  141.8530 C   0  0  0  0  0  0  0  0  0  0  0  0
  192.4280  173.3320  143.0540 C   0  0  0  0  0  3  0  0  0  0  0  0
  191.5440  177.7210  144.1240 C   0  0  0  0  0  1  0  0  0  0  0  0
  188.5650  174.9540  140.6660 N   0  0  0  0  0  0  0  0  0  0  0  0
  189.6250  174.1080  140.7310 C   0  0  0  0  0  0  0  0  0  0  0  0
  186.7560  177.4580  142.5070 C   0  0  0  0  0  0  0  0  0  0  0  0
  189.0890  175.9420  142.7870 C   0  0  0  0  0  0  0  0  0  0  0  0
  191.5840  173.3020  141.9560 C   0  0  0  0  0  3  0  0  0  0  0  0
  190.7400  172.6700  137.4130 C   0  0  0  0  0  0  0  0  0  0  0  0
  190.0900  171.4360  137.4250 C   0  0  0  0  0  3  0  0  0  0  0  0
  189.8050  173.1580  139.5990 C   0  0  0  0  0  0  0  0  0  0  0  0
  189.3170  171.0860  138.4870 N   0  0  0  0  0  0  0  0  0  0  0  0
  190.5900  173.5320  138.5000 C   0  0  0  0  0  3  0  0  0  0  0  0
  189.1590  171.9120  139.5560 C   0  0  0  0  0  3  0  0  0  0  0  0
  191.5790  173.0650  136.2530 C   0  0  0  0  0  1  0  0  0  0  0  0
  185.5340  178.2870  142.3270 C   0  0  0  0  0  2  0  0  0  0  0  0
  184.4980  177.9150  143.3730 C   0  0  0  0  0  2  0  0  0  0  0  0
  185.1790  180.0860  144.1110 O   0  0  0  0  0  1  0  0  0  0  0  0
  184.2060  179.1010  144.2780 C   0  0  2  0  0  3  0  0  0  0  0  0
  184.0660  178.7090  145.7580 C   0  0  0  0  0  2  0  0  0  0  0  0
  185.5770  178.8000  147.6440 O   0  0  0  0  0  1  0  0  0  0  0  0
  185.3350  178.1680  146.4240 C   0  0  0  0  0  3  0  0  0  0  0  0
  185.2610  176.7860  146.6080 O   0  0  0  0  0  1  0  0  0  0  0  0
  1  5  1  0  0  0  0
  2 14  1  6  0  0  0
  2  6  1  0  0  0  0
  3  8  2  0  0  0  0
  4 18  1  0  0  0  0
  5 11  1  0  0  0  0
  6 11  1  0  0  0  0
  8  1  1  0  0  0  0
  8  2  1  0  0  0  0
  9  7  1  0  0  0  0
 10  4  2  0  0  0  0
 10 17  1  0  0  0  0
 12 19  2  0  0  0  0
 12  3  1  0  0  0  0
 13  1  2  0  0  0  0
 15 16  2  0  0  0  0
 15  4  1  0  0  0  0
 16 12  1  0  0  0  0
 17  9  2  0  0  0  0
 18  3  1  0  0  0  0
 18  7  2  0  0  0  0
 19 13  1  0  0  0  0
 20 21  2  0  0  0  0
 20 24  1  0  0  0  0
 21 23  1  0  0  0  0
 22 16  1  0  0  0  0
 23 25  2  0  0  0  0
 24 22  2  0  0  0  0
 25 22  1  0  0  0  0
 26 20  1  0  0  0  0
 27 17  1  0  0  0  0
 27 28  1  0  0  0  0
 28 30  1  0  0  0  0
 30 29  1  1  0  0  0
 30 31  1  0  0  0  0
 31 33  1  0  0  0  0
 33 34  1  0  0  0  0
 33 32  1  0  0  0  0
M  END
>  <MODEL>
4

>  <REMARK>
 VINA RESULT:      -7.9      2.402      6.943
  Name = 
  6 active torsions:
  status: ('A' for Active; 'I' for Inactive)
    1  A    between atoms: C_3  and  C_13
    2  A    between atoms: C_3  and  C_29
    3  A    between atoms: C_12  and  C_28
    4  A    between atoms: C_13  and  C_33
    5  A    between atoms: C_20  and  C_22
    6  A    between atoms: C_22  and  C_33
                            x       y       z     vdW  Elec       q    Type
                         _______ _______ _______ _____ _____    ______ ____

>  <TORSDO>
F 6

$$$$
=
 OpenBabel11052418593D

 34 38  0  0  1  0  0  0  0  0999 V2000
  186.3310  177.4060  146.5620 C   0  0  0  0  0  0  0  0  0  0  0  0
  185.0220  178.5990  144.7710 C   0  0  2  0  0  3  0  0  0  0  0  0
  187.1310  177.1610  144.2550 C   0  0  0  0  0  0  0  0  0  0  0  0
  188.0150  176.7640  142.0050 C   0  0  0  0  0  0  0  0  0  0  0  0
  185.3140  177.7100  147.4670 O   0  0  0  0  0  0  0  0  0  0  0  0
  184.0660  179.0120  145.9000 C   0  0  0  0  0  2  0  0  0  0  0  0
  185.7640  177.5850  142.2180 C   0  0  0  0  0  3  0  0  0  0  0  0
  186.1690  177.6800  145.1860 C   0  0  0  0  0  0  0  0  0  0  0  0
  185.6460  177.6000  140.8300 C   0  0  0  0  0  3  0  0  0  0  0  0
  187.8800  176.7950  140.6520 N   0  0  0  0  0  0  0  0  0  0  0  0
  183.9990  177.9760  147.0050 C   0  0  0  0  0  2  0  0  0  0  0  0
  188.3300  176.5770  144.7680 C   0  0  0  0  0  0  0  0  0  0  0  0
  187.4970  176.8240  147.0360 C   0  0  0  0  0  3  0  0  0  0  0  0
  185.5800  179.8870  144.1860 C   0  0  0  0  0  1  0  0  0  0  0  0
  189.1600  176.2860  142.5420 N   0  0  0  0  0  0  0  0  0  0  0  0
  189.3530  176.1570  143.8800 C   0  0  0  0  0  0  0  0  0  0  0  0
  186.7310  177.2030  140.0530 C   0  0  0  0  0  0  0  0  0  0  0  0
  186.9600  177.1910  142.8400 C   0  0  0  0  0  0  0  0  0  0  0  0
  188.4930  176.4410  146.1520 C   0  0  0  0  0  3  0  0  0  0  0  0
  192.9610  175.8900  144.9880 C   0  0  0  0  0  0  0  0  0  0  0  0
  193.1120  174.5060  145.0750 C   0  0  0  0  0  3  0  0  0  0  0  0
  190.6490  175.5730  144.3240 C   0  0  0  0  0  0  0  0  0  0  0  0
  192.0650  173.6890  144.7850 N   0  0  0  0  0  0  0  0  0  0  0  0
  191.7290  176.4200  144.6060 C   0  0  0  0  0  3  0  0  0  0  0  0
  190.8560  174.1870  144.4120 C   0  0  0  0  0  3  0  0  0  0  0  0
  194.1020  176.7900  145.2940 C   0  0  0  0  0  1  0  0  0  0  0  0
  186.6370  177.2410  138.5690 C   0  0  0  0  0  2  0  0  0  0  0  0
  186.5800  175.8270  138.0180 C   0  0  0  0  0  2  0  0  0  0  0  0
  187.5220  175.6630  135.8250 O   0  0  0  0  0  1  0  0  0  0  0  0
  187.8150  175.5300  137.1830 C   0  0  2  0  0  3  0  0  0  0  0  0
  188.4280  174.1530  137.4830 C   0  0  0  0  0  2  0  0  0  0  0  0
  188.1910  172.2930  139.0100 O   0  0  0  0  0  1  0  0  0  0  0  0
  188.3180  173.6800  138.9360 C   0  0  0  0  0  3  0  0  0  0  0  0
  189.4150  174.1010  139.6900 O   0  0  0  0  0  1  0  0  0  0  0  0
  1 13  1  0  0  0  0
  1  5  1  0  0  0  0
  2 14  1  1  0  0  0
  2  8  1  0  0  0  0
  2  6  1  0  0  0  0
  3 12  2  0  0  0  0
  3  8  1  0  0  0  0
  4 15  1  0  0  0  0
  4 18  1  0  0  0  0
  6 11  1  0  0  0  0
  7 18  2  0  0  0  0
  8  1  2  0  0  0  0
  9  7  1  0  0  0  0
 10  4  2  0  0  0  0
 11  5  1  0  0  0  0
 12 19  1  0  0  0  0
 15 16  2  0  0  0  0
 16 22  1  0  0  0  0
 16 12  1  0  0  0  0
 17 10  1  0  0  0  0
 17  9  2  0  0  0  0
 18  3  1  0  0  0  0
 19 13  2  0  0  0  0
 20 21  1  0  0  0  0
 20 26  1  0  0  0  0
 22 25  2  0  0  0  0
 22 24  1  0  0  0  0
 23 21  2  0  0  0  0
 24 20  2  0  0  0  0
 25 23  1  0  0  0  0
 27 17  1  0  0  0  0
 28 27  1  0  0  0  0
 30 29  1  6  0  0  0
 30 31  1  0  0  0  0
 30 28  1  0  0  0  0
 31 33  1  0  0  0  0
 33 32  1  0  0  0  0
 33 34  1  0  0  0  0
M  END
>  <MODEL>
5

>  <REMARK>
 VINA RESULT:      -7.8      3.194      6.699
  Name = 
  6 active torsions:
  status: ('A' for Active; 'I' for Inactive)
    1  A    between atoms: C_3  and  C_13
    2  A    between atoms: C_3  and  C_29
    3  A    between atoms: C_12  and  C_28
    4  A    between atoms: C_13  and  C_33
    5  A    between atoms: C_20  and  C_22
    6  A    between atoms: C_22  and  C_33
                            x       y       z     vdW  Elec       q    Type
                         _______ _______ _______ _____ _____    ______ ____

>  <TORSDO>
F 6

$$$$
=
 OpenBabel11052418593D

 34 38  0  0  1  0  0  0  0  0999 V2000
  191.2470  175.8190  145.8070 C   0  0  0  0  0  0  0  0  0  0  0  0
  191.8460  173.8040  144.4200 C   0  0  2  0  0  3  0  0  0  0  0  0
  189.8750  175.3960  143.8160 C   0  0  0  0  0  0  0  0  0  0  0  0
  188.4590  175.1490  141.8330 C   0  0  0  0  0  0  0  0  0  0  0  0
  192.4290  175.6400  146.5260 O   0  0  0  0  0  0  0  0  0  0  0  0
  193.0180  173.6190  145.3960 C   0  0  0  0  0  2  0  0  0  0  0  0
  190.5580  173.9760  141.8890 C   0  0  0  0  0  3  0  0  0  0  0  0
  190.9840  175.0430  144.6570 C   0  0  0  0  0  0  0  0  0  0  0  0
  190.2830  173.4390  140.6330 C   0  0  0  0  0  3  0  0  0  0  0  0
  188.2080  174.6060  140.6110 N   0  0  0  0  0  0  0  0  0  0  0  0
  193.5190  174.9380  145.9500 C   0  0  0  0  0  2  0  0  0  0  0  0
  188.9490  176.3780  144.2860 C   0  0  0  0  0  0  0  0  0  0  0  0
  190.3410  176.7790  146.2360 C   0  0  0  0  0  3  0  0  0  0  0  0
  190.9900  172.5520  144.5330 C   0  0  0  0  0  1  0  0  0  0  0  0
  187.5770  176.0310  142.3550 N   0  0  0  0  0  0  0  0  0  0  0  0
  187.7810  176.6700  143.5360 C   0  0  0  0  0  0  0  0  0  0  0  0
  189.0840  173.7650  140.0040 C   0  0  0  0  0  0  0  0  0  0  0  0
  189.6420  174.8230  142.5320 C   0  0  0  0  0  0  0  0  0  0  0  0
  189.1960  177.0320  145.4990 C   0  0  0  0  0  3  0  0  0  0  0  0
  185.0830  178.3510  145.5880 C   0  0  0  0  0  0  0  0  0  0  0  0
  184.7390  179.4160  144.7550 C   0  0  0  0  0  3  0  0  0  0  0  0
  186.7440  177.6490  143.9640 C   0  0  0  0  0  0  0  0  0  0  0  0
  185.3730  179.5790  143.5640 N   0  0  0  0  0  0  0  0  0  0  0  0
  186.0830  177.4650  145.1860 C   0  0  0  0  0  3  0  0  0  0  0  0
  186.3510  178.7260  143.1560 C   0  0  0  0  0  3  0  0  0  0  0  0
  184.3890  178.1590  146.8870 C   0  0  0  0  0  1  0  0  0  0  0  0
  188.7560  173.1780  138.6770 C   0  0  0  0  0  2  0  0  0  0  0  0
  188.1930  174.2520  137.7620 C   0  0  0  0  0  2  0  0  0  0  0  0
  190.3060  174.5340  136.6780 O   0  0  0  0  0  1  0  0  0  0  0  0
  188.9530  174.2830  136.4460 C   0  0  2  0  0  3  0  0  0  0  0  0
  188.3710  175.2860  135.4380 C   0  0  0  0  0  2  0  0  0  0  0  0
  187.8170  177.6330  135.6220 O   0  0  0  0  0  1  0  0  0  0  0  0
  187.4390  176.3520  136.0240 C   0  0  0  0  0  3  0  0  0  0  0  0
  186.1100  176.1120  135.6740 O   0  0  0  0  0  1  0  0  0  0  0  0
  1 13  1  0  0  0  0
  1  5  1  0  0  0  0
  2 14  1  1  0  0  0
  2  8  1  0  0  0  0
  2  6  1  0  0  0  0
  3 12  2  0  0  0  0
  3  8  1  0  0  0  0
  4 15  1  0  0  0  0
  4 18  1  0  0  0  0
  6 11  1  0  0  0  0
  7 18  2  0  0  0  0
  8  1  2  0  0  0  0
  9  7  1  0  0  0  0
 10  4  2  0  0  0  0
 11  5  1  0  0  0  0
 12 19  1  0  0  0  0
 15 16  2  0  0  0  0
 16 22  1  0  0  0  0
 16 12  1  0  0  0  0
 17 10  1  0  0  0  0
 17  9  2  0  0  0  0
 18  3  1  0  0  0  0
 19 13  2  0  0  0  0
 20 26  1  0  0  0  0
 21 20  2  0  0  0  0
 22 24  2  0  0  0  0
 23 21  1  0  0  0  0
 24 20  1  0  0  0  0
 25 23  2  0  0  0  0
 25 22  1  0  0  0  0
 27 17  1  0  0  0  0
 28 27  1  0  0  0  0
 30 29  1  1  0  0  0
 30 28  1  0  0  0  0
 31 33  1  0  0  0  0
 31 30  1  0  0  0  0
 32 33  1  0  0  0  0
 34 33  1  0  0  0  0
M  END
>  <MODEL>
6

>  <REMARK>
 VINA RESULT:      -7.8      3.376      7.996
  Name = 
  6 active torsions:
  status: ('A' for Active; 'I' for Inactive)
    1  A    between atoms: C_3  and  C_13
    2  A    between atoms: C_3  and  C_29
    3  A    between atoms: C_12  and  C_28
    4  A    between atoms: C_13  and  C_33
    5  A    between atoms: C_20  and  C_22
    6  A    between atoms: C_22  and  C_33
                            x       y       z     vdW  Elec       q    Type
                         _______ _______ _______ _____ _____    ______ ____

>  <TORSDO>
F 6

$$$$
=
 OpenBabel11052418593D

 34 38  0  0  1  0  0  0  0  0999 V2000
  185.8670  177.6040  144.0190 C   0  0  0  0  0  0  0  0  0  0  0  0
  186.8820  177.7080  146.3220 C   0  0  2  0  0  3  0  0  0  0  0  0
  188.0570  176.5340  144.3140 C   0  0  0  0  0  0  0  0  0  0  0  0
  190.2660  175.4830  144.4290 C   0  0  0  0  0  0  0  0  0  0  0  0
  184.8940  178.5110  144.4390 O   0  0  0  0  0  0  0  0  0  0  0  0
  185.6620  178.5600  146.7010 C   0  0  0  0  0  2  0  0  0  0  0  0
  189.6380  177.0130  146.1760 C   0  0  0  0  0  3  0  0  0  0  0  0
  186.9640  177.2940  144.8530 C   0  0  0  0  0  0  0  0  0  0  0  0
  190.8640  176.7920  146.8000 C   0  0  0  0  0  3  0  0  0  0  0  0
  191.4530  175.2770  145.0610 N   0  0  0  0  0  0  0  0  0  0  0  0
  185.1460  179.3780  145.5330 C   0  0  0  0  0  2  0  0  0  0  0  0
  187.8990  175.9340  143.0280 C   0  0  0  0  0  0  0  0  0  0  0  0
  185.7430  177.0210  142.7660 C   0  0  0  0  0  3  0  0  0  0  0  0
  186.8350  176.4700  147.2040 C   0  0  0  0  0  1  0  0  0  0  0  0
  190.0380  174.8800  143.2410 N   0  0  0  0  0  0  0  0  0  0  0  0
  188.9110  175.0840  142.5110 C   0  0  0  0  0  0  0  0  0  0  0  0
  191.7680  175.9030  146.2230 C   0  0  0  0  0  0  0  0  0  0  0  0
  189.2980  176.3450  144.9890 C   0  0  0  0  0  0  0  0  0  0  0  0
  186.7330  176.1760  142.2910 C   0  0  0  0  0  3  0  0  0  0  0  0
  189.3870  172.4850  139.8030 C   0  0  0  0  0  0  0  0  0  0  0  0
  188.7350  173.0940  138.7310 C   0  0  0  0  0  3  0  0  0  0  0  0
  188.8180  174.3860  141.1990 C   0  0  0  0  0  0  0  0  0  0  0  0
  188.1550  174.3130  138.8930 N   0  0  0  0  0  0  0  0  0  0  0  0
  189.4320  173.1370  141.0350 C   0  0  0  0  0  3  0  0  0  0  0  0
  188.1880  174.9640  140.0860 C   0  0  0  0  0  3  0  0  0  0  0  0
  190.0320  171.1570  139.6330 C   0  0  0  0  0  1  0  0  0  0  0  0
  193.0690  175.6290  146.8890 C   0  0  0  0  0  2  0  0  0  0  0  0
  194.1470  176.5290  146.3090 C   0  0  0  0  0  2  0  0  0  0  0  0
  195.1670  176.2530  144.1640 O   0  0  0  0  0  1  0  0  0  0  0  0
  195.1090  175.7220  145.4520 C   0  0  2  0  0  3  0  0  0  0  0  0
  194.7720  174.2230  145.4170 C   0  0  0  0  0  2  0  0  0  0  0  0
  196.2360  172.4490  144.6690 O   0  0  0  0  0  1  0  0  0  0  0  0
  195.9280  173.2750  145.7500 C   0  0  0  0  0  3  0  0  0  0  0  0
  197.0640  173.9810  146.1510 O   0  0  0  0  0  1  0  0  0  0  0  0
  1  5  1  0  0  0  0
  1  8  1  0  0  0  0
  2  6  1  0  0  0  0
  2 14  1  1  0  0  0
  3  8  2  0  0  0  0
  3 18  1  0  0  0  0
  4 18  1  0  0  0  0
  4 10  2  0  0  0  0
  5 11  1  0  0  0  0
  7  9  1  0  0  0  0
  8  2  1  0  0  0  0
 10 17  1  0  0  0  0
 11  6  1  0  0  0  0
 12  3  1  0  0  0  0
 13  1  2  0  0  0  0
 15  4  1  0  0  0  0
 16 12  1  0  0  0  0
 16 15  2  0  0  0  0
 17  9  2  0  0  0  0
 17 27  1  0  0  0  0
 18  7  2  0  0  0  0
 19 13  1  0  0  0  0
 19 12  2  0  0  0  0
 20 24  1  0  0  0  0
 21 23  1  0  0  0  0
 21 20  2  0  0  0  0
 22 16  1  0  0  0  0
 23 25  2  0  0  0  0
 24 22  2  0  0  0  0
 25 22  1  0  0  0  0
 26 20  1  0  0  0  0
 28 27  1  0  0  0  0
 30 29  1  6  0  0  0
 30 28  1  0  0  0  0
 31 30  1  0  0  0  0
 31 33  1  0  0  0  0
 32 33  1  0  0  0  0
 33 34  1  0  0  0  0
M  END
>  <MODEL>
7

>  <REMARK>
 VINA RESULT:      -7.8      1.171      1.730
  Name = 
  6 active torsions:
  status: ('A' for Active; 'I' for Inactive)
    1  A    between atoms: C_3  and  C_13
    2  A    between atoms: C_3  and  C_29
    3  A    between atoms: C_12  and  C_28
    4  A    between atoms: C_13  and  C_33
    5  A    between atoms: C_20  and  C_22
    6  A    between atoms: C_22  and  C_33
                            x       y       z     vdW  Elec       q    Type
                         _______ _______ _______ _____ _____    ______ ____

>  <TORSDO>
F 6

$$$$
=
 OpenBabel11052418593D

 34 38  0  0  1  0  0  0  0  0999 V2000
  191.4420  176.1930  145.6420 C   0  0  0  0  0  0  0  0  0  0  0  0
  192.0330  174.0750  144.4140 C   0  0  2  0  0  3  0  0  0  0  0  0
  189.9570  175.5250  143.8050 C   0  0  0  0  0  0  0  0  0  0  0  0
  188.4210  175.0320  141.9620 C   0  0  0  0  0  0  0  0  0  0  0  0
  192.6760  176.1300  146.2870 O   0  0  0  0  0  0  0  0  0  0  0  0
  193.2760  174.0310  145.3150 C   0  0  0  0  0  2  0  0  0  0  0  0
  190.5690  173.9500  141.9770 C   0  0  0  0  0  3  0  0  0  0  0  0
  191.1350  175.2990  144.5930 C   0  0  0  0  0  0  0  0  0  0  0  0
  190.2330  173.2830  140.8010 C   0  0  0  0  0  3  0  0  0  0  0  0
  188.1110  174.3630  140.8190 N   0  0  0  0  0  0  0  0  0  0  0  0
  193.7550  175.4170  145.7030 C   0  0  0  0  0  2  0  0  0  0  0  0
  189.0230  176.5130  144.2450 C   0  0  0  0  0  0  0  0  0  0  0  0
  190.5260  177.1550  146.0420 C   0  0  0  0  0  3  0  0  0  0  0  0
  191.2440  172.8090  144.7070 C   0  0  0  0  0  1  0  0  0  0  0  0
  187.5390  175.9270  142.4610 N   0  0  0  0  0  0  0  0  0  0  0  0
  187.7940  176.6870  143.5570 C   0  0  0  0  0  0  0  0  0  0  0  0
  188.9800  173.5000  140.2330 C   0  0  0  0  0  0  0  0  0  0  0  0
  189.6620  174.8210  142.6010 C   0  0  0  0  0  0  0  0  0  0  0  0
  189.3220  177.2930  145.3690 C   0  0  0  0  0  3  0  0  0  0  0  0
  185.1020  178.4010  145.5900 C   0  0  0  0  0  0  0  0  0  0  0  0
  184.7220  179.4240  144.7200 C   0  0  0  0  0  3  0  0  0  0  0  0
  186.7470  177.6630  143.9650 C   0  0  0  0  0  0  0  0  0  0  0  0
  185.3310  179.5490  143.5110 N   0  0  0  0  0  0  0  0  0  0  0  0
  186.1120  177.5190  145.2060 C   0  0  0  0  0  3  0  0  0  0  0  0
  186.3180  178.6980  143.1200 C   0  0  0  0  0  3  0  0  0  0  0  0
  184.4360  178.2510  146.9080 C   0  0  0  0  0  1  0  0  0  0  0  0
  188.5890  172.7740  138.9950 C   0  0  0  0  0  2  0  0  0  0  0  0
  188.1870  173.7670  137.9180 C   0  0  0  0  0  2  0  0  0  0  0  0
  188.9680  174.8280  135.9220 O   0  0  0  0  0  1  0  0  0  0  0  0
  189.3840  174.1260  137.0520 C   0  0  2  0  0  3  0  0  0  0  0  0
  190.2320  172.9050  136.6620 C   0  0  0  0  0  2  0  0  0  0  0  0
  191.9870  174.1150  137.8060 O   0  0  0  0  0  1  0  0  0  0  0  0
  191.6830  172.9190  137.1550 C   0  0  0  0  0  3  0  0  0  0  0  0
  191.9440  171.8370  137.9960 O   0  0  0  0  0  1  0  0  0  0  0  0
  1 13  1  0  0  0  0
  1  5  1  0  0  0  0
  2  8  1  0  0  0  0
  2 14  1  1  0  0  0
  2  6  1  0  0  0  0
  3 12  2  0  0  0  0
  3  8  1  0  0  0  0
  4 15  1  0  0  0  0
  4 18  1  0  0  0  0
  6 11  1  0  0  0  0
  7 18  2  0  0  0  0
  8  1  2  0  0  0  0
  9  7  1  0  0  0  0
 10  4  2  0  0  0  0
 11  5  1  0  0  0  0
 12 19  1  0  0  0  0
 15 16  2  0  0  0  0
 16 22  1  0  0  0  0
 16 12  1  0  0  0  0
 17  9  2  0  0  0  0
 17 10  1  0  0  0  0
 18  3  1  0  0  0  0
 19 13  2  0  0  0  0
 20 26  1  0  0  0  0
 21 20  2  0  0  0  0
 22 24  2  0  0  0  0
 23 21  1  0  0  0  0
 24 20  1  0  0  0  0
 25 23  2  0  0  0  0
 25 22  1  0  0  0  0
 27 17  1  0  0  0  0
 28 27  1  0  0  0  0
 30 29  1  6  0  0  0
 30 28  1  0  0  0  0
 31 30  1  0  0  0  0
 31 33  1  0  0  0  0
 33 32  1  0  0  0  0
 33 34  1  0  0  0  0
M  END
>  <MODEL>
8

>  <REMARK>
 VINA RESULT:      -7.7      3.301      7.457
  Name = 
  6 active torsions:
  status: ('A' for Active; 'I' for Inactive)
    1  A    between atoms: C_3  and  C_13
    2  A    between atoms: C_3  and  C_29
    3  A    between atoms: C_12  and  C_28
    4  A    between atoms: C_13  and  C_33
    5  A    between atoms: C_20  and  C_22
    6  A    between atoms: C_22  and  C_33
                            x       y       z     vdW  Elec       q    Type
                         _______ _______ _______ _____ _____    ______ ____

>  <TORSDO>
F 6

$$$$
=
 OpenBabel11052418593D

 34 38  0  0  1  0  0  0  0  0999 V2000
  193.8330  174.0870  143.7850 C   0  0  0  0  0  0  0  0  0  0  0  0
  193.3810  175.7050  145.6620 C   0  0  2  0  0  3  0  0  0  0  0  0
  191.5070  174.8100  144.0900 C   0  0  0  0  0  0  0  0  0  0  0  0
  189.1350  175.3810  144.3050 C   0  0  0  0  0  0  0  0  0  0  0  0
  195.1250  173.9160  144.2830 O   0  0  0  0  0  0  0  0  0  0  0  0
  194.8720  175.5570  146.0000 C   0  0  0  0  0  2  0  0  0  0  0  0
  190.5850  175.8040  146.1770 C   0  0  0  0  0  3  0  0  0  0  0  0
  192.8790  174.8330  144.5120 C   0  0  0  0  0  0  0  0  0  0  0  0
  189.5040  176.3210  146.8880 C   0  0  0  0  0  3  0  0  0  0  0  0
  188.0960  175.8980  145.0140 N   0  0  0  0  0  0  0  0  0  0  0  0
  195.4100  174.1840  145.6470 C   0  0  0  0  0  2  0  0  0  0  0  0
  191.1930  174.2170  142.8290 C   0  0  0  0  0  0  0  0  0  0  0  0
  193.5010  173.5060  142.5700 C   0  0  0  0  0  3  0  0  0  0  0  0
  193.1580  177.1720  145.3320 C   0  0  0  0  0  1  0  0  0  0  0  0
  188.9030  174.8710  143.0750 N   0  0  0  0  0  0  0  0  0  0  0  0
  189.8670  174.2750  142.3260 C   0  0  0  0  0  0  0  0  0  0  0  0
  188.2510  176.3670  146.2790 C   0  0  0  0  0  0  0  0  0  0  0  0
  190.4330  175.3450  144.8590 C   0  0  0  0  0  0  0  0  0  0  0  0
  192.2050  173.5950  142.0870 C   0  0  0  0  0  3  0  0  0  0  0  0
  188.3860  174.0340  138.8530 C   0  0  0  0  0  0  0  0  0  0  0  0
  188.5940  172.6840  138.5670 C   0  0  0  0  0  3  0  0  0  0  0  0
  189.4550  173.7180  141.0080 C   0  0  0  0  0  0  0  0  0  0  0  0
  189.2030  171.8830  139.4800 N   0  0  0  0  0  0  0  0  0  0  0  0
  188.8130  174.5460  140.0780 C   0  0  0  0  0  3  0  0  0  0  0  0
  189.6270  172.3650  140.6800 C   0  0  0  0  0  3  0  0  0  0  0  0
  187.7120  174.9150  137.8650 C   0  0  0  0  0  1  0  0  0  0  0  0
  187.0900  176.9430  147.0080 C   0  0  0  0  0  2  0  0  0  0  0  0
  185.8960  177.0510  146.0760 C   0  0  0  0  0  2  0  0  0  0  0  0
  184.0650  178.5870  146.1730 O   0  0  0  0  0  1  0  0  0  0  0  0
  185.4410  178.4970  145.9600 C   0  0  2  0  0  3  0  0  0  0  0  0
  185.8360  179.1470  144.6250 C   0  0  0  0  0  2  0  0  0  0  0  0
  184.4310  178.3130  142.8410 O   0  0  0  0  0  1  0  0  0  0  0  0
  185.7130  178.2510  143.3880 C   0  0  0  0  0  3  0  0  0  0  0  0
  186.6620  178.5870  142.4220 O   0  0  0  0  0  1  0  0  0  0  0  0
  1  5  1  0  0  0  0
  1  8  1  0  0  0  0
  2 14  1  6  0  0  0
  2  6  1  0  0  0  0
  3  8  2  0  0  0  0
  3 18  1  0  0  0  0
  4 18  1  0  0  0  0
  4 10  2  0  0  0  0
  5 11  1  0  0  0  0
  7  9  1  0  0  0  0
  8  2  1  0  0  0  0
 10 17  1  0  0  0  0
 11  6  1  0  0  0  0
 12  3  1  0  0  0  0
 13  1  2  0  0  0  0
 15  4  1  0  0  0  0
 16 12  1  0  0  0  0
 16 15  2  0  0  0  0
 17  9  2  0  0  0  0
 17 27  1  0  0  0  0
 18  7  2  0  0  0  0
 19 13  1  0  0  0  0
 19 12  2  0  0  0  0
 20 24  1  0  0  0  0
 21 20  2  0  0  0  0
 21 23  1  0  0  0  0
 22 16  1  0  0  0  0
 23 25  2  0  0  0  0
 24 22  2  0  0  0  0
 25 22  1  0  0  0  0
 26 20  1  0  0  0  0
 28 27  1  0  0  0  0
 30 28  1  0  0  0  0
 30 29  1  6  0  0  0
 31 30  1  0  0  0  0
 32 33  1  0  0  0  0
 33 31  1  0  0  0  0
 34 33  1  0  0  0  0
M  END
>  <MODEL>
9

>  <REMARK>
 VINA RESULT:      -7.6      1.706      6.789
  Name = 
  6 active torsions:
  status: ('A' for Active; 'I' for Inactive)
    1  A    between atoms: C_3  and  C_13
    2  A    between atoms: C_3  and  C_29
    3  A    between atoms: C_12  and  C_28
    4  A    between atoms: C_13  and  C_33
    5  A    between atoms: C_20  and  C_22
    6  A    between atoms: C_22  and  C_33
                            x       y       z     vdW  Elec       q    Type
                         _______ _______ _______ _____ _____    ______ ____

>  <TORSDO>
F 6

$$$$
