=
 OpenBabel11052421303D

 32 36  0  0  1  0  0  0  0  0999 V2000
  194.0580  173.8340  143.9890 C   0  0  1  0  0  3  0  0  0  0  0  0
  191.1000  176.4870  146.3830 C   0  0  0  0  0  2  0  0  0  0  0  0
  188.5280  175.3610  141.4060 C   0  0  0  0  0  2  0  0  0  0  0  0
  187.5270  176.3360  142.0450 C   0  0  0  0  0  2  0  0  0  0  0  0
  193.3160  175.5600  145.6910 C   0  0  2  0  0  3  0  0  0  0  0  0
  191.6300  173.8670  144.6220 C   0  0  0  0  0  2  0  0  0  0  0  0
  193.8920  172.5200  143.5440 O   0  0  0  0  0  1  0  0  0  0  0  0
  189.8330  175.2610  142.1930 C   0  0  0  0  0  2  0  0  0  0  0  0
  190.7420  175.1010  144.5100 C   0  0  1  0  0  3  0  0  0  0  0  0
  189.5490  174.8150  143.6290 C   0  0  1  0  0  3  0  0  0  0  0  0
  188.9160  176.0260  145.6260 C   0  0  2  0  0  3  0  0  0  0  0  0
  195.7370  175.4200  145.0040 C   0  0  1  0  0  3  0  0  0  0  0  0
  193.0650  174.1420  145.1190 C   0  0  1  0  0  3  0  0  0  0  0  0
  194.7660  175.7080  146.1460 C   0  0  0  0  0  2  0  0  0  0  0  0
  195.5000  174.0120  144.4610 C   0  0  0  0  0  2  0  0  0  0  0  0
  187.9040  176.7560  143.4690 C   0  0  0  0  0  2  0  0  0  0  0  0
  188.3830  175.5540  144.2860 C   0  0  1  0  0  3  0  0  0  0  0  0
  192.4090  175.8800  146.8710 C   0  0  0  0  0  2  0  0  0  0  0  0
  190.2400  175.4490  145.8330 N   0  0  2  0  0  0  0  0  0  0  0  0
  195.5900  176.3960  143.9770 O   0  0  0  0  0  0  0  0  0  0  0  0
  196.5040  176.5110  142.9290 C   0  0  0  0  0  0  0  0  0  0  0  0
  197.8560  176.2600  143.1310 O   0  0  0  0  0  1  0  0  0  0  0  0
  196.0990  176.8490  141.7870 O   0  0  0  0  0  0  0  0  0  0  0  0
  187.9530  175.7020  146.7830 C   0  0  0  0  0  2  0  0  0  0  0  0
  185.9400  177.1630  146.2540 C   0  0  0  0  0  2  0  0  0  0  0  0
  184.9350  178.1270  146.8830 C   0  0  1  0  0  3  0  0  0  0  0  0
  186.8930  179.2670  147.9420 C   0  0  0  0  0  3  0  0  0  0  0  0
  185.6110  179.3010  147.5440 C   0  0  0  0  0  3  0  0  0  0  0  0
  187.8010  178.0960  147.6740 C   0  0  0  0  0  2  0  0  0  0  0  0
  187.0350  176.8350  147.2650 C   0  0  2  0  0  3  0  0  0  0  0  0
  183.9600  178.6160  145.8630 C   0  0  0  0  0  3  0  0  0  0  0  0
  184.3380  178.8350  144.6060 C   0  0  0  0  0  2  0  0  0  0  0  0
  1  7  1  1  0  0  0
  1 15  1  0  0  0  0
  1 13  1  0  0  0  0
  2 18  1  0  0  0  0
  3  4  1  0  0  0  0
  3  8  1  0  0  0  0
  4 16  1  0  0  0  0
  5 14  1  1  0  0  0
  5 18  1  0  0  0  0
  9  6  1  1  0  0  0
  9 19  1  0  0  0  0
 10  8  1  6  0  0  0
 10 17  1  0  0  0  0
 10  9  1  0  0  0  0
 11 19  1  0  0  0  0
 11 24  1  1  0  0  0
 12 20  1  6  0  0  0
 12 14  1  0  0  0  0
 13  6  1  6  0  0  0
 13  5  1  0  0  0  0
 15 12  1  0  0  0  0
 17 16  1  6  0  0  0
 17 11  1  0  0  0  0
 19  2  1  6  0  0  0
 21 22  1  0  0  0  0
 21 20  1  0  0  0  0
 23 21  2  0  0  0  0
 25 26  1  0  0  0  0
 25 30  1  0  0  0  0
 26 31  1  6  0  0  0
 26 28  1  0  0  0  0
 28 27  2  0  0  0  0
 29 27  1  0  0  0  0
 30 24  1  6  0  0  0
 30 29  1  0  0  0  0
 32 31  2  0  0  0  0
M  END
>  <MODEL>
1

>  <REMARK>
 VINA RESULT:      -8.3      0.000      0.000
  Name = 
  5 active torsions:
  status: ('A' for Active; 'I' for Inactive)
    1  A    between atoms: C_1  and  O_17
    2  A    between atoms: C_7  and  C_22
    3  A    between atoms: C_16  and  C_27
    4  A    between atoms: O_17  and  C_19
    5  A    between atoms: C_27  and  C_32
                            x       y       z     vdW  Elec       q    Type
                         _______ _______ _______ _____ _____    ______ ____

>  <TORSDO>
F 5

$$$$
=
 OpenBabel11052421303D

 32 36  0  0  1  0  0  0  0  0999 V2000
  194.5900  172.8800  145.0130 C   0  0  1  0  0  3  0  0  0  0  0  0
  192.4190  176.8950  144.1850 C   0  0  0  0  0  2  0  0  0  0  0  0
  188.8620  172.7890  142.4110 C   0  0  0  0  0  2  0  0  0  0  0  0
  188.1040  174.0510  141.9710 C   0  0  0  0  0  2  0  0  0  0  0  0
  194.3600  175.3590  144.5320 C   0  0  2  0  0  3  0  0  0  0  0  0
  192.3390  173.9270  145.3790 C   0  0  0  0  0  2  0  0  0  0  0  0
  194.2100  171.8390  145.8620 O   0  0  0  0  0  1  0  0  0  0  0  0
  190.2740  173.0960  142.9060 C   0  0  0  0  0  2  0  0  0  0  0  0
  191.5780  174.6960  144.3060 C   0  0  1  0  0  3  0  0  0  0  0  0
  190.2180  174.0790  144.0780 C   0  0  1  0  0  3  0  0  0  0  0  0
  190.0960  176.4930  144.1880 C   0  0  2  0  0  3  0  0  0  0  0  0
  196.5830  174.2120  144.2240 C   0  0  1  0  0  3  0  0  0  0  0  0
  193.8620  174.1750  145.4000 C   0  0  1  0  0  3  0  0  0  0  0  0
  195.8770  175.5010  144.6350 C   0  0  0  0  0  2  0  0  0  0  0  0
  196.1050  173.0550  145.1000 C   0  0  0  0  0  2  0  0  0  0  0  0
  188.7800  175.3550  142.4040 C   0  0  0  0  0  2  0  0  0  0  0  0
  189.2780  175.2620  143.8480 C   0  0  1  0  0  3  0  0  0  0  0  0
  193.7270  176.6830  144.9360 C   0  0  0  0  0  2  0  0  0  0  0  0
  191.3690  176.0660  144.7590 N   0  0  2  0  0  0  0  0  0  0  0  0
  196.3480  173.9420  142.8460 O   0  0  0  0  0  0  0  0  0  0  0  0
  196.6350  174.8750  141.8480 C   0  0  0  0  0  0  0  0  0  0  0  0
  197.9160  175.3940  141.7050 O   0  0  0  0  0  1  0  0  0  0  0  0
  195.7210  175.2530  141.0710 O   0  0  0  0  0  0  0  0  0  0  0  0
  189.3380  177.4590  145.1160 C   0  0  0  0  0  2  0  0  0  0  0  0
  186.8870  178.0380  144.7570 C   0  0  0  0  0  2  0  0  0  0  0  0
  185.4690  177.5010  144.9420 C   0  0  1  0  0  3  0  0  0  0  0  0
  186.1420  176.9010  147.2740 C   0  0  0  0  0  3  0  0  0  0  0  0
  185.1750  177.1570  146.3790 C   0  0  0  0  0  3  0  0  0  0  0  0
  187.6080  177.0360  146.9540 C   0  0  0  0  0  2  0  0  0  0  0  0
  187.8790  177.1080  145.4490 C   0  0  2  0  0  3  0  0  0  0  0  0
  184.4620  178.4840  144.4430 C   0  0  0  0  0  3  0  0  0  0  0  0
  184.8110  179.7350  144.1550 C   0  0  0  0  0  2  0  0  0  0  0  0
  1 15  1  0  0  0  0
  1 13  1  0  0  0  0
  1  7  1  1  0  0  0
  2 18  1  0  0  0  0
  3  8  1  0  0  0  0
  4 16  1  0  0  0  0
  4  3  1  0  0  0  0
  5 14  1  1  0  0  0
  5 18  1  0  0  0  0
  5 13  1  0  0  0  0
  9 19  1  0  0  0  0
  9  6  1  1  0  0  0
 10  8  1  6  0  0  0
 10  9  1  0  0  0  0
 11 19  1  0  0  0  0
 11 24  1  1  0  0  0
 12 20  1  6  0  0  0
 12 14  1  0  0  0  0
 12 15  1  0  0  0  0
 13  6  1  6  0  0  0
 17 16  1  6  0  0  0
 17 10  1  0  0  0  0
 17 11  1  0  0  0  0
 19  2  1  6  0  0  0
 21 20  1  0  0  0  0
 22 21  1  0  0  0  0
 23 21  2  0  0  0  0
 25 26  1  0  0  0  0
 25 30  1  0  0  0  0
 26 31  1  1  0  0  0
 26 28  1  0  0  0  0
 28 27  2  0  0  0  0
 29 27  1  0  0  0  0
 30 24  1  1  0  0  0
 30 29  1  0  0  0  0
 32 31  2  0  0  0  0
M  END
>  <MODEL>
2

>  <REMARK>
 VINA RESULT:      -8.2      1.604      1.948
  Name = 
  5 active torsions:
  status: ('A' for Active; 'I' for Inactive)
    1  A    between atoms: C_1  and  O_17
    2  A    between atoms: C_7  and  C_22
    3  A    between atoms: C_16  and  C_27
    4  A    between atoms: O_17  and  C_19
    5  A    between atoms: C_27  and  C_32
                            x       y       z     vdW  Elec       q    Type
                         _______ _______ _______ _____ _____    ______ ____

>  <TORSDO>
F 5

$$$$
=
 OpenBabel11052421303D

 32 36  0  0  1  0  0  0  0  0999 V2000
  192.6060  175.4700  146.3610 C   0  0  1  0  0  3  0  0  0  0  0  0
  190.6780  177.5400  142.6840 C   0  0  0  0  0  2  0  0  0  0  0  0
  188.8170  172.1370  142.6030 C   0  0  0  0  0  2  0  0  0  0  0  0
  188.2290  172.6760  141.2890 C   0  0  0  0  0  2  0  0  0  0  0  0
  192.3750  177.1530  144.4790 C   0  0  2  0  0  3  0  0  0  0  0  0
  190.3520  175.6970  145.2800 C   0  0  0  0  0  2  0  0  0  0  0  0
  191.9800  174.9060  147.4750 O   0  0  0  0  0  1  0  0  0  0  0  0
  189.7900  173.1180  143.2550 C   0  0  0  0  0  2  0  0  0  0  0  0
  190.1100  175.5340  143.7850 C   0  0  1  0  0  3  0  0  0  0  0  0
  189.0890  174.4510  143.5300 C   0  0  1  0  0  3  0  0  0  0  0  0
  188.6820  176.4020  142.1580 C   0  0  2  0  0  3  0  0  0  0  0  0
  194.5860  176.8640  145.6520 C   0  0  1  0  0  3  0  0  0  0  0  0
  191.6520  176.4420  145.6510 C   0  0  1  0  0  3  0  0  0  0  0  0
  193.6410  177.8490  144.9700 C   0  0  0  0  0  2  0  0  0  0  0  0
  193.8750  176.1850  146.8220 C   0  0  0  0  0  2  0  0  0  0  0  0
  188.4840  174.1700  141.0690 C   0  0  0  0  0  2  0  0  0  0  0  0
  188.2510  174.9610  142.3580 C   0  0  1  0  0  3  0  0  0  0  0  0
  191.4930  178.1890  143.7950 C   0  0  0  0  0  2  0  0  0  0  0  0
  189.5740  176.7790  143.2500 N   0  0  2  0  0  0  0  0  0  0  0  0
  195.0560  175.9030  144.7120 O   0  0  0  0  0  0  0  0  0  0  0  0
  195.6570  176.2770  143.5090 C   0  0  0  0  0  0  0  0  0  0  0  0
  195.0560  175.9830  142.2910 O   0  0  0  0  0  0  0  0  0  0  0  0
  196.7590  176.8840  143.5270 O   0  0  0  0  0  1  0  0  0  0  0  0
  187.4820  177.3570  142.0310 C   0  0  0  0  0  2  0  0  0  0  0  0
  186.6000  177.1830  144.4110 C   0  0  0  0  0  2  0  0  0  0  0  0
  186.4130  177.9780  145.7020 C   0  0  1  0  0  3  0  0  0  0  0  0
  185.4470  179.7980  144.2860 C   0  0  0  0  0  3  0  0  0  0  0  0
  185.5880  179.2210  145.4900 C   0  0  0  0  0  3  0  0  0  0  0  0
  186.0110  179.2020  143.0230 C   0  0  0  0  0  2  0  0  0  0  0  0
  187.0580  178.1200  143.2970 C   0  0  2  0  0  3  0  0  0  0  0  0
  185.7850  177.1310  146.7590 C   0  0  0  0  0  3  0  0  0  0  0  0
  185.8680  177.4660  148.0440 C   0  0  0  0  0  2  0  0  0  0  0  0
  1 15  1  0  0  0  0
  1  7  1  1  0  0  0
  2 18  1  0  0  0  0
  3  8  1  0  0  0  0
  4  3  1  0  0  0  0
  5 18  1  1  0  0  0
  5 14  1  0  0  0  0
  5 13  1  0  0  0  0
  9  6  1  1  0  0  0
 10  8  1  6  0  0  0
 10  9  1  0  0  0  0
 11 24  1  1  0  0  0
 11 17  1  0  0  0  0
 11 19  1  0  0  0  0
 12 20  1  6  0  0  0
 12 15  1  0  0  0  0
 13  6  1  6  0  0  0
 13  1  1  0  0  0  0
 14 12  1  0  0  0  0
 16  4  1  0  0  0  0
 17 16  1  6  0  0  0
 17 10  1  0  0  0  0
 19  2  1  6  0  0  0
 19  9  1  0  0  0  0
 21 23  1  0  0  0  0
 21 20  1  0  0  0  0
 22 21  2  0  0  0  0
 25 26  1  0  0  0  0
 26 31  1  1  0  0  0
 27 28  2  0  0  0  0
 28 26  1  0  0  0  0
 29 30  1  0  0  0  0
 29 27  1  0  0  0  0
 30 24  1  6  0  0  0
 30 25  1  0  0  0  0
 31 32  2  0  0  0  0
M  END
>  <MODEL>
3

>  <REMARK>
 VINA RESULT:      -8.1      1.910      3.124
  Name = 
  5 active torsions:
  status: ('A' for Active; 'I' for Inactive)
    1  A    between atoms: C_1  and  O_17
    2  A    between atoms: C_7  and  C_22
    3  A    between atoms: C_16  and  C_27
    4  A    between atoms: O_17  and  C_19
    5  A    between atoms: C_27  and  C_32
                            x       y       z     vdW  Elec       q    Type
                         _______ _______ _______ _____ _____    ______ ____

>  <TORSDO>
F 5

$$$$
=
 OpenBabel11052421303D

 32 36  0  0  1  0  0  0  0  0999 V2000
  194.6240  173.1550  144.9520 C   0  0  1  0  0  3  0  0  0  0  0  0
  191.4440  176.4970  144.4570 C   0  0  0  0  0  2  0  0  0  0  0  0
  189.7340  172.1900  141.1120 C   0  0  0  0  0  2  0  0  0  0  0  0
  188.6930  173.2670  140.7680 C   0  0  0  0  0  2  0  0  0  0  0  0
  193.6910  175.5130  144.9370 C   0  0  2  0  0  3  0  0  0  0  0  0
  192.1280  173.4150  144.9810 C   0  0  0  0  0  2  0  0  0  0  0  0
  194.4650  171.8650  145.4620 O   0  0  0  0  0  1  0  0  0  0  0  0
  190.8710  172.7300  141.9760 C   0  0  0  0  0  2  0  0  0  0  0  0
  191.3450  174.2000  143.9350 C   0  0  1  0  0  3  0  0  0  0  0  0
  190.3130  173.3170  143.2750 C   0  0  1  0  0  3  0  0  0  0  0  0
  189.4060  175.4900  143.8340 C   0  0  2  0  0  3  0  0  0  0  0  0
  196.1830  175.1390  144.9370 C   0  0  1  0  0  3  0  0  0  0  0  0
  193.4650  174.0540  145.4080 C   0  0  1  0  0  3  0  0  0  0  0  0
  195.0440  176.0310  145.4200 C   0  0  0  0  0  2  0  0  0  0  0  0
  195.9670  173.7080  145.4260 C   0  0  0  0  0  2  0  0  0  0  0  0
  188.8350  174.5450  141.6000 C   0  0  0  0  0  2  0  0  0  0  0  0
  189.0930  174.2160  143.0710 C   0  0  1  0  0  3  0  0  0  0  0  0
  192.6090  176.4600  145.4370 C   0  0  0  0  0  2  0  0  0  0  0  0
  190.6370  175.2920  144.5910 N   0  0  2  0  0  0  0  0  0  0  0  0
  196.2770  175.1860  143.5170 O   0  0  0  0  0  0  0  0  0  0  0  0
  196.5560  176.3690  142.8320 C   0  0  0  0  0  0  0  0  0  0  0  0
  195.8270  176.7280  141.7040 O   0  0  0  0  0  0  0  0  0  0  0  0
  197.4810  177.1180  143.2370 O   0  0  0  0  0  1  0  0  0  0  0  0
  188.2370  175.9340  144.7310 C   0  0  0  0  0  2  0  0  0  0  0  0
  186.3120  177.5230  145.2180 C   0  0  0  0  0  2  0  0  0  0  0  0
  185.8410  178.9640  145.0230 C   0  0  1  0  0  3  0  0  0  0  0  0
  186.4980  178.7120  142.6230 C   0  0  0  0  0  3  0  0  0  0  0  0
  185.7900  179.3510  143.5670 C   0  0  0  0  0  3  0  0  0  0  0  0
  187.3260  177.4860  142.9120 C   0  0  0  0  0  2  0  0  0  0  0  0
  187.5820  177.2860  144.4080 C   0  0  2  0  0  3  0  0  0  0  0  0
  184.5010  179.1720  145.6470 C   0  0  0  0  0  3  0  0  0  0  0  0
  184.0260  178.3160  146.5480 C   0  0  0  0  0  2  0  0  0  0  0  0
  1 13  1  0  0  0  0
  1 15  1  0  0  0  0
  1  7  1  1  0  0  0
  2 18  1  0  0  0  0
  3  8  1  0  0  0  0
  4  3  1  0  0  0  0
  4 16  1  0  0  0  0
  5 13  1  0  0  0  0
  5 14  1  1  0  0  0
  5 18  1  0  0  0  0
  9 19  1  0  0  0  0
  9  6  1  1  0  0  0
 10  8  1  6  0  0  0
 10  9  1  0  0  0  0
 11 19  1  0  0  0  0
 11 24  1  1  0  0  0
 12 20  1  6  0  0  0
 12 14  1  0  0  0  0
 12 15  1  0  0  0  0
 13  6  1  6  0  0  0
 17 16  1  6  0  0  0
 17 10  1  0  0  0  0
 17 11  1  0  0  0  0
 19  2  1  6  0  0  0
 21 23  1  0  0  0  0
 21 20  1  0  0  0  0
 22 21  2  0  0  0  0
 26 25  1  0  0  0  0
 26 31  1  6  0  0  0
 27 29  1  0  0  0  0
 27 28  2  0  0  0  0
 28 26  1  0  0  0  0
 29 30  1  0  0  0  0
 30 24  1  6  0  0  0
 30 25  1  0  0  0  0
 31 32  2  0  0  0  0
M  END
>  <MODEL>
4

>  <REMARK>
 VINA RESULT:      -8.0      1.441      2.340
  Name = 
  5 active torsions:
  status: ('A' for Active; 'I' for Inactive)
    1  A    between atoms: C_1  and  O_17
    2  A    between atoms: C_7  and  C_22
    3  A    between atoms: C_16  and  C_27
    4  A    between atoms: O_17  and  C_19
    5  A    between atoms: C_27  and  C_32
                            x       y       z     vdW  Elec       q    Type
                         _______ _______ _______ _____ _____    ______ ____

>  <TORSDO>
F 5

$$$$
=
 OpenBabel11052421303D

 32 36  0  0  1  0  0  0  0  0999 V2000
  187.3110  178.3040  142.3600 C   0  0  1  0  0  3  0  0  0  0  0  0
  188.2680  175.7580  146.1180 C   0  0  0  0  0  2  0  0  0  0  0  0
  189.4920  172.4480  141.6230 C   0  0  0  0  0  2  0  0  0  0  0  0
  189.7180  171.4690  142.7860 C   0  0  0  0  0  2  0  0  0  0  0  0
  187.1430  177.5380  144.7710 C   0  0  2  0  0  3  0  0  0  0  0  0
  189.1600  176.8580  143.2480 C   0  0  0  0  0  2  0  0  0  0  0  0
  188.1780  178.7420  141.3560 O   0  0  0  0  0  1  0  0  0  0  0  0
  188.8520  173.7580  142.0770 C   0  0  0  0  0  2  0  0  0  0  0  0
  188.9370  175.4860  143.8740 C   0  0  1  0  0  3  0  0  0  0  0  0
  189.7280  174.4340  143.1350 C   0  0  1  0  0  3  0  0  0  0  0  0
  189.9030  174.1640  145.5340 C   0  0  2  0  0  3  0  0  0  0  0  0
  185.3550  179.0150  143.7860 C   0  0  1  0  0  3  0  0  0  0  0  0
  188.1050  177.9210  143.6180 C   0  0  1  0  0  3  0  0  0  0  0  0
  186.1490  178.6650  145.0400 C   0  0  0  0  0  2  0  0  0  0  0  0
  186.3080  179.4160  142.6610 C   0  0  0  0  0  2  0  0  0  0  0  0
  189.5560  172.1090  144.1680 C   0  0  0  0  0  2  0  0  0  0  0  0
  190.2320  173.4800  144.2200 C   0  0  1  0  0  3  0  0  0  0  0  0
  187.8810  177.2300  146.0660 C   0  0  0  0  0  2  0  0  0  0  0  0
  189.4110  175.5080  145.2520 N   0  0  2  0  0  0  0  0  0  0  0  0
  184.5390  177.9150  143.3980 O   0  0  0  0  0  0  0  0  0  0  0  0
  183.7130  177.9650  142.2750 C   0  0  0  0  0  0  0  0  0  0  0  0
  184.1750  177.5500  141.0310 O   0  0  0  0  0  0  0  0  0  0  0  0
  182.5350  178.3920  142.3880 O   0  0  0  0  0  1  0  0  0  0  0  0
  191.1000  174.1730  146.5010 C   0  0  0  0  0  2  0  0  0  0  0  0
  193.5400  173.8550  145.8560 C   0  0  0  0  0  2  0  0  0  0  0  0
  194.7140  174.5360  145.1540 C   0  0  1  0  0  3  0  0  0  0  0  0
  194.1760  176.5660  146.5120 C   0  0  0  0  0  3  0  0  0  0  0  0
  195.0540  175.8650  145.7780 C   0  0  0  0  0  3  0  0  0  0  0  0
  192.8080  176.0430  146.8680 C   0  0  0  0  0  2  0  0  0  0  0  0
  192.3910  174.8470  146.0090 C   0  0  2  0  0  3  0  0  0  0  0  0
  195.9180  173.6540  145.1600 C   0  0  0  0  0  3  0  0  0  0  0  0
  196.8170  173.7300  146.1380 C   0  0  0  0  0  2  0  0  0  0  0  0
  1  7  1  6  0  0  0
  1 15  1  0  0  0  0
  1 13  1  0  0  0  0
  3  8  1  0  0  0  0
  3  4  1  0  0  0  0
  4 16  1  0  0  0  0
  5 14  1  1  0  0  0
  5 18  1  0  0  0  0
  9  6  1  6  0  0  0
  9 19  1  0  0  0  0
 10  8  1  6  0  0  0
 10  9  1  0  0  0  0
 10 17  1  0  0  0  0
 11 24  1  1  0  0  0
 12 20  1  6  0  0  0
 12 14  1  0  0  0  0
 13  6  1  6  0  0  0
 13  5  1  0  0  0  0
 15 12  1  0  0  0  0
 17 16  1  1  0  0  0
 17 11  1  0  0  0  0
 18  2  1  0  0  0  0
 19 11  1  0  0  0  0
 19  2  1  1  0  0  0
 21 23  1  0  0  0  0
 21 20  1  0  0  0  0
 22 21  2  0  0  0  0
 25 30  1  0  0  0  0
 26 31  1  1  0  0  0
 26 28  1  0  0  0  0
 26 25  1  0  0  0  0
 27 29  1  0  0  0  0
 28 27  2  0  0  0  0
 30 24  1  1  0  0  0
 30 29  1  0  0  0  0
 31 32  2  0  0  0  0
M  END
>  <MODEL>
5

>  <REMARK>
 VINA RESULT:      -7.6      4.180      8.160
  Name = 
  5 active torsions:
  status: ('A' for Active; 'I' for Inactive)
    1  A    between atoms: C_1  and  O_17
    2  A    between atoms: C_7  and  C_22
    3  A    between atoms: C_16  and  C_27
    4  A    between atoms: O_17  and  C_19
    5  A    between atoms: C_27  and  C_32
                            x       y       z     vdW  Elec       q    Type
                         _______ _______ _______ _____ _____    ______ ____

>  <TORSDO>
F 5

$$$$
=
 OpenBabel11052421303D

 32 36  0  0  1  0  0  0  0  0999 V2000
  195.5860  175.9180  143.7850 C   0  0  1  0  0  3  0  0  0  0  0  0
  191.4770  174.2570  142.4110 C   0  0  0  0  0  2  0  0  0  0  0  0
  190.8750  175.5700  147.9410 C   0  0  0  0  0  2  0  0  0  0  0  0
  189.5160  174.9190  147.6380 C   0  0  0  0  0  2  0  0  0  0  0  0
  193.9580  174.5630  142.3900 C   0  0  2  0  0  3  0  0  0  0  0  0
  193.1540  176.5220  143.9290 C   0  0  0  0  0  2  0  0  0  0  0  0
  195.8990  177.1930  144.2620 O   0  0  0  0  0  1  0  0  0  0  0  0
  191.8670  175.4140  146.7910 C   0  0  0  0  0  2  0  0  0  0  0  0
  192.0570  175.5340  144.3060 C   0  0  1  0  0  3  0  0  0  0  0  0
  191.2930  176.0290  145.5120 C   0  0  1  0  0  3  0  0  0  0  0  0
  189.8090  175.1700  143.8040 C   0  0  2  0  0  3  0  0  0  0  0  0
  196.4260  174.0590  142.3000 C   0  0  1  0  0  3  0  0  0  0  0  0
  194.2580  175.9500  143.0150 C   0  0  1  0  0  3  0  0  0  0  0  0
  195.1210  174.1070  141.5110 C   0  0  0  0  0  2  0  0  0  0  0  0
  196.7270  175.4350  142.8920 C   0  0  0  0  0  2  0  0  0  0  0  0
  189.3330  174.5360  146.1670 C   0  0  0  0  0  2  0  0  0  0  0  0
  189.8370  175.6470  145.2440 C   0  0  1  0  0  3  0  0  0  0  0  0
  192.6920  174.5670  141.5460 C   0  0  0  0  0  2  0  0  0  0  0  0
  191.1130  175.4250  143.2010 N   0  0  2  0  0  0  0  0  0  0  0  0
  196.3480  173.0690  143.3200 O   0  0  0  0  0  0  0  0  0  0  0  0
  197.2120  171.9740  143.3580 C   0  0  0  0  0  0  0  0  0  0  0  0
  197.5140  171.2650  142.2020 O   0  0  0  0  0  0  0  0  0  0  0  0
  197.7230  171.6230  144.4530 O   0  0  0  0  0  1  0  0  0  0  0  0
  188.6620  175.8080  143.0000 C   0  0  0  0  0  2  0  0  0  0  0  0
  186.8770  176.5830  144.6380 C   0  0  0  0  0  2  0  0  0  0  0  0
  186.3680  177.8080  145.3960 C   0  0  1  0  0  3  0  0  0  0  0  0
  186.5000  179.0410  143.2240 C   0  0  0  0  0  3  0  0  0  0  0  0
  186.0060  178.9390  144.4680 C   0  0  0  0  0  3  0  0  0  0  0  0
  187.3760  177.9840  142.6040 C   0  0  0  0  0  2  0  0  0  0  0  0
  187.9470  177.0090  143.6370 C   0  0  2  0  0  3  0  0  0  0  0  0
  185.1910  177.4550  146.2430 C   0  0  0  0  0  3  0  0  0  0  0  0
  184.1570  178.2860  146.3590 C   0  0  0  0  0  2  0  0  0  0  0  0
  1  7  1  6  0  0  0
  4  3  1  0  0  0  0
  5 14  1  6  0  0  0
  5 13  1  0  0  0  0
  8  3  1  0  0  0  0
  9  6  1  6  0  0  0
  9 10  1  0  0  0  0
 10  8  1  1  0  0  0
 11 24  1  6  0  0  0
 11 17  1  0  0  0  0
 12 15  1  0  0  0  0
 12 20  1  1  0  0  0
 13  1  1  0  0  0  0
 13  6  1  1  0  0  0
 14 12  1  0  0  0  0
 15  1  1  0  0  0  0
 16  4  1  0  0  0  0
 17 10  1  0  0  0  0
 17 16  1  1  0  0  0
 18  5  1  0  0  0  0
 18  2  1  0  0  0  0
 19  2  1  6  0  0  0
 19 11  1  0  0  0  0
 19  9  1  0  0  0  0
 20 21  1  0  0  0  0
 21 23  1  0  0  0  0
 22 21  2  0  0  0  0
 25 26  1  0  0  0  0
 26 31  1  6  0  0  0
 27 28  2  0  0  0  0
 28 26  1  0  0  0  0
 29 27  1  0  0  0  0
 29 30  1  0  0  0  0
 30 24  1  6  0  0  0
 30 25  1  0  0  0  0
 31 32  2  0  0  0  0
M  END
>  <MODEL>
6

>  <REMARK>
 VINA RESULT:      -7.4      2.013      3.968
  Name = 
  5 active torsions:
  status: ('A' for Active; 'I' for Inactive)
    1  A    between atoms: C_1  and  O_17
    2  A    between atoms: C_7  and  C_22
    3  A    between atoms: C_16  and  C_27
    4  A    between atoms: O_17  and  C_19
    5  A    between atoms: C_27  and  C_32
                            x       y       z     vdW  Elec       q    Type
                         _______ _______ _______ _____ _____    ______ ____

>  <TORSDO>
F 5

$$$$
=
 OpenBabel11052421303D

 32 36  0  0  1  0  0  0  0  0999 V2000
  192.1100  173.0160  141.1910 C   0  0  1  0  0  3  0  0  0  0  0  0
  188.3040  174.9120  143.0490 C   0  0  0  0  0  2  0  0  0  0  0  0
  192.3990  175.4050  147.0050 C   0  0  0  0  0  2  0  0  0  0  0  0
  191.1770  175.9370  147.7710 C   0  0  0  0  0  2  0  0  0  0  0  0
  189.6310  173.4080  141.5570 C   0  0  2  0  0  3  0  0  0  0  0  0
  191.4330  175.1070  142.4030 C   0  0  0  0  0  2  0  0  0  0  0  0
  193.3320  173.6220  140.8930 O   0  0  0  0  0  1  0  0  0  0  0  0
  192.0230  174.7830  145.6620 C   0  0  0  0  0  2  0  0  0  0  0  0
  190.5720  175.1170  143.6600 C   0  0  1  0  0  3  0  0  0  0  0  0
  191.2950  175.8100  144.7900 C   0  0  1  0  0  3  0  0  0  0  0  0
  188.9790  176.4980  144.6560 C   0  0  2  0  0  3  0  0  0  0  0  0
  190.4190  171.3540  140.3270 C   0  0  1  0  0  3  0  0  0  0  0  0
  191.0100  174.0790  141.3330 C   0  0  1  0  0  3  0  0  0  0  0  0
  189.3280  172.4150  140.4370 C   0  0  0  0  0  2  0  0  0  0  0  0
  191.7720  172.0220  140.0820 C   0  0  0  0  0  2  0  0  0  0  0  0
  189.9070  176.0210  146.9190 C   0  0  0  0  0  2  0  0  0  0  0  0
  190.2130  176.5940  145.5340 C   0  0  1  0  0  3  0  0  0  0  0  0
  188.4950  174.4190  141.6200 C   0  0  0  0  0  2  0  0  0  0  0  0
  189.3500  175.8640  143.3950 N   0  0  2  0  0  0  0  0  0  0  0  0
  190.4490  170.5550  141.5060 O   0  0  0  0  0  0  0  0  0  0  0  0
  190.9370  169.2480  141.5030 C   0  0  0  0  0  0  0  0  0  0  0  0
  190.4610  168.3120  140.5940 O   0  0  0  0  0  0  0  0  0  0  0  0
  191.8180  168.9130  142.3360 O   0  0  0  0  0  1  0  0  0  0  0  0
  188.3070  177.8670  144.4440 C   0  0  0  0  0  2  0  0  0  0  0  0
  186.2590  178.1160  142.9570 C   0  0  0  0  0  2  0  0  0  0  0  0
  184.7470  177.9000  142.9190 C   0  0  1  0  0  3  0  0  0  0  0  0
  184.6610  179.0530  145.1360 C   0  0  0  0  0  3  0  0  0  0  0  0
  184.0390  178.6520  144.0160 C   0  0  0  0  0  3  0  0  0  0  0  0
  186.1420  178.8830  145.3540 C   0  0  0  0  0  2  0  0  0  0  0  0
  186.7720  177.8880  144.3750 C   0  0  2  0  0  3  0  0  0  0  0  0
  184.1890  178.2990  141.5930 C   0  0  0  0  0  3  0  0  0  0  0  0
  184.9240  178.2120  140.4870 C   0  0  0  0  0  2  0  0  0  0  0  0
  1  7  1  6  0  0  0
  1 13  1  0  0  0  0
  3  4  1  0  0  0  0
  5 14  1  6  0  0  0
  5 18  1  0  0  0  0
  8  3  1  0  0  0  0
  9  6  1  6  0  0  0
  9 10  1  0  0  0  0
 10 17  1  0  0  0  0
 10  8  1  1  0  0  0
 11 24  1  6  0  0  0
 11 17  1  0  0  0  0
 12 14  1  0  0  0  0
 12 20  1  1  0  0  0
 13  5  1  0  0  0  0
 13  6  1  1  0  0  0
 15 12  1  0  0  0  0
 15  1  1  0  0  0  0
 16  4  1  0  0  0  0
 17 16  1  1  0  0  0
 18  2  1  0  0  0  0
 19  2  1  1  0  0  0
 19  9  1  0  0  0  0
 19 11  1  0  0  0  0
 21 20  1  0  0  0  0
 21 23  1  0  0  0  0
 22 21  2  0  0  0  0
 25 30  1  0  0  0  0
 26 31  1  6  0  0  0
 26 25  1  0  0  0  0
 26 28  1  0  0  0  0
 27 29  1  0  0  0  0
 28 27  2  0  0  0  0
 30 24  1  6  0  0  0
 30 29  1  0  0  0  0
 32 31  2  0  0  0  0
M  END
>  <MODEL>
7

>  <REMARK>
 VINA RESULT:      -7.4      2.783      5.448
  Name = 
  5 active torsions:
  status: ('A' for Active; 'I' for Inactive)
    1  A    between atoms: C_1  and  O_17
    2  A    between atoms: C_7  and  C_22
    3  A    between atoms: C_16  and  C_27
    4  A    between atoms: O_17  and  C_19
    5  A    between atoms: C_27  and  C_32
                            x       y       z     vdW  Elec       q    Type
                         _______ _______ _______ _____ _____    ______ ____

>  <TORSDO>
F 5

$$$$
=
 OpenBabel11052421303D

 32 36  0  0  1  0  0  0  0  0999 V2000
  185.7440  177.5570  142.0620 C   0  0  1  0  0  3  0  0  0  0  0  0
  189.8170  177.0200  144.2170 C   0  0  0  0  0  2  0  0  0  0  0  0
  188.8370  172.1110  141.4590 C   0  0  0  0  0  2  0  0  0  0  0  0
  190.1240  171.7710  142.2280 C   0  0  0  0  0  2  0  0  0  0  0  0
  187.5290  177.9460  143.8190 C   0  0  2  0  0  3  0  0  0  0  0  0
  188.0670  176.7580  141.5500 C   0  0  0  0  0  2  0  0  0  0  0  0
  185.4700  177.5410  140.6930 O   0  0  0  0  0  1  0  0  0  0  0  0
  188.2400  173.4520  141.8810 C   0  0  0  0  0  2  0  0  0  0  0  0
  188.8510  175.8040  142.4430 C   0  0  1  0  0  3  0  0  0  0  0  0
  189.2600  174.5730  141.6690 C   0  0  1  0  0  3  0  0  0  0  0  0
  191.0740  175.4180  143.0310 C   0  0  2  0  0  3  0  0  0  0  0  0
  185.1690  178.7330  144.2190 C   0  0  1  0  0  3  0  0  0  0  0  0
  187.2370  177.8200  142.3030 C   0  0  1  0  0  3  0  0  0  0  0  0
  186.6490  179.0230  144.4490 C   0  0  0  0  0  2  0  0  0  0  0  0
  184.8840  178.6330  142.7210 C   0  0  0  0  0  2  0  0  0  0  0  0
  190.7030  172.9540  143.0090 C   0  0  0  0  0  2  0  0  0  0  0  0
  190.6630  174.2350  142.1740 C   0  0  1  0  0  3  0  0  0  0  0  0
  188.9850  178.2910  144.1050 C   0  0  0  0  0  2  0  0  0  0  0  0
  190.0680  176.4660  142.8940 N   0  0  2  0  0  0  0  0  0  0  0  0
  184.7930  177.5350  144.8920 O   0  0  0  0  0  0  0  0  0  0  0  0
  184.8400  177.4210  146.2820 C   0  0  0  0  0  0  0  0  0  0  0  0
  185.7250  176.5410  146.8940 O   0  0  0  0  0  0  0  0  0  0  0  0
  184.0700  178.1200  146.9890 O   0  0  0  0  0  1  0  0  0  0  0  0
  192.4890  175.9200  142.6900 C   0  0  0  0  0  2  0  0  0  0  0  0
  194.1330  174.4770  143.9880 C   0  0  0  0  0  2  0  0  0  0  0  0
  195.3170  174.5450  144.9510 C   0  0  1  0  0  3  0  0  0  0  0  0
  193.9670  176.1720  146.2860 C   0  0  0  0  0  3  0  0  0  0  0  0
  194.9780  175.2930  146.2150 C   0  0  0  0  0  3  0  0  0  0  0  0
  193.0150  176.4170  145.1450 C   0  0  0  0  0  2  0  0  0  0  0  0
  193.5360  175.8710  143.8130 C   0  0  2  0  0  3  0  0  0  0  0  0
  195.8020  173.1740  145.2910 C   0  0  0  0  0  3  0  0  0  0  0  0
  196.8150  172.9970  146.1350 C   0  0  0  0  0  2  0  0  0  0  0  0
  1  7  1  6  0  0  0
  1 13  1  0  0  0  0
  1 15  1  0  0  0  0
  3  8  1  0  0  0  0
  3  4  1  0  0  0  0
  4 16  1  0  0  0  0
  5 18  1  6  0  0  0
  5 14  1  0  0  0  0
  9  6  1  6  0  0  0
  9 19  1  0  0  0  0
 10  8  1  1  0  0  0
 10 17  1  0  0  0  0
 10  9  1  0  0  0  0
 11 24  1  6  0  0  0
 12 14  1  0  0  0  0
 12 20  1  1  0  0  0
 13  6  1  1  0  0  0
 13  5  1  0  0  0  0
 15 12  1  0  0  0  0
 17 16  1  1  0  0  0
 17 11  1  0  0  0  0
 18  2  1  0  0  0  0
 19 11  1  0  0  0  0
 19  2  1  1  0  0  0
 20 21  1  0  0  0  0
 21 22  2  0  0  0  0
 21 23  1  0  0  0  0
 25 26  1  0  0  0  0
 26 31  1  1  0  0  0
 26 28  1  0  0  0  0
 28 27  2  0  0  0  0
 29 27  1  0  0  0  0
 30 24  1  6  0  0  0
 30 25  1  0  0  0  0
 30 29  1  0  0  0  0
 31 32  2  0  0  0  0
M  END
>  <MODEL>
8

>  <REMARK>
 VINA RESULT:      -7.3      4.260      8.419
  Name = 
  5 active torsions:
  status: ('A' for Active; 'I' for Inactive)
    1  A    between atoms: C_1  and  O_17
    2  A    between atoms: C_7  and  C_22
    3  A    between atoms: C_16  and  C_27
    4  A    between atoms: O_17  and  C_19
    5  A    between atoms: C_27  and  C_32
                            x       y       z     vdW  Elec       q    Type
                         _______ _______ _______ _____ _____    ______ ____

>  <TORSDO>
F 5

$$$$
=
 OpenBabel11052421303D

 32 36  0  0  1  0  0  0  0  0999 V2000
  191.7530  173.1190  140.9800 C   0  0  1  0  0  3  0  0  0  0  0  0
  190.0840  173.6830  145.2720 C   0  0  0  0  0  2  0  0  0  0  0  0
  194.8460  176.8300  145.0100 C   0  0  0  0  0  2  0  0  0  0  0  0
  194.4640  176.9890  146.4900 C   0  0  0  0  0  2  0  0  0  0  0  0
  190.4710  172.5310  143.0870 C   0  0  2  0  0  3  0  0  0  0  0  0
  191.2540  174.9790  142.5900 C   0  0  0  0  0  2  0  0  0  0  0  0
  191.9310  174.0750  139.9790 O   0  0  0  0  0  1  0  0  0  0  0  0
  193.9950  175.7840  144.2950 C   0  0  0  0  0  2  0  0  0  0  0  0
  191.6540  174.9570  144.0600 C   0  0  1  0  0  3  0  0  0  0  0  0
  192.5130  176.1540  144.3910 C   0  0  1  0  0  3  0  0  0  0  0  0
  190.8330  175.7630  146.0890 C   0  0  2  0  0  3  0  0  0  0  0  0
  191.0010  170.7450  141.3900 C   0  0  1  0  0  3  0  0  0  0  0  0
  190.7560  173.6290  142.0310 C   0  0  1  0  0  3  0  0  0  0  0  0
  189.9880  171.2490  142.4140 C   0  0  0  0  0  2  0  0  0  0  0  0
  191.2590  171.8230  140.3390 C   0  0  0  0  0  2  0  0  0  0  0  0
  193.1380  176.3170  146.8570 C   0  0  0  0  0  2  0  0  0  0  0  0
  192.0740  176.5840  145.7910 C   0  0  1  0  0  3  0  0  0  0  0  0
  189.4230  172.9610  144.1050 C   0  0  0  0  0  2  0  0  0  0  0  0
  190.4530  175.0360  144.8820 N   0  0  2  0  0  0  0  0  0  0  0  0
  192.2090  170.3660  142.0410 O   0  0  0  0  0  0  0  0  0  0  0  0
  192.5740  169.0290  142.2070 C   0  0  0  0  0  0  0  0  0  0  0  0
  192.7250  168.4840  143.4760 O   0  0  0  0  0  1  0  0  0  0  0  0
  192.7700  168.3090  141.1940 O   0  0  0  0  0  0  0  0  0  0  0  0
  189.6820  176.6250  146.6360 C   0  0  0  0  0  2  0  0  0  0  0  0
  188.2000  177.6130  144.8200 C   0  0  0  0  0  2  0  0  0  0  0  0
  186.9530  177.3370  143.9800 C   0  0  1  0  0  3  0  0  0  0  0  0
  185.8210  176.6900  146.1150 C   0  0  0  0  0  3  0  0  0  0  0  0
  185.7370  177.0870  144.8350 C   0  0  0  0  0  3  0  0  0  0  0  0
  187.1320  176.5580  146.8450 C   0  0  0  0  0  2  0  0  0  0  0  0
  188.3360  176.5420  145.8990 C   0  0  2  0  0  3  0  0  0  0  0  0
  186.6860  178.4660  143.0420 C   0  0  0  0  0  3  0  0  0  0  0  0
  185.7570  179.3780  143.3160 C   0  0  0  0  0  2  0  0  0  0  0  0
  1  7  1  6  0  0  0
  1 13  1  0  0  0  0
  3  4  1  0  0  0  0
  4 16  1  0  0  0  0
  5 14  1  6  0  0  0
  5 18  1  0  0  0  0
  8  3  1  0  0  0  0
  9  6  1  6  0  0  0
  9 10  1  0  0  0  0
  9 19  1  0  0  0  0
 10  8  1  1  0  0  0
 10 17  1  0  0  0  0
 11 24  1  6  0  0  0
 12 20  1  1  0  0  0
 12 14  1  0  0  0  0
 13  6  1  1  0  0  0
 13  5  1  0  0  0  0
 15  1  1  0  0  0  0
 15 12  1  0  0  0  0
 17 11  1  0  0  0  0
 17 16  1  1  0  0  0
 18  2  1  0  0  0  0
 19  2  1  1  0  0  0
 19 11  1  0  0  0  0
 20 21  1  0  0  0  0
 21 22  1  0  0  0  0
 23 21  2  0  0  0  0
 25 30  1  0  0  0  0
 26 31  1  6  0  0  0
 26 25  1  0  0  0  0
 26 28  1  0  0  0  0
 27 29  1  0  0  0  0
 28 27  2  0  0  0  0
 30 24  1  1  0  0  0
 30 29  1  0  0  0  0
 31 32  2  0  0  0  0
M  END
>  <MODEL>
9

>  <REMARK>
 VINA RESULT:      -7.3      2.602      5.170
  Name = 
  5 active torsions:
  status: ('A' for Active; 'I' for Inactive)
    1  A    between atoms: C_1  and  O_17
    2  A    between atoms: C_7  and  C_22
    3  A    between atoms: C_16  and  C_27
    4  A    between atoms: O_17  and  C_19
    5  A    between atoms: C_27  and  C_32
                            x       y       z     vdW  Elec       q    Type
                         _______ _______ _______ _____ _____    ______ ____

>  <TORSDO>
F 5

$$$$
