=
 OpenBabel11052417283D

 25 27  0  0  1  0  0  0  0  0999 V2000
  186.8320  178.1600  144.6530 N   0  0  1  0  0  0  0  0  0  0  0  0
  185.8480  176.5570  146.1050 O   0  0  0  0  0  1  0  0  0  0  0  0
  185.3150  178.8480  146.3860 N   0  0  0  0  0  0  0  0  0  0  0  0
  184.8650  178.5280  147.6230 O   0  0  0  0  0  1  0  0  0  0  0  0
  185.7440  178.0750  143.6660 C   0  0  0  0  0  2  0  0  0  0  0  0
  184.1760  178.7500  145.4720 C   0  0  0  0  0  2  0  0  0  0  0  0
  184.6230  179.0400  144.0420 C   0  0  2  0  0  3  0  0  0  0  0  0
  186.3420  177.8670  146.0080 C   0  0  2  0  0  3  0  0  0  0  0  0
  188.0140  177.3380  144.3360 C   0  0  2  0  0  3  0  0  0  0  0  0
  188.1540  177.7740  141.7130 C   0  0  0  0  0  1  0  0  0  0  0  0
  189.0730  177.5420  145.4130 C   0  0  2  0  0  3  0  0  0  0  0  0
  191.0420  176.3040  146.2050 C   0  0  0  0  0  0  0  0  0  0  0  0
  190.3040  177.6290  144.6000 C   0  0  0  0  0  0  0  0  0  0  0  0
  191.3460  176.9920  145.0070 N   0  0  0  0  0  0  0  0  0  0  0  0
  191.9370  175.8500  146.9630 O   0  0  0  0  0  0  0  0  0  0  0  0
  188.7660  177.7190  143.0690 C   0  0  2  0  0  3  0  0  0  0  0  0
  190.0420  177.8440  143.2270 N   0  0  0  0  0  2  0  0  0  0  0  0
  189.2960  176.1310  146.5480 S   0  0  0  0  0  0  0  0  0  0  0  0
  183.4670  178.8740  143.1190 C   0  0  0  0  0  3  0  0  0  0  0  0
  183.6240  178.3130  141.9240 C   0  0  0  0  0  3  0  0  0  0  0  0
  182.5290  178.1120  140.9580 C   0  0  0  0  0  0  0  0  0  0  0  0
  182.8080  177.5100  139.8500 N   0  0  0  0  0  2  0  0  0  0  0  0
  181.1390  178.5600  141.1920 C   0  0  0  0  0  0  0  0  0  0  0  0
  180.7210  179.7940  140.7060 O   0  0  0  0  0  0  0  0  0  0  0  0
  180.3190  177.8420  141.8240 O   0  0  0  0  0  1  0  0  0  0  0  0
  1  5  1  6  0  0  0
  1  8  1  0  0  0  0
  3  4  1  0  0  0  0
  5  7  1  0  0  0  0
  6  3  1  0  0  0  0
  7 19  1  6  0  0  0
  7  6  1  0  0  0  0
  8  2  1  6  0  0  0
  8  3  1  0  0  0  0
  9  1  1  1  0  0  0
  9 11  1  0  0  0  0
 11 13  1  6  0  0  0
 11 18  1  0  0  0  0
 12 18  1  0  0  0  0
 12 15  2  0  0  0  0
 13 14  2  0  0  0  0
 14 12  1  0  0  0  0
 16 10  1  6  0  0  0
 16 17  1  0  0  0  0
 16  9  1  0  0  0  0
 17 13  1  0  0  0  0
 20 19  2  0  0  0  0
 21 23  1  0  0  0  0
 21 20  1  0  0  0  0
 22 21  2  0  0  0  0
 23 25  1  0  0  0  0
 24 23  2  0  0  0  0
M  END
>  <MODEL>
1

>  <REMARK>
 VINA RESULT:      -7.2      0.000      0.000
  Name = 
  4 active torsions:
  status: ('A' for Active; 'I' for Inactive)
    1  A    between atoms: C_1  and  N_3
    2  A    between atoms: C_2  and  CA_21
    3  A    between atoms: C_6  and  C_23
    4  A    between atoms: C_15  and  CA_21
                            x       y       z     vdW  Elec       q    Type
                         _______ _______ _______ _____ _____    ______ ____

>  <TORSDO>
F 4

$$$$
=
 OpenBabel11052417283D

 25 27  0  0  1  0  0  0  0  0999 V2000
  185.7310  177.5610  143.5880 N   0  0  1  0  0  0  0  0  0  0  0  0
  186.9210  179.2050  142.3530 O   0  0  0  0  0  1  0  0  0  0  0  0
  185.8870  177.4170  141.1930 N   0  0  0  0  0  0  0  0  0  0  0  0
  186.6790  177.7250  140.1380 O   0  0  0  0  0  1  0  0  0  0  0  0
  184.4550  178.2880  143.5110 C   0  0  0  0  0  2  0  0  0  0  0  0
  184.6420  178.1700  141.0350 C   0  0  0  0  0  2  0  0  0  0  0  0
  183.7200  177.9170  142.2250 C   0  0  2  0  0  3  0  0  0  0  0  0
  186.5760  177.8470  142.4190 C   0  0  2  0  0  3  0  0  0  0  0  0
  186.4830  177.7700  144.8390 C   0  0  2  0  0  3  0  0  0  0  0  0
  184.4440  177.9870  146.5370 C   0  0  0  0  0  1  0  0  0  0  0  0
  187.6790  176.8270  144.8710 C   0  0  2  0  0  3  0  0  0  0  0  0
  189.8200  176.7370  146.0740 C   0  0  0  0  0  0  0  0  0  0  0  0
  187.6510  176.3690  146.2770 C   0  0  0  0  0  0  0  0  0  0  0  0
  188.7670  176.3090  146.9170 N   0  0  0  0  0  0  0  0  0  0  0  0
  191.0280  176.5050  146.3390 O   0  0  0  0  0  0  0  0  0  0  0  0
  185.7500  177.4060  146.1210 C   0  0  2  0  0  3  0  0  0  0  0  0
  186.4280  176.6530  146.9240 N   0  0  0  0  0  2  0  0  0  0  0  0
  189.2980  177.6280  144.6150 S   0  0  0  0  0  0  0  0  0  0  0  0
  182.4870  178.7380  142.0790 C   0  0  0  0  0  3  0  0  0  0  0  0
  181.4660  178.3100  141.3420 C   0  0  0  0  0  3  0  0  0  0  0  0
  180.2150  179.0650  141.1520 C   0  0  0  0  0  0  0  0  0  0  0  0
  180.2740  180.1690  140.4840 N   0  0  0  0  0  2  0  0  0  0  0  0
  178.9060  178.6250  141.6810 C   0  0  0  0  0  0  0  0  0  0  0  0
  178.7210  177.2980  142.0500 O   0  0  0  0  0  1  0  0  0  0  0  0
  177.9480  179.4340  141.8080 O   0  0  0  0  0  0  0  0  0  0  0  0
  1  5  1  1  0  0  0
  3  8  1  0  0  0  0
  4  3  1  0  0  0  0
  6  3  1  0  0  0  0
  6  7  1  0  0  0  0
  7 19  1  6  0  0  0
  7  5  1  0  0  0  0
  8  2  1  6  0  0  0
  8  1  1  0  0  0  0
  9  1  1  6  0  0  0
  9 11  1  0  0  0  0
  9 16  1  0  0  0  0
 11 18  1  1  0  0  0
 11 13  1  0  0  0  0
 12 15  2  0  0  0  0
 12 14  1  0  0  0  0
 13 14  2  0  0  0  0
 13 17  1  0  0  0  0
 16 10  1  1  0  0  0
 16 17  1  0  0  0  0
 18 12  1  0  0  0  0
 20 19  2  0  0  0  0
 21 20  1  0  0  0  0
 21 23  1  0  0  0  0
 22 21  2  0  0  0  0
 23 25  2  0  0  0  0
 23 24  1  0  0  0  0
M  END
>  <MODEL>
2

>  <REMARK>
 VINA RESULT:      -6.9      2.425      3.622
  Name = 
  4 active torsions:
  status: ('A' for Active; 'I' for Inactive)
    1  A    between atoms: C_1  and  N_3
    2  A    between atoms: C_2  and  CA_21
    3  A    between atoms: C_6  and  C_23
    4  A    between atoms: C_15  and  CA_21
                            x       y       z     vdW  Elec       q    Type
                         _______ _______ _______ _____ _____    ______ ____

>  <TORSDO>
F 4

$$$$
=
 OpenBabel11052417283D

 25 27  0  0  1  0  0  0  0  0999 V2000
  187.1690  176.9880  144.3200 N   0  0  1  0  0  0  0  0  0  0  0  0
  186.7790  178.6680  145.9540 O   0  0  0  0  0  1  0  0  0  0  0  0
  186.5670  176.3910  146.5700 N   0  0  0  0  0  0  0  0  0  0  0  0
  185.8740  176.8130  147.6550 O   0  0  0  0  0  1  0  0  0  0  0  0
  188.6040  176.8890  144.6250 C   0  0  0  0  0  2  0  0  0  0  0  0
  187.9750  176.3100  146.9590 C   0  0  0  0  0  2  0  0  0  0  0  0
  188.8290  175.8960  145.7630 C   0  0  2  0  0  3  0  0  0  0  0  0
  186.4010  177.3930  145.5070 C   0  0  2  0  0  3  0  0  0  0  0  0
  186.8440  177.8500  143.1680 C   0  0  2  0  0  3  0  0  0  0  0  0
  189.2910  178.1910  142.1780 C   0  0  0  0  0  1  0  0  0  0  0  0
  185.5840  177.3270  142.4890 C   0  0  2  0  0  3  0  0  0  0  0  0
  183.8860  178.2540  140.9740 C   0  0  0  0  0  0  0  0  0  0  0  0
  185.9460  177.4610  141.0620 C   0  0  0  0  0  0  0  0  0  0  0  0
  185.0630  177.9380  140.2550 N   0  0  0  0  0  0  0  0  0  0  0  0
  182.7840  178.4550  140.4010 O   0  0  0  0  0  0  0  0  0  0  0  0
  187.8520  177.8420  142.0290 C   0  0  2  0  0  3  0  0  0  0  0  0
  187.3310  177.6580  140.8610 N   0  0  0  0  0  2  0  0  0  0  0  0
  184.0920  178.3440  142.7470 S   0  0  0  0  0  0  0  0  0  0  0  0
  190.2630  175.8810  146.1610 C   0  0  0  0  0  3  0  0  0  0  0  0
  191.1970  176.3910  145.3630 C   0  0  0  0  0  3  0  0  0  0  0  0
  192.6340  176.4140  145.6890 C   0  0  0  0  0  0  0  0  0  0  0  0
  192.9720  176.2820  146.9290 N   0  0  0  0  0  2  0  0  0  0  0  0
  193.7000  176.5770  144.6770 C   0  0  0  0  0  0  0  0  0  0  0  0
  194.9490  177.0500  145.0610 O   0  0  0  0  0  1  0  0  0  0  0  0
  193.5000  176.2930  143.4660 O   0  0  0  0  0  0  0  0  0  0  0  0
  1  5  1  1  0  0  0
  1  8  1  0  0  0  0
  3  6  1  0  0  0  0
  3  4  1  0  0  0  0
  5  7  1  0  0  0  0
  7 19  1  1  0  0  0
  7  6  1  0  0  0  0
  8  2  1  1  0  0  0
  8  3  1  0  0  0  0
  9  1  1  1  0  0  0
 11 13  1  6  0  0  0
 11 18  1  0  0  0  0
 11  9  1  0  0  0  0
 12 18  1  0  0  0  0
 14 12  1  0  0  0  0
 14 13  2  0  0  0  0
 15 12  2  0  0  0  0
 16 10  1  6  0  0  0
 16  9  1  0  0  0  0
 17 13  1  0  0  0  0
 17 16  1  0  0  0  0
 20 21  1  0  0  0  0
 20 19  2  0  0  0  0
 21 22  2  0  0  0  0
 23 24  1  0  0  0  0
 23 21  1  0  0  0  0
 25 23  2  0  0  0  0
M  END
>  <MODEL>
3

>  <REMARK>
 VINA RESULT:      -6.7      2.509      7.697
  Name = 
  4 active torsions:
  status: ('A' for Active; 'I' for Inactive)
    1  A    between atoms: C_1  and  N_3
    2  A    between atoms: C_2  and  CA_21
    3  A    between atoms: C_6  and  C_23
    4  A    between atoms: C_15  and  CA_21
                            x       y       z     vdW  Elec       q    Type
                         _______ _______ _______ _____ _____    ______ ____

>  <TORSDO>
F 4

$$$$
=
 OpenBabel11052417283D

 25 27  0  0  1  0  0  0  0  0999 V2000
  188.7370  176.4670  144.7200 N   0  0  1  0  0  0  0  0  0  0  0  0
  188.9440  177.0510  147.0140 O   0  0  0  0  0  1  0  0  0  0  0  0
  189.2260  174.7880  146.3710 N   0  0  0  0  0  0  0  0  0  0  0  0
  189.0360  174.4600  147.6720 O   0  0  0  0  0  1  0  0  0  0  0  0
  190.1650  176.6770  144.4390 C   0  0  0  0  0  2  0  0  0  0  0  0
  190.6640  174.9680  146.1740 C   0  0  0  0  0  2  0  0  0  0  0  0
  190.9490  175.4010  144.7380 C   0  0  2  0  0  3  0  0  0  0  0  0
  188.5260  176.0560  146.1170 C   0  0  2  0  0  3  0  0  0  0  0  0
  187.8690  177.6080  144.3750 C   0  0  2  0  0  3  0  0  0  0  0  0
  188.8360  178.1710  141.9590 C   0  0  0  0  0  1  0  0  0  0  0  0
  186.4390  177.2990  144.8020 C   0  0  2  0  0  3  0  0  0  0  0  0
  184.4180  178.6160  145.2690 C   0  0  0  0  0  0  0  0  0  0  0  0
  185.6730  177.8040  143.6430 C   0  0  0  0  0  0  0  0  0  0  0  0
  184.6070  178.4890  143.8720 N   0  0  0  0  0  0  0  0  0  0  0  0
  183.3190  178.9750  145.7660 O   0  0  0  0  0  0  0  0  0  0  0  0
  187.7070  177.8910  142.8890 C   0  0  2  0  0  3  0  0  0  0  0  0
  186.4810  178.0300  142.5060 N   0  0  0  0  0  2  0  0  0  0  0  0
  185.8550  178.2290  146.2590 S   0  0  0  0  0  0  0  0  0  0  0  0
  192.4090  175.6400  144.5730 C   0  0  0  0  0  3  0  0  0  0  0  0
  193.0520  176.4960  145.3610 C   0  0  0  0  0  3  0  0  0  0  0  0
  194.4950  176.7830  145.2590 C   0  0  0  0  0  0  0  0  0  0  0  0
  194.9360  177.8530  145.8330 N   0  0  0  0  0  2  0  0  0  0  0  0
  195.4540  175.9160  144.5430 C   0  0  0  0  0  0  0  0  0  0  0  0
  195.6840  176.1150  143.1860 O   0  0  0  0  0  0  0  0  0  0  0  0
  196.0730  174.9950  145.1390 O   0  0  0  0  0  1  0  0  0  0  0  0
  1  5  1  1  0  0  0
  1  8  1  0  0  0  0
  3  4  1  0  0  0  0
  5  7  1  0  0  0  0
  6  3  1  0  0  0  0
  7 19  1  1  0  0  0
  7  6  1  0  0  0  0
  8  3  1  0  0  0  0
  8  2  1  1  0  0  0
  9  1  1  6  0  0  0
  9 11  1  0  0  0  0
 11 13  1  6  0  0  0
 11 18  1  0  0  0  0
 12 15  2  0  0  0  0
 12 18  1  0  0  0  0
 13 14  2  0  0  0  0
 14 12  1  0  0  0  0
 16 10  1  1  0  0  0
 16  9  1  0  0  0  0
 17 16  1  0  0  0  0
 17 13  1  0  0  0  0
 19 20  2  0  0  0  0
 21 20  1  0  0  0  0
 21 22  2  0  0  0  0
 23 25  1  0  0  0  0
 23 21  1  0  0  0  0
 24 23  2  0  0  0  0
M  END
>  <MODEL>
4

>  <REMARK>
 VINA RESULT:      -6.7      2.938      8.358
  Name = 
  4 active torsions:
  status: ('A' for Active; 'I' for Inactive)
    1  A    between atoms: C_1  and  N_3
    2  A    between atoms: C_2  and  CA_21
    3  A    between atoms: C_6  and  C_23
    4  A    between atoms: C_15  and  CA_21
                            x       y       z     vdW  Elec       q    Type
                         _______ _______ _______ _____ _____    ______ ____

>  <TORSDO>
F 4

$$$$
=
 OpenBabel11052417283D

 25 27  0  0  1  0  0  0  0  0999 V2000
  188.8390  176.5440  144.0840 N   0  0  1  0  0  0  0  0  0  0  0  0
  189.2240  174.2050  143.9340 O   0  0  0  0  0  1  0  0  0  0  0  0
  189.9020  175.6010  142.1440 N   0  0  0  0  0  0  0  0  0  0  0  0
  189.9670  174.4840  141.3800 O   0  0  0  0  0  1  0  0  0  0  0  0
  190.1350  176.8130  144.7240 C   0  0  0  0  0  2  0  0  0  0  0  0
  191.2260  175.8020  142.7330 C   0  0  0  0  0  2  0  0  0  0  0  0
  191.2110  177.0150  143.6600 C   0  0  2  0  0  3  0  0  0  0  0  0
  188.9150  175.3650  143.2080 C   0  0  2  0  0  3  0  0  0  0  0  0
  187.7040  176.4290  145.0180 C   0  0  2  0  0  3  0  0  0  0  0  0
  188.9260  175.1860  147.0310 C   0  0  0  0  0  1  0  0  0  0  0  0
  186.9150  177.7330  145.0160 C   0  0  2  0  0  3  0  0  0  0  0  0
  184.6440  178.4190  145.6550 C   0  0  0  0  0  0  0  0  0  0  0  0
  186.6380  177.9080  146.4570 C   0  0  0  0  0  0  0  0  0  0  0  0
  185.4550  178.2760  146.8060 N   0  0  0  0  0  0  0  0  0  0  0  0
  183.5500  179.0400  145.6780 O   0  0  0  0  0  0  0  0  0  0  0  0
  188.0690  176.2750  146.4870 C   0  0  2  0  0  3  0  0  0  0  0  0
  187.4420  177.0830  147.2760 N   0  0  0  0  0  2  0  0  0  0  0  0
  185.2970  177.6510  144.1790 S   0  0  0  0  0  0  0  0  0  0  0  0
  192.5480  177.1670  144.2980 C   0  0  0  0  0  3  0  0  0  0  0  0
  193.0900  176.1690  144.9900 C   0  0  0  0  0  3  0  0  0  0  0  0
  194.4070  176.2440  145.6470 C   0  0  0  0  0  0  0  0  0  0  0  0
  194.5660  177.1300  146.5740 N   0  0  0  0  0  2  0  0  0  0  0  0
  195.5440  175.3640  145.3040 C   0  0  0  0  0  0  0  0  0  0  0  0
  196.1200  175.4400  144.0410 O   0  0  0  0  0  0  0  0  0  0  0  0
  196.0080  174.5410  146.1380 O   0  0  0  0  0  1  0  0  0  0  0  0
  1  5  1  1  0  0  0
  3  6  1  0  0  0  0
  3  8  1  0  0  0  0
  4  3  1  0  0  0  0
  6  7  1  0  0  0  0
  7 19  1  1  0  0  0
  7  5  1  0  0  0  0
  8  2  1  1  0  0  0
  8  1  1  0  0  0  0
  9  1  1  6  0  0  0
  9 16  1  0  0  0  0
 11 18  1  6  0  0  0
 11  9  1  0  0  0  0
 11 13  1  0  0  0  0
 12 15  2  0  0  0  0
 12 14  1  0  0  0  0
 13 14  2  0  0  0  0
 13 17  1  0  0  0  0
 16 10  1  1  0  0  0
 16 17  1  0  0  0  0
 18 12  1  0  0  0  0
 19 20  2  0  0  0  0
 20 21  1  0  0  0  0
 21 22  2  0  0  0  0
 23 21  1  0  0  0  0
 23 25  1  0  0  0  0
 24 23  2  0  0  0  0
M  END
>  <MODEL>
5

>  <REMARK>
 VINA RESULT:      -6.6      3.488      8.768
  Name = 
  4 active torsions:
  status: ('A' for Active; 'I' for Inactive)
    1  A    between atoms: C_1  and  N_3
    2  A    between atoms: C_2  and  CA_21
    3  A    between atoms: C_6  and  C_23
    4  A    between atoms: C_15  and  CA_21
                            x       y       z     vdW  Elec       q    Type
                         _______ _______ _______ _____ _____    ______ ____

>  <TORSDO>
F 4

$$$$
=
 OpenBabel11052417283D

 25 27  0  0  1  0  0  0  0  0999 V2000
  186.8130  178.3070  144.3870 N   0  0  1  0  0  0  0  0  0  0  0  0
  186.0130  176.4980  145.7040 O   0  0  0  0  0  1  0  0  0  0  0  0
  185.4020  178.7100  146.2930 N   0  0  0  0  0  0  0  0  0  0  0  0
  185.0630  178.2260  147.5110 O   0  0  0  0  0  1  0  0  0  0  0  0
  185.6580  178.2790  143.4770 C   0  0  0  0  0  2  0  0  0  0  0  0
  184.2030  178.6580  145.4560 C   0  0  0  0  0  2  0  0  0  0  0  0
  184.5270  179.1340  144.0430 C   0  0  2  0  0  3  0  0  0  0  0  0
  186.4400  177.8340  145.7290 C   0  0  2  0  0  3  0  0  0  0  0  0
  188.0020  177.5900  143.8930 C   0  0  2  0  0  3  0  0  0  0  0  0
  189.5160  177.7040  146.0790 C   0  0  0  0  0  1  0  0  0  0  0  0
  187.5580  176.3800  143.0790 C   0  0  2  0  0  3  0  0  0  0  0  0
  188.5800  174.9310  141.3770 C   0  0  0  0  0  0  0  0  0  0  0  0
  188.5110  175.3500  143.5450 C   0  0  0  0  0  0  0  0  0  0  0  0
  189.0480  174.5780  142.6650 N   0  0  0  0  0  0  0  0  0  0  0  0
  188.7090  174.1690  140.3840 O   0  0  0  0  0  0  0  0  0  0  0  0
  188.8840  176.9560  144.9580 C   0  0  2  0  0  3  0  0  0  0  0  0
  189.1850  175.7200  144.7310 N   0  0  0  0  0  2  0  0  0  0  0  0
  187.7980  176.5350  141.2770 S   0  0  0  0  0  0  0  0  0  0  0  0
  183.3120  179.0150  143.1900 C   0  0  0  0  0  3  0  0  0  0  0  0
  183.3490  178.3470  142.0410 C   0  0  0  0  0  3  0  0  0  0  0  0
  182.1900  178.1850  141.1450 C   0  0  0  0  0  0  0  0  0  0  0  0
  182.4010  177.6860  139.9730 N   0  0  0  0  0  2  0  0  0  0  0  0
  180.8090  178.5590  141.5180 C   0  0  0  0  0  0  0  0  0  0  0  0
  180.3940  179.8800  141.3930 O   0  0  0  0  0  0  0  0  0  0  0  0
  179.9930  177.7010  141.9490 O   0  0  0  0  0  1  0  0  0  0  0  0
  1  5  1  6  0  0  0
  1  8  1  0  0  0  0
  3  4  1  0  0  0  0
  5  7  1  0  0  0  0
  6  3  1  0  0  0  0
  7 19  1  6  0  0  0
  7  6  1  0  0  0  0
  8  2  1  6  0  0  0
  8  3  1  0  0  0  0
  9  1  1  1  0  0  0
  9 16  1  0  0  0  0
 11 18  1  6  0  0  0
 11 13  1  0  0  0  0
 11  9  1  0  0  0  0
 12 14  1  0  0  0  0
 13 17  1  0  0  0  0
 14 13  2  0  0  0  0
 15 12  2  0  0  0  0
 16 10  1  6  0  0  0
 17 16  1  0  0  0  0
 18 12  1  0  0  0  0
 20 19  2  0  0  0  0
 21 23  1  0  0  0  0
 21 20  1  0  0  0  0
 22 21  2  0  0  0  0
 23 25  1  0  0  0  0
 24 23  2  0  0  0  0
M  END
>  <MODEL>
6

>  <REMARK>
 VINA RESULT:      -6.5      2.142      2.743
  Name = 
  4 active torsions:
  status: ('A' for Active; 'I' for Inactive)
    1  A    between atoms: C_1  and  N_3
    2  A    between atoms: C_2  and  CA_21
    3  A    between atoms: C_6  and  C_23
    4  A    between atoms: C_15  and  CA_21
                            x       y       z     vdW  Elec       q    Type
                         _______ _______ _______ _____ _____    ______ ____

>  <TORSDO>
F 4

$$$$
=
 OpenBabel11052417283D

 25 27  0  0  1  0  0  0  0  0999 V2000
  191.1280  175.7010  145.0510 N   0  0  1  0  0  0  0  0  0  0  0  0
  189.7330  173.7840  145.1990 O   0  0  0  0  0  1  0  0  0  0  0  0
  189.5710  175.4580  146.8660 N   0  0  0  0  0  0  0  0  0  0  0  0
  188.9410  174.5400  147.6390 O   0  0  0  0  0  1  0  0  0  0  0  0
  190.1560  176.4650  144.2540 C   0  0  0  0  0  2  0  0  0  0  0  0
  188.5390  176.1780  146.1190 C   0  0  0  0  0  2  0  0  0  0  0  0
  189.1810  177.1920  145.1780 C   0  0  2  0  0  3  0  0  0  0  0  0
  190.4510  174.7400  145.9330 C   0  0  2  0  0  3  0  0  0  0  0  0
  192.1800  175.0350  144.2610 C   0  0  2  0  0  3  0  0  0  0  0  0
  190.7940  174.5090  142.0500 C   0  0  0  0  0  1  0  0  0  0  0  0
  193.4920  175.7920  144.4300 C   0  0  2  0  0  3  0  0  0  0  0  0
  195.8740  175.2800  144.1170 C   0  0  0  0  0  0  0  0  0  0  0  0
  194.0110  175.7880  143.0460 C   0  0  0  0  0  0  0  0  0  0  0  0
  195.2590  175.5290  142.8680 N   0  0  0  0  0  0  0  0  0  0  0  0
  197.1240  175.2910  144.2640 O   0  0  0  0  0  0  0  0  0  0  0  0
  191.9880  175.0530  142.7530 C   0  0  2  0  0  3  0  0  0  0  0  0
  193.0280  175.4430  142.0910 N   0  0  0  0  0  2  0  0  0  0  0  0
  194.7400  174.9480  145.4580 S   0  0  0  0  0  0  0  0  0  0  0  0
  188.1210  177.8690  144.3810 C   0  0  0  0  0  3  0  0  0  0  0  0
  186.8780  177.9640  144.8420 C   0  0  0  0  0  3  0  0  0  0  0  0
  185.7770  178.6200  144.1130 C   0  0  0  0  0  0  0  0  0  0  0  0
  186.0200  179.0490  142.9190 N   0  0  0  0  0  2  0  0  0  0  0  0
  184.4220  178.8090  144.6730 C   0  0  0  0  0  0  0  0  0  0  0  0
  184.2270  178.7320  146.0480 O   0  0  0  0  0  1  0  0  0  0  0  0
  183.4340  179.0410  143.9280 O   0  0  0  0  0  0  0  0  0  0  0  0
  1  5  1  6  0  0  0
  1  8  1  0  0  0  0
  3  4  1  0  0  0  0
  5  7  1  0  0  0  0
  6  3  1  0  0  0  0
  7 19  1  6  0  0  0
  7  6  1  0  0  0  0
  8  2  1  6  0  0  0
  8  3  1  0  0  0  0
  9 11  1  0  0  0  0
  9  1  1  1  0  0  0
 11 13  1  6  0  0  0
 11 18  1  0  0  0  0
 12 15  2  0  0  0  0
 12 18  1  0  0  0  0
 14 13  2  0  0  0  0
 14 12  1  0  0  0  0
 16 10  1  6  0  0  0
 16  9  1  0  0  0  0
 17 16  1  0  0  0  0
 17 13  1  0  0  0  0
 19 20  2  0  0  0  0
 21 23  1  0  0  0  0
 21 20  1  0  0  0  0
 22 21  2  0  0  0  0
 23 24  1  0  0  0  0
 25 23  2  0  0  0  0
M  END
>  <MODEL>
7

>  <REMARK>
 VINA RESULT:      -6.5      3.237      4.950
  Name = 
  4 active torsions:
  status: ('A' for Active; 'I' for Inactive)
    1  A    between atoms: C_1  and  N_3
    2  A    between atoms: C_2  and  CA_21
    3  A    between atoms: C_6  and  C_23
    4  A    between atoms: C_15  and  CA_21
                            x       y       z     vdW  Elec       q    Type
                         _______ _______ _______ _____ _____    ______ ____

>  <TORSDO>
F 4

$$$$
=
 OpenBabel11052417283D

 25 27  0  0  1  0  0  0  0  0999 V2000
  188.7960  176.4810  143.8400 N   0  0  1  0  0  0  0  0  0  0  0  0
  190.4530  178.0000  143.0710 O   0  0  0  0  0  1  0  0  0  0  0  0
  191.1320  175.9570  144.0610 N   0  0  0  0  0  0  0  0  0  0  0  0
  192.3570  176.5140  144.2210 O   0  0  0  0  0  1  0  0  0  0  0  0
  188.7090  175.7760  142.5520 C   0  0  0  0  0  2  0  0  0  0  0  0
  191.1330  175.2710  142.7690 C   0  0  0  0  0  2  0  0  0  0  0  0
  189.7580  174.6680  142.4920 C   0  0  2  0  0  3  0  0  0  0  0  0
  190.1390  177.0420  144.0470 C   0  0  2  0  0  3  0  0  0  0  0  0
  187.7620  177.5120  144.0460 C   0  0  2  0  0  3  0  0  0  0  0  0
  187.2690  178.1450  141.5080 C   0  0  0  0  0  1  0  0  0  0  0  0
  186.8030  177.0510  145.1370 C   0  0  2  0  0  3  0  0  0  0  0  0
  185.1940  178.1390  146.6430 C   0  0  0  0  0  0  0  0  0  0  0  0
  185.4990  177.4500  144.5660 C   0  0  0  0  0  0  0  0  0  0  0  0
  184.6430  178.0140  145.3460 N   0  0  0  0  0  0  0  0  0  0  0  0
  184.4840  178.3800  147.6530 O   0  0  0  0  0  0  0  0  0  0  0  0
  186.8240  177.7540  142.8730 C   0  0  2  0  0  3  0  0  0  0  0  0
  185.5710  177.7490  143.1870 N   0  0  0  0  0  2  0  0  0  0  0  0
  186.9680  177.9300  146.7270 S   0  0  0  0  0  0  0  0  0  0  0  0
  189.7590  174.0290  141.1480 C   0  0  0  0  0  3  0  0  0  0  0  0
  188.6750  174.0570  140.3790 C   0  0  0  0  0  3  0  0  0  0  0  0
  188.6000  173.4490  139.0380 C   0  0  0  0  0  0  0  0  0  0  0  0
  188.7400  172.1680  138.9510 N   0  0  0  0  0  2  0  0  0  0  0  0
  188.3750  174.2240  137.7990 C   0  0  0  0  0  0  0  0  0  0  0  0
  187.3560  175.1690  137.7520 O   0  0  0  0  0  1  0  0  0  0  0  0
  189.0910  174.0470  136.7790 O   0  0  0  0  0  0  0  0  0  0  0  0
  1  5  1  6  0  0  0
  1  8  1  0  0  0  0
  3  4  1  0  0  0  0
  6  3  1  0  0  0  0
  7 19  1  6  0  0  0
  7  5  1  0  0  0  0
  7  6  1  0  0  0  0
  8  2  1  6  0  0  0
  8  3  1  0  0  0  0
  9  1  1  6  0  0  0
  9 11  1  0  0  0  0
 11 13  1  6  0  0  0
 11 18  1  0  0  0  0
 12 18  1  0  0  0  0
 12 15  2  0  0  0  0
 13 14  2  0  0  0  0
 14 12  1  0  0  0  0
 16 10  1  1  0  0  0
 16 17  1  0  0  0  0
 16  9  1  0  0  0  0
 17 13  1  0  0  0  0
 20 19  2  0  0  0  0
 21 20  1  0  0  0  0
 22 21  2  0  0  0  0
 23 21  1  0  0  0  0
 24 23  1  0  0  0  0
 25 23  2  0  0  0  0
M  END
>  <MODEL>
8

>  <REMARK>
 VINA RESULT:      -6.1      3.998      6.422
  Name = 
  4 active torsions:
  status: ('A' for Active; 'I' for Inactive)
    1  A    between atoms: C_1  and  N_3
    2  A    between atoms: C_2  and  CA_21
    3  A    between atoms: C_6  and  C_23
    4  A    between atoms: C_15  and  CA_21
                            x       y       z     vdW  Elec       q    Type
                         _______ _______ _______ _____ _____    ______ ____

>  <TORSDO>
F 4

$$$$
=
 OpenBabel11052417283D

 25 27  0  0  1  0  0  0  0  0999 V2000
  191.6540  175.6960  144.6710 N   0  0  1  0  0  0  0  0  0  0  0  0
  191.0220  176.9670  142.7650 O   0  0  0  0  0  1  0  0  0  0  0  0
  189.8620  174.9590  143.2480 N   0  0  0  0  0  0  0  0  0  0  0  0
  189.4110  174.9850  141.9710 O   0  0  0  0  0  1  0  0  0  0  0  0
  190.7210  176.3970  145.5660 C   0  0  0  0  0  2  0  0  0  0  0  0
  188.8770  175.6630  144.0700 C   0  0  0  0  0  2  0  0  0  0  0  0
  189.3500  175.7260  145.5200 C   0  0  2  0  0  3  0  0  0  0  0  0
  191.1470  175.6720  143.2910 C   0  0  2  0  0  3  0  0  0  0  0  0
  193.0390  176.2010  144.7090 C   0  0  2  0  0  3  0  0  0  0  0  0
  193.2130  176.7900  147.3000 C   0  0  0  0  0  1  0  0  0  0  0  0
  193.9260  175.3040  143.8540 C   0  0  2  0  0  3  0  0  0  0  0  0
  196.1120  175.5220  142.7540 C   0  0  0  0  0  0  0  0  0  0  0  0
  195.1300  175.1890  144.7040 C   0  0  0  0  0  0  0  0  0  0  0  0
  196.2820  175.2930  144.1400 N   0  0  0  0  0  0  0  0  0  0  0  0
  197.0500  175.3710  141.9300 O   0  0  0  0  0  0  0  0  0  0  0  0
  193.7290  176.1410  146.0640 C   0  0  2  0  0  3  0  0  0  0  0  0
  194.9040  175.6050  146.0360 N   0  0  0  0  0  2  0  0  0  0  0  0
  194.4690  176.0400  142.2760 S   0  0  0  0  0  0  0  0  0  0  0  0
  188.3680  176.5000  146.3280 C   0  0  0  0  0  3  0  0  0  0  0  0
  187.2260  176.9210  145.7930 C   0  0  0  0  0  3  0  0  0  0  0  0
  186.2060  177.6890  146.5290 C   0  0  0  0  0  0  0  0  0  0  0  0
  186.1100  177.4930  147.8030 N   0  0  0  0  0  2  0  0  0  0  0  0
  185.2970  178.6640  145.8910 C   0  0  0  0  0  0  0  0  0  0  0  0
  185.8050  179.5980  144.9950 O   0  0  0  0  0  0  0  0  0  0  0  0
  184.0620  178.6670  146.1420 O   0  0  0  0  0  1  0  0  0  0  0  0
  1  5  1  1  0  0  0
  3  8  1  0  0  0  0
  3  6  1  0  0  0  0
  4  3  1  0  0  0  0
  6  7  1  0  0  0  0
  7  5  1  0  0  0  0
  7 19  1  1  0  0  0
  8  2  1  1  0  0  0
  8  1  1  0  0  0  0
  9  1  1  1  0  0  0
  9 16  1  0  0  0  0
 11 18  1  6  0  0  0
 11 13  1  0  0  0  0
 11  9  1  0  0  0  0
 12 14  1  0  0  0  0
 13 17  1  0  0  0  0
 14 13  2  0  0  0  0
 15 12  2  0  0  0  0
 16 10  1  6  0  0  0
 17 16  1  0  0  0  0
 18 12  1  0  0  0  0
 20 19  2  0  0  0  0
 20 21  1  0  0  0  0
 21 22  2  0  0  0  0
 23 25  1  0  0  0  0
 23 21  1  0  0  0  0
 24 23  2  0  0  0  0
M  END
>  <MODEL>
9

>  <REMARK>
 VINA RESULT:      -6.1      3.903      6.324
  Name = 
  4 active torsions:
  status: ('A' for Active; 'I' for Inactive)
    1  A    between atoms: C_1  and  N_3
    2  A    between atoms: C_2  and  CA_21
    3  A    between atoms: C_6  and  C_23
    4  A    between atoms: C_15  and  CA_21
                            x       y       z     vdW  Elec       q    Type
                         _______ _______ _______ _____ _____    ______ ____

>  <TORSDO>
F 4

$$$$
