=
 OpenBabel11052417213D

 30 33  0  0  1  0  0  0  0  0999 V2000
  187.1130  176.2830  142.1090 C   0  0  0  0  0  0  0  0  0  0  0  0
  186.2790  178.5620  142.5980 C   0  0  0  0  0  2  0  0  0  0  0  0
  187.9520  177.2300  146.7430 C   0  0  0  0  0  2  0  0  0  0  0  0
  189.9020  176.4830  142.9400 C   0  0  0  0  0  2  0  0  0  0  0  0
  187.0740  174.8780  142.3780 N   0  0  0  0  0  2  0  0  0  0  0  0
  189.4300  174.5280  141.5020 C   0  0  1  0  0  3  0  0  0  0  0  0
  187.9050  172.7380  141.9970 O   0  0  0  0  0  0  0  0  0  0  0  0
  191.2240  175.8830  145.5210 C   0  0  2  0  0  3  0  0  0  0  0  0
  189.4420  177.2350  146.6570 C   0  0  0  0  0  0  0  0  0  0  0  0
  188.0950  173.9820  141.9250 C   0  0  0  0  0  0  0  0  0  0  0  0
  190.1450  175.0700  142.6620 N   0  0  0  0  0  0  0  0  0  0  0  0
  185.3820  179.3430  143.5020 C   0  0  0  0  0  3  0  0  0  0  0  0
  190.8040  174.4690  145.0970 C   0  0  0  0  0  2  0  0  0  0  0  0
  187.5190  176.6970  140.9860 O   0  0  0  0  0  0  0  0  0  0  0  0
  187.3610  177.9010  145.5400 C   0  0  0  0  0  0  0  0  0  0  0  0
  185.4230  179.4060  144.8360 C   0  0  0  0  0  3  0  0  0  0  0  0
  186.7720  177.2570  143.2010 C   0  0  2  0  0  3  0  0  0  0  0  0
  189.1150  176.6160  144.2350 C   0  0  1  0  0  3  0  0  0  0  0  0
  190.1010  177.4970  147.6510 O   0  0  0  0  0  0  0  0  0  0  0  0
  190.1240  176.9510  145.3490 C   0  0  2  0  0  3  0  0  0  0  0  0
  191.3860  173.1570  143.2130 O   0  0  0  0  0  0  0  0  0  0  0  0
  186.3100  178.6930  145.7780 C   0  0  0  0  0  3  0  0  0  0  0  0
  187.9310  177.6230  144.1580 C   0  0  2  0  0  3  0  0  0  0  0  0
  190.8220  174.2100  143.6110 C   0  0  0  0  0  0  0  0  0  0  0  0
  190.2620  173.5760  140.6440 C   0  0  0  0  0  2  0  0  0  0  0  0
  189.7830  173.5810  139.2020 C   0  0  0  0  0  2  0  0  0  0  0  0
  189.3230  172.1970  138.7810 C   0  0  0  0  0  1  0  0  0  0  0  0
  192.5480  176.3100  144.8910 C   0  0  0  0  0  2  0  0  0  0  0  0
  194.5580  175.5800  146.1770 C   0  0  0  0  0  1  0  0  0  0  0  0
  193.5660  176.7060  145.9500 C   0  0  0  0  0  2  0  0  0  0  0  0
  1  5  1  0  0  0  0
  1 17  1  0  0  0  0
  2 12  1  0  0  0  0
  6 25  1  1  0  0  0
  6 10  1  0  0  0  0
  6 11  1  0  0  0  0
  8 28  1  6  0  0  0
  9  3  1  0  0  0  0
  9 19  2  0  0  0  0
 10  7  2  0  0  0  0
 10  5  1  0  0  0  0
 11  4  1  0  0  0  0
 11 24  1  0  0  0  0
 12 16  2  0  0  0  0
 13  8  1  0  0  0  0
 14  1  2  0  0  0  0
 15 22  2  0  0  0  0
 15  3  1  0  0  0  0
 16 22  1  0  0  0  0
 17  2  1  6  0  0  0
 17 23  1  0  0  0  0
 18  4  1  6  0  0  0
 18 20  1  0  0  0  0
 20  8  1  0  0  0  0
 20  9  1  1  0  0  0
 21 24  2  0  0  0  0
 23 18  1  0  0  0  0
 23 15  1  1  0  0  0
 24 13  1  0  0  0  0
 26 25  1  0  0  0  0
 27 26  1  0  0  0  0
 28 30  1  0  0  0  0
 30 29  1  0  0  0  0
M  END
>  <MODEL>
1

>  <REMARK>
 VINA RESULT:      -8.2      0.000      0.000
  Name = 
  4 active torsions:
  status: ('A' for Active; 'I' for Inactive)
    1  A    between atoms: C_6  and  C_8
    2  A    between atoms: C_6  and  C_17
    3  A    between atoms: C_7  and  C_10
    4  A    between atoms: C_7  and  C_26
                            x       y       z     vdW  Elec       q    Type
                         _______ _______ _______ _____ _____    ______ ____

>  <TORSDO>
F 4

$$$$
=
 OpenBabel11052417213D

 30 33  0  0  1  0  0  0  0  0999 V2000
  187.3500  175.6380  141.7780 C   0  0  0  0  0  0  0  0  0  0  0  0
  186.0380  177.7130  141.4580 C   0  0  0  0  0  2  0  0  0  0  0  0
  185.6060  176.9910  146.0450 C   0  0  0  0  0  2  0  0  0  0  0  0
  189.2830  176.4670  143.8000 C   0  0  0  0  0  2  0  0  0  0  0  0
  187.4020  174.2730  142.2050 N   0  0  0  0  0  2  0  0  0  0  0  0
  189.9020  174.3820  142.6270 C   0  0  1  0  0  3  0  0  0  0  0  0
  188.6360  172.3400  142.5970 O   0  0  0  0  0  0  0  0  0  0  0  0
  189.2160  176.3000  146.7560 C   0  0  2  0  0  3  0  0  0  0  0  0
  186.9180  177.3060  146.6820 C   0  0  0  0  0  0  0  0  0  0  0  0
  188.6390  173.5890  142.4370 C   0  0  0  0  0  0  0  0  0  0  0  0
  189.8490  175.1240  143.8900 N   0  0  0  0  0  0  0  0  0  0  0  0
  184.7000  178.3350  141.6920 C   0  0  0  0  0  3  0  0  0  0  0  0
  189.2910  174.8080  146.4030 C   0  0  0  0  0  2  0  0  0  0  0  0
  188.1910  176.0670  140.9380 O   0  0  0  0  0  0  0  0  0  0  0  0
  185.5970  177.4560  144.6210 C   0  0  0  0  0  0  0  0  0  0  0  0
  184.0610  178.4780  142.8560 C   0  0  0  0  0  3  0  0  0  0  0  0
  186.3620  176.5760  142.4130 C   0  0  2  0  0  3  0  0  0  0  0  0
  187.9450  176.5010  144.5250 C   0  0  1  0  0  3  0  0  0  0  0  0
  186.9440  177.7550  147.8180 O   0  0  0  0  0  0  0  0  0  0  0  0
  188.1970  177.1020  145.9190 C   0  0  2  0  0  3  0  0  0  0  0  0
  190.9310  173.5490  145.2500 O   0  0  0  0  0  0  0  0  0  0  0  0
  184.4580  178.0200  144.2040 C   0  0  0  0  0  3  0  0  0  0  0  0
  186.8160  177.2300  143.7390 C   0  0  2  0  0  3  0  0  0  0  0  0
  190.0880  174.4790  145.1650 C   0  0  0  0  0  0  0  0  0  0  0  0
  191.1890  173.5820  142.4270 C   0  0  0  0  0  2  0  0  0  0  0  0
  192.2880  174.4520  141.8390 C   0  0  0  0  0  2  0  0  0  0  0  0
  193.2680  174.8830  142.9140 C   0  0  0  0  0  1  0  0  0  0  0  0
  190.5920  176.9620  146.7800 C   0  0  0  0  0  2  0  0  0  0  0  0
  192.8950  176.0150  146.9460 C   0  0  0  0  0  1  0  0  0  0  0  0
  191.5650  176.1910  147.6580 C   0  0  0  0  0  2  0  0  0  0  0  0
  1  5  1  0  0  0  0
  1 17  1  0  0  0  0
  2 12  1  0  0  0  0
  3  9  1  0  0  0  0
  4 11  1  0  0  0  0
  5 10  1  0  0  0  0
  6 25  1  1  0  0  0
  6 11  1  0  0  0  0
  8 28  1  6  0  0  0
  9 19  2  0  0  0  0
 10  7  2  0  0  0  0
 10  6  1  0  0  0  0
 11 24  1  0  0  0  0
 12 16  2  0  0  0  0
 13  8  1  0  0  0  0
 14  1  2  0  0  0  0
 15  3  1  0  0  0  0
 16 22  1  0  0  0  0
 17  2  1  6  0  0  0
 17 23  1  0  0  0  0
 18  4  1  6  0  0  0
 18 20  1  0  0  0  0
 20  9  1  1  0  0  0
 20  8  1  0  0  0  0
 22 15  2  0  0  0  0
 23 18  1  0  0  0  0
 23 15  1  1  0  0  0
 24 21  2  0  0  0  0
 24 13  1  0  0  0  0
 26 25  1  0  0  0  0
 26 27  1  0  0  0  0
 28 30  1  0  0  0  0
 29 30  1  0  0  0  0
M  END
>  <MODEL>
2

>  <REMARK>
 VINA RESULT:      -8.0      1.715      2.285
  Name = 
  4 active torsions:
  status: ('A' for Active; 'I' for Inactive)
    1  A    between atoms: C_6  and  C_8
    2  A    between atoms: C_6  and  C_17
    3  A    between atoms: C_7  and  C_10
    4  A    between atoms: C_7  and  C_26
                            x       y       z     vdW  Elec       q    Type
                         _______ _______ _______ _____ _____    ______ ____

>  <TORSDO>
F 4

$$$$
=
 OpenBabel11052417213D

 30 33  0  0  1  0  0  0  0  0999 V2000
  189.3060  176.5420  146.8820 C   0  0  0  0  0  0  0  0  0  0  0  0
  191.7510  176.2220  146.6640 C   0  0  0  0  0  2  0  0  0  0  0  0
  190.1180  173.6330  143.1450 C   0  0  0  0  0  2  0  0  0  0  0  0
  188.6040  177.5510  144.2360 C   0  0  0  0  0  2  0  0  0  0  0  0
  188.0060  175.9740  147.0720 N   0  0  0  0  0  2  0  0  0  0  0  0
  186.8580  177.9340  145.9430 C   0  0  1  0  0  3  0  0  0  0  0  0
  185.6980  176.2400  147.1920 O   0  0  0  0  0  0  0  0  0  0  0  0
  187.7100  176.1550  141.7820 C   0  0  2  0  0  3  0  0  0  0  0  0
  189.6240  174.5620  142.0860 C   0  0  0  0  0  0  0  0  0  0  0  0
  186.8040  176.7030  146.8040 C   0  0  0  0  0  0  0  0  0  0  0  0
  187.1800  177.5710  144.5600 N   0  0  0  0  0  0  0  0  0  0  0  0
  192.8240  175.1850  146.5870 C   0  0  0  0  0  3  0  0  0  0  0  0
  186.4980  175.9060  142.6920 C   0  0  0  0  0  2  0  0  0  0  0  0
  189.5140  177.7510  147.1810 O   0  0  0  0  0  0  0  0  0  0  0  0
  190.8940  174.3920  144.1780 C   0  0  0  0  0  0  0  0  0  0  0  0
  192.9270  174.1830  145.7100 C   0  0  0  0  0  3  0  0  0  0  0  0
  190.3840  175.7240  146.2270 C   0  0  2  0  0  3  0  0  0  0  0  0
  189.0460  176.1170  143.9840 C   0  0  1  0  0  3  0  0  0  0  0  0
  189.6950  174.2290  140.9130 O   0  0  0  0  0  0  0  0  0  0  0  0
  189.0740  175.9100  142.4590 C   0  0  2  0  0  3  0  0  0  0  0  0
  184.9890  177.3990  143.7390 O   0  0  0  0  0  0  0  0  0  0  0  0
  192.0000  173.7880  144.6280 C   0  0  0  0  0  3  0  0  0  0  0  0
  190.3840  175.7340  144.6800 C   0  0  2  0  0  3  0  0  0  0  0  0
  186.1850  177.0150  143.6650 C   0  0  0  0  0  0  0  0  0  0  0  0
  185.6480  178.8580  146.0800 C   0  0  0  0  0  2  0  0  0  0  0  0
  185.3800  179.1940  147.5380 C   0  0  0  0  0  2  0  0  0  0  0  0
  186.6140  179.7890  148.1900 C   0  0  0  0  0  1  0  0  0  0  0  0
  187.6450  177.5130  141.0870 C   0  0  0  0  0  2  0  0  0  0  0  0
  185.3860  178.2070  140.2890 C   0  0  0  0  0  1  0  0  0  0  0  0
  186.6730  177.4940  139.9180 C   0  0  0  0  0  2  0  0  0  0  0  0
  1  5  1  0  0  0  0
  1 14  2  0  0  0  0
  3 15  1  0  0  0  0
  4 11  1  0  0  0  0
  6 25  1  6  0  0  0
  6 10  1  0  0  0  0
  8 28  1  1  0  0  0
  8 20  1  0  0  0  0
  8 13  1  0  0  0  0
  9  3  1  0  0  0  0
 10  5  1  0  0  0  0
 10  7  2  0  0  0  0
 11  6  1  0  0  0  0
 12  2  1  0  0  0  0
 13 24  1  0  0  0  0
 15 22  2  0  0  0  0
 16 12  2  0  0  0  0
 17  2  1  1  0  0  0
 17  1  1  0  0  0  0
 18  4  1  6  0  0  0
 18 23  1  0  0  0  0
 19  9  2  0  0  0  0
 20  9  1  1  0  0  0
 20 18  1  0  0  0  0
 22 16  1  0  0  0  0
 23 15  1  6  0  0  0
 23 17  1  0  0  0  0
 24 21  2  0  0  0  0
 24 11  1  0  0  0  0
 25 26  1  0  0  0  0
 26 27  1  0  0  0  0
 30 29  1  0  0  0  0
 30 28  1  0  0  0  0
M  END
>  <MODEL>
3

>  <REMARK>
 VINA RESULT:      -7.7      2.076      6.930
  Name = 
  4 active torsions:
  status: ('A' for Active; 'I' for Inactive)
    1  A    between atoms: C_6  and  C_8
    2  A    between atoms: C_6  and  C_17
    3  A    between atoms: C_7  and  C_10
    4  A    between atoms: C_7  and  C_26
                            x       y       z     vdW  Elec       q    Type
                         _______ _______ _______ _____ _____    ______ ____

>  <TORSDO>
F 4

$$$$
=
 OpenBabel11052417213D

 30 33  0  0  1  0  0  0  0  0999 V2000
  188.4470  175.1570  142.5280 C   0  0  0  0  0  0  0  0  0  0  0  0
  187.3620  177.1210  143.5740 C   0  0  0  0  0  2  0  0  0  0  0  0
  189.2320  174.9660  147.2640 C   0  0  0  0  0  2  0  0  0  0  0  0
  191.2050  175.4540  143.4300 C   0  0  0  0  0  2  0  0  0  0  0  0
  188.5740  173.7350  142.4260 N   0  0  0  0  0  2  0  0  0  0  0  0
  190.9420  173.8960  141.5300 C   0  0  1  0  0  3  0  0  0  0  0  0
  189.6410  171.8760  141.5200 O   0  0  0  0  0  0  0  0  0  0  0  0
  192.6210  174.3650  145.7910 C   0  0  2  0  0  3  0  0  0  0  0  0
  190.7100  175.1650  147.2070 C   0  0  0  0  0  0  0  0  0  0  0  0
  189.6850  173.1090  141.7740 C   0  0  0  0  0  0  0  0  0  0  0  0
  191.6060  174.1980  142.8010 N   0  0  0  0  0  0  0  0  0  0  0  0
  186.3930  177.5340  144.6340 C   0  0  0  0  0  3  0  0  0  0  0  0
  192.3620  173.0690  145.0100 C   0  0  0  0  0  2  0  0  0  0  0  0
  188.7870  175.8900  141.5580 O   0  0  0  0  0  0  0  0  0  0  0  0
  188.5530  175.8520  146.2650 C   0  0  0  0  0  0  0  0  0  0  0  0
  186.4450  177.2560  145.9390 C   0  0  0  0  0  3  0  0  0  0  0  0
  188.0100  175.7700  143.8290 C   0  0  2  0  0  3  0  0  0  0  0  0
  190.4260  175.1570  144.7030 C   0  0  1  0  0  3  0  0  0  0  0  0
  191.3480  175.2360  148.2460 O   0  0  0  0  0  0  0  0  0  0  0  0
  191.4040  175.3080  145.8820 C   0  0  2  0  0  3  0  0  0  0  0  0
  193.0660  172.3630  142.8620 O   0  0  0  0  0  0  0  0  0  0  0  0
  187.4200  176.4300  146.6810 C   0  0  0  0  0  3  0  0  0  0  0  0
  189.1320  176.0070  144.8670 C   0  0  2  0  0  3  0  0  0  0  0  0
  192.3900  173.2060  143.5080 C   0  0  0  0  0  0  0  0  0  0  0  0
  191.8670  173.2990  140.4690 C   0  0  0  0  0  2  0  0  0  0  0  0
  191.3650  173.6100  139.0690 C   0  0  0  0  0  2  0  0  0  0  0  0
  192.5130  174.0070  138.1590 C   0  0  0  0  0  1  0  0  0  0  0  0
  193.8790  175.0890  145.3150 C   0  0  0  0  0  2  0  0  0  0  0  0
  194.6030  177.4160  145.8490 C   0  0  0  0  0  1  0  0  0  0  0  0
  194.4320  176.0090  146.3920 C   0  0  0  0  0  2  0  0  0  0  0  0
  1 17  1  0  0  0  0
  2 12  1  0  0  0  0
  5  1  1  0  0  0  0
  6 25  1  6  0  0  0
  6 10  1  0  0  0  0
  6 11  1  0  0  0  0
  7 10  2  0  0  0  0
  8 28  1  6  0  0  0
  8 20  1  0  0  0  0
  9  3  1  0  0  0  0
  9 19  2  0  0  0  0
 10  5  1  0  0  0  0
 11  4  1  0  0  0  0
 11 24  1  0  0  0  0
 12 16  2  0  0  0  0
 13  8  1  0  0  0  0
 14  1  2  0  0  0  0
 15 22  2  0  0  0  0
 15  3  1  0  0  0  0
 16 22  1  0  0  0  0
 17  2  1  6  0  0  0
 17 23  1  0  0  0  0
 18  4  1  6  0  0  0
 18 23  1  0  0  0  0
 18 20  1  0  0  0  0
 20  9  1  1  0  0  0
 21 24  2  0  0  0  0
 23 15  1  1  0  0  0
 24 13  1  0  0  0  0
 26 25  1  0  0  0  0
 27 26  1  0  0  0  0
 28 30  1  0  0  0  0
 29 30  1  0  0  0  0
M  END
>  <MODEL>
4

>  <REMARK>
 VINA RESULT:      -7.4      1.631      2.129
  Name = 
  4 active torsions:
  status: ('A' for Active; 'I' for Inactive)
    1  A    between atoms: C_6  and  C_8
    2  A    between atoms: C_6  and  C_17
    3  A    between atoms: C_7  and  C_10
    4  A    between atoms: C_7  and  C_26
                            x       y       z     vdW  Elec       q    Type
                         _______ _______ _______ _____ _____    ______ ____

>  <TORSDO>
F 4

$$$$
=
 OpenBabel11052417213D

 30 33  0  0  1  0  0  0  0  0999 V2000
  189.2800  177.0010  146.5910 C   0  0  0  0  0  0  0  0  0  0  0  0
  187.0140  177.3790  147.5140 C   0  0  0  0  0  2  0  0  0  0  0  0
  186.4350  178.5100  143.0260 C   0  0  0  0  0  2  0  0  0  0  0  0
  188.7350  175.1110  144.4370 C   0  0  0  0  0  2  0  0  0  0  0  0
  190.4340  177.5190  145.9220 N   0  0  0  0  0  2  0  0  0  0  0  0
  191.1180  175.2240  145.0820 C   0  0  1  0  0  3  0  0  0  0  0  0
  192.5280  177.1660  144.9700 O   0  0  0  0  0  0  0  0  0  0  0  0
  188.1660  175.5310  141.5620 C   0  0  2  0  0  3  0  0  0  0  0  0
  186.4630  177.2480  142.2300 C   0  0  0  0  0  0  0  0  0  0  0  0
  191.4350  176.6680  145.3510 C   0  0  0  0  0  0  0  0  0  0  0  0
  190.1300  175.1140  144.0050 N   0  0  0  0  0  0  0  0  0  0  0  0
  185.9240  178.3920  147.6410 C   0  0  0  0  0  3  0  0  0  0  0  0
  189.6270  175.9980  141.6200 C   0  0  0  0  0  2  0  0  0  0  0  0
  189.3860  175.9810  147.3290 O   0  0  0  0  0  0  0  0  0  0  0  0
  186.3470  178.1970  144.4890 C   0  0  0  0  0  0  0  0  0  0  0  0
  185.2950  179.0410  146.6570 C   0  0  0  0  0  3  0  0  0  0  0  0
  187.9330  177.6120  146.3260 C   0  0  2  0  0  3  0  0  0  0  0  0
  188.0620  176.3990  143.9850 C   0  0  1  0  0  3  0  0  0  0  0  0
  185.7980  177.1660  141.2090 O   0  0  0  0  0  0  0  0  0  0  0  0
  187.2780  176.0760  142.7000 C   0  0  2  0  0  3  0  0  0  0  0  0
  191.6180  174.8600  142.2100 O   0  0  0  0  0  0  0  0  0  0  0  0
  185.5330  178.9860  145.1990 C   0  0  0  0  0  3  0  0  0  0  0  0
  187.1890  177.0770  145.0800 C   0  0  2  0  0  3  0  0  0  0  0  0
  190.4980  175.2690  142.6120 C   0  0  0  0  0  0  0  0  0  0  0  0
  192.3430  174.3290  144.8990 C   0  0  0  0  0  2  0  0  0  0  0  0
  193.2220  174.3460  146.1380 C   0  0  0  0  0  2  0  0  0  0  0  0
  194.6820  174.5200  145.7630 C   0  0  0  0  0  1  0  0  0  0  0  0
  188.0470  174.0160  141.4100 C   0  0  0  0  0  2  0  0  0  0  0  0
  189.6220  172.4740  140.2410 C   0  0  0  0  0  1  0  0  0  0  0  0
  188.5660  173.5490  140.0590 C   0  0  0  0  0  2  0  0  0  0  0  0
  1 14  2  0  0  0  0
  2 12  1  0  0  0  0
  3 15  1  0  0  0  0
  5  1  1  0  0  0  0
  6 25  1  6  0  0  0
  6 10  1  0  0  0  0
  7 10  2  0  0  0  0
  8 28  1  1  0  0  0
  8 13  1  0  0  0  0
  8 20  1  0  0  0  0
  9  3  1  0  0  0  0
 10  5  1  0  0  0  0
 11  4  1  0  0  0  0
 11  6  1  0  0  0  0
 13 24  1  0  0  0  0
 15 22  2  0  0  0  0
 16 12  2  0  0  0  0
 17  1  1  0  0  0  0
 17  2  1  1  0  0  0
 18  4  1  1  0  0  0
 18 23  1  0  0  0  0
 19  9  2  0  0  0  0
 20  9  1  6  0  0  0
 20 18  1  0  0  0  0
 21 24  2  0  0  0  0
 22 16  1  0  0  0  0
 23 15  1  6  0  0  0
 23 17  1  0  0  0  0
 24 11  1  0  0  0  0
 25 26  1  0  0  0  0
 27 26  1  0  0  0  0
 30 29  1  0  0  0  0
 30 28  1  0  0  0  0
M  END
>  <MODEL>
5

>  <REMARK>
 VINA RESULT:      -7.2      1.596      5.103
  Name = 
  4 active torsions:
  status: ('A' for Active; 'I' for Inactive)
    1  A    between atoms: C_6  and  C_8
    2  A    between atoms: C_6  and  C_17
    3  A    between atoms: C_7  and  C_10
    4  A    between atoms: C_7  and  C_26
                            x       y       z     vdW  Elec       q    Type
                         _______ _______ _______ _____ _____    ______ ____

>  <TORSDO>
F 4

$$$$
=
 OpenBabel11052417213D

 30 33  0  0  1  0  0  0  0  0999 V2000
  190.2120  176.0630  146.8130 C   0  0  0  0  0  0  0  0  0  0  0  0
  187.7790  176.0340  147.2660 C   0  0  0  0  0  2  0  0  0  0  0  0
  187.9100  177.2000  142.7520 C   0  0  0  0  0  2  0  0  0  0  0  0
  190.4240  174.1800  144.5950 C   0  0  0  0  0  2  0  0  0  0  0  0
  191.3720  176.7840  146.3850 N   0  0  0  0  0  2  0  0  0  0  0  0
  192.5810  174.6610  145.7000 C   0  0  1  0  0  3  0  0  0  0  0  0
  193.6410  176.8110  145.8690 O   0  0  0  0  0  0  0  0  0  0  0  0
  190.3680  174.5940  141.6630 C   0  0  2  0  0  3  0  0  0  0  0  0
  188.3040  175.9860  141.9790 C   0  0  0  0  0  0  0  0  0  0  0  0
  192.5930  176.1290  146.0250 C   0  0  0  0  0  0  0  0  0  0  0  0
  191.8560  174.4260  144.4480 N   0  0  0  0  0  0  0  0  0  0  0  0
  186.5310  176.8500  147.1740 C   0  0  0  0  0  3  0  0  0  0  0  0
  191.6900  175.2930  142.0100 C   0  0  0  0  0  2  0  0  0  0  0  0
  190.3400  175.0510  147.5570 O   0  0  0  0  0  0  0  0  0  0  0  0
  187.5900  176.8300  144.1690 C   0  0  0  0  0  0  0  0  0  0  0  0
  186.0080  177.4180  146.0840 C   0  0  0  0  0  3  0  0  0  0  0  0
  188.8600  176.4530  146.2850 C   0  0  2  0  0  3  0  0  0  0  0  0
  189.6470  175.3540  144.0160 C   0  0  1  0  0  3  0  0  0  0  0  0
  187.8750  175.8290  140.8460 O   0  0  0  0  0  0  0  0  0  0  0  0
  189.1950  174.9490  142.6020 C   0  0  2  0  0  3  0  0  0  0  0  0
  193.6880  174.4780  142.9840 O   0  0  0  0  0  0  0  0  0  0  0  0
  186.5320  177.4500  144.7030 C   0  0  0  0  0  3  0  0  0  0  0  0
  188.4750  175.8440  144.9160 C   0  0  2  0  0  3  0  0  0  0  0  0
  192.4580  174.6850  143.1560 C   0  0  0  0  0  0  0  0  0  0  0  0
  193.9510  173.9860  145.7640 C   0  0  0  0  0  2  0  0  0  0  0  0
  193.8140  172.4720  145.7540 C   0  0  0  0  0  2  0  0  0  0  0  0
  195.1310  171.8130  145.3880 C   0  0  0  0  0  1  0  0  0  0  0  0
  190.5350  173.0860  141.4920 C   0  0  0  0  0  2  0  0  0  0  0  0
  188.8220  172.6540  139.7290 C   0  0  0  0  0  1  0  0  0  0  0  0
  189.2090  172.4110  141.1770 C   0  0  0  0  0  2  0  0  0  0  0  0
  1 14  2  0  0  0  0
  3 15  1  0  0  0  0
  5  1  1  0  0  0  0
  6 25  1  6  0  0  0
  6 10  1  0  0  0  0
  7 10  2  0  0  0  0
  8 28  1  1  0  0  0
  8 13  1  0  0  0  0
  8 20  1  0  0  0  0
  9  3  1  0  0  0  0
 10  5  1  0  0  0  0
 11  4  1  0  0  0  0
 11  6  1  0  0  0  0
 12  2  1  0  0  0  0
 13 24  1  0  0  0  0
 15 22  2  0  0  0  0
 16 12  2  0  0  0  0
 17  1  1  0  0  0  0
 17  2  1  1  0  0  0
 18  4  1  1  0  0  0
 18 23  1  0  0  0  0
 19  9  2  0  0  0  0
 20  9  1  6  0  0  0
 20 18  1  0  0  0  0
 21 24  2  0  0  0  0
 22 16  1  0  0  0  0
 23 15  1  6  0  0  0
 23 17  1  0  0  0  0
 24 11  1  0  0  0  0
 26 25  1  0  0  0  0
 27 26  1  0  0  0  0
 29 30  1  0  0  0  0
 30 28  1  0  0  0  0
M  END
>  <MODEL>
6

>  <REMARK>
 VINA RESULT:      -7.1      2.014      5.319
  Name = 
  4 active torsions:
  status: ('A' for Active; 'I' for Inactive)
    1  A    between atoms: C_6  and  C_8
    2  A    between atoms: C_6  and  C_17
    3  A    between atoms: C_7  and  C_10
    4  A    between atoms: C_7  and  C_26
                            x       y       z     vdW  Elec       q    Type
                         _______ _______ _______ _____ _____    ______ ____

>  <TORSDO>
F 4

$$$$
=
 OpenBabel11052417213D

 30 33  0  0  1  0  0  0  0  0999 V2000
  190.7990  175.9870  146.3830 C   0  0  0  0  0  0  0  0  0  0  0  0
  188.3890  175.7430  146.8920 C   0  0  0  0  0  2  0  0  0  0  0  0
  188.3360  176.5050  142.2910 C   0  0  0  0  0  2  0  0  0  0  0  0
  191.1810  173.9440  144.3350 C   0  0  0  0  0  2  0  0  0  0  0  0
  191.8700  176.7840  145.8680 N   0  0  0  0  0  2  0  0  0  0  0  0
  193.2890  174.7470  145.3450 C   0  0  1  0  0  3  0  0  0  0  0  0
  194.1160  177.0020  145.3000 O   0  0  0  0  0  0  0  0  0  0  0  0
  191.0430  174.0840  141.3810 C   0  0  2  0  0  3  0  0  0  0  0  0
  188.8460  175.2750  141.6190 C   0  0  0  0  0  0  0  0  0  0  0  0
  193.1490  176.2310  145.5390 C   0  0  0  0  0  0  0  0  0  0  0  0
  192.5760  174.3250  144.1360 N   0  0  0  0  0  0  0  0  0  0  0  0
  187.0600  176.4120  146.7560 C   0  0  0  0  0  3  0  0  0  0  0  0
  192.2870  174.9460  141.6350 C   0  0  0  0  0  2  0  0  0  0  0  0
  191.0440  175.0650  147.2110 O   0  0  0  0  0  0  0  0  0  0  0  0
  188.0760  176.2330  143.7410 C   0  0  0  0  0  0  0  0  0  0  0  0
  186.4650  176.8220  145.6320 C   0  0  0  0  0  3  0  0  0  0  0  0
  189.4060  176.1840  145.8530 C   0  0  2  0  0  3  0  0  0  0  0  0
  190.2760  174.9730  143.6740 C   0  0  1  0  0  3  0  0  0  0  0  0
  188.4220  174.9720  140.5140 O   0  0  0  0  0  0  0  0  0  0  0  0
  189.8520  174.3970  142.3100 C   0  0  2  0  0  3  0  0  0  0  0  0
  194.3730  174.4370  142.6320 O   0  0  0  0  0  0  0  0  0  0  0  0
  186.9650  176.7840  144.2420 C   0  0  0  0  0  3  0  0  0  0  0  0
  189.0700  175.4170  144.5530 C   0  0  2  0  0  3  0  0  0  0  0  0
  193.1310  174.5280  142.8120 C   0  0  0  0  0  0  0  0  0  0  0  0
  194.7230  174.2280  145.4380 C   0  0  0  0  0  2  0  0  0  0  0  0
  194.7470  172.7240  145.6600 C   0  0  0  0  0  2  0  0  0  0  0  0
  196.1730  172.2100  145.7240 C   0  0  0  0  0  1  0  0  0  0  0  0
  191.3670  172.5930  141.3390 C   0  0  0  0  0  2  0  0  0  0  0  0
  190.4420  170.4160  142.1340 C   0  0  0  0  0  1  0  0  0  0  0  0
  190.1120  171.7460  141.4810 C   0  0  0  0  0  2  0  0  0  0  0  0
  1 14  2  0  0  0  0
  3 15  1  0  0  0  0
  5  1  1  0  0  0  0
  6 25  1  6  0  0  0
  6 10  1  0  0  0  0
  7 10  2  0  0  0  0
  8 28  1  1  0  0  0
  8 13  1  0  0  0  0
  8 20  1  0  0  0  0
  9  3  1  0  0  0  0
 10  5  1  0  0  0  0
 11  4  1  0  0  0  0
 11  6  1  0  0  0  0
 12  2  1  0  0  0  0
 13 24  1  0  0  0  0
 15 22  2  0  0  0  0
 16 12  2  0  0  0  0
 17  1  1  0  0  0  0
 17  2  1  1  0  0  0
 18  4  1  1  0  0  0
 18 23  1  0  0  0  0
 19  9  2  0  0  0  0
 20  9  1  6  0  0  0
 20 18  1  0  0  0  0
 21 24  2  0  0  0  0
 22 16  1  0  0  0  0
 23 15  1  6  0  0  0
 23 17  1  0  0  0  0
 24 11  1  0  0  0  0
 25 26  1  0  0  0  0
 26 27  1  0  0  0  0
 28 30  1  0  0  0  0
 30 29  1  0  0  0  0
M  END
>  <MODEL>
7

>  <REMARK>
 VINA RESULT:      -7.0      2.219      5.513
  Name = 
  4 active torsions:
  status: ('A' for Active; 'I' for Inactive)
    1  A    between atoms: C_6  and  C_8
    2  A    between atoms: C_6  and  C_17
    3  A    between atoms: C_7  and  C_10
    4  A    between atoms: C_7  and  C_26
                            x       y       z     vdW  Elec       q    Type
                         _______ _______ _______ _____ _____    ______ ____

>  <TORSDO>
F 4

$$$$
=
 OpenBabel11052417213D

 30 33  0  0  1  0  0  0  0  0999 V2000
  188.1920  174.8310  141.3840 C   0  0  0  0  0  0  0  0  0  0  0  0
  188.8320  172.6220  140.4690 C   0  0  0  0  0  2  0  0  0  0  0  0
  192.9820  174.6700  141.0520 C   0  0  0  0  0  2  0  0  0  0  0  0
  189.6980  174.8970  143.8810 C   0  0  0  0  0  2  0  0  0  0  0  0
  188.2080  176.2580  141.2700 N   0  0  0  0  0  2  0  0  0  0  0  0
  187.8870  176.5750  143.7670 C   0  0  1  0  0  3  0  0  0  0  0  0
  187.6930  178.3470  142.1560 O   0  0  0  0  0  0  0  0  0  0  0  0
  192.3880  175.9590  144.5170 C   0  0  2  0  0  3  0  0  0  0  0  0
  193.2630  174.7210  142.5170 C   0  0  0  0  0  0  0  0  0  0  0  0
  187.8760  177.1180  142.3660 C   0  0  0  0  0  0  0  0  0  0  0  0
  189.2590  176.2580  144.1760 N   0  0  0  0  0  0  0  0  0  0  0  0
  189.6070  171.9530  139.3800 C   0  0  0  0  0  3  0  0  0  0  0  0
  191.6470  177.2670  144.2070 C   0  0  0  0  0  2  0  0  0  0  0  0
  187.2860  174.2650  142.0580 O   0  0  0  0  0  0  0  0  0  0  0  0
  191.7990  173.7910  140.7830 C   0  0  0  0  0  0  0  0  0  0  0  0
  190.9020  172.1030  139.0900 C   0  0  0  0  0  3  0  0  0  0  0  0
  189.3140  174.0280  140.7880 C   0  0  2  0  0  3  0  0  0  0  0  0
  190.7670  174.9340  142.7980 C   0  0  1  0  0  3  0  0  0  0  0  0
  194.4170  174.6510  142.9110 O   0  0  0  0  0  0  0  0  0  0  0  0
  192.1320  174.8260  143.5010 C   0  0  2  0  0  3  0  0  0  0  0  0
  189.7730  178.2900  145.2290 O   0  0  0  0  0  0  0  0  0  0  0  0
  191.9010  172.9980  139.7110 C   0  0  0  0  0  3  0  0  0  0  0  0
  190.5700  173.8730  141.6770 C   0  0  2  0  0  3  0  0  0  0  0  0
  190.1890  177.2880  144.5910 C   0  0  0  0  0  0  0  0  0  0  0  0
  187.1130  177.4170  144.7800 C   0  0  0  0  0  2  0  0  0  0  0  0
  186.7520  176.5990  146.0090 C   0  0  0  0  0  2  0  0  0  0  0  0
  185.3040  176.8250  146.4030 C   0  0  0  0  0  1  0  0  0  0  0  0
  192.1800  175.5010  145.9590 C   0  0  0  0  0  2  0  0  0  0  0  0
  194.5660  176.1930  146.1830 C   0  0  0  0  0  1  0  0  0  0  0  0
  193.2260  176.0940  146.8890 C   0  0  0  0  0  2  0  0  0  0  0  0
  1 14  2  0  0  0  0
  3  9  1  0  0  0  0
  4 11  1  0  0  0  0
  5  1  1  0  0  0  0
  5 10  1  0  0  0  0
  6 11  1  0  0  0  0
  6 25  1  1  0  0  0
  7 10  2  0  0  0  0
  8 28  1  1  0  0  0
  9 19  2  0  0  0  0
 10  6  1  0  0  0  0
 11 24  1  0  0  0  0
 12  2  1  0  0  0  0
 13  8  1  0  0  0  0
 13 24  1  0  0  0  0
 15  3  1  0  0  0  0
 16 12  2  0  0  0  0
 16 22  1  0  0  0  0
 17  2  1  1  0  0  0
 17  1  1  0  0  0  0
 17 23  1  0  0  0  0
 18 20  1  0  0  0  0
 18  4  1  1  0  0  0
 20  9  1  6  0  0  0
 20  8  1  0  0  0  0
 22 15  2  0  0  0  0
 23 15  1  6  0  0  0
 23 18  1  0  0  0  0
 24 21  2  0  0  0  0
 25 26  1  0  0  0  0
 26 27  1  0  0  0  0
 28 30  1  0  0  0  0
 29 30  1  0  0  0  0
M  END
>  <MODEL>
8

>  <REMARK>
 VINA RESULT:      -6.9      1.717      5.688
  Name = 
  4 active torsions:
  status: ('A' for Active; 'I' for Inactive)
    1  A    between atoms: C_6  and  C_8
    2  A    between atoms: C_6  and  C_17
    3  A    between atoms: C_7  and  C_10
    4  A    between atoms: C_7  and  C_26
                            x       y       z     vdW  Elec       q    Type
                         _______ _______ _______ _____ _____    ______ ____

>  <TORSDO>
F 4

$$$$
=
 OpenBabel11052417213D

 30 33  0  0  1  0  0  0  0  0999 V2000
  194.3500  175.8090  145.6520 C   0  0  0  0  0  0  0  0  0  0  0  0
  196.4900  174.8940  144.8090 C   0  0  0  0  0  2  0  0  0  0  0  0
  193.9600  171.0260  145.4320 C   0  0  0  0  0  2  0  0  0  0  0  0
  192.4430  174.7200  143.7320 C   0  0  0  0  0  2  0  0  0  0  0  0
  193.3630  175.8660  146.6870 N   0  0  0  0  0  2  0  0  0  0  0  0
  191.5470  176.5940  145.0710 C   0  0  1  0  0  3  0  0  0  0  0  0
  191.3120  176.6450  147.4620 O   0  0  0  0  0  0  0  0  0  0  0  0
  190.8320  172.2360  143.7680 C   0  0  2  0  0  3  0  0  0  0  0  0
  192.9230  170.9810  144.3590 C   0  0  0  0  0  0  0  0  0  0  0  0
  192.0600  176.4200  146.4730 C   0  0  0  0  0  0  0  0  0  0  0  0
  191.3070  175.2860  144.4540 N   0  0  0  0  0  0  0  0  0  0  0  0
  197.5800  173.9180  145.1120 C   0  0  0  0  0  3  0  0  0  0  0  0
  190.1760  173.0010  144.9260 C   0  0  0  0  0  2  0  0  0  0  0  0
  194.4690  176.7710  144.8420 O   0  0  0  0  0  0  0  0  0  0  0  0
  194.9680  172.0940  145.1330 C   0  0  0  0  0  0  0  0  0  0  0  0
  197.4610  172.6060  145.3300 C   0  0  0  0  0  3  0  0  0  0  0  0
  195.1650  174.5590  145.4740 C   0  0  2  0  0  3  0  0  0  0  0  0
  192.9610  173.4990  144.4800 C   0  0  1  0  0  3  0  0  0  0  0  0
  192.5430  169.9010  143.9340 O   0  0  0  0  0  0  0  0  0  0  0  0
  192.3750  172.2570  143.7850 C   0  0  2  0  0  3  0  0  0  0  0  0
  189.0330  175.0730  144.9910 O   0  0  0  0  0  0  0  0  0  0  0  0
  196.2410  171.7750  145.3920 C   0  0  0  0  0  3  0  0  0  0  0  0
  194.5100  173.4500  144.6180 C   0  0  2  0  0  3  0  0  0  0  0  0
  190.1300  174.4990  144.7640 C   0  0  0  0  0  0  0  0  0  0  0  0
  190.3780  177.5690  144.9390 C   0  0  0  0  0  2  0  0  0  0  0  0
  190.4060  178.2780  143.5950 C   0  0  0  0  0  2  0  0  0  0  0  0
  189.2980  177.7700  142.6920 C   0  0  0  0  0  1  0  0  0  0  0  0
  190.2630  172.6380  142.4090 C   0  0  0  0  0  2  0  0  0  0  0  0
  187.9870  173.5040  141.8660 C   0  0  0  0  0  1  0  0  0  0  0  0
  188.7870  172.2890  142.2980 C   0  0  0  0  0  2  0  0  0  0  0  0
  1  5  1  0  0  0  0
  2 12  1  0  0  0  0
  4 11  1  0  0  0  0
  6 25  1  1  0  0  0
  6 10  1  0  0  0  0
  8 28  1  6  0  0  0
  8 20  1  0  0  0  0
  8 13  1  0  0  0  0
  9  3  1  0  0  0  0
 10  5  1  0  0  0  0
 10  7  2  0  0  0  0
 11 24  1  0  0  0  0
 11  6  1  0  0  0  0
 12 16  2  0  0  0  0
 14  1  2  0  0  0  0
 15 22  2  0  0  0  0
 15  3  1  0  0  0  0
 16 22  1  0  0  0  0
 17  2  1  6  0  0  0
 17  1  1  0  0  0  0
 18  4  1  6  0  0  0
 18 23  1  0  0  0  0
 19  9  2  0  0  0  0
 20  9  1  1  0  0  0
 20 18  1  0  0  0  0
 23 15  1  1  0  0  0
 23 17  1  0  0  0  0
 24 13  1  0  0  0  0
 24 21  2  0  0  0  0
 26 25  1  0  0  0  0
 27 26  1  0  0  0  0
 29 30  1  0  0  0  0
 30 28  1  0  0  0  0
M  END
>  <MODEL>
9

>  <REMARK>
 VINA RESULT:      -6.9      2.816      7.674
  Name = 
  4 active torsions:
  status: ('A' for Active; 'I' for Inactive)
    1  A    between atoms: C_6  and  C_8
    2  A    between atoms: C_6  and  C_17
    3  A    between atoms: C_7  and  C_10
    4  A    between atoms: C_7  and  C_26
                            x       y       z     vdW  Elec       q    Type
                         _______ _______ _______ _____ _____    ______ ____

>  <TORSDO>
F 4

$$$$
