=
 OpenBabel11052418103D

 28 32  0  0  0  0  0  0  0  0999 V2000
  189.2620  173.6380  142.4380 N   0  0  0  0  0  0  0  0  0  0  0  0
  187.2490  177.0610  145.8670 C   0  0  0  0  0  3  0  0  0  0  0  0
  186.9250  176.8400  139.4830 C   0  0  0  0  0  1  0  0  0  0  0  0
  186.1060  178.5950  144.3140 C   0  0  0  0  0  0  0  0  0  0  0  0
  187.2980  176.7190  143.3200 C   0  0  0  0  0  0  0  0  0  0  0  0
  186.0460  178.9440  146.8130 C   0  0  0  0  0  0  0  0  0  0  0  0
  186.8630  177.4920  144.5050 C   0  0  0  0  0  0  0  0  0  0  0  0
  186.1420  178.2720  141.8710 C   0  0  0  0  0  3  0  0  0  0  0  0
  185.6180  179.4430  145.4620 C   0  0  0  0  0  2  0  0  0  0  0  0
  188.1060  175.2230  141.0080 C   0  0  0  0  0  0  0  0  0  0  0  0
  188.0480  175.6200  143.4340 C   0  0  0  0  0  3  0  0  0  0  0  0
  185.7470  178.9850  143.0130 O   0  0  0  0  0  0  0  0  0  0  0  0
  188.8730  172.9910  140.1260 C   0  0  0  0  0  2  0  0  0  0  0  0
  187.3100  176.4150  140.8260 N   0  0  0  0  0  0  0  0  0  0  0  0
  188.5790  174.4500  139.7980 C   0  0  0  0  0  2  0  0  0  0  0  0
  185.6930  179.5720  147.8450 O   0  0  0  0  0  0  0  0  0  0  0  0
  186.8680  177.7380  146.9470 C   0  0  0  0  0  3  0  0  0  0  0  0
  186.8910  177.1700  141.9780 C   0  0  0  0  0  0  0  0  0  0  0  0
  189.8430  172.9450  141.2920 C   0  0  0  0  0  2  0  0  0  0  0  0
  188.4810  174.8380  142.2520 C   0  0  0  0  0  0  0  0  0  0  0  0
  189.3850  173.0160  143.7510 C   0  0  0  0  0  2  0  0  0  0  0  0
  190.2600  173.8380  144.6360 C   0  0  0  0  0  0  0  0  0  0  0  0
  191.8810  175.4280  146.2720 C   0  0  0  0  0  0  0  0  0  0  0  0
  189.8040  174.2400  145.8960 C   0  0  0  0  0  3  0  0  0  0  0  0
  191.5250  174.2400  144.1910 C   0  0  0  0  0  3  0  0  0  0  0  0
  192.3360  175.0330  145.0100 C   0  0  0  0  0  3  0  0  0  0  0  0
  192.6660  176.1960  147.0640 F   0  0  0  0  0  0  0  0  0  0  0  0
  190.6150  175.0320  146.7150 C   0  0  0  0  0  3  0  0  0  0  0  0
  1 21  1  0  0  0  0
  2 17  2  0  0  0  0
  3 14  1  0  0  0  0
  4  7  2  0  0  0  0
  4  9  1  0  0  0  0
  5 11  2  0  0  0  0
  5  7  1  0  0  0  0
  6 17  1  0  0  0  0
  6 16  2  0  0  0  0
  7  2  1  0  0  0  0
  8 18  2  0  0  0  0
  8 12  1  0  0  0  0
  9  6  1  0  0  0  0
 10 20  2  0  0  0  0
 12  4  1  0  0  0  0
 13 19  1  0  0  0  0
 14 10  1  0  0  0  0
 14 18  1  0  0  0  0
 15 13  1  0  0  0  0
 15 10  1  0  0  0  0
 18  5  1  0  0  0  0
 19  1  1  0  0  0  0
 20  1  1  0  0  0  0
 20 11  1  0  0  0  0
 21 22  1  0  0  0  0
 22 24  1  0  0  0  0
 23 28  1  0  0  0  0
 23 27  1  0  0  0  0
 24 28  2  0  0  0  0
 25 22  2  0  0  0  0
 25 26  1  0  0  0  0
 26 23  2  0  0  0  0
M  END
>  <MODEL>
1

>  <REMARK>
 VINA RESULT:      -8.0      0.000      0.000
  Name = 
  2 active torsions:
  status: ('A' for Active; 'I' for Inactive)
    1  A    between atoms: N_1  and  C_2
    2  A    between atoms: C_2  and  C_3
                            x       y       z     vdW  Elec       q    Type
                         _______ _______ _______ _____ _____    ______ ____

>  <TORSDO>
F 2

$$$$
=
 OpenBabel11052418103D

 28 32  0  0  0  0  0  0  0  0999 V2000
  190.9590  173.8190  143.5400 N   0  0  0  0  0  0  0  0  0  0  0  0
  187.4480  176.6410  146.2290 C   0  0  0  0  0  3  0  0  0  0  0  0
  187.8600  175.3090  139.9870 C   0  0  0  0  0  1  0  0  0  0  0  0
  185.9550  177.3240  144.3910 C   0  0  0  0  0  0  0  0  0  0  0  0
  187.8740  175.9510  143.7900 C   0  0  0  0  0  0  0  0  0  0  0  0
  185.5200  178.0080  146.7820 C   0  0  0  0  0  0  0  0  0  0  0  0
  187.0600  176.6610  144.8010 C   0  0  0  0  0  0  0  0  0  0  0  0
  186.3520  176.6630  142.0510 C   0  0  0  0  0  3  0  0  0  0  0  0
  185.0660  178.0750  145.3510 C   0  0  0  0  0  2  0  0  0  0  0  0
  189.4230  174.5620  141.8130 C   0  0  0  0  0  0  0  0  0  0  0  0
  188.9780  175.2780  144.1230 C   0  0  0  0  0  3  0  0  0  0  0  0
  185.6020  177.3280  143.0320 O   0  0  0  0  0  0  0  0  0  0  0  0
  191.0800  172.7150  141.3750 C   0  0  0  0  0  2  0  0  0  0  0  0
  188.2470  175.2910  141.3950 N   0  0  0  0  0  0  0  0  0  0  0  0
  190.2750  173.8630  140.7780 C   0  0  0  0  0  2  0  0  0  0  0  0
  184.8520  178.5950  147.6710 O   0  0  0  0  0  0  0  0  0  0  0  0
  186.7300  177.2700  147.1560 C   0  0  0  0  0  3  0  0  0  0  0  0
  187.4570  175.9850  142.3780 C   0  0  0  0  0  0  0  0  0  0  0  0
  191.8730  173.2460  142.5560 C   0  0  0  0  0  2  0  0  0  0  0  0
  189.7950  174.5600  143.1160 C   0  0  0  0  0  0  0  0  0  0  0  0
  191.1860  173.5130  144.9470 C   0  0  0  0  0  2  0  0  0  0  0  0
  192.0470  174.5570  145.5740 C   0  0  0  0  0  0  0  0  0  0  0  0
  193.6470  176.5530  146.7080 C   0  0  0  0  0  0  0  0  0  0  0  0
  191.5120  175.4230  146.5350 C   0  0  0  0  0  3  0  0  0  0  0  0
  193.3810  174.6970  145.1750 C   0  0  0  0  0  3  0  0  0  0  0  0
  194.1810  175.6930  145.7430 C   0  0  0  0  0  3  0  0  0  0  0  0
  194.4220  177.5170  147.2580 F   0  0  0  0  0  0  0  0  0  0  0  0
  192.3130  176.4180  147.1030 C   0  0  0  0  0  3  0  0  0  0  0  0
  1 21  1  0  0  0  0
  2 17  2  0  0  0  0
  3 14  1  0  0  0  0
  4  7  2  0  0  0  0
  4  9  1  0  0  0  0
  5 11  2  0  0  0  0
  5  7  1  0  0  0  0
  6 17  1  0  0  0  0
  6 16  2  0  0  0  0
  7  2  1  0  0  0  0
  8 18  2  0  0  0  0
  8 12  1  0  0  0  0
  9  6  1  0  0  0  0
 10 20  2  0  0  0  0
 12  4  1  0  0  0  0
 13 19  1  0  0  0  0
 14 10  1  0  0  0  0
 14 18  1  0  0  0  0
 15 13  1  0  0  0  0
 15 10  1  0  0  0  0
 18  5  1  0  0  0  0
 19  1  1  0  0  0  0
 20  1  1  0  0  0  0
 20 11  1  0  0  0  0
 21 22  1  0  0  0  0
 22 24  1  0  0  0  0
 23 28  1  0  0  0  0
 23 27  1  0  0  0  0
 24 28  2  0  0  0  0
 25 22  2  0  0  0  0
 25 26  1  0  0  0  0
 26 23  2  0  0  0  0
M  END
>  <MODEL>
2

>  <REMARK>
 VINA RESULT:      -7.9      1.346      1.769
  Name = 
  2 active torsions:
  status: ('A' for Active; 'I' for Inactive)
    1  A    between atoms: N_1  and  C_2
    2  A    between atoms: C_2  and  C_3
                            x       y       z     vdW  Elec       q    Type
                         _______ _______ _______ _____ _____    ______ ____

>  <TORSDO>
F 2

$$$$
=
 OpenBabel11052418103D

 28 32  0  0  0  0  0  0  0  0999 V2000
  189.9330  172.7610  143.5740 N   0  0  0  0  0  0  0  0  0  0  0  0
  187.2630  177.1700  144.5530 C   0  0  0  0  0  3  0  0  0  0  0  0
  188.5660  174.1940  139.0440 C   0  0  0  0  0  1  0  0  0  0  0  0
  186.6210  177.7950  142.2580 C   0  0  0  0  0  0  0  0  0  0  0  0
  187.9440  175.7670  142.5100 C   0  0  0  0  0  0  0  0  0  0  0  0
  185.9410  179.1830  144.2540 C   0  0  0  0  0  0  0  0  0  0  0  0
  187.2560  176.9410  143.0910 C   0  0  0  0  0  0  0  0  0  0  0  0
  187.2630  176.4540  140.2930 C   0  0  0  0  0  3  0  0  0  0  0  0
  185.8930  179.0170  142.7610 C   0  0  0  0  0  2  0  0  0  0  0  0
  189.2500  173.4850  141.3600 C   0  0  0  0  0  0  0  0  0  0  0  0
  188.5930  174.8840  143.2720 C   0  0  0  0  0  3  0  0  0  0  0  0
  186.6220  177.5580  140.8730 O   0  0  0  0  0  0  0  0  0  0  0  0
  190.1180  171.1530  141.7580 C   0  0  0  0  0  2  0  0  0  0  0  0
  188.5780  174.4190  140.4870 N   0  0  0  0  0  0  0  0  0  0  0  0
  189.9810  172.3020  140.7660 C   0  0  0  0  0  2  0  0  0  0  0  0
  185.3640  180.1660  144.7860 O   0  0  0  0  0  0  0  0  0  0  0  0
  186.6490  178.2160  145.0980 C   0  0  0  0  0  3  0  0  0  0  0  0
  187.9120  175.5640  141.0510 C   0  0  0  0  0  0  0  0  0  0  0  0
  190.7570  171.6860  143.0280 C   0  0  0  0  0  2  0  0  0  0  0  0
  189.2780  173.7020  142.6970 C   0  0  0  0  0  0  0  0  0  0  0  0
  189.6910  172.7770  145.0120 C   0  0  0  0  0  2  0  0  0  0  0  0
  190.4660  173.8760  145.6580 C   0  0  0  0  0  0  0  0  0  0  0  0
  191.9320  175.9030  146.9110 C   0  0  0  0  0  0  0  0  0  0  0  0
  191.8180  174.0570  145.3470 C   0  0  0  0  0  3  0  0  0  0  0  0
  189.8500  174.7050  146.6030 C   0  0  0  0  0  3  0  0  0  0  0  0
  190.5820  175.7190  147.2270 C   0  0  0  0  0  3  0  0  0  0  0  0
  192.6410  176.8850  147.5160 F   0  0  0  0  0  0  0  0  0  0  0  0
  192.5500  175.0710  145.9720 C   0  0  0  0  0  3  0  0  0  0  0  0
  1 21  1  0  0  0  0
  2 17  2  0  0  0  0
  3 14  1  0  0  0  0
  4  9  1  0  0  0  0
  4  7  2  0  0  0  0
  5  7  1  0  0  0  0
  5 11  2  0  0  0  0
  6 16  2  0  0  0  0
  6 17  1  0  0  0  0
  7  2  1  0  0  0  0
  8 12  1  0  0  0  0
  8 18  2  0  0  0  0
  9  6  1  0  0  0  0
 10 20  2  0  0  0  0
 12  4  1  0  0  0  0
 13 19  1  0  0  0  0
 14 18  1  0  0  0  0
 14 10  1  0  0  0  0
 15 10  1  0  0  0  0
 15 13  1  0  0  0  0
 18  5  1  0  0  0  0
 19  1  1  0  0  0  0
 20 11  1  0  0  0  0
 20  1  1  0  0  0  0
 21 22  1  0  0  0  0
 22 25  1  0  0  0  0
 23 26  1  0  0  0  0
 23 27  1  0  0  0  0
 24 22  2  0  0  0  0
 24 28  1  0  0  0  0
 25 26  2  0  0  0  0
 28 23  2  0  0  0  0
M  END
>  <MODEL>
3

>  <REMARK>
 VINA RESULT:      -7.8      1.329      2.189
  Name = 
  2 active torsions:
  status: ('A' for Active; 'I' for Inactive)
    1  A    between atoms: N_1  and  C_2
    2  A    between atoms: C_2  and  C_3
                            x       y       z     vdW  Elec       q    Type
                         _______ _______ _______ _____ _____    ______ ____

>  <TORSDO>
F 2

$$$$
=
 OpenBabel11052418103D

 28 32  0  0  0  0  0  0  0  0999 V2000
  189.4320  176.3340  146.3420 N   0  0  0  0  0  0  0  0  0  0  0  0
  188.6830  173.7470  141.8390 C   0  0  0  0  0  3  0  0  0  0  0  0
  194.0490  175.1680  145.0140 C   0  0  0  0  0  1  0  0  0  0  0  0
  191.0170  173.2040  141.2690 C   0  0  0  0  0  0  0  0  0  0  0  0
  190.6570  174.4630  143.3210 C   0  0  0  0  0  0  0  0  0  0  0  0
  189.0890  172.4900  139.8040 C   0  0  0  0  0  0  0  0  0  0  0  0
  190.1360  173.7860  142.1120 C   0  0  0  0  0  0  0  0  0  0  0  0
  192.9170  173.8800  142.6850 C   0  0  0  0  0  3  0  0  0  0  0  0
  190.5770  172.4910  140.0140 C   0  0  0  0  0  2  0  0  0  0  0  0
  191.6900  175.7490  145.6690 C   0  0  0  0  0  0  0  0  0  0  0  0
  189.8450  175.0610  144.1960 C   0  0  0  0  0  3  0  0  0  0  0  0
  192.3930  173.2480  141.5480 O   0  0  0  0  0  0  0  0  0  0  0  0
  191.1910  176.5410  148.0090 C   0  0  0  0  0  2  0  0  0  0  0  0
  192.6150  175.1330  144.7450 N   0  0  0  0  0  0  0  0  0  0  0  0
  192.2210  176.4700  146.8880 C   0  0  0  0  0  2  0  0  0  0  0  0
  188.6080  171.9210  138.7900 O   0  0  0  0  0  0  0  0  0  0  0  0
  188.1910  173.1420  140.7610 C   0  0  0  0  0  3  0  0  0  0  0  0
  192.1090  174.4780  143.5670 C   0  0  0  0  0  0  0  0  0  0  0  0
  189.9150  177.1480  147.4530 C   0  0  0  0  0  2  0  0  0  0  0  0
  190.3600  175.7350  145.4110 C   0  0  0  0  0  0  0  0  0  0  0  0
  188.0050  176.0410  146.2760 C   0  0  0  0  0  2  0  0  0  0  0  0
  187.2560  177.2190  145.7500 C   0  0  0  0  0  0  0  0  0  0  0  0
  185.8090  179.3940  144.7480 C   0  0  0  0  0  0  0  0  0  0  0  0
  186.4120  177.9480  146.5940 C   0  0  0  0  0  3  0  0  0  0  0  0
  187.3690  177.5740  144.4010 C   0  0  0  0  0  3  0  0  0  0  0  0
  186.6480  178.6630  143.9010 C   0  0  0  0  0  3  0  0  0  0  0  0
  185.1110  180.4480  144.2630 F   0  0  0  0  0  0  0  0  0  0  0  0
  185.6910  179.0360  146.0940 C   0  0  0  0  0  3  0  0  0  0  0  0
  1 19  1  0  0  0  0
  2  7  1  0  0  0  0
  4 12  1  0  0  0  0
  4  7  2  0  0  0  0
  5 18  1  0  0  0  0
  5 11  2  0  0  0  0
  6  9  1  0  0  0  0
  6 17  1  0  0  0  0
  7  5  1  0  0  0  0
  8 18  2  0  0  0  0
  9  4  1  0  0  0  0
 10 15  1  0  0  0  0
 11 20  1  0  0  0  0
 12  8  1  0  0  0  0
 14  3  1  0  0  0  0
 14 10  1  0  0  0  0
 15 13  1  0  0  0  0
 16  6  2  0  0  0  0
 17  2  2  0  0  0  0
 18 14  1  0  0  0  0
 19 13  1  0  0  0  0
 20 10  2  0  0  0  0
 20  1  1  0  0  0  0
 21  1  1  0  0  0  0
 22 21  1  0  0  0  0
 22 24  1  0  0  0  0
 23 28  1  0  0  0  0
 25 22  2  0  0  0  0
 26 25  1  0  0  0  0
 26 23  2  0  0  0  0
 27 23  1  0  0  0  0
 28 24  2  0  0  0  0
M  END
>  <MODEL>
4

>  <REMARK>
 VINA RESULT:      -7.7      3.759      7.222
  Name = 
  2 active torsions:
  status: ('A' for Active; 'I' for Inactive)
    1  A    between atoms: N_1  and  C_2
    2  A    between atoms: C_2  and  C_3
                            x       y       z     vdW  Elec       q    Type
                         _______ _______ _______ _____ _____    ______ ____

>  <TORSDO>
F 2

$$$$
=
 OpenBabel11052418103D

 28 32  0  0  0  0  0  0  0  0999 V2000
  186.5740  178.0870  141.9130 N   0  0  0  0  0  0  0  0  0  0  0  0
  189.5150  177.3700  146.1980 C   0  0  0  0  0  3  0  0  0  0  0  0
  189.2110  174.0780  140.7230 C   0  0  0  0  0  1  0  0  0  0  0  0
  190.7890  175.3770  145.5100 C   0  0  0  0  0  0  0  0  0  0  0  0
  189.1710  176.2470  143.9120 C   0  0  0  0  0  0  0  0  0  0  0  0
  191.1420  176.4690  147.7580 C   0  0  0  0  0  0  0  0  0  0  0  0
  189.8530  176.3090  145.2240 C   0  0  0  0  0  0  0  0  0  0  0  0
  190.4710  174.2950  143.3180 C   0  0  0  0  0  3  0  0  0  0  0  0
  191.5350  175.3620  146.8210 C   0  0  0  0  0  2  0  0  0  0  0  0
  187.8820  176.1190  141.3510 C   0  0  0  0  0  0  0  0  0  0  0  0
  188.2350  177.1330  143.5640 C   0  0  0  0  0  3  0  0  0  0  0  0
  191.0980  174.3790  144.5700 O   0  0  0  0  0  0  0  0  0  0  0  0
  186.6200  177.3940  139.5810 C   0  0  0  0  0  2  0  0  0  0  0  0
  188.8750  175.1240  141.6840 N   0  0  0  0  0  0  0  0  0  0  0  0
  187.1600  176.0400  140.0250 C   0  0  0  0  0  2  0  0  0  0  0  0
  191.7020  176.5580  148.8810 O   0  0  0  0  0  0  0  0  0  0  0  0
  190.1170  177.4470  147.3820 C   0  0  0  0  0  3  0  0  0  0  0  0
  189.5350  175.1810  142.9620 C   0  0  0  0  0  0  0  0  0  0  0  0
  185.7680  177.9640  140.7020 C   0  0  0  0  0  2  0  0  0  0  0  0
  187.5530  177.0800  142.2490 C   0  0  0  0  0  0  0  0  0  0  0  0
  186.4520  179.3100  142.6970 C   0  0  0  0  0  2  0  0  0  0  0  0
  185.7430  179.0360  143.9800 C   0  0  0  0  0  0  0  0  0  0  0  0
  184.4100  178.5770  146.3980 C   0  0  0  0  0  0  0  0  0  0  0  0
  184.3470  178.9380  144.0040 C   0  0  0  0  0  3  0  0  0  0  0  0
  186.4700  178.9130  145.1700 C   0  0  0  0  0  3  0  0  0  0  0  0
  185.8050  178.6810  146.3770 C   0  0  0  0  0  3  0  0  0  0  0  0
  183.7650  178.3530  147.5680 F   0  0  0  0  0  0  0  0  0  0  0  0
  183.6810  178.7070  145.2110 C   0  0  0  0  0  3  0  0  0  0  0  0
  1 20  1  0  0  0  0
  1 21  1  0  0  0  0
  2 17  2  0  0  0  0
  3 14  1  0  0  0  0
  4  9  1  0  0  0  0
  5  7  1  0  0  0  0
  6 16  2  0  0  0  0
  7  4  2  0  0  0  0
  7  2  1  0  0  0  0
  8 12  1  0  0  0  0
  9  6  1  0  0  0  0
 10 14  1  0  0  0  0
 10 20  2  0  0  0  0
 11  5  2  0  0  0  0
 12  4  1  0  0  0  0
 13 15  1  0  0  0  0
 13 19  1  0  0  0  0
 14 18  1  0  0  0  0
 15 10  1  0  0  0  0
 17  6  1  0  0  0  0
 18  8  2  0  0  0  0
 18  5  1  0  0  0  0
 19  1  1  0  0  0  0
 20 11  1  0  0  0  0
 21 22  1  0  0  0  0
 22 24  2  0  0  0  0
 22 25  1  0  0  0  0
 23 27  1  0  0  0  0
 24 28  1  0  0  0  0
 25 26  2  0  0  0  0
 26 23  1  0  0  0  0
 28 23  2  0  0  0  0
M  END
>  <MODEL>
5

>  <REMARK>
 VINA RESULT:      -7.6      2.919      5.664
  Name = 
  2 active torsions:
  status: ('A' for Active; 'I' for Inactive)
    1  A    between atoms: N_1  and  C_2
    2  A    between atoms: C_2  and  C_3
                            x       y       z     vdW  Elec       q    Type
                         _______ _______ _______ _____ _____    ______ ____

>  <TORSDO>
F 2

$$$$
=
 OpenBabel11052418103D

 28 32  0  0  0  0  0  0  0  0999 V2000
  188.5780  175.7090  145.4960 N   0  0  0  0  0  0  0  0  0  0  0  0
  188.1910  174.9610  140.3180 C   0  0  0  0  0  3  0  0  0  0  0  0
  185.5130  179.3410  144.1310 C   0  0  0  0  0  1  0  0  0  0  0  0
  186.6690  176.8080  139.7340 C   0  0  0  0  0  0  0  0  0  0  0  0
  187.2600  176.5780  142.0850 C   0  0  0  0  0  0  0  0  0  0  0  0
  187.5770  175.2310  137.9850 C   0  0  0  0  0  0  0  0  0  0  0  0
  187.3570  176.1280  140.6780 C   0  0  0  0  0  0  0  0  0  0  0  0
  185.7740  178.3670  141.4200 C   0  0  0  0  0  3  0  0  0  0  0  0
  186.7080  176.4210  138.2770 C   0  0  0  0  0  2  0  0  0  0  0  0
  187.0750  177.4850  144.8010 C   0  0  0  0  0  0  0  0  0  0  0  0
  187.9110  175.9530  143.0690 C   0  0  0  0  0  3  0  0  0  0  0  0
  185.8840  177.9160  140.0970 O   0  0  0  0  0  0  0  0  0  0  0  0
  188.1640  177.5140  147.0740 C   0  0  0  0  0  2  0  0  0  0  0  0
  186.3360  178.1870  143.7780 N   0  0  0  0  0  0  0  0  0  0  0  0
  186.9530  177.9220  146.2440 C   0  0  0  0  0  2  0  0  0  0  0  0
  187.6880  174.8210  136.8010 O   0  0  0  0  0  0  0  0  0  0  0  0
  188.2960  174.5400  139.0600 C   0  0  0  0  0  3  0  0  0  0  0  0
  186.4250  177.7470  142.4100 C   0  0  0  0  0  0  0  0  0  0  0  0
  188.3800  176.0200  146.9090 C   0  0  0  0  0  2  0  0  0  0  0  0
  187.8230  176.4020  144.4790 C   0  0  0  0  0  0  0  0  0  0  0  0
  189.6420  174.7770  145.1410 C   0  0  0  0  0  2  0  0  0  0  0  0
  190.9760  175.4220  145.3150 C   0  0  0  0  0  0  0  0  0  0  0  0
  193.4540  176.6710  145.6730 C   0  0  0  0  0  0  0  0  0  0  0  0
  191.8060  175.0410  146.3750 C   0  0  0  0  0  3  0  0  0  0  0  0
  191.3830  176.4350  144.4400 C   0  0  0  0  0  3  0  0  0  0  0  0
  192.6230  177.0580  144.6170 C   0  0  0  0  0  3  0  0  0  0  0  0
  194.6540  177.2740  145.8450 F   0  0  0  0  0  0  0  0  0  0  0  0
  193.0460  175.6630  146.5520 C   0  0  0  0  0  3  0  0  0  0  0  0
  1 19  1  0  0  0  0
  2  7  1  0  0  0  0
  4 12  1  0  0  0  0
  4  7  2  0  0  0  0
  5 18  1  0  0  0  0
  5 11  2  0  0  0  0
  6  9  1  0  0  0  0
  6 17  1  0  0  0  0
  7  5  1  0  0  0  0
  8 18  2  0  0  0  0
  9  4  1  0  0  0  0
 10 15  1  0  0  0  0
 11 20  1  0  0  0  0
 12  8  1  0  0  0  0
 14  3  1  0  0  0  0
 14 10  1  0  0  0  0
 15 13  1  0  0  0  0
 16  6  2  0  0  0  0
 17  2  2  0  0  0  0
 18 14  1  0  0  0  0
 19 13  1  0  0  0  0
 20 10  2  0  0  0  0
 20  1  1  0  0  0  0
 21 22  1  0  0  0  0
 21  1  1  0  0  0  0
 22 24  1  0  0  0  0
 23 27  1  0  0  0  0
 23 28  1  0  0  0  0
 24 28  2  0  0  0  0
 25 26  1  0  0  0  0
 25 22  2  0  0  0  0
 26 23  2  0  0  0  0
M  END
>  <MODEL>
6

>  <REMARK>
 VINA RESULT:      -7.6      2.269      5.219
  Name = 
  2 active torsions:
  status: ('A' for Active; 'I' for Inactive)
    1  A    between atoms: N_1  and  C_2
    2  A    between atoms: C_2  and  C_3
                            x       y       z     vdW  Elec       q    Type
                         _______ _______ _______ _____ _____    ______ ____

>  <TORSDO>
F 2

$$$$
=
 OpenBabel11052418103D

 28 32  0  0  0  0  0  0  0  0999 V2000
  192.2350  174.9170  143.6770 N   0  0  0  0  0  0  0  0  0  0  0  0
  188.2110  177.0370  146.2910 C   0  0  0  0  0  3  0  0  0  0  0  0
  188.5410  174.5370  140.4130 C   0  0  0  0  0  1  0  0  0  0  0  0
  186.4330  176.7930  144.6030 C   0  0  0  0  0  0  0  0  0  0  0  0
  188.6450  175.9860  143.9860 C   0  0  0  0  0  0  0  0  0  0  0  0
  185.9880  177.8250  146.8630 C   0  0  0  0  0  0  0  0  0  0  0  0
  187.7240  176.6150  144.9590 C   0  0  0  0  0  0  0  0  0  0  0  0
  186.8370  175.7820  142.3920 C   0  0  0  0  0  3  0  0  0  0  0  0
  185.4240  177.4250  145.5290 C   0  0  0  0  0  2  0  0  0  0  0  0
  190.4050  174.7400  142.0910 C   0  0  0  0  0  0  0  0  0  0  0  0
  189.9340  175.7810  144.2690 C   0  0  0  0  0  3  0  0  0  0  0  0
  185.9900  176.3830  143.3340 O   0  0  0  0  0  0  0  0  0  0  0  0
  192.5440  173.4500  141.7600 C   0  0  0  0  0  2  0  0  0  0  0  0
  189.0230  174.9550  141.7270 N   0  0  0  0  0  0  0  0  0  0  0  0
  191.3560  174.1270  141.0880 C   0  0  0  0  0  2  0  0  0  0  0  0
  185.2360  178.3590  147.7180 O   0  0  0  0  0  0  0  0  0  0  0  0
  187.4010  177.6020  147.1820 C   0  0  0  0  0  3  0  0  0  0  0  0
  188.1280  175.5710  142.6700 C   0  0  0  0  0  0  0  0  0  0  0  0
  193.2060  174.4510  142.6910 C   0  0  0  0  0  2  0  0  0  0  0  0
  190.8600  175.1460  143.3020 C   0  0  0  0  0  0  0  0  0  0  0  0
  192.6640  175.0190  145.0670 C   0  0  0  0  0  2  0  0  0  0  0  0
  193.8660  174.1690  145.3040 C   0  0  0  0  0  0  0  0  0  0  0  0
  196.1130  172.5770  145.8040 C   0  0  0  0  0  0  0  0  0  0  0  0
  193.7390  172.7770  145.3670 C   0  0  0  0  0  3  0  0  0  0  0  0
  195.1180  174.7640  145.5000 C   0  0  0  0  0  3  0  0  0  0  0  0
  196.2410  173.9690  145.7480 C   0  0  0  0  0  3  0  0  0  0  0  0
  197.2010  171.8070  146.0450 F   0  0  0  0  0  0  0  0  0  0  0  0
  194.8620  171.9810  145.6150 C   0  0  0  0  0  3  0  0  0  0  0  0
  1 21  1  0  0  0  0
  2 17  2  0  0  0  0
  3 14  1  0  0  0  0
  4  7  2  0  0  0  0
  4  9  1  0  0  0  0
  5 11  2  0  0  0  0
  5  7  1  0  0  0  0
  6 17  1  0  0  0  0
  6 16  2  0  0  0  0
  7  2  1  0  0  0  0
  8 18  2  0  0  0  0
  8 12  1  0  0  0  0
  9  6  1  0  0  0  0
 10 20  2  0  0  0  0
 12  4  1  0  0  0  0
 13 19  1  0  0  0  0
 14 10  1  0  0  0  0
 14 18  1  0  0  0  0
 15 13  1  0  0  0  0
 15 10  1  0  0  0  0
 18  5  1  0  0  0  0
 19  1  1  0  0  0  0
 20  1  1  0  0  0  0
 20 11  1  0  0  0  0
 21 22  1  0  0  0  0
 22 24  2  0  0  0  0
 22 25  1  0  0  0  0
 23 27  1  0  0  0  0
 24 28  1  0  0  0  0
 25 26  2  0  0  0  0
 26 23  1  0  0  0  0
 28 23  2  0  0  0  0
M  END
>  <MODEL>
7

>  <REMARK>
 VINA RESULT:      -7.5      2.489      3.253
  Name = 
  2 active torsions:
  status: ('A' for Active; 'I' for Inactive)
    1  A    between atoms: N_1  and  C_2
    2  A    between atoms: C_2  and  C_3
                            x       y       z     vdW  Elec       q    Type
                         _______ _______ _______ _____ _____    ______ ____

>  <TORSDO>
F 2

$$$$
=
 OpenBabel11052418103D

 28 32  0  0  0  0  0  0  0  0999 V2000
  190.1680  175.9280  145.9260 N   0  0  0  0  0  0  0  0  0  0  0  0
  189.1380  173.8410  141.2240 C   0  0  0  0  0  3  0  0  0  0  0  0
  194.6540  175.7250  143.8560 C   0  0  0  0  0  1  0  0  0  0  0  0
  191.4140  173.7700  140.2830 C   0  0  0  0  0  0  0  0  0  0  0  0
  191.1860  174.6840  142.5280 C   0  0  0  0  0  0  0  0  0  0  0  0
  189.4130  172.9350  138.9890 C   0  0  0  0  0  0  0  0  0  0  0  0
  190.5940  174.0860  141.3100 C   0  0  0  0  0  0  0  0  0  0  0  0
  193.3850  174.5710  141.5270 C   0  0  0  0  0  3  0  0  0  0  0  0
  190.8990  173.1580  139.0030 C   0  0  0  0  0  2  0  0  0  0  0  0
  192.3610  175.8170  144.8880 C   0  0  0  0  0  0  0  0  0  0  0  0
  190.4360  175.0220  143.5800 C   0  0  0  0  0  3  0  0  0  0  0  0
  192.7940  174.0080  140.3850 O   0  0  0  0  0  0  0  0  0  0  0  0
  192.1100  176.2140  147.3640 C   0  0  0  0  0  2  0  0  0  0  0  0
  193.2160  175.4860  143.7720 N   0  0  0  0  0  0  0  0  0  0  0  0
  192.9580  176.4570  146.1210 C   0  0  0  0  0  2  0  0  0  0  0  0
  188.8740  172.4260  137.9740 O   0  0  0  0  0  0  0  0  0  0  0  0
  188.5840  173.3030  140.1410 C   0  0  0  0  0  3  0  0  0  0  0  0
  192.6400  174.9100  142.5850 C   0  0  0  0  0  0  0  0  0  0  0  0
  190.6890  176.6640  147.0740 C   0  0  0  0  0  2  0  0  0  0  0  0
  191.0240  175.6150  144.8050 C   0  0  0  0  0  0  0  0  0  0  0  0
  188.8070  175.4120  146.0020 C   0  0  0  0  0  2  0  0  0  0  0  0
  187.8210  176.5220  145.8630 C   0  0  0  0  0  0  0  0  0  0  0  0
  185.9360  178.5710  145.5790 C   0  0  0  0  0  0  0  0  0  0  0  0
  186.9250  176.8000  146.9010 C   0  0  0  0  0  3  0  0  0  0  0  0
  187.7670  177.2660  144.6780 C   0  0  0  0  0  3  0  0  0  0  0  0
  186.8260  178.2910  144.5370 C   0  0  0  0  0  3  0  0  0  0  0  0
  185.0250  179.5630  145.4420 F   0  0  0  0  0  0  0  0  0  0  0  0
  185.9850  177.8250  146.7610 C   0  0  0  0  0  3  0  0  0  0  0  0
  1 21  1  0  0  0  0
  1 19  1  0  0  0  0
  2  7  1  0  0  0  0
  4 12  1  0  0  0  0
  4  7  2  0  0  0  0
  5 18  1  0  0  0  0
  5 11  2  0  0  0  0
  6  9  1  0  0  0  0
  6 17  1  0  0  0  0
  7  5  1  0  0  0  0
  8 18  2  0  0  0  0
  9  4  1  0  0  0  0
 10 15  1  0  0  0  0
 11 20  1  0  0  0  0
 12  8  1  0  0  0  0
 14  3  1  0  0  0  0
 14 10  1  0  0  0  0
 15 13  1  0  0  0  0
 16  6  2  0  0  0  0
 17  2  2  0  0  0  0
 18 14  1  0  0  0  0
 19 13  1  0  0  0  0
 20 10  2  0  0  0  0
 20  1  1  0  0  0  0
 22 21  1  0  0  0  0
 22 24  1  0  0  0  0
 23 28  1  0  0  0  0
 25 22  2  0  0  0  0
 26 25  1  0  0  0  0
 26 23  2  0  0  0  0
 27 23  1  0  0  0  0
 28 24  2  0  0  0  0
M  END
>  <MODEL>
8

>  <REMARK>
 VINA RESULT:      -7.4      3.821      7.132
  Name = 
  2 active torsions:
  status: ('A' for Active; 'I' for Inactive)
    1  A    between atoms: N_1  and  C_2
    2  A    between atoms: C_2  and  C_3
                            x       y       z     vdW  Elec       q    Type
                         _______ _______ _______ _____ _____    ______ ____

>  <TORSDO>
F 2

$$$$
=
 OpenBabel11052418103D

 28 32  0  0  0  0  0  0  0  0999 V2000
  187.3730  177.2710  142.0540 N   0  0  0  0  0  0  0  0  0  0  0  0
  191.1760  174.5360  144.4160 C   0  0  0  0  0  3  0  0  0  0  0  0
  188.4630  173.8380  138.6670 C   0  0  0  0  0  1  0  0  0  0  0  0
  191.6550  172.8730  142.6620 C   0  0  0  0  0  0  0  0  0  0  0  0
  189.9050  174.4960  142.1830 C   0  0  0  0  0  0  0  0  0  0  0  0
  192.9150  172.9000  144.8490 C   0  0  0  0  0  0  0  0  0  0  0  0
  190.9370  173.9380  143.0840 C   0  0  0  0  0  0  0  0  0  0  0  0
  190.4460  172.8300  140.5150 C   0  0  0  0  0  3  0  0  0  0  0  0
  192.7270  172.2380  143.5130 C   0  0  0  0  0  2  0  0  0  0  0  0
  187.9260  175.5760  140.4060 C   0  0  0  0  0  0  0  0  0  0  0  0
  189.1570  175.5450  142.5350 C   0  0  0  0  0  3  0  0  0  0  0  0
  191.4150  172.3220  141.3930 O   0  0  0  0  0  0  0  0  0  0  0  0
  186.5540  177.5970  139.7860 C   0  0  0  0  0  2  0  0  0  0  0  0
  188.6950  174.4290  139.9820 N   0  0  0  0  0  0  0  0  0  0  0  0
  186.8490  176.1290  139.5010 C   0  0  0  0  0  2  0  0  0  0  0  0
  193.7860  172.4570  145.6420 O   0  0  0  0  0  0  0  0  0  0  0  0
  192.1000  174.0530  145.2420 C   0  0  0  0  0  3  0  0  0  0  0  0
  189.6960  173.8820  140.8610 C   0  0  0  0  0  0  0  0  0  0  0  0
  186.2410  177.7470  141.2640 C   0  0  0  0  0  2  0  0  0  0  0  0
  188.1260  176.1130  141.6340 C   0  0  0  0  0  0  0  0  0  0  0  0
  187.7950  178.0700  143.1990 C   0  0  0  0  0  2  0  0  0  0  0  0
  186.7420  178.0590  144.2560 C   0  0  0  0  0  0  0  0  0  0  0  0
  184.7290  178.0240  146.2000 C   0  0  0  0  0  0  0  0  0  0  0  0
  186.4750  176.8840  144.9680 C   0  0  0  0  0  3  0  0  0  0  0  0
  185.9940  179.2140  144.5120 C   0  0  0  0  0  3  0  0  0  0  0  0
  184.9900  179.1970  145.4840 C   0  0  0  0  0  3  0  0  0  0  0  0
  183.7560  178.0080  147.1420 F   0  0  0  0  0  0  0  0  0  0  0  0
  185.4710  176.8670  145.9410 C   0  0  0  0  0  3  0  0  0  0  0  0
  1 21  1  0  0  0  0
  2 17  2  0  0  0  0
  3 14  1  0  0  0  0
  4  7  2  0  0  0  0
  4  9  1  0  0  0  0
  5 11  2  0  0  0  0
  5  7  1  0  0  0  0
  6 17  1  0  0  0  0
  6 16  2  0  0  0  0
  7  2  1  0  0  0  0
  8 18  2  0  0  0  0
  8 12  1  0  0  0  0
  9  6  1  0  0  0  0
 10 20  2  0  0  0  0
 12  4  1  0  0  0  0
 13 19  1  0  0  0  0
 14 10  1  0  0  0  0
 14 18  1  0  0  0  0
 15 13  1  0  0  0  0
 15 10  1  0  0  0  0
 18  5  1  0  0  0  0
 19  1  1  0  0  0  0
 20  1  1  0  0  0  0
 20 11  1  0  0  0  0
 21 22  1  0  0  0  0
 22 25  2  0  0  0  0
 22 24  1  0  0  0  0
 23 27  1  0  0  0  0
 24 28  2  0  0  0  0
 25 26  1  0  0  0  0
 26 23  2  0  0  0  0
 28 23  1  0  0  0  0
M  END
>  <MODEL>
9

>  <REMARK>
 VINA RESULT:      -7.4      3.449      6.343
  Name = 
  2 active torsions:
  status: ('A' for Active; 'I' for Inactive)
    1  A    between atoms: N_1  and  C_2
    2  A    between atoms: C_2  and  C_3
                            x       y       z     vdW  Elec       q    Type
                         _______ _______ _______ _____ _____    ______ ____

>  <TORSDO>
F 2

$$$$
