=
 OpenBabel11052418443D

 34 39  0  0  1  0  0  0  0  0999 V2000
  188.7490  174.4740  141.6950 C   0  0  0  0  0  0  0  0  0  0  0  0
  191.1490  174.6540  142.0120 C   0  0  0  0  0  0  0  0  0  0  0  0
  189.5360  175.5880  143.7320 C   0  0  0  0  0  0  0  0  0  0  0  0
  190.0690  176.4950  145.9180 C   0  0  0  0  0  0  0  0  0  0  0  0
  190.2540  173.3390  140.1810 C   0  0  0  0  0  3  0  0  0  0  0  0
  191.3400  173.8480  140.8870 C   0  0  0  0  0  3  0  0  0  0  0  0
  191.6270  175.1090  144.9650 N   0  0  0  0  0  0  0  0  0  0  0  0
  189.8360  174.8940  142.5120 C   0  0  0  0  0  0  0  0  0  0  0  0
  193.4730  174.9070  146.5590 N   0  0  0  0  0  2  0  0  0  0  0  0
  191.2650  176.4510  147.0940 S   0  0  0  0  0  0  0  0  0  0  0  0
  188.9620  173.6770  140.5690 C   0  0  0  0  0  3  0  0  0  0  0  0
  188.2080  176.0910  143.9360 C   0  0  0  0  0  0  0  0  0  0  0  0
  187.4500  174.8820  141.9710 C   0  0  0  0  0  3  0  0  0  0  0  0
  192.2720  175.2850  142.5320 O   0  0  0  0  0  1  0  0  0  0  0  0
  188.8540  177.0650  146.0420 N   0  0  0  0  0  0  0  0  0  0  0  0
  187.9070  176.8960  145.0760 C   0  0  0  0  0  0  0  0  0  0  0  0
  192.2080  175.4190  146.1490 C   0  0  0  0  0  0  0  0  0  0  0  0
  190.4350  175.7440  144.8150 C   0  0  0  0  0  0  0  0  0  0  0  0
  187.1910  175.7050  143.0570 C   0  0  0  0  0  3  0  0  0  0  0  0
  184.9870  179.3270  144.8680 C   0  0  0  0  0  0  0  0  0  0  0  0
  184.1080  178.7720  145.8010 C   0  0  0  0  0  3  0  0  0  0  0  0
  186.5850  177.5410  145.2940 C   0  0  0  0  0  0  0  0  0  0  0  0
  184.4660  177.6100  146.4890 C   0  0  0  0  0  3  0  0  0  0  0  0
  186.2200  178.7180  144.6210 C   0  0  0  0  0  3  0  0  0  0  0  0
  185.6990  177.0020  146.2400 C   0  0  0  0  0  3  0  0  0  0  0  0
  184.6450  180.4570  144.2050 F   0  0  0  0  0  0  0  0  0  0  0  0
  194.2450  174.0140  145.7110 C   0  0  0  0  0  2  0  0  0  0  0  0
  194.6520  176.4820  144.2100 F   0  0  0  0  0  0  0  0  0  0  0  0
  195.6000  174.6270  145.4020 C   0  0  2  0  0  3  0  0  0  0  0  0
  195.5540  175.4400  144.0970 C   0  0  2  0  0  3  0  0  0  0  0  0
  197.6530  174.8840  143.4670 C   0  0  0  0  0  2  0  0  0  0  0  0
  197.9410  174.0390  144.7060 C   0  0  0  0  0  2  0  0  0  0  0  0
  196.6220  173.5010  145.2510 C   0  0  0  0  0  2  0  0  0  0  0  0
  196.8280  175.9680  143.8130 O   0  0  0  0  0  0  0  0  0  0  0  0
  1 13  2  0  0  0  0
  1  8  1  0  0  0  0
  2  8  1  0  0  0  0
  2 14  1  0  0  0  0
  3 12  1  0  0  0  0
  3 18  1  0  0  0  0
  4 15  1  0  0  0  0
  4 10  1  0  0  0  0
  5 11  2  0  0  0  0
  5  6  1  0  0  0  0
  6  2  2  0  0  0  0
  7 17  2  0  0  0  0
  8  3  2  0  0  0  0
 11  1  1  0  0  0  0
 12 16  1  0  0  0  0
 13 19  1  0  0  0  0
 16 22  1  0  0  0  0
 16 15  2  0  0  0  0
 17  9  1  0  0  0  0
 17 10  1  0  0  0  0
 18  7  1  0  0  0  0
 18  4  2  0  0  0  0
 19 12  2  0  0  0  0
 20 21  1  0  0  0  0
 21 23  2  0  0  0  0
 22 25  2  0  0  0  0
 24 20  2  0  0  0  0
 24 22  1  0  0  0  0
 25 23  1  0  0  0  0
 26 20  1  0  0  0  0
 27  9  1  0  0  0  0
 29 27  1  6  0  0  0
 30 28  1  1  0  0  0
 30 29  1  0  0  0  0
 31 34  1  0  0  0  0
 31 32  1  0  0  0  0
 32 33  1  0  0  0  0
 33 29  1  0  0  0  0
 34 30  1  0  0  0  0
M  END
>  <MODEL>
1

>  <REMARK>
 VINA RESULT:      -9.4      0.000      0.000
  Name = 
  3 active torsions:
  status: ('A' for Active; 'I' for Inactive)
    1  A    between atoms: C_3  and  C_13
    2  A    between atoms: C_3  and  N_17
    3  A    between atoms: C_12  and  C_28
                            x       y       z     vdW  Elec       q    Type
                         _______ _______ _______ _____ _____    ______ ____

>  <TORSDO>
F 3

$$$$
=
 OpenBabel11052418443D

 34 39  0  0  1  0  0  0  0  0999 V2000
  188.9680  174.3110  141.4800 C   0  0  0  0  0  0  0  0  0  0  0  0
  191.3790  174.5570  141.6230 C   0  0  0  0  0  0  0  0  0  0  0  0
  189.8670  175.4690  143.4440 C   0  0  0  0  0  0  0  0  0  0  0  0
  190.5300  176.4140  145.5780 C   0  0  0  0  0  0  0  0  0  0  0  0
  190.3920  173.1980  139.8730 C   0  0  0  0  0  3  0  0  0  0  0  0
  191.5110  173.7430  140.4960 C   0  0  0  0  0  3  0  0  0  0  0  0
  192.0520  175.0580  144.5300 N   0  0  0  0  0  0  0  0  0  0  0  0
  190.0990  174.7680  142.2130 C   0  0  0  0  0  0  0  0  0  0  0  0
  194.0120  174.9230  145.9910 N   0  0  0  0  0  2  0  0  0  0  0  0
  191.8070  176.4150  146.6670 S   0  0  0  0  0  0  0  0  0  0  0  0
  189.1220  173.5070  140.3480 C   0  0  0  0  0  3  0  0  0  0  0  0
  188.5450  175.9400  143.7370 C   0  0  0  0  0  0  0  0  0  0  0  0
  187.6820  174.6890  141.8430 C   0  0  0  0  0  3  0  0  0  0  0  0
  192.5190  175.2220  142.0560 O   0  0  0  0  0  1  0  0  0  0  0  0
  189.3120  176.9540  145.7820 N   0  0  0  0  0  0  0  0  0  0  0  0
  188.3040  176.7500  144.8880 C   0  0  0  0  0  0  0  0  0  0  0  0
  192.7080  175.3970  145.6660 C   0  0  0  0  0  0  0  0  0  0  0  0
  190.8370  175.6600  144.4590 C   0  0  0  0  0  0  0  0  0  0  0  0
  187.4780  175.5180  142.9360 C   0  0  0  0  0  3  0  0  0  0  0  0
  185.3270  179.1200  144.8900 C   0  0  0  0  0  0  0  0  0  0  0  0
  184.5170  178.5330  145.8640 C   0  0  0  0  0  3  0  0  0  0  0  0
  186.9840  177.3630  145.1930 C   0  0  0  0  0  0  0  0  0  0  0  0
  184.9380  177.3690  146.5110 C   0  0  0  0  0  3  0  0  0  0  0  0
  186.5560  178.5420  144.5610 C   0  0  0  0  0  3  0  0  0  0  0  0
  186.1660  176.7910  146.1800 C   0  0  0  0  0  3  0  0  0  0  0  0
  184.9240  180.2530  144.2660 F   0  0  0  0  0  0  0  0  0  0  0  0
  194.7450  174.0400  145.0980 C   0  0  0  0  0  2  0  0  0  0  0  0
  197.1920  173.2550  146.4790 F   0  0  0  0  0  0  0  0  0  0  0  0
  194.9710  172.6930  145.7630 C   0  0  2  0  0  3  0  0  0  0  0  0
  196.4630  172.3210  145.7650 C   0  0  2  0  0  3  0  0  0  0  0  0
  196.0950  170.1100  145.4680 C   0  0  0  0  0  2  0  0  0  0  0  0
  194.5730  170.2310  145.4620 C   0  0  0  0  0  2  0  0  0  0  0  0
  194.1940  171.6310  144.9870 C   0  0  0  0  0  2  0  0  0  0  0  0
  196.6440  171.0550  146.3530 O   0  0  0  0  0  0  0  0  0  0  0  0
  1 13  2  0  0  0  0
  1  8  1  0  0  0  0
  2 14  1  0  0  0  0
  2  8  1  0  0  0  0
  3 12  1  0  0  0  0
  3 18  1  0  0  0  0
  4 15  1  0  0  0  0
  4 10  1  0  0  0  0
  5 11  2  0  0  0  0
  5  6  1  0  0  0  0
  6  2  2  0  0  0  0
  7 17  2  0  0  0  0
  8  3  2  0  0  0  0
 11  1  1  0  0  0  0
 12 16  1  0  0  0  0
 13 19  1  0  0  0  0
 16 22  1  0  0  0  0
 16 15  2  0  0  0  0
 17  9  1  0  0  0  0
 17 10  1  0  0  0  0
 18  7  1  0  0  0  0
 18  4  2  0  0  0  0
 19 12  2  0  0  0  0
 20 21  1  0  0  0  0
 21 23  2  0  0  0  0
 22 25  2  0  0  0  0
 24 20  2  0  0  0  0
 24 22  1  0  0  0  0
 25 23  1  0  0  0  0
 26 20  1  0  0  0  0
 27  9  1  0  0  0  0
 29 27  1  6  0  0  0
 29 30  1  0  0  0  0
 30 34  1  0  0  0  0
 30 28  1  1  0  0  0
 31 34  1  0  0  0  0
 32 31  1  0  0  0  0
 33 32  1  0  0  0  0
 33 29  1  0  0  0  0
M  END
>  <MODEL>
2

>  <REMARK>
 VINA RESULT:      -9.0      1.681      2.046
  Name = 
  3 active torsions:
  status: ('A' for Active; 'I' for Inactive)
    1  A    between atoms: C_3  and  C_13
    2  A    between atoms: C_3  and  N_17
    3  A    between atoms: C_12  and  C_28
                            x       y       z     vdW  Elec       q    Type
                         _______ _______ _______ _____ _____    ______ ____

>  <TORSDO>
F 3

$$$$
=
 OpenBabel11052418443D

 34 39  0  0  1  0  0  0  0  0999 V2000
  191.3400  176.2520  146.1300 C   0  0  0  0  0  0  0  0  0  0  0  0
  191.9970  174.2770  144.8800 C   0  0  0  0  0  0  0  0  0  0  0  0
  189.8560  175.5170  144.3220 C   0  0  0  0  0  0  0  0  0  0  0  0
  188.3770  175.1350  142.4380 C   0  0  0  0  0  0  0  0  0  0  0  0
  193.5100  175.2560  146.5040 C   0  0  0  0  0  3  0  0  0  0  0  0
  193.2160  174.2740  145.5630 C   0  0  0  0  0  3  0  0  0  0  0  0
  190.5260  174.3640  142.2380 N   0  0  0  0  0  0  0  0  0  0  0  0
  191.0700  175.3420  145.0690 C   0  0  0  0  0  0  0  0  0  0  0  0
  190.7170  173.3500  140.0180 N   0  0  0  0  0  2  0  0  0  0  0  0
  188.3670  174.4680  140.8980 S   0  0  0  0  0  0  0  0  0  0  0  0
  192.5600  176.2240  146.8070 C   0  0  0  0  0  3  0  0  0  0  0  0
  188.8390  176.3840  144.8420 C   0  0  0  0  0  0  0  0  0  0  0  0
  190.3790  177.1620  146.5510 C   0  0  0  0  0  3  0  0  0  0  0  0
  191.7010  173.1560  144.1170 O   0  0  0  0  0  1  0  0  0  0  0  0
  187.3840  175.8550  142.9980 N   0  0  0  0  0  0  0  0  0  0  0  0
  187.5710  176.4820  144.1930 C   0  0  0  0  0  0  0  0  0  0  0  0
  189.9860  174.0130  141.0460 C   0  0  0  0  0  0  0  0  0  0  0  0
  189.6100  174.9650  143.0410 C   0  0  0  0  0  0  0  0  0  0  0  0
  189.1360  177.2040  145.9360 C   0  0  0  0  0  3  0  0  0  0  0  0
  185.0760  179.2920  144.7920 C   0  0  0  0  0  0  0  0  0  0  0  0
  184.3310  178.7680  145.8510 C   0  0  0  0  0  3  0  0  0  0  0  0
  186.4350  177.2730  144.7360 C   0  0  0  0  0  0  0  0  0  0  0  0
  184.6380  177.5050  146.3610 C   0  0  0  0  0  3  0  0  0  0  0  0
  186.1260  178.5510  144.2430 C   0  0  0  0  0  3  0  0  0  0  0  0
  185.6870  176.7640  145.8100 C   0  0  0  0  0  3  0  0  0  0  0  0
  184.7840  180.5200  144.3010 F   0  0  0  0  0  0  0  0  0  0  0  0
  192.1130  172.9860  140.1910 C   0  0  0  0  0  2  0  0  0  0  0  0
  192.8180  174.2480  137.6570 F   0  0  0  0  0  0  0  0  0  0  0  0
  192.9970  174.2130  140.0500 C   0  0  2  0  0  3  0  0  0  0  0  0
  193.7280  174.2160  138.6980 C   0  0  2  0  0  3  0  0  0  0  0  0
  195.6170  175.1490  139.5200 C   0  0  0  0  0  2  0  0  0  0  0  0
  195.0890  175.2760  140.9470 C   0  0  0  0  0  2  0  0  0  0  0  0
  194.0300  174.2020  141.1760 C   0  0  0  0  0  2  0  0  0  0  0  0
  194.5670  175.3430  138.6050 O   0  0  0  0  0  0  0  0  0  0  0  0
  1 13  1  0  0  0  0
  1 11  2  0  0  0  0
  2  8  2  0  0  0  0
  2  6  1  0  0  0  0
  3 12  1  0  0  0  0
  3  8  1  0  0  0  0
  4 15  2  0  0  0  0
  4 18  1  0  0  0  0
  5 11  1  0  0  0  0
  6  5  2  0  0  0  0
  7 18  1  0  0  0  0
  8  1  1  0  0  0  0
  9 27  1  0  0  0  0
  9 17  1  0  0  0  0
 10 17  1  0  0  0  0
 10  4  1  0  0  0  0
 12 19  1  0  0  0  0
 14  2  1  0  0  0  0
 15 16  1  0  0  0  0
 16 22  1  0  0  0  0
 16 12  2  0  0  0  0
 17  7  2  0  0  0  0
 18  3  2  0  0  0  0
 19 13  2  0  0  0  0
 20 21  1  0  0  0  0
 21 23  2  0  0  0  0
 22 25  2  0  0  0  0
 24 22  1  0  0  0  0
 24 20  2  0  0  0  0
 25 23  1  0  0  0  0
 26 20  1  0  0  0  0
 29 27  1  6  0  0  0
 29 33  1  0  0  0  0
 30 28  1  6  0  0  0
 30 29  1  0  0  0  0
 31 32  1  0  0  0  0
 32 33  1  0  0  0  0
 34 30  1  0  0  0  0
 34 31  1  0  0  0  0
M  END
>  <MODEL>
3

>  <REMARK>
 VINA RESULT:      -8.8      2.838      4.479
  Name = 
  3 active torsions:
  status: ('A' for Active; 'I' for Inactive)
    1  A    between atoms: C_3  and  C_13
    2  A    between atoms: C_3  and  N_17
    3  A    between atoms: C_12  and  C_28
                            x       y       z     vdW  Elec       q    Type
                         _______ _______ _______ _____ _____    ______ ____

>  <TORSDO>
F 3

$$$$
=
 OpenBabel11052418443D

 34 39  0  0  1  0  0  0  0  0999 V2000
  191.3850  176.1820  146.1030 C   0  0  0  0  0  0  0  0  0  0  0  0
  191.9290  174.0820  145.0140 C   0  0  0  0  0  0  0  0  0  0  0  0
  189.8250  175.3590  144.4000 C   0  0  0  0  0  0  0  0  0  0  0  0
  188.2820  174.8800  142.5910 C   0  0  0  0  0  0  0  0  0  0  0  0
  193.5230  175.1310  146.5120 C   0  0  0  0  0  3  0  0  0  0  0  0
  193.1650  174.0850  145.6660 C   0  0  0  0  0  3  0  0  0  0  0  0
  190.3930  174.0050  142.4090 N   0  0  0  0  0  0  0  0  0  0  0  0
  191.0500  175.1980  145.1310 C   0  0  0  0  0  0  0  0  0  0  0  0
  190.4840  172.7990  140.2810 N   0  0  0  0  0  2  0  0  0  0  0  0
  188.2050  174.0860  141.1150 S   0  0  0  0  0  0  0  0  0  0  0  0
  192.6210  176.1610  146.7520 C   0  0  0  0  0  3  0  0  0  0  0  0
  188.8590  176.3100  144.8670 C   0  0  0  0  0  0  0  0  0  0  0  0
  190.4730  177.1660  146.4660 C   0  0  0  0  0  3  0  0  0  0  0  0
  191.5680  172.9140  144.3570 O   0  0  0  0  0  1  0  0  0  0  0  0
  187.3340  175.6870  143.1090 N   0  0  0  0  0  0  0  0  0  0  0  0
  187.5780  176.4060  144.2410 C   0  0  0  0  0  0  0  0  0  0  0  0
  189.8070  173.5770  141.2650 C   0  0  0  0  0  0  0  0  0  0  0  0
  189.5230  174.7110  143.1780 C   0  0  0  0  0  0  0  0  0  0  0  0
  189.2170  177.2070  145.8790 C   0  0  0  0  0  3  0  0  0  0  0  0
  185.3050  179.4140  144.7540 C   0  0  0  0  0  0  0  0  0  0  0  0
  184.4710  178.9500  145.7730 C   0  0  0  0  0  3  0  0  0  0  0  0
  186.4900  177.2870  144.7400 C   0  0  0  0  0  0  0  0  0  0  0  0
  184.6470  177.6620  146.2850 C   0  0  0  0  0  3  0  0  0  0  0  0
  186.3130  178.5900  144.2450 C   0  0  0  0  0  3  0  0  0  0  0  0
  185.6540  176.8380  145.7740 C   0  0  0  0  0  3  0  0  0  0  0  0
  185.1410  180.6650  144.2610 F   0  0  0  0  0  0  0  0  0  0  0  0
  191.8680  172.3910  140.4520 C   0  0  0  0  0  2  0  0  0  0  0  0
  191.8590  170.8140  137.9990 F   0  0  0  0  0  0  0  0  0  0  0  0
  191.9800  170.8770  140.3950 C   0  0  2  0  0  3  0  0  0  0  0  0
  191.2730  170.3180  139.1490 C   0  0  2  0  0  3  0  0  0  0  0  0
  190.5480  168.4430  140.1830 C   0  0  0  0  0  2  0  0  0  0  0  0
  191.1930  168.7770  141.5260 C   0  0  0  0  0  2  0  0  0  0  0  0
  191.3240  170.2920  141.6440 C   0  0  0  0  0  2  0  0  0  0  0  0
  191.3590  168.9130  139.1350 O   0  0  0  0  0  0  0  0  0  0  0  0
  1 13  1  0  0  0  0
  1 11  2  0  0  0  0
  2  8  2  0  0  0  0
  2  6  1  0  0  0  0
  3 12  1  0  0  0  0
  3  8  1  0  0  0  0
  4 15  2  0  0  0  0
  4 18  1  0  0  0  0
  5 11  1  0  0  0  0
  6  5  2  0  0  0  0
  7 18  1  0  0  0  0
  8  1  1  0  0  0  0
  9 27  1  0  0  0  0
  9 17  1  0  0  0  0
 10 17  1  0  0  0  0
 10  4  1  0  0  0  0
 12 19  1  0  0  0  0
 14  2  1  0  0  0  0
 15 16  1  0  0  0  0
 16 22  1  0  0  0  0
 16 12  2  0  0  0  0
 17  7  2  0  0  0  0
 18  3  2  0  0  0  0
 19 13  2  0  0  0  0
 20 21  1  0  0  0  0
 21 23  2  0  0  0  0
 22 25  2  0  0  0  0
 24 22  1  0  0  0  0
 24 20  2  0  0  0  0
 25 23  1  0  0  0  0
 26 20  1  0  0  0  0
 29 27  1  1  0  0  0
 29 33  1  0  0  0  0
 30 28  1  6  0  0  0
 30 29  1  0  0  0  0
 31 32  1  0  0  0  0
 32 33  1  0  0  0  0
 34 30  1  0  0  0  0
 34 31  1  0  0  0  0
M  END
>  <MODEL>
4

>  <REMARK>
 VINA RESULT:      -8.6      3.179      5.432
  Name = 
  3 active torsions:
  status: ('A' for Active; 'I' for Inactive)
    1  A    between atoms: C_3  and  C_13
    2  A    between atoms: C_3  and  N_17
    3  A    between atoms: C_12  and  C_28
                            x       y       z     vdW  Elec       q    Type
                         _______ _______ _______ _____ _____    ______ ____

>  <TORSDO>
F 3

$$$$
=
 OpenBabel11052418443D

 34 39  0  0  1  0  0  0  0  0999 V2000
  191.1910  176.1650  146.0230 C   0  0  0  0  0  0  0  0  0  0  0  0
  191.7090  174.1110  144.8360 C   0  0  0  0  0  0  0  0  0  0  0  0
  189.7030  175.5200  144.1850 C   0  0  0  0  0  0  0  0  0  0  0  0
  188.2520  175.2230  142.2640 C   0  0  0  0  0  0  0  0  0  0  0  0
  193.2540  174.9920  146.4860 C   0  0  0  0  0  3  0  0  0  0  0  0
  192.9030  174.0170  145.5570 C   0  0  0  0  0  3  0  0  0  0  0  0
  190.3300  174.2630  142.1480 N   0  0  0  0  0  0  0  0  0  0  0  0
  190.8740  175.2580  144.9730 C   0  0  0  0  0  0  0  0  0  0  0  0
  190.4970  173.1850  139.9570 N   0  0  0  0  0  2  0  0  0  0  0  0
  188.2290  174.5230  140.7390 S   0  0  0  0  0  0  0  0  0  0  0  0
  192.3850  176.0470  146.7390 C   0  0  0  0  0  3  0  0  0  0  0  0
  188.7520  176.4840  144.6550 C   0  0  0  0  0  0  0  0  0  0  0  0
  190.3020  177.1660  146.3950 C   0  0  0  0  0  3  0  0  0  0  0  0
  191.3380  173.0030  144.0880 O   0  0  0  0  0  1  0  0  0  0  0  0
  187.3100  176.0410  142.7770 N   0  0  0  0  0  0  0  0  0  0  0  0
  187.5160  176.6770  143.9640 C   0  0  0  0  0  0  0  0  0  0  0  0
  189.7960  173.9330  140.9480 C   0  0  0  0  0  0  0  0  0  0  0  0
  189.4470  174.9610  142.9090 C   0  0  0  0  0  0  0  0  0  0  0  0
  189.0870  177.3000  145.7400 C   0  0  0  0  0  3  0  0  0  0  0  0
  184.5310  178.0320  145.8960 C   0  0  0  0  0  0  0  0  0  0  0  0
  184.3630  179.2790  145.2910 C   0  0  0  0  0  3  0  0  0  0  0  0
  186.4390  177.5770  144.4540 C   0  0  0  0  0  0  0  0  0  0  0  0
  185.2210  179.6760  144.2630 C   0  0  0  0  0  3  0  0  0  0  0  0
  185.5590  177.1830  145.4760 C   0  0  0  0  0  3  0  0  0  0  0  0
  186.2500  178.8270  143.8450 C   0  0  0  0  0  3  0  0  0  0  0  0
  183.6940  177.6420  146.8880 F   0  0  0  0  0  0  0  0  0  0  0  0
  191.8500  172.7040  140.1810 C   0  0  0  0  0  2  0  0  0  0  0  0
  191.9870  171.4630  137.5450 F   0  0  0  0  0  0  0  0  0  0  0  0
  191.9220  171.2070  139.9300 C   0  0  2  0  0  3  0  0  0  0  0  0
  191.2990  170.8440  138.5720 C   0  0  2  0  0  3  0  0  0  0  0  0
  190.4410  168.8790  139.2900 C   0  0  0  0  0  2  0  0  0  0  0  0
  190.9890  169.0090  140.7090 C   0  0  0  0  0  2  0  0  0  0  0  0
  191.1530  170.4890  141.0380 C   0  0  0  0  0  2  0  0  0  0  0  0
  191.3450  169.4500  138.3770 O   0  0  0  0  0  0  0  0  0  0  0  0
  1 13  1  0  0  0  0
  1 11  2  0  0  0  0
  2  8  2  0  0  0  0
  2  6  1  0  0  0  0
  3 12  1  0  0  0  0
  3  8  1  0  0  0  0
  4 15  2  0  0  0  0
  4 18  1  0  0  0  0
  5 11  1  0  0  0  0
  6  5  2  0  0  0  0
  7 18  1  0  0  0  0
  8  1  1  0  0  0  0
  9 27  1  0  0  0  0
  9 17  1  0  0  0  0
 10 17  1  0  0  0  0
 10  4  1  0  0  0  0
 12 19  1  0  0  0  0
 14  2  1  0  0  0  0
 15 16  1  0  0  0  0
 16 22  1  0  0  0  0
 16 12  2  0  0  0  0
 17  7  2  0  0  0  0
 18  3  2  0  0  0  0
 19 13  2  0  0  0  0
 20 26  1  0  0  0  0
 21 20  2  0  0  0  0
 22 24  2  0  0  0  0
 23 21  1  0  0  0  0
 24 20  1  0  0  0  0
 25 23  2  0  0  0  0
 25 22  1  0  0  0  0
 29 27  1  1  0  0  0
 29 33  1  0  0  0  0
 30 28  1  6  0  0  0
 30 29  1  0  0  0  0
 31 32  1  0  0  0  0
 32 33  1  0  0  0  0
 34 30  1  0  0  0  0
 34 31  1  0  0  0  0
M  END
>  <MODEL>
5

>  <REMARK>
 VINA RESULT:      -8.6      3.231      5.584
  Name = 
  3 active torsions:
  status: ('A' for Active; 'I' for Inactive)
    1  A    between atoms: C_3  and  C_13
    2  A    between atoms: C_3  and  N_17
    3  A    between atoms: C_12  and  C_28
                            x       y       z     vdW  Elec       q    Type
                         _______ _______ _______ _____ _____    ______ ____

>  <TORSDO>
F 3

$$$$
=
 OpenBabel11052418443D

 34 39  0  0  1  0  0  0  0  0999 V2000
  191.4790  176.2190  146.1170 C   0  0  0  0  0  0  0  0  0  0  0  0
  192.1020  174.2150  144.8960 C   0  0  0  0  0  0  0  0  0  0  0  0
  189.9700  175.4710  144.3360 C   0  0  0  0  0  0  0  0  0  0  0  0
  188.4690  175.0730  142.4720 C   0  0  0  0  0  0  0  0  0  0  0  0
  193.6410  175.2040  146.4890 C   0  0  0  0  0  3  0  0  0  0  0  0
  193.3270  174.2090  145.5670 C   0  0  0  0  0  3  0  0  0  0  0  0
  190.6070  174.2730  142.2670 N   0  0  0  0  0  0  0  0  0  0  0  0
  191.1890  175.2950  145.0750 C   0  0  0  0  0  0  0  0  0  0  0  0
  190.7650  173.2190  140.0630 N   0  0  0  0  0  2  0  0  0  0  0  0
  188.4370  174.3800  140.9450 S   0  0  0  0  0  0  0  0  0  0  0  0
  192.7060  176.1890  146.7830 C   0  0  0  0  0  3  0  0  0  0  0  0
  188.9690  176.3590  144.8500 C   0  0  0  0  0  0  0  0  0  0  0  0
  190.5330  177.1490  146.5310 C   0  0  0  0  0  3  0  0  0  0  0  0
  191.7850  173.0850  144.1550 O   0  0  0  0  0  1  0  0  0  0  0  0
  187.4900  175.8150  143.0280 N   0  0  0  0  0  0  0  0  0  0  0  0
  187.6950  176.4610  144.2110 C   0  0  0  0  0  0  0  0  0  0  0  0
  190.0510  173.9080  141.0860 C   0  0  0  0  0  0  0  0  0  0  0  0
  189.7060  174.8990  143.0670 C   0  0  0  0  0  0  0  0  0  0  0  0
  189.2860  177.1940  145.9260 C   0  0  0  0  0  3  0  0  0  0  0  0
  185.2360  179.3080  144.7790 C   0  0  0  0  0  0  0  0  0  0  0  0
  184.4990  178.8150  145.8570 C   0  0  0  0  0  3  0  0  0  0  0  0
  186.5750  177.2750  144.7500 C   0  0  0  0  0  0  0  0  0  0  0  0
  184.8000  177.5600  146.3910 C   0  0  0  0  0  3  0  0  0  0  0  0
  186.2720  178.5450  144.2330 C   0  0  0  0  0  3  0  0  0  0  0  0
  185.8350  176.7970  145.8430 C   0  0  0  0  0  3  0  0  0  0  0  0
  184.9510  180.5280  144.2650 F   0  0  0  0  0  0  0  0  0  0  0  0
  192.1590  172.8400  140.2290 C   0  0  0  0  0  2  0  0  0  0  0  0
  194.5840  174.4590  140.2940 F   0  0  0  0  0  0  0  0  0  0  0  0
  192.9620  173.2470  139.0060 C   0  0  2  0  0  3  0  0  0  0  0  0
  193.6940  174.5790  139.2430 C   0  0  2  0  0  3  0  0  0  0  0  0
  193.4460  175.3000  137.1140 C   0  0  0  0  0  2  0  0  0  0  0  0
  192.7180  174.0450  136.6370 C   0  0  0  0  0  2  0  0  0  0  0  0
  192.0050  173.4080  137.8260 C   0  0  0  0  0  2  0  0  0  0  0  0
  194.4020  174.9530  138.0860 O   0  0  0  0  0  0  0  0  0  0  0  0
  1 13  1  0  0  0  0
  1 11  2  0  0  0  0
  2  8  2  0  0  0  0
  2  6  1  0  0  0  0
  3 12  1  0  0  0  0
  3  8  1  0  0  0  0
  4 15  2  0  0  0  0
  4 18  1  0  0  0  0
  5 11  1  0  0  0  0
  6  5  2  0  0  0  0
  7 18  1  0  0  0  0
  8  1  1  0  0  0  0
  9 27  1  0  0  0  0
  9 17  1  0  0  0  0
 10 17  1  0  0  0  0
 10  4  1  0  0  0  0
 12 19  1  0  0  0  0
 14  2  1  0  0  0  0
 15 16  1  0  0  0  0
 16 22  1  0  0  0  0
 16 12  2  0  0  0  0
 17  7  2  0  0  0  0
 18  3  2  0  0  0  0
 19 13  2  0  0  0  0
 20 21  1  0  0  0  0
 21 23  2  0  0  0  0
 22 25  2  0  0  0  0
 24 22  1  0  0  0  0
 24 20  2  0  0  0  0
 25 23  1  0  0  0  0
 26 20  1  0  0  0  0
 29 30  1  0  0  0  0
 29 27  1  1  0  0  0
 30 28  1  1  0  0  0
 31 34  1  0  0  0  0
 32 31  1  0  0  0  0
 32 33  1  0  0  0  0
 33 29  1  0  0  0  0
 34 30  1  0  0  0  0
M  END
>  <MODEL>
6

>  <REMARK>
 VINA RESULT:      -8.6      2.709      4.931
  Name = 
  3 active torsions:
  status: ('A' for Active; 'I' for Inactive)
    1  A    between atoms: C_3  and  C_13
    2  A    between atoms: C_3  and  N_17
    3  A    between atoms: C_12  and  C_28
                            x       y       z     vdW  Elec       q    Type
                         _______ _______ _______ _____ _____    ______ ____

>  <TORSDO>
F 3

$$$$
=
 OpenBabel11052418443D

 34 39  0  0  1  0  0  0  0  0999 V2000
  191.5180  173.4660  140.8370 C   0  0  0  0  0  0  0  0  0  0  0  0
  189.3250  174.1350  141.6360 C   0  0  0  0  0  0  0  0  0  0  0  0
  191.3840  174.4280  143.0880 C   0  0  0  0  0  0  0  0  0  0  0  0
  191.5360  175.5750  145.2190 C   0  0  0  0  0  0  0  0  0  0  0  0
  189.6240  173.4270  139.3350 C   0  0  0  0  0  3  0  0  0  0  0  0
  188.8020  173.8690  140.3670 C   0  0  0  0  0  3  0  0  0  0  0  0
  189.7600  176.1200  143.8770 N   0  0  0  0  0  0  0  0  0  0  0  0
  190.7280  174.0470  141.8690 C   0  0  0  0  0  0  0  0  0  0  0  0
  188.4790  177.8430  145.0530 N   0  0  0  0  0  2  0  0  0  0  0  0
  190.7510  176.7400  146.1360 S   0  0  0  0  0  0  0  0  0  0  0  0
  190.9730  173.1980  139.5790 C   0  0  0  0  0  3  0  0  0  0  0  0
  192.7120  173.9510  143.3390 C   0  0  0  0  0  0  0  0  0  0  0  0
  192.8400  173.1080  141.0650 C   0  0  0  0  0  3  0  0  0  0  0  0
  188.4130  174.3710  142.6550 O   0  0  0  0  0  1  0  0  0  0  0  0
  192.7340  175.0210  145.4970 N   0  0  0  0  0  0  0  0  0  0  0  0
  193.3460  174.2030  144.5950 C   0  0  0  0  0  0  0  0  0  0  0  0
  189.5630  176.9230  144.9500 C   0  0  0  0  0  0  0  0  0  0  0  0
  190.8530  175.3300  144.0420 C   0  0  0  0  0  0  0  0  0  0  0  0
  193.4170  173.3190  142.3090 C   0  0  0  0  0  3  0  0  0  0  0  0
  196.0750  171.8230  145.7640 C   0  0  0  0  0  0  0  0  0  0  0  0
  197.1910  172.6620  145.7380 C   0  0  0  0  0  3  0  0  0  0  0  0
  194.6730  173.6470  144.9650 C   0  0  0  0  0  0  0  0  0  0  0  0
  197.0540  173.9930  145.3380 C   0  0  0  0  0  3  0  0  0  0  0  0
  194.8230  172.3150  145.3850 C   0  0  0  0  0  3  0  0  0  0  0  0
  195.8010  174.4830  144.9580 C   0  0  0  0  0  3  0  0  0  0  0  0
  196.2050  170.5340  146.1590 F   0  0  0  0  0  0  0  0  0  0  0  0
  187.4850  177.9690  144.0000 C   0  0  0  0  0  2  0  0  0  0  0  0
  185.5020  180.1070  144.0620 F   0  0  0  0  0  0  0  0  0  0  0  0
  186.0870  177.8380  144.5810 C   0  0  2  0  0  3  0  0  0  0  0  0
  185.5750  179.1930  145.0970 C   0  0  2  0  0  3  0  0  0  0  0  0
  184.4550  178.3030  146.8480 C   0  0  0  0  0  2  0  0  0  0  0  0
  184.8160  176.8580  146.5120 C   0  0  0  0  0  2  0  0  0  0  0  0
  186.1330  176.8470  145.7430 C   0  0  0  0  0  2  0  0  0  0  0  0
  184.2940  179.0410  145.6620 O   0  0  0  0  0  0  0  0  0  0  0  0
  1 13  2  0  0  0  0
  1  8  1  0  0  0  0
  2  8  1  0  0  0  0
  2 14  1  0  0  0  0
  3 12  1  0  0  0  0
  3 18  1  0  0  0  0
  4 15  1  0  0  0  0
  4 10  1  0  0  0  0
  5 11  2  0  0  0  0
  5  6  1  0  0  0  0
  6  2  2  0  0  0  0
  7 18  1  0  0  0  0
  7 17  2  0  0  0  0
  8  3  2  0  0  0  0
 11  1  1  0  0  0  0
 12 16  1  0  0  0  0
 13 19  1  0  0  0  0
 16 22  1  0  0  0  0
 16 15  2  0  0  0  0
 17  9  1  0  0  0  0
 17 10  1  0  0  0  0
 18  4  2  0  0  0  0
 19 12  2  0  0  0  0
 20 26  1  0  0  0  0
 21 20  1  0  0  0  0
 22 24  1  0  0  0  0
 23 21  2  0  0  0  0
 24 20  2  0  0  0  0
 25 22  2  0  0  0  0
 25 23  1  0  0  0  0
 27  9  1  0  0  0  0
 29 27  1  1  0  0  0
 29 30  1  0  0  0  0
 29 33  1  0  0  0  0
 30 28  1  6  0  0  0
 30 34  1  0  0  0  0
 32 31  1  0  0  0  0
 33 32  1  0  0  0  0
 34 31  1  0  0  0  0
M  END
>  <MODEL>
7

>  <REMARK>
 VINA RESULT:      -8.4      2.397      8.437
  Name = 
  3 active torsions:
  status: ('A' for Active; 'I' for Inactive)
    1  A    between atoms: C_3  and  C_13
    2  A    between atoms: C_3  and  N_17
    3  A    between atoms: C_12  and  C_28
                            x       y       z     vdW  Elec       q    Type
                         _______ _______ _______ _____ _____    ______ ____

>  <TORSDO>
F 3

$$$$
=
 OpenBabel11052418443D

 34 39  0  0  1  0  0  0  0  0999 V2000
  190.7780  174.7910  145.8290 C   0  0  0  0  0  0  0  0  0  0  0  0
  190.0640  177.0780  145.4380 C   0  0  0  0  0  0  0  0  0  0  0  0
  189.7690  175.3000  143.6540 C   0  0  0  0  0  0  0  0  0  0  0  0
  188.5820  175.5040  141.5480 C   0  0  0  0  0  0  0  0  0  0  0  0
  190.8220  176.3930  147.6380 C   0  0  0  0  0  3  0  0  0  0  0  0
  190.3480  177.3760  146.7730 C   0  0  0  0  0  3  0  0  0  0  0  0
  188.0410  177.0080  143.1900 N   0  0  0  0  0  0  0  0  0  0  0  0
  190.1660  175.7390  144.9620 C   0  0  0  0  0  0  0  0  0  0  0  0
  186.2780  178.4470  142.2870 N   0  0  0  0  0  2  0  0  0  0  0  0
  187.3880  176.4180  140.8040 S   0  0  0  0  0  0  0  0  0  0  0  0
  191.0640  175.1120  147.1580 C   0  0  0  0  0  3  0  0  0  0  0  0
  190.2590  174.0440  143.1650 C   0  0  0  0  0  0  0  0  0  0  0  0
  191.1480  173.5340  145.3660 C   0  0  0  0  0  3  0  0  0  0  0  0
  189.7960  178.1500  144.5980 O   0  0  0  0  0  1  0  0  0  0  0  0
  189.1460  174.3820  141.0560 N   0  0  0  0  0  0  0  0  0  0  0  0
  189.9890  173.6350  141.8230 C   0  0  0  0  0  0  0  0  0  0  0  0
  187.2140  177.3770  142.1820 C   0  0  0  0  0  0  0  0  0  0  0  0
  188.8410  175.9740  142.8230 C   0  0  0  0  0  0  0  0  0  0  0  0
  190.9200  173.1800  144.0450 C   0  0  0  0  0  3  0  0  0  0  0  0
  190.8150  169.9820  141.1490 C   0  0  0  0  0  0  0  0  0  0  0  0
  191.7170  170.1020  140.0900 C   0  0  0  0  0  3  0  0  0  0  0  0
  190.5560  172.4020  141.2160 C   0  0  0  0  0  0  0  0  0  0  0  0
  192.0490  171.3660  139.5960 C   0  0  0  0  0  3  0  0  0  0  0  0
  190.2430  171.1260  141.7130 C   0  0  0  0  0  3  0  0  0  0  0  0
  191.4750  172.5090  140.1600 C   0  0  0  0  0  3  0  0  0  0  0  0
  190.4980  168.7580  141.6340 F   0  0  0  0  0  0  0  0  0  0  0  0
  186.1600  179.2390  143.4990 C   0  0  0  0  0  2  0  0  0  0  0  0
  183.3050  179.1040  144.0800 F   0  0  0  0  0  0  0  0  0  0  0  0
  185.5400  178.4090  144.6100 C   0  0  2  0  0  3  0  0  0  0  0  0
  184.2290  179.0410  145.1060 C   0  0  2  0  0  3  0  0  0  0  0  0
  184.5460  178.4370  147.2620 C   0  0  0  0  0  2  0  0  0  0  0  0
  185.8680  177.7180  147.0020 C   0  0  0  0  0  2  0  0  0  0  0  0
  186.5280  178.3330  145.7720 C   0  0  0  0  0  2  0  0  0  0  0  0
  183.6920  178.2740  146.1580 O   0  0  0  0  0  0  0  0  0  0  0  0
  1 11  2  0  0  0  0
  2  6  1  0  0  0  0
  3  8  1  0  0  0  0
  4 18  1  0  0  0  0
  6  5  2  0  0  0  0
  8  2  2  0  0  0  0
  8  1  1  0  0  0  0
  9 27  1  0  0  0  0
 10  4  1  0  0  0  0
 10 17  1  0  0  0  0
 11  5  1  0  0  0  0
 12  3  1  0  0  0  0
 12 19  1  0  0  0  0
 13  1  1  0  0  0  0
 14  2  1  0  0  0  0
 15  4  2  0  0  0  0
 15 16  1  0  0  0  0
 16 12  2  0  0  0  0
 17  9  1  0  0  0  0
 17  7  2  0  0  0  0
 18  7  1  0  0  0  0
 18  3  2  0  0  0  0
 19 13  2  0  0  0  0
 20 26  1  0  0  0  0
 20 24  1  0  0  0  0
 21 20  2  0  0  0  0
 22 24  2  0  0  0  0
 22 16  1  0  0  0  0
 23 21  1  0  0  0  0
 23 25  2  0  0  0  0
 25 22  1  0  0  0  0
 29 27  1  6  0  0  0
 29 30  1  0  0  0  0
 29 33  1  0  0  0  0
 30 28  1  6  0  0  0
 30 34  1  0  0  0  0
 32 31  1  0  0  0  0
 33 32  1  0  0  0  0
 34 31  1  0  0  0  0
M  END
>  <MODEL>
8

>  <REMARK>
 VINA RESULT:      -8.1      3.835      8.731
  Name = 
  3 active torsions:
  status: ('A' for Active; 'I' for Inactive)
    1  A    between atoms: C_3  and  C_13
    2  A    between atoms: C_3  and  N_17
    3  A    between atoms: C_12  and  C_28
                            x       y       z     vdW  Elec       q    Type
                         _______ _______ _______ _____ _____    ______ ____

>  <TORSDO>
F 3

$$$$
=
 OpenBabel11052418443D

 34 39  0  0  1  0  0  0  0  0999 V2000
  186.1510  177.4200  143.5930 C   0  0  0  0  0  0  0  0  0  0  0  0
  186.4750  177.3330  141.1880 C   0  0  0  0  0  0  0  0  0  0  0  0
  188.1470  176.2610  142.7660 C   0  0  0  0  0  0  0  0  0  0  0  0
  190.0380  174.8590  142.1830 C   0  0  0  0  0  0  0  0  0  0  0  0
  184.4100  178.2080  142.1130 C   0  0  0  0  0  3  0  0  0  0  0  0
  185.2100  177.9000  141.0160 C   0  0  0  0  0  3  0  0  0  0  0  0
  188.3650  175.0390  140.6260 N   0  0  0  0  0  0  0  0  0  0  0  0
  186.9310  176.9720  142.4900 C   0  0  0  0  0  0  0  0  0  0  0  0
  189.0060  173.6360  138.7250 N   0  0  0  0  0  2  0  0  0  0  0  0
  190.6010  173.8700  140.9500 S   0  0  0  0  0  0  0  0  0  0  0  0
  184.8940  177.9950  143.3980 C   0  0  0  0  0  3  0  0  0  0  0  0
  188.6790  176.2880  144.0980 C   0  0  0  0  0  0  0  0  0  0  0  0
  186.6390  177.3380  144.8910 C   0  0  0  0  0  3  0  0  0  0  0  0
  187.2850  177.2490  140.0640 O   0  0  0  0  0  1  0  0  0  0  0  0
  190.5890  174.9930  143.4070 N   0  0  0  0  0  0  0  0  0  0  0  0
  189.9510  175.7020  144.3800 C   0  0  0  0  0  0  0  0  0  0  0  0
  189.2350  174.1990  140.0140 C   0  0  0  0  0  0  0  0  0  0  0  0
  188.8330  175.4420  141.8370 C   0  0  0  0  0  0  0  0  0  0  0  0
  187.8980  176.8100  145.1340 C   0  0  0  0  0  3  0  0  0  0  0  0
  192.4790  176.4540  147.1220 C   0  0  0  0  0  0  0  0  0  0  0  0
  191.8660  175.8550  148.2250 C   0  0  0  0  0  3  0  0  0  0  0  0
  190.6120  175.7890  145.7080 C   0  0  0  0  0  0  0  0  0  0  0  0
  190.6340  175.2140  148.0740 C   0  0  0  0  0  3  0  0  0  0  0  0
  191.8590  176.4160  145.8710 C   0  0  0  0  0  3  0  0  0  0  0  0
  190.0140  175.1780  146.8220 C   0  0  0  0  0  3  0  0  0  0  0  0
  193.6770  177.0700  147.2650 F   0  0  0  0  0  0  0  0  0  0  0  0
  187.8090  173.9450  137.9610 C   0  0  0  0  0  2  0  0  0  0  0  0
  185.8520  176.0560  137.4950 F   0  0  0  0  0  0  0  0  0  0  0  0
  188.0440  175.1670  137.0910 C   0  0  2  0  0  3  0  0  0  0  0  0
  186.7250  175.6800  136.4910 C   0  0  2  0  0  3  0  0  0  0  0  0
  187.6550  176.3120  134.5290 C   0  0  0  0  0  2  0  0  0  0  0  0
  189.0730  175.9000  134.9190 C   0  0  0  0  0  2  0  0  0  0  0  0
  188.9910  174.7830  135.9550 C   0  0  0  0  0  2  0  0  0  0  0  0
  186.9710  176.7900  135.6610 O   0  0  0  0  0  0  0  0  0  0  0  0
  1 13  1  0  0  0  0
  2  8  1  0  0  0  0
  3 12  1  0  0  0  0
  4 15  2  0  0  0  0
  5 11  2  0  0  0  0
  6  2  2  0  0  0  0
  6  5  1  0  0  0  0
  7 18  1  0  0  0  0
  8  3  1  0  0  0  0
  8  1  2  0  0  0  0
  9 17  1  0  0  0  0
 10  4  1  0  0  0  0
 11  1  1  0  0  0  0
 12 16  2  0  0  0  0
 12 19  1  0  0  0  0
 13 19  2  0  0  0  0
 14  2  1  0  0  0  0
 15 16  1  0  0  0  0
 16 22  1  0  0  0  0
 17  7  2  0  0  0  0
 17 10  1  0  0  0  0
 18  4  1  0  0  0  0
 18  3  2  0  0  0  0
 20 26  1  0  0  0  0
 20 21  1  0  0  0  0
 22 24  1  0  0  0  0
 22 25  2  0  0  0  0
 23 21  2  0  0  0  0
 24 20  2  0  0  0  0
 25 23  1  0  0  0  0
 27  9  1  0  0  0  0
 29 27  1  1  0  0  0
 30 29  1  0  0  0  0
 30 28  1  1  0  0  0
 31 32  1  0  0  0  0
 31 34  1  0  0  0  0
 32 33  1  0  0  0  0
 33 29  1  0  0  0  0
 34 30  1  0  0  0  0
M  END
>  <MODEL>
9

>  <REMARK>
 VINA RESULT:      -8.0      3.929      7.791
  Name = 
  3 active torsions:
  status: ('A' for Active; 'I' for Inactive)
    1  A    between atoms: C_3  and  C_13
    2  A    between atoms: C_3  and  N_17
    3  A    between atoms: C_12  and  C_28
                            x       y       z     vdW  Elec       q    Type
                         _______ _______ _______ _____ _____    ______ ____

>  <TORSDO>
F 3

$$$$
