=
 OpenBabel11052418553D

 34 40  0  0  1  0  0  0  0  0999 V2000
  189.4300  174.4960  141.5360 C   0  0  0  0  0  0  0  0  0  0  0  0
  191.5360  174.2500  142.7130 C   0  0  0  0  0  0  0  0  0  0  0  0
  189.6860  175.3870  143.7630 C   0  0  0  0  0  0  0  0  0  0  0  0
  190.0610  176.1880  145.9330 C   0  0  0  0  0  0  0  0  0  0  0  0
  191.2630  173.3830  140.5280 C   0  0  0  0  0  3  0  0  0  0  0  0
  192.0350  173.5910  141.6360 N   0  0  0  0  0  0  0  0  0  0  0  0
  191.7230  175.1560  144.9100 N   0  0  0  0  0  0  0  0  0  0  0  0
  190.2120  174.7150  142.6710 C   0  0  0  0  0  0  0  0  0  0  0  0
  191.1420  176.2250  146.9610 C   0  0  0  0  0  2  0  0  0  0  0  0
  189.9730  173.8330  140.4820 N   0  0  0  0  0  0  0  0  0  0  0  0
  188.3680  175.8610  143.7780 C   0  0  0  0  0  0  0  0  0  0  0  0
  188.1040  174.9630  141.5170 C   0  0  0  0  0  3  0  0  0  0  0  0
  192.3050  174.4780  143.8740 C   0  0  0  0  0  3  0  0  0  0  0  0
  188.7920  176.6720  146.0210 N   0  0  0  0  0  0  0  0  0  0  0  0
  187.9280  176.5260  144.9620 C   0  0  0  0  0  0  0  0  0  0  0  0
  192.3030  175.4970  146.2090 C   0  0  2  0  0  3  0  0  0  0  0  0
  190.4760  175.5740  144.8360 N   0  0  0  0  0  0  0  0  0  0  0  0
  187.5730  175.6430  142.6350 C   0  0  0  0  0  3  0  0  0  0  0  0
  185.1190  179.1120  144.9760 C   0  0  0  0  0  0  0  0  0  0  0  0
  184.4490  178.8190  146.2820 C   0  0  0  0  0  2  0  0  0  0  0  0
  186.5420  177.0820  145.1050 C   0  0  2  0  0  3  0  0  0  0  0  0
  184.5330  177.3240  146.5850 C   0  0  0  0  0  2  0  0  0  0  0  0
  186.4890  178.5620  144.7150 C   0  0  0  0  0  2  0  0  0  0  0  0
  185.9800  176.8370  146.5090 C   0  0  0  0  0  2  0  0  0  0  0  0
  184.5820  179.8380  144.1570 O   0  0  0  0  0  0  0  0  0  0  0  0
  193.4750  176.4470  146.0220 C   0  0  0  0  0  2  0  0  0  0  0  0
  194.7740  175.7600  146.4100 C   0  0  0  0  0  2  0  0  0  0  0  0
  197.0170  173.5760  146.0770 C   0  0  0  0  0  1  0  0  0  0  0  0
  195.4530  175.2550  145.2270 N   0  0  0  0  0  0  0  0  0  0  0  0
  195.8260  173.8350  145.1720 C   0  0  1  0  0  3  0  0  0  0  0  0
  196.3360  174.2420  142.7710 C   0  0  0  0  0  3  0  0  0  0  0  0
  196.1600  175.6870  142.9710 C   0  0  0  0  0  3  0  0  0  0  0  0
  195.7300  176.1530  144.1410 C   0  0  0  0  0  3  0  0  0  0  0  0
  196.1590  173.3810  143.7740 C   0  0  0  0  0  3  0  0  0  0  0  0
  1  8  1  0  0  0  0
  2 13  2  0  0  0  0
  3 11  1  0  0  0  0
  3 17  1  0  0  0  0
  4 14  2  0  0  0  0
  4  9  1  0  0  0  0
  5  6  2  0  0  0  0
  6  2  1  0  0  0  0
  7 16  1  0  0  0  0
  8  2  1  0  0  0  0
  8  3  2  0  0  0  0
 10  5  1  0  0  0  0
 10  1  2  0  0  0  0
 11 15  2  0  0  0  0
 12  1  1  0  0  0  0
 12 18  2  0  0  0  0
 13  7  1  0  0  0  0
 15 14  1  0  0  0  0
 16 26  1  6  0  0  0
 16  9  1  0  0  0  0
 17  7  1  0  0  0  0
 17  4  1  0  0  0  0
 18 11  1  0  0  0  0
 19 20  1  0  0  0  0
 20 22  1  0  0  0  0
 21 15  1  1  0  0  0
 21 24  1  0  0  0  0
 23 19  1  0  0  0  0
 23 21  1  0  0  0  0
 24 22  1  0  0  0  0
 25 19  2  0  0  0  0
 26 27  1  0  0  0  0
 29 27  1  0  0  0  0
 30 29  1  0  0  0  0
 30 28  1  1  0  0  0
 31 32  1  0  0  0  0
 31 34  2  0  0  0  0
 32 33  2  0  0  0  0
 33 29  1  0  0  0  0
 34 30  1  0  0  0  0
M  END
>  <MODEL>
1

>  <REMARK>
 VINA RESULT:      -8.9      0.000      0.000
  Name = 
  4 active torsions:
  status: ('A' for Active; 'I' for Inactive)
    1  A    between atoms: C_3  and  N_13
    2  A    between atoms: C_3  and  C_17
    3  A    between atoms: C_12  and  C_28
    4  A    between atoms: C_17  and  C_29
                            x       y       z     vdW  Elec       q    Type
                         _______ _______ _______ _____ _____    ______ ____

>  <TORSDO>
F 4

$$$$
=
 OpenBabel11052418553D

 34 40  0  0  1  0  0  0  0  0999 V2000
  191.3580  172.4700  140.5090 C   0  0  0  0  0  0  0  0  0  0  0  0
  189.1520  173.4410  140.2350 C   0  0  0  0  0  0  0  0  0  0  0  0
  190.7490  174.4600  141.7280 C   0  0  0  0  0  0  0  0  0  0  0  0
  190.0370  176.3980  142.8360 C   0  0  0  0  0  0  0  0  0  0  0  0
  189.7710  171.4880  139.0480 C   0  0  0  0  0  3  0  0  0  0  0  0
  188.8510  172.4520  139.3540 N   0  0  0  0  0  0  0  0  0  0  0  0
  188.6140  175.4060  141.4720 N   0  0  0  0  0  0  0  0  0  0  0  0
  190.4240  173.4560  140.8290 C   0  0  0  0  0  0  0  0  0  0  0  0
  188.8390  177.2810  142.9280 C   0  0  0  0  0  2  0  0  0  0  0  0
  191.0110  171.5000  139.6230 N   0  0  0  0  0  0  0  0  0  0  0  0
  192.0070  174.5300  142.3390 C   0  0  0  0  0  0  0  0  0  0  0  0
  192.6290  172.5080  141.1090 C   0  0  0  0  0  3  0  0  0  0  0  0
  188.2280  174.4530  140.5700 C   0  0  0  0  0  3  0  0  0  0  0  0
  191.2380  176.5320  143.4650 N   0  0  0  0  0  0  0  0  0  0  0  0
  192.2360  175.6150  143.2380 C   0  0  0  0  0  0  0  0  0  0  0  0
  187.8490  176.5530  141.9610 C   0  0  2  0  0  3  0  0  0  0  0  0
  189.8190  175.3920  142.0050 N   0  0  0  0  0  0  0  0  0  0  0  0
  192.9540  173.5360  142.0210 C   0  0  0  0  0  3  0  0  0  0  0  0
  195.9940  176.0790  143.7240 C   0  0  0  0  0  0  0  0  0  0  0  0
  196.2870  175.0610  144.7840 C   0  0  0  0  0  2  0  0  0  0  0  0
  193.5390  175.8030  143.9590 C   0  0  2  0  0  3  0  0  0  0  0  0
  195.0900  174.9340  145.7250 C   0  0  0  0  0  2  0  0  0  0  0  0
  194.6970  176.0070  142.9770 C   0  0  0  0  0  2  0  0  0  0  0  0
  193.8110  174.6570  144.9380 C   0  0  0  0  0  2  0  0  0  0  0  0
  196.8260  176.9200  143.4310 O   0  0  0  0  0  0  0  0  0  0  0  0
  186.6300  176.0740  142.7320 C   0  0  0  0  0  2  0  0  0  0  0  0
  185.5750  177.1670  142.7790 C   0  0  0  0  0  2  0  0  0  0  0  0
  185.3480  180.0040  144.1280 C   0  0  0  0  0  1  0  0  0  0  0  0
  185.3120  177.5570  144.1560 N   0  0  0  0  0  0  0  0  0  0  0  0
  184.5170  178.7660  144.4130 C   0  0  1  0  0  3  0  0  0  0  0  0
  184.4540  178.0060  146.7820 C   0  0  0  0  0  3  0  0  0  0  0  0
  185.4330  176.9540  146.4780 C   0  0  0  0  0  3  0  0  0  0  0  0
  185.8240  176.7450  145.2240 C   0  0  0  0  0  3  0  0  0  0  0  0
  184.0090  178.8280  145.8310 C   0  0  0  0  0  3  0  0  0  0  0  0
  1  8  1  0  0  0  0
  1 12  1  0  0  0  0
  2 13  2  0  0  0  0
  2  8  1  0  0  0  0
  3 17  1  0  0  0  0
  3 11  1  0  0  0  0
  4  9  1  0  0  0  0
  4 14  2  0  0  0  0
  5  6  2  0  0  0  0
  5 10  1  0  0  0  0
  6  2  1  0  0  0  0
  7 16  1  0  0  0  0
  7 17  1  0  0  0  0
  8  3  2  0  0  0  0
 10  1  2  0  0  0  0
 11 15  2  0  0  0  0
 12 18  2  0  0  0  0
 13  7  1  0  0  0  0
 15 14  1  0  0  0  0
 16 26  1  1  0  0  0
 16  9  1  0  0  0  0
 17  4  1  0  0  0  0
 18 11  1  0  0  0  0
 19 20  1  0  0  0  0
 20 22  1  0  0  0  0
 21 15  1  6  0  0  0
 21 24  1  0  0  0  0
 23 19  1  0  0  0  0
 23 21  1  0  0  0  0
 24 22  1  0  0  0  0
 25 19  2  0  0  0  0
 26 27  1  0  0  0  0
 27 29  1  0  0  0  0
 29 30  1  0  0  0  0
 29 33  1  0  0  0  0
 30 28  1  1  0  0  0
 30 34  1  0  0  0  0
 32 31  1  0  0  0  0
 33 32  2  0  0  0  0
 34 31  2  0  0  0  0
M  END
>  <MODEL>
2

>  <REMARK>
 VINA RESULT:      -8.1      2.909      8.131
  Name = 
  4 active torsions:
  status: ('A' for Active; 'I' for Inactive)
    1  A    between atoms: C_3  and  N_13
    2  A    between atoms: C_3  and  C_17
    3  A    between atoms: C_12  and  C_28
    4  A    between atoms: C_17  and  C_29
                            x       y       z     vdW  Elec       q    Type
                         _______ _______ _______ _____ _____    ______ ____

>  <TORSDO>
F 4

$$$$
=
 OpenBabel11052418553D

 34 40  0  0  1  0  0  0  0  0999 V2000
  189.0060  174.8810  141.6550 C   0  0  0  0  0  0  0  0  0  0  0  0
  191.1250  174.3120  142.6880 C   0  0  0  0  0  0  0  0  0  0  0  0
  189.5950  175.8080  143.8020 C   0  0  0  0  0  0  0  0  0  0  0  0
  190.2800  176.6220  145.8890 C   0  0  0  0  0  0  0  0  0  0  0  0
  190.5270  173.4140  140.5820 C   0  0  0  0  0  3  0  0  0  0  0  0
  191.4110  173.5280  141.6170 N   0  0  0  0  0  0  0  0  0  0  0  0
  191.6460  175.2660  144.8100 N   0  0  0  0  0  0  0  0  0  0  0  0
  189.9050  175.0060  142.7150 C   0  0  0  0  0  0  0  0  0  0  0  0
  191.4310  176.5110  146.8320 C   0  0  0  0  0  2  0  0  0  0  0  0
  189.3370  174.0850  140.6030 N   0  0  0  0  0  0  0  0  0  0  0  0
  188.3870  176.5110  143.8850 C   0  0  0  0  0  0  0  0  0  0  0  0
  187.7860  175.5770  141.7040 C   0  0  0  0  0  3  0  0  0  0  0  0
  192.0140  174.4500  143.7750 C   0  0  0  0  0  3  0  0  0  0  0  0
  189.1270  177.3300  146.0410 N   0  0  0  0  0  0  0  0  0  0  0  0
  188.1670  177.2960  145.0570 C   0  0  0  0  0  0  0  0  0  0  0  0
  192.3810  175.5540  146.0420 C   0  0  2  0  0  3  0  0  0  0  0  0
  190.4900  175.8970  144.8030 N   0  0  0  0  0  0  0  0  0  0  0  0
  187.4750  176.3890  142.8170 C   0  0  0  0  0  3  0  0  0  0  0  0
  184.5190  178.0320  145.9060 C   0  0  0  0  0  0  0  0  0  0  0  0
  184.1080  178.8850  144.7460 C   0  0  0  0  0  2  0  0  0  0  0  0
  186.9170  178.0970  145.2680 C   0  0  2  0  0  3  0  0  0  0  0  0
  185.2930  179.7290  144.2770 C   0  0  0  0  0  2  0  0  0  0  0  0
  185.7800  177.2280  145.8140 C   0  0  0  0  0  2  0  0  0  0  0  0
  186.5070  178.8460  143.9960 C   0  0  0  0  0  2  0  0  0  0  0  0
  183.8060  177.9460  146.8910 O   0  0  0  0  0  0  0  0  0  0  0  0
  193.6820  176.2690  145.7160 C   0  0  0  0  0  2  0  0  0  0  0  0
  194.8670  175.4450  146.1910 C   0  0  0  0  0  2  0  0  0  0  0  0
  196.8890  173.0310  146.1620 C   0  0  0  0  0  1  0  0  0  0  0  0
  195.4160  174.6660  145.0920 N   0  0  0  0  0  0  0  0  0  0  0  0
  195.6620  173.2300  145.2900 C   0  0  1  0  0  3  0  0  0  0  0  0
  196.0340  173.1340  142.8310 C   0  0  0  0  0  3  0  0  0  0  0  0
  195.9960  174.6010  142.7610 C   0  0  0  0  0  3  0  0  0  0  0  0
  195.6900  175.3160  143.8410 C   0  0  0  0  0  3  0  0  0  0  0  0
  195.8560  172.4950  143.9890 C   0  0  0  0  0  3  0  0  0  0  0  0
  1 12  1  0  0  0  0
  1  8  1  0  0  0  0
  2  8  1  0  0  0  0
  2 13  2  0  0  0  0
  3 11  1  0  0  0  0
  3 17  1  0  0  0  0
  4 14  2  0  0  0  0
  4  9  1  0  0  0  0
  5 10  1  0  0  0  0
  5  6  2  0  0  0  0
  6  2  1  0  0  0  0
  7 16  1  0  0  0  0
  8  3  2  0  0  0  0
 10  1  2  0  0  0  0
 11 15  2  0  0  0  0
 12 18  2  0  0  0  0
 13  7  1  0  0  0  0
 15 14  1  0  0  0  0
 16 26  1  6  0  0  0
 16  9  1  0  0  0  0
 17  7  1  0  0  0  0
 17  4  1  0  0  0  0
 18 11  1  0  0  0  0
 19 25  2  0  0  0  0
 20 19  1  0  0  0  0
 21 15  1  6  0  0  0
 21 23  1  0  0  0  0
 22 20  1  0  0  0  0
 23 19  1  0  0  0  0
 24 22  1  0  0  0  0
 24 21  1  0  0  0  0
 26 27  1  0  0  0  0
 29 30  1  0  0  0  0
 29 27  1  0  0  0  0
 30 28  1  1  0  0  0
 31 34  2  0  0  0  0
 32 31  1  0  0  0  0
 32 33  2  0  0  0  0
 33 29  1  0  0  0  0
 34 30  1  0  0  0  0
M  END
>  <MODEL>
3

>  <REMARK>
 VINA RESULT:      -8.1      0.889      1.272
  Name = 
  4 active torsions:
  status: ('A' for Active; 'I' for Inactive)
    1  A    between atoms: C_3  and  N_13
    2  A    between atoms: C_3  and  C_17
    3  A    between atoms: C_12  and  C_28
    4  A    between atoms: C_17  and  C_29
                            x       y       z     vdW  Elec       q    Type
                         _______ _______ _______ _____ _____    ______ ____

>  <TORSDO>
F 4

$$$$
=
 OpenBabel11052418553D

 34 40  0  0  1  0  0  0  0  0999 V2000
  189.9360  172.5390  142.5630 C   0  0  0  0  0  0  0  0  0  0  0  0
  191.8700  172.5690  144.0260 C   0  0  0  0  0  0  0  0  0  0  0  0
  190.2390  174.3430  144.1350 C   0  0  0  0  0  0  0  0  0  0  0  0
  190.6430  176.0230  145.7170 C   0  0  0  0  0  0  0  0  0  0  0  0
  191.5530  170.8080  142.4760 C   0  0  0  0  0  3  0  0  0  0  0  0
  192.2840  171.4030  143.4660 N   0  0  0  0  0  0  0  0  0  0  0  0
  192.1100  174.3830  145.5540 N   0  0  0  0  0  0  0  0  0  0  0  0
  190.6780  173.1550  143.5710 C   0  0  0  0  0  0  0  0  0  0  0  0
  191.6440  176.3850  146.7620 C   0  0  0  0  0  2  0  0  0  0  0  0
  190.3910  171.3740  142.0310 N   0  0  0  0  0  0  0  0  0  0  0  0
  189.0520  174.9630  143.7270 C   0  0  0  0  0  0  0  0  0  0  0  0
  188.7410  173.1380  142.1270 C   0  0  0  0  0  3  0  0  0  0  0  0
  192.5990  173.2080  145.0520 C   0  0  0  0  0  3  0  0  0  0  0  0
  189.5000  176.6800  145.3750 N   0  0  0  0  0  0  0  0  0  0  0  0
  188.6900  176.1770  144.3860 C   0  0  0  0  0  0  0  0  0  0  0  0
  192.6700  175.2140  146.6200 C   0  0  2  0  0  3  0  0  0  0  0  0
  190.9850  174.9000  145.1060 N   0  0  0  0  0  0  0  0  0  0  0  0
  188.2990  174.3460  142.7080 C   0  0  0  0  0  3  0  0  0  0  0  0
  186.3870  178.5440  142.4710 C   0  0  0  0  0  0  0  0  0  0  0  0
  185.8270  179.3790  143.5810 C   0  0  0  0  0  2  0  0  0  0  0  0
  187.4450  176.9400  144.0420 C   0  0  2  0  0  3  0  0  0  0  0  0
  185.6870  178.5350  144.8460 C   0  0  0  0  0  2  0  0  0  0  0  0
  187.6030  177.7070  142.7260 C   0  0  0  0  0  2  0  0  0  0  0  0
  187.0100  177.8540  145.1910 C   0  0  0  0  0  2  0  0  0  0  0  0
  185.8940  178.5890  141.3570 O   0  0  0  0  0  0  0  0  0  0  0  0
  194.0240  175.7600  146.1960 C   0  0  0  0  0  2  0  0  0  0  0  0
  193.8540  176.7730  145.0760 C   0  0  0  0  0  2  0  0  0  0  0  0
  196.5320  176.5930  143.4290 C   0  0  0  0  0  1  0  0  0  0  0  0
  194.1510  176.1590  143.7900 N   0  0  0  0  0  0  0  0  0  0  0  0
  195.4620  175.5270  143.5890 C   0  0  1  0  0  3  0  0  0  0  0  0
  194.5010  174.6100  141.4850 C   0  0  0  0  0  3  0  0  0  0  0  0
  193.3100  175.4540  141.6530 C   0  0  0  0  0  3  0  0  0  0  0  0
  193.1520  176.1770  142.7580 C   0  0  0  0  0  3  0  0  0  0  0  0
  195.4850  174.6200  142.3850 C   0  0  0  0  0  3  0  0  0  0  0  0
  1  8  1  0  0  0  0
  2 13  2  0  0  0  0
  3 17  1  0  0  0  0
  4  9  1  0  0  0  0
  5  6  2  0  0  0  0
  6  2  1  0  0  0  0
  7 16  1  0  0  0  0
  8  2  1  0  0  0  0
  8  3  2  0  0  0  0
 10  5  1  0  0  0  0
 10  1  2  0  0  0  0
 11  3  1  0  0  0  0
 11 15  2  0  0  0  0
 12  1  1  0  0  0  0
 12 18  2  0  0  0  0
 13  7  1  0  0  0  0
 14  4  2  0  0  0  0
 15 14  1  0  0  0  0
 16 26  1  6  0  0  0
 16  9  1  0  0  0  0
 17  7  1  0  0  0  0
 17  4  1  0  0  0  0
 18 11  1  0  0  0  0
 19 23  1  0  0  0  0
 19 20  1  0  0  0  0
 20 22  1  0  0  0  0
 21 15  1  1  0  0  0
 21 24  1  0  0  0  0
 22 24  1  0  0  0  0
 23 21  1  0  0  0  0
 25 19  2  0  0  0  0
 27 26  1  0  0  0  0
 29 27  1  0  0  0  0
 30 28  1  6  0  0  0
 30 29  1  0  0  0  0
 31 32  1  0  0  0  0
 31 34  2  0  0  0  0
 32 33  2  0  0  0  0
 33 29  1  0  0  0  0
 34 30  1  0  0  0  0
M  END
>  <MODEL>
4

>  <REMARK>
 VINA RESULT:      -8.1      1.737      2.187
  Name = 
  4 active torsions:
  status: ('A' for Active; 'I' for Inactive)
    1  A    between atoms: C_3  and  N_13
    2  A    between atoms: C_3  and  C_17
    3  A    between atoms: C_12  and  C_28
    4  A    between atoms: C_17  and  C_29
                            x       y       z     vdW  Elec       q    Type
                         _______ _______ _______ _____ _____    ______ ____

>  <TORSDO>
F 4

$$$$
=
 OpenBabel11052418553D

 34 40  0  0  1  0  0  0  0  0999 V2000
  190.9780  172.3110  139.7380 C   0  0  0  0  0  0  0  0  0  0  0  0
  188.9120  173.5810  139.7610 C   0  0  0  0  0  0  0  0  0  0  0  0
  190.6660  174.0890  141.3380 C   0  0  0  0  0  0  0  0  0  0  0  0
  190.2420  175.8500  142.8240 C   0  0  0  0  0  0  0  0  0  0  0  0
  189.2400  171.8320  138.2000 C   0  0  0  0  0  3  0  0  0  0  0  0
  188.4620  172.8250  138.7260 N   0  0  0  0  0  0  0  0  0  0  0  0
  188.6670  175.3230  141.3700 N   0  0  0  0  0  0  0  0  0  0  0  0
  190.1900  173.3250  140.2830 C   0  0  0  0  0  0  0  0  0  0  0  0
  189.1720  176.8400  143.1390 C   0  0  0  0  0  2  0  0  0  0  0  0
  190.4850  171.5800  138.7040 N   0  0  0  0  0  0  0  0  0  0  0  0
  191.9370  173.8840  141.8870 C   0  0  0  0  0  0  0  0  0  0  0  0
  192.2580  172.0760  140.2700 C   0  0  0  0  0  3  0  0  0  0  0  0
  188.1370  174.6160  140.3250 C   0  0  0  0  0  3  0  0  0  0  0  0
  191.4650  175.7110  143.4060 N   0  0  0  0  0  0  0  0  0  0  0  0
  192.3290  174.7380  142.9620 C   0  0  0  0  0  0  0  0  0  0  0  0
  188.0710  176.4400  142.1030 C   0  0  2  0  0  3  0  0  0  0  0  0
  189.8730  175.0570  141.8300 N   0  0  0  0  0  0  0  0  0  0  0  0
  192.7380  172.8600  141.3410 C   0  0  0  0  0  3  0  0  0  0  0  0
  194.9450  173.5630  145.4810 C   0  0  0  0  0  0  0  0  0  0  0  0
  195.5590  174.8620  145.9030 C   0  0  0  0  0  2  0  0  0  0  0  0
  193.6630  174.6220  143.6390 C   0  0  2  0  0  3  0  0  0  0  0  0
  195.5620  175.8400  144.7290 C   0  0  0  0  0  2  0  0  0  0  0  0
  193.6350  173.5740  144.7550 C   0  0  0  0  0  2  0  0  0  0  0  0
  194.1600  175.9810  144.1390 C   0  0  0  0  0  2  0  0  0  0  0  0
  195.4760  172.5060  145.7760 O   0  0  0  0  0  0  0  0  0  0  0  0
  186.8200  175.9760  142.8300 C   0  0  0  0  0  2  0  0  0  0  0  0
  185.7570  177.0610  142.7900 C   0  0  0  0  0  2  0  0  0  0  0  0
  185.4190  179.9250  144.0550 C   0  0  0  0  0  1  0  0  0  0  0  0
  185.4110  177.4800  144.1400 N   0  0  0  0  0  0  0  0  0  0  0  0
  184.5880  178.6840  144.3230 C   0  0  1  0  0  3  0  0  0  0  0  0
  184.4000  177.9800  146.7030 C   0  0  0  0  0  3  0  0  0  0  0  0
  185.4070  176.9340  146.4800 C   0  0  0  0  0  3  0  0  0  0  0  0
  185.8710  176.7000  145.2550 C   0  0  0  0  0  3  0  0  0  0  0  0
  184.0000  178.7730  145.7080 C   0  0  0  0  0  3  0  0  0  0  0  0
  1 12  1  0  0  0  0
  1  8  1  0  0  0  0
  2  8  1  0  0  0  0
  2 13  2  0  0  0  0
  3 17  1  0  0  0  0
  3 11  1  0  0  0  0
  4  9  1  0  0  0  0
  4 14  2  0  0  0  0
  5 10  1  0  0  0  0
  5  6  2  0  0  0  0
  6  2  1  0  0  0  0
  7 17  1  0  0  0  0
  7 16  1  0  0  0  0
  8  3  2  0  0  0  0
 10  1  2  0  0  0  0
 11 15  2  0  0  0  0
 12 18  2  0  0  0  0
 13  7  1  0  0  0  0
 15 14  1  0  0  0  0
 16 26  1  1  0  0  0
 16  9  1  0  0  0  0
 17  4  1  0  0  0  0
 18 11  1  0  0  0  0
 19 25  2  0  0  0  0
 19 20  1  0  0  0  0
 21 15  1  1  0  0  0
 21 24  1  0  0  0  0
 21 23  1  0  0  0  0
 22 20  1  0  0  0  0
 23 19  1  0  0  0  0
 24 22  1  0  0  0  0
 27 26  1  0  0  0  0
 27 29  1  0  0  0  0
 29 30  1  0  0  0  0
 29 33  1  0  0  0  0
 30 28  1  1  0  0  0
 30 34  1  0  0  0  0
 32 31  1  0  0  0  0
 33 32  2  0  0  0  0
 34 31  2  0  0  0  0
M  END
>  <MODEL>
5

>  <REMARK>
 VINA RESULT:      -8.0      3.007      8.191
  Name = 
  4 active torsions:
  status: ('A' for Active; 'I' for Inactive)
    1  A    between atoms: C_3  and  N_13
    2  A    between atoms: C_3  and  C_17
    3  A    between atoms: C_12  and  C_28
    4  A    between atoms: C_17  and  C_29
                            x       y       z     vdW  Elec       q    Type
                         _______ _______ _______ _____ _____    ______ ____

>  <TORSDO>
F 4

$$$$
=
 OpenBabel11052418553D

 34 40  0  0  1  0  0  0  0  0999 V2000
  191.5340  176.1250  146.2350 C   0  0  0  0  0  0  0  0  0  0  0  0
  192.0660  174.6610  144.3760 C   0  0  0  0  0  0  0  0  0  0  0  0
  189.9850  175.8800  144.4030 C   0  0  0  0  0  0  0  0  0  0  0  0
  188.5790  175.5670  142.5550 C   0  0  0  0  0  0  0  0  0  0  0  0
  193.5720  174.9160  146.1850 C   0  0  0  0  0  3  0  0  0  0  0  0
  193.2440  174.3570  144.9820 N   0  0  0  0  0  0  0  0  0  0  0  0
  190.4890  174.4620  142.6000 N   0  0  0  0  0  0  0  0  0  0  0  0
  191.1890  175.5570  145.0080 C   0  0  0  0  0  0  0  0  0  0  0  0
  188.5420  174.8130  141.2680 C   0  0  0  0  0  2  0  0  0  0  0  0
  192.7230  175.7900  146.8030 N   0  0  0  0  0  0  0  0  0  0  0  0
  189.0810  176.7780  144.9830 C   0  0  0  0  0  0  0  0  0  0  0  0
  190.6470  177.0270  146.8480 C   0  0  0  0  0  3  0  0  0  0  0  0
  191.6970  174.1050  143.1330 C   0  0  0  0  0  3  0  0  0  0  0  0
  187.6550  176.4320  143.0560 N   0  0  0  0  0  0  0  0  0  0  0  0
  187.8770  177.0470  144.2650 C   0  0  0  0  0  0  0  0  0  0  0  0
  189.8980  174.0380  141.3300 C   0  0  2  0  0  3  0  0  0  0  0  0
  189.6950  175.3110  143.2190 N   0  0  0  0  0  0  0  0  0  0  0  0
  189.4230  177.3540  146.2240 C   0  0  0  0  0  3  0  0  0  0  0  0
  184.7500  178.2140  146.1200 C   0  0  0  0  0  0  0  0  0  0  0  0
  184.0710  179.0400  145.0710 C   0  0  0  0  0  2  0  0  0  0  0  0
  186.8260  177.9880  144.7780 C   0  0  2  0  0  3  0  0  0  0  0  0
  185.1170  179.7250  144.1930 C   0  0  0  0  0  2  0  0  0  0  0  0
  185.8480  177.2760  145.7170 C   0  0  0  0  0  2  0  0  0  0  0  0
  186.1040  178.7040  143.6320 C   0  0  0  0  0  2  0  0  0  0  0  0
  184.3760  178.2600  147.2790 O   0  0  0  0  0  0  0  0  0  0  0  0
  189.6390  172.5410  141.3520 C   0  0  0  0  0  2  0  0  0  0  0  0
  190.6860  171.8140  140.5250 C   0  0  0  0  0  2  0  0  0  0  0  0
  189.6670  170.2350  137.9980 C   0  0  0  0  0  1  0  0  0  0  0  0
  190.5860  172.2030  139.1270 N   0  0  0  0  0  0  0  0  0  0  0  0
  189.4580  171.7030  138.3280 C   0  0  1  0  0  3  0  0  0  0  0  0
  190.1890  173.3340  136.5970 C   0  0  0  0  0  3  0  0  0  0  0  0
  191.4120  173.6090  137.3630 C   0  0  0  0  0  3  0  0  0  0  0  0
  191.5820  173.0730  138.5680 C   0  0  0  0  0  3  0  0  0  0  0  0
  189.2730  172.4750  137.0480 C   0  0  0  0  0  3  0  0  0  0  0  0
  1 10  2  0  0  0  0
  1 12  1  0  0  0  0
  2  6  1  0  0  0  0
  2  8  1  0  0  0  0
  3 11  1  0  0  0  0
  3  8  2  0  0  0  0
  4 14  2  0  0  0  0
  4 17  1  0  0  0  0
  5 10  1  0  0  0  0
  6  5  2  0  0  0  0
  7 13  1  0  0  0  0
  7 17  1  0  0  0  0
  8  1  1  0  0  0  0
  9 16  1  0  0  0  0
  9  4  1  0  0  0  0
 11 18  1  0  0  0  0
 13  2  2  0  0  0  0
 14 15  1  0  0  0  0
 15 11  2  0  0  0  0
 16 26  1  1  0  0  0
 16  7  1  0  0  0  0
 17  3  1  0  0  0  0
 18 12  2  0  0  0  0
 19 25  2  0  0  0  0
 20 19  1  0  0  0  0
 21 15  1  6  0  0  0
 21 23  1  0  0  0  0
 22 20  1  0  0  0  0
 23 19  1  0  0  0  0
 24 22  1  0  0  0  0
 24 21  1  0  0  0  0
 27 26  1  0  0  0  0
 29 27  1  0  0  0  0
 30 28  1  6  0  0  0
 30 29  1  0  0  0  0
 31 34  2  0  0  0  0
 31 32  1  0  0  0  0
 32 33  2  0  0  0  0
 33 29  1  0  0  0  0
 34 30  1  0  0  0  0
M  END
>  <MODEL>
6

>  <REMARK>
 VINA RESULT:      -8.0      2.103      5.575
  Name = 
  4 active torsions:
  status: ('A' for Active; 'I' for Inactive)
    1  A    between atoms: C_3  and  N_13
    2  A    between atoms: C_3  and  C_17
    3  A    between atoms: C_12  and  C_28
    4  A    between atoms: C_17  and  C_29
                            x       y       z     vdW  Elec       q    Type
                         _______ _______ _______ _____ _____    ______ ____

>  <TORSDO>
F 4

$$$$
=
 OpenBabel11052418553D

 34 40  0  0  1  0  0  0  0  0999 V2000
  187.7890  175.5930  140.5630 C   0  0  0  0  0  0  0  0  0  0  0  0
  189.3180  173.7600  140.9960 C   0  0  0  0  0  0  0  0  0  0  0  0
  188.5320  175.1380  142.8130 C   0  0  0  0  0  0  0  0  0  0  0  0
  189.3150  174.5780  144.9490 C   0  0  0  0  0  0  0  0  0  0  0  0
  188.5760  174.2240  138.7960 C   0  0  0  0  0  3  0  0  0  0  0  0
  189.3170  173.4760  139.6670 N   0  0  0  0  0  0  0  0  0  0  0  0
  190.0150  173.3680  143.2410 N   0  0  0  0  0  0  0  0  0  0  0  0
  188.5450  174.8360  141.4600 C   0  0  0  0  0  0  0  0  0  0  0  0
  190.1990  173.5750  145.6090 C   0  0  0  0  0  2  0  0  0  0  0  0
  187.8210  175.2710  139.2430 N   0  0  0  0  0  0  0  0  0  0  0  0
  187.7690  176.1920  143.3300 C   0  0  0  0  0  0  0  0  0  0  0  0
  187.0160  176.6610  141.0490 C   0  0  0  0  0  3  0  0  0  0  0  0
  190.0690  173.0070  141.9230 C   0  0  0  0  0  3  0  0  0  0  0  0
  188.5970  175.5830  145.5230 N   0  0  0  0  0  0  0  0  0  0  0  0
  187.8200  176.4040  144.7410 C   0  0  0  0  0  0  0  0  0  0  0  0
  190.6830  172.7390  144.3810 C   0  0  2  0  0  3  0  0  0  0  0  0
  189.2740  174.3810  143.6410 N   0  0  0  0  0  0  0  0  0  0  0  0
  187.0040  176.9600  142.4290 C   0  0  0  0  0  3  0  0  0  0  0  0
  186.5110  178.5930  147.5810 C   0  0  0  0  0  0  0  0  0  0  0  0
  185.0420  178.6130  147.2900 C   0  0  0  0  0  2  0  0  0  0  0  0
  187.0520  177.5000  145.4200 C   0  0  2  0  0  3  0  0  0  0  0  0
  184.8110  178.5610  145.7800 C   0  0  0  0  0  2  0  0  0  0  0  0
  187.3750  177.5660  146.9150 C   0  0  0  0  0  2  0  0  0  0  0  0
  185.5470  177.3750  145.1620 C   0  0  0  0  0  2  0  0  0  0  0  0
  186.9880  179.3650  148.3940 O   0  0  0  0  0  0  0  0  0  0  0  0
  192.1910  172.8630  144.2310 C   0  0  0  0  0  2  0  0  0  0  0  0
  192.8000  173.4190  145.5080 C   0  0  0  0  0  2  0  0  0  0  0  0
  192.2430  176.2860  146.6840 C   0  0  0  0  0  1  0  0  0  0  0  0
  193.4340  174.7030  145.2480 N   0  0  0  0  0  0  0  0  0  0  0  0
  193.5850  175.6580  146.3540 C   0  0  1  0  0  3  0  0  0  0  0  0
  195.0510  176.9450  144.8090 C   0  0  0  0  0  3  0  0  0  0  0  0
  194.6660  176.0650  143.6980 C   0  0  0  0  0  3  0  0  0  0  0  0
  193.9050  174.9960  143.9230 C   0  0  0  0  0  3  0  0  0  0  0  0
  194.5770  176.7490  146.0400 C   0  0  0  0  0  3  0  0  0  0  0  0
  1 12  1  0  0  0  0
  1  8  1  0  0  0  0
  2  8  1  0  0  0  0
  2 13  2  0  0  0  0
  3 11  1  0  0  0  0
  3 17  1  0  0  0  0
  4 14  2  0  0  0  0
  4  9  1  0  0  0  0
  5 10  1  0  0  0  0
  5  6  2  0  0  0  0
  6  2  1  0  0  0  0
  7 17  1  0  0  0  0
  7 16  1  0  0  0  0
  8  3  2  0  0  0  0
 10  1  2  0  0  0  0
 11 15  2  0  0  0  0
 12 18  2  0  0  0  0
 13  7  1  0  0  0  0
 15 14  1  0  0  0  0
 16 26  1  6  0  0  0
 16  9  1  0  0  0  0
 17  4  1  0  0  0  0
 18 11  1  0  0  0  0
 19 25  2  0  0  0  0
 20 19  1  0  0  0  0
 21 15  1  1  0  0  0
 21 23  1  0  0  0  0
 22 20  1  0  0  0  0
 23 19  1  0  0  0  0
 24 21  1  0  0  0  0
 24 22  1  0  0  0  0
 26 27  1  0  0  0  0
 29 27  1  0  0  0  0
 29 30  1  0  0  0  0
 30 28  1  6  0  0  0
 31 34  2  0  0  0  0
 32 33  2  0  0  0  0
 32 31  1  0  0  0  0
 33 29  1  0  0  0  0
 34 30  1  0  0  0  0
M  END
>  <MODEL>
7

>  <REMARK>
 VINA RESULT:      -7.9      1.892      2.810
  Name = 
  4 active torsions:
  status: ('A' for Active; 'I' for Inactive)
    1  A    between atoms: C_3  and  N_13
    2  A    between atoms: C_3  and  C_17
    3  A    between atoms: C_12  and  C_28
    4  A    between atoms: C_17  and  C_29
                            x       y       z     vdW  Elec       q    Type
                         _______ _______ _______ _____ _____    ______ ____

>  <TORSDO>
F 4

$$$$
=
 OpenBabel11052418553D

 34 40  0  0  1  0  0  0  0  0999 V2000
  191.4020  175.8970  146.2570 C   0  0  0  0  0  0  0  0  0  0  0  0
  191.8810  174.5110  144.3260 C   0  0  0  0  0  0  0  0  0  0  0  0
  189.8410  175.7940  144.4210 C   0  0  0  0  0  0  0  0  0  0  0  0
  188.4210  175.6180  142.5660 C   0  0  0  0  0  0  0  0  0  0  0  0
  193.3990  174.6270  146.1380 C   0  0  0  0  0  3  0  0  0  0  0  0
  193.0500  174.1400  144.9100 N   0  0  0  0  0  0  0  0  0  0  0  0
  190.2940  174.4520  142.5480 N   0  0  0  0  0  0  0  0  0  0  0  0
  191.0360  175.4020  145.0050 C   0  0  0  0  0  0  0  0  0  0  0  0
  188.3570  174.9310  141.2440 C   0  0  0  0  0  2  0  0  0  0  0  0
  192.5810  175.4960  146.8020 N   0  0  0  0  0  0  0  0  0  0  0  0
  188.9680  176.6910  145.0490 C   0  0  0  0  0  0  0  0  0  0  0  0
  190.5460  176.7960  146.9170 C   0  0  0  0  0  3  0  0  0  0  0  0
  191.4920  174.0290  143.0580 C   0  0  0  0  0  3  0  0  0  0  0  0
  187.5260  176.4860  143.1140 N   0  0  0  0  0  0  0  0  0  0  0  0
  187.7710  177.0340  144.3510 C   0  0  0  0  0  0  0  0  0  0  0  0
  189.6870  174.1100  141.2610 C   0  0  2  0  0  3  0  0  0  0  0  0
  189.5290  175.2940  143.2120 N   0  0  0  0  0  0  0  0  0  0  0  0
  189.3320  177.1930  146.3150 C   0  0  0  0  0  3  0  0  0  0  0  0
  184.7580  178.2230  146.3700 C   0  0  0  0  0  0  0  0  0  0  0  0
  184.0210  179.0410  145.3540 C   0  0  0  0  0  2  0  0  0  0  0  0
  186.7530  177.9810  144.9140 C   0  0  2  0  0  3  0  0  0  0  0  0
  185.0150  179.7160  144.4110 C   0  0  0  0  0  2  0  0  0  0  0  0
  185.8290  177.2800  145.9140 C   0  0  0  0  0  2  0  0  0  0  0  0
  185.9680  178.6870  143.8040 C   0  0  0  0  0  2  0  0  0  0  0  0
  184.4500  178.2810  147.5480 O   0  0  0  0  0  0  0  0  0  0  0  0
  189.3790  172.6230  141.2100 C   0  0  0  0  0  2  0  0  0  0  0  0
  189.8710  172.0290  139.9010 C   0  0  0  0  0  2  0  0  0  0  0  0
  190.0660  169.3480  138.2620 C   0  0  0  0  0  1  0  0  0  0  0  0
  190.6170  170.8050  140.1490 N   0  0  0  0  0  0  0  0  0  0  0  0
  191.1760  170.0680  139.0070 C   0  0  1  0  0  3  0  0  0  0  0  0
  192.4120  168.7280  140.7010 C   0  0  0  0  0  3  0  0  0  0  0  0
  191.6390  169.3630  141.7770 C   0  0  0  0  0  3  0  0  0  0  0  0
  190.7970  170.3560  141.5010 C   0  0  0  0  0  3  0  0  0  0  0  0
  192.2210  169.0660  139.4250 C   0  0  0  0  0  3  0  0  0  0  0  0
  1 10  2  0  0  0  0
  1 12  1  0  0  0  0
  2  6  1  0  0  0  0
  2  8  1  0  0  0  0
  3  8  2  0  0  0  0
  3 11  1  0  0  0  0
  4 14  2  0  0  0  0
  4 17  1  0  0  0  0
  5 10  1  0  0  0  0
  6  5  2  0  0  0  0
  7 13  1  0  0  0  0
  7 17  1  0  0  0  0
  8  1  1  0  0  0  0
  9 16  1  0  0  0  0
  9  4  1  0  0  0  0
 11 18  1  0  0  0  0
 13  2  2  0  0  0  0
 14 15  1  0  0  0  0
 15 11  2  0  0  0  0
 16 26  1  1  0  0  0
 16  7  1  0  0  0  0
 17  3  1  0  0  0  0
 18 12  2  0  0  0  0
 19 25  2  0  0  0  0
 20 19  1  0  0  0  0
 21 15  1  6  0  0  0
 21 23  1  0  0  0  0
 22 20  1  0  0  0  0
 23 19  1  0  0  0  0
 24 22  1  0  0  0  0
 24 21  1  0  0  0  0
 27 29  1  0  0  0  0
 27 26  1  0  0  0  0
 29 33  1  0  0  0  0
 30 28  1  1  0  0  0
 30 34  1  0  0  0  0
 30 29  1  0  0  0  0
 31 32  1  0  0  0  0
 33 32  2  0  0  0  0
 34 31  2  0  0  0  0
M  END
>  <MODEL>
8

>  <REMARK>
 VINA RESULT:      -7.9      2.307      5.395
  Name = 
  4 active torsions:
  status: ('A' for Active; 'I' for Inactive)
    1  A    between atoms: C_3  and  N_13
    2  A    between atoms: C_3  and  C_17
    3  A    between atoms: C_12  and  C_28
    4  A    between atoms: C_17  and  C_29
                            x       y       z     vdW  Elec       q    Type
                         _______ _______ _______ _____ _____    ______ ____

>  <TORSDO>
F 4

$$$$
=
 OpenBabel11052418553D

 34 40  0  0  1  0  0  0  0  0999 V2000
  194.5540  175.5740  142.7740 C   0  0  0  0  0  0  0  0  0  0  0  0
  193.3340  176.4540  144.6760 C   0  0  0  0  0  0  0  0  0  0  0  0
  192.1750  175.2210  142.9580 C   0  0  0  0  0  0  0  0  0  0  0  0
  189.8710  174.9330  143.2660 C   0  0  0  0  0  0  0  0  0  0  0  0
  195.6690  176.7890  144.4760 C   0  0  0  0  0  3  0  0  0  0  0  0
  194.4980  176.9620  145.1590 N   0  0  0  0  0  0  0  0  0  0  0  0
  190.9840  176.0720  144.7940 N   0  0  0  0  0  0  0  0  0  0  0  0
  193.3530  175.7480  143.4630 C   0  0  0  0  0  0  0  0  0  0  0  0
  188.8030  175.2800  144.2480 C   0  0  0  0  0  2  0  0  0  0  0  0
  195.6930  176.1010  143.2960 N   0  0  0  0  0  0  0  0  0  0  0  0
  192.1410  174.4970  141.7590 C   0  0  0  0  0  0  0  0  0  0  0  0
  194.5540  174.8570  141.5650 C   0  0  0  0  0  3  0  0  0  0  0  0
  192.1080  176.6120  145.3570 C   0  0  0  0  0  3  0  0  0  0  0  0
  189.7610  174.2180  142.1130 N   0  0  0  0  0  0  0  0  0  0  0  0
  190.8750  173.9880  141.3400 C   0  0  0  0  0  0  0  0  0  0  0  0
  189.6160  176.0880  145.3110 C   0  0  2  0  0  3  0  0  0  0  0  0
  191.0420  175.4110  143.6560 N   0  0  0  0  0  0  0  0  0  0  0  0
  193.3510  174.3190  141.0580 C   0  0  0  0  0  3  0  0  0  0  0  0
  189.2420  172.7500  138.1200 C   0  0  0  0  0  0  0  0  0  0  0  0
  189.3610  171.2650  138.2750 C   0  0  0  0  0  2  0  0  0  0  0  0
  190.7020  173.2000  140.0760 C   0  0  2  0  0  3  0  0  0  0  0  0
  190.6460  170.9240  139.0270 C   0  0  0  0  0  2  0  0  0  0  0  0
  189.4440  173.6310  139.3150 C   0  0  0  0  0  2  0  0  0  0  0  0
  190.7220  171.6920  140.3460 C   0  0  0  0  0  2  0  0  0  0  0  0
  188.9260  173.2340  137.0460 O   0  0  0  0  0  0  0  0  0  0  0  0
  189.1020  177.5170  145.3790 C   0  0  0  0  0  2  0  0  0  0  0  0
  187.8350  177.6590  144.5530 C   0  0  0  0  0  2  0  0  0  0  0  0
  185.5660  179.8110  144.1810 C   0  0  0  0  0  1  0  0  0  0  0  0
  186.7150  178.0300  145.4050 N   0  0  0  0  0  0  0  0  0  0  0  0
  185.4440  178.4210  144.7790 C   0  0  1  0  0  3  0  0  0  0  0  0
  184.4790  178.2900  147.0690 C   0  0  0  0  0  3  0  0  0  0  0  0
  185.8250  178.1250  147.6340 C   0  0  0  0  0  3  0  0  0  0  0  0
  186.8770  177.9930  146.8310 C   0  0  0  0  0  3  0  0  0  0  0  0
  184.2940  178.4020  145.7530 C   0  0  0  0  0  3  0  0  0  0  0  0
  1 10  2  0  0  0  0
  1  8  1  0  0  0  0
  2  6  1  0  0  0  0
  2 13  2  0  0  0  0
  3  8  2  0  0  0  0
  3 17  1  0  0  0  0
  4 17  1  0  0  0  0
  4  9  1  0  0  0  0
  5  6  2  0  0  0  0
  7 16  1  0  0  0  0
  7 13  1  0  0  0  0
  8  2  1  0  0  0  0
  9 16  1  0  0  0  0
 10  5  1  0  0  0  0
 11  3  1  0  0  0  0
 12  1  1  0  0  0  0
 14  4  2  0  0  0  0
 15 11  2  0  0  0  0
 15 14  1  0  0  0  0
 16 26  1  6  0  0  0
 17  7  1  0  0  0  0
 18 12  2  0  0  0  0
 18 11  1  0  0  0  0
 19 20  1  0  0  0  0
 19 23  1  0  0  0  0
 20 22  1  0  0  0  0
 21 24  1  0  0  0  0
 21 15  1  1  0  0  0
 22 24  1  0  0  0  0
 23 21  1  0  0  0  0
 25 19  2  0  0  0  0
 27 26  1  0  0  0  0
 27 29  1  0  0  0  0
 29 33  1  0  0  0  0
 30 28  1  1  0  0  0
 30 29  1  0  0  0  0
 30 34  1  0  0  0  0
 31 32  1  0  0  0  0
 33 32  2  0  0  0  0
 34 31  2  0  0  0  0
M  END
>  <MODEL>
9

>  <REMARK>
 VINA RESULT:      -7.8      2.516      7.875
  Name = 
  4 active torsions:
  status: ('A' for Active; 'I' for Inactive)
    1  A    between atoms: C_3  and  N_13
    2  A    between atoms: C_3  and  C_17
    3  A    between atoms: C_12  and  C_28
    4  A    between atoms: C_17  and  C_29
                            x       y       z     vdW  Elec       q    Type
                         _______ _______ _______ _____ _____    ______ ____

>  <TORSDO>
F 4

$$$$
