=
 OpenBabel11052419153D

 32 37  0  0  1  0  0  0  0  0999 V2000
  189.5490  175.4370  144.5830 C   0  0  0  0  0  0  0  0  0  0  0  0
  188.2640  177.3450  143.9570 N   0  0  0  0  0  0  0  0  0  0  0  0
  189.8500  174.3840  145.6260 C   0  0  0  0  0  2  0  0  0  0  0  0
  188.7930  176.4850  144.9250 C   0  0  0  0  0  0  0  0  0  0  0  0
  187.0990  177.8930  144.5350 C   0  0  0  0  0  0  0  0  0  0  0  0
  186.1780  177.4300  139.6710 C   0  0  0  0  0  3  0  0  0  0  0  0
  188.3220  176.9960  142.5860 C   0  0  0  0  0  0  0  0  0  0  0  0
  185.1500  178.6390  141.5490 C   0  0  0  0  0  3  0  0  0  0  0  0
  186.4330  178.5680  142.3310 C   0  0  0  0  0  0  0  0  0  0  0  0
  188.1160  176.5900  146.1710 N   0  0  0  0  0  0  0  0  0  0  0  0
  186.1670  178.3830  143.7710 N   0  0  0  0  0  0  0  0  0  0  0  0
  188.2870  175.5860  147.2180 C   0  0  0  0  0  2  0  0  0  0  0  0
  189.2150  175.9340  142.2070 N   0  0  0  0  0  0  0  0  0  0  0  0
  189.8290  175.2180  143.1190 C   0  0  0  0  0  0  0  0  0  0  0  0
  187.3990  177.5200  141.7680 C   0  0  0  0  0  0  0  0  0  0  0  0
  186.9410  177.4590  145.9770 C   0  0  2  0  0  3  0  0  0  0  0  0
  189.6520  174.9050  147.0610 C   0  0  0  0  0  2  0  0  0  0  0  0
  185.0550  178.1490  140.3090 C   0  0  0  0  0  3  0  0  0  0  0  0
  187.2810  177.1170  140.3570 C   0  0  0  0  0  2  0  0  0  0  0  0
  190.5690  172.4270  140.7610 C   0  0  0  0  0  0  0  0  0  0  0  0
  189.9730  171.4590  140.2150 O   0  0  0  0  0  0  0  0  0  0  0  0
  191.9050  174.7050  141.8650 C   0  0  0  0  0  2  0  0  0  0  0  0
  191.8410  172.9230  140.1520 C   0  0  0  0  0  2  0  0  0  0  0  0
  190.7360  174.1130  142.6570 C   0  0  2  0  0  3  0  0  0  0  0  0
  190.0000  173.0750  141.9150 N   0  0  0  0  0  0  0  0  0  0  0  0
  188.8150  172.4890  142.5310 C   0  0  0  0  0  1  0  0  0  0  0  0
  192.7090  173.6010  141.2040 C   0  0  1  0  0  3  0  0  0  0  0  0
  194.3420  175.4110  140.8920 C   0  0  0  0  0  2  0  0  0  0  0  0
  193.9260  174.1880  140.5690 C   0  0  0  0  0  3  0  0  0  0  0  0
  185.6580  176.6510  146.1540 C   0  0  0  0  0  2  0  0  0  0  0  0
  184.5540  177.5300  146.7110 C   0  0  0  0  0  2  0  0  0  0  0  0
  185.1670  178.6800  147.4800 C   0  0  0  0  0  1  0  0  0  0  0  0
  1  4  2  0  0  0  0
  1  3  1  0  0  0  0
  2  5  1  0  0  0  0
  2  4  1  0  0  0  0
  3 17  1  0  0  0  0
  4 10  1  0  0  0  0
  5 16  1  0  0  0  0
  6 18  2  0  0  0  0
  6 19  1  0  0  0  0
  7  2  1  0  0  0  0
  8  9  2  0  0  0  0
  9 11  1  0  0  0  0
 10 12  1  0  0  0  0
 11  5  2  0  0  0  0
 13  7  1  0  0  0  0
 13 14  2  0  0  0  0
 14  1  1  0  0  0  0
 15  9  1  0  0  0  0
 15  7  2  0  0  0  0
 16 30  1  6  0  0  0
 16 10  1  0  0  0  0
 17 12  1  0  0  0  0
 18  8  1  0  0  0  0
 19 15  1  0  0  0  0
 20 25  1  0  0  0  0
 21 20  2  0  0  0  0
 22 24  1  0  0  0  0
 23 20  1  0  0  0  0
 23 27  1  0  0  0  0
 24 14  1  6  0  0  0
 25 26  1  0  0  0  0
 25 24  1  0  0  0  0
 27 29  1  6  0  0  0
 27 22  1  0  0  0  0
 29 28  2  0  0  0  0
 30 31  1  0  0  0  0
 31 32  1  0  0  0  0
M  END
>  <MODEL>
1

>  <REMARK>
 VINA RESULT:      -8.1      0.000      0.000
  Name = 
  4 active torsions:
  status: ('A' for Active; 'I' for Inactive)
    1  A    between atoms: C_13  and  C_18
    2  A    between atoms: C_15  and  C_26
    3  A    between atoms: C_18  and  C_29
    4  A    between atoms: C_20  and  C_27
                            x       y       z     vdW  Elec       q    Type
                         _______ _______ _______ _____ _____    ______ ____

>  <TORSDO>
F 4

$$$$
=
 OpenBabel11052419153D

 32 37  0  0  1  0  0  0  0  0999 V2000
  189.1140  176.3260  145.0550 C   0  0  0  0  0  0  0  0  0  0  0  0
  189.6660  174.1650  144.2110 N   0  0  0  0  0  0  0  0  0  0  0  0
  189.5200  177.5070  145.9070 C   0  0  0  0  0  2  0  0  0  0  0  0
  189.8180  175.1930  145.1470 C   0  0  0  0  0  0  0  0  0  0  0  0
  190.8930  173.4680  144.2130 C   0  0  0  0  0  0  0  0  0  0  0  0
  189.1820  173.3040  139.5480 C   0  0  0  0  0  3  0  0  0  0  0  0
  188.9380  174.3910  143.0180 C   0  0  0  0  0  0  0  0  0  0  0  0
  190.9000  172.1050  140.8350 C   0  0  0  0  0  3  0  0  0  0  0  0
  190.2310  172.4830  142.1280 C   0  0  0  0  0  0  0  0  0  0  0  0
  191.0300  175.0810  145.8830 N   0  0  0  0  0  0  0  0  0  0  0  0
  191.2290  172.7470  143.1830 N   0  0  0  0  0  0  0  0  0  0  0  0
  191.5430  176.1910  146.6820 C   0  0  0  0  0  2  0  0  0  0  0  0
  188.1010  175.5590  142.9600 N   0  0  0  0  0  0  0  0  0  0  0  0
  188.1370  176.4560  143.9160 C   0  0  0  0  0  0  0  0  0  0  0  0
  189.2340  173.6330  141.9530 C   0  0  0  0  0  0  0  0  0  0  0  0
  191.8280  173.9960  145.2810 C   0  0  2  0  0  3  0  0  0  0  0  0
  190.3800  177.0940  147.1150 C   0  0  0  0  0  2  0  0  0  0  0  0
  190.3860  172.4530  139.6500 C   0  0  0  0  0  3  0  0  0  0  0  0
  188.6420  173.8760  140.6280 C   0  0  0  0  0  2  0  0  0  0  0  0
  185.4240  178.2860  142.1310 C   0  0  0  0  0  0  0  0  0  0  0  0
  185.0700  178.5470  140.9490 O   0  0  0  0  0  0  0  0  0  0  0  0
  186.1190  177.5800  144.8160 C   0  0  0  0  0  2  0  0  0  0  0  0
  184.4100  178.3920  143.2250 C   0  0  0  0  0  2  0  0  0  0  0  0
  187.2490  177.6610  143.7870 C   0  0  2  0  0  3  0  0  0  0  0  0
  186.7650  177.8390  142.4070 N   0  0  0  0  0  0  0  0  0  0  0  0
  187.7420  177.8520  141.3250 C   0  0  0  0  0  1  0  0  0  0  0  0
  185.0900  178.6650  144.5600 C   0  0  1  0  0  3  0  0  0  0  0  0
  184.4230  178.2950  146.8960 C   0  0  0  0  0  2  0  0  0  0  0  0
  184.0840  178.6630  145.6620 C   0  0  0  0  0  3  0  0  0  0  0  0
  193.0930  174.5690  144.6470 C   0  0  0  0  0  2  0  0  0  0  0  0
  194.3240  174.0450  145.3630 C   0  0  0  0  0  2  0  0  0  0  0  0
  195.0430  175.1960  146.0310 C   0  0  0  0  0  1  0  0  0  0  0  0
  1  4  2  0  0  0  0
  1  3  1  0  0  0  0
  2  5  1  0  0  0  0
  2  4  1  0  0  0  0
  3 17  1  0  0  0  0
  4 10  1  0  0  0  0
  5 16  1  0  0  0  0
  6 18  2  0  0  0  0
  6 19  1  0  0  0  0
  7  2  1  0  0  0  0
  8  9  2  0  0  0  0
  9 11  1  0  0  0  0
 10 12  1  0  0  0  0
 11  5  2  0  0  0  0
 12 17  1  0  0  0  0
 13  7  1  0  0  0  0
 13 14  2  0  0  0  0
 14  1  1  0  0  0  0
 15  9  1  0  0  0  0
 15  7  2  0  0  0  0
 16 30  1  6  0  0  0
 16 10  1  0  0  0  0
 18  8  1  0  0  0  0
 19 15  1  0  0  0  0
 20 25  1  0  0  0  0
 20 23  1  0  0  0  0
 21 20  2  0  0  0  0
 23 27  1  0  0  0  0
 24 14  1  6  0  0  0
 24 22  1  0  0  0  0
 25 24  1  0  0  0  0
 26 25  1  0  0  0  0
 27 22  1  0  0  0  0
 27 29  1  1  0  0  0
 29 28  2  0  0  0  0
 30 31  1  0  0  0  0
 31 32  1  0  0  0  0
M  END
>  <MODEL>
2

>  <REMARK>
 VINA RESULT:      -7.9      2.546      6.798
  Name = 
  4 active torsions:
  status: ('A' for Active; 'I' for Inactive)
    1  A    between atoms: C_13  and  C_18
    2  A    between atoms: C_15  and  C_26
    3  A    between atoms: C_18  and  C_29
    4  A    between atoms: C_20  and  C_27
                            x       y       z     vdW  Elec       q    Type
                         _______ _______ _______ _____ _____    ______ ____

>  <TORSDO>
F 4

$$$$
=
 OpenBabel11052419153D

 32 37  0  0  1  0  0  0  0  0999 V2000
  190.1170  175.8060  145.3170 C   0  0  0  0  0  0  0  0  0  0  0  0
  190.1690  173.6120  144.3850 N   0  0  0  0  0  0  0  0  0  0  0  0
  190.8540  176.8960  146.0620 C   0  0  0  0  0  2  0  0  0  0  0  0
  190.6570  174.5840  145.2650 C   0  0  0  0  0  0  0  0  0  0  0  0
  191.2580  172.7500  144.1340 C   0  0  0  0  0  0  0  0  0  0  0  0
  188.6140  172.9480  139.9280 C   0  0  0  0  0  3  0  0  0  0  0  0
  189.2510  173.9680  143.3690 C   0  0  0  0  0  0  0  0  0  0  0  0
  190.3730  171.4880  140.8340 C   0  0  0  0  0  3  0  0  0  0  0  0
  190.0460  171.9220  142.2360 C   0  0  0  0  0  0  0  0  0  0  0  0
  191.9660  174.2840  145.7320 N   0  0  0  0  0  0  0  0  0  0  0  0
  191.2680  172.0160  143.0590 N   0  0  0  0  0  0  0  0  0  0  0  0
  192.7850  175.2900  146.4030 C   0  0  0  0  0  2  0  0  0  0  0  0
  188.5940  175.2430  143.4820 N   0  0  0  0  0  0  0  0  0  0  0  0
  188.9540  176.1020  144.4070 C   0  0  0  0  0  0  0  0  0  0  0  0
  189.2090  173.2040  142.2680 C   0  0  0  0  0  0  0  0  0  0  0  0
  192.4590  173.1140  144.9810 C   0  0  2  0  0  3  0  0  0  0  0  0
  191.8780  176.3350  147.0660 C   0  0  0  0  0  2  0  0  0  0  0  0
  189.6800  171.9350  139.7810 C   0  0  0  0  0  3  0  0  0  0  0  0
  188.3960  173.5620  141.0940 C   0  0  0  0  0  2  0  0  0  0  0  0
  186.4220  178.4570  143.0150 C   0  0  0  0  0  0  0  0  0  0  0  0
  186.0360  178.8850  141.8940 O   0  0  0  0  0  0  0  0  0  0  0  0
  187.1750  177.3860  145.5600 C   0  0  0  0  0  2  0  0  0  0  0  0
  185.5040  178.5830  144.1880 C   0  0  0  0  0  2  0  0  0  0  0  0
  188.2400  177.4220  144.4610 C   0  0  2  0  0  3  0  0  0  0  0  0
  187.7000  177.8070  143.1450 N   0  0  0  0  0  0  0  0  0  0  0  0
  188.6010  177.8010  141.9970 C   0  0  0  0  0  1  0  0  0  0  0  0
  186.2970  178.6210  145.4870 C   0  0  1  0  0  3  0  0  0  0  0  0
  184.1020  178.2530  146.5300 C   0  0  0  0  0  2  0  0  0  0  0  0
  185.3710  178.6380  146.6570 C   0  0  0  0  0  3  0  0  0  0  0  0
  193.6340  173.5200  144.0960 C   0  0  0  0  0  2  0  0  0  0  0  0
  194.9120  172.8640  144.5840 C   0  0  0  0  0  2  0  0  0  0  0  0
  194.5670  171.7160  145.5070 C   0  0  0  0  0  1  0  0  0  0  0  0
  1  3  1  0  0  0  0
  2  4  1  0  0  0  0
  3 17  1  0  0  0  0
  4  1  2  0  0  0  0
  4 10  1  0  0  0  0
  5  2  1  0  0  0  0
  5 16  1  0  0  0  0
  6 19  1  0  0  0  0
  7 13  1  0  0  0  0
  7  2  1  0  0  0  0
  8  9  2  0  0  0  0
  9 15  1  0  0  0  0
  9 11  1  0  0  0  0
 10 12  1  0  0  0  0
 11  5  2  0  0  0  0
 12 17  1  0  0  0  0
 13 14  2  0  0  0  0
 14  1  1  0  0  0  0
 15  7  2  0  0  0  0
 16 30  1  6  0  0  0
 16 10  1  0  0  0  0
 18  6  2  0  0  0  0
 18  8  1  0  0  0  0
 19 15  1  0  0  0  0
 20 25  1  0  0  0  0
 20 23  1  0  0  0  0
 21 20  2  0  0  0  0
 23 27  1  0  0  0  0
 24 14  1  6  0  0  0
 24 22  1  0  0  0  0
 25 24  1  0  0  0  0
 26 25  1  0  0  0  0
 27 22  1  0  0  0  0
 27 29  1  1  0  0  0
 28 29  2  0  0  0  0
 30 31  1  0  0  0  0
 31 32  1  0  0  0  0
M  END
>  <MODEL>
3

>  <REMARK>
 VINA RESULT:      -7.7      2.638      7.009
  Name = 
  4 active torsions:
  status: ('A' for Active; 'I' for Inactive)
    1  A    between atoms: C_13  and  C_18
    2  A    between atoms: C_15  and  C_26
    3  A    between atoms: C_18  and  C_29
    4  A    between atoms: C_20  and  C_27
                            x       y       z     vdW  Elec       q    Type
                         _______ _______ _______ _____ _____    ______ ____

>  <TORSDO>
F 4

$$$$
=
 OpenBabel11052419153D

 32 37  0  0  1  0  0  0  0  0999 V2000
  189.6090  175.5950  144.4610 C   0  0  0  0  0  0  0  0  0  0  0  0
  188.2210  177.4530  143.9040 N   0  0  0  0  0  0  0  0  0  0  0  0
  189.9810  174.5370  145.4740 C   0  0  0  0  0  2  0  0  0  0  0  0
  188.8110  176.5990  144.8410 C   0  0  0  0  0  0  0  0  0  0  0  0
  187.0440  177.9320  144.5180 C   0  0  0  0  0  0  0  0  0  0  0  0
  186.0420  177.5300  139.6650 C   0  0  0  0  0  3  0  0  0  0  0  0
  188.2670  177.1360  142.5250 C   0  0  0  0  0  0  0  0  0  0  0  0
  184.9990  178.6480  141.5900 C   0  0  0  0  0  3  0  0  0  0  0  0
  186.3000  178.6210  142.3430 C   0  0  0  0  0  0  0  0  0  0  0  0
  188.1570  176.6450  146.1030 N   0  0  0  0  0  0  0  0  0  0  0  0
  186.0740  178.3940  143.7840 N   0  0  0  0  0  0  0  0  0  0  0  0
  188.3970  175.6290  147.1250 C   0  0  0  0  0  2  0  0  0  0  0  0
  189.2000  176.1270  142.1040 N   0  0  0  0  0  0  0  0  0  0  0  0
  189.8670  175.4210  142.9870 C   0  0  0  0  0  0  0  0  0  0  0  0
  187.3020  177.6330  141.7370 C   0  0  0  0  0  0  0  0  0  0  0  0
  186.9380  177.4620  145.9530 C   0  0  2  0  0  3  0  0  0  0  0  0
  189.7900  175.0170  146.9250 C   0  0  0  0  0  2  0  0  0  0  0  0
  184.9000  178.1800  140.3410 C   0  0  0  0  0  3  0  0  0  0  0  0
  187.1730  177.2550  140.3210 C   0  0  0  0  0  2  0  0  0  0  0  0
  192.8720  173.2760  143.4990 C   0  0  0  0  0  0  0  0  0  0  0  0
  194.0450  173.3730  143.9510 O   0  0  0  0  0  0  0  0  0  0  0  0
  190.1670  172.9900  142.6080 C   0  0  0  0  0  2  0  0  0  0  0  0
  192.2510  171.9200  143.3970 C   0  0  0  0  0  2  0  0  0  0  0  0
  190.8150  174.3710  142.4820 C   0  0  2  0  0  3  0  0  0  0  0  0
  192.1290  174.4580  143.1420 N   0  0  0  0  0  0  0  0  0  0  0  0
  192.8140  175.7450  143.1600 C   0  0  0  0  0  1  0  0  0  0  0  0
  191.1810  171.9010  142.3140 C   0  0  1  0  0  3  0  0  0  0  0  0
  190.8880  169.6150  141.4600 C   0  0  0  0  0  2  0  0  0  0  0  0
  190.4920  170.5770  142.2920 C   0  0  0  0  0  3  0  0  0  0  0  0
  185.6990  176.5900  146.1380 C   0  0  0  0  0  2  0  0  0  0  0  0
  184.5520  177.4140  146.6910 C   0  0  0  0  0  2  0  0  0  0  0  0
  185.1070  178.5640  147.5040 C   0  0  0  0  0  1  0  0  0  0  0  0
  1  4  2  0  0  0  0
  1  3  1  0  0  0  0
  2  5  1  0  0  0  0
  2  4  1  0  0  0  0
  3 17  1  0  0  0  0
  4 10  1  0  0  0  0
  5 16  1  0  0  0  0
  6 19  1  0  0  0  0
  6 18  2  0  0  0  0
  7  2  1  0  0  0  0
  8  9  2  0  0  0  0
  9 11  1  0  0  0  0
 10 12  1  0  0  0  0
 11  5  2  0  0  0  0
 13  7  1  0  0  0  0
 13 14  2  0  0  0  0
 14  1  1  0  0  0  0
 15  9  1  0  0  0  0
 15  7  2  0  0  0  0
 16 10  1  0  0  0  0
 16 30  1  6  0  0  0
 17 12  1  0  0  0  0
 18  8  1  0  0  0  0
 19 15  1  0  0  0  0
 20 21  2  0  0  0  0
 23 20  1  0  0  0  0
 24 22  1  0  0  0  0
 24 14  1  1  0  0  0
 24 25  1  0  0  0  0
 25 26  1  0  0  0  0
 25 20  1  0  0  0  0
 27 29  1  1  0  0  0
 27 22  1  0  0  0  0
 27 23  1  0  0  0  0
 28 29  2  0  0  0  0
 30 31  1  0  0  0  0
 31 32  1  0  0  0  0
M  END
>  <MODEL>
4

>  <REMARK>
 VINA RESULT:      -7.7      1.573      2.383
  Name = 
  4 active torsions:
  status: ('A' for Active; 'I' for Inactive)
    1  A    between atoms: C_13  and  C_18
    2  A    between atoms: C_15  and  C_26
    3  A    between atoms: C_18  and  C_29
    4  A    between atoms: C_20  and  C_27
                            x       y       z     vdW  Elec       q    Type
                         _______ _______ _______ _____ _____    ______ ____

>  <TORSDO>
F 4

$$$$
=
 OpenBabel11052419153D

 32 37  0  0  1  0  0  0  0  0999 V2000
  189.4550  175.1560  142.6690 C   0  0  0  0  0  0  0  0  0  0  0  0
  191.8090  174.7760  142.6830 N   0  0  0  0  0  0  0  0  0  0  0  0
  188.0690  174.5820  142.4800 C   0  0  0  0  0  2  0  0  0  0  0  0
  190.5110  174.4240  142.2990 C   0  0  0  0  0  0  0  0  0  0  0  0
  192.5410  173.5690  142.6910 C   0  0  0  0  0  0  0  0  0  0  0  0
  194.3920  176.3660  146.3610 C   0  0  0  0  0  3  0  0  0  0  0  0
  192.0150  175.7780  143.6610 C   0  0  0  0  0  0  0  0  0  0  0  0
  195.1170  174.3570  145.1430 C   0  0  0  0  0  3  0  0  0  0  0  0
  194.2120  174.6970  143.9910 C   0  0  1  0  0  3  0  0  0  0  0  0
  190.4180  173.0660  141.8860 N   0  0  0  0  0  0  0  0  0  0  0  0
  193.6320  173.4790  143.3940 N   0  0  0  0  0  0  0  0  0  0  0  0
  189.1260  172.4000  141.7410 C   0  0  0  0  0  2  0  0  0  0  0  0
  190.9040  176.6320  143.9830 N   0  0  0  0  0  0  0  0  0  0  0  0
  189.7080  176.3850  143.5020 C   0  0  0  0  0  0  0  0  0  0  0  0
  193.1510  175.7340  144.3720 C   0  0  0  0  0  0  0  0  0  0  0  0
  191.7090  172.4140  142.1740 C   0  0  2  0  0  3  0  0  0  0  0  0
  188.0390  173.4430  141.4450 C   0  0  0  0  0  2  0  0  0  0  0  0
  195.2240  175.1530  146.2120 C   0  0  0  0  0  3  0  0  0  0  0  0
  193.4030  176.6390  145.5060 C   0  0  0  0  0  3  0  0  0  0  0  0
  186.3970  177.9280  142.7550 C   0  0  0  0  0  0  0  0  0  0  0  0
  185.7850  178.4410  141.7800 O   0  0  0  0  0  0  0  0  0  0  0  0
  187.7070  176.6300  144.9450 C   0  0  0  0  0  2  0  0  0  0  0  0
  185.6050  177.4330  143.9220 C   0  0  0  0  0  2  0  0  0  0  0  0
  188.5870  177.3060  143.8900 C   0  0  2  0  0  3  0  0  0  0  0  0
  187.8290  177.7710  142.7150 N   0  0  0  0  0  0  0  0  0  0  0  0
  188.5650  178.3620  141.6040 C   0  0  0  0  0  1  0  0  0  0  0  0
  186.4510  177.4450  145.1880 C   0  0  1  0  0  3  0  0  0  0  0  0
  186.0060  177.1390  147.5860 C   0  0  0  0  0  2  0  0  0  0  0  0
  185.6880  176.8500  146.3250 C   0  0  0  0  0  3  0  0  0  0  0  0
  191.5300  171.3570  143.2590 C   0  0  0  0  0  2  0  0  0  0  0  0
  192.3270  170.1120  142.9190 C   0  0  0  0  0  2  0  0  0  0  0  0
  193.1540  169.7010  144.1170 C   0  0  0  0  0  1  0  0  0  0  0  0
  1 14  1  0  0  0  0
  2  5  1  0  0  0  0
  2  7  1  0  0  0  0
  3  1  1  0  0  0  0
  4  1  2  0  0  0  0
  4  2  1  0  0  0  0
  5 11  2  0  0  0  0
  7 13  1  0  0  0  0
  7 15  2  0  0  0  0
  8 18  2  0  0  0  0
  9 15  1  0  0  0  0
  9  8  1  1  0  0  0
 10 16  1  0  0  0  0
 10  4  1  0  0  0  0
 11  9  1  0  0  0  0
 12 10  1  0  0  0  0
 14 13  2  0  0  0  0
 15 19  1  0  0  0  0
 16  5  1  0  0  0  0
 16 30  1  1  0  0  0
 17 12  1  0  0  0  0
 17  3  1  0  0  0  0
 18  6  1  0  0  0  0
 19  6  2  0  0  0  0
 20 23  1  0  0  0  0
 21 20  2  0  0  0  0
 22 27  1  0  0  0  0
 23 27  1  0  0  0  0
 24 14  1  6  0  0  0
 24 22  1  0  0  0  0
 25 20  1  0  0  0  0
 25 24  1  0  0  0  0
 26 25  1  0  0  0  0
 27 29  1  1  0  0  0
 29 28  2  0  0  0  0
 31 30  1  0  0  0  0
 31 32  1  0  0  0  0
M  END
>  <MODEL>
5

>  <REMARK>
 VINA RESULT:      -7.3      2.990      7.737
  Name = 
  4 active torsions:
  status: ('A' for Active; 'I' for Inactive)
    1  A    between atoms: C_13  and  C_18
    2  A    between atoms: C_15  and  C_26
    3  A    between atoms: C_18  and  C_29
    4  A    between atoms: C_20  and  C_27
                            x       y       z     vdW  Elec       q    Type
                         _______ _______ _______ _____ _____    ______ ____

>  <TORSDO>
F 4

$$$$
=
 OpenBabel11052419153D

 32 37  0  0  1  0  0  0  0  0999 V2000
  188.7040  176.5170  143.7860 C   0  0  0  0  0  0  0  0  0  0  0  0
  189.3850  174.4680  142.7740 N   0  0  0  0  0  0  0  0  0  0  0  0
  189.0520  177.6670  144.7040 C   0  0  0  0  0  2  0  0  0  0  0  0
  189.4960  175.4400  143.7740 C   0  0  0  0  0  0  0  0  0  0  0  0
  190.6610  173.8730  142.6840 C   0  0  0  0  0  0  0  0  0  0  0  0
  188.7800  173.8860  138.0820 C   0  0  0  0  0  3  0  0  0  0  0  0
  188.5950  174.7160  141.6260 C   0  0  0  0  0  0  0  0  0  0  0  0
  190.6360  172.7440  139.2210 C   0  0  0  0  0  3  0  0  0  0  0  0
  189.9930  172.9800  140.5600 C   0  0  0  0  0  0  0  0  0  0  0  0
  190.7420  175.3760  144.4570 N   0  0  0  0  0  0  0  0  0  0  0  0
  191.0090  173.2510  141.5950 N   0  0  0  0  0  0  0  0  0  0  0  0
  191.2000  176.4670  145.3140 C   0  0  0  0  0  2  0  0  0  0  0  0
  187.6690  175.8140  141.6790 N   0  0  0  0  0  0  0  0  0  0  0  0
  187.6740  176.6460  142.6940 C   0  0  0  0  0  0  0  0  0  0  0  0
  188.9050  174.0560  140.5010 C   0  0  0  0  0  0  0  0  0  0  0  0
  191.5950  174.4000  143.7530 C   0  0  2  0  0  3  0  0  0  0  0  0
  189.9900  177.2430  145.8490 C   0  0  0  0  0  2  0  0  0  0  0  0
  190.0490  173.1290  138.0820 C   0  0  0  0  0  3  0  0  0  0  0  0
  188.2420  174.3400  139.2170 C   0  0  0  0  0  2  0  0  0  0  0  0
  184.4760  178.1310  141.4820 C   0  0  0  0  0  0  0  0  0  0  0  0
  183.8280  178.2450  140.4080 O   0  0  0  0  0  0  0  0  0  0  0  0
  185.8550  177.7530  143.9630 C   0  0  0  0  0  2  0  0  0  0  0  0
  183.7540  178.3010  142.7800 C   0  0  0  0  0  2  0  0  0  0  0  0
  186.6920  177.7820  142.6810 C   0  0  2  0  0  3  0  0  0  0  0  0
  185.8750  177.7860  141.4550 N   0  0  0  0  0  0  0  0  0  0  0  0
  186.5560  177.7330  140.1670 C   0  0  0  0  0  1  0  0  0  0  0  0
  184.7150  178.7510  143.8720 C   0  0  1  0  0  3  0  0  0  0  0  0
  184.6610  178.5800  146.3240 C   0  0  0  0  0  2  0  0  0  0  0  0
  184.0090  178.8150  145.1860 C   0  0  0  0  0  3  0  0  0  0  0  0
  192.7860  175.1120  143.1170 C   0  0  0  0  0  2  0  0  0  0  0  0
  194.0860  174.4930  143.5930 C   0  0  0  0  0  2  0  0  0  0  0  0
  193.7840  173.3970  144.5920 C   0  0  0  0  0  1  0  0  0  0  0  0
  1  3  1  0  0  0  0
  2  4  1  0  0  0  0
  3 17  1  0  0  0  0
  4  1  2  0  0  0  0
  4 10  1  0  0  0  0
  5  2  1  0  0  0  0
  5 16  1  0  0  0  0
  6 19  1  0  0  0  0
  7 13  1  0  0  0  0
  7  2  1  0  0  0  0
  8  9  2  0  0  0  0
  9 11  1  0  0  0  0
 10 12  1  0  0  0  0
 11  5  2  0  0  0  0
 12 17  1  0  0  0  0
 13 14  2  0  0  0  0
 14  1  1  0  0  0  0
 15  9  1  0  0  0  0
 15  7  2  0  0  0  0
 16 30  1  6  0  0  0
 16 10  1  0  0  0  0
 18  6  2  0  0  0  0
 18  8  1  0  0  0  0
 19 15  1  0  0  0  0
 20 23  1  0  0  0  0
 21 20  2  0  0  0  0
 23 27  1  0  0  0  0
 24 14  1  6  0  0  0
 24 22  1  0  0  0  0
 25 20  1  0  0  0  0
 25 24  1  0  0  0  0
 26 25  1  0  0  0  0
 27 22  1  0  0  0  0
 27 29  1  1  0  0  0
 29 28  2  0  0  0  0
 30 31  1  0  0  0  0
 31 32  1  0  0  0  0
M  END
>  <MODEL>
6

>  <REMARK>
 VINA RESULT:      -7.3      2.505      6.814
  Name = 
  4 active torsions:
  status: ('A' for Active; 'I' for Inactive)
    1  A    between atoms: C_13  and  C_18
    2  A    between atoms: C_15  and  C_26
    3  A    between atoms: C_18  and  C_29
    4  A    between atoms: C_20  and  C_27
                            x       y       z     vdW  Elec       q    Type
                         _______ _______ _______ _____ _____    ______ ____

>  <TORSDO>
F 4

$$$$
=
 OpenBabel11052419153D

 32 37  0  0  1  0  0  0  0  0999 V2000
  191.7410  175.5070  145.6790 C   0  0  0  0  0  0  0  0  0  0  0  0
  191.9940  173.2360  144.9960 N   0  0  0  0  0  0  0  0  0  0  0  0
  192.4070  176.7950  146.1060 C   0  0  0  0  0  2  0  0  0  0  0  0
  192.4730  174.3890  145.6260 C   0  0  0  0  0  0  0  0  0  0  0  0
  193.1420  172.5280  144.5800 C   0  0  0  0  0  0  0  0  0  0  0  0
  189.6520  171.7010  141.1380 C   0  0  0  0  0  3  0  0  0  0  0  0
  190.8250  173.2940  144.1990 C   0  0  0  0  0  0  0  0  0  0  0  0
  191.8060  170.6800  141.7400 C   0  0  0  0  0  3  0  0  0  0  0  0
  191.7200  171.2550  143.1270 C   0  0  0  0  0  0  0  0  0  0  0  0
  193.8850  174.3690  145.7930 N   0  0  0  0  0  0  0  0  0  0  0  0
  193.0520  171.6570  143.6180 N   0  0  0  0  0  0  0  0  0  0  0  0
  194.6300  175.5770  146.1380 C   0  0  0  0  0  2  0  0  0  0  0  0
  189.9850  174.4530  144.3330 N   0  0  0  0  0  0  0  0  0  0  0  0
  190.3720  175.4820  145.0500 C   0  0  0  0  0  0  0  0  0  0  0  0
  190.6860  172.3820  143.2260 C   0  0  0  0  0  0  0  0  0  0  0  0
  194.4100  173.1940  145.0710 C   0  0  2  0  0  3  0  0  0  0  0  0
  193.7120  176.5520  146.8870 C   0  0  0  0  0  2  0  0  0  0  0  0
  190.8280  170.8570  140.8450 C   0  0  0  0  0  3  0  0  0  0  0  0
  189.5840  172.4350  142.2520 C   0  0  0  0  0  2  0  0  0  0  0  0
  187.8310  177.7140  143.4820 C   0  0  0  0  0  0  0  0  0  0  0  0
  187.6210  178.2910  142.3810 O   0  0  0  0  0  0  0  0  0  0  0  0
  188.2060  176.2940  145.9390 C   0  0  0  0  0  2  0  0  0  0  0  0
  186.6820  177.5040  144.4150 C   0  0  0  0  0  2  0  0  0  0  0  0
  189.4550  176.6680  145.1360 C   0  0  2  0  0  3  0  0  0  0  0  0
  189.1450  177.2190  143.8050 N   0  0  0  0  0  0  0  0  0  0  0  0
  190.2520  177.5400  142.9120 C   0  0  0  0  0  1  0  0  0  0  0  0
  187.1710  177.4000  145.8530 C   0  0  1  0  0  3  0  0  0  0  0  0
  184.8070  177.5430  146.5120 C   0  0  0  0  0  2  0  0  0  0  0  0
  186.0320  177.0830  146.7640 C   0  0  0  0  0  3  0  0  0  0  0  0
  195.2670  173.6470  143.8920 C   0  0  0  0  0  2  0  0  0  0  0  0
  196.6240  172.9720  143.9380 C   0  0  0  0  0  2  0  0  0  0  0  0
  196.9560  172.6060  145.3680 C   0  0  0  0  0  1  0  0  0  0  0  0
  1  3  1  0  0  0  0
  2  4  1  0  0  0  0
  3 17  1  0  0  0  0
  4  1  2  0  0  0  0
  4 10  1  0  0  0  0
  5  2  1  0  0  0  0
  5 16  1  0  0  0  0
  6 19  1  0  0  0  0
  7 13  1  0  0  0  0
  7  2  1  0  0  0  0
  8  9  2  0  0  0  0
  9 15  1  0  0  0  0
  9 11  1  0  0  0  0
 10 12  1  0  0  0  0
 11  5  2  0  0  0  0
 12 17  1  0  0  0  0
 13 14  2  0  0  0  0
 14  1  1  0  0  0  0
 15  7  2  0  0  0  0
 16 30  1  6  0  0  0
 16 10  1  0  0  0  0
 18  6  2  0  0  0  0
 18  8  1  0  0  0  0
 19 15  1  0  0  0  0
 20 25  1  0  0  0  0
 20 23  1  0  0  0  0
 21 20  2  0  0  0  0
 23 27  1  0  0  0  0
 24 14  1  6  0  0  0
 24 22  1  0  0  0  0
 25 24  1  0  0  0  0
 26 25  1  0  0  0  0
 27 22  1  0  0  0  0
 27 29  1  1  0  0  0
 28 29  2  0  0  0  0
 30 31  1  0  0  0  0
 31 32  1  0  0  0  0
M  END
>  <MODEL>
7

>  <REMARK>
 VINA RESULT:      -7.2      3.185      7.612
  Name = 
  4 active torsions:
  status: ('A' for Active; 'I' for Inactive)
    1  A    between atoms: C_13  and  C_18
    2  A    between atoms: C_15  and  C_26
    3  A    between atoms: C_18  and  C_29
    4  A    between atoms: C_20  and  C_27
                            x       y       z     vdW  Elec       q    Type
                         _______ _______ _______ _____ _____    ______ ____

>  <TORSDO>
F 4

$$$$
=
 OpenBabel11052419153D

 32 37  0  0  1  0  0  0  0  0999 V2000
  188.8020  175.2490  143.4230 C   0  0  0  0  0  0  0  0  0  0  0  0
  186.7300  176.0590  144.2820 N   0  0  0  0  0  0  0  0  0  0  0  0
  189.6960  175.0490  142.2200 C   0  0  0  0  0  2  0  0  0  0  0  0
  187.5280  175.6060  143.2270 C   0  0  0  0  0  0  0  0  0  0  0  0
  185.7570  176.8910  143.6890 C   0  0  0  0  0  0  0  0  0  0  0  0
  186.7550  178.8460  148.1500 C   0  0  0  0  0  3  0  0  0  0  0  0
  187.3150  176.3710  145.5330 C   0  0  0  0  0  0  0  0  0  0  0  0
  184.9790  179.1110  146.4700 C   0  0  0  0  0  3  0  0  0  0  0  0
  185.3060  177.7680  145.8760 C   0  0  1  0  0  3  0  0  0  0  0  0
  187.0030  175.9680  141.9560 N   0  0  0  0  0  0  0  0  0  0  0  0
  185.1440  177.7850  144.4090 N   0  0  0  0  0  0  0  0  0  0  0  0
  187.8110  175.8760  140.7420 C   0  0  0  0  0  2  0  0  0  0  0  0
  188.6490  175.8970  145.7810 N   0  0  0  0  0  0  0  0  0  0  0  0
  189.3490  175.3350  144.8240 C   0  0  0  0  0  0  0  0  0  0  0  0
  186.6820  177.2580  146.3150 C   0  0  0  0  0  0  0  0  0  0  0  0
  185.8610  176.8740  142.1780 C   0  0  2  0  0  3  0  0  0  0  0  0
  188.8970  174.8080  140.9260 C   0  0  0  0  0  2  0  0  0  0  0  0
  185.6250  179.5800  147.5430 C   0  0  0  0  0  3  0  0  0  0  0  0
  187.2690  177.7590  147.5680 C   0  0  0  0  0  3  0  0  0  0  0  0
  192.3030  173.2020  144.0340 C   0  0  0  0  0  0  0  0  0  0  0  0
  192.5540  172.0190  143.6800 O   0  0  0  0  0  0  0  0  0  0  0  0
  191.7500  175.9340  144.6880 C   0  0  0  0  0  2  0  0  0  0  0  0
  193.3380  174.2560  143.8070 C   0  0  0  0  0  2  0  0  0  0  0  0
  190.7430  174.8760  145.1440 C   0  0  2  0  0  3  0  0  0  0  0  0
  191.0180  173.5370  144.5930 N   0  0  0  0  0  0  0  0  0  0  0  0
  190.0830  172.4580  144.8910 C   0  0  0  0  0  1  0  0  0  0  0  0
  193.1660  175.3990  144.7990 C   0  0  1  0  0  3  0  0  0  0  0  0
  194.7440  177.1560  145.4790 C   0  0  0  0  0  2  0  0  0  0  0  0
  194.1330  176.4950  144.4970 C   0  0  0  0  0  3  0  0  0  0  0  0
  186.1890  178.2680  141.6500 C   0  0  0  0  0  2  0  0  0  0  0  0
  185.2960  178.6080  140.4720 C   0  0  0  0  0  2  0  0  0  0  0  0
  183.8630  178.2570  140.8100 C   0  0  0  0  0  1  0  0  0  0  0  0
  1 14  1  0  0  0  0
  2  7  1  0  0  0  0
  3  1  1  0  0  0  0
  4  1  2  0  0  0  0
  4  2  1  0  0  0  0
  5  2  1  0  0  0  0
  5 11  2  0  0  0  0
  7 13  1  0  0  0  0
  7 15  2  0  0  0  0
  8 18  2  0  0  0  0
  9 15  1  0  0  0  0
  9  8  1  6  0  0  0
 10 16  1  0  0  0  0
 10  4  1  0  0  0  0
 11  9  1  0  0  0  0
 12 17  1  0  0  0  0
 12 10  1  0  0  0  0
 14 13  2  0  0  0  0
 15 19  1  0  0  0  0
 16 30  1  1  0  0  0
 16  5  1  0  0  0  0
 17  3  1  0  0  0  0
 18  6  1  0  0  0  0
 19  6  2  0  0  0  0
 20 25  1  0  0  0  0
 21 20  2  0  0  0  0
 22 27  1  0  0  0  0
 22 24  1  0  0  0  0
 23 20  1  0  0  0  0
 23 27  1  0  0  0  0
 24 14  1  6  0  0  0
 25 26  1  0  0  0  0
 25 24  1  0  0  0  0
 27 29  1  6  0  0  0
 29 28  2  0  0  0  0
 31 32  1  0  0  0  0
 31 30  1  0  0  0  0
M  END
>  <MODEL>
8

>  <REMARK>
 VINA RESULT:      -7.0      2.116      4.564
  Name = 
  4 active torsions:
  status: ('A' for Active; 'I' for Inactive)
    1  A    between atoms: C_13  and  C_18
    2  A    between atoms: C_15  and  C_26
    3  A    between atoms: C_18  and  C_29
    4  A    between atoms: C_20  and  C_27
                            x       y       z     vdW  Elec       q    Type
                         _______ _______ _______ _____ _____    ______ ____

>  <TORSDO>
F 4

$$$$
=
 OpenBabel11052419153D

 32 37  0  0  1  0  0  0  0  0999 V2000
  188.2270  175.2900  142.7520 C   0  0  0  0  0  0  0  0  0  0  0  0
  190.3600  175.8550  143.6580 N   0  0  0  0  0  0  0  0  0  0  0  0
  187.3780  174.2780  142.0160 C   0  0  0  0  0  2  0  0  0  0  0  0
  189.5530  175.1150  142.7870 C   0  0  0  0  0  0  0  0  0  0  0  0
  191.4950  175.0500  143.8940 C   0  0  0  0  0  0  0  0  0  0  0  0
  190.6160  177.5260  148.1150 C   0  0  0  0  0  3  0  0  0  0  0  0
  189.7720  176.6350  144.6830 C   0  0  0  0  0  0  0  0  0  0  0  0
  192.4990  176.2490  147.1840 C   0  0  0  0  0  3  0  0  0  0  0  0
  191.9740  176.4430  145.7880 C   0  0  1  0  0  3  0  0  0  0  0  0
  190.2010  173.9440  142.3100 N   0  0  0  0  0  0  0  0  0  0  0  0
  192.2160  175.2460  144.9600 N   0  0  0  0  0  0  0  0  0  0  0  0
  189.4570  172.8760  141.6460 C   0  0  0  0  0  2  0  0  0  0  0  0
  188.3640  176.9070  144.5880 N   0  0  0  0  0  0  0  0  0  0  0  0
  187.6290  176.3220  143.6720 C   0  0  0  0  0  0  0  0  0  0  0  0
  190.5080  176.8870  145.7750 C   0  0  0  0  0  0  0  0  0  0  0  0
  191.4720  173.7970  143.0450 C   0  0  2  0  0  3  0  0  0  0  0  0
  188.1910  173.4550  141.0010 C   0  0  0  0  0  2  0  0  0  0  0  0
  191.8890  176.7870  148.2460 C   0  0  0  0  0  3  0  0  0  0  0  0
  189.9510  177.5650  146.9570 C   0  0  0  0  0  3  0  0  0  0  0  0
  184.7510  178.4070  144.7980 C   0  0  0  0  0  0  0  0  0  0  0  0
  184.3020  178.9160  145.8600 O   0  0  0  0  0  0  0  0  0  0  0  0
  185.8280  177.3930  142.3470 C   0  0  0  0  0  2  0  0  0  0  0  0
  184.2990  178.9660  143.4870 C   0  0  0  0  0  2  0  0  0  0  0  0
  186.1610  176.6380  143.6360 C   0  0  2  0  0  3  0  0  0  0  0  0
  185.7240  177.3460  144.8520 N   0  0  0  0  0  0  0  0  0  0  0  0
  186.0530  176.7670  146.1490 C   0  0  0  0  0  1  0  0  0  0  0  0
  184.4030  177.9130  142.3910 C   0  0  1  0  0  3  0  0  0  0  0  0
  182.8630  178.2870  140.5120 C   0  0  0  0  0  2  0  0  0  0  0  0
  184.0530  178.5090  141.0680 C   0  0  0  0  0  3  0  0  0  0  0  0
  191.4230  172.5540  143.9290 C   0  0  0  0  0  2  0  0  0  0  0  0
  192.6860  171.7330  143.7530 C   0  0  0  0  0  2  0  0  0  0  0  0
  192.8790  171.4140  142.2870 C   0  0  0  0  0  1  0  0  0  0  0  0
  1  4  2  0  0  0  0
  1 14  1  0  0  0  0
  2  5  1  0  0  0  0
  2  7  1  0  0  0  0
  3  1  1  0  0  0  0
  4  2  1  0  0  0  0
  5 11  2  0  0  0  0
  6 18  1  0  0  0  0
  7 15  2  0  0  0  0
  8 18  2  0  0  0  0
  9  8  1  1  0  0  0
 10  4  1  0  0  0  0
 10 16  1  0  0  0  0
 11  9  1  0  0  0  0
 12 10  1  0  0  0  0
 13  7  1  0  0  0  0
 14 13  2  0  0  0  0
 15  9  1  0  0  0  0
 15 19  1  0  0  0  0
 16  5  1  0  0  0  0
 16 30  1  1  0  0  0
 17 12  1  0  0  0  0
 17  3  1  0  0  0  0
 19  6  2  0  0  0  0
 20 25  1  0  0  0  0
 20 21  2  0  0  0  0
 22 27  1  0  0  0  0
 22 24  1  0  0  0  0
 23 20  1  0  0  0  0
 24 14  1  1  0  0  0
 24 25  1  0  0  0  0
 25 26  1  0  0  0  0
 27 29  1  6  0  0  0
 27 23  1  0  0  0  0
 28 29  2  0  0  0  0
 31 30  1  0  0  0  0
 32 31  1  0  0  0  0
M  END
>  <MODEL>
9

>  <REMARK>
 VINA RESULT:      -7.0      2.822      7.535
  Name = 
  4 active torsions:
  status: ('A' for Active; 'I' for Inactive)
    1  A    between atoms: C_13  and  C_18
    2  A    between atoms: C_15  and  C_26
    3  A    between atoms: C_18  and  C_29
    4  A    between atoms: C_20  and  C_27
                            x       y       z     vdW  Elec       q    Type
                         _______ _______ _______ _____ _____    ______ ____

>  <TORSDO>
F 4

$$$$
