=
 OpenBabel11052418053D

 28 31  0  0  1  0  0  0  0  0999 V2000
  190.4960  173.6990  144.3160 C   0  0  2  0  0  3  0  0  0  0  0  0
  189.8070  171.9480  140.4380 C   0  0  0  0  0  1  0  0  0  0  0  0
  187.9910  176.1250  142.7520 C   0  0  0  0  0  0  0  0  0  0  0  0
  189.6140  173.9610  141.9330 C   0  0  0  0  0  0  0  0  0  0  0  0
  188.8160  175.4630  143.6690 C   0  0  0  0  0  3  0  0  0  0  0  0
  190.9930  171.9540  142.6040 C   0  0  0  0  0  2  0  0  0  0  0  0
  188.8200  174.6520  141.0060 C   0  0  0  0  0  3  0  0  0  0  0  0
  190.5080  172.8340  141.4570 C   0  0  1  0  0  3  0  0  0  0  0  0
  188.0170  175.7190  141.4100 C   0  0  0  0  0  3  0  0  0  0  0  0
  191.5850  172.8180  143.7030 C   0  0  0  0  0  2  0  0  0  0  0  0
  189.6520  174.4080  143.2750 C   0  0  0  0  0  0  0  0  0  0  0  0
  187.0600  177.5520  144.4890 C   0  0  0  0  0  3  0  0  0  0  0  0
  184.8230  177.7290  142.3580 C   0  0  0  0  0  2  0  0  0  0  0  0
  184.6900  178.2030  144.8510 C   0  0  2  0  0  3  0  0  0  0  0  0
  187.1440  177.2710  143.1810 C   0  0  0  0  0  0  0  0  0  0  0  0
  186.7060  177.9130  140.8820 O   0  0  0  0  0  1  0  0  0  0  0  0
  184.1960  178.5830  143.4560 C   0  0  0  0  0  2  0  0  0  0  0  0
  186.2980  178.0680  142.2070 C   0  0  1  0  0  3  0  0  0  0  0  0
  183.8410  178.9150  145.8810 C   0  0  0  0  0  1  0  0  0  0  0  0
  186.1500  178.6010  145.0520 C   0  0  0  0  0  2  0  0  0  0  0  0
  191.0880  174.6390  145.3330 C   0  0  0  0  0  0  0  0  0  0  0  0
  192.1980  175.3320  145.0510 C   0  0  0  0  0  3  0  0  0  0  0  0
  191.0330  175.6960  147.7010 C   0  0  1  0  0  3  0  0  0  0  0  0
  192.7700  176.2900  146.0110 C   0  0  0  0  0  3  0  0  0  0  0  0
  189.3070  174.2780  146.8600 O   0  0  0  0  0  0  0  0  0  0  0  0
  190.4110  174.8410  146.6310 C   0  0  0  0  0  0  0  0  0  0  0  0
  191.4020  174.9040  148.7720 F   0  0  0  0  0  0  0  0  0  0  0  0
  192.2320  176.4700  147.2190 C   0  0  0  0  0  3  0  0  0  0  0  0
  1 21  1  1  0  0  0
  3 15  1  0  0  0  0
  3  5  1  0  0  0  0
  4 11  1  0  0  0  0
  6 10  1  0  0  0  0
  7  9  1  0  0  0  0
  7  4  2  0  0  0  0
  8  2  1  6  0  0  0
  8  4  1  0  0  0  0
  8  6  1  0  0  0  0
  9  3  2  0  0  0  0
 10  1  1  0  0  0  0
 11  5  2  0  0  0  0
 11  1  1  0  0  0  0
 12 20  1  0  0  0  0
 13 17  1  0  0  0  0
 14 20  1  0  0  0  0
 14 19  1  1  0  0  0
 15 12  2  0  0  0  0
 17 14  1  0  0  0  0
 18 16  1  6  0  0  0
 18 13  1  0  0  0  0
 18 15  1  0  0  0  0
 21 26  1  0  0  0  0
 22 21  2  0  0  0  0
 22 24  1  0  0  0  0
 23 27  1  1  0  0  0
 24 28  2  0  0  0  0
 26 25  2  0  0  0  0
 26 23  1  0  0  0  0
 28 23  1  0  0  0  0
M  END
>  <MODEL>
1

>  <REMARK>
 VINA RESULT:      -8.6      0.000      0.000
  Name = 
  2 active torsions:
  status: ('A' for Active; 'I' for Inactive)
    1  A    between atoms: C_1  and  C_2
    2  A    between atoms: C_10  and  C_13
                            x       y       z     vdW  Elec       q    Type
                         _______ _______ _______ _____ _____    ______ ____

>  <TORSDO>
F 2

$$$$
=
 OpenBabel11052418053D

 28 31  0  0  1  0  0  0  0  0999 V2000
  191.0940  174.9420  144.4360 C   0  0  2  0  0  3  0  0  0  0  0  0
  191.4790  176.6180  148.3880 C   0  0  0  0  0  1  0  0  0  0  0  0
  188.2490  177.4920  144.5270 C   0  0  0  0  0  0  0  0  0  0  0  0
  190.0570  176.2940  146.3390 C   0  0  0  0  0  0  0  0  0  0  0  0
  189.1870  176.5510  144.0850 C   0  0  0  0  0  3  0  0  0  0  0  0
  192.1970  174.9940  146.6730 C   0  0  0  0  0  2  0  0  0  0  0  0
  189.0890  177.2030  146.7900 C   0  0  0  0  0  3  0  0  0  0  0  0
  190.9850  175.6330  147.3400 C   0  0  1  0  0  3  0  0  0  0  0  0
  188.1970  177.7960  145.8950 C   0  0  0  0  0  3  0  0  0  0  0  0
  191.7480  174.0990  145.5310 C   0  0  0  0  0  2  0  0  0  0  0  0
  190.0710  175.9230  144.9730 C   0  0  0  0  0  0  0  0  0  0  0  0
  186.0620  178.4280  144.0150 C   0  0  0  0  0  3  0  0  0  0  0  0
  186.8650  177.3220  141.2380 C   0  0  0  0  0  2  0  0  0  0  0  0
  184.5490  177.8770  142.1230 C   0  0  2  0  0  3  0  0  0  0  0  0
  187.2900  178.1150  143.5760 C   0  0  0  0  0  0  0  0  0  0  0  0
  188.9830  178.2720  141.8450 O   0  0  0  0  0  1  0  0  0  0  0  0
  185.4740  177.8540  140.9080 C   0  0  0  0  0  2  0  0  0  0  0  0
  187.6140  178.3190  142.1090 C   0  0  1  0  0  3  0  0  0  0  0  0
  183.1390  178.1710  141.6590 C   0  0  0  0  0  1  0  0  0  0  0  0
  184.9740  178.9470  143.1250 C   0  0  0  0  0  2  0  0  0  0  0  0
  190.5450  174.0580  143.3460 C   0  0  0  0  0  0  0  0  0  0  0  0
  189.5790  173.1710  143.6150 C   0  0  0  0  0  3  0  0  0  0  0  0
  190.5790  173.2700  140.8750 C   0  0  1  0  0  3  0  0  0  0  0  0
  188.9960  172.3280  142.5590 C   0  0  0  0  0  3  0  0  0  0  0  0
  191.8650  175.1140  141.6790 O   0  0  0  0  0  0  0  0  0  0  0  0
  191.0370  174.2060  141.9610 C   0  0  0  0  0  0  0  0  0  0  0  0
  191.6390  172.4870  140.4600 F   0  0  0  0  0  0  0  0  0  0  0  0
  189.4400  172.3800  141.3010 C   0  0  0  0  0  3  0  0  0  0  0  0
  1 21  1  6  0  0  0
  1 11  1  0  0  0  0
  1 10  1  0  0  0  0
  3  9  1  0  0  0  0
  4  7  1  0  0  0  0
  4  8  1  0  0  0  0
  5  3  2  0  0  0  0
  5 11  1  0  0  0  0
  6  8  1  0  0  0  0
  8  2  1  1  0  0  0
  9  7  2  0  0  0  0
 10  6  1  0  0  0  0
 11  4  2  0  0  0  0
 13 18  1  0  0  0  0
 14 19  1  6  0  0  0
 14 20  1  0  0  0  0
 15 12  2  0  0  0  0
 15  3  1  0  0  0  0
 17 13  1  0  0  0  0
 17 14  1  0  0  0  0
 18 16  1  1  0  0  0
 18 15  1  0  0  0  0
 20 12  1  0  0  0  0
 21 22  2  0  0  0  0
 23 27  1  1  0  0  0
 23 28  1  0  0  0  0
 23 26  1  0  0  0  0
 24 22  1  0  0  0  0
 25 26  2  0  0  0  0
 26 21  1  0  0  0  0
 28 24  2  0  0  0  0
M  END
>  <MODEL>
2

>  <REMARK>
 VINA RESULT:      -8.6      2.446      4.732
  Name = 
  2 active torsions:
  status: ('A' for Active; 'I' for Inactive)
    1  A    between atoms: C_1  and  C_2
    2  A    between atoms: C_10  and  C_13
                            x       y       z     vdW  Elec       q    Type
                         _______ _______ _______ _____ _____    ______ ____

>  <TORSDO>
F 2

$$$$
=
 OpenBabel11052418053D

 28 31  0  0  1  0  0  0  0  0999 V2000
  186.3400  178.5930  143.7230 C   0  0  2  0  0  3  0  0  0  0  0  0
  186.8460  177.2680  139.6520 C   0  0  0  0  0  1  0  0  0  0  0  0
  189.8060  176.9850  143.8060 C   0  0  0  0  0  0  0  0  0  0  0  0
  187.5980  177.1310  142.0480 C   0  0  0  0  0  0  0  0  0  0  0  0
  188.6580  177.7070  144.1570 C   0  0  0  0  0  3  0  0  0  0  0  0
  185.4520  178.2990  141.4100 C   0  0  0  0  0  2  0  0  0  0  0  0
  188.7300  176.3730  141.7150 C   0  0  0  0  0  3  0  0  0  0  0  0
  186.4120  177.1540  141.1050 C   0  0  1  0  0  3  0  0  0  0  0  0
  189.8210  176.3020  142.5820 C   0  0  0  0  0  3  0  0  0  0  0  0
  185.0950  178.2960  142.8860 C   0  0  0  0  0  2  0  0  0  0  0  0
  187.5410  177.7650  143.3120 C   0  0  0  0  0  0  0  0  0  0  0  0
  192.1960  177.1110  144.2480 C   0  0  0  0  0  3  0  0  0  0  0  0
  191.3300  175.0750  146.4130 C   0  0  0  0  0  2  0  0  0  0  0  0
  193.6390  175.4680  145.4270 C   0  0  2  0  0  3  0  0  0  0  0  0
  190.9650  176.9000  144.7360 C   0  0  0  0  0  0  0  0  0  0  0  0
  189.5070  176.6180  146.6560 O   0  0  0  0  0  1  0  0  0  0  0  0
  192.8330  175.0980  146.6720 C   0  0  0  0  0  2  0  0  0  0  0  0
  190.8150  176.4890  146.1880 C   0  0  1  0  0  3  0  0  0  0  0  0
  195.1060  175.2200  145.7030 C   0  0  0  0  0  1  0  0  0  0  0  0
  193.4460  176.9360  145.0560 C   0  0  0  0  0  2  0  0  0  0  0  0
  186.0260  178.4860  145.1920 C   0  0  0  0  0  0  0  0  0  0  0  0
  185.9710  179.5840  145.9560 C   0  0  0  0  0  3  0  0  0  0  0  0
  185.5070  177.0200  147.2680 C   0  0  1  0  0  3  0  0  0  0  0  0
  185.6240  179.5100  147.3840 C   0  0  0  0  0  3  0  0  0  0  0  0
  185.6630  176.1440  145.0520 O   0  0  0  0  0  0  0  0  0  0  0  0
  185.7240  177.1670  145.7860 C   0  0  0  0  0  0  0  0  0  0  0  0
  186.5410  176.2870  147.8170 F   0  0  0  0  0  0  0  0  0  0  0  0
  185.3970  178.3400  147.9850 C   0  0  0  0  0  3  0  0  0  0  0  0
  1 21  1  1  0  0  0
  3  5  1  0  0  0  0
  3 15  1  0  0  0  0
  4 11  1  0  0  0  0
  6 10  1  0  0  0  0
  7  4  2  0  0  0  0
  7  9  1  0  0  0  0
  8  2  1  6  0  0  0
  8  6  1  0  0  0  0
  8  4  1  0  0  0  0
  9  3  2  0  0  0  0
 10  1  1  0  0  0  0
 11  1  1  0  0  0  0
 11  5  2  0  0  0  0
 12 15  2  0  0  0  0
 12 20  1  0  0  0  0
 13 17  1  0  0  0  0
 14 19  1  1  0  0  0
 14 17  1  0  0  0  0
 15 18  1  0  0  0  0
 18 13  1  0  0  0  0
 18 16  1  6  0  0  0
 20 14  1  0  0  0  0
 21 26  1  0  0  0  0
 21 22  2  0  0  0  0
 22 24  1  0  0  0  0
 23 27  1  1  0  0  0
 23 28  1  0  0  0  0
 24 28  2  0  0  0  0
 25 26  2  0  0  0  0
 26 23  1  0  0  0  0
M  END
>  <MODEL>
3

>  <REMARK>
 VINA RESULT:      -8.5      2.479      6.549
  Name = 
  2 active torsions:
  status: ('A' for Active; 'I' for Inactive)
    1  A    between atoms: C_1  and  C_2
    2  A    between atoms: C_10  and  C_13
                            x       y       z     vdW  Elec       q    Type
                         _______ _______ _______ _____ _____    ______ ____

>  <TORSDO>
F 2

$$$$
=
 OpenBabel11052418053D

 28 31  0  0  1  0  0  0  0  0999 V2000
  192.3600  174.6310  143.6860 C   0  0  2  0  0  3  0  0  0  0  0  0
  194.5390  176.7860  146.7170 C   0  0  0  0  0  1  0  0  0  0  0  0
  189.5890  176.5670  145.4730 C   0  0  0  0  0  0  0  0  0  0  0  0
  192.3220  175.9600  145.8680 C   0  0  0  0  0  0  0  0  0  0  0  0
  190.2900  175.7850  144.5460 C   0  0  0  0  0  3  0  0  0  0  0  0
  194.4950  175.1520  144.8660 C   0  0  0  0  0  2  0  0  0  0  0  0
  191.6090  176.7060  146.8180 C   0  0  0  0  0  3  0  0  0  0  0  0
  193.7730  175.6110  146.1290 C   0  0  1  0  0  3  0  0  0  0  0  0
  190.2600  177.0080  146.6220 C   0  0  0  0  0  3  0  0  0  0  0  0
  193.6900  174.0620  144.1790 C   0  0  0  0  0  2  0  0  0  0  0  0
  191.6370  175.4470  144.7410 C   0  0  0  0  0  0  0  0  0  0  0  0
  187.7750  177.4720  144.1270 C   0  0  0  0  0  3  0  0  0  0  0  0
  186.6560  177.9470  146.9740 C   0  0  0  0  0  2  0  0  0  0  0  0
  186.0120  179.0890  144.7960 C   0  0  2  0  0  3  0  0  0  0  0  0
  188.1480  176.8780  145.2700 C   0  0  0  0  0  0  0  0  0  0  0  0
  187.5300  175.7400  147.3220 O   0  0  0  0  0  1  0  0  0  0  0  0
  185.5320  178.5690  146.1510 C   0  0  0  0  0  2  0  0  0  0  0  0
  187.1050  176.6380  146.3430 C   0  0  1  0  0  3  0  0  0  0  0  0
  184.9040  179.9040  144.1650 C   0  0  0  0  0  1  0  0  0  0  0  0
  186.3780  177.9410  143.8590 C   0  0  0  0  0  2  0  0  0  0  0  0
  191.5040  173.5400  143.0990 C   0  0  0  0  0  0  0  0  0  0  0  0
  190.9110  172.6400  143.8940 C   0  0  0  0  0  3  0  0  0  0  0  0
  190.5040  172.3550  141.0190 C   0  0  1  0  0  3  0  0  0  0  0  0
  190.0350  171.5910  143.3480 C   0  0  0  0  0  3  0  0  0  0  0  0
  191.7330  174.3990  140.8980 O   0  0  0  0  0  0  0  0  0  0  0  0
  191.2710  173.4910  141.6410 C   0  0  0  0  0  0  0  0  0  0  0  0
  191.3530  171.5960  140.2370 F   0  0  0  0  0  0  0  0  0  0  0  0
  189.8350  171.4660  142.0340 C   0  0  0  0  0  3  0  0  0  0  0  0
  1 21  1  1  0  0  0
  1 10  1  0  0  0  0
  1 11  1  0  0  0  0
  3  9  1  0  0  0  0
  4  8  1  0  0  0  0
  4  7  1  0  0  0  0
  5 11  1  0  0  0  0
  5  3  2  0  0  0  0
  6  8  1  0  0  0  0
  8  2  1  6  0  0  0
  9  7  2  0  0  0  0
 10  6  1  0  0  0  0
 11  4  2  0  0  0  0
 12 15  2  0  0  0  0
 14 19  1  6  0  0  0
 14 17  1  0  0  0  0
 15  3  1  0  0  0  0
 15 18  1  0  0  0  0
 17 13  1  0  0  0  0
 18 13  1  0  0  0  0
 18 16  1  1  0  0  0
 20 12  1  0  0  0  0
 20 14  1  0  0  0  0
 21 22  2  0  0  0  0
 23 27  1  1  0  0  0
 23 26  1  0  0  0  0
 23 28  1  0  0  0  0
 24 22  1  0  0  0  0
 25 26  2  0  0  0  0
 26 21  1  0  0  0  0
 28 24  2  0  0  0  0
M  END
>  <MODEL>
4

>  <REMARK>
 VINA RESULT:      -8.3      2.616      5.094
  Name = 
  2 active torsions:
  status: ('A' for Active; 'I' for Inactive)
    1  A    between atoms: C_1  and  C_2
    2  A    between atoms: C_10  and  C_13
                            x       y       z     vdW  Elec       q    Type
                         _______ _______ _______ _____ _____    ______ ____

>  <TORSDO>
F 2

$$$$
=
 OpenBabel11052418053D

 28 31  0  0  1  0  0  0  0  0999 V2000
  186.7510  178.0750  143.7190 C   0  0  2  0  0  3  0  0  0  0  0  0
  187.0790  176.9630  139.5680 C   0  0  0  0  0  1  0  0  0  0  0  0
  190.0270  176.1070  143.6510 C   0  0  0  0  0  0  0  0  0  0  0  0
  187.8320  176.5970  141.9380 C   0  0  0  0  0  0  0  0  0  0  0  0
  188.9650  176.9220  144.0630 C   0  0  0  0  0  3  0  0  0  0  0  0
  185.8170  178.0240  141.4060 C   0  0  0  0  0  2  0  0  0  0  0  0
  188.8740  175.7450  141.5420 C   0  0  0  0  0  3  0  0  0  0  0  0
  186.6470  176.8050  141.0170 C   0  0  1  0  0  3  0  0  0  0  0  0
  189.9590  175.5050  142.3870 C   0  0  0  0  0  3  0  0  0  0  0  0
  185.4740  177.9650  142.8850 C   0  0  0  0  0  2  0  0  0  0  0  0
  187.8540  177.1520  143.2400 C   0  0  0  0  0  0  0  0  0  0  0  0
  192.2560  176.6330  144.4730 C   0  0  0  0  0  3  0  0  0  0  0  0
  192.1700  173.5830  144.9920 C   0  0  0  0  0  2  0  0  0  0  0  0
  194.1920  175.1060  144.7760 C   0  0  2  0  0  3  0  0  0  0  0  0
  191.1770  175.8410  144.5570 C   0  0  0  0  0  0  0  0  0  0  0  0
  189.9510  174.1120  145.7390 O   0  0  0  0  0  1  0  0  0  0  0  0
  193.5900  173.8810  145.4620 C   0  0  0  0  0  2  0  0  0  0  0  0
  191.2150  174.6530  145.4980 C   0  0  1  0  0  3  0  0  0  0  0  0
  195.6670  175.1760  145.1060 C   0  0  0  0  0  1  0  0  0  0  0  0
  193.5180  176.3930  145.2440 C   0  0  0  0  0  2  0  0  0  0  0  0
  186.4400  177.9090  145.1840 C   0  0  0  0  0  0  0  0  0  0  0  0
  186.8020  176.7950  145.8320 C   0  0  0  0  0  3  0  0  0  0  0  0
  185.3690  178.8250  147.3610 C   0  0  1  0  0  3  0  0  0  0  0  0
  186.5480  176.6280  147.2720 C   0  0  0  0  0  3  0  0  0  0  0  0
  185.5370  180.0990  145.3490 O   0  0  0  0  0  0  0  0  0  0  0  0
  185.7800  179.0040  145.9240 C   0  0  0  0  0  0  0  0  0  0  0  0
  183.9900  178.8270  147.4530 F   0  0  0  0  0  0  0  0  0  0  0  0
  185.9060  177.5610  147.9790 C   0  0  0  0  0  3  0  0  0  0  0  0
  1 21  1  1  0  0  0
  3  5  1  0  0  0  0
  3 15  1  0  0  0  0
  4 11  1  0  0  0  0
  6 10  1  0  0  0  0
  7  4  2  0  0  0  0
  7  9  1  0  0  0  0
  8  2  1  6  0  0  0
  8  6  1  0  0  0  0
  8  4  1  0  0  0  0
  9  3  2  0  0  0  0
 10  1  1  0  0  0  0
 11  1  1  0  0  0  0
 11  5  2  0  0  0  0
 12 15  2  0  0  0  0
 12 20  1  0  0  0  0
 13 17  1  0  0  0  0
 13 18  1  0  0  0  0
 14 19  1  1  0  0  0
 14 20  1  0  0  0  0
 14 17  1  0  0  0  0
 15 18  1  0  0  0  0
 18 16  1  6  0  0  0
 21 22  2  0  0  0  0
 21 26  1  0  0  0  0
 22 24  1  0  0  0  0
 23 27  1  6  0  0  0
 23 28  1  0  0  0  0
 24 28  2  0  0  0  0
 25 26  2  0  0  0  0
 26 23  1  0  0  0  0
M  END
>  <MODEL>
5

>  <REMARK>
 VINA RESULT:      -8.3      2.526      6.711
  Name = 
  2 active torsions:
  status: ('A' for Active; 'I' for Inactive)
    1  A    between atoms: C_1  and  C_2
    2  A    between atoms: C_10  and  C_13
                            x       y       z     vdW  Elec       q    Type
                         _______ _______ _______ _____ _____    ______ ____

>  <TORSDO>
F 2

$$$$
=
 OpenBabel11052418053D

 28 31  0  0  1  0  0  0  0  0999 V2000
  185.4600  177.4470  144.2000 C   0  0  2  0  0  3  0  0  0  0  0  0
  185.8530  178.4780  148.3670 C   0  0  0  0  0  1  0  0  0  0  0  0
  188.9130  176.0550  145.0700 C   0  0  0  0  0  0  0  0  0  0  0  0
  186.9720  177.7480  146.2370 C   0  0  0  0  0  0  0  0  0  0  0  0
  187.7170  176.3410  144.4010 C   0  0  0  0  0  3  0  0  0  0  0  0
  184.5810  178.5600  146.2520 C   0  0  0  0  0  2  0  0  0  0  0  0
  188.1890  177.4960  146.8890 C   0  0  0  0  0  3  0  0  0  0  0  0
  185.9700  178.6940  146.8660 C   0  0  1  0  0  3  0  0  0  0  0  0
  189.1460  176.6600  146.3140 C   0  0  0  0  0  3  0  0  0  0  0  0
  184.6750  178.6430  144.7380 C   0  0  0  0  0  2  0  0  0  0  0  0
  186.7560  177.2030  144.9490 C   0  0  0  0  0  0  0  0  0  0  0  0
  190.0180  173.8980  144.8600 C   0  0  0  0  0  3  0  0  0  0  0  0
  192.3360  175.7960  144.0830 C   0  0  0  0  0  2  0  0  0  0  0  0
  192.4510  173.3960  144.9090 C   0  0  2  0  0  3  0  0  0  0  0  0
  189.9390  175.1730  144.4520 C   0  0  0  0  0  0  0  0  0  0  0  0
  190.5820  176.8950  142.8680 O   0  0  0  0  0  1  0  0  0  0  0  0
  193.0640  174.4580  143.9980 C   0  0  0  0  0  2  0  0  0  0  0  0
  190.9570  175.6840  143.4520 C   0  0  1  0  0  3  0  0  0  0  0  0
  193.3740  172.1980  144.9530 C   0  0  0  0  0  1  0  0  0  0  0  0
  191.0830  172.9490  144.4010 C   0  0  0  0  0  2  0  0  0  0  0  0
  185.6560  177.5700  142.7120 C   0  0  0  0  0  0  0  0  0  0  0  0
  186.8620  177.3660  142.1670 C   0  0  0  0  0  3  0  0  0  0  0  0
  184.6860  178.0930  140.3630 C   0  0  1  0  0  3  0  0  0  0  0  0
  187.0690  177.4370  140.7110 C   0  0  0  0  0  3  0  0  0  0  0  0
  183.3430  177.9490  142.3320 O   0  0  0  0  0  0  0  0  0  0  0  0
  184.5010  177.8660  141.8400 C   0  0  0  0  0  0  0  0  0  0  0  0
  184.4060  179.4110  140.0580 F   0  0  0  0  0  0  0  0  0  0  0  0
  186.0730  177.7560  139.8810 C   0  0  0  0  0  3  0  0  0  0  0  0
  1 21  1  6  0  0  0
  1 10  1  0  0  0  0
  1 11  1  0  0  0  0
  3  9  1  0  0  0  0
  4  8  1  0  0  0  0
  4  7  1  0  0  0  0
  5 11  1  0  0  0  0
  5  3  2  0  0  0  0
  6  8  1  0  0  0  0
  8  2  1  1  0  0  0
  9  7  2  0  0  0  0
 10  6  1  0  0  0  0
 11  4  2  0  0  0  0
 14 19  1  6  0  0  0
 15 12  2  0  0  0  0
 15  3  1  0  0  0  0
 17 13  1  0  0  0  0
 17 14  1  0  0  0  0
 18 16  1  1  0  0  0
 18 13  1  0  0  0  0
 18 15  1  0  0  0  0
 20 12  1  0  0  0  0
 20 14  1  0  0  0  0
 22 21  2  0  0  0  0
 23 27  1  1  0  0  0
 23 26  1  0  0  0  0
 24 22  1  0  0  0  0
 26 25  2  0  0  0  0
 26 21  1  0  0  0  0
 28 23  1  0  0  0  0
 28 24  2  0  0  0  0
M  END
>  <MODEL>
6

>  <REMARK>
 VINA RESULT:      -8.0      3.169      7.807
  Name = 
  2 active torsions:
  status: ('A' for Active; 'I' for Inactive)
    1  A    between atoms: C_1  and  C_2
    2  A    between atoms: C_10  and  C_13
                            x       y       z     vdW  Elec       q    Type
                         _______ _______ _______ _____ _____    ______ ____

>  <TORSDO>
F 2

$$$$
=
 OpenBabel11052418053D

 28 31  0  0  1  0  0  0  0  0999 V2000
  186.1990  178.0790  142.6460 C   0  0  2  0  0  3  0  0  0  0  0  0
  186.8270  176.9140  138.5440 C   0  0  0  0  0  1  0  0  0  0  0  0
  189.2290  175.7640  142.9040 C   0  0  0  0  0  0  0  0  0  0  0  0
  187.2890  176.4810  140.9780 C   0  0  0  0  0  0  0  0  0  0  0  0
  188.2270  176.6930  143.2090 C   0  0  0  0  0  3  0  0  0  0  0  0
  185.5070  178.1170  140.2500 C   0  0  0  0  0  2  0  0  0  0  0  0
  188.2660  175.5180  140.6860 C   0  0  0  0  0  3  0  0  0  0  0  0
  186.2340  176.8120  139.9410 C   0  0  1  0  0  3  0  0  0  0  0  0
  189.2250  175.1650  141.6350 C   0  0  0  0  0  3  0  0  0  0  0  0
  185.0100  178.1050  141.6850 C   0  0  0  0  0  2  0  0  0  0  0  0
  187.2370  177.0380  142.2780 C   0  0  0  0  0  0  0  0  0  0  0  0
  189.8350  174.7340  145.0230 C   0  0  0  0  0  3  0  0  0  0  0  0
  192.0540  176.8790  144.7840 C   0  0  0  0  0  2  0  0  0  0  0  0
  191.2170  175.6770  146.8610 C   0  0  2  0  0  3  0  0  0  0  0  0
  190.2450  175.3780  143.9210 C   0  0  0  0  0  0  0  0  0  0  0  0
  192.0660  176.1290  142.5050 O   0  0  0  0  0  1  0  0  0  0  0  0
  192.4200  176.2850  146.1410 C   0  0  0  0  0  2  0  0  0  0  0  0
  191.7040  175.7700  143.8030 C   0  0  1  0  0  3  0  0  0  0  0  0
  191.6140  175.3460  148.2830 C   0  0  0  0  0  1  0  0  0  0  0  0
  190.7420  174.4020  146.1700 C   0  0  0  0  0  2  0  0  0  0  0  0
  185.7230  177.9570  144.0700 C   0  0  0  0  0  0  0  0  0  0  0  0
  185.7990  176.7850  144.7120 C   0  0  0  0  0  3  0  0  0  0  0  0
  184.6460  179.0340  146.1700 C   0  0  1  0  0  3  0  0  0  0  0  0
  185.3820  176.6510  146.1180 C   0  0  0  0  0  3  0  0  0  0  0  0
  185.2490  180.2780  144.2230 O   0  0  0  0  0  0  0  0  0  0  0  0
  185.2190  179.1490  144.7820 C   0  0  0  0  0  0  0  0  0  0  0  0
  183.2920  179.3040  146.1350 F   0  0  0  0  0  0  0  0  0  0  0  0
  184.8670  177.6810  146.7920 C   0  0  0  0  0  3  0  0  0  0  0  0
  1 21  1  1  0  0  0
  3  5  1  0  0  0  0
  3 15  1  0  0  0  0
  4 11  1  0  0  0  0
  6 10  1  0  0  0  0
  7  4  2  0  0  0  0
  7  9  1  0  0  0  0
  8  2  1  6  0  0  0
  8  6  1  0  0  0  0
  8  4  1  0  0  0  0
  9  3  2  0  0  0  0
 10  1  1  0  0  0  0
 11  1  1  0  0  0  0
 11  5  2  0  0  0  0
 12 20  1  0  0  0  0
 13 17  1  0  0  0  0
 14 19  1  1  0  0  0
 15 12  2  0  0  0  0
 17 14  1  0  0  0  0
 18 16  1  6  0  0  0
 18 15  1  0  0  0  0
 18 13  1  0  0  0  0
 20 14  1  0  0  0  0
 21 22  2  0  0  0  0
 21 26  1  0  0  0  0
 22 24  1  0  0  0  0
 23 27  1  6  0  0  0
 23 28  1  0  0  0  0
 24 28  2  0  0  0  0
 25 26  2  0  0  0  0
 26 23  1  0  0  0  0
M  END
>  <MODEL>
7

>  <REMARK>
 VINA RESULT:      -8.0      2.716      6.431
  Name = 
  2 active torsions:
  status: ('A' for Active; 'I' for Inactive)
    1  A    between atoms: C_1  and  C_2
    2  A    between atoms: C_10  and  C_13
                            x       y       z     vdW  Elec       q    Type
                         _______ _______ _______ _____ _____    ______ ____

>  <TORSDO>
F 2

$$$$
=
 OpenBabel11052418053D

 28 31  0  0  1  0  0  0  0  0999 V2000
  187.8760  177.7130  145.7000 C   0  0  2  0  0  3  0  0  0  0  0  0
  184.1180  179.1270  144.1330 C   0  0  0  0  0  1  0  0  0  0  0  0
  187.7310  176.0320  142.2700 C   0  0  0  0  0  0  0  0  0  0  0  0
  185.9990  177.4650  143.9840 C   0  0  0  0  0  0  0  0  0  0  0  0
  188.1800  176.5030  143.5100 C   0  0  0  0  0  3  0  0  0  0  0  0
  185.7580  179.0020  145.9750 C   0  0  0  0  0  2  0  0  0  0  0  0
  185.5370  176.9560  142.7620 C   0  0  0  0  0  3  0  0  0  0  0  0
  185.0370  178.1910  144.9030 C   0  0  1  0  0  3  0  0  0  0  0  0
  186.3920  176.2500  141.9150 C   0  0  0  0  0  3  0  0  0  0  0  0
  186.7800  178.1290  146.6820 C   0  0  0  0  0  2  0  0  0  0  0  0
  187.3270  177.1890  144.3870 C   0  0  0  0  0  0  0  0  0  0  0  0
  188.1930  174.9160  140.1580 C   0  0  0  0  0  3  0  0  0  0  0  0
  190.0120  173.2910  142.0630 C   0  0  0  0  0  2  0  0  0  0  0  0
  189.1050  172.6360  139.7810 C   0  0  2  0  0  3  0  0  0  0  0  0
  188.6390  175.2680  141.3730 C   0  0  0  0  0  0  0  0  0  0  0  0
  190.4870  175.4770  142.9300 O   0  0  0  0  0  1  0  0  0  0  0  0
  190.2750  172.5420  140.7600 C   0  0  0  0  0  2  0  0  0  0  0  0
  190.0080  174.7910  141.8140 C   0  0  1  0  0  3  0  0  0  0  0  0
  189.3430  171.6690  138.6410 C   0  0  0  0  0  1  0  0  0  0  0  0
  188.9660  174.0460  139.2140 C   0  0  0  0  0  2  0  0  0  0  0  0
  188.8390  176.7590  146.3580 C   0  0  0  0  0  0  0  0  0  0  0  0
  188.3860  175.6920  147.0270 C   0  0  0  0  0  3  0  0  0  0  0  0
  191.2750  176.0910  146.9470 C   0  0  1  0  0  3  0  0  0  0  0  0
  189.3070  174.7220  147.6410 C   0  0  0  0  0  3  0  0  0  0  0  0
  190.7290  177.9070  145.4970 O   0  0  0  0  0  0  0  0  0  0  0  0
  190.2940  176.9700  146.2180 C   0  0  0  0  0  0  0  0  0  0  0  0
  191.9330  176.8310  147.9110 F   0  0  0  0  0  0  0  0  0  0  0  0
  190.6300  174.8930  147.5940 C   0  0  0  0  0  3  0  0  0  0  0  0
  1 21  1  1  0  0  0
  1 10  1  0  0  0  0
  3  5  1  0  0  0  0
  4 11  1  0  0  0  0
  4  8  1  0  0  0  0
  5 11  2  0  0  0  0
  6 10  1  0  0  0  0
  7  4  2  0  0  0  0
  8  2  1  6  0  0  0
  8  6  1  0  0  0  0
  9  3  2  0  0  0  0
  9  7  1  0  0  0  0
 11  1  1  0  0  0  0
 12 15  2  0  0  0  0
 14 19  1  6  0  0  0
 14 17  1  0  0  0  0
 15 18  1  0  0  0  0
 15  3  1  0  0  0  0
 17 13  1  0  0  0  0
 18 13  1  0  0  0  0
 18 16  1  1  0  0  0
 20 14  1  0  0  0  0
 20 12  1  0  0  0  0
 21 22  2  0  0  0  0
 22 24  1  0  0  0  0
 23 28  1  0  0  0  0
 23 27  1  1  0  0  0
 25 26  2  0  0  0  0
 26 21  1  0  0  0  0
 26 23  1  0  0  0  0
 28 24  2  0  0  0  0
M  END
>  <MODEL>
8

>  <REMARK>
 VINA RESULT:      -8.0      1.825      5.903
  Name = 
  2 active torsions:
  status: ('A' for Active; 'I' for Inactive)
    1  A    between atoms: C_1  and  C_2
    2  A    between atoms: C_10  and  C_13
                            x       y       z     vdW  Elec       q    Type
                         _______ _______ _______ _____ _____    ______ ____

>  <TORSDO>
F 2

$$$$
=
 OpenBabel11052418053D

 28 31  0  0  1  0  0  0  0  0999 V2000
  192.9030  173.7650  143.0690 C   0  0  2  0  0  3  0  0  0  0  0  0
  196.0680  174.5300  145.8940 C   0  0  0  0  0  1  0  0  0  0  0  0
  191.2160  176.1010  145.5810 C   0  0  0  0  0  0  0  0  0  0  0  0
  193.6080  174.6090  145.3750 C   0  0  0  0  0  0  0  0  0  0  0  0
  191.4800  175.3260  144.4450 C   0  0  0  0  0  3  0  0  0  0  0  0
  195.2250  173.3650  143.8860 C   0  0  0  0  0  2  0  0  0  0  0  0
  193.3240  175.3510  146.5310 C   0  0  0  0  0  3  0  0  0  0  0  0
  194.8780  173.7840  145.3110 C   0  0  1  0  0  3  0  0  0  0  0  0
  192.1440  176.0890  146.6320 C   0  0  0  0  0  3  0  0  0  0  0  0
  194.0160  172.7280  143.2250 C   0  0  0  0  0  2  0  0  0  0  0  0
  192.6470  174.5550  144.3380 C   0  0  0  0  0  0  0  0  0  0  0  0
  189.1080  176.5870  146.6950 C   0  0  0  0  0  3  0  0  0  0  0  0
  188.4110  177.3990  143.7900 C   0  0  0  0  0  2  0  0  0  0  0  0
  186.8430  176.7910  145.6960 C   0  0  2  0  0  3  0  0  0  0  0  0
  189.9520  176.8780  145.6940 C   0  0  0  0  0  0  0  0  0  0  0  0
  190.6070  178.3610  143.8890 O   0  0  0  0  0  1  0  0  0  0  0  0
  187.0640  177.6590  144.4580 C   0  0  0  0  0  2  0  0  0  0  0  0
  189.5400  177.9160  144.6690 C   0  0  1  0  0  3  0  0  0  0  0  0
  185.4020  176.9280  146.1380 C   0  0  0  0  0  1  0  0  0  0  0  0
  187.7560  177.2150  146.8430 C   0  0  0  0  0  2  0  0  0  0  0  0
  191.6580  173.1240  142.5140 C   0  0  0  0  0  0  0  0  0  0  0  0
  190.8750  172.3720  143.2980 C   0  0  0  0  0  3  0  0  0  0  0  0
  190.0840  172.6620  140.5040 C   0  0  1  0  0  3  0  0  0  0  0  0
  189.6310  171.7710  142.7910 C   0  0  0  0  0  3  0  0  0  0  0  0
  191.9360  174.1650  140.3990 O   0  0  0  0  0  0  0  0  0  0  0  0
  191.2660  173.3690  141.1110 C   0  0  0  0  0  0  0  0  0  0  0  0
  190.5190  171.7830  139.5310 F   0  0  0  0  0  0  0  0  0  0  0  0
  189.2580  171.9140  141.5170 C   0  0  0  0  0  3  0  0  0  0  0  0
  1 21  1  1  0  0  0
  1 10  1  0  0  0  0
  1 11  1  0  0  0  0
  3 15  1  0  0  0  0
  3  9  1  0  0  0  0
  4  7  1  0  0  0  0
  5  3  2  0  0  0  0
  6  8  1  0  0  0  0
  7  9  2  0  0  0  0
  8  4  1  0  0  0  0
  8  2  1  6  0  0  0
 10  6  1  0  0  0  0
 11  5  1  0  0  0  0
 11  4  2  0  0  0  0
 12 20  1  0  0  0  0
 13 17  1  0  0  0  0
 13 18  1  0  0  0  0
 14 19  1  1  0  0  0
 14 20  1  0  0  0  0
 15 12  2  0  0  0  0
 17 14  1  0  0  0  0
 18 16  1  6  0  0  0
 18 15  1  0  0  0  0
 21 22  2  0  0  0  0
 23 27  1  6  0  0  0
 23 26  1  0  0  0  0
 23 28  1  0  0  0  0
 24 22  1  0  0  0  0
 25 26  2  0  0  0  0
 26 21  1  0  0  0  0
 28 24  2  0  0  0  0
M  END
>  <MODEL>
9

>  <REMARK>
 VINA RESULT:      -8.0      3.015      5.293
  Name = 
  2 active torsions:
  status: ('A' for Active; 'I' for Inactive)
    1  A    between atoms: C_1  and  C_2
    2  A    between atoms: C_10  and  C_13
                            x       y       z     vdW  Elec       q    Type
                         _______ _______ _______ _____ _____    ______ ____

>  <TORSDO>
F 2

$$$$
