=
 OpenBabel11052418313D

 27 32  0  0  1  0  0  0  0  0999 V2000
  189.0240  176.1870  145.5350 C   0  0  2  0  0  3  0  0  0  0  0  0
  188.8210  175.9630  144.0620 C   0  0  0  0  0  0  0  0  0  0  0  0
  190.2870  174.3440  144.6820 C   0  0  2  0  0  0  0  0  0  0  0  0
  188.0780  174.8060  140.3270 N   0  0  0  0  0  0  0  0  0  0  0  0
  189.7050  173.6570  138.9310 C   0  0  0  0  0  1  0  0  0  0  0  0
  188.0570  176.8610  143.1700 C   0  0  0  0  0  3  0  0  0  0  0  0
  189.5120  172.9590  141.5760 S   0  0  0  0  0  0  0  0  0  0  0  0
  192.5080  175.1540  146.2630 C   0  0  0  0  0  0  0  0  0  0  0  0
  190.4190  172.8470  144.7860 C   0  0  0  0  0  2  0  0  0  0  0  0
  193.6800  175.7410  146.7230 O   0  0  0  0  0  1  0  0  0  0  0  0
  189.6400  174.6940  142.1040 C   0  0  1  0  0  3  0  0  0  0  0  0
  188.6810  173.5150  140.0430 C   0  0  1  0  0  3  0  0  0  0  0  0
  188.5550  175.4020  141.3630 C   0  0  0  0  0  0  0  0  0  0  0  0
  190.0530  175.1260  145.9700 C   0  0  1  0  0  3  0  0  0  0  0  0
  189.4700  174.9060  143.5880 C   0  0  0  0  0  0  0  0  0  0  0  0
  192.5810  173.8090  145.5920 C   0  0  0  0  0  2  0  0  0  0  0  0
  187.9300  176.5740  141.9070 N   0  0  0  0  0  0  0  0  0  0  0  0
  191.2840  176.9790  147.1290 O   0  0  0  0  0  1  0  0  0  0  0  0
  191.3310  175.7660  146.4490 C   0  0  0  0  0  0  0  0  0  0  0  0
  191.6340  173.7000  144.3930 C   0  0  2  0  0  3  0  0  0  0  0  0
  187.7160  176.0340  146.3130 C   0  0  0  0  0  2  0  0  0  0  0  0
  184.5310  178.7200  146.9530 C   0  0  0  0  0  2  0  0  0  0  0  0
  186.8800  177.2200  146.1820 N   0  0  0  0  0  0  0  0  0  0  0  0
  186.7930  177.8300  147.5080 C   0  0  0  0  0  2  0  0  0  0  0  0
  185.9290  179.0870  147.4430 C   0  0  0  0  0  2  0  0  0  0  0  0
  184.6140  177.9590  145.6330 C   0  0  0  0  0  2  0  0  0  0  0  0
  185.5470  176.7610  145.7940 C   0  0  0  0  0  2  0  0  0  0  0  0
  1 14  1  0  0  0  0
  1 21  1  1  0  0  0
  2  1  1  0  0  0  0
  3  9  1  1  0  0  0
  3 14  1  0  0  0  0
  4 13  2  0  0  0  0
  6  2  1  0  0  0  0
  7 11  1  0  0  0  0
  8 19  2  0  0  0  0
  8 10  1  0  0  0  0
 11 13  1  6  0  0  0
 11 15  1  0  0  0  0
 12  5  1  6  0  0  0
 12  4  1  0  0  0  0
 12  7  1  0  0  0  0
 13 17  1  0  0  0  0
 14 19  1  6  0  0  0
 15  2  2  0  0  0  0
 15  3  1  0  0  0  0
 16  8  1  0  0  0  0
 17  6  2  0  0  0  0
 19 18  1  0  0  0  0
 20  3  1  0  0  0  0
 20  9  1  1  0  0  0
 20 16  1  0  0  0  0
 22 25  1  0  0  0  0
 23 21  1  0  0  0  0
 23 24  1  0  0  0  0
 25 24  1  0  0  0  0
 26 27  1  0  0  0  0
 26 22  1  0  0  0  0
 27 23  1  0  0  0  0
M  END
>  <MODEL>
1

>  <REMARK>
 VINA RESULT:      -7.5      0.000      0.000
  Name = 
  2 active torsions:
  status: ('A' for Active; 'I' for Inactive)
    1  A    between atoms: C_1  and  C_15
    2  A    between atoms: N_9  and  C_15
                            x       y       z     vdW  Elec       q    Type
                         _______ _______ _______ _____ _____    ______ ____

>  <TORSDO>
F 2

$$$$
=
 OpenBabel11052418313D

 27 32  0  0  1  0  0  0  0  0999 V2000
  187.8480  177.2140  143.2480 C   0  0  2  0  0  3  0  0  0  0  0  0
  189.3230  177.2050  143.5350 C   0  0  0  0  0  0  0  0  0  0  0  0
  188.3600  176.6430  145.5120 C   0  0  2  0  0  0  0  0  0  0  0  0
  193.1470  176.5830  144.4480 N   0  0  0  0  0  0  0  0  0  0  0  0
  194.0560  176.8790  146.6840 C   0  0  0  0  0  1  0  0  0  0  0  0
  190.3690  177.6520  142.5900 C   0  0  0  0  0  3  0  0  0  0  0  0
  191.5960  175.7000  146.4070 S   0  0  0  0  0  0  0  0  0  0  0  0
  186.1910  178.2570  146.3940 C   0  0  0  0  0  0  0  0  0  0  0  0
  188.2650  175.5090  146.5000 C   0  0  0  0  0  2  0  0  0  0  0  0
  185.4000  179.3090  146.8400 O   0  0  0  0  0  1  0  0  0  0  0  0
  191.0040  177.0490  145.3420 C   0  0  1  0  0  3  0  0  0  0  0  0
  193.2850  175.9600  145.7530 C   0  0  1  0  0  3  0  0  0  0  0  0
  192.0010  177.1300  144.2350 C   0  0  0  0  0  0  0  0  0  0  0  0
  187.1690  176.8790  144.5890 C   0  0  1  0  0  3  0  0  0  0  0  0
  189.6240  176.8310  144.7730 C   0  0  0  0  0  0  0  0  0  0  0  0
  186.8510  177.3620  147.4060 C   0  0  0  0  0  2  0  0  0  0  0  0
  191.6240  177.5960  142.9310 N   0  0  0  0  0  0  0  0  0  0  0  0
  185.6550  178.8340  144.1670 O   0  0  0  0  0  1  0  0  0  0  0  0
  186.3290  178.0300  145.0810 C   0  0  0  0  0  0  0  0  0  0  0  0
  188.2720  176.9630  146.9970 C   0  0  2  0  0  3  0  0  0  0  0  0
  187.4770  176.1880  142.1740 C   0  0  0  0  0  2  0  0  0  0  0  0
  189.2900  172.5190  141.1650 C   0  0  0  0  0  2  0  0  0  0  0  0
  188.4940  175.1510  142.0590 N   0  0  0  0  0  0  0  0  0  0  0  0
  188.6610  174.8720  140.6340 C   0  0  0  0  0  2  0  0  0  0  0  0
  189.7210  173.7900  140.4400 C   0  0  0  0  0  2  0  0  0  0  0  0
  188.9780  172.8220  142.6280 C   0  0  0  0  0  2  0  0  0  0  0  0
  187.9580  173.9550  142.7060 C   0  0  0  0  0  2  0  0  0  0  0  0
  1 21  1  6  0  0  0
  1  2  1  0  0  0  0
  1 14  1  0  0  0  0
  2 15  2  0  0  0  0
  3  9  1  1  0  0  0
  3 20  1  0  0  0  0
  4 12  1  0  0  0  0
  6 17  2  0  0  0  0
  6  2  1  0  0  0  0
  8 10  1  0  0  0  0
  8 16  1  0  0  0  0
 11 13  1  6  0  0  0
 11  7  1  0  0  0  0
 12  7  1  0  0  0  0
 12  5  1  1  0  0  0
 13  4  2  0  0  0  0
 14 19  1  1  0  0  0
 14  3  1  0  0  0  0
 15 11  1  0  0  0  0
 15  3  1  0  0  0  0
 17 13  1  0  0  0  0
 18 19  1  0  0  0  0
 19  8  2  0  0  0  0
 20  9  1  1  0  0  0
 20 16  1  0  0  0  0
 22 26  1  0  0  0  0
 23 21  1  0  0  0  0
 23 27  1  0  0  0  0
 24 23  1  0  0  0  0
 25 24  1  0  0  0  0
 25 22  1  0  0  0  0
 26 27  1  0  0  0  0
M  END
>  <MODEL>
2

>  <REMARK>
 VINA RESULT:      -7.5      3.030      6.069
  Name = 
  2 active torsions:
  status: ('A' for Active; 'I' for Inactive)
    1  A    between atoms: C_1  and  C_15
    2  A    between atoms: N_9  and  C_15
                            x       y       z     vdW  Elec       q    Type
                         _______ _______ _______ _____ _____    ______ ____

>  <TORSDO>
F 2

$$$$
=
 OpenBabel11052418313D

 27 32  0  0  1  0  0  0  0  0999 V2000
  188.1640  176.2060  144.3760 C   0  0  2  0  0  3  0  0  0  0  0  0
  188.2960  175.6580  142.9830 C   0  0  0  0  0  0  0  0  0  0  0  0
  189.7550  174.4280  144.2130 C   0  0  2  0  0  0  0  0  0  0  0  0
  188.4700  173.6650  139.5420 N   0  0  0  0  0  0  0  0  0  0  0  0
  190.4590  172.5010  138.7660 C   0  0  0  0  0  1  0  0  0  0  0  0
  187.6500  176.2350  141.7850 C   0  0  0  0  0  3  0  0  0  0  0  0
  189.7890  172.3400  141.4200 S   0  0  0  0  0  0  0  0  0  0  0  0
  191.5040  175.8560  145.9430 C   0  0  0  0  0  0  0  0  0  0  0  0
  190.0110  173.0200  144.6810 C   0  0  0  0  0  2  0  0  0  0  0  0
  192.4890  176.6870  146.4620 O   0  0  0  0  0  1  0  0  0  0  0  0
  189.6290  174.1460  141.5510 C   0  0  1  0  0  3  0  0  0  0  0  0
  189.2450  172.4440  139.6770 C   0  0  1  0  0  3  0  0  0  0  0  0
  188.6580  174.5230  140.4830 C   0  0  0  0  0  0  0  0  0  0  0  0
  189.1800  175.4160  145.2230 C   0  0  1  0  0  3  0  0  0  0  0  0
  189.1330  174.6300  142.8900 C   0  0  0  0  0  0  0  0  0  0  0  0
  191.8500  174.4270  145.6240 C   0  0  0  0  0  2  0  0  0  0  0  0
  187.8190  175.6790  140.6200 N   0  0  0  0  0  0  0  0  0  0  0  0
  189.9500  177.6250  146.1300 O   0  0  0  0  0  1  0  0  0  0  0  0
  190.2590  176.3180  145.7660 C   0  0  0  0  0  0  0  0  0  0  0  0
  191.1900  173.9390  144.3300 C   0  0  2  0  0  3  0  0  0  0  0  0
  186.7440  176.0290  144.9180 C   0  0  0  0  0  2  0  0  0  0  0  0
  183.8460  178.9550  145.8180 C   0  0  0  0  0  2  0  0  0  0  0  0
  186.1680  177.3050  145.3220 N   0  0  0  0  0  0  0  0  0  0  0  0
  185.3020  177.0390  146.4690 C   0  0  0  0  0  2  0  0  0  0  0  0
  184.6660  178.3410  146.9490 C   0  0  0  0  0  2  0  0  0  0  0  0
  184.7030  179.1120  144.5650 C   0  0  0  0  0  2  0  0  0  0  0  0
  185.3380  177.7690  144.2120 C   0  0  0  0  0  2  0  0  0  0  0  0
  1 21  1  1  0  0  0
  1 14  1  0  0  0  0
  2  1  1  0  0  0  0
  3 20  1  0  0  0  0
  3  9  1  1  0  0  0
  3 14  1  0  0  0  0
  4 12  1  0  0  0  0
  4 13  2  0  0  0  0
  6  2  1  0  0  0  0
  7 11  1  0  0  0  0
  8 10  1  0  0  0  0
 11 13  1  6  0  0  0
 11 15  1  0  0  0  0
 12  5  1  6  0  0  0
 12  7  1  0  0  0  0
 13 17  1  0  0  0  0
 14 19  1  6  0  0  0
 15  2  2  0  0  0  0
 15  3  1  0  0  0  0
 16  8  1  0  0  0  0
 17  6  2  0  0  0  0
 19  8  2  0  0  0  0
 19 18  1  0  0  0  0
 20  9  1  1  0  0  0
 20 16  1  0  0  0  0
 21 23  1  0  0  0  0
 22 25  1  0  0  0  0
 23 24  1  0  0  0  0
 24 25  1  0  0  0  0
 26 22  1  0  0  0  0
 27 26  1  0  0  0  0
 27 23  1  0  0  0  0
M  END
>  <MODEL>
3

>  <REMARK>
 VINA RESULT:      -7.5      1.136      1.336
  Name = 
  2 active torsions:
  status: ('A' for Active; 'I' for Inactive)
    1  A    between atoms: C_1  and  C_15
    2  A    between atoms: N_9  and  C_15
                            x       y       z     vdW  Elec       q    Type
                         _______ _______ _______ _____ _____    ______ ____

>  <TORSDO>
F 2

$$$$
=
 OpenBabel11052418313D

 27 32  0  0  1  0  0  0  0  0999 V2000
  188.8520  176.7320  144.7910 C   0  0  2  0  0  3  0  0  0  0  0  0
  188.0730  176.7520  143.5050 C   0  0  0  0  0  0  0  0  0  0  0  0
  186.7440  177.8450  144.9860 C   0  0  2  0  0  0  0  0  0  0  0  0
  186.0380  177.4230  140.1510 N   0  0  0  0  0  0  0  0  0  0  0  0
  183.6200  177.6750  140.0780 C   0  0  0  0  0  1  0  0  0  0  0  0
  188.4610  176.0310  142.2740 C   0  0  0  0  0  3  0  0  0  0  0  0
  185.0060  178.8470  142.1330 S   0  0  0  0  0  0  0  0  0  0  0  0
  186.3420  176.6070  147.5150 C   0  0  0  0  0  0  0  0  0  0  0  0
  186.1380  179.1980  145.2540 C   0  0  0  0  0  2  0  0  0  0  0  0
  185.9760  175.7410  148.5380 O   0  0  0  0  0  1  0  0  0  0  0  0
  185.8760  177.2960  142.5110 C   0  0  1  0  0  3  0  0  0  0  0  0
  184.9460  178.3550  140.3730 C   0  0  1  0  0  3  0  0  0  0  0  0
  186.5100  176.8890  141.2230 C   0  0  0  0  0  0  0  0  0  0  0  0
  187.9480  177.4300  145.8250 C   0  0  1  0  0  3  0  0  0  0  0  0
  186.9270  177.4190  143.5850 C   0  0  0  0  0  0  0  0  0  0  0  0
  185.3930  177.7040  147.1150 C   0  0  0  0  0  2  0  0  0  0  0  0
  187.7220  176.1200  141.2060 N   0  0  0  0  0  0  0  0  0  0  0  0
  188.4220  175.4990  147.3550 O   0  0  0  0  0  1  0  0  0  0  0  0
  187.5370  176.4820  146.9220 C   0  0  0  0  0  0  0  0  0  0  0  0
  185.3550  177.9230  145.6000 C   0  0  2  0  0  3  0  0  0  0  0  0
  190.1890  177.4620  144.6490 C   0  0  0  0  0  2  0  0  0  0  0  0
  193.9130  176.1210  146.1000 C   0  0  0  0  0  2  0  0  0  0  0  0
  191.3090  176.5730  144.9250 N   0  0  0  0  0  0  0  0  0  0  0  0
  191.4680  176.5200  146.3770 C   0  0  0  0  0  2  0  0  0  0  0  0
  192.6290  175.5980  146.7380 C   0  0  0  0  0  2  0  0  0  0  0  0
  193.7200  176.3120  144.5980 C   0  0  0  0  0  2  0  0  0  0  0  0
  192.5000  177.1960  144.3500 C   0  0  0  0  0  2  0  0  0  0  0  0
  1 21  1  6  0  0  0
  1 14  1  0  0  0  0
  2 15  2  0  0  0  0
  2  1  1  0  0  0  0
  3  9  1  6  0  0  0
  3 20  1  0  0  0  0
  3 14  1  0  0  0  0
  4 12  1  0  0  0  0
  4 13  2  0  0  0  0
  6  2  1  0  0  0  0
  7 11  1  0  0  0  0
  8 10  1  0  0  0  0
 11 13  1  6  0  0  0
 11 15  1  0  0  0  0
 12  5  1  1  0  0  0
 12  7  1  0  0  0  0
 14 19  1  1  0  0  0
 15  3  1  0  0  0  0
 16  8  1  0  0  0  0
 17 13  1  0  0  0  0
 17  6  2  0  0  0  0
 19 18  1  0  0  0  0
 19  8  2  0  0  0  0
 20  9  1  1  0  0  0
 20 16  1  0  0  0  0
 21 23  1  0  0  0  0
 22 25  1  0  0  0  0
 23 24  1  0  0  0  0
 24 25  1  0  0  0  0
 26 22  1  0  0  0  0
 27 26  1  0  0  0  0
 27 23  1  0  0  0  0
M  END
>  <MODEL>
4

>  <REMARK>
 VINA RESULT:      -7.4      2.897      5.781
  Name = 
  2 active torsions:
  status: ('A' for Active; 'I' for Inactive)
    1  A    between atoms: C_1  and  C_15
    2  A    between atoms: N_9  and  C_15
                            x       y       z     vdW  Elec       q    Type
                         _______ _______ _______ _____ _____    ______ ____

>  <TORSDO>
F 2

$$$$
=
 OpenBabel11052418313D

 27 32  0  0  1  0  0  0  0  0999 V2000
  188.7510  176.4370  146.0600 C   0  0  2  0  0  3  0  0  0  0  0  0
  188.9710  175.4330  144.9640 C   0  0  0  0  0  0  0  0  0  0  0  0
  187.5070  176.9240  144.0770 C   0  0  2  0  0  0  0  0  0  0  0  0
  189.7590  173.2560  141.7260 N   0  0  0  0  0  0  0  0  0  0  0  0
  188.1530  172.8830  139.9380 C   0  0  0  0  0  1  0  0  0  0  0  0
  189.7390  174.1780  145.1110 C   0  0  0  0  0  3  0  0  0  0  0  0
  188.3220  175.3800  141.0580 S   0  0  0  0  0  0  0  0  0  0  0  0
  185.2660  177.6360  145.6760 C   0  0  0  0  0  0  0  0  0  0  0  0
  187.3820  177.9450  142.9760 C   0  0  0  0  0  2  0  0  0  0  0  0
  184.0860  177.6200  146.4100 O   0  0  0  0  0  1  0  0  0  0  0  0
  188.1800  174.7020  142.7380 C   0  0  1  0  0  3  0  0  0  0  0  0
  189.1660  173.8430  140.5370 C   0  0  1  0  0  3  0  0  0  0  0  0
  189.2680  173.6860  142.8350 C   0  0  0  0  0  0  0  0  0  0  0  0
  187.7240  177.4370  145.4970 C   0  0  1  0  0  3  0  0  0  0  0  0
  188.3330  175.7240  143.8360 C   0  0  0  0  0  0  0  0  0  0  0  0
  185.2070  177.9580  144.2080 C   0  0  0  0  0  2  0  0  0  0  0  0
  189.8810  173.3760  144.0950 N   0  0  0  0  0  0  0  0  0  0  0  0
  186.4710  177.1700  147.6540 O   0  0  0  0  0  1  0  0  0  0  0  0
  186.4370  177.4020  146.2820 C   0  0  0  0  0  0  0  0  0  0  0  0
  186.1660  177.0980  143.3800 C   0  0  2  0  0  3  0  0  0  0  0  0
  190.0520  177.1450  146.4440 C   0  0  0  0  0  2  0  0  0  0  0  0
  194.0380  176.4080  145.2890 C   0  0  0  0  0  2  0  0  0  0  0  0
  191.2120  176.4520  145.9010 N   0  0  0  0  0  0  0  0  0  0  0  0
  192.2020  176.3690  146.9740 C   0  0  0  0  0  2  0  0  0  0  0  0
  193.4500  175.6460  146.4730 C   0  0  0  0  0  2  0  0  0  0  0  0
  192.9760  176.6240  144.2150 C   0  0  0  0  0  2  0  0  0  0  0  0
  191.7530  177.2950  144.8360 C   0  0  0  0  0  2  0  0  0  0  0  0
  1 21  1  6  0  0  0
  2  6  1  0  0  0  0
  2  1  1  0  0  0  0
  3  9  1  6  0  0  0
  3 14  1  0  0  0  0
  4 13  2  0  0  0  0
  8 19  2  0  0  0  0
  8 10  1  0  0  0  0
 11  7  1  6  0  0  0
 11 13  1  0  0  0  0
 11 15  1  0  0  0  0
 12  5  1  1  0  0  0
 12  7  1  0  0  0  0
 12  4  1  0  0  0  0
 13 17  1  0  0  0  0
 14  1  1  0  0  0  0
 14 19  1  1  0  0  0
 15  3  1  0  0  0  0
 15  2  2  0  0  0  0
 16  8  1  0  0  0  0
 17  6  2  0  0  0  0
 19 18  1  0  0  0  0
 20  9  1  6  0  0  0
 20  3  1  0  0  0  0
 20 16  1  0  0  0  0
 22 25  1  0  0  0  0
 23 21  1  0  0  0  0
 23 24  1  0  0  0  0
 25 24  1  0  0  0  0
 26 27  1  0  0  0  0
 26 22  1  0  0  0  0
 27 23  1  0  0  0  0
M  END
>  <MODEL>
5

>  <REMARK>
 VINA RESULT:      -7.4      2.525      5.402
  Name = 
  2 active torsions:
  status: ('A' for Active; 'I' for Inactive)
    1  A    between atoms: C_1  and  C_15
    2  A    between atoms: N_9  and  C_15
                            x       y       z     vdW  Elec       q    Type
                         _______ _______ _______ _____ _____    ______ ____

>  <TORSDO>
F 2

$$$$
=
 OpenBabel11052418313D

 27 32  0  0  1  0  0  0  0  0999 V2000
  188.8630  174.9980  142.2580 C   0  0  2  0  0  3  0  0  0  0  0  0
  190.2370  175.1490  142.8500 C   0  0  0  0  0  0  0  0  0  0  0  0
  188.8600  176.1380  144.3600 C   0  0  2  0  0  0  0  0  0  0  0  0
  193.6500  175.2260  144.8970 N   0  0  0  0  0  0  0  0  0  0  0  0
  194.2080  176.9600  146.5070 C   0  0  0  0  0  1  0  0  0  0  0  0
  191.4960  174.7900  142.1620 C   0  0  0  0  0  3  0  0  0  0  0  0
  191.6450  175.9860  146.4550 S   0  0  0  0  0  0  0  0  0  0  0  0
  186.9400  177.9730  143.3450 C   0  0  0  0  0  0  0  0  0  0  0  0
  188.3760  176.0060  145.7800 C   0  0  0  0  0  2  0  0  0  0  0  0
  186.3110  179.0630  142.7550 O   0  0  0  0  0  1  0  0  0  0  0  0
  191.5220  176.2390  144.6590 C   0  0  1  0  0  3  0  0  0  0  0  0
  193.4370  175.6750  146.2620 C   0  0  1  0  0  3  0  0  0  0  0  0
  192.6890  175.5050  144.0870 C   0  0  0  0  0  0  0  0  0  0  0  0
  187.9140  175.7030  143.2460 C   0  0  1  0  0  3  0  0  0  0  0  0
  190.2430  175.7270  144.0450 C   0  0  0  0  0  0  0  0  0  0  0  0
  187.2270  178.0080  144.8210 C   0  0  0  0  0  2  0  0  0  0  0  0
  192.6380  174.9500  142.7650 N   0  0  0  0  0  0  0  0  0  0  0  0
  186.9150  176.8640  141.2600 O   0  0  0  0  0  1  0  0  0  0  0  0
  187.2500  176.8970  142.6100 C   0  0  0  0  0  0  0  0  0  0  0  0
  188.5890  177.3980  145.1680 C   0  0  2  0  0  3  0  0  0  0  0  0
  188.4830  173.5250  142.0890 C   0  0  0  0  0  2  0  0  0  0  0  0
  189.3940  173.1200  137.9930 C   0  0  0  0  0  2  0  0  0  0  0  0
  188.3330  173.1760  140.6830 N   0  0  0  0  0  0  0  0  0  0  0  0
  189.4420  172.2860  140.3420 C   0  0  0  0  0  2  0  0  0  0  0  0
  189.3440  171.8750  138.8750 C   0  0  0  0  0  2  0  0  0  0  0  0
  188.3270  174.1210  138.4270 C   0  0  0  0  0  2  0  0  0  0  0  0
  188.4790  174.4130  139.9180 C   0  0  0  0  0  2  0  0  0  0  0  0
  1 21  1  1  0  0  0
  1  2  1  0  0  0  0
  1 14  1  0  0  0  0
  2 15  2  0  0  0  0
  3 20  1  0  0  0  0
  3  9  1  1  0  0  0
  4 12  1  0  0  0  0
  6 17  2  0  0  0  0
  6  2  1  0  0  0  0
  8 16  1  0  0  0  0
 10  8  1  0  0  0  0
 11 15  1  6  0  0  0
 11  7  1  0  0  0  0
 12  7  1  0  0  0  0
 12  5  1  6  0  0  0
 13 11  1  0  0  0  0
 13  4  2  0  0  0  0
 14 19  1  6  0  0  0
 14  3  1  0  0  0  0
 15  3  1  0  0  0  0
 17 13  1  0  0  0  0
 18 19  1  0  0  0  0
 19  8  2  0  0  0  0
 20 16  1  6  0  0  0
 20  9  1  0  0  0  0
 22 26  1  0  0  0  0
 22 25  1  0  0  0  0
 23 21  1  0  0  0  0
 24 23  1  0  0  0  0
 25 24  1  0  0  0  0
 26 27  1  0  0  0  0
 27 23  1  0  0  0  0
M  END
>  <MODEL>
6

>  <REMARK>
 VINA RESULT:      -7.3      3.365      6.732
  Name = 
  2 active torsions:
  status: ('A' for Active; 'I' for Inactive)
    1  A    between atoms: C_1  and  C_15
    2  A    between atoms: N_9  and  C_15
                            x       y       z     vdW  Elec       q    Type
                         _______ _______ _______ _____ _____    ______ ____

>  <TORSDO>
F 2

$$$$
=
 OpenBabel11052418313D

 27 32  0  0  1  0  0  0  0  0999 V2000
  190.4140  174.8420  143.4850 C   0  0  2  0  0  3  0  0  0  0  0  0
  189.3570  175.2670  142.5040 C   0  0  0  0  0  0  0  0  0  0  0  0
  188.9450  176.5160  144.3550 C   0  0  2  0  0  0  0  0  0  0  0  0
  186.8040  176.9640  139.9650 N   0  0  0  0  0  0  0  0  0  0  0  0
  184.6940  177.9580  140.6500 C   0  0  0  0  0  1  0  0  0  0  0  0
  189.1180  174.6290  141.1920 C   0  0  0  0  0  3  0  0  0  0  0  0
  186.9110  178.3670  142.2110 S   0  0  0  0  0  0  0  0  0  0  0  0
  188.8830  175.1450  146.8460 C   0  0  0  0  0  0  0  0  0  0  0  0
  188.9270  177.9430  144.8370 C   0  0  0  0  0  2  0  0  0  0  0  0
  188.5540  174.3090  147.9060 O   0  0  0  0  0  1  0  0  0  0  0  0
  187.2820  176.5880  142.2540 C   0  0  1  0  0  3  0  0  0  0  0  0
  186.1960  178.1510  140.5410 C   0  0  1  0  0  3  0  0  0  0  0  0
  187.3540  176.1760  140.8220 C   0  0  0  0  0  0  0  0  0  0  0  0
  190.1260  175.6440  144.7680 C   0  0  1  0  0  3  0  0  0  0  0  0
  188.5720  176.2400  142.9530 C   0  0  0  0  0  0  0  0  0  0  0  0
  188.2840  176.5240  146.7920 C   0  0  0  0  0  2  0  0  0  0  0  0
  188.1820  175.0800  140.4080 N   0  0  0  0  0  0  0  0  0  0  0  0
  190.3390  173.4790  146.0180 O   0  0  0  0  0  1  0  0  0  0  0  0
  189.7490  174.7350  145.9100 C   0  0  0  0  0  0  0  0  0  0  0  0
  187.8950  176.9390  145.3700 C   0  0  2  0  0  3  0  0  0  0  0  0
  191.8200  175.1340  142.9580 C   0  0  0  0  0  2  0  0  0  0  0  0
  195.4750  175.0350  145.0570 C   0  0  0  0  0  2  0  0  0  0  0  0
  192.7750  175.2790  144.0480 N   0  0  0  0  0  0  0  0  0  0  0  0
  193.8250  176.1830  143.5820 C   0  0  0  0  0  2  0  0  0  0  0  0
  194.8630  176.3830  144.6830 C   0  0  0  0  0  2  0  0  0  0  0  0
  194.3780  174.0360  145.4160 C   0  0  0  0  0  2  0  0  0  0  0  0
  193.3650  173.9600  144.2760 C   0  0  0  0  0  2  0  0  0  0  0  0
  1 21  1  6  0  0  0
  1 14  1  0  0  0  0
  2 15  2  0  0  0  0
  2  1  1  0  0  0  0
  3 14  1  0  0  0  0
  3  9  1  6  0  0  0
  3 20  1  0  0  0  0
  4 12  1  0  0  0  0
  4 13  2  0  0  0  0
  6  2  1  0  0  0  0
  7 11  1  0  0  0  0
  8 10  1  0  0  0  0
 11 13  1  6  0  0  0
 11 15  1  0  0  0  0
 12  5  1  1  0  0  0
 12  7  1  0  0  0  0
 14 19  1  1  0  0  0
 15  3  1  0  0  0  0
 16  8  1  0  0  0  0
 17 13  1  0  0  0  0
 17  6  2  0  0  0  0
 19 18  1  0  0  0  0
 19  8  2  0  0  0  0
 20  9  1  1  0  0  0
 20 16  1  0  0  0  0
 21 23  1  0  0  0  0
 22 26  1  0  0  0  0
 23 27  1  0  0  0  0
 24 23  1  0  0  0  0
 24 25  1  0  0  0  0
 25 22  1  0  0  0  0
 27 26  1  0  0  0  0
M  END
>  <MODEL>
7

>  <REMARK>
 VINA RESULT:      -7.1      2.718      5.649
  Name = 
  2 active torsions:
  status: ('A' for Active; 'I' for Inactive)
    1  A    between atoms: C_1  and  C_15
    2  A    between atoms: N_9  and  C_15
                            x       y       z     vdW  Elec       q    Type
                         _______ _______ _______ _____ _____    ______ ____

>  <TORSDO>
F 2

$$$$
=
 OpenBabel11052418313D

 27 32  0  0  1  0  0  0  0  0999 V2000
  189.6540  174.9990  145.9070 C   0  0  2  0  0  3  0  0  0  0  0  0
  189.7320  173.9430  144.8400 C   0  0  0  0  0  0  0  0  0  0  0  0
  189.6950  175.9020  143.6940 C   0  0  2  0  0  0  0  0  0  0  0  0
  190.4690  171.4250  141.8470 N   0  0  0  0  0  0  0  0  0  0  0  0
  189.7190  171.8000  139.5640 C   0  0  0  0  0  1  0  0  0  0  0  0
  189.6330  172.4880  145.0840 C   0  0  0  0  0  3  0  0  0  0  0  0
  190.6910  173.9260  140.9980 S   0  0  0  0  0  0  0  0  0  0  0  0
  187.7150  177.7990  144.4480 C   0  0  0  0  0  0  0  0  0  0  0  0
  190.5360  176.7480  142.7730 C   0  0  0  0  0  2  0  0  0  0  0  0
  186.5150  178.4570  144.6920 O   0  0  0  0  0  1  0  0  0  0  0  0
  189.5970  173.5560  142.4020 C   0  0  1  0  0  3  0  0  0  0  0  0
  190.7610  172.1380  140.6150 C   0  0  1  0  0  3  0  0  0  0  0  0
  189.8860  172.1340  142.7490 C   0  0  0  0  0  0  0  0  0  0  0  0
  189.5820  176.3390  145.1510 C   0  0  1  0  0  3  0  0  0  0  0  0
  189.8160  174.4330  143.6080 C   0  0  0  0  0  0  0  0  0  0  0  0
  188.3920  177.9870  143.1180 C   0  0  0  0  0  2  0  0  0  0  0  0
  189.7220  171.6520  144.0910 N   0  0  0  0  0  0  0  0  0  0  0  0
  187.6570  176.9330  146.6450 O   0  0  0  0  0  1  0  0  0  0  0  0
  188.2710  177.0390  145.4010 C   0  0  0  0  0  0  0  0  0  0  0  0
  189.0120  176.6910  142.5870 C   0  0  2  0  0  3  0  0  0  0  0  0
  190.8730  174.9550  146.8310 C   0  0  0  0  0  2  0  0  0  0  0  0
  194.9580  175.6530  146.0580 C   0  0  0  0  0  2  0  0  0  0  0  0
  192.0790  175.3880  146.1380 N   0  0  0  0  0  0  0  0  0  0  0  0
  192.9280  174.2080  145.9790 C   0  0  0  0  0  2  0  0  0  0  0  0
  194.2150  174.5900  145.2530 C   0  0  0  0  0  2  0  0  0  0  0  0
  194.0390  176.8360  146.3510 C   0  0  0  0  0  2  0  0  0  0  0  0
  192.7610  176.3340  147.0190 C   0  0  0  0  0  2  0  0  0  0  0  0
  1 21  1  1  0  0  0
  2  6  1  0  0  0  0
  2  1  1  0  0  0  0
  3  9  1  6  0  0  0
  3 14  1  0  0  0  0
  4 13  2  0  0  0  0
  8 10  1  0  0  0  0
  8 19  2  0  0  0  0
 11  7  1  6  0  0  0
 11 13  1  0  0  0  0
 11 15  1  0  0  0  0
 12  5  1  6  0  0  0
 12  7  1  0  0  0  0
 12  4  1  0  0  0  0
 13 17  1  0  0  0  0
 14 19  1  6  0  0  0
 14  1  1  0  0  0  0
 15  3  1  0  0  0  0
 15  2  2  0  0  0  0
 16  8  1  0  0  0  0
 17  6  2  0  0  0  0
 19 18  1  0  0  0  0
 20  9  1  6  0  0  0
 20 16  1  0  0  0  0
 20  3  1  0  0  0  0
 22 26  1  0  0  0  0
 23 21  1  0  0  0  0
 23 27  1  0  0  0  0
 24 23  1  0  0  0  0
 25 24  1  0  0  0  0
 25 22  1  0  0  0  0
 26 27  1  0  0  0  0
M  END
>  <MODEL>
8

>  <REMARK>
 VINA RESULT:      -7.0      2.846      5.349
  Name = 
  2 active torsions:
  status: ('A' for Active; 'I' for Inactive)
    1  A    between atoms: C_1  and  C_15
    2  A    between atoms: N_9  and  C_15
                            x       y       z     vdW  Elec       q    Type
                         _______ _______ _______ _____ _____    ______ ____

>  <TORSDO>
F 2

$$$$
=
 OpenBabel11052418313D

 27 32  0  0  1  0  0  0  0  0999 V2000
  188.0810  176.8480  143.2140 C   0  0  2  0  0  3  0  0  0  0  0  0
  189.5440  176.9130  143.5530 C   0  0  0  0  0  0  0  0  0  0  0  0
  188.5120  176.6380  145.5570 C   0  0  2  0  0  0  0  0  0  0  0  0
  193.3380  176.5160  144.6900 N   0  0  0  0  0  0  0  0  0  0  0  0
  194.1550  177.1660  146.8860 C   0  0  0  0  0  1  0  0  0  0  0  0
  190.6200  177.2340  142.5910 C   0  0  0  0  0  3  0  0  0  0  0  0
  191.7250  175.9090  146.7020 S   0  0  0  0  0  0  0  0  0  0  0  0
  186.2870  178.3230  146.1020 C   0  0  0  0  0  0  0  0  0  0  0  0
  188.3950  175.6660  146.7020 C   0  0  0  0  0  2  0  0  0  0  0  0
  185.4640  179.4140  146.3540 O   0  0  0  0  0  1  0  0  0  0  0  0
  191.1550  177.0680  145.4230 C   0  0  1  0  0  3  0  0  0  0  0  0
  193.4340  176.1010  146.0790 C   0  0  1  0  0  3  0  0  0  0  0  0
  192.1940  177.0010  144.3540 C   0  0  0  0  0  0  0  0  0  0  0  0
  187.3550  176.7070  144.5660 C   0  0  1  0  0  3  0  0  0  0  0  0
  189.8020  176.7380  144.8450 C   0  0  0  0  0  0  0  0  0  0  0  0
  186.9200  177.6050  147.2620 C   0  0  0  0  0  2  0  0  0  0  0  0
  191.8610  177.2550  142.9820 N   0  0  0  0  0  0  0  0  0  0  0  0
  185.8310  178.5440  143.7950 O   0  0  0  0  0  1  0  0  0  0  0  0
  186.4800  177.9020  144.8450 C   0  0  0  0  0  0  0  0  0  0  0  0
  188.3620  177.1780  146.9710 C   0  0  2  0  0  3  0  0  0  0  0  0
  187.7690  175.6640  142.2970 C   0  0  0  0  0  2  0  0  0  0  0  0
  186.6890  176.0750  138.2440 C   0  0  0  0  0  2  0  0  0  0  0  0
  187.8460  176.0460  140.8940 N   0  0  0  0  0  0  0  0  0  0  0  0
  186.6690  176.8660  140.6080 C   0  0  0  0  0  2  0  0  0  0  0  0
  186.6880  177.3060  139.1460 C   0  0  0  0  0  2  0  0  0  0  0  0
  187.8340  175.1400  138.6220 C   0  0  0  0  0  2  0  0  0  0  0  0
  187.7550  174.8150  140.1110 C   0  0  0  0  0  2  0  0  0  0  0  0
  1 21  1  6  0  0  0
  1  2  1  0  0  0  0
  1 14  1  0  0  0  0
  2 15  2  0  0  0  0
  3  9  1  1  0  0  0
  3 20  1  0  0  0  0
  4 12  1  0  0  0  0
  6 17  2  0  0  0  0
  6  2  1  0  0  0  0
  8 10  1  0  0  0  0
  8 16  1  0  0  0  0
 11 13  1  6  0  0  0
 11  7  1  0  0  0  0
 12  7  1  0  0  0  0
 12  5  1  1  0  0  0
 13  4  2  0  0  0  0
 14 19  1  1  0  0  0
 14  3  1  0  0  0  0
 15 11  1  0  0  0  0
 15  3  1  0  0  0  0
 17 13  1  0  0  0  0
 18 19  1  0  0  0  0
 19  8  2  0  0  0  0
 20  9  1  1  0  0  0
 20 16  1  0  0  0  0
 22 26  1  0  0  0  0
 22 25  1  0  0  0  0
 23 21  1  0  0  0  0
 24 23  1  0  0  0  0
 25 24  1  0  0  0  0
 26 27  1  0  0  0  0
 27 23  1  0  0  0  0
M  END
>  <MODEL>
9

>  <REMARK>
 VINA RESULT:      -6.9      3.180      6.130
  Name = 
  2 active torsions:
  status: ('A' for Active; 'I' for Inactive)
    1  A    between atoms: C_1  and  C_15
    2  A    between atoms: N_9  and  C_15
                            x       y       z     vdW  Elec       q    Type
                         _______ _______ _______ _____ _____    ______ ____

>  <TORSDO>
F 2

$$$$
