=
 OpenBabel11052419373D

 55 58  0  0  1  0  0  0  0  0999 V2000
  191.6380  175.3340  146.5410 C   0  0  0  0  0  0  0  0  0  0  0  0
  189.2740  174.5180  146.5380 C   0  0  0  0  0  1  0  0  0  0  0  0
  190.6440  174.4150  146.0630 N   0  0  0  0  0  0  0  0  0  0  0  0
  191.3740  176.1100  147.5000 O   0  0  0  0  0  0  0  0  0  0  0  0
  192.9950  175.3920  145.9180 C   0  0  0  0  0  2  0  0  0  0  0  0
  193.1930  176.7320  145.2380 C   0  0  0  0  0  2  0  0  0  0  0  0
  194.6180  177.2290  145.4220 C   0  0  0  0  0  2  0  0  0  0  0  0
  195.6030  176.2490  144.8080 C   0  0  0  0  0  2  0  0  0  0  0  0
  195.3970  176.1770  143.3020 C   0  0  0  0  0  2  0  0  0  0  0  0
  196.5850  175.5100  142.6300 C   0  0  0  0  0  2  0  0  0  0  0  0
  196.1760  174.2890  141.9460 N   0  0  0  0  0  0  0  0  0  0  0  0
  194.4100  175.3830  138.9560 O   0  0  0  0  0  0  0  0  0  0  0  0
  195.1590  174.6030  141.0160 N   0  0  0  0  0  2  0  0  0  0  0  0
  195.3870  175.0450  139.6670 C   0  0  0  0  0  0  0  0  0  0  0  0
  196.6750  175.1040  139.1340 O   0  0  0  0  0  1  0  0  0  0  0  0
  195.6360  173.3630  142.9400 C   0  0  0  0  0  2  0  0  0  0  0  0
  196.6750  170.4630  142.6930 N   0  0  0  0  0  0  0  0  0  0  0  0
  195.2450  172.9560  145.6420 F   0  0  0  0  0  0  0  0  0  0  0  0
  196.7560  172.7440  143.7790 C   0  0  1  0  0  3  0  0  0  0  0  0
  194.0210  168.4850  144.5630 C   0  0  0  0  0  2  0  0  0  0  0  0
  197.3490  172.2820  146.0220 F   0  0  0  0  0  0  0  0  0  0  0  0
  196.2880  172.1840  145.1390 C   0  0  0  0  0  0  0  0  0  0  0  0
  196.1150  170.6300  141.3590 C   0  0  0  0  0  1  0  0  0  0  0  0
  194.4270  168.8660  145.9800 C   0  0  0  0  0  2  0  0  0  0  0  0
  194.7610  170.3500  146.0400 C   0  0  0  0  0  2  0  0  0  0  0  0
  195.5480  170.2490  143.6200 C   0  0  2  0  0  3  0  0  0  0  0  0
  195.8880  170.6950  145.0560 C   0  0  1  0  0  3  0  0  0  0  0  0
  195.1720  168.7650  143.6060 C   0  0  0  0  0  2  0  0  0  0  0  0
  197.4880  171.6640  142.9730 C   0  0  0  0  0  2  0  0  0  0  0  0
  190.9480  173.4140  145.0520 C   0  0  0  0  0  2  0  0  0  0  0  0
  189.8230  172.3960  144.9730 C   0  0  0  0  0  2  0  0  0  0  0  0
  189.3970  172.1560  143.5370 C   0  0  0  0  0  2  0  0  0  0  0  0
  188.8000  173.4260  142.9350 C   0  0  0  0  0  2  0  0  0  0  0  0
  191.5050  173.7520  140.2220 C   0  0  0  0  0  3  0  0  0  0  0  0
  189.5450  172.7620  139.2060 C   0  0  1  0  0  3  0  0  0  0  0  0
  190.8200  173.9590  141.5540 C   0  0  0  0  0  2  0  0  0  0  0  0
  189.0030  172.5140  140.6180 C   0  0  0  0  0  2  0  0  0  0  0  0
  190.9350  173.1790  139.2160 N   0  0  0  0  0  0  0  0  0  0  0  0
  189.3050  173.7140  141.5170 C   0  0  1  0  0  0  0  0  0  0  0  0
  189.3440  171.5770  138.2640 C   0  0  1  0  0  3  0  0  0  0  0  0
  189.6090  171.9530  136.8860 N   0  0  0  0  0  1  0  0  0  0  0  0
  190.2270  170.4080  138.6640 C   0  0  0  0  0  1  0  0  0  0  0  0
  188.4450  175.1970  140.8390 S   0  0  0  0  0  0  0  0  0  0  0  0
  188.5530  177.6930  144.6900 C   0  0  0  0  0  3  0  0  0  0  0  0
  189.7070  177.5310  143.9240 C   0  0  0  0  0  3  0  0  0  0  0  0
  186.1380  175.7530  142.7300 F   0  0  0  0  0  0  0  0  0  0  0  0
  188.4550  176.2040  142.3240 C   0  0  0  0  0  0  0  0  0  0  0  0
  189.6560  176.7870  142.7410 C   0  0  0  0  0  3  0  0  0  0  0  0
  187.2970  176.3560  143.1030 C   0  0  0  0  0  0  0  0  0  0  0  0
  187.3400  177.1120  144.2840 C   0  0  0  0  0  0  0  0  0  0  0  0
  186.1590  177.2700  145.0280 O   0  0  0  0  0  0  0  0  0  0  0  0
  184.3620  178.3530  143.8680 C   0  0  0  0  0  1  0  0  0  0  0  0
  186.1150  179.5730  144.8600 F   0  0  0  0  0  0  0  0  0  0  0  0
  184.5500  178.5350  146.3130 C   0  0  0  0  0  1  0  0  0  0  0  0
  185.3380  178.4400  145.0210 C   0  0  0  0  0  0  0  0  0  0  0  0
  1  4  2  0  0  0  0
  3  2  1  0  0  0  0
  3  1  1  0  0  0  0
  5  1  1  0  0  0  0
  6  7  1  0  0  0  0
  6  5  1  0  0  0  0
  8  7  1  0  0  0  0
  9  8  1  0  0  0  0
 10  9  1  0  0  0  0
 11 10  1  0  0  0  0
 11 16  1  0  0  0  0
 12 14  2  0  0  0  0
 13 11  1  0  0  0  0
 14 13  1  0  0  0  0
 15 14  1  0  0  0  0
 17 29  1  0  0  0  0
 17 26  1  0  0  0  0
 19 16  1  6  0  0  0
 19 22  1  0  0  0  0
 20 24  1  0  0  0  0
 22 18  1  0  0  0  0
 22 21  1  0  0  0  0
 23 17  1  0  0  0  0
 24 25  1  0  0  0  0
 26 28  1  1  0  0  0
 26 27  1  0  0  0  0
 27 22  1  0  0  0  0
 27 25  1  1  0  0  0
 28 20  1  0  0  0  0
 29 19  1  0  0  0  0
 30  3  1  0  0  0  0
 31 30  1  0  0  0  0
 32 31  1  0  0  0  0
 33 32  1  0  0  0  0
 34 36  1  0  0  0  0
 35 40  1  6  0  0  0
 35 38  1  0  0  0  0
 35 37  1  0  0  0  0
 37 39  1  0  0  0  0
 38 34  2  0  0  0  0
 39 36  1  0  0  0  0
 39 33  1  1  0  0  0
 40 42  1  1  0  0  0
 41 40  1  0  0  0  0
 43 39  1  0  0  0  0
 43 47  1  0  0  0  0
 45 44  2  0  0  0  0
 46 49  1  0  0  0  0
 47 48  2  0  0  0  0
 47 49  1  0  0  0  0
 48 45  1  0  0  0  0
 49 50  2  0  0  0  0
 50 44  1  0  0  0  0
 50 51  1  0  0  0  0
 52 55  1  0  0  0  0
 53 55  1  0  0  0  0
 55 51  1  0  0  0  0
 55 54  1  0  0  0  0
M  END
>  <MODEL>
1

>  <REMARK>
 VINA RESULT:      -6.6      0.000      0.000
  Name = 
  20 active torsions:
  status: ('A' for Active; 'I' for Inactive)
    1  A    between atoms: C_2  and  C_28
    2  A    between atoms: C_2  and  N_44
    3  A    between atoms: C_6  and  C_46
    4  A    between atoms: N_8  and  N_22
    5  A    between atoms: C_10  and  C_32
    6  A    between atoms: C_17  and  S_36
    7  A    between atoms: O_19  and  C_40
    8  A    between atoms: O_19  and  C_45
    9  A    between atoms: N_22  and  C_35
   10  A    between atoms: N_22  and  C_46
   11  A    between atoms: C_24  and  C_31
   12  A    between atoms: C_27  and  C_31
   13  A    between atoms: C_27  and  C_54
   14  A    between atoms: C_28  and  C_49
   15  A    between atoms: C_33  and  C_49
   16  A    between atoms: C_33  and  C_52
   17  A    between atoms: C_35  and  C_43
   18  A    between atoms: S_36  and  C_52
   19  A    between atoms: C_43  and  C_51
   20  A    between atoms: C_51  and  C_54
                            x       y       z     vdW  Elec       q    Type
                         _______ _______ _______ _____ _____    ______ ____

>  <TORSDO>
F 20

$$$$
=
 OpenBabel11052419373D

 55 58  0  0  1  0  0  0  0  0999 V2000
  187.1460  176.2670  143.0110 C   0  0  0  0  0  0  0  0  0  0  0  0
  186.7050  178.6430  142.3660 C   0  0  0  0  0  1  0  0  0  0  0  0
  187.5670  177.4730  142.3540 N   0  0  0  0  0  0  0  0  0  0  0  0
  185.9650  176.1600  143.4410 O   0  0  0  0  0  0  0  0  0  0  0  0
  188.0900  175.1240  143.2000 C   0  0  0  0  0  2  0  0  0  0  0  0
  187.9110  174.1170  142.0810 C   0  0  0  0  0  2  0  0  0  0  0  0
  188.8390  172.9270  142.2680 C   0  0  0  0  0  2  0  0  0  0  0  0
  190.0560  173.0610  141.3700 C   0  0  0  0  0  2  0  0  0  0  0  0
  189.7240  172.5800  139.9650 C   0  0  0  0  0  2  0  0  0  0  0  0
  190.6270  173.2510  138.9430 C   0  0  0  0  0  2  0  0  0  0  0  0
  191.4270  172.2620  138.2300 N   0  0  0  0  0  0  0  0  0  0  0  0
  191.4650  168.7280  139.1030 O   0  0  0  0  0  1  0  0  0  0  0  0
  191.4090  171.0480  138.9560 N   0  0  0  0  0  2  0  0  0  0  0  0
  191.5890  169.7440  138.3790 C   0  0  0  0  0  0  0  0  0  0  0  0
  191.8990  169.5880  137.0270 O   0  0  0  0  0  0  0  0  0  0  0  0
  192.8040  172.7480  138.1580 C   0  0  0  0  0  2  0  0  0  0  0  0
  195.0570  174.7900  137.6110 N   0  0  0  0  0  0  0  0  0  0  0  0
  193.3440  172.9250  140.8600 F   0  0  0  0  0  0  0  0  0  0  0  0
  192.9340  174.1250  138.8120 C   0  0  1  0  0  3  0  0  0  0  0  0
  197.9310  173.4060  139.6810 C   0  0  0  0  0  2  0  0  0  0  0  0
  193.1360  175.1560  140.9310 F   0  0  0  0  0  0  0  0  0  0  0  0
  193.6400  174.1060  140.1840 C   0  0  0  0  0  0  0  0  0  0  0  0
  195.1180  174.0300  136.3710 C   0  0  0  0  0  1  0  0  0  0  0  0
  197.4270  173.8230  141.0560 C   0  0  0  0  0  2  0  0  0  0  0  0
  195.9320  173.5570  141.1600 C   0  0  0  0  0  2  0  0  0  0  0  0
  195.7030  173.9770  138.6590 C   0  0  2  0  0  3  0  0  0  0  0  0
  195.1660  174.3110  140.0650 C   0  0  1  0  0  3  0  0  0  0  0  0
  197.2150  174.2120  138.6050 C   0  0  0  0  0  2  0  0  0  0  0  0
  193.6350  175.1010  137.8580 C   0  0  0  0  0  2  0  0  0  0  0  0
  188.8750  177.5880  141.7280 C   0  0  0  0  0  2  0  0  0  0  0  0
  189.9310  177.8840  142.7800 C   0  0  0  0  0  2  0  0  0  0  0  0
  191.0220  176.8300  142.7760 C   0  0  0  0  0  2  0  0  0  0  0  0
  192.1190  177.1890  143.7740 C   0  0  0  0  0  2  0  0  0  0  0  0
  192.2750  173.4640  144.7120 C   0  0  0  0  0  3  0  0  0  0  0  0
  194.4690  174.4170  145.0780 C   0  0  1  0  0  3  0  0  0  0  0  0
  191.6590  174.7950  144.3480 C   0  0  0  0  0  2  0  0  0  0  0  0
  194.0150  175.6390  144.2710 C   0  0  0  0  0  2  0  0  0  0  0  0
  193.5290  173.3160  144.9860 N   0  0  0  0  0  0  0  0  0  0  0  0
  192.5700  175.9980  144.6270 C   0  0  1  0  0  0  0  0  0  0  0  0
  195.8810  173.9520  144.7270 C   0  0  1  0  0  3  0  0  0  0  0  0
  196.7460  175.0830  144.4360 N   0  0  0  0  0  1  0  0  0  0  0  0
  196.4730  173.1160  145.8470 C   0  0  0  0  0  1  0  0  0  0  0  0
  192.4920  176.4450  146.4130 S   0  0  0  0  0  0  0  0  0  0  0  0
  188.0100  175.6430  146.9960 C   0  0  0  0  0  3  0  0  0  0  0  0
  188.9510  174.6870  147.3770 C   0  0  0  0  0  3  0  0  0  0  0  0
  190.1900  178.2910  145.7050 F   0  0  0  0  0  0  0  0  0  0  0  0
  190.7380  176.1700  146.6730 C   0  0  0  0  0  0  0  0  0  0  0  0
  190.3140  174.9520  147.2150 C   0  0  0  0  0  3  0  0  0  0  0  0
  189.7890  177.1260  146.2770 C   0  0  0  0  0  0  0  0  0  0  0  0
  188.4210  176.8700  146.4490 C   0  0  0  0  0  0  0  0  0  0  0  0
  187.4960  177.8570  146.0700 O   0  0  0  0  0  0  0  0  0  0  0  0
  186.2920  178.4840  148.0470 C   0  0  0  0  0  1  0  0  0  0  0  0
  185.5220  176.7850  146.6090 F   0  0  0  0  0  0  0  0  0  0  0  0
  185.3920  179.0220  145.8220 C   0  0  0  0  0  1  0  0  0  0  0  0
  186.1820  178.0000  146.6170 C   0  0  0  0  0  0  0  0  0  0  0  0
  1  5  1  0  0  0  0
  1  4  2  0  0  0  0
  3  2  1  0  0  0  0
  3  1  1  0  0  0  0
  6  7  1  0  0  0  0
  6  5  1  0  0  0  0
  8  7  1  0  0  0  0
  9  8  1  0  0  0  0
 10  9  1  0  0  0  0
 11 10  1  0  0  0  0
 11 13  1  0  0  0  0
 14 13  1  0  0  0  0
 14 12  1  0  0  0  0
 15 14  2  0  0  0  0
 16 11  1  0  0  0  0
 17 29  1  0  0  0  0
 17 26  1  0  0  0  0
 19 16  1  6  0  0  0
 19 22  1  0  0  0  0
 20 24  1  0  0  0  0
 22 18  1  0  0  0  0
 22 21  1  0  0  0  0
 23 17  1  0  0  0  0
 24 25  1  0  0  0  0
 26 28  1  1  0  0  0
 26 27  1  0  0  0  0
 27 22  1  0  0  0  0
 27 25  1  1  0  0  0
 28 20  1  0  0  0  0
 29 19  1  0  0  0  0
 30  3  1  0  0  0  0
 30 31  1  0  0  0  0
 32 31  1  0  0  0  0
 32 33  1  0  0  0  0
 34 38  2  0  0  0  0
 35 40  1  6  0  0  0
 36 39  1  0  0  0  0
 36 34  1  0  0  0  0
 37 39  1  0  0  0  0
 37 35  1  0  0  0  0
 38 35  1  0  0  0  0
 39 33  1  6  0  0  0
 39 43  1  0  0  0  0
 40 42  1  1  0  0  0
 41 40  1  0  0  0  0
 43 47  1  0  0  0  0
 44 45  1  0  0  0  0
 46 49  1  0  0  0  0
 47 48  1  0  0  0  0
 48 45  2  0  0  0  0
 49 50  1  0  0  0  0
 49 47  2  0  0  0  0
 50 44  2  0  0  0  0
 51 50  1  0  0  0  0
 51 55  1  0  0  0  0
 53 55  1  0  0  0  0
 54 55  1  0  0  0  0
 55 52  1  0  0  0  0
M  END
>  <MODEL>
2

>  <REMARK>
 VINA RESULT:      -6.4      3.105      6.250
  Name = 
  20 active torsions:
  status: ('A' for Active; 'I' for Inactive)
    1  A    between atoms: C_2  and  C_28
    2  A    between atoms: C_2  and  N_44
    3  A    between atoms: C_6  and  C_46
    4  A    between atoms: N_8  and  N_22
    5  A    between atoms: C_10  and  C_32
    6  A    between atoms: C_17  and  S_36
    7  A    between atoms: O_19  and  C_40
    8  A    between atoms: O_19  and  C_45
    9  A    between atoms: N_22  and  C_35
   10  A    between atoms: N_22  and  C_46
   11  A    between atoms: C_24  and  C_31
   12  A    between atoms: C_27  and  C_31
   13  A    between atoms: C_27  and  C_54
   14  A    between atoms: C_28  and  C_49
   15  A    between atoms: C_33  and  C_49
   16  A    between atoms: C_33  and  C_52
   17  A    between atoms: C_35  and  C_43
   18  A    between atoms: S_36  and  C_52
   19  A    between atoms: C_43  and  C_51
   20  A    between atoms: C_51  and  C_54
                            x       y       z     vdW  Elec       q    Type
                         _______ _______ _______ _____ _____    ______ ____

>  <TORSDO>
F 20

$$$$
=
 OpenBabel11052419373D

 55 58  0  0  1  0  0  0  0  0999 V2000
  188.8580  172.9830  139.0120 C   0  0  0  0  0  0  0  0  0  0  0  0
  188.0920  174.7480  140.6120 C   0  0  0  0  0  1  0  0  0  0  0  0
  188.8210  173.5190  140.3440 N   0  0  0  0  0  0  0  0  0  0  0  0
  188.4160  173.6620  138.0450 O   0  0  0  0  0  0  0  0  0  0  0  0
  189.4120  171.6220  138.7460 C   0  0  0  0  0  2  0  0  0  0  0  0
  189.9600  171.5560  137.3340 C   0  0  0  0  0  2  0  0  0  0  0  0
  190.7680  170.2850  137.1230 C   0  0  0  0  0  2  0  0  0  0  0  0
  191.8090  170.4950  136.0370 C   0  0  0  0  0  2  0  0  0  0  0  0
  192.1750  171.9690  135.9430 C   0  0  0  0  0  2  0  0  0  0  0  0
  193.5590  172.2140  136.5210 C   0  0  0  0  0  2  0  0  0  0  0  0
  193.6110  173.4970  137.2130 N   0  0  0  0  0  0  0  0  0  0  0  0
  194.7750  176.3260  135.2400 O   0  0  0  0  0  0  0  0  0  0  0  0
  194.4250  174.3850  136.4730 N   0  0  0  0  0  2  0  0  0  0  0  0
  193.9960  175.6580  135.9620 C   0  0  0  0  0  0  0  0  0  0  0  0
  192.7300  176.1660  136.2540 O   0  0  0  0  0  1  0  0  0  0  0  0
  194.2180  173.2870  138.5270 C   0  0  0  0  0  2  0  0  0  0  0  0
  195.9380  174.3310  140.8710 N   0  0  0  0  0  0  0  0  0  0  0  0
  192.1360  172.8600  140.2890 F   0  0  0  0  0  0  0  0  0  0  0  0
  193.8160  174.3960  139.5010 C   0  0  1  0  0  3  0  0  0  0  0  0
  195.4160  171.6550  143.5210 C   0  0  0  0  0  2  0  0  0  0  0  0
  192.1420  174.9590  141.0760 F   0  0  0  0  0  0  0  0  0  0  0  0
  192.9580  173.9100  140.6890 C   0  0  0  0  0  0  0  0  0  0  0  0
  196.9920  173.7890  140.0260 C   0  0  0  0  0  1  0  0  0  0  0  0
  194.0050  172.0410  143.9430 C   0  0  0  0  0  2  0  0  0  0  0  0
  193.1720  172.3740  142.7130 C   0  0  0  0  0  2  0  0  0  0  0  0
  195.2750  173.1930  141.5340 C   0  0  2  0  0  3  0  0  0  0  0  0
  193.8150  173.5120  141.9100 C   0  0  1  0  0  3  0  0  0  0  0  0
  196.0700  172.8180  142.7880 C   0  0  0  0  0  2  0  0  0  0  0  0
  195.0600  175.1390  140.0020 C   0  0  0  0  0  2  0  0  0  0  0  0
  189.4370  172.8270  141.4660 C   0  0  0  0  0  2  0  0  0  0  0  0
  188.7720  173.2470  142.7660 C   0  0  0  0  0  2  0  0  0  0  0  0
  189.7970  173.7080  143.7840 C   0  0  0  0  0  2  0  0  0  0  0  0
  190.2000  175.1570  143.5240 C   0  0  0  0  0  2  0  0  0  0  0  0
  191.7260  175.1860  147.0520 C   0  0  0  0  0  3  0  0  0  0  0  0
  193.2740  176.2990  145.5610 C   0  0  1  0  0  3  0  0  0  0  0  0
  190.6780  175.0100  145.9780 C   0  0  0  0  0  2  0  0  0  0  0  0
  192.4750  175.7210  144.3870 C   0  0  0  0  0  2  0  0  0  0  0  0
  192.8820  175.7170  146.8310 N   0  0  0  0  0  0  0  0  0  0  0  0
  190.9760  175.7850  144.6870 C   0  0  1  0  0  0  0  0  0  0  0  0
  194.7860  176.2060  145.3680 C   0  0  1  0  0  3  0  0  0  0  0  0
  195.3180  175.0010  145.9830 N   0  0  0  0  0  1  0  0  0  0  0  0
  195.1500  176.2430  143.8950 C   0  0  0  0  0  1  0  0  0  0  0  0
  190.4840  177.5500  144.8840 S   0  0  0  0  0  0  0  0  0  0  0  0
  186.0750  176.7760  145.9000 C   0  0  0  0  0  3  0  0  0  0  0  0
  187.0500  176.6970  146.8940 C   0  0  0  0  0  3  0  0  0  0  0  0
  188.1200  177.6400  142.9840 F   0  0  0  0  0  0  0  0  0  0  0  0
  188.7500  177.2940  145.2690 C   0  0  0  0  0  0  0  0  0  0  0  0
  188.3870  176.9560  146.5760 C   0  0  0  0  0  3  0  0  0  0  0  0
  187.7690  177.3600  144.2660 C   0  0  0  0  0  0  0  0  0  0  0  0
  186.4250  177.1130  144.5820 C   0  0  0  0  0  0  0  0  0  0  0  0
  185.4620  177.2130  143.5640 O   0  0  0  0  0  0  0  0  0  0  0  0
  183.9980  178.1560  141.9150 C   0  0  0  0  0  1  0  0  0  0  0  0
  185.8120  179.3670  142.8050 F   0  0  0  0  0  0  0  0  0  0  0  0
  183.9540  178.9800  144.2320 C   0  0  0  0  0  1  0  0  0  0  0  0
  184.8480  178.4320  143.1370 C   0  0  0  0  0  0  0  0  0  0  0  0
  1  3  1  0  0  0  0
  3  2  1  0  0  0  0
  3 30  1  0  0  0  0
  4  1  2  0  0  0  0
  5  1  1  0  0  0  0
  6  5  1  0  0  0  0
  7  6  1  0  0  0  0
  8  7  1  0  0  0  0
  9  8  1  0  0  0  0
  9 10  1  0  0  0  0
 10 11  1  0  0  0  0
 11 16  1  0  0  0  0
 12 14  2  0  0  0  0
 13 11  1  0  0  0  0
 14 15  1  0  0  0  0
 14 13  1  0  0  0  0
 17 26  1  0  0  0  0
 18 22  1  0  0  0  0
 19 16  1  1  0  0  0
 19 29  1  0  0  0  0
 19 22  1  0  0  0  0
 20 24  1  0  0  0  0
 22 21  1  0  0  0  0
 22 27  1  0  0  0  0
 23 17  1  0  0  0  0
 25 24  1  0  0  0  0
 26 27  1  0  0  0  0
 26 28  1  1  0  0  0
 27 25  1  6  0  0  0
 28 20  1  0  0  0  0
 29 17  1  0  0  0  0
 30 31  1  0  0  0  0
 31 32  1  0  0  0  0
 33 32  1  0  0  0  0
 35 40  1  6  0  0  0
 35 38  1  0  0  0  0
 36 34  1  0  0  0  0
 37 39  1  0  0  0  0
 37 35  1  0  0  0  0
 38 34  2  0  0  0  0
 39 33  1  6  0  0  0
 39 43  1  0  0  0  0
 39 36  1  0  0  0  0
 40 42  1  6  0  0  0
 40 41  1  0  0  0  0
 43 47  1  0  0  0  0
 44 45  1  0  0  0  0
 46 49  1  0  0  0  0
 47 48  1  0  0  0  0
 48 45  2  0  0  0  0
 49 50  1  0  0  0  0
 49 47  2  0  0  0  0
 50 44  2  0  0  0  0
 51 50  1  0  0  0  0
 52 55  1  0  0  0  0
 53 55  1  0  0  0  0
 55 51  1  0  0  0  0
 55 54  1  0  0  0  0
M  END
>  <MODEL>
3

>  <REMARK>
 VINA RESULT:      -6.3      2.642      5.992
  Name = 
  20 active torsions:
  status: ('A' for Active; 'I' for Inactive)
    1  A    between atoms: C_2  and  C_28
    2  A    between atoms: C_2  and  N_44
    3  A    between atoms: C_6  and  C_46
    4  A    between atoms: N_8  and  N_22
    5  A    between atoms: C_10  and  C_32
    6  A    between atoms: C_17  and  S_36
    7  A    between atoms: O_19  and  C_40
    8  A    between atoms: O_19  and  C_45
    9  A    between atoms: N_22  and  C_35
   10  A    between atoms: N_22  and  C_46
   11  A    between atoms: C_24  and  C_31
   12  A    between atoms: C_27  and  C_31
   13  A    between atoms: C_27  and  C_54
   14  A    between atoms: C_28  and  C_49
   15  A    between atoms: C_33  and  C_49
   16  A    between atoms: C_33  and  C_52
   17  A    between atoms: C_35  and  C_43
   18  A    between atoms: S_36  and  C_52
   19  A    between atoms: C_43  and  C_51
   20  A    between atoms: C_51  and  C_54
                            x       y       z     vdW  Elec       q    Type
                         _______ _______ _______ _____ _____    ______ ____

>  <TORSDO>
F 20

$$$$
=
 OpenBabel11052419373D

 55 58  0  0  1  0  0  0  0  0999 V2000
  189.5840  172.4300  142.4090 C   0  0  0  0  0  0  0  0  0  0  0  0
  189.5870  171.9440  144.8620 C   0  0  0  0  0  1  0  0  0  0  0  0
  190.3090  172.1940  143.6260 N   0  0  0  0  0  0  0  0  0  0  0  0
  188.3350  172.6000  142.4400 O   0  0  0  0  0  0  0  0  0  0  0  0
  190.2870  172.4770  141.0920 C   0  0  0  0  0  2  0  0  0  0  0  0
  190.7670  173.8880  140.8130 C   0  0  0  0  0  2  0  0  0  0  0  0
  190.2640  174.8530  141.8750 C   0  0  0  0  0  2  0  0  0  0  0  0
  191.4220  175.6360  142.4680 C   0  0  0  0  0  2  0  0  0  0  0  0
  190.9520  177.0170  142.9000 C   0  0  0  0  0  2  0  0  0  0  0  0
  191.6210  177.4270  144.2020 C   0  0  0  0  0  2  0  0  0  0  0  0
  190.6550  177.4540  145.2940 N   0  0  0  0  0  0  0  0  0  0  0  0
  191.2910  175.0790  147.9780 O   0  0  0  0  0  0  0  0  0  0  0  0
  190.7750  176.2610  146.0430 N   0  0  0  0  0  2  0  0  0  0  0  0
  191.1250  176.1970  147.4350 C   0  0  0  0  0  0  0  0  0  0  0  0
  191.2820  177.3570  148.1950 O   0  0  0  0  0  1  0  0  0  0  0  0
  189.3120  177.5170  144.7200 C   0  0  0  0  0  2  0  0  0  0  0  0
  186.6640  176.5300  143.4700 N   0  0  0  0  0  0  0  0  0  0  0  0
  187.9970  177.9050  147.1160 F   0  0  0  0  0  0  0  0  0  0  0  0
  188.4230  176.4050  145.2800 C   0  0  1  0  0  3  0  0  0  0  0  0
  184.1990  179.2110  144.5610 C   0  0  0  0  0  2  0  0  0  0  0  0
  187.2010  175.8120  147.2170 F   0  0  0  0  0  0  0  0  0  0  0  0
  187.4320  176.8780  146.3650 C   0  0  0  0  0  0  0  0  0  0  0  0
  187.2930  177.0920  142.2830 C   0  0  0  0  0  1  0  0  0  0  0  0
  184.0570  178.7930  146.0180 C   0  0  0  0  0  2  0  0  0  0  0  0
  185.4230  178.4320  146.5870 C   0  0  0  0  0  2  0  0  0  0  0  0
  186.1580  177.6560  144.2760 C   0  0  2  0  0  3  0  0  0  0  0  0
  186.0710  177.3040  145.7740 C   0  0  1  0  0  3  0  0  0  0  0  0
  184.7770  178.0580  143.7500 C   0  0  0  0  0  2  0  0  0  0  0  0
  187.6800  175.6950  144.1420 C   0  0  0  0  0  2  0  0  0  0  0  0
  191.7620  172.1250  143.6520 C   0  0  0  0  0  2  0  0  0  0  0  0
  192.2120  170.6770  143.7560 C   0  0  0  0  0  2  0  0  0  0  0  0
  193.4650  170.4300  142.9380 C   0  0  0  0  0  2  0  0  0  0  0  0
  193.7770  171.6360  142.0550 C   0  0  0  0  0  2  0  0  0  0  0  0
  194.7920  169.1940  139.2640 C   0  0  0  0  0  3  0  0  0  0  0  0
  194.2020  171.3020  138.2330 C   0  0  1  0  0  3  0  0  0  0  0  0
  194.6250  169.7310  140.6670 C   0  0  0  0  0  2  0  0  0  0  0  0
  193.5710  171.7180  139.5670 C   0  0  0  0  0  2  0  0  0  0  0  0
  194.5540  169.8950  138.2060 N   0  0  0  0  0  0  0  0  0  0  0  0
  194.4490  171.2550  140.7320 C   0  0  1  0  0  0  0  0  0  0  0  0
  193.3470  171.6670  137.0210 C   0  0  1  0  0  3  0  0  0  0  0  0
  191.9710  171.9270  137.4110 N   0  0  0  0  0  1  0  0  0  0  0  0
  193.9190  172.8710  136.2940 C   0  0  0  0  0  1  0  0  0  0  0  0
  196.0900  172.0840  140.6050 S   0  0  0  0  0  0  0  0  0  0  0  0
  195.0210  176.1720  142.3970 C   0  0  0  0  0  3  0  0  0  0  0  0
  194.6930  175.8760  141.0750 C   0  0  0  0  0  3  0  0  0  0  0  0
  196.6500  173.0530  143.4250 F   0  0  0  0  0  0  0  0  0  0  0  0
  195.6430  173.6590  141.3380 C   0  0  0  0  0  0  0  0  0  0  0  0
  195.0040  174.6190  140.5470 C   0  0  0  0  0  3  0  0  0  0  0  0
  195.9860  173.9630  142.6650 C   0  0  0  0  0  0  0  0  0  0  0  0
  195.6650  175.2180  143.2030 C   0  0  0  0  0  0  0  0  0  0  0  0
  195.9950  175.4840  144.5420 O   0  0  0  0  0  0  0  0  0  0  0  0
  194.5840  176.7230  146.0340 C   0  0  0  0  0  1  0  0  0  0  0  0
  195.7500  174.8010  146.7360 F   0  0  0  0  0  0  0  0  0  0  0  0
  193.9150  174.4850  145.2620 C   0  0  0  0  0  1  0  0  0  0  0  0
  195.0980  175.3530  145.6480 C   0  0  0  0  0  0  0  0  0  0  0  0
  1  4  2  0  0  0  0
  1  3  1  0  0  0  0
  3 30  1  0  0  0  0
  3  2  1  0  0  0  0
  5  1  1  0  0  0  0
  6  5  1  0  0  0  0
  6  7  1  0  0  0  0
  7  8  1  0  0  0  0
  8  9  1  0  0  0  0
  9 10  1  0  0  0  0
 10 11  1  0  0  0  0
 11 13  1  0  0  0  0
 13 14  1  0  0  0  0
 14 12  2  0  0  0  0
 14 15  1  0  0  0  0
 16 11  1  0  0  0  0
 17 29  1  0  0  0  0
 17 26  1  0  0  0  0
 19 16  1  6  0  0  0
 19 22  1  0  0  0  0
 20 24  1  0  0  0  0
 22 18  1  0  0  0  0
 22 21  1  0  0  0  0
 23 17  1  0  0  0  0
 24 25  1  0  0  0  0
 26 28  1  6  0  0  0
 26 27  1  0  0  0  0
 27 22  1  0  0  0  0
 27 25  1  1  0  0  0
 28 20  1  0  0  0  0
 29 19  1  0  0  0  0
 30 31  1  0  0  0  0
 32 31  1  0  0  0  0
 33 32  1  0  0  0  0
 34 36  1  0  0  0  0
 35 40  1  6  0  0  0
 35 37  1  0  0  0  0
 36 39  1  0  0  0  0
 37 39  1  0  0  0  0
 38 35  1  0  0  0  0
 38 34  2  0  0  0  0
 39 33  1  1  0  0  0
 40 42  1  1  0  0  0
 40 41  1  0  0  0  0
 43 39  1  0  0  0  0
 43 47  1  0  0  0  0
 44 50  1  0  0  0  0
 45 44  2  0  0  0  0
 47 49  1  0  0  0  0
 48 45  1  0  0  0  0
 48 47  2  0  0  0  0
 49 50  2  0  0  0  0
 49 46  1  0  0  0  0
 50 51  1  0  0  0  0
 51 55  1  0  0  0  0
 54 55  1  0  0  0  0
 55 52  1  0  0  0  0
 55 53  1  0  0  0  0
M  END
>  <MODEL>
4

>  <REMARK>
 VINA RESULT:      -6.2      2.894      8.401
  Name = 
  20 active torsions:
  status: ('A' for Active; 'I' for Inactive)
    1  A    between atoms: C_2  and  C_28
    2  A    between atoms: C_2  and  N_44
    3  A    between atoms: C_6  and  C_46
    4  A    between atoms: N_8  and  N_22
    5  A    between atoms: C_10  and  C_32
    6  A    between atoms: C_17  and  S_36
    7  A    between atoms: O_19  and  C_40
    8  A    between atoms: O_19  and  C_45
    9  A    between atoms: N_22  and  C_35
   10  A    between atoms: N_22  and  C_46
   11  A    between atoms: C_24  and  C_31
   12  A    between atoms: C_27  and  C_31
   13  A    between atoms: C_27  and  C_54
   14  A    between atoms: C_28  and  C_49
   15  A    between atoms: C_33  and  C_49
   16  A    between atoms: C_33  and  C_52
   17  A    between atoms: C_35  and  C_43
   18  A    between atoms: S_36  and  C_52
   19  A    between atoms: C_43  and  C_51
   20  A    between atoms: C_51  and  C_54
                            x       y       z     vdW  Elec       q    Type
                         _______ _______ _______ _____ _____    ______ ____

>  <TORSDO>
F 20

$$$$
=
 OpenBabel11052419373D

 55 58  0  0  1  0  0  0  0  0999 V2000
  191.0710  171.2390  142.6930 C   0  0  0  0  0  0  0  0  0  0  0  0
  189.9100  172.3180  144.6280 C   0  0  0  0  0  1  0  0  0  0  0  0
  189.9670  171.9980  143.2110 N   0  0  0  0  0  0  0  0  0  0  0  0
  191.8930  170.6980  143.4820 O   0  0  0  0  0  0  0  0  0  0  0  0
  191.2690  171.0770  141.2210 C   0  0  0  0  0  2  0  0  0  0  0  0
  192.5670  170.3430  140.9530 C   0  0  0  0  0  2  0  0  0  0  0  0
  193.0000  170.5150  139.5050 C   0  0  0  0  0  2  0  0  0  0  0  0
  191.9340  171.2600  138.7210 C   0  0  0  0  0  2  0  0  0  0  0  0
  192.5860  172.1820  137.7000 C   0  0  0  0  0  2  0  0  0  0  0  0
  191.7480  173.4330  137.4970 C   0  0  0  0  0  2  0  0  0  0  0  0
  192.5390  174.6320  137.7410 N   0  0  0  0  0  0  0  0  0  0  0  0
  193.6120  175.9360  134.5160 O   0  0  0  0  0  0  0  0  0  0  0  0
  192.6190  175.3820  136.5440 N   0  0  0  0  0  2  0  0  0  0  0  0
  193.5730  175.1520  135.4950 C   0  0  0  0  0  0  0  0  0  0  0  0
  194.4580  174.0740  135.5440 O   0  0  0  0  0  1  0  0  0  0  0  0
  193.8880  174.2230  138.1310 C   0  0  0  0  0  2  0  0  0  0  0  0
  196.6480  173.9370  139.4890 N   0  0  0  0  0  0  0  0  0  0  0  0
  192.7270  174.4820  140.6220 F   0  0  0  0  0  0  0  0  0  0  0  0
  194.4870  175.2010  139.1440 C   0  0  1  0  0  3  0  0  0  0  0  0
  195.9590  171.3650  142.2030 C   0  0  0  0  0  2  0  0  0  0  0  0
  194.0550  176.1710  141.2580 F   0  0  0  0  0  0  0  0  0  0  0  0
  194.0360  174.9540  140.5990 C   0  0  0  0  0  0  0  0  0  0  0  0
  196.8850  173.1360  138.2960 C   0  0  0  0  0  1  0  0  0  0  0  0
  195.2030  172.2670  143.1690 C   0  0  0  0  0  2  0  0  0  0  0  0
  194.2360  173.1550  142.3960 C   0  0  0  0  0  2  0  0  0  0  0  0
  195.8300  173.1260  140.4100 C   0  0  2  0  0  3  0  0  0  0  0  0
  194.9850  174.0010  141.3570 C   0  0  1  0  0  3  0  0  0  0  0  0
  196.7550  172.2150  141.2210 C   0  0  0  0  0  2  0  0  0  0  0  0
  196.0180  175.1960  139.0450 C   0  0  0  0  0  2  0  0  0  0  0  0
  188.9250  172.5260  142.3440 C   0  0  0  0  0  2  0  0  0  0  0  0
  189.3170  173.9040  141.8390 C   0  0  0  0  0  2  0  0  0  0  0  0
  188.3260  174.9590  142.2940 C   0  0  0  0  0  2  0  0  0  0  0  0
  188.6100  175.3770  143.7340 C   0  0  0  0  0  2  0  0  0  0  0  0
  186.2950  178.4150  143.2980 C   0  0  0  0  0  3  0  0  0  0  0  0
  186.7140  178.1300  145.6640 C   0  0  1  0  0  3  0  0  0  0  0  0
  187.2400  177.3020  142.9060 C   0  0  0  0  0  2  0  0  0  0  0  0
  187.2710  176.7380  145.3440 C   0  0  0  0  0  2  0  0  0  0  0  0
  186.0450  178.7300  144.5250 N   0  0  0  0  0  0  0  0  0  0  0  0
  188.1060  176.7860  144.0630 C   0  0  1  0  0  0  0  0  0  0  0  0
  185.8090  178.1520  146.8940 C   0  0  1  0  0  3  0  0  0  0  0  0
  185.9370  179.4070  147.6160 N   0  0  0  0  0  1  0  0  0  0  0  0
  184.3600  177.9190  146.5080 C   0  0  0  0  0  1  0  0  0  0  0  0
  189.5380  177.9150  144.3290 S   0  0  0  0  0  0  0  0  0  0  0  0
  192.0180  175.3190  147.1900 C   0  0  0  0  0  3  0  0  0  0  0  0
  190.8250  175.8990  147.6210 C   0  0  0  0  0  3  0  0  0  0  0  0
  192.1600  176.5110  143.7270 F   0  0  0  0  0  0  0  0  0  0  0  0
  190.5010  176.8610  145.4170 C   0  0  0  0  0  0  0  0  0  0  0  0
  190.0680  176.6690  146.7330 C   0  0  0  0  0  3  0  0  0  0  0  0
  191.7090  176.2890  144.9880 C   0  0  0  0  0  0  0  0  0  0  0  0
  192.4670  175.5050  145.8710 C   0  0  0  0  0  0  0  0  0  0  0  0
  193.6570  174.9230  145.4060 O   0  0  0  0  0  0  0  0  0  0  0  0
  195.9160  174.3980  146.0170 C   0  0  0  0  0  1  0  0  0  0  0  0
  194.9410  176.4780  146.5320 F   0  0  0  0  0  0  0  0  0  0  0  0
  195.4580  176.0510  144.2540 C   0  0  0  0  0  1  0  0  0  0  0  0
  194.9610  175.4850  145.5710 C   0  0  0  0  0  0  0  0  0  0  0  0
  1  3  1  0  0  0  0
  1  4  2  0  0  0  0
  3  2  1  0  0  0  0
  5  1  1  0  0  0  0
  6  5  1  0  0  0  0
  7  6  1  0  0  0  0
  8  7  1  0  0  0  0
  9  8  1  0  0  0  0
 10  9  1  0  0  0  0
 10 11  1  0  0  0  0
 11 16  1  0  0  0  0
 12 14  2  0  0  0  0
 13 11  1  0  0  0  0
 14 15  1  0  0  0  0
 14 13  1  0  0  0  0
 17 26  1  0  0  0  0
 19 16  1  6  0  0  0
 19 22  1  0  0  0  0
 20 24  1  0  0  0  0
 22 18  1  0  0  0  0
 22 21  1  0  0  0  0
 22 27  1  0  0  0  0
 23 17  1  0  0  0  0
 25 24  1  0  0  0  0
 26 28  1  1  0  0  0
 26 27  1  0  0  0  0
 27 25  1  1  0  0  0
 28 20  1  0  0  0  0
 29 19  1  0  0  0  0
 29 17  1  0  0  0  0
 30  3  1  0  0  0  0
 31 32  1  0  0  0  0
 31 30  1  0  0  0  0
 32 33  1  0  0  0  0
 34 38  2  0  0  0  0
 35 40  1  1  0  0  0
 36 34  1  0  0  0  0
 36 39  1  0  0  0  0
 37 35  1  0  0  0  0
 38 35  1  0  0  0  0
 39 33  1  6  0  0  0
 39 43  1  0  0  0  0
 39 37  1  0  0  0  0
 40 42  1  6  0  0  0
 40 41  1  0  0  0  0
 43 47  1  0  0  0  0
 44 45  1  0  0  0  0
 46 49  1  0  0  0  0
 47 48  1  0  0  0  0
 48 45  2  0  0  0  0
 49 47  2  0  0  0  0
 49 50  1  0  0  0  0
 50 44  2  0  0  0  0
 51 55  1  0  0  0  0
 51 50  1  0  0  0  0
 54 55  1  0  0  0  0
 55 52  1  0  0  0  0
 55 53  1  0  0  0  0
M  END
>  <MODEL>
5

>  <REMARK>
 VINA RESULT:      -6.0      2.989      6.731
  Name = 
  20 active torsions:
  status: ('A' for Active; 'I' for Inactive)
    1  A    between atoms: C_2  and  C_28
    2  A    between atoms: C_2  and  N_44
    3  A    between atoms: C_6  and  C_46
    4  A    between atoms: N_8  and  N_22
    5  A    between atoms: C_10  and  C_32
    6  A    between atoms: C_17  and  S_36
    7  A    between atoms: O_19  and  C_40
    8  A    between atoms: O_19  and  C_45
    9  A    between atoms: N_22  and  C_35
   10  A    between atoms: N_22  and  C_46
   11  A    between atoms: C_24  and  C_31
   12  A    between atoms: C_27  and  C_31
   13  A    between atoms: C_27  and  C_54
   14  A    between atoms: C_28  and  C_49
   15  A    between atoms: C_33  and  C_49
   16  A    between atoms: C_33  and  C_52
   17  A    between atoms: C_35  and  C_43
   18  A    between atoms: S_36  and  C_52
   19  A    between atoms: C_43  and  C_51
   20  A    between atoms: C_51  and  C_54
                            x       y       z     vdW  Elec       q    Type
                         _______ _______ _______ _____ _____    ______ ____

>  <TORSDO>
F 20

$$$$
=
 OpenBabel11052419373D

 55 58  0  0  1  0  0  0  0  0999 V2000
  186.7950  176.5600  139.0710 C   0  0  0  0  0  0  0  0  0  0  0  0
  187.6280  174.8400  137.4580 C   0  0  0  0  0  1  0  0  0  0  0  0
  187.5500  175.3670  138.8100 N   0  0  0  0  0  0  0  0  0  0  0  0
  186.0560  177.0500  138.1740 O   0  0  0  0  0  0  0  0  0  0  0  0
  186.8690  177.2420  140.3980 C   0  0  0  0  0  2  0  0  0  0  0  0
  185.7120  178.2100  140.5460 C   0  0  0  0  0  2  0  0  0  0  0  0
  184.7490  177.7450  141.6270 C   0  0  0  0  0  2  0  0  0  0  0  0
  184.7420  178.7280  142.7850 C   0  0  0  0  0  2  0  0  0  0  0  0
  184.9760  177.9910  144.0960 C   0  0  0  0  0  2  0  0  0  0  0  0
  186.2670  177.1930  144.0390 C   0  0  0  0  0  2  0  0  0  0  0  0
  186.6670  176.7570  145.3720 N   0  0  0  0  0  0  0  0  0  0  0  0
  186.4120  179.0170  148.2140 O   0  0  0  0  0  0  0  0  0  0  0  0
  186.7730  177.8880  146.2130 N   0  0  0  0  0  2  0  0  0  0  0  0
  186.3540  177.9320  147.5870 C   0  0  0  0  0  0  0  0  0  0  0  0
  185.8850  176.7900  148.2370 O   0  0  0  0  0  1  0  0  0  0  0  0
  187.9790  176.1180  145.2740 C   0  0  0  0  0  2  0  0  0  0  0  0
  190.1670  174.9630  143.4240 N   0  0  0  0  0  0  0  0  0  0  0  0
  189.8790  177.7350  146.4560 F   0  0  0  0  0  0  0  0  0  0  0  0
  188.9230  176.9380  144.3940 C   0  0  1  0  0  3  0  0  0  0  0  0
  192.9610  174.1550  145.8740 C   0  0  0  0  0  2  0  0  0  0  0  0
  190.5680  178.6350  144.5210 F   0  0  0  0  0  0  0  0  0  0  0  0
  190.1810  177.4520  145.1270 C   0  0  0  0  0  0  0  0  0  0  0  0
  189.2860  173.8060  143.5020 C   0  0  0  0  0  1  0  0  0  0  0  0
  193.4480  175.5760  146.1210 C   0  0  0  0  0  2  0  0  0  0  0  0
  192.2560  176.5120  146.2730 C   0  0  0  0  0  2  0  0  0  0  0  0
  190.9180  175.0300  144.6920 C   0  0  2  0  0  3  0  0  0  0  0  0
  191.3660  176.4670  145.0240 C   0  0  1  0  0  3  0  0  0  0  0  0
  192.1380  174.1100  144.5930 C   0  0  0  0  0  2  0  0  0  0  0  0
  189.3160  176.1370  143.1460 C   0  0  0  0  0  2  0  0  0  0  0  0
  188.3090  174.6960  139.8540 C   0  0  0  0  0  2  0  0  0  0  0  0
  188.8090  173.3510  139.3530 C   0  0  0  0  0  2  0  0  0  0  0  0
  190.3100  173.3670  139.1400 C   0  0  0  0  0  2  0  0  0  0  0  0
  191.0430  173.2670  140.4740 C   0  0  0  0  0  2  0  0  0  0  0  0
  193.0220  170.3840  142.0710 C   0  0  0  0  0  3  0  0  0  0  0  0
  192.6590  169.8390  139.7420 C   0  0  1  0  0  3  0  0  0  0  0  0
  192.3940  171.7520  141.9420 C   0  0  0  0  0  2  0  0  0  0  0  0
  191.6200  170.9650  139.6950 C   0  0  0  0  0  2  0  0  0  0  0  0
  193.0850  169.5400  141.0960 N   0  0  0  0  0  0  0  0  0  0  0  0
  192.1160  172.1740  140.4920 C   0  0  1  0  0  0  0  0  0  0  0  0
  192.2060  168.5690  139.0260 C   0  0  1  0  0  3  0  0  0  0  0  0
  190.8730  168.1760  139.4510 N   0  0  0  0  0  1  0  0  0  0  0  0
  192.2390  168.7510  137.5190 C   0  0  0  0  0  1  0  0  0  0  0  0
  193.6630  172.8050  139.7130 S   0  0  0  0  0  0  0  0  0  0  0  0
  195.0730  175.6480  143.0290 C   0  0  0  0  0  3  0  0  0  0  0  0
  194.0100  176.0050  142.2020 C   0  0  0  0  0  3  0  0  0  0  0  0
  195.9280  172.3490  141.6810 F   0  0  0  0  0  0  0  0  0  0  0  0
  194.2020  173.8820  141.0440 C   0  0  0  0  0  0  0  0  0  0  0  0
  193.5750  175.1210  141.2100 C   0  0  0  0  0  3  0  0  0  0  0  0
  195.2820  173.5290  141.8680 C   0  0  0  0  0  0  0  0  0  0  0  0
  195.7140  174.4070  142.8730 C   0  0  0  0  0  0  0  0  0  0  0  0
  196.7790  174.0160  143.7010 O   0  0  0  0  0  0  0  0  0  0  0  0
  197.6190  171.9630  144.6120 C   0  0  0  0  0  1  0  0  0  0  0  0
  195.3780  172.6260  144.9020 F   0  0  0  0  0  0  0  0  0  0  0  0
  197.0360  173.8350  146.0970 C   0  0  0  0  0  1  0  0  0  0  0  0
  196.6660  173.1220  144.8110 C   0  0  0  0  0  0  0  0  0  0  0  0
  1  5  1  0  0  0  0
  2  3  1  0  0  0  0
  3  1  1  0  0  0  0
  3 30  1  0  0  0  0
  4  1  2  0  0  0  0
  5  6  1  0  0  0  0
  6  7  1  0  0  0  0
  7  8  1  0  0  0  0
  8  9  1  0  0  0  0
 10  9  1  0  0  0  0
 10 11  1  0  0  0  0
 11 13  1  0  0  0  0
 13 14  1  0  0  0  0
 14 12  2  0  0  0  0
 14 15  1  0  0  0  0
 16 11  1  0  0  0  0
 17 23  1  0  0  0  0
 17 26  1  0  0  0  0
 19 22  1  0  0  0  0
 19 16  1  1  0  0  0
 20 24  1  0  0  0  0
 21 22  1  0  0  0  0
 22 18  1  0  0  0  0
 24 25  1  0  0  0  0
 26 28  1  6  0  0  0
 26 27  1  0  0  0  0
 27 22  1  0  0  0  0
 27 25  1  1  0  0  0
 28 20  1  0  0  0  0
 29 17  1  0  0  0  0
 29 19  1  0  0  0  0
 31 30  1  0  0  0  0
 32 31  1  0  0  0  0
 32 33  1  0  0  0  0
 35 40  1  1  0  0  0
 35 38  1  0  0  0  0
 36 34  1  0  0  0  0
 37 35  1  0  0  0  0
 37 39  1  0  0  0  0
 38 34  2  0  0  0  0
 39 33  1  6  0  0  0
 39 36  1  0  0  0  0
 40 42  1  6  0  0  0
 40 41  1  0  0  0  0
 43 39  1  0  0  0  0
 43 47  1  0  0  0  0
 45 44  2  0  0  0  0
 46 49  1  0  0  0  0
 47 48  2  0  0  0  0
 47 49  1  0  0  0  0
 48 45  1  0  0  0  0
 49 50  2  0  0  0  0
 50 44  1  0  0  0  0
 50 51  1  0  0  0  0
 51 55  1  0  0  0  0
 52 55  1  0  0  0  0
 55 53  1  0  0  0  0
 55 54  1  0  0  0  0
M  END
>  <MODEL>
6

>  <REMARK>
 VINA RESULT:      -5.9      2.882      8.531
  Name = 
  20 active torsions:
  status: ('A' for Active; 'I' for Inactive)
    1  A    between atoms: C_2  and  C_28
    2  A    between atoms: C_2  and  N_44
    3  A    between atoms: C_6  and  C_46
    4  A    between atoms: N_8  and  N_22
    5  A    between atoms: C_10  and  C_32
    6  A    between atoms: C_17  and  S_36
    7  A    between atoms: O_19  and  C_40
    8  A    between atoms: O_19  and  C_45
    9  A    between atoms: N_22  and  C_35
   10  A    between atoms: N_22  and  C_46
   11  A    between atoms: C_24  and  C_31
   12  A    between atoms: C_27  and  C_31
   13  A    between atoms: C_27  and  C_54
   14  A    between atoms: C_28  and  C_49
   15  A    between atoms: C_33  and  C_49
   16  A    between atoms: C_33  and  C_52
   17  A    between atoms: C_35  and  C_43
   18  A    between atoms: S_36  and  C_52
   19  A    between atoms: C_43  and  C_51
   20  A    between atoms: C_51  and  C_54
                            x       y       z     vdW  Elec       q    Type
                         _______ _______ _______ _____ _____    ______ ____

>  <TORSDO>
F 20

$$$$
=
 OpenBabel11052419373D

 55 58  0  0  1  0  0  0  0  0999 V2000
  190.5060  172.7620  144.0780 C   0  0  0  0  0  0  0  0  0  0  0  0
  190.9410  171.1330  142.2310 C   0  0  0  0  0  1  0  0  0  0  0  0
  191.2520  172.3780  142.9120 N   0  0  0  0  0  0  0  0  0  0  0  0
  189.7090  171.9460  144.6160 O   0  0  0  0  0  0  0  0  0  0  0  0
  190.6550  174.1250  144.6720 C   0  0  0  0  0  2  0  0  0  0  0  0
  191.7630  174.1180  145.7070 C   0  0  0  0  0  2  0  0  0  0  0  0
  191.4740  175.1140  146.8190 C   0  0  0  0  0  2  0  0  0  0  0  0
  190.0400  174.9690  147.2980 C   0  0  0  0  0  2  0  0  0  0  0  0
  189.2870  176.2750  147.0940 C   0  0  0  0  0  2  0  0  0  0  0  0
  187.9630  176.0260  146.3930 C   0  0  0  0  0  2  0  0  0  0  0  0
  188.0130  176.4880  145.0110 N   0  0  0  0  0  0  0  0  0  0  0  0
  190.8360  178.4970  143.8930 O   0  0  0  0  0  1  0  0  0  0  0  0
  188.9900  177.5040  144.9020 N   0  0  0  0  0  2  0  0  0  0  0  0
  189.9560  177.6040  143.8430 C   0  0  0  0  0  0  0  0  0  0  0  0
  189.9340  176.7250  142.7590 O   0  0  0  0  0  0  0  0  0  0  0  0
  186.7090  177.0490  144.6640 C   0  0  0  0  0  2  0  0  0  0  0  0
  184.5140  179.2160  144.4760 N   0  0  0  0  0  0  0  0  0  0  0  0
  187.0240  177.1790  141.9250 F   0  0  0  0  0  0  0  0  0  0  0  0
  186.8600  178.4120  143.9870 C   0  0  1  0  0  3  0  0  0  0  0  0
  182.3310  177.9220  141.6450 C   0  0  0  0  0  2  0  0  0  0  0  0
  187.3700  179.3940  141.8960 F   0  0  0  0  0  0  0  0  0  0  0  0
  186.6040  178.3910  142.4650 C   0  0  0  0  0  0  0  0  0  0  0  0
  184.0370  178.4950  145.6470 C   0  0  0  0  0  1  0  0  0  0  0  0
  183.2510  178.2750  140.4840 C   0  0  0  0  0  2  0  0  0  0  0  0
  184.6900  177.9320  140.8430 C   0  0  0  0  0  2  0  0  0  0  0  0
  184.1720  178.4080  143.2910 C   0  0  2  0  0  3  0  0  0  0  0  0
  185.1290  178.6760  142.1120 C   0  0  1  0  0  3  0  0  0  0  0  0
  182.7310  178.7200  142.8790 C   0  0  0  0  0  2  0  0  0  0  0  0
  185.9600  179.4480  144.6720 C   0  0  0  0  0  2  0  0  0  0  0  0
  192.2760  173.2380  142.3400 C   0  0  0  0  0  2  0  0  0  0  0  0
  191.8310  173.7420  140.9770 C   0  0  0  0  0  2  0  0  0  0  0  0
  193.0140  173.9280  140.0470 C   0  0  0  0  0  2  0  0  0  0  0  0
  194.3090  174.0620  140.8440 C   0  0  0  0  0  2  0  0  0  0  0  0
  197.4760  173.4210  138.7590 C   0  0  0  0  0  3  0  0  0  0  0  0
  196.2110  175.1750  137.6740 C   0  0  1  0  0  3  0  0  0  0  0  0
  196.5310  173.3450  139.9370 C   0  0  0  0  0  2  0  0  0  0  0  0
  195.0220  174.7970  138.5650 C   0  0  0  0  0  2  0  0  0  0  0  0
  197.2870  174.2050  137.7510 N   0  0  0  0  0  0  0  0  0  0  0  0
  195.5050  174.4850  139.9830 C   0  0  1  0  0  0  0  0  0  0  0  0
  195.8190  175.4330  136.2210 C   0  0  1  0  0  3  0  0  0  0  0  0
  194.4130  175.7830  136.1130 N   0  0  0  0  0  1  0  0  0  0  0  0
  196.6770  176.5280  135.6120 C   0  0  0  0  0  1  0  0  0  0  0  0
  196.2780  176.0000  140.6940 S   0  0  0  0  0  0  0  0  0  0  0  0
  195.2070  175.4220  145.1200 C   0  0  0  0  0  3  0  0  0  0  0  0
  194.4380  176.2610  144.3140 C   0  0  0  0  0  3  0  0  0  0  0  0
  197.7210  174.2610  142.7190 F   0  0  0  0  0  0  0  0  0  0  0  0
  195.8510  175.7260  142.4160 C   0  0  0  0  0  0  0  0  0  0  0  0
  194.7620  176.4110  142.9620 C   0  0  0  0  0  3  0  0  0  0  0  0
  196.6330  174.8920  143.2310 C   0  0  0  0  0  0  0  0  0  0  0  0
  196.3060  174.7280  144.5850 C   0  0  0  0  0  0  0  0  0  0  0  0
  197.0890  173.8660  145.3700 O   0  0  0  0  0  0  0  0  0  0  0  0
  195.4260  172.1590  145.0990 C   0  0  0  0  0  1  0  0  0  0  0  0
  196.9580  172.1290  146.8870 F   0  0  0  0  0  0  0  0  0  0  0  0
  197.8030  171.6500  144.7200 C   0  0  0  0  0  1  0  0  0  0  0  0
  196.8360  172.4700  145.5530 C   0  0  0  0  0  0  0  0  0  0  0  0
  1  4  2  0  0  0  0
  1  5  1  0  0  0  0
  2  3  1  0  0  0  0
  3  1  1  0  0  0  0
  5  6  1  0  0  0  0
  6  7  1  0  0  0  0
  7  8  1  0  0  0  0
  9  8  1  0  0  0  0
 10  9  1  0  0  0  0
 11 10  1  0  0  0  0
 13 11  1  0  0  0  0
 14 12  1  0  0  0  0
 14 13  1  0  0  0  0
 15 14  2  0  0  0  0
 16 11  1  0  0  0  0
 17 29  1  0  0  0  0
 17 23  1  0  0  0  0
 18 22  1  0  0  0  0
 19 16  1  1  0  0  0
 19 29  1  0  0  0  0
 20 28  1  0  0  0  0
 21 22  1  0  0  0  0
 22 19  1  0  0  0  0
 24 25  1  0  0  0  0
 24 20  1  0  0  0  0
 26 28  1  6  0  0  0
 26 17  1  0  0  0  0
 27 25  1  6  0  0  0
 27 22  1  0  0  0  0
 27 26  1  0  0  0  0
 30  3  1  0  0  0  0
 31 30  1  0  0  0  0
 32 33  1  0  0  0  0
 32 31  1  0  0  0  0
 34 36  1  0  0  0  0
 35 40  1  6  0  0  0
 35 38  1  0  0  0  0
 35 37  1  0  0  0  0
 36 39  1  0  0  0  0
 37 39  1  0  0  0  0
 38 34  2  0  0  0  0
 39 43  1  0  0  0  0
 39 33  1  1  0  0  0
 40 42  1  1  0  0  0
 41 40  1  0  0  0  0
 43 47  1  0  0  0  0
 45 44  2  0  0  0  0
 46 49  1  0  0  0  0
 47 48  2  0  0  0  0
 47 49  1  0  0  0  0
 48 45  1  0  0  0  0
 49 50  2  0  0  0  0
 50 44  1  0  0  0  0
 50 51  1  0  0  0  0
 51 55  1  0  0  0  0
 52 55  1  0  0  0  0
 54 55  1  0  0  0  0
 55 53  1  0  0  0  0
M  END
>  <MODEL>
7

>  <REMARK>
 VINA RESULT:      -5.9      3.020      9.652
  Name = 
  20 active torsions:
  status: ('A' for Active; 'I' for Inactive)
    1  A    between atoms: C_2  and  C_28
    2  A    between atoms: C_2  and  N_44
    3  A    between atoms: C_6  and  C_46
    4  A    between atoms: N_8  and  N_22
    5  A    between atoms: C_10  and  C_32
    6  A    between atoms: C_17  and  S_36
    7  A    between atoms: O_19  and  C_40
    8  A    between atoms: O_19  and  C_45
    9  A    between atoms: N_22  and  C_35
   10  A    between atoms: N_22  and  C_46
   11  A    between atoms: C_24  and  C_31
   12  A    between atoms: C_27  and  C_31
   13  A    between atoms: C_27  and  C_54
   14  A    between atoms: C_28  and  C_49
   15  A    between atoms: C_33  and  C_49
   16  A    between atoms: C_33  and  C_52
   17  A    between atoms: C_35  and  C_43
   18  A    between atoms: S_36  and  C_52
   19  A    between atoms: C_43  and  C_51
   20  A    between atoms: C_51  and  C_54
                            x       y       z     vdW  Elec       q    Type
                         _______ _______ _______ _____ _____    ______ ____

>  <TORSDO>
F 20

$$$$
=
 OpenBabel11052419373D

 55 58  0  0  1  0  0  0  0  0999 V2000
  186.8340  177.2560  145.5650 C   0  0  0  0  0  0  0  0  0  0  0  0
  184.7860  177.9060  144.2840 C   0  0  0  0  0  1  0  0  0  0  0  0
  186.1490  177.4020  144.3110 N   0  0  0  0  0  0  0  0  0  0  0  0
  186.2040  177.3910  146.6490 O   0  0  0  0  0  0  0  0  0  0  0  0
  188.2950  176.9460  145.6120 C   0  0  0  0  0  2  0  0  0  0  0  0
  188.7160  176.6630  147.0400 C   0  0  0  0  0  2  0  0  0  0  0  0
  189.5370  175.3860  147.1210 C   0  0  0  0  0  2  0  0  0  0  0  0
  190.8720  175.6590  147.7930 C   0  0  0  0  0  2  0  0  0  0  0  0
  192.0130  175.2390  146.8770 C   0  0  0  0  0  2  0  0  0  0  0  0
  192.9180  176.4200  146.5730 C   0  0  0  0  0  2  0  0  0  0  0  0
  193.0520  176.6130  145.1340 N   0  0  0  0  0  0  0  0  0  0  0  0
  190.3120  177.4840  142.9010 O   0  0  0  0  0  1  0  0  0  0  0  0
  191.7650  176.7660  144.5690 N   0  0  0  0  0  2  0  0  0  0  0  0
  191.4990  177.3110  143.2660 C   0  0  0  0  0  0  0  0  0  0  0  0
  192.5390  177.6520  142.4000 O   0  0  0  0  0  0  0  0  0  0  0  0
  193.6770  175.4200  144.5660 C   0  0  0  0  0  2  0  0  0  0  0  0
  196.1960  175.1680  142.7930 N   0  0  0  0  0  0  0  0  0  0  0  0
  194.4010  173.0960  145.8670 F   0  0  0  0  0  0  0  0  0  0  0  0
  195.1100  175.2560  145.0740 C   0  0  1  0  0  3  0  0  0  0  0  0
  196.0500  171.5340  141.6840 C   0  0  0  0  0  2  0  0  0  0  0  0
  196.4540  173.8260  146.3960 F   0  0  0  0  0  0  0  0  0  0  0  0
  195.5040  173.7980  145.3890 C   0  0  0  0  0  0  0  0  0  0  0  0
  195.3150  175.8560  141.8600 C   0  0  0  0  0  1  0  0  0  0  0  0
  196.4950  170.8910  142.9910 C   0  0  0  0  0  2  0  0  0  0  0  0
  195.8130  171.5820  144.1640 C   0  0  0  0  0  2  0  0  0  0  0  0
  195.7750  173.7550  142.8350 C   0  0  2  0  0  3  0  0  0  0  0  0
  196.1350  173.0830  144.1750 C   0  0  1  0  0  3  0  0  0  0  0  0
  196.4390  173.0060  141.6760 C   0  0  0  0  0  2  0  0  0  0  0  0
  196.1010  175.8810  144.0830 C   0  0  0  0  0  2  0  0  0  0  0  0
  186.8050  177.1250  143.0430 C   0  0  0  0  0  2  0  0  0  0  0  0
  186.7930  175.6310  142.7650 C   0  0  0  0  0  2  0  0  0  0  0  0
  187.9880  175.2170  141.9280 C   0  0  0  0  0  2  0  0  0  0  0  0
  188.1750  173.7030  141.9690 C   0  0  0  0  0  2  0  0  0  0  0  0
  190.9900  172.8220  144.4360 C   0  0  0  0  0  3  0  0  0  0  0  0
  191.1620  171.3250  142.5420 C   0  0  1  0  0  3  0  0  0  0  0  0
  189.8610  173.6160  143.8190 C   0  0  0  0  0  2  0  0  0  0  0  0
  189.7570  171.7760  142.1260 C   0  0  0  0  0  2  0  0  0  0  0  0
  191.5160  171.7870  143.8710 N   0  0  0  0  0  0  0  0  0  0  0  0
  189.6000  173.2820  142.3440 C   0  0  1  0  0  0  0  0  0  0  0  0
  191.3740  169.8180  142.4200 C   0  0  1  0  0  3  0  0  0  0  0  0
  190.4610  169.2390  141.4490 N   0  0  0  0  0  1  0  0  0  0  0  0
  192.8090  169.4990  142.0400 C   0  0  0  0  0  1  0  0  0  0  0  0
  190.8130  174.1680  141.2750 S   0  0  0  0  0  0  0  0  0  0  0  0
  189.4510  172.3420  137.2900 C   0  0  0  0  0  3  0  0  0  0  0  0
  188.6440  173.2660  137.9520 C   0  0  0  0  0  3  0  0  0  0  0  0
  192.3080  172.1450  139.5780 F   0  0  0  0  0  0  0  0  0  0  0  0
  190.3200  173.4750  139.6950 C   0  0  0  0  0  0  0  0  0  0  0  0
  189.0800  173.8320  139.1540 C   0  0  0  0  0  3  0  0  0  0  0  0
  191.1250  172.5330  139.0350 C   0  0  0  0  0  0  0  0  0  0  0  0
  190.6980  171.9720  137.8220 C   0  0  0  0  0  0  0  0  0  0  0  0
  191.5370  171.0530  137.1700 O   0  0  0  0  0  0  0  0  0  0  0  0
  192.4300  168.8790  136.6970 C   0  0  0  0  0  1  0  0  0  0  0  0
  190.4960  169.6880  135.6250 F   0  0  0  0  0  0  0  0  0  0  0  0
  190.3090  169.1110  137.9210 C   0  0  0  0  0  1  0  0  0  0  0  0
  191.1740  169.7130  136.8300 C   0  0  0  0  0  0  0  0  0  0  0  0
  1  5  1  0  0  0  0
  1  4  2  0  0  0  0
  2  3  1  0  0  0  0
  3  1  1  0  0  0  0
  5  6  1  0  0  0  0
  6  7  1  0  0  0  0
  7  8  1  0  0  0  0
  9  8  1  0  0  0  0
 10  9  1  0  0  0  0
 11 10  1  0  0  0  0
 12 14  1  0  0  0  0
 13 11  1  0  0  0  0
 14 13  1  0  0  0  0
 15 14  2  0  0  0  0
 16 11  1  0  0  0  0
 17 26  1  0  0  0  0
 17 29  1  0  0  0  0
 19 16  1  6  0  0  0
 19 22  1  0  0  0  0
 20 24  1  0  0  0  0
 22 18  1  0  0  0  0
 22 21  1  0  0  0  0
 23 17  1  0  0  0  0
 24 25  1  0  0  0  0
 26 28  1  6  0  0  0
 26 27  1  0  0  0  0
 27 25  1  6  0  0  0
 27 22  1  0  0  0  0
 28 20  1  0  0  0  0
 29 19  1  0  0  0  0
 30  3  1  0  0  0  0
 31 30  1  0  0  0  0
 32 33  1  0  0  0  0
 32 31  1  0  0  0  0
 35 40  1  1  0  0  0
 35 38  1  0  0  0  0
 36 34  1  0  0  0  0
 37 39  1  0  0  0  0
 37 35  1  0  0  0  0
 38 34  2  0  0  0  0
 39 33  1  6  0  0  0
 39 36  1  0  0  0  0
 40 42  1  6  0  0  0
 41 40  1  0  0  0  0
 43 39  1  0  0  0  0
 44 50  2  0  0  0  0
 44 45  1  0  0  0  0
 45 48  2  0  0  0  0
 47 43  1  0  0  0  0
 48 47  1  0  0  0  0
 49 46  1  0  0  0  0
 49 47  2  0  0  0  0
 50 49  1  0  0  0  0
 51 50  1  0  0  0  0
 52 55  1  0  0  0  0
 53 55  1  0  0  0  0
 55 51  1  0  0  0  0
 55 54  1  0  0  0  0
M  END
>  <MODEL>
8

>  <REMARK>
 VINA RESULT:      -5.9      2.869      6.230
  Name = 
  20 active torsions:
  status: ('A' for Active; 'I' for Inactive)
    1  A    between atoms: C_2  and  C_28
    2  A    between atoms: C_2  and  N_44
    3  A    between atoms: C_6  and  C_46
    4  A    between atoms: N_8  and  N_22
    5  A    between atoms: C_10  and  C_32
    6  A    between atoms: C_17  and  S_36
    7  A    between atoms: O_19  and  C_40
    8  A    between atoms: O_19  and  C_45
    9  A    between atoms: N_22  and  C_35
   10  A    between atoms: N_22  and  C_46
   11  A    between atoms: C_24  and  C_31
   12  A    between atoms: C_27  and  C_31
   13  A    between atoms: C_27  and  C_54
   14  A    between atoms: C_28  and  C_49
   15  A    between atoms: C_33  and  C_49
   16  A    between atoms: C_33  and  C_52
   17  A    between atoms: C_35  and  C_43
   18  A    between atoms: S_36  and  C_52
   19  A    between atoms: C_43  and  C_51
   20  A    between atoms: C_51  and  C_54
                            x       y       z     vdW  Elec       q    Type
                         _______ _______ _______ _____ _____    ______ ____

>  <TORSDO>
F 20

$$$$
=
 OpenBabel11052419373D

 55 58  0  0  1  0  0  0  0  0999 V2000
  188.9810  173.3890  141.2950 C   0  0  0  0  0  0  0  0  0  0  0  0
  190.4860  171.4000  141.1060 C   0  0  0  0  0  1  0  0  0  0  0  0
  190.2300  172.8130  140.8810 N   0  0  0  0  0  0  0  0  0  0  0  0
  188.1820  172.7210  142.0080 O   0  0  0  0  0  0  0  0  0  0  0  0
  188.6020  174.7760  140.8910 C   0  0  0  0  0  2  0  0  0  0  0  0
  187.5160  175.3020  141.8080 C   0  0  0  0  0  2  0  0  0  0  0  0
  187.1490  176.7340  141.4510 C   0  0  0  0  0  2  0  0  0  0  0  0
  188.2420  177.6870  141.9000 C   0  0  0  0  0  2  0  0  0  0  0  0
  187.9740  178.1560  143.3220 C   0  0  0  0  0  2  0  0  0  0  0  0
  186.9750  177.2410  144.0090 C   0  0  0  0  0  2  0  0  0  0  0  0
  187.4510  176.8520  145.3310 N   0  0  0  0  0  0  0  0  0  0  0  0
  185.7860  179.1830  147.5780 O   0  0  0  0  0  1  0  0  0  0  0  0
  187.1950  177.9060  146.2390 N   0  0  0  0  0  2  0  0  0  0  0  0
  185.9240  178.1660  146.8570 C   0  0  0  0  0  0  0  0  0  0  0  0
  184.8400  177.3080  146.6700 O   0  0  0  0  0  0  0  0  0  0  0  0
  188.8960  176.6370  145.2560 C   0  0  0  0  0  2  0  0  0  0  0  0
  190.7610  176.0200  147.6400 N   0  0  0  0  0  0  0  0  0  0  0  0
  190.4390  174.9910  143.6650 F   0  0  0  0  0  0  0  0  0  0  0  0
  189.2690  175.2400  145.7550 C   0  0  1  0  0  3  0  0  0  0  0  0
  194.2120  176.5280  146.1260 C   0  0  0  0  0  2  0  0  0  0  0  0
  190.2750  173.2240  145.0330 F   0  0  0  0  0  0  0  0  0  0  0  0
  190.4510  174.5960  144.9990 C   0  0  0  0  0  0  0  0  0  0  0  0
  190.3380  177.3630  148.0100 C   0  0  0  0  0  1  0  0  0  0  0  0
  194.2800  175.2460  145.3080 C   0  0  0  0  0  2  0  0  0  0  0  0
  192.9410  174.9980  144.6260 C   0  0  0  0  0  2  0  0  0  0  0  0
  191.7620  176.1540  146.5650 C   0  0  2  0  0  3  0  0  0  0  0  0
  191.8110  174.9070  145.6600 C   0  0  1  0  0  3  0  0  0  0  0  0
  193.1360  176.3990  147.1960 C   0  0  0  0  0  2  0  0  0  0  0  0
  189.5450  175.2710  147.2630 C   0  0  0  0  0  2  0  0  0  0  0  0
  191.2340  173.5900  140.1720 C   0  0  0  0  0  2  0  0  0  0  0  0
  192.6190  173.0340  140.4560 C   0  0  0  0  0  2  0  0  0  0  0  0
  193.3560  173.8830  141.4740 C   0  0  0  0  0  2  0  0  0  0  0  0
  194.0770  175.0400  140.7880 C   0  0  0  0  0  2  0  0  0  0  0  0
  196.7380  176.6870  143.0200 C   0  0  0  0  0  3  0  0  0  0  0  0
  197.2760  174.3360  142.8290 C   0  0  1  0  0  3  0  0  0  0  0  0
  195.5800  176.5920  142.0540 C   0  0  0  0  0  2  0  0  0  0  0  0
  195.8700  174.1150  142.2590 C   0  0  0  0  0  2  0  0  0  0  0  0
  197.4420  175.6670  143.3810 N   0  0  0  0  0  0  0  0  0  0  0  0
  195.5020  175.2540  141.3070 C   0  0  1  0  0  0  0  0  0  0  0  0
  197.6900  173.2750  143.8460 C   0  0  1  0  0  3  0  0  0  0  0  0
  197.6830  173.8130  145.1960 N   0  0  0  0  0  1  0  0  0  0  0  0
  196.7830  172.0600  143.7660 C   0  0  0  0  0  1  0  0  0  0  0  0
  196.6870  175.2540  139.8940 S   0  0  0  0  0  0  0  0  0  0  0  0
  194.9520  171.7840  137.4390 C   0  0  0  0  0  3  0  0  0  0  0  0
  195.8170  171.5300  138.5030 C   0  0  0  0  0  3  0  0  0  0  0  0
  194.7890  175.4450  137.5340 F   0  0  0  0  0  0  0  0  0  0  0  0
  195.9630  173.9100  138.9490 C   0  0  0  0  0  0  0  0  0  0  0  0
  196.3210  172.5940  139.2570 C   0  0  0  0  0  3  0  0  0  0  0  0
  195.1030  174.1670  137.8690 C   0  0  0  0  0  0  0  0  0  0  0  0
  194.5850  173.1020  137.1170 C   0  0  0  0  0  0  0  0  0  0  0  0
  193.7050  173.3870  136.0600 O   0  0  0  0  0  0  0  0  0  0  0  0
  191.7070  173.9310  134.8500 C   0  0  0  0  0  1  0  0  0  0  0  0
  192.0240  174.5940  137.0870 F   0  0  0  0  0  0  0  0  0  0  0  0
  191.6430  172.2860  136.6770 C   0  0  0  0  0  1  0  0  0  0  0  0
  192.2930  173.5700  136.1980 C   0  0  0  0  0  0  0  0  0  0  0  0
  1  4  2  0  0  0  0
  3  2  1  0  0  0  0
  3  1  1  0  0  0  0
  5  1  1  0  0  0  0
  5  6  1  0  0  0  0
  7  6  1  0  0  0  0
  7  8  1  0  0  0  0
  8  9  1  0  0  0  0
  9 10  1  0  0  0  0
 10 11  1  0  0  0  0
 11 13  1  0  0  0  0
 13 14  1  0  0  0  0
 14 12  1  0  0  0  0
 15 14  2  0  0  0  0
 16 11  1  0  0  0  0
 17 23  1  0  0  0  0
 18 22  1  0  0  0  0
 19 16  1  6  0  0  0
 19 29  1  0  0  0  0
 20 28  1  0  0  0  0
 22 21  1  0  0  0  0
 22 27  1  0  0  0  0
 22 19  1  0  0  0  0
 24 20  1  0  0  0  0
 25 24  1  0  0  0  0
 26 28  1  1  0  0  0
 26 17  1  0  0  0  0
 27 25  1  6  0  0  0
 27 26  1  0  0  0  0
 29 17  1  0  0  0  0
 30 31  1  0  0  0  0
 30  3  1  0  0  0  0
 31 32  1  0  0  0  0
 33 32  1  0  0  0  0
 34 38  2  0  0  0  0
 35 38  1  0  0  0  0
 35 40  1  1  0  0  0
 36 34  1  0  0  0  0
 37 35  1  0  0  0  0
 39 33  1  6  0  0  0
 39 36  1  0  0  0  0
 39 37  1  0  0  0  0
 40 42  1  1  0  0  0
 40 41  1  0  0  0  0
 43 39  1  0  0  0  0
 44 45  1  0  0  0  0
 45 48  2  0  0  0  0
 46 49  1  0  0  0  0
 47 48  1  0  0  0  0
 47 43  1  0  0  0  0
 49 47  2  0  0  0  0
 50 44  2  0  0  0  0
 50 49  1  0  0  0  0
 51 55  1  0  0  0  0
 51 50  1  0  0  0  0
 52 55  1  0  0  0  0
 55 54  1  0  0  0  0
 55 53  1  0  0  0  0
M  END
>  <MODEL>
9

>  <REMARK>
 VINA RESULT:      -5.9      3.138      8.915
  Name = 
  20 active torsions:
  status: ('A' for Active; 'I' for Inactive)
    1  A    between atoms: C_2  and  C_28
    2  A    between atoms: C_2  and  N_44
    3  A    between atoms: C_6  and  C_46
    4  A    between atoms: N_8  and  N_22
    5  A    between atoms: C_10  and  C_32
    6  A    between atoms: C_17  and  S_36
    7  A    between atoms: O_19  and  C_40
    8  A    between atoms: O_19  and  C_45
    9  A    between atoms: N_22  and  C_35
   10  A    between atoms: N_22  and  C_46
   11  A    between atoms: C_24  and  C_31
   12  A    between atoms: C_27  and  C_31
   13  A    between atoms: C_27  and  C_54
   14  A    between atoms: C_28  and  C_49
   15  A    between atoms: C_33  and  C_49
   16  A    between atoms: C_33  and  C_52
   17  A    between atoms: C_35  and  C_43
   18  A    between atoms: S_36  and  C_52
   19  A    between atoms: C_43  and  C_51
   20  A    between atoms: C_51  and  C_54
                            x       y       z     vdW  Elec       q    Type
                         _______ _______ _______ _____ _____    ______ ____

>  <TORSDO>
F 20

$$$$
