=
 OpenBabel11052417353D

 25 29  0  0  1  0  0  0  0  0999 V2000
  186.8560  176.8930  143.2920 N   0  0  0  0  0  0  0  0  0  0  0  0
  187.6100  175.6640  143.5410 C   0  0  2  0  0  3  0  0  0  0  0  0
  187.0760  176.6780  140.9380 N   0  0  0  0  0  0  0  0  0  0  0  0
  185.9300  177.4860  144.1900 C   0  0  0  0  0  0  0  0  0  0  0  0
  189.5770  176.1620  144.5770 N   0  0  0  0  0  0  0  0  0  0  0  0
  183.9690  178.7370  145.7180 C   0  0  0  0  0  3  0  0  0  0  0  0
  188.1780  175.7740  141.1310 C   0  0  0  0  0  3  0  0  0  0  0  0
  184.9700  178.2750  143.5750 C   0  0  0  0  0  0  0  0  0  0  0  0
  183.9770  178.9070  144.3260 C   0  0  0  0  0  3  0  0  0  0  0  0
  189.7870  174.6740  142.6810 C   0  0  2  0  0  0  0  0  0  0  0  0
  190.1930  173.4080  142.0460 C   0  0  0  0  0  2  0  0  0  0  0  0
  188.3070  175.6900  144.7850 O   0  0  0  0  0  0  0  0  0  0  0  0
  184.9410  177.9380  146.3410 C   0  0  0  0  0  3  0  0  0  0  0  0
  186.4820  177.2270  141.9570 C   0  0  0  0  0  0  0  0  0  0  0  0
  185.1010  178.3610  141.7870 S   0  0  0  0  0  0  0  0  0  0  0  0
  190.7120  174.6540  141.6240 O   0  0  0  0  0  0  0  0  0  0  0  0
  185.9290  177.3030  145.5760 C   0  0  0  0  0  3  0  0  0  0  0  0
  190.4030  175.0870  144.0060 C   0  0  0  0  0  2  0  0  0  0  0  0
  188.4730  175.2990  142.3500 C   0  0  0  0  0  0  0  0  0  0  0  0
  190.1460  176.5760  145.8630 C   0  0  0  0  0  2  0  0  0  0  0  0
  190.6540  175.4030  146.7090 C   0  0  2  0  0  3  0  0  0  0  0  0
  189.6320  174.9050  147.5300 O   0  0  0  0  0  1  0  0  0  0  0  0
  191.8320  175.8010  147.4900 N   0  0  0  0  0  0  0  0  0  0  0  0
  191.4570  176.9260  148.3300 C   0  0  0  0  0  1  0  0  0  0  0  0
  192.9050  176.2530  146.6110 C   0  0  0  0  0  1  0  0  0  0  0  0
  1  2  1  0  0  0  0
  1  4  1  0  0  0  0
  2 19  1  6  0  0  0
  2 12  1  0  0  0  0
  3  7  1  0  0  0  0
  3 14  2  0  0  0  0
  4 17  1  0  0  0  0
  5 12  1  0  0  0  0
  5 20  1  0  0  0  0
  6 13  1  0  0  0  0
  7 19  2  0  0  0  0
  8  4  2  0  0  0  0
  8  9  1  0  0  0  0
  9  6  2  0  0  0  0
 10 11  1  1  0  0  0
 10 18  1  0  0  0  0
 14  1  1  0  0  0  0
 15 14  1  0  0  0  0
 15  8  1  0  0  0  0
 16 11  1  0  0  0  0
 16 10  1  0  0  0  0
 17 13  2  0  0  0  0
 18  5  1  0  0  0  0
 19 10  1  0  0  0  0
 20 21  1  0  0  0  0
 21 23  1  0  0  0  0
 21 22  1  1  0  0  0
 23 24  1  0  0  0  0
 25 23  1  0  0  0  0
M  END
>  <MODEL>
1

>  <REMARK>
 VINA RESULT:      -7.0      0.000      0.000
  Name = 
  3 active torsions:
  status: ('A' for Active; 'I' for Inactive)
    1  A    between atoms: N_2  and  C_21
    2  A    between atoms: N_6  and  C_15
    3  A    between atoms: C_15  and  C_21
                            x       y       z     vdW  Elec       q    Type
                         _______ _______ _______ _____ _____    ______ ____

>  <TORSDO>
F 3

$$$$
=
 OpenBabel11052417353D

 25 29  0  0  1  0  0  0  0  0999 V2000
  187.8500  177.5470  145.1270 N   0  0  0  0  0  0  0  0  0  0  0  0
  189.1000  177.6320  144.3720 C   0  0  2  0  0  3  0  0  0  0  0  0
  188.9880  177.4610  147.2080 N   0  0  0  0  0  0  0  0  0  0  0  0
  186.5790  177.9800  144.6650 C   0  0  0  0  0  0  0  0  0  0  0  0
  189.3790  175.7460  143.1260 N   0  0  0  0  0  0  0  0  0  0  0  0
  184.0270  178.8950  144.0350 C   0  0  0  0  0  3  0  0  0  0  0  0
  190.1930  177.0740  146.5250 C   0  0  0  0  0  3  0  0  0  0  0  0
  185.6910  178.3110  145.6780 C   0  0  0  0  0  0  0  0  0  0  0  0
  184.4080  178.7740  145.3790 C   0  0  0  0  0  3  0  0  0  0  0  0
  191.3220  176.3990  144.4100 C   0  0  2  0  0  0  0  0  0  0  0  0
  192.7380  176.7810  144.5430 C   0  0  0  0  0  2  0  0  0  0  0  0
  188.9950  177.0600  143.0700 O   0  0  0  0  0  0  0  0  0  0  0  0
  184.9260  178.5600  143.0100 C   0  0  0  0  0  3  0  0  0  0  0  0
  187.8830  177.6470  146.5500 C   0  0  0  0  0  0  0  0  0  0  0  0
  186.3450  178.1320  147.3400 S   0  0  0  0  0  0  0  0  0  0  0  0
  192.2100  175.6390  145.1880 O   0  0  0  0  0  0  0  0  0  0  0  0
  186.2140  178.1020  143.3220 C   0  0  0  0  0  3  0  0  0  0  0  0
  190.8470  175.6740  143.1640 C   0  0  0  0  0  2  0  0  0  0  0  0
  190.2700  177.1180  145.1870 C   0  0  0  0  0  0  0  0  0  0  0  0
  188.8930  175.0580  141.9270 C   0  0  0  0  0  2  0  0  0  0  0  0
  189.7330  173.8330  141.5460 C   0  0  2  0  0  3  0  0  0  0  0  0
  190.1130  173.8940  140.1980 O   0  0  0  0  0  1  0  0  0  0  0  0
  189.0060  172.5940  141.8490 N   0  0  0  0  0  0  0  0  0  0  0  0
  187.5840  172.8880  141.8300 C   0  0  0  0  0  1  0  0  0  0  0  0
  189.3350  172.1190  143.1890 C   0  0  0  0  0  1  0  0  0  0  0  0
  1 14  1  0  0  0  0
  2 12  1  6  0  0  0
  2  1  1  0  0  0  0
  2 19  1  0  0  0  0
  4  1  1  0  0  0  0
  4  8  1  0  0  0  0
  5 18  1  0  0  0  0
  6  9  1  0  0  0  0
  7  3  1  0  0  0  0
  8 15  1  0  0  0  0
  9  8  2  0  0  0  0
 10 18  1  6  0  0  0
 10 11  1  0  0  0  0
 10 19  1  0  0  0  0
 10 16  1  0  0  0  0
 11 16  1  0  0  0  0
 12  5  1  0  0  0  0
 13 17  1  0  0  0  0
 13  6  2  0  0  0  0
 14  3  2  0  0  0  0
 14 15  1  0  0  0  0
 17  4  2  0  0  0  0
 19  7  2  0  0  0  0
 20  5  1  0  0  0  0
 21 22  1  6  0  0  0
 21 23  1  0  0  0  0
 21 20  1  0  0  0  0
 23 25  1  0  0  0  0
 24 23  1  0  0  0  0
M  END
>  <MODEL>
2

>  <REMARK>
 VINA RESULT:      -6.9      2.235      4.535
  Name = 
  3 active torsions:
  status: ('A' for Active; 'I' for Inactive)
    1  A    between atoms: N_2  and  C_21
    2  A    between atoms: N_6  and  C_15
    3  A    between atoms: C_15  and  C_21
                            x       y       z     vdW  Elec       q    Type
                         _______ _______ _______ _____ _____    ______ ____

>  <TORSDO>
F 3

$$$$
=
 OpenBabel11052417353D

 25 29  0  0  1  0  0  0  0  0999 V2000
  187.9000  177.5300  145.0700 N   0  0  0  0  0  0  0  0  0  0  0  0
  189.1240  177.6640  144.2810 C   0  0  2  0  0  3  0  0  0  0  0  0
  189.1080  177.2420  147.0930 N   0  0  0  0  0  0  0  0  0  0  0  0
  186.6210  178.0200  144.6950 C   0  0  0  0  0  0  0  0  0  0  0  0
  189.3260  175.8930  142.8620 N   0  0  0  0  0  0  0  0  0  0  0  0
  184.0650  179.0240  144.2410 C   0  0  0  0  0  3  0  0  0  0  0  0
  190.2810  176.9000  146.3350 C   0  0  0  0  0  3  0  0  0  0  0  0
  185.7740  178.2720  145.7640 C   0  0  0  0  0  0  0  0  0  0  0  0
  184.4910  178.7790  145.5540 C   0  0  0  0  0  3  0  0  0  0  0  0
  191.3240  176.4010  144.1290 C   0  0  2  0  0  0  0  0  0  0  0  0
  192.7510  176.7490  144.2440 C   0  0  0  0  0  2  0  0  0  0  0  0
  188.9640  177.2120  142.9380 O   0  0  0  0  0  0  0  0  0  0  0  0
  184.9220  178.7700  143.1580 C   0  0  0  0  0  3  0  0  0  0  0  0
  187.9830  177.5020  146.4940 C   0  0  0  0  0  0  0  0  0  0  0  0
  186.4830  177.9360  147.3790 S   0  0  0  0  0  0  0  0  0  0  0  0
  192.2250  175.5610  144.8030 O   0  0  0  0  0  0  0  0  0  0  0  0
  186.2120  178.2670  143.3810 C   0  0  0  0  0  3  0  0  0  0  0  0
  190.7940  175.7970  142.8410 C   0  0  0  0  0  2  0  0  0  0  0  0
  190.3120  177.0620  145.0040 C   0  0  0  0  0  0  0  0  0  0  0  0
  188.7870  175.3220  141.6250 C   0  0  0  0  0  2  0  0  0  0  0  0
  188.1950  173.9200  141.8100 C   0  0  2  0  0  3  0  0  0  0  0  0
  188.7100  173.3130  142.9640 O   0  0  0  0  0  1  0  0  0  0  0  0
  188.4290  173.1000  140.6150 N   0  0  0  0  0  0  0  0  0  0  0  0
  189.6860  172.3920  140.7920 C   0  0  0  0  0  1  0  0  0  0  0  0
  188.5660  173.9400  139.4310 C   0  0  0  0  0  1  0  0  0  0  0  0
  1 14  1  0  0  0  0
  2 12  1  6  0  0  0
  2 19  1  0  0  0  0
  2  1  1  0  0  0  0
  4  1  1  0  0  0  0
  4  8  1  0  0  0  0
  5 12  1  0  0  0  0
  6  9  1  0  0  0  0
  7  3  1  0  0  0  0
  8 15  1  0  0  0  0
  9  8  2  0  0  0  0
 10 18  1  6  0  0  0
 10 11  1  0  0  0  0
 10 16  1  0  0  0  0
 10 19  1  0  0  0  0
 11 16  1  0  0  0  0
 13 17  1  0  0  0  0
 13  6  2  0  0  0  0
 14  3  2  0  0  0  0
 14 15  1  0  0  0  0
 17  4  2  0  0  0  0
 18  5  1  0  0  0  0
 19  7  2  0  0  0  0
 20 21  1  0  0  0  0
 20  5  1  0  0  0  0
 21 22  1  1  0  0  0
 23 24  1  0  0  0  0
 23 21  1  0  0  0  0
 25 23  1  0  0  0  0
M  END
>  <MODEL>
3

>  <REMARK>
 VINA RESULT:      -6.9      2.267      4.640
  Name = 
  3 active torsions:
  status: ('A' for Active; 'I' for Inactive)
    1  A    between atoms: N_2  and  C_21
    2  A    between atoms: N_6  and  C_15
    3  A    between atoms: C_15  and  C_21
                            x       y       z     vdW  Elec       q    Type
                         _______ _______ _______ _____ _____    ______ ____

>  <TORSDO>
F 3

$$$$
=
 OpenBabel11052417353D

 25 29  0  0  1  0  0  0  0  0999 V2000
  187.5730  177.0030  143.8440 N   0  0  0  0  0  0  0  0  0  0  0  0
  188.2600  175.7130  143.8990 C   0  0  2  0  0  3  0  0  0  0  0  0
  187.1630  176.8070  141.5140 N   0  0  0  0  0  0  0  0  0  0  0  0
  186.9610  177.6570  144.9460 C   0  0  0  0  0  0  0  0  0  0  0  0
  190.4610  176.0310  144.3920 N   0  0  0  0  0  0  0  0  0  0  0  0
  185.5690  179.0420  146.9180 C   0  0  0  0  0  3  0  0  0  0  0  0
  188.1980  175.8130  141.4230 C   0  0  0  0  0  3  0  0  0  0  0  0
  185.9450  178.5320  144.5930 C   0  0  0  0  0  0  0  0  0  0  0  0
  185.2340  179.2320  145.5700 C   0  0  0  0  0  3  0  0  0  0  0  0
  190.0530  174.5600  142.5150 C   0  0  2  0  0  0  0  0  0  0  0  0
  190.1750  173.2750  141.8050 C   0  0  0  0  0  2  0  0  0  0  0  0
  189.2520  175.6620  144.9220 O   0  0  0  0  0  0  0  0  0  0  0  0
  186.5980  178.1560  147.2760 C   0  0  0  0  0  3  0  0  0  0  0  0
  186.8990  177.3880  142.6470 C   0  0  0  0  0  0  0  0  0  0  0  0
  185.6200  178.6350  142.8310 S   0  0  0  0  0  0  0  0  0  0  0  0
  190.6710  174.4800  141.2560 O   0  0  0  0  0  0  0  0  0  0  0  0
  187.3000  177.4530  146.2870 C   0  0  0  0  0  3  0  0  0  0  0  0
  191.0200  174.9010  143.6350 C   0  0  0  0  0  2  0  0  0  0  0  0
  188.7550  175.2960  142.5290 C   0  0  0  0  0  0  0  0  0  0  0  0
  191.3730  176.3760  145.4860 C   0  0  0  0  0  2  0  0  0  0  0  0
  192.7590  175.7340  145.3490 C   0  0  2  0  0  3  0  0  0  0  0  0
  193.1100  175.0600  146.5260 O   0  0  0  0  0  1  0  0  0  0  0  0
  193.7600  176.7430  144.9810 N   0  0  0  0  0  0  0  0  0  0  0  0
  194.6580  176.1520  144.0040 C   0  0  0  0  0  1  0  0  0  0  0  0
  194.5630  177.1180  146.1390 C   0  0  0  0  0  1  0  0  0  0  0  0
  1  2  1  0  0  0  0
  1  4  1  0  0  0  0
  2 19  1  6  0  0  0
  2 12  1  0  0  0  0
  3 14  2  0  0  0  0
  4 17  1  0  0  0  0
  5 12  1  0  0  0  0
  5 20  1  0  0  0  0
  6 13  1  0  0  0  0
  7  3  1  0  0  0  0
  7 19  2  0  0  0  0
  8  4  2  0  0  0  0
  8  9  1  0  0  0  0
  9  6  2  0  0  0  0
 10 11  1  1  0  0  0
 10 19  1  0  0  0  0
 10 18  1  0  0  0  0
 14 15  1  0  0  0  0
 14  1  1  0  0  0  0
 15  8  1  0  0  0  0
 16 11  1  0  0  0  0
 16 10  1  0  0  0  0
 17 13  2  0  0  0  0
 18  5  1  0  0  0  0
 21 20  1  0  0  0  0
 21 22  1  1  0  0  0
 23 21  1  0  0  0  0
 23 25  1  0  0  0  0
 24 23  1  0  0  0  0
M  END
>  <MODEL>
4

>  <REMARK>
 VINA RESULT:      -6.9      1.557      1.889
  Name = 
  3 active torsions:
  status: ('A' for Active; 'I' for Inactive)
    1  A    between atoms: N_2  and  C_21
    2  A    between atoms: N_6  and  C_15
    3  A    between atoms: C_15  and  C_21
                            x       y       z     vdW  Elec       q    Type
                         _______ _______ _______ _____ _____    ______ ____

>  <TORSDO>
F 3

$$$$
=
 OpenBabel11052417353D

 25 29  0  0  1  0  0  0  0  0999 V2000
  185.6390  177.9760  143.6450 N   0  0  0  0  0  0  0  0  0  0  0  0
  186.5640  178.4100  144.6930 C   0  0  2  0  0  3  0  0  0  0  0  0
  183.7380  178.6730  144.8840 N   0  0  0  0  0  0  0  0  0  0  0  0
  185.9710  177.8070  142.2740 C   0  0  0  0  0  0  0  0  0  0  0  0
  187.6050  176.5990  145.6020 N   0  0  0  0  0  0  0  0  0  0  0  0
  186.3490  177.5570  139.5290 C   0  0  0  0  0  3  0  0  0  0  0  0
  184.5290  178.6720  146.0850 C   0  0  0  0  0  3  0  0  0  0  0  0
  184.8930  177.9320  141.4110 C   0  0  0  0  0  0  0  0  0  0  0  0
  185.0660  177.8130  140.0310 C   0  0  0  0  0  3  0  0  0  0  0  0
  186.6850  178.1470  147.2170 C   0  0  2  0  0  0  0  0  0  0  0  0
  186.7930  179.0590  148.3690 C   0  0  0  0  0  2  0  0  0  0  0  0
  187.7620  177.6370  144.7220 O   0  0  0  0  0  0  0  0  0  0  0  0
  187.4410  177.4310  140.4020 C   0  0  0  0  0  3  0  0  0  0  0  0
  184.2570  178.3110  143.7470 C   0  0  0  0  0  0  0  0  0  0  0  0
  183.3270  178.2910  142.2120 S   0  0  0  0  0  0  0  0  0  0  0  0
  185.9520  177.9230  148.3940 O   0  0  0  0  0  0  0  0  0  0  0  0
  187.2570  177.5590  141.7860 C   0  0  0  0  0  3  0  0  0  0  0  0
  187.7600  177.1030  146.9750 C   0  0  0  0  0  2  0  0  0  0  0  0
  185.8620  178.5230  146.0310 C   0  0  0  0  0  0  0  0  0  0  0  0
  188.6360  175.5920  145.3380 C   0  0  0  0  0  2  0  0  0  0  0  0
  189.4480  175.8720  144.0680 C   0  0  2  0  0  3  0  0  0  0  0  0
  189.2000  174.8920  143.0960 O   0  0  0  0  0  1  0  0  0  0  0  0
  190.8780  175.9760  144.3810 N   0  0  0  0  0  0  0  0  0  0  0  0
  191.0670  175.5760  145.7650 C   0  0  0  0  0  1  0  0  0  0  0  0
  191.3340  177.3560  144.2610 C   0  0  0  0  0  1  0  0  0  0  0  0
  1 14  1  0  0  0  0
  1  2  1  0  0  0  0
  2 12  1  1  0  0  0
  2 19  1  0  0  0  0
  3  7  1  0  0  0  0
  4  1  1  0  0  0  0
  5 18  1  0  0  0  0
  6  9  2  0  0  0  0
  6 13  1  0  0  0  0
  8 15  1  0  0  0  0
  8  4  2  0  0  0  0
  9  8  1  0  0  0  0
 10 18  1  6  0  0  0
 10 11  1  0  0  0  0
 10 16  1  0  0  0  0
 11 16  1  0  0  0  0
 12  5  1  0  0  0  0
 13 17  2  0  0  0  0
 14  3  2  0  0  0  0
 15 14  1  0  0  0  0
 17  4  1  0  0  0  0
 19  7  2  0  0  0  0
 19 10  1  0  0  0  0
 20  5  1  0  0  0  0
 21 22  1  6  0  0  0
 21 23  1  0  0  0  0
 21 20  1  0  0  0  0
 23 24  1  0  0  0  0
 25 23  1  0  0  0  0
M  END
>  <MODEL>
5

>  <REMARK>
 VINA RESULT:      -6.8      2.126      4.734
  Name = 
  3 active torsions:
  status: ('A' for Active; 'I' for Inactive)
    1  A    between atoms: N_2  and  C_21
    2  A    between atoms: N_6  and  C_15
    3  A    between atoms: C_15  and  C_21
                            x       y       z     vdW  Elec       q    Type
                         _______ _______ _______ _____ _____    ______ ____

>  <TORSDO>
F 3

$$$$
=
 OpenBabel11052417353D

 25 29  0  0  1  0  0  0  0  0999 V2000
  187.2170  177.1600  144.2000 N   0  0  0  0  0  0  0  0  0  0  0  0
  188.6450  177.0620  144.5020 C   0  0  2  0  0  3  0  0  0  0  0  0
  186.6680  177.6950  146.4460 N   0  0  0  0  0  0  0  0  0  0  0  0
  186.6640  177.4110  142.9170 C   0  0  0  0  0  0  0  0  0  0  0  0
  189.3420  174.9080  144.2440 N   0  0  0  0  0  0  0  0  0  0  0  0
  185.3660  178.0430  140.5370 C   0  0  0  0  0  3  0  0  0  0  0  0
  187.9340  177.1630  146.8750 C   0  0  0  0  0  3  0  0  0  0  0  0
  185.4040  177.9900  142.9460 C   0  0  0  0  0  0  0  0  0  0  0  0
  184.7400  178.3170  141.7620 C   0  0  0  0  0  3  0  0  0  0  0  0
  190.0360  175.9490  146.3150 C   0  0  2  0  0  0  0  0  0  0  0  0
  191.0530  176.3900  147.2850 C   0  0  0  0  0  2  0  0  0  0  0  0
  189.3250  176.1430  143.6500 O   0  0  0  0  0  0  0  0  0  0  0  0
  186.6410  177.4570  140.5070 C   0  0  0  0  0  3  0  0  0  0  0  0
  186.3230  177.6580  145.1930 C   0  0  0  0  0  0  0  0  0  0  0  0
  184.7600  178.3050  144.5920 S   0  0  0  0  0  0  0  0  0  0  0  0
  190.0440  175.4630  147.6330 O   0  0  0  0  0  0  0  0  0  0  0  0
  187.3010  177.1390  141.7020 C   0  0  0  0  0  3  0  0  0  0  0  0
  190.3820  174.8900  145.2850 C   0  0  0  0  0  2  0  0  0  0  0  0
  188.8780  176.8290  145.9820 C   0  0  0  0  0  0  0  0  0  0  0  0
  189.6560  173.8980  143.2310 C   0  0  0  0  0  2  0  0  0  0  0  0
  188.6660  173.8830  142.0600 C   0  0  2  0  0  3  0  0  0  0  0  0
  187.9750  172.6640  142.0120 O   0  0  0  0  0  1  0  0  0  0  0  0
  189.3560  174.1660  140.7960 N   0  0  0  0  0  0  0  0  0  0  0  0
  188.5660  173.6040  139.7140 C   0  0  0  0  0  1  0  0  0  0  0  0
  190.6620  173.5160  140.7650 C   0  0  0  0  0  1  0  0  0  0  0  0
  1  2  1  0  0  0  0
  1 14  1  0  0  0  0
  2 12  1  6  0  0  0
  2 19  1  0  0  0  0
  3  7  1  0  0  0  0
  4  8  1  0  0  0  0
  4  1  1  0  0  0  0
  5 18  1  0  0  0  0
  6  9  1  0  0  0  0
  8 15  1  0  0  0  0
  9  8  2  0  0  0  0
 10 18  1  6  0  0  0
 10 11  1  0  0  0  0
 10 16  1  0  0  0  0
 11 16  1  0  0  0  0
 12  5  1  0  0  0  0
 13  6  2  0  0  0  0
 13 17  1  0  0  0  0
 14  3  2  0  0  0  0
 15 14  1  0  0  0  0
 17  4  2  0  0  0  0
 19 10  1  0  0  0  0
 19  7  2  0  0  0  0
 20  5  1  0  0  0  0
 21 22  1  6  0  0  0
 21 20  1  0  0  0  0
 23 21  1  0  0  0  0
 24 23  1  0  0  0  0
 25 23  1  0  0  0  0
M  END
>  <MODEL>
6

>  <REMARK>
 VINA RESULT:      -6.8      1.886      4.771
  Name = 
  3 active torsions:
  status: ('A' for Active; 'I' for Inactive)
    1  A    between atoms: N_2  and  C_21
    2  A    between atoms: N_6  and  C_15
    3  A    between atoms: C_15  and  C_21
                            x       y       z     vdW  Elec       q    Type
                         _______ _______ _______ _____ _____    ______ ____

>  <TORSDO>
F 3

$$$$
=
 OpenBabel11052417353D

 25 29  0  0  1  0  0  0  0  0999 V2000
  187.4620  176.6670  143.3090 N   0  0  0  0  0  0  0  0  0  0  0  0
  187.9220  175.2840  143.1830 C   0  0  2  0  0  3  0  0  0  0  0  0
  186.9620  176.8250  140.9940 N   0  0  0  0  0  0  0  0  0  0  0  0
  186.9990  177.2740  144.5070 C   0  0  0  0  0  0  0  0  0  0  0  0
  190.1570  175.1720  143.6060 N   0  0  0  0  0  0  0  0  0  0  0  0
  185.9160  178.6200  146.6880 C   0  0  0  0  0  3  0  0  0  0  0  0
  187.8110  175.6920  140.7410 C   0  0  0  0  0  3  0  0  0  0  0  0
  186.1370  178.3410  144.3050 C   0  0  0  0  0  0  0  0  0  0  0  0
  185.5820  179.0250  145.3880 C   0  0  0  0  0  3  0  0  0  0  0  0
  189.4560  174.0270  141.5940 C   0  0  2  0  0  0  0  0  0  0  0  0
  189.3390  172.8350  140.7360 C   0  0  0  0  0  2  0  0  0  0  0  0
  188.9180  174.9460  144.1460 O   0  0  0  0  0  0  0  0  0  0  0  0
  186.7890  177.5400  146.8930 C   0  0  0  0  0  3  0  0  0  0  0  0
  186.8300  177.2990  142.1980 C   0  0  0  0  0  0  0  0  0  0  0  0
  185.7870  178.7090  142.5830 S   0  0  0  0  0  0  0  0  0  0  0  0
  190.0170  173.9990  140.3060 O   0  0  0  0  0  0  0  0  0  0  0  0
  187.3350  176.8560  145.7980 C   0  0  0  0  0  3  0  0  0  0  0  0
  190.4960  174.0650  142.6980 C   0  0  0  0  0  2  0  0  0  0  0  0
  188.3020  174.9600  141.7520 C   0  0  0  0  0  0  0  0  0  0  0  0
  191.1430  175.2270  144.6880 C   0  0  0  0  0  2  0  0  0  0  0  0
  190.8940  176.3700  145.6810 C   0  0  2  0  0  3  0  0  0  0  0  0
  190.7410  177.5880  145.0040 O   0  0  0  0  0  1  0  0  0  0  0  0
  191.9710  176.4330  146.6760 N   0  0  0  0  0  0  0  0  0  0  0  0
  192.5950  175.1230  146.7510 C   0  0  0  0  0  1  0  0  0  0  0  0
  191.4340  176.7360  147.9980 C   0  0  0  0  0  1  0  0  0  0  0  0
  1  4  1  0  0  0  0
  2 19  1  6  0  0  0
  2  1  1  0  0  0  0
  2 12  1  0  0  0  0
  3 14  2  0  0  0  0
  4 17  1  0  0  0  0
  5 12  1  0  0  0  0
  5 20  1  0  0  0  0
  6 13  1  0  0  0  0
  7  3  1  0  0  0  0
  7 19  2  0  0  0  0
  8  4  2  0  0  0  0
  8  9  1  0  0  0  0
  9  6  2  0  0  0  0
 10 11  1  1  0  0  0
 10 19  1  0  0  0  0
 10 18  1  0  0  0  0
 14 15  1  0  0  0  0
 14  1  1  0  0  0  0
 15  8  1  0  0  0  0
 16 11  1  0  0  0  0
 16 10  1  0  0  0  0
 17 13  2  0  0  0  0
 18  5  1  0  0  0  0
 20 21  1  0  0  0  0
 21 22  1  6  0  0  0
 21 23  1  0  0  0  0
 23 24  1  0  0  0  0
 23 25  1  0  0  0  0
M  END
>  <MODEL>
7

>  <REMARK>
 VINA RESULT:      -6.7      1.301      1.646
  Name = 
  3 active torsions:
  status: ('A' for Active; 'I' for Inactive)
    1  A    between atoms: N_2  and  C_21
    2  A    between atoms: N_6  and  C_15
    3  A    between atoms: C_15  and  C_21
                            x       y       z     vdW  Elec       q    Type
                         _______ _______ _______ _____ _____    ______ ____

>  <TORSDO>
F 3

$$$$
=
 OpenBabel11052417353D

 25 29  0  0  1  0  0  0  0  0999 V2000
  187.4720  177.2320  144.1220 N   0  0  0  0  0  0  0  0  0  0  0  0
  188.9180  177.3350  143.9280 C   0  0  2  0  0  3  0  0  0  0  0  0
  187.6730  177.3450  146.4840 N   0  0  0  0  0  0  0  0  0  0  0  0
  186.4860  177.5640  143.1550 C   0  0  0  0  0  0  0  0  0  0  0  0
  189.7210  175.3900  143.0570 N   0  0  0  0  0  0  0  0  0  0  0  0
  184.3870  178.2950  141.4800 C   0  0  0  0  0  3  0  0  0  0  0  0
  189.0600  176.9800  146.3770 C   0  0  0  0  0  3  0  0  0  0  0  0
  185.2570  177.9110  143.6950 C   0  0  0  0  0  0  0  0  0  0  0  0
  184.1950  178.2830  142.8690 C   0  0  0  0  0  3  0  0  0  0  0  0
  190.9630  176.2300  144.9550 C   0  0  2  0  0  0  0  0  0  0  0  0
  192.1960  176.6970  145.6140 C   0  0  0  0  0  2  0  0  0  0  0  0
  189.3620  176.6750  142.7440 O   0  0  0  0  0  0  0  0  0  0  0  0
  185.6320  177.9430  140.9330 C   0  0  0  0  0  3  0  0  0  0  0  0
  186.9240  177.4270  145.4240 C   0  0  0  0  0  0  0  0  0  0  0  0
  185.1870  177.8770  145.4880 S   0  0  0  0  0  0  0  0  0  0  0  0
  191.4790  175.5720  146.0840 O   0  0  0  0  0  0  0  0  0  0  0  0
  186.6930  177.5770  141.7720 C   0  0  0  0  0  3  0  0  0  0  0  0
  191.0500  175.4010  143.6870 C   0  0  0  0  0  2  0  0  0  0  0  0
  189.6700  176.9400  145.1820 C   0  0  0  0  0  0  0  0  0  0  0  0
  189.7780  174.6000  141.8240 C   0  0  0  0  0  2  0  0  0  0  0  0
  188.4050  174.1020  141.3560 C   0  0  2  0  0  3  0  0  0  0  0  0
  187.4600  174.2180  142.3850 O   0  0  0  0  0  1  0  0  0  0  0  0
  188.4980  172.7250  140.8570 N   0  0  0  0  0  0  0  0  0  0  0  0
  189.8600  172.2620  141.0600 C   0  0  0  0  0  1  0  0  0  0  0  0
  188.2300  172.6770  139.4240 C   0  0  0  0  0  1  0  0  0  0  0  0
  1 14  1  0  0  0  0
  2 12  1  6  0  0  0
  2  1  1  0  0  0  0
  2 19  1  0  0  0  0
  4  8  1  0  0  0  0
  4  1  1  0  0  0  0
  5 18  1  0  0  0  0
  6  9  1  0  0  0  0
  7  3  1  0  0  0  0
  8 15  1  0  0  0  0
  9  8  2  0  0  0  0
 10 18  1  6  0  0  0
 10 19  1  0  0  0  0
 10 11  1  0  0  0  0
 10 16  1  0  0  0  0
 11 16  1  0  0  0  0
 12  5  1  0  0  0  0
 13  6  2  0  0  0  0
 13 17  1  0  0  0  0
 14 15  1  0  0  0  0
 14  3  2  0  0  0  0
 17  4  2  0  0  0  0
 19  7  2  0  0  0  0
 20  5  1  0  0  0  0
 21 20  1  0  0  0  0
 21 22  1  1  0  0  0
 23 24  1  0  0  0  0
 23 21  1  0  0  0  0
 25 23  1  0  0  0  0
M  END
>  <MODEL>
8

>  <REMARK>
 VINA RESULT:      -6.7      2.120      4.716
  Name = 
  3 active torsions:
  status: ('A' for Active; 'I' for Inactive)
    1  A    between atoms: N_2  and  C_21
    2  A    between atoms: N_6  and  C_15
    3  A    between atoms: C_15  and  C_21
                            x       y       z     vdW  Elec       q    Type
                         _______ _______ _______ _____ _____    ______ ____

>  <TORSDO>
F 3

$$$$
=
 OpenBabel11052417353D

 25 29  0  0  1  0  0  0  0  0999 V2000
  187.6410  176.5630  142.6740 N   0  0  0  0  0  0  0  0  0  0  0  0
  188.1600  175.2460  143.0450 C   0  0  2  0  0  3  0  0  0  0  0  0
  187.4770  175.9710  140.3820 N   0  0  0  0  0  0  0  0  0  0  0  0
  186.9910  177.4680  143.5540 C   0  0  0  0  0  0  0  0  0  0  0  0
  190.3130  175.4380  143.7640 N   0  0  0  0  0  0  0  0  0  0  0  0
  185.5590  179.3270  145.0510 C   0  0  0  0  0  3  0  0  0  0  0  0
  188.3900  174.8830  140.6040 C   0  0  0  0  0  3  0  0  0  0  0  0
  186.1320  178.3540  142.9220 C   0  0  0  0  0  0  0  0  0  0  0  0
  185.4030  179.2910  143.6580 C   0  0  0  0  0  3  0  0  0  0  0  0
  189.9480  173.6870  142.1350 C   0  0  2  0  0  0  0  0  0  0  0  0
  189.9960  172.2850  141.6840 C   0  0  0  0  0  2  0  0  0  0  0  0
  189.0170  175.2940  144.1840 O   0  0  0  0  0  0  0  0  0  0  0  0
  186.4280  178.4300  145.6910 C   0  0  0  0  0  3  0  0  0  0  0  0
  187.1570  176.7780  141.3500 C   0  0  0  0  0  0  0  0  0  0  0  0
  186.0230  178.1540  141.1410 S   0  0  0  0  0  0  0  0  0  0  0  0
  190.6900  173.3120  141.0030 O   0  0  0  0  0  0  0  0  0  0  0  0
  187.1490  177.4890  144.9430 C   0  0  0  0  0  3  0  0  0  0  0  0
  190.8160  174.1370  143.2970 C   0  0  0  0  0  2  0  0  0  0  0  0
  188.7540  174.5330  141.8470 C   0  0  0  0  0  0  0  0  0  0  0  0
  191.1300  175.8950  144.8910 C   0  0  0  0  0  2  0  0  0  0  0  0
  191.9370  177.1620  144.5840 C   0  0  2  0  0  3  0  0  0  0  0  0
  191.7960  177.5240  143.2370 O   0  0  0  0  0  1  0  0  0  0  0  0
  193.3460  176.9780  144.9520 N   0  0  0  0  0  0  0  0  0  0  0  0
  193.9530  176.0800  143.9840 C   0  0  0  0  0  1  0  0  0  0  0  0
  193.4590  176.3460  146.2620 C   0  0  0  0  0  1  0  0  0  0  0  0
  1  2  1  0  0  0  0
  1  4  1  0  0  0  0
  2 19  1  6  0  0  0
  2 12  1  0  0  0  0
  3  7  1  0  0  0  0
  3 14  2  0  0  0  0
  4 17  1  0  0  0  0
  5 12  1  0  0  0  0
  5 20  1  0  0  0  0
  6 13  1  0  0  0  0
  7 19  2  0  0  0  0
  8  4  2  0  0  0  0
  8  9  1  0  0  0  0
  9  6  2  0  0  0  0
 10 11  1  1  0  0  0
 10 18  1  0  0  0  0
 14  1  1  0  0  0  0
 15 14  1  0  0  0  0
 15  8  1  0  0  0  0
 16 11  1  0  0  0  0
 16 10  1  0  0  0  0
 17 13  2  0  0  0  0
 18  5  1  0  0  0  0
 19 10  1  0  0  0  0
 21 22  1  6  0  0  0
 21 20  1  0  0  0  0
 21 23  1  0  0  0  0
 23 25  1  0  0  0  0
 24 23  1  0  0  0  0
M  END
>  <MODEL>
9

>  <REMARK>
 VINA RESULT:      -6.6      1.612      2.083
  Name = 
  3 active torsions:
  status: ('A' for Active; 'I' for Inactive)
    1  A    between atoms: N_2  and  C_21
    2  A    between atoms: N_6  and  C_15
    3  A    between atoms: C_15  and  C_21
                            x       y       z     vdW  Elec       q    Type
                         _______ _______ _______ _____ _____    ______ ____

>  <TORSDO>
F 3

$$$$
