=
 OpenBabel11052419583D

 37 39  0  0  1  0  0  0  0  0999 V2000
  190.5840  174.2700  142.9980 C   0  0  2  0  0  3  0  0  0  0  0  0
  193.8060  174.7290  144.0000 C   0  0  0  0  0  0  0  0  0  0  0  0
  194.4900  173.5250  141.9570 N   0  0  0  0  0  0  0  0  0  0  0  0
  191.4150  175.9180  147.2380 C   0  0  0  0  0  3  0  0  0  0  0  0
  192.1240  172.8050  141.6110 C   0  0  1  0  0  3  0  0  0  0  0  0
  191.6760  174.5790  145.2610 N   0  0  0  0  0  0  0  0  0  0  0  0
  192.8040  176.3700  147.1020 C   0  0  0  0  0  3  0  0  0  0  0  0
  191.0800  173.6270  144.3160 C   0  0  0  0  0  2  0  0  0  0  0  0
  193.6130  175.8080  146.2130 C   0  0  0  0  0  3  0  0  0  0  0  0
  193.5800  172.7340  141.1210 C   0  0  0  0  0  2  0  0  0  0  0  0
  193.1570  174.6560  145.3560 C   0  0  2  0  0  3  0  0  0  0  0  0
  191.6400  174.2340  141.8860 C   0  0  0  0  0  2  0  0  0  0  0  0
  190.8780  175.0440  146.3770 C   0  0  0  0  0  0  0  0  0  0  0  0
  194.3040  173.5450  143.3570 N   0  0  0  0  0  0  0  0  0  0  0  0
  193.8730  175.8390  143.4050 O   0  0  0  0  0  0  0  0  0  0  0  0
  196.8000  174.4010  142.1150 C   0  0  0  0  0  3  0  0  0  0  0  0
  195.6330  174.1730  141.3600 C   0  0  0  0  0  0  0  0  0  0  0  0
  195.5900  174.6020  140.0190 C   0  0  0  0  0  3  0  0  0  0  0  0
  196.6330  175.6780  138.1630 F   0  0  0  0  0  0  0  0  0  0  0  0
  197.8390  175.4830  140.2190 C   0  0  0  0  0  3  0  0  0  0  0  0
  196.6920  175.2500  139.4510 C   0  0  0  0  0  0  0  0  0  0  0  0
  197.8930  175.0560  141.5500 C   0  0  0  0  0  3  0  0  0  0  0  0
  189.4580  174.5660  146.6080 C   0  0  0  0  0  0  0  0  0  0  0  0
  189.1660  174.5770  147.9540 F   0  0  0  0  0  0  0  0  0  0  0  0
  188.5870  175.3980  145.9390 F   0  0  0  0  0  0  0  0  0  0  0  0
  189.2830  173.2770  146.1390 F   0  0  0  0  0  0  0  0  0  0  0  0
  190.8950  170.8790  141.4560 C   0  0  0  0  0  1  0  0  0  0  0  0
  191.2270  172.0720  140.8000 O   0  0  0  0  0  0  0  0  0  0  0  0
  189.9610  175.6680  143.1630 C   0  0  2  0  0  3  0  0  0  0  0  0
  188.0170  174.3660  142.2440 C   0  0  0  0  0  1  0  0  0  0  0  0
  188.4280  176.6140  141.5380 O   0  0  0  0  0  1  0  0  0  0  0  0
  188.5270  175.7430  142.6300 C   0  0  2  0  0  3  0  0  0  0  0  0
  190.7590  176.6510  142.5580 O   0  0  0  0  0  0  0  0  0  0  0  0
  190.9610  177.6230  143.5390 C   0  0  0  0  0  1  0  0  0  0  0  0
  194.4250  172.2960  144.1020 C   0  0  0  0  0  2  0  0  0  0  0  0
  196.2960  172.5670  145.6630 C   0  0  0  0  0  2  0  0  0  0  0  0
  195.8490  172.0650  144.5070 C   0  0  0  0  0  3  0  0  0  0  0  0
  1 29  1  1  0  0  0
  1  8  1  0  0  0  0
  2 11  1  0  0  0  0
  3 14  1  0  0  0  0
  5 28  1  6  0  0  0
  5 12  1  0  0  0  0
  6 11  1  0  0  0  0
  6 13  1  0  0  0  0
  7  4  1  0  0  0  0
  8  6  1  0  0  0  0
  9  7  2  0  0  0  0
 10  5  1  0  0  0  0
 10  3  1  0  0  0  0
 11  9  1  1  0  0  0
 12  1  1  0  0  0  0
 13 23  1  0  0  0  0
 13  4  2  0  0  0  0
 14  2  1  0  0  0  0
 14 35  1  0  0  0  0
 15  2  2  0  0  0  0
 17  3  1  0  0  0  0
 17 16  2  0  0  0  0
 18 17  1  0  0  0  0
 19 21  1  0  0  0  0
 20 22  2  0  0  0  0
 21 18  2  0  0  0  0
 21 20  1  0  0  0  0
 22 16  1  0  0  0  0
 23 24  1  0  0  0  0
 25 23  1  0  0  0  0
 26 23  1  0  0  0  0
 28 27  1  0  0  0  0
 29 33  1  6  0  0  0
 31 32  1  0  0  0  0
 32 30  1  6  0  0  0
 32 29  1  0  0  0  0
 33 34  1  0  0  0  0
 35 37  1  0  0  0  0
 37 36  2  0  0  0  0
M  END
>  <MODEL>
1

>  <REMARK>
 VINA RESULT:      -6.4      0.000      0.000
  Name = 
  8 active torsions:
  status: ('A' for Active; 'I' for Inactive)
    1  A    between atoms: C_1  and  C_5
    2  A    between atoms: C_3  and  C_30
    3  A    between atoms: C_5  and  O_11
    4  A    between atoms: C_5  and  C_23
    5  A    between atoms: C_6  and  N_7
    6  A    between atoms: C_10  and  O_33
    7  A    between atoms: C_14  and  N_31
    8  A    between atoms: C_14  and  C_37
                            x       y       z     vdW  Elec       q    Type
                         _______ _______ _______ _____ _____    ______ ____

>  <TORSDO>
F 8

$$$$
=
 OpenBabel11052419583D

 37 39  0  0  1  0  0  0  0  0999 V2000
  194.7410  174.7870  144.1180 C   0  0  2  0  0  3  0  0  0  0  0  0
  191.4810  173.8180  143.9650 C   0  0  0  0  0  0  0  0  0  0  0  0
  190.8820  176.1840  144.3310 N   0  0  0  0  0  0  0  0  0  0  0  0
  193.7280  170.2750  144.0920 C   0  0  0  0  0  3  0  0  0  0  0  0
  193.2530  176.6710  144.9400 C   0  0  1  0  0  3  0  0  0  0  0  0
  193.5470  172.6120  144.6190 N   0  0  0  0  0  0  0  0  0  0  0  0
  192.3520  170.2940  143.5840 C   0  0  0  0  0  3  0  0  0  0  0  0
  194.1770  173.8120  145.1800 C   0  0  0  0  0  2  0  0  0  0  0  0
  191.5800  171.3580  143.7640 C   0  0  0  0  0  3  0  0  0  0  0  0
  191.8220  177.2120  144.7900 C   0  0  0  0  0  2  0  0  0  0  0  0
  192.0640  172.5550  144.5410 C   0  0  2  0  0  3  0  0  0  0  0  0
  193.7390  175.8780  143.7210 C   0  0  0  0  0  2  0  0  0  0  0  0
  194.2960  171.3720  144.6100 C   0  0  0  0  0  0  0  0  0  0  0  0
  191.0010  174.8660  144.8230 N   0  0  0  0  0  0  0  0  0  0  0  0
  191.4530  173.9720  142.7140 O   0  0  0  0  0  0  0  0  0  0  0  0
  189.8540  177.6890  142.6550 C   0  0  0  0  0  3  0  0  0  0  0  0
  189.7750  176.5510  143.4800 C   0  0  0  0  0  0  0  0  0  0  0  0
  188.5930  175.7840  143.4780 C   0  0  0  0  0  3  0  0  0  0  0  0
  186.3710  175.4210  142.6900 F   0  0  0  0  0  0  0  0  0  0  0  0
  187.6020  177.2980  141.8660 C   0  0  0  0  0  3  0  0  0  0  0  0
  187.5140  176.1550  142.6690 C   0  0  0  0  0  0  0  0  0  0  0  0
  188.7740  178.0630  141.8580 C   0  0  0  0  0  3  0  0  0  0  0  0
  195.6980  171.2730  145.1770 C   0  0  0  0  0  0  0  0  0  0  0  0
  195.8640  170.0690  145.8260 F   0  0  0  0  0  0  0  0  0  0  0  0
  196.6100  171.3730  144.1490 F   0  0  0  0  0  0  0  0  0  0  0  0
  195.9430  172.2890  146.0830 F   0  0  0  0  0  0  0  0  0  0  0  0
  194.5830  177.3750  146.6670 C   0  0  0  0  0  1  0  0  0  0  0  0
  194.1800  177.6560  145.3550 O   0  0  0  0  0  0  0  0  0  0  0  0
  195.3700  174.1020  142.8910 C   0  0  2  0  0  3  0  0  0  0  0  0
  197.6130  174.5720  143.9240 C   0  0  0  0  0  1  0  0  0  0  0  0
  196.8540  175.8150  142.0270 O   0  0  0  0  0  1  0  0  0  0  0  0
  196.8110  174.5550  142.6360 C   0  0  2  0  0  3  0  0  0  0  0  0
  194.5850  174.2990  141.7450 O   0  0  0  0  0  0  0  0  0  0  0  0
  194.4690  173.0400  141.1520 C   0  0  0  0  0  1  0  0  0  0  0  0
  190.8320  174.6290  146.2530 C   0  0  0  0  0  2  0  0  0  0  0  0
  188.6330  175.3060  147.0990 C   0  0  0  0  0  2  0  0  0  0  0  0
  189.3950  174.3440  146.5690 C   0  0  0  0  0  3  0  0  0  0  0  0
  1 29  1  6  0  0  0
  1  8  1  0  0  0  0
  2 11  1  0  0  0  0
  2 14  1  0  0  0  0
  3 10  1  0  0  0  0
  3 14  1  0  0  0  0
  4 13  2  0  0  0  0
  5 28  1  6  0  0  0
  6  8  1  0  0  0  0
  7  9  2  0  0  0  0
  7  4  1  0  0  0  0
 10  5  1  0  0  0  0
 11  9  1  6  0  0  0
 11  6  1  0  0  0  0
 12  1  1  0  0  0  0
 12  5  1  0  0  0  0
 13  6  1  0  0  0  0
 13 23  1  0  0  0  0
 14 35  1  0  0  0  0
 15  2  2  0  0  0  0
 16 17  1  0  0  0  0
 17  3  1  0  0  0  0
 18 17  2  0  0  0  0
 20 21  2  0  0  0  0
 21 19  1  0  0  0  0
 21 18  1  0  0  0  0
 22 20  1  0  0  0  0
 22 16  2  0  0  0  0
 23 24  1  0  0  0  0
 23 26  1  0  0  0  0
 25 23  1  0  0  0  0
 28 27  1  0  0  0  0
 29 33  1  6  0  0  0
 31 32  1  0  0  0  0
 32 29  1  0  0  0  0
 32 30  1  1  0  0  0
 34 33  1  0  0  0  0
 35 37  1  0  0  0  0
 37 36  2  0  0  0  0
M  END
>  <MODEL>
2

>  <REMARK>
 VINA RESULT:      -6.2      2.683      6.945
  Name = 
  8 active torsions:
  status: ('A' for Active; 'I' for Inactive)
    1  A    between atoms: C_1  and  C_5
    2  A    between atoms: C_3  and  C_30
    3  A    between atoms: C_5  and  O_11
    4  A    between atoms: C_5  and  C_23
    5  A    between atoms: C_6  and  N_7
    6  A    between atoms: C_10  and  O_33
    7  A    between atoms: C_14  and  N_31
    8  A    between atoms: C_14  and  C_37
                            x       y       z     vdW  Elec       q    Type
                         _______ _______ _______ _____ _____    ______ ____

>  <TORSDO>
F 8

$$$$
=
 OpenBabel11052419583D

 37 39  0  0  1  0  0  0  0  0999 V2000
  190.1840  175.0420  143.2320 C   0  0  2  0  0  3  0  0  0  0  0  0
  193.3560  174.8800  144.4580 C   0  0  0  0  0  0  0  0  0  0  0  0
  193.9430  173.5780  142.4450 N   0  0  0  0  0  0  0  0  0  0  0  0
  191.0110  176.4840  147.5470 C   0  0  0  0  0  3  0  0  0  0  0  0
  191.5140  173.3200  141.9280 C   0  0  1  0  0  3  0  0  0  0  0  0
  191.1530  175.1290  145.5700 N   0  0  0  0  0  0  0  0  0  0  0  0
  192.4660  176.6660  147.5140 C   0  0  0  0  0  3  0  0  0  0  0  0
  190.4560  174.3110  144.5690 C   0  0  0  0  0  2  0  0  0  0  0  0
  193.2160  175.9660  146.6720 C   0  0  0  0  0  3  0  0  0  0  0  0
  192.9620  172.9770  141.5360 C   0  0  0  0  0  2  0  0  0  0  0  0
  192.6120  174.9240  145.7660 C   0  0  2  0  0  3  0  0  0  0  0  0
  191.2900  174.8120  142.1940 C   0  0  0  0  0  2  0  0  0  0  0  0
  190.3810  175.7320  146.6370 C   0  0  0  0  0  0  0  0  0  0  0  0
  193.6670  173.6260  143.8300 N   0  0  0  0  0  0  0  0  0  0  0  0
  193.6730  175.9600  143.8900 O   0  0  0  0  0  0  0  0  0  0  0  0
  196.3970  173.7880  142.6930 C   0  0  0  0  0  3  0  0  0  0  0  0
  195.2260  174.0010  141.9400 C   0  0  0  0  0  0  0  0  0  0  0  0
  195.3230  174.6500  140.6930 C   0  0  0  0  0  3  0  0  0  0  0  0
  196.6460  175.7220  139.0220 F   0  0  0  0  0  0  0  0  0  0  0  0
  197.7180  174.8730  140.9830 C   0  0  0  0  0  3  0  0  0  0  0  0
  196.5660  175.0790  140.2160 C   0  0  0  0  0  0  0  0  0  0  0  0
  197.6340  174.2250  142.2200 C   0  0  0  0  0  3  0  0  0  0  0  0
  188.8840  175.5290  146.7620 C   0  0  0  0  0  0  0  0  0  0  0  0
  188.6110  174.6030  147.7440 F   0  0  0  0  0  0  0  0  0  0  0  0
  188.2900  176.7300  147.0810 F   0  0  0  0  0  0  0  0  0  0  0  0
  188.3410  175.0720  145.5750 F   0  0  0  0  0  0  0  0  0  0  0  0
  190.0060  171.6220  141.6280 C   0  0  0  0  0  1  0  0  0  0  0  0
  190.5550  172.7720  141.0440 O   0  0  0  0  0  0  0  0  0  0  0  0
  189.8250  176.5320  143.3790 C   0  0  2  0  0  3  0  0  0  0  0  0
  187.6480  177.7230  143.7800 C   0  0  0  0  0  1  0  0  0  0  0  0
  187.7220  175.7070  142.4950 O   0  0  0  0  0  1  0  0  0  0  0  0
  188.4420  176.8660  142.8110 C   0  0  2  0  0  3  0  0  0  0  0  0
  190.8040  177.3470  142.7920 O   0  0  0  0  0  0  0  0  0  0  0  0
  191.1500  178.2800  143.7720 C   0  0  0  0  0  1  0  0  0  0  0  0
  193.4980  172.3740  144.5590 C   0  0  0  0  0  2  0  0  0  0  0  0
  194.9410  170.8030  145.7690 C   0  0  0  0  0  2  0  0  0  0  0  0
  194.7370  172.0530  145.3400 C   0  0  0  0  0  3  0  0  0  0  0  0
  1 29  1  1  0  0  0
  1  8  1  0  0  0  0
  2 11  1  0  0  0  0
  3 14  1  0  0  0  0
  5 28  1  6  0  0  0
  5 12  1  0  0  0  0
  6 11  1  0  0  0  0
  6 13  1  0  0  0  0
  7  4  1  0  0  0  0
  8  6  1  0  0  0  0
  9  7  2  0  0  0  0
 10  5  1  0  0  0  0
 10  3  1  0  0  0  0
 11  9  1  1  0  0  0
 12  1  1  0  0  0  0
 13 23  1  0  0  0  0
 13  4  2  0  0  0  0
 14  2  1  0  0  0  0
 14 35  1  0  0  0  0
 15  2  2  0  0  0  0
 17  3  1  0  0  0  0
 17 16  2  0  0  0  0
 18 17  1  0  0  0  0
 19 21  1  0  0  0  0
 20 22  2  0  0  0  0
 21 18  2  0  0  0  0
 21 20  1  0  0  0  0
 22 16  1  0  0  0  0
 23 25  1  0  0  0  0
 23 24  1  0  0  0  0
 26 23  1  0  0  0  0
 28 27  1  0  0  0  0
 29 33  1  6  0  0  0
 31 32  1  0  0  0  0
 32 29  1  0  0  0  0
 32 30  1  1  0  0  0
 33 34  1  0  0  0  0
 35 37  1  0  0  0  0
 37 36  2  0  0  0  0
M  END
>  <MODEL>
3

>  <REMARK>
 VINA RESULT:      -6.2      1.028      1.198
  Name = 
  8 active torsions:
  status: ('A' for Active; 'I' for Inactive)
    1  A    between atoms: C_1  and  C_5
    2  A    between atoms: C_3  and  C_30
    3  A    between atoms: C_5  and  O_11
    4  A    between atoms: C_5  and  C_23
    5  A    between atoms: C_6  and  N_7
    6  A    between atoms: C_10  and  O_33
    7  A    between atoms: C_14  and  N_31
    8  A    between atoms: C_14  and  C_37
                            x       y       z     vdW  Elec       q    Type
                         _______ _______ _______ _____ _____    ______ ____

>  <TORSDO>
F 8

$$$$
=
 OpenBabel11052419583D

 37 39  0  0  1  0  0  0  0  0999 V2000
  191.2840  175.7860  144.4560 C   0  0  2  0  0  3  0  0  0  0  0  0
  193.0180  173.8560  142.2520 C   0  0  0  0  0  0  0  0  0  0  0  0
  195.0780  174.6510  143.3560 N   0  0  0  0  0  0  0  0  0  0  0  0
  189.0410  173.8410  140.9110 C   0  0  0  0  0  3  0  0  0  0  0  0
  193.7450  176.3980  144.5420 C   0  0  1  0  0  3  0  0  0  0  0  0
  190.7970  174.9510  142.1160 N   0  0  0  0  0  0  0  0  0  0  0  0
  189.9910  172.7970  140.5090 C   0  0  0  0  0  3  0  0  0  0  0  0
  191.2100  176.0930  142.9400 C   0  0  0  0  0  2  0  0  0  0  0  0
  191.2890  172.9380  140.7460 C   0  0  0  0  0  3  0  0  0  0  0  0
  195.1340  175.7940  144.2730 C   0  0  0  0  0  2  0  0  0  0  0  0
  191.8390  174.1910  141.3780 C   0  0  2  0  0  3  0  0  0  0  0  0
  192.6840  175.3530  144.9070 C   0  0  0  0  0  2  0  0  0  0  0  0
  189.4250  174.8840  141.6570 C   0  0  0  0  0  0  0  0  0  0  0  0
  194.1900  174.6870  142.2570 N   0  0  0  0  0  0  0  0  0  0  0  0
  192.9570  172.8570  143.0180 O   0  0  0  0  0  0  0  0  0  0  0  0
  196.7580  173.0990  142.4100 C   0  0  0  0  0  3  0  0  0  0  0  0
  196.0090  173.5600  143.5100 C   0  0  0  0  0  0  0  0  0  0  0  0
  196.1690  172.9300  144.7590 C   0  0  0  0  0  3  0  0  0  0  0  0
  197.1870  171.2430  146.1040 F   0  0  0  0  0  0  0  0  0  0  0  0
  197.7810  171.4010  143.7930 C   0  0  0  0  0  3  0  0  0  0  0  0
  197.0560  171.8580  144.9000 C   0  0  0  0  0  0  0  0  0  0  0  0
  197.6340  172.0230  142.5490 C   0  0  0  0  0  3  0  0  0  0  0  0
  188.4120  175.9630  141.9850 C   0  0  0  0  0  0  0  0  0  0  0  0
  187.4010  175.9650  141.0490 F   0  0  0  0  0  0  0  0  0  0  0  0
  187.8840  175.7230  143.2340 F   0  0  0  0  0  0  0  0  0  0  0  0
  188.9990  177.2150  141.9880 F   0  0  0  0  0  0  0  0  0  0  0  0
  194.3450  177.0510  146.6530 C   0  0  0  0  0  1  0  0  0  0  0  0
  193.7760  177.4840  145.4480 O   0  0  0  0  0  0  0  0  0  0  0  0
  190.1870  174.8360  144.9700 C   0  0  2  0  0  3  0  0  0  0  0  0
  189.3200  176.9210  146.0720 C   0  0  0  0  0  1  0  0  0  0  0  0
  190.0100  175.0420  147.3800 O   0  0  0  0  0  1  0  0  0  0  0  0
  189.4200  175.4100  146.1650 C   0  0  2  0  0  3  0  0  0  0  0  0
  190.7190  173.5770  145.2890 O   0  0  0  0  0  0  0  0  0  0  0  0
  189.8680  172.6490  144.6870 C   0  0  0  0  0  1  0  0  0  0  0  0
  194.3680  175.7180  141.2400 C   0  0  0  0  0  2  0  0  0  0  0  0
  194.4680  174.9950  138.8990 C   0  0  0  0  0  2  0  0  0  0  0  0
  195.1090  175.1650  140.0600 C   0  0  0  0  0  3  0  0  0  0  0  0
  1 12  1  0  0  0  0
  1 29  1  6  0  0  0
  2 14  1  0  0  0  0
  2 15  2  0  0  0  0
  3 17  1  0  0  0  0
  3 10  1  0  0  0  0
  4 13  2  0  0  0  0
  5 12  1  0  0  0  0
  5 28  1  1  0  0  0
  6  8  1  0  0  0  0
  7  9  2  0  0  0  0
  7  4  1  0  0  0  0
  8  1  1  0  0  0  0
 10  5  1  0  0  0  0
 11  9  1  1  0  0  0
 11  6  1  0  0  0  0
 11  2  1  0  0  0  0
 13 23  1  0  0  0  0
 13  6  1  0  0  0  0
 14  3  1  0  0  0  0
 16 22  2  0  0  0  0
 16 17  1  0  0  0  0
 17 18  2  0  0  0  0
 18 21  1  0  0  0  0
 20 21  2  0  0  0  0
 21 19  1  0  0  0  0
 22 20  1  0  0  0  0
 23 26  1  0  0  0  0
 23 25  1  0  0  0  0
 24 23  1  0  0  0  0
 28 27  1  0  0  0  0
 29 33  1  1  0  0  0
 29 32  1  0  0  0  0
 32 30  1  6  0  0  0
 32 31  1  0  0  0  0
 34 33  1  0  0  0  0
 35 14  1  0  0  0  0
 36 37  2  0  0  0  0
 37 35  1  0  0  0  0
M  END
>  <MODEL>
4

>  <REMARK>
 VINA RESULT:      -6.0      2.690      5.143
  Name = 
  8 active torsions:
  status: ('A' for Active; 'I' for Inactive)
    1  A    between atoms: C_1  and  C_5
    2  A    between atoms: C_3  and  C_30
    3  A    between atoms: C_5  and  O_11
    4  A    between atoms: C_5  and  C_23
    5  A    between atoms: C_6  and  N_7
    6  A    between atoms: C_10  and  O_33
    7  A    between atoms: C_14  and  N_31
    8  A    between atoms: C_14  and  C_37
                            x       y       z     vdW  Elec       q    Type
                         _______ _______ _______ _____ _____    ______ ____

>  <TORSDO>
F 8

$$$$
=
 OpenBabel11052419583D

 37 39  0  0  1  0  0  0  0  0999 V2000
  189.8960  175.2130  144.3490 C   0  0  2  0  0  3  0  0  0  0  0  0
  193.1090  174.4290  143.5450 C   0  0  0  0  0  0  0  0  0  0  0  0
  192.1860  172.8590  141.8790 N   0  0  0  0  0  0  0  0  0  0  0  0
  193.3350  176.7910  147.0070 C   0  0  0  0  0  3  0  0  0  0  0  0
  189.9270  173.1250  142.9080 C   0  0  1  0  0  3  0  0  0  0  0  0
  192.0760  175.2740  145.6340 N   0  0  0  0  0  0  0  0  0  0  0  0
  194.4860  176.6280  146.1120 C   0  0  0  0  0  3  0  0  0  0  0  0
  190.8160  174.5570  145.4070 C   0  0  0  0  0  2  0  0  0  0  0  0
  194.4760  175.7040  145.1590 C   0  0  0  0  0  3  0  0  0  0  0  0
  190.7860  172.4250  141.8410 C   0  0  0  0  0  2  0  0  0  0  0  0
  193.3150  174.7560  145.0000 C   0  0  2  0  0  3  0  0  0  0  0  0
  190.1110  174.6460  142.9400 C   0  0  0  0  0  2  0  0  0  0  0  0
  192.1900  176.1290  146.7990 C   0  0  0  0  0  0  0  0  0  0  0  0
  192.8070  173.0880  143.1270 N   0  0  0  0  0  0  0  0  0  0  0  0
  193.1620  175.3540  142.6890 O   0  0  0  0  0  0  0  0  0  0  0  0
  194.1120  172.1500  140.4940 C   0  0  0  0  0  3  0  0  0  0  0  0
  192.9500  172.9290  140.6570 C   0  0  0  0  0  0  0  0  0  0  0  0
  192.5530  173.7910  139.6160 C   0  0  0  0  0  3  0  0  0  0  0  0
  192.9280  174.7240  137.4530 F   0  0  0  0  0  0  0  0  0  0  0  0
  194.4690  173.1040  138.3020 C   0  0  0  0  0  3  0  0  0  0  0  0
  193.3080  173.8740  138.4420 C   0  0  0  0  0  0  0  0  0  0  0  0
  194.8690  172.2410  139.3270 C   0  0  0  0  0  3  0  0  0  0  0  0
  191.0590  176.2890  147.7950 C   0  0  0  0  0  0  0  0  0  0  0  0
  190.4420  175.0760  148.0130 F   0  0  0  0  0  0  0  0  0  0  0  0
  191.5660  176.7690  148.9820 F   0  0  0  0  0  0  0  0  0  0  0  0
  190.1080  177.1790  147.3320 F   0  0  0  0  0  0  0  0  0  0  0  0
  188.0150  173.1560  141.6480 C   0  0  0  0  0  1  0  0  0  0  0  0
  188.5660  172.7400  142.8680 O   0  0  0  0  0  0  0  0  0  0  0  0
  189.9020  176.7530  144.3630 C   0  0  2  0  0  3  0  0  0  0  0  0
  187.6020  176.4880  145.3420 C   0  0  0  0  0  1  0  0  0  0  0  0
  187.9110  177.5150  143.2050 O   0  0  0  0  0  1  0  0  0  0  0  0
  188.4940  177.3490  144.4670 C   0  0  2  0  0  3  0  0  0  0  0  0
  190.5680  177.2650  143.2390 O   0  0  0  0  0  0  0  0  0  0  0  0
  191.3910  178.2820  143.7260 C   0  0  0  0  0  1  0  0  0  0  0  0
  192.9450  171.9760  144.0620 C   0  0  0  0  0  2  0  0  0  0  0  0
  195.0750  171.5150  145.1840 C   0  0  0  0  0  2  0  0  0  0  0  0
  194.3530  171.4630  144.0610 C   0  0  0  0  0  3  0  0  0  0  0  0
  1 29  1  6  0  0  0
  1  8  1  0  0  0  0
  2 11  1  0  0  0  0
  3 14  1  0  0  0  0
  5 28  1  6  0  0  0
  5 12  1  0  0  0  0
  6 13  1  0  0  0  0
  7  4  1  0  0  0  0
  8  6  1  0  0  0  0
  9  7  2  0  0  0  0
 10  3  1  0  0  0  0
 10  5  1  0  0  0  0
 11  9  1  6  0  0  0
 11  6  1  0  0  0  0
 12  1  1  0  0  0  0
 13  4  2  0  0  0  0
 13 23  1  0  0  0  0
 14  2  1  0  0  0  0
 14 35  1  0  0  0  0
 15  2  2  0  0  0  0
 16 17  1  0  0  0  0
 17  3  1  0  0  0  0
 18 17  2  0  0  0  0
 19 21  1  0  0  0  0
 20 21  2  0  0  0  0
 20 22  1  0  0  0  0
 21 18  1  0  0  0  0
 22 16  2  0  0  0  0
 23 24  1  0  0  0  0
 23 25  1  0  0  0  0
 26 23  1  0  0  0  0
 27 28  1  0  0  0  0
 29 33  1  6  0  0  0
 29 32  1  0  0  0  0
 31 32  1  0  0  0  0
 32 30  1  1  0  0  0
 33 34  1  0  0  0  0
 37 35  1  0  0  0  0
 37 36  2  0  0  0  0
M  END
>  <MODEL>
5

>  <REMARK>
 VINA RESULT:      -6.0      2.147      2.664
  Name = 
  8 active torsions:
  status: ('A' for Active; 'I' for Inactive)
    1  A    between atoms: C_1  and  C_5
    2  A    between atoms: C_3  and  C_30
    3  A    between atoms: C_5  and  O_11
    4  A    between atoms: C_5  and  C_23
    5  A    between atoms: C_6  and  N_7
    6  A    between atoms: C_10  and  O_33
    7  A    between atoms: C_14  and  N_31
    8  A    between atoms: C_14  and  C_37
                            x       y       z     vdW  Elec       q    Type
                         _______ _______ _______ _____ _____    ______ ____

>  <TORSDO>
F 8

$$$$
=
 OpenBabel11052419583D

 37 39  0  0  1  0  0  0  0  0999 V2000
  192.0370  176.0150  144.9130 C   0  0  2  0  0  3  0  0  0  0  0  0
  191.9310  173.0190  143.3000 C   0  0  0  0  0  0  0  0  0  0  0  0
  194.3150  172.7540  143.8810 N   0  0  0  0  0  0  0  0  0  0  0  0
  188.2940  174.9230  142.4270 C   0  0  0  0  0  3  0  0  0  0  0  0
  194.3980  175.1550  144.5580 C   0  0  1  0  0  3  0  0  0  0  0  0
  190.6120  175.1020  143.0310 N   0  0  0  0  0  0  0  0  0  0  0  0
  188.4510  173.4700  142.2970 C   0  0  0  0  0  3  0  0  0  0  0  0
  191.7390  175.9680  143.3950 C   0  0  0  0  0  2  0  0  0  0  0  0
  189.6540  172.9140  142.3490 C   0  0  0  0  0  3  0  0  0  0  0  0
  195.1720  173.8400  144.3670 C   0  0  0  0  0  2  0  0  0  0  0  0
  190.9000  173.7510  142.4830 C   0  0  2  0  0  3  0  0  0  0  0  0
  193.0920  174.9880  145.3430 C   0  0  0  0  0  2  0  0  0  0  0  0
  189.3270  175.7100  142.7530 C   0  0  0  0  0  0  0  0  0  0  0  0
  193.3170  173.0340  142.9220 N   0  0  0  0  0  0  0  0  0  0  0  0
  191.5760  172.4210  144.3520 O   0  0  0  0  0  0  0  0  0  0  0  0
  194.9060  170.4120  143.3390 C   0  0  0  0  0  3  0  0  0  0  0  0
  194.5760  171.3950  144.2910 C   0  0  0  0  0  0  0  0  0  0  0  0
  194.4860  171.0300  145.6490 C   0  0  0  0  0  3  0  0  0  0  0  0
  194.6070  169.3610  147.3490 F   0  0  0  0  0  0  0  0  0  0  0  0
  195.0290  168.7380  145.0790 C   0  0  0  0  0  3  0  0  0  0  0  0
  194.7170  169.7070  146.0400 C   0  0  0  0  0  0  0  0  0  0  0  0
  195.1260  169.0920  143.7290 C   0  0  0  0  0  3  0  0  0  0  0  0
  189.1170  177.2100  142.8080 C   0  0  0  0  0  0  0  0  0  0  0  0
  188.0530  177.5710  142.0110 F   0  0  0  0  0  0  0  0  0  0  0  0
  188.8660  177.5840  144.1100 F   0  0  0  0  0  0  0  0  0  0  0  0
  190.2380  177.8880  142.3640 F   0  0  0  0  0  0  0  0  0  0  0  0
  195.9870  176.7100  144.0070 C   0  0  0  0  0  1  0  0  0  0  0  0
  195.2030  176.2080  145.0540 O   0  0  0  0  0  0  0  0  0  0  0  0
  190.7880  175.9760  145.8110 C   0  0  2  0  0  3  0  0  0  0  0  0
  191.3820  176.7050  148.1420 C   0  0  0  0  0  1  0  0  0  0  0  0
  189.4480  177.5820  147.0420 O   0  0  0  0  0  1  0  0  0  0  0  0
  190.7530  177.1240  146.8260 C   0  0  2  0  0  3  0  0  0  0  0  0
  190.6750  174.7410  146.4670 O   0  0  0  0  0  0  0  0  0  0  0  0
  189.3740  174.3030  146.2170 C   0  0  0  0  0  1  0  0  0  0  0  0
  193.7180  173.5370  141.6120 C   0  0  0  0  0  2  0  0  0  0  0  0
  194.8810  172.0910  140.0100 C   0  0  0  0  0  2  0  0  0  0  0  0
  193.7330  172.4250  140.6080 C   0  0  0  0  0  3  0  0  0  0  0  0
  1 12  1  0  0  0  0
  1 29  1  1  0  0  0
  2 15  2  0  0  0  0
  3 17  1  0  0  0  0
  3 10  1  0  0  0  0
  4 13  2  0  0  0  0
  5 28  1  1  0  0  0
  5 12  1  0  0  0  0
  6  8  1  0  0  0  0
  7  9  2  0  0  0  0
  7  4  1  0  0  0  0
  8  1  1  0  0  0  0
 10  5  1  0  0  0  0
 11  9  1  1  0  0  0
 11  6  1  0  0  0  0
 11  2  1  0  0  0  0
 13 23  1  0  0  0  0
 13  6  1  0  0  0  0
 14  2  1  0  0  0  0
 14  3  1  0  0  0  0
 16 22  2  0  0  0  0
 16 17  1  0  0  0  0
 17 18  2  0  0  0  0
 18 21  1  0  0  0  0
 20 21  2  0  0  0  0
 21 19  1  0  0  0  0
 22 20  1  0  0  0  0
 23 25  1  0  0  0  0
 24 23  1  0  0  0  0
 26 23  1  0  0  0  0
 27 28  1  0  0  0  0
 29 33  1  1  0  0  0
 29 32  1  0  0  0  0
 32 31  1  0  0  0  0
 32 30  1  1  0  0  0
 34 33  1  0  0  0  0
 35 14  1  0  0  0  0
 36 37  2  0  0  0  0
 37 35  1  0  0  0  0
M  END
>  <MODEL>
6

>  <REMARK>
 VINA RESULT:      -5.8      2.829      5.494
  Name = 
  8 active torsions:
  status: ('A' for Active; 'I' for Inactive)
    1  A    between atoms: C_1  and  C_5
    2  A    between atoms: C_3  and  C_30
    3  A    between atoms: C_5  and  O_11
    4  A    between atoms: C_5  and  C_23
    5  A    between atoms: C_6  and  N_7
    6  A    between atoms: C_10  and  O_33
    7  A    between atoms: C_14  and  N_31
    8  A    between atoms: C_14  and  C_37
                            x       y       z     vdW  Elec       q    Type
                         _______ _______ _______ _____ _____    ______ ____

>  <TORSDO>
F 8

$$$$
=
 OpenBabel11052419583D

 37 39  0  0  1  0  0  0  0  0999 V2000
  193.0120  174.6920  144.8310 C   0  0  2  0  0  3  0  0  0  0  0  0
  190.5470  174.4550  142.4940 C   0  0  0  0  0  0  0  0  0  0  0  0
  188.9760  175.2040  144.2440 N   0  0  0  0  0  0  0  0  0  0  0  0
  193.9460  172.7060  140.7610 C   0  0  0  0  0  3  0  0  0  0  0  0
  190.7460  174.8330  145.9650 C   0  0  1  0  0  3  0  0  0  0  0  0
  192.7220  173.2900  142.7430 N   0  0  0  0  0  0  0  0  0  0  0  0
  192.8310  173.1940  139.9420 C   0  0  0  0  0  3  0  0  0  0  0  0
  192.6700  173.3160  144.2100 C   0  0  0  0  0  2  0  0  0  0  0  0
  191.6760  173.5270  140.5030 C   0  0  0  0  0  3  0  0  0  0  0  0
  189.2910  175.2380  145.6760 C   0  0  0  0  0  2  0  0  0  0  0  0
  191.4470  173.3620  141.9830 C   0  0  2  0  0  3  0  0  0  0  0  0
  191.7690  175.5560  145.0810 C   0  0  0  0  0  2  0  0  0  0  0  0
  193.8910  172.7260  142.0980 C   0  0  0  0  0  0  0  0  0  0  0  0
  189.5070  174.1690  143.4420 N   0  0  0  0  0  0  0  0  0  0  0  0
  190.7390  175.6420  142.1140 O   0  0  0  0  0  0  0  0  0  0  0  0
  187.4920  175.9490  142.4090 C   0  0  0  0  0  3  0  0  0  0  0  0
  188.0360  176.1490  143.6920 C   0  0  0  0  0  0  0  0  0  0  0  0
  187.6620  177.2930  144.4240 C   0  0  0  0  0  3  0  0  0  0  0  0
  186.4300  179.3300  144.5830 F   0  0  0  0  0  0  0  0  0  0  0  0
  186.2470  178.0140  142.5940 C   0  0  0  0  0  3  0  0  0  0  0  0
  186.7670  178.2190  143.8780 C   0  0  0  0  0  0  0  0  0  0  0  0
  186.6080  176.8780  141.8610 C   0  0  0  0  0  3  0  0  0  0  0  0
  195.0480  172.1490  142.8890 C   0  0  0  0  0  0  0  0  0  0  0  0
  194.5850  171.5500  144.0400 F   0  0  0  0  0  0  0  0  0  0  0  0
  195.7040  171.2170  142.1150 F   0  0  0  0  0  0  0  0  0  0  0  0
  195.9480  173.1350  143.2480 F   0  0  0  0  0  0  0  0  0  0  0  0
  191.1700  176.2310  147.7290 C   0  0  0  0  0  1  0  0  0  0  0  0
  191.0770  174.8880  147.3400 O   0  0  0  0  0  0  0  0  0  0  0  0
  194.1200  175.4680  144.0960 C   0  0  2  0  0  3  0  0  0  0  0  0
  195.6280  174.9220  146.0320 C   0  0  0  0  0  1  0  0  0  0  0  0
  194.7740  177.1360  145.7310 O   0  0  0  0  0  1  0  0  0  0  0  0
  195.2020  175.9930  145.0450 C   0  0  2  0  0  3  0  0  0  0  0  0
  193.5830  176.5190  143.3370 O   0  0  0  0  0  0  0  0  0  0  0  0
  194.1360  176.3790  142.0630 C   0  0  0  0  0  1  0  0  0  0  0  0
  189.1340  172.7890  143.7350 C   0  0  0  0  0  2  0  0  0  0  0  0
  187.4290  172.5920  141.9840 C   0  0  0  0  0  2  0  0  0  0  0  0
  188.5660  172.1310  142.5140 C   0  0  0  0  0  3  0  0  0  0  0  0
  1 29  1  6  0  0  0
  1 12  1  0  0  0  0
  2 14  1  0  0  0  0
  3 10  1  0  0  0  0
  4 13  2  0  0  0  0
  5 28  1  1  0  0  0
  6  8  1  0  0  0  0
  7  9  2  0  0  0  0
  7  4  1  0  0  0  0
  8  1  1  0  0  0  0
 10  5  1  0  0  0  0
 11  9  1  6  0  0  0
 11  2  1  0  0  0  0
 11  6  1  0  0  0  0
 12  5  1  0  0  0  0
 13  6  1  0  0  0  0
 13 23  1  0  0  0  0
 14 35  1  0  0  0  0
 14  3  1  0  0  0  0
 15  2  2  0  0  0  0
 16 17  1  0  0  0  0
 17  3  1  0  0  0  0
 17 18  2  0  0  0  0
 20 21  2  0  0  0  0
 21 18  1  0  0  0  0
 21 19  1  0  0  0  0
 22 16  2  0  0  0  0
 22 20  1  0  0  0  0
 23 26  1  0  0  0  0
 23 24  1  0  0  0  0
 25 23  1  0  0  0  0
 28 27  1  0  0  0  0
 29 33  1  1  0  0  0
 29 32  1  0  0  0  0
 32 31  1  0  0  0  0
 32 30  1  1  0  0  0
 34 33  1  0  0  0  0
 36 37  2  0  0  0  0
 37 35  1  0  0  0  0
M  END
>  <MODEL>
7

>  <REMARK>
 VINA RESULT:      -5.5      2.777      7.291
  Name = 
  8 active torsions:
  status: ('A' for Active; 'I' for Inactive)
    1  A    between atoms: C_1  and  C_5
    2  A    between atoms: C_3  and  C_30
    3  A    between atoms: C_5  and  O_11
    4  A    between atoms: C_5  and  C_23
    5  A    between atoms: C_6  and  N_7
    6  A    between atoms: C_10  and  O_33
    7  A    between atoms: C_14  and  N_31
    8  A    between atoms: C_14  and  C_37
                            x       y       z     vdW  Elec       q    Type
                         _______ _______ _______ _____ _____    ______ ____

>  <TORSDO>
F 8

$$$$
=
 OpenBabel11052419583D

 37 39  0  0  1  0  0  0  0  0999 V2000
  193.8970  174.3950  142.7970 C   0  0  2  0  0  3  0  0  0  0  0  0
  190.5490  173.9750  143.2480 C   0  0  0  0  0  0  0  0  0  0  0  0
  190.5170  176.2380  144.2330 N   0  0  0  0  0  0  0  0  0  0  0  0
  192.0300  170.2260  142.0810 C   0  0  0  0  0  3  0  0  0  0  0  0
  193.0110  176.2110  144.3320 C   0  0  1  0  0  3  0  0  0  0  0  0
  192.4250  172.3590  143.1110 N   0  0  0  0  0  0  0  0  0  0  0  0
  190.6100  170.5680  141.9410 C   0  0  0  0  0  3  0  0  0  0  0  0
  193.3810  173.2800  143.7380 C   0  0  0  0  0  2  0  0  0  0  0  0
  190.1170  171.6550  142.5220 C   0  0  0  0  0  3  0  0  0  0  0  0
  191.7150  176.9730  144.6520 C   0  0  0  0  0  2  0  0  0  0  0  0
  190.9770  172.5390  143.3890 C   0  0  2  0  0  3  0  0  0  0  0  0
  193.0710  175.6830  142.8930 C   0  0  0  0  0  2  0  0  0  0  0  0
  192.8960  171.0660  142.6610 C   0  0  0  0  0  0  0  0  0  0  0  0
  190.4720  174.8360  144.3960 N   0  0  0  0  0  0  0  0  0  0  0  0
  190.2970  174.4370  142.1020 O   0  0  0  0  0  0  0  0  0  0  0  0
  189.3030  177.4760  142.4660 C   0  0  0  0  0  3  0  0  0  0  0  0
  189.3540  176.9600  143.7750 C   0  0  0  0  0  0  0  0  0  0  0  0
  188.2610  177.1740  144.6380 C   0  0  0  0  0  3  0  0  0  0  0  0
  186.1060  178.1110  145.0460 F   0  0  0  0  0  0  0  0  0  0  0  0
  187.1170  178.4130  142.8990 C   0  0  0  0  0  3  0  0  0  0  0  0
  187.1460  177.8930  144.1990 C   0  0  0  0  0  0  0  0  0  0  0  0
  188.1950  178.2020  142.0330 C   0  0  0  0  0  3  0  0  0  0  0  0
  194.3370  170.6280  142.8340 C   0  0  0  0  0  0  0  0  0  0  0  0
  195.1190  171.1600  141.8330 F   0  0  0  0  0  0  0  0  0  0  0  0
  194.7970  171.0600  144.0590 F   0  0  0  0  0  0  0  0  0  0  0  0
  194.4500  169.2500  142.7830 F   0  0  0  0  0  0  0  0  0  0  0  0
  194.6620  176.3930  145.9080 C   0  0  0  0  0  1  0  0  0  0  0  0
  194.1790  176.9180  144.7020 O   0  0  0  0  0  0  0  0  0  0  0  0
  194.1140  173.9510  141.3380 C   0  0  2  0  0  3  0  0  0  0  0  0
  195.5810  175.6190  140.1610 C   0  0  0  0  0  1  0  0  0  0  0  0
  195.9840  173.2710  139.9510 O   0  0  0  0  0  1  0  0  0  0  0  0
  195.5270  174.2580  140.8310 C   0  0  2  0  0  3  0  0  0  0  0  0
  193.1550  174.5230  140.4890 O   0  0  0  0  0  0  0  0  0  0  0  0
  192.6040  173.4560  139.7770 C   0  0  0  0  0  1  0  0  0  0  0  0
  190.5550  174.2790  145.7420 C   0  0  0  0  0  2  0  0  0  0  0  0
  189.1950  175.0300  147.6390 C   0  0  0  0  0  2  0  0  0  0  0  0
  189.2420  174.4230  146.4490 C   0  0  0  0  0  3  0  0  0  0  0  0
  1 29  1  6  0  0  0
  1 12  1  0  0  0  0
  1  8  1  0  0  0  0
  2 11  1  0  0  0  0
  2 14  1  0  0  0  0
  3 14  1  0  0  0  0
  3 10  1  0  0  0  0
  4 13  2  0  0  0  0
  5 10  1  0  0  0  0
  5 28  1  6  0  0  0
  6 11  1  0  0  0  0
  6  8  1  0  0  0  0
  7  4  1  0  0  0  0
  7  9  2  0  0  0  0
 11  9  1  6  0  0  0
 12  5  1  0  0  0  0
 13 23  1  0  0  0  0
 13  6  1  0  0  0  0
 14 35  1  0  0  0  0
 15  2  2  0  0  0  0
 16 17  1  0  0  0  0
 17  3  1  0  0  0  0
 17 18  2  0  0  0  0
 20 21  2  0  0  0  0
 21 18  1  0  0  0  0
 21 19  1  0  0  0  0
 22 16  2  0  0  0  0
 22 20  1  0  0  0  0
 23 25  1  0  0  0  0
 24 23  1  0  0  0  0
 26 23  1  0  0  0  0
 28 27  1  0  0  0  0
 29 33  1  6  0  0  0
 31 32  1  0  0  0  0
 32 30  1  6  0  0  0
 32 29  1  0  0  0  0
 34 33  1  0  0  0  0
 35 37  1  0  0  0  0
 37 36  2  0  0  0  0
M  END
>  <MODEL>
8

>  <REMARK>
 VINA RESULT:      -5.4      2.716      7.080
  Name = 
  8 active torsions:
  status: ('A' for Active; 'I' for Inactive)
    1  A    between atoms: C_1  and  C_5
    2  A    between atoms: C_3  and  C_30
    3  A    between atoms: C_5  and  O_11
    4  A    between atoms: C_5  and  C_23
    5  A    between atoms: C_6  and  N_7
    6  A    between atoms: C_10  and  O_33
    7  A    between atoms: C_14  and  N_31
    8  A    between atoms: C_14  and  C_37
                            x       y       z     vdW  Elec       q    Type
                         _______ _______ _______ _____ _____    ______ ____

>  <TORSDO>
F 8

$$$$
=
 OpenBabel11052419583D

 37 39  0  0  1  0  0  0  0  0999 V2000
  192.8470  172.0960  142.6430 C   0  0  2  0  0  3  0  0  0  0  0  0
  192.5240  174.9230  144.5130 C   0  0  0  0  0  0  0  0  0  0  0  0
  190.1490  174.9550  143.8420 N   0  0  0  0  0  0  0  0  0  0  0  0
  196.6410  174.1310  144.3300 C   0  0  0  0  0  3  0  0  0  0  0  0
  190.6320  173.2160  142.1170 C   0  0  1  0  0  3  0  0  0  0  0  0
  194.4640  173.9160  143.3410 N   0  0  0  0  0  0  0  0  0  0  0  0
  196.0680  174.9780  145.3820 C   0  0  0  0  0  3  0  0  0  0  0  0
  193.6390  173.3690  142.2570 C   0  0  0  0  0  2  0  0  0  0  0  0
  194.8160  175.4080  145.2950 C   0  0  0  0  0  3  0  0  0  0  0  0
  189.5890  174.1520  142.7500 C   0  0  0  0  0  2  0  0  0  0  0  0
  193.9600  175.0930  144.0950 C   0  0  2  0  0  3  0  0  0  0  0  0
  191.4310  172.4060  143.1440 C   0  0  0  0  0  2  0  0  0  0  0  0
  195.8860  173.6410  143.3400 C   0  0  0  0  0  0  0  0  0  0  0  0
  191.4580  175.4720  143.7220 N   0  0  0  0  0  0  0  0  0  0  0  0
  192.2550  174.2550  145.5480 O   0  0  0  0  0  0  0  0  0  0  0  0
  188.4850  176.4420  144.9130 C   0  0  0  0  0  3  0  0  0  0  0  0
  189.3220  175.3110  144.9690 C   0  0  0  0  0  0  0  0  0  0  0  0
  189.3530  174.5420  146.1490 C   0  0  0  0  0  3  0  0  0  0  0  0
  188.6210  174.1660  148.3880 F   0  0  0  0  0  0  0  0  0  0  0  0
  187.7520  176.0390  147.1810 C   0  0  0  0  0  3  0  0  0  0  0  0
  188.5670  174.9030  147.2480 C   0  0  0  0  0  0  0  0  0  0  0  0
  187.7100  176.8070  146.0130 C   0  0  0  0  0  3  0  0  0  0  0  0
  196.5480  172.8260  142.2470 C   0  0  0  0  0  0  0  0  0  0  0  0
  196.4950  171.4840  142.5570 F   0  0  0  0  0  0  0  0  0  0  0  0
  195.8950  173.0510  141.0560 F   0  0  0  0  0  0  0  0  0  0  0  0
  197.8760  173.1810  142.0940 F   0  0  0  0  0  0  0  0  0  0  0  0
  189.9360  173.2020  139.9350 C   0  0  0  0  0  1  0  0  0  0  0  0
  190.1020  172.4120  141.0800 O   0  0  0  0  0  0  0  0  0  0  0  0
  193.6000  171.1370  143.5830 C   0  0  2  0  0  3  0  0  0  0  0  0
  193.9020  169.6490  141.5800 C   0  0  0  0  0  1  0  0  0  0  0  0
  192.4040  169.0400  143.3410 O   0  0  0  0  0  1  0  0  0  0  0  0
  193.6110  169.6940  143.0680 C   0  0  2  0  0  3  0  0  0  0  0  0
  193.0730  171.1870  144.8830 O   0  0  0  0  0  0  0  0  0  0  0  0
  194.1790  171.2910  145.7290 C   0  0  0  0  0  1  0  0  0  0  0  0
  191.7470  176.4150  142.6460 C   0  0  0  0  0  2  0  0  0  0  0  0
  191.3010  178.4770  143.8960 C   0  0  0  0  0  2  0  0  0  0  0  0
  190.9950  177.6940  142.8560 C   0  0  0  0  0  3  0  0  0  0  0  0
  1 12  1  0  0  0  0
  1 29  1  1  0  0  0
  2 15  2  0  0  0  0
  3 17  1  0  0  0  0
  4  7  1  0  0  0  0
  5 28  1  6  0  0  0
  5 10  1  0  0  0  0
  5 12  1  0  0  0  0
  6 11  1  0  0  0  0
  8  1  1  0  0  0  0
  8  6  1  0  0  0  0
  9  7  2  0  0  0  0
 10  3  1  0  0  0  0
 11  2  1  0  0  0  0
 11  9  1  1  0  0  0
 13  6  1  0  0  0  0
 13  4  2  0  0  0  0
 14  3  1  0  0  0  0
 14  2  1  0  0  0  0
 16 17  2  0  0  0  0
 16 22  1  0  0  0  0
 17 18  1  0  0  0  0
 18 21  2  0  0  0  0
 20 21  1  0  0  0  0
 21 19  1  0  0  0  0
 22 20  2  0  0  0  0
 23 24  1  0  0  0  0
 23 13  1  0  0  0  0
 25 23  1  0  0  0  0
 26 23  1  0  0  0  0
 27 28  1  0  0  0  0
 29 33  1  1  0  0  0
 32 30  1  6  0  0  0
 32 31  1  0  0  0  0
 32 29  1  0  0  0  0
 33 34  1  0  0  0  0
 35 37  1  0  0  0  0
 35 14  1  0  0  0  0
 37 36  2  0  0  0  0
M  END
>  <MODEL>
9

>  <REMARK>
 VINA RESULT:      -5.3      2.458      7.000
  Name = 
  8 active torsions:
  status: ('A' for Active; 'I' for Inactive)
    1  A    between atoms: C_1  and  C_5
    2  A    between atoms: C_3  and  C_30
    3  A    between atoms: C_5  and  O_11
    4  A    between atoms: C_5  and  C_23
    5  A    between atoms: C_6  and  N_7
    6  A    between atoms: C_10  and  O_33
    7  A    between atoms: C_14  and  N_31
    8  A    between atoms: C_14  and  C_37
                            x       y       z     vdW  Elec       q    Type
                         _______ _______ _______ _____ _____    ______ ____

>  <TORSDO>
F 8

$$$$
