=
 OpenBabel11052419063D

 32 38  0  0  1  0  0  0  0  0999 V2000
  187.1180  176.8100  144.6840 C   0  0  1  0  0  3  0  0  0  0  0  0
  187.6490  178.2060  142.8460 C   0  0  2  0  0  3  0  0  0  0  0  0
  187.3510  176.5150  146.4660 S   0  0  0  0  0  0  0  0  0  0  0  0
  187.4050  178.2720  144.3240 C   0  0  1  0  0  3  0  0  0  0  0  0
  186.2750  178.4100  142.2470 C   0  0  2  0  0  0  0  0  0  0  0  0
  188.0160  174.8410  139.2280 C   0  0  0  0  0  3  0  0  0  0  0  0
  188.1820  176.8290  142.4870 C   0  0  1  0  0  3  0  0  0  0  0  0
  186.5500  176.7550  138.9920 C   0  0  0  0  0  3  0  0  0  0  0  0
  186.8330  177.1410  140.3050 C   0  0  0  0  0  0  0  0  0  0  0  0
  185.0560  177.7140  142.8780 C   0  0  2  0  0  3  0  0  0  0  0  0
  185.4790  179.0960  145.7270 C   0  0  0  0  0  2  0  0  0  0  0  0
  186.2010  178.2750  140.8420 O   0  0  0  0  0  0  0  0  0  0  0  0
  186.2330  179.1760  144.4650 N   0  0  2  0  0  0  0  0  0  0  0  0
  184.8180  177.7400  145.9660 C   0  0  0  0  0  2  0  0  0  0  0  0
  187.8390  175.8930  143.6640 C   0  0  1  0  0  3  0  0  0  0  0  0
  183.9540  177.7270  142.0210 O   0  0  0  0  0  1  0  0  0  0  0  0
  187.7390  176.3670  141.0970 C   0  0  0  0  0  0  0  0  0  0  0  0
  185.4100  179.1480  143.2350 C   0  0  1  0  0  3  0  0  0  0  0  0
  185.6170  176.8880  146.9540 C   0  0  0  0  0  2  0  0  0  0  0  0
  187.1390  175.6070  138.4570 C   0  0  0  0  0  3  0  0  0  0  0  0
  188.3190  175.2240  140.5370 C   0  0  0  0  0  3  0  0  0  0  0  0
  191.4400  175.0750  143.5480 C   0  0  1  0  0  3  0  0  0  0  0  0
  192.6630  175.7390  143.6710 O   0  0  0  0  0  1  0  0  0  0  0  0
  191.4220  173.7910  144.3880 C   0  0  1  0  0  3  0  0  0  0  0  0
  189.1100  174.0040  143.7260 O   0  0  0  0  0  0  0  0  0  0  0  0
  189.9850  173.2880  144.5620 C   0  0  0  0  0  2  0  0  0  0  0  0
  190.2650  176.0070  143.9090 C   0  0  2  0  0  3  0  0  0  0  0  0
  190.6160  176.8290  144.9830 O   0  0  0  0  0  1  0  0  0  0  0  0
  189.0330  175.2600  144.2560 N   0  0  1  0  0  0  0  0  0  0  0  0
  192.2470  172.7010  143.7180 C   0  0  0  0  0  2  0  0  0  0  0  0
  193.9710  172.9070  145.5100 C   0  0  0  0  0  1  0  0  0  0  0  0
  193.0980  171.9450  144.7260 C   0  0  0  0  0  2  0  0  0  0  0  0
  1  3  1  1  0  0  0
  2  4  1  0  0  0  0
  3 19  1  0  0  0  0
  4 13  1  0  0  0  0
  4  1  1  0  0  0  0
  5  2  1  0  0  0  0
  5 10  1  0  0  0  0
  5 18  1  0  0  0  0
  6 21  1  0  0  0  0
  7  2  1  0  0  0  0
  7 15  1  0  0  0  0
  8  9  2  0  0  0  0
  9 12  1  0  0  0  0
  9 17  1  0  0  0  0
 10 18  1  0  0  0  0
 11 14  1  0  0  0  0
 12  5  1  0  0  0  0
 13 11  1  0  0  0  0
 14 19  1  0  0  0  0
 15 29  1  0  0  0  0
 15  1  1  0  0  0  0
 16 10  1  0  0  0  0
 17  7  1  0  0  0  0
 18 13  1  0  0  0  0
 20  8  1  0  0  0  0
 20  6  2  0  0  0  0
 21 17  2  0  0  0  0
 22 23  1  0  0  0  0
 22 27  1  0  0  0  0
 22 24  1  0  0  0  0
 24 26  1  0  0  0  0
 25 29  1  0  0  0  0
 25 26  1  0  0  0  0
 27 29  1  0  0  0  0
 27 28  1  0  0  0  0
 30 24  1  0  0  0  0
 30 32  1  0  0  0  0
 32 31  1  0  0  0  0
M  END
>  <MODEL>
1

>  <REMARK>
 VINA RESULT:      -7.8      0.000      0.000
  Name = 
  3 active torsions:
  status: ('A' for Active; 'I' for Inactive)
    1  A    between atoms: C_15  and  C_19
    2  A    between atoms: C_19  and  C_26
    3  A    between atoms: C_24  and  N_27
                            x       y       z     vdW  Elec       q    Type
                         _______ _______ _______ _____ _____    ______ ____

>  <TORSDO>
F 3

$$$$
=
 OpenBabel11052419063D

 32 38  0  0  1  0  0  0  0  0999 V2000
  189.0280  174.8740  143.1150 C   0  0  1  0  0  3  0  0  0  0  0  0
  190.7780  176.4460  143.3840 C   0  0  2  0  0  3  0  0  0  0  0  0
  187.7200  174.2510  142.0100 S   0  0  0  0  0  0  0  0  0  0  0  0
  190.1090  175.6210  142.3260 C   0  0  1  0  0  3  0  0  0  0  0  0
  191.8830  175.5470  143.8930 C   0  0  2  0  0  0  0  0  0  0  0  0
  190.3080  177.5100  148.2000 C   0  0  0  0  0  3  0  0  0  0  0  0
  189.7830  176.7400  144.4950 C   0  0  1  0  0  3  0  0  0  0  0  0
  192.4330  176.7790  147.2970 C   0  0  0  0  0  3  0  0  0  0  0  0
  191.8360  176.5610  146.0530 C   0  0  0  0  0  0  0  0  0  0  0  0
  191.6060  174.0500  144.1160 C   0  0  2  0  0  3  0  0  0  0  0  0
  190.7740  173.5350  141.0750 C   0  0  0  0  0  2  0  0  0  0  0  0
  192.6090  176.0460  144.9980 O   0  0  0  0  0  0  0  0  0  0  0  0
  191.1900  174.7490  141.7980 N   0  0  2  0  0  0  0  0  0  0  0  0
  190.0060  172.5370  141.9380 C   0  0  0  0  0  2  0  0  0  0  0  0
  188.6350  175.7200  144.3520 C   0  0  1  0  0  3  0  0  0  0  0  0
  192.6000  173.4520  144.8960 O   0  0  0  0  0  1  0  0  0  0  0  0
  190.4440  176.8340  145.8720 C   0  0  0  0  0  0  0  0  0  0  0  0
  192.2360  174.5450  142.8250 C   0  0  1  0  0  3  0  0  0  0  0  0
  188.4980  172.6160  141.6880 C   0  0  0  0  0  2  0  0  0  0  0  0
  191.6700  177.2510  148.3680 C   0  0  0  0  0  3  0  0  0  0  0  0
  189.7020  177.3100  146.9570 C   0  0  0  0  0  3  0  0  0  0  0  0
  186.5060  178.7400  144.3220 C   0  0  1  0  0  3  0  0  0  0  0  0
  186.3260  179.8790  143.5340 O   0  0  0  0  0  1  0  0  0  0  0  0
  185.1600  178.0880  144.6650 C   0  0  1  0  0  3  0  0  0  0  0  0
  186.7410  176.4200  145.4060 O   0  0  0  0  0  0  0  0  0  0  0  0
  185.3740  176.6600  145.1780 C   0  0  0  0  0  2  0  0  0  0  0  0
  187.4640  177.7410  143.6410 C   0  0  2  0  0  3  0  0  0  0  0  0
  187.2400  177.7230  142.2610 O   0  0  0  0  0  1  0  0  0  0  0  0
  187.3190  176.3640  144.1700 N   0  0  1  0  0  0  0  0  0  0  0  0
  184.4330  178.8910  145.7340 C   0  0  0  0  0  2  0  0  0  0  0  0
  185.9060  179.2390  147.7180 C   0  0  0  0  0  1  0  0  0  0  0  0
  184.7820  178.4050  147.1320 C   0  0  0  0  0  2  0  0  0  0  0  0
  1  3  1  6  0  0  0
  1 15  1  0  0  0  0
  2  5  1  0  0  0  0
  2  7  1  0  0  0  0
  4  1  1  0  0  0  0
  4  2  1  0  0  0  0
  5 10  1  0  0  0  0
  5 12  1  0  0  0  0
  6 20  1  0  0  0  0
  7 17  1  0  0  0  0
  8 20  2  0  0  0  0
  9  8  1  0  0  0  0
 10 16  1  0  0  0  0
 11 13  1  0  0  0  0
 11 14  1  0  0  0  0
 12  9  1  0  0  0  0
 13  4  1  0  0  0  0
 13 18  1  0  0  0  0
 15  7  1  0  0  0  0
 17  9  2  0  0  0  0
 17 21  1  0  0  0  0
 18  5  1  0  0  0  0
 18 10  1  0  0  0  0
 19 14  1  0  0  0  0
 19  3  1  0  0  0  0
 21  6  2  0  0  0  0
 22 24  1  0  0  0  0
 23 22  1  0  0  0  0
 24 26  1  0  0  0  0
 24 30  1  0  0  0  0
 26 25  1  0  0  0  0
 27 29  1  0  0  0  0
 27 22  1  0  0  0  0
 28 27  1  0  0  0  0
 29 15  1  0  0  0  0
 29 25  1  0  0  0  0
 30 32  1  0  0  0  0
 32 31  1  0  0  0  0
M  END
>  <MODEL>
2

>  <REMARK>
 VINA RESULT:      -7.5      2.552      7.252
  Name = 
  3 active torsions:
  status: ('A' for Active; 'I' for Inactive)
    1  A    between atoms: C_15  and  C_19
    2  A    between atoms: C_19  and  C_26
    3  A    between atoms: C_24  and  N_27
                            x       y       z     vdW  Elec       q    Type
                         _______ _______ _______ _____ _____    ______ ____

>  <TORSDO>
F 3

$$$$
=
 OpenBabel11052419063D

 32 38  0  0  1  0  0  0  0  0999 V2000
  193.2590  175.5140  143.8620 C   0  0  1  0  0  3  0  0  0  0  0  0
  192.4210  173.4200  143.1390 C   0  0  2  0  0  3  0  0  0  0  0  0
  194.1400  176.4070  145.1820 S   0  0  0  0  0  0  0  0  0  0  0  0
  193.5570  174.0110  143.9190 C   0  0  1  0  0  3  0  0  0  0  0  0
  192.9390  173.3890  141.7190 C   0  0  2  0  0  0  0  0  0  0  0  0
  188.2390  174.8460  140.8960 C   0  0  0  0  0  3  0  0  0  0  0  0
  191.2130  174.3380  143.2410 C   0  0  1  0  0  3  0  0  0  0  0  0
  189.8670  173.4840  139.7280 C   0  0  0  0  0  3  0  0  0  0  0  0
  190.7390  173.5830  140.8160 C   0  0  0  0  0  0  0  0  0  0  0  0
  193.7340  174.5870  141.1700 C   0  0  2  0  0  3  0  0  0  0  0  0
  196.0000  174.3780  143.4120 C   0  0  0  0  0  2  0  0  0  0  0  0
  192.0040  172.9760  140.7420 O   0  0  0  0  0  0  0  0  0  0  0  0
  194.7730  173.6010  143.1680 N   0  0  2  0  0  0  0  0  0  0  0  0
  195.8950  175.8440  142.9990 C   0  0  0  0  0  2  0  0  0  0  0  0
  191.7320  175.7160  143.6990 C   0  0  1  0  0  3  0  0  0  0  0  0
  193.8330  174.5460  139.7770 O   0  0  0  0  0  1  0  0  0  0  0  0
  190.3490  174.3190  141.9780 C   0  0  0  0  0  0  0  0  0  0  0  0
  194.4450  173.3720  141.7420 C   0  0  1  0  0  3  0  0  0  0  0  0
  195.6580  176.7560  144.2040 C   0  0  0  0  0  2  0  0  0  0  0  0
  188.6220  174.1160  139.7680 C   0  0  0  0  0  3  0  0  0  0  0  0
  189.0950  174.9400  141.9960 C   0  0  0  0  0  3  0  0  0  0  0  0
  189.1580  175.3670  146.3260 C   0  0  1  0  0  3  0  0  0  0  0  0
  188.8510  174.4950  147.3740 O   0  0  0  0  0  1  0  0  0  0  0  0
  189.0830  176.8290  146.7850 C   0  0  1  0  0  3  0  0  0  0  0  0
  190.1050  177.0270  144.6060 O   0  0  0  0  0  0  0  0  0  0  0  0
  189.7860  177.7420  145.7740 C   0  0  0  0  0  2  0  0  0  0  0  0
  190.5330  175.0330  145.7130 C   0  0  2  0  0  3  0  0  0  0  0  0
  191.4290  174.6550  146.7170 O   0  0  0  0  0  1  0  0  0  0  0  0
  191.1100  176.1710  144.9570 N   0  0  1  0  0  0  0  0  0  0  0  0
  187.6330  177.2730  146.9240 C   0  0  0  0  0  2  0  0  0  0  0  0
  185.3190  176.8130  146.1110 C   0  0  0  0  0  1  0  0  0  0  0  0
  186.7920  176.8130  145.7440 C   0  0  0  0  0  2  0  0  0  0  0  0
  1  4  1  0  0  0  0
  1  3  1  1  0  0  0
  2  7  1  0  0  0  0
  2  4  1  0  0  0  0
  5 18  1  0  0  0  0
  5  2  1  0  0  0  0
  6 21  1  0  0  0  0
  7 15  1  0  0  0  0
  8 20  1  0  0  0  0
  8  9  2  0  0  0  0
  9 17  1  0  0  0  0
 10  5  1  0  0  0  0
 10 18  1  0  0  0  0
 12  9  1  0  0  0  0
 12  5  1  0  0  0  0
 13 11  1  0  0  0  0
 13  4  1  0  0  0  0
 14 11  1  0  0  0  0
 14 19  1  0  0  0  0
 15  1  1  0  0  0  0
 15 29  1  0  0  0  0
 16 10  1  0  0  0  0
 17 21  2  0  0  0  0
 17  7  1  0  0  0  0
 18 13  1  0  0  0  0
 19  3  1  0  0  0  0
 20  6  2  0  0  0  0
 22 24  1  0  0  0  0
 22 23  1  0  0  0  0
 24 30  1  0  0  0  0
 25 29  1  0  0  0  0
 25 26  1  0  0  0  0
 26 24  1  0  0  0  0
 27 22  1  0  0  0  0
 27 28  1  0  0  0  0
 29 27  1  0  0  0  0
 32 31  1  0  0  0  0
 32 30  1  0  0  0  0
M  END
>  <MODEL>
3

>  <REMARK>
 VINA RESULT:      -7.0      3.080      6.967
  Name = 
  3 active torsions:
  status: ('A' for Active; 'I' for Inactive)
    1  A    between atoms: C_15  and  C_19
    2  A    between atoms: C_19  and  C_26
    3  A    between atoms: C_24  and  N_27
                            x       y       z     vdW  Elec       q    Type
                         _______ _______ _______ _____ _____    ______ ____

>  <TORSDO>
F 3

$$$$
=
 OpenBabel11052419063D

 32 38  0  0  1  0  0  0  0  0999 V2000
  193.2570  175.4140  144.8210 C   0  0  1  0  0  3  0  0  0  0  0  0
  192.8870  173.0790  144.6750 C   0  0  2  0  0  3  0  0  0  0  0  0
  193.7760  176.7910  145.8940 S   0  0  0  0  0  0  0  0  0  0  0  0
  193.7840  174.0740  145.3480 C   0  0  1  0  0  3  0  0  0  0  0  0
  193.6070  172.7640  143.3830 C   0  0  2  0  0  0  0  0  0  0  0  0
  188.9060  172.9760  141.7270 C   0  0  0  0  0  3  0  0  0  0  0  0
  191.5440  173.7310  144.3870 C   0  0  1  0  0  3  0  0  0  0  0  0
  190.8880  171.6990  141.1740 C   0  0  0  0  0  3  0  0  0  0  0  0
  191.5620  172.2620  142.2600 C   0  0  0  0  0  0  0  0  0  0  0  0
  194.2690  173.8990  142.5820 C   0  0  2  0  0  3  0  0  0  0  0  0
  196.1820  174.7670  144.9880 C   0  0  0  0  0  2  0  0  0  0  0  0
  192.9060  171.9230  142.4890 O   0  0  0  0  0  0  0  0  0  0  0  0
  195.1480  173.7250  144.8700 N   0  0  2  0  0  0  0  0  0  0  0  0
  195.9020  176.0120  144.1510 C   0  0  0  0  0  2  0  0  0  0  0  0
  191.7590  175.2560  144.4620 C   0  0  1  0  0  3  0  0  0  0  0  0
  194.5770  173.5000  141.2790 O   0  0  0  0  0  1  0  0  0  0  0  0
  190.8900  173.1960  143.1100 C   0  0  0  0  0  0  0  0  0  0  0  0
  195.0760  173.0540  143.5520 C   0  0  1  0  0  3  0  0  0  0  0  0
  195.3440  177.1530  145.0040 C   0  0  0  0  0  2  0  0  0  0  0  0
  189.5650  172.0570  140.9070 C   0  0  0  0  0  3  0  0  0  0  0  0
  189.5640  173.5360  142.8260 C   0  0  0  0  0  3  0  0  0  0  0  0
  188.8960  175.1460  146.7950 C   0  0  1  0  0  3  0  0  0  0  0  0
  188.5660  174.5420  148.0110 O   0  0  0  0  0  1  0  0  0  0  0  0
  188.5350  176.6370  146.8050 C   0  0  1  0  0  3  0  0  0  0  0  0
  189.8360  176.4360  144.7800 O   0  0  0  0  0  0  0  0  0  0  0  0
  189.2410  177.3630  145.6540 C   0  0  0  0  0  2  0  0  0  0  0  0
  190.3820  174.9220  146.4510 C   0  0  2  0  0  3  0  0  0  0  0  0
  191.1610  174.9950  147.6090 O   0  0  0  0  0  1  0  0  0  0  0  0
  190.8920  175.9050  145.4650 N   0  0  1  0  0  0  0  0  0  0  0  0
  187.0320  176.8270  146.6580 C   0  0  0  0  0  2  0  0  0  0  0  0
  185.4810  178.7070  146.1250 C   0  0  0  0  0  1  0  0  0  0  0  0
  186.7020  177.9310  145.6660 C   0  0  0  0  0  2  0  0  0  0  0  0
  1  4  1  0  0  0  0
  1  3  1  1  0  0  0
  2  4  1  0  0  0  0
  5 18  1  0  0  0  0
  5  2  1  0  0  0  0
  6 21  1  0  0  0  0
  7 15  1  0  0  0  0
  7  2  1  0  0  0  0
  8  9  2  0  0  0  0
  9 12  1  0  0  0  0
  9 17  1  0  0  0  0
 10  5  1  0  0  0  0
 10 18  1  0  0  0  0
 12  5  1  0  0  0  0
 13 11  1  0  0  0  0
 13  4  1  0  0  0  0
 14 11  1  0  0  0  0
 14 19  1  0  0  0  0
 15  1  1  0  0  0  0
 15 29  1  0  0  0  0
 16 10  1  0  0  0  0
 17  7  1  0  0  0  0
 18 13  1  0  0  0  0
 19  3  1  0  0  0  0
 20  8  1  0  0  0  0
 20  6  2  0  0  0  0
 21 17  2  0  0  0  0
 22 24  1  0  0  0  0
 22 23  1  0  0  0  0
 25 29  1  0  0  0  0
 25 26  1  0  0  0  0
 26 24  1  0  0  0  0
 27 22  1  0  0  0  0
 27 28  1  0  0  0  0
 29 27  1  0  0  0  0
 30 24  1  0  0  0  0
 32 31  1  0  0  0  0
 32 30  1  0  0  0  0
M  END
>  <MODEL>
4

>  <REMARK>
 VINA RESULT:      -6.9      3.335      7.450
  Name = 
  3 active torsions:
  status: ('A' for Active; 'I' for Inactive)
    1  A    between atoms: C_15  and  C_19
    2  A    between atoms: C_19  and  C_26
    3  A    between atoms: C_24  and  N_27
                            x       y       z     vdW  Elec       q    Type
                         _______ _______ _______ _____ _____    ______ ____

>  <TORSDO>
F 3

$$$$
=
 OpenBabel11052419063D

 32 38  0  0  1  0  0  0  0  0999 V2000
  187.3450  177.0580  142.6690 C   0  0  1  0  0  3  0  0  0  0  0  0
  186.2550  176.5470  144.7090 C   0  0  2  0  0  3  0  0  0  0  0  0
  187.6510  176.5280  140.9530 S   0  0  0  0  0  0  0  0  0  0  0  0
  186.0710  176.4120  143.2280 C   0  0  1  0  0  3  0  0  0  0  0  0
  185.6230  177.8840  145.0280 C   0  0  2  0  0  0  0  0  0  0  0  0
  189.6500  178.1080  147.9640 C   0  0  0  0  0  3  0  0  0  0  0  0
  187.7410  176.5760  145.0290 C   0  0  1  0  0  3  0  0  0  0  0  0
  187.3650  178.9030  148.0830 C   0  0  0  0  0  3  0  0  0  0  0  0
  187.0590  178.2180  146.9040 C   0  0  0  0  0  0  0  0  0  0  0  0
  185.8570  179.0820  144.0900 C   0  0  2  0  0  3  0  0  0  0  0  0
  184.6160  177.6010  141.5460 C   0  0  0  0  0  2  0  0  0  0  0  0
  185.7650  178.3180  146.3660 O   0  0  0  0  0  0  0  0  0  0  0  0
  184.8260  177.1710  142.9390 N   0  0  2  0  0  0  0  0  0  0  0  0
  185.6680  178.5850  141.0390 C   0  0  0  0  0  2  0  0  0  0  0  0
  188.4770  176.9200  143.7180 C   0  0  1  0  0  3  0  0  0  0  0  0
  185.5020  180.2890  144.6970 O   0  0  0  0  0  1  0  0  0  0  0  0
  188.0670  177.4500  146.2430 C   0  0  0  0  0  0  0  0  0  0  0  0
  184.6120  178.2190  143.9620 C   0  0  1  0  0  3  0  0  0  0  0  0
  186.7100  177.8930  140.1570 C   0  0  0  0  0  2  0  0  0  0  0  0
  188.6570  178.8490  148.6100 C   0  0  0  0  0  3  0  0  0  0  0  0
  189.3530  177.4070  146.7920 C   0  0  0  0  0  3  0  0  0  0  0  0
  190.4220  173.8730  144.4820 C   0  0  1  0  0  3  0  0  0  0  0  0
  190.1900  172.5070  144.6630 O   0  0  0  0  0  1  0  0  0  0  0  0
  191.6180  174.1110  143.5500 C   0  0  1  0  0  3  0  0  0  0  0  0
  190.6750  176.3250  143.7520 O   0  0  0  0  0  0  0  0  0  0  0  0
  191.6240  175.5590  143.0500 C   0  0  0  0  0  2  0  0  0  0  0  0
  189.1540  174.5880  143.9740 C   0  0  2  0  0  3  0  0  0  0  0  0
  188.4730  173.7730  143.0650 O   0  0  0  0  0  1  0  0  0  0  0  0
  189.4550  175.8860  143.3250 N   0  0  1  0  0  0  0  0  0  0  0  0
  192.9270  173.8360  144.2770 C   0  0  0  0  0  2  0  0  0  0  0  0
  193.7310  175.4380  146.0120 C   0  0  0  0  0  1  0  0  0  0  0  0
  192.8480  174.2340  145.7420 C   0  0  0  0  0  2  0  0  0  0  0  0
  1  3  1  6  0  0  0
  1  4  1  0  0  0  0
  1 15  1  0  0  0  0
  2  5  1  0  0  0  0
  2  7  1  0  0  0  0
  4  2  1  0  0  0  0
  5 12  1  0  0  0  0
  6 20  1  0  0  0  0
  7 17  1  0  0  0  0
  8 20  2  0  0  0  0
  9  8  1  0  0  0  0
 10 16  1  0  0  0  0
 10  5  1  0  0  0  0
 11 13  1  0  0  0  0
 12  9  1  0  0  0  0
 13  4  1  0  0  0  0
 13 18  1  0  0  0  0
 14 11  1  0  0  0  0
 15  7  1  0  0  0  0
 17 21  1  0  0  0  0
 17  9  2  0  0  0  0
 18 10  1  0  0  0  0
 18  5  1  0  0  0  0
 19  3  1  0  0  0  0
 19 14  1  0  0  0  0
 21  6  2  0  0  0  0
 22 23  1  0  0  0  0
 24 30  1  0  0  0  0
 24 22  1  0  0  0  0
 26 24  1  0  0  0  0
 26 25  1  0  0  0  0
 27 22  1  0  0  0  0
 28 27  1  0  0  0  0
 29 15  1  0  0  0  0
 29 25  1  0  0  0  0
 29 27  1  0  0  0  0
 30 32  1  0  0  0  0
 32 31  1  0  0  0  0
M  END
>  <MODEL>
5

>  <REMARK>
 VINA RESULT:      -6.8      2.354      4.709
  Name = 
  3 active torsions:
  status: ('A' for Active; 'I' for Inactive)
    1  A    between atoms: C_15  and  C_19
    2  A    between atoms: C_19  and  C_26
    3  A    between atoms: C_24  and  N_27
                            x       y       z     vdW  Elec       q    Type
                         _______ _______ _______ _____ _____    ______ ____

>  <TORSDO>
F 3

$$$$
=
 OpenBabel11052419063D

 32 38  0  0  1  0  0  0  0  0999 V2000
  191.8300  175.0780  143.9810 C   0  0  1  0  0  3  0  0  0  0  0  0
  190.6900  173.0070  143.8390 C   0  0  2  0  0  3  0  0  0  0  0  0
  192.3980  176.4110  145.0850 S   0  0  0  0  0  0  0  0  0  0  0  0
  191.5830  173.7820  144.7610 C   0  0  1  0  0  3  0  0  0  0  0  0
  191.6570  172.2160  142.9850 C   0  0  2  0  0  0  0  0  0  0  0  0
  188.3360  173.5630  139.5150 C   0  0  0  0  0  3  0  0  0  0  0  0
  189.8960  173.9770  142.9780 C   0  0  1  0  0  3  0  0  0  0  0  0
  189.7470  171.6350  139.9160 C   0  0  0  0  0  3  0  0  0  0  0  0
  190.1360  172.1680  141.1470 C   0  0  0  0  0  0  0  0  0  0  0  0
  192.9400  172.8880  142.4630 C   0  0  2  0  0  3  0  0  0  0  0  0
  194.0170  173.5840  145.3890 C   0  0  0  0  0  2  0  0  0  0  0  0
  191.0700  171.4750  141.9350 O   0  0  0  0  0  0  0  0  0  0  0  0
  192.7880  172.9250  144.9160 N   0  0  2  0  0  0  0  0  0  0  0  0
  194.5520  174.6500  144.4350 C   0  0  0  0  0  2  0  0  0  0  0  0
  190.6250  175.3340  143.0420 C   0  0  1  0  0  3  0  0  0  0  0  0
  193.5270  172.1480  141.4350 O   0  0  0  0  0  1  0  0  0  0  0  0
  189.6050  173.4230  141.5810 C   0  0  0  0  0  0  0  0  0  0  0  0
  192.9550  172.0520  143.7320 C   0  0  1  0  0  3  0  0  0  0  0  0
  194.1940  176.0610  144.9070 C   0  0  0  0  0  2  0  0  0  0  0  0
  188.8510  172.3310  139.1020 C   0  0  0  0  0  3  0  0  0  0  0  0
  188.7060  174.1000  140.7500 C   0  0  0  0  0  3  0  0  0  0  0  0
  187.3100  176.5970  144.0750 C   0  0  1  0  0  3  0  0  0  0  0  0
  186.4060  176.4140  145.1250 O   0  0  0  0  0  1  0  0  0  0  0  0
  187.5180  178.0890  143.7800 C   0  0  1  0  0  3  0  0  0  0  0  0
  189.2530  177.0570  142.4560 O   0  0  0  0  0  0  0  0  0  0  0  0
  188.7710  178.2930  142.9220 C   0  0  0  0  0  2  0  0  0  0  0  0
  188.6460  175.8830  144.3620 C   0  0  2  0  0  3  0  0  0  0  0  0
  188.9710  175.9970  145.7160 O   0  0  0  0  0  1  0  0  0  0  0  0
  189.7640  176.4200  143.5510 N   0  0  1  0  0  0  0  0  0  0  0  0
  186.3170  178.6620  143.0400 C   0  0  0  0  0  2  0  0  0  0  0  0
  184.2810  179.0790  144.4220 C   0  0  0  0  0  1  0  0  0  0  0  0
  185.5700  179.6780  143.8890 C   0  0  0  0  0  2  0  0  0  0  0  0
  1  4  1  0  0  0  0
  1  3  1  1  0  0  0
  2  4  1  0  0  0  0
  4 13  1  0  0  0  0
  5 18  1  0  0  0  0
  5  2  1  0  0  0  0
  6 21  1  0  0  0  0
  7 15  1  0  0  0  0
  7  2  1  0  0  0  0
  8  9  2  0  0  0  0
  9 17  1  0  0  0  0
  9 12  1  0  0  0  0
 10  5  1  0  0  0  0
 10 18  1  0  0  0  0
 12  5  1  0  0  0  0
 13 11  1  0  0  0  0
 14 19  1  0  0  0  0
 14 11  1  0  0  0  0
 15 29  1  0  0  0  0
 15  1  1  0  0  0  0
 16 10  1  0  0  0  0
 17  7  1  0  0  0  0
 18 13  1  0  0  0  0
 19  3  1  0  0  0  0
 20  6  2  0  0  0  0
 20  8  1  0  0  0  0
 21 17  2  0  0  0  0
 22 27  1  0  0  0  0
 22 23  1  0  0  0  0
 24 22  1  0  0  0  0
 25 26  1  0  0  0  0
 25 29  1  0  0  0  0
 26 24  1  0  0  0  0
 27 28  1  0  0  0  0
 29 27  1  0  0  0  0
 30 24  1  0  0  0  0
 30 32  1  0  0  0  0
 32 31  1  0  0  0  0
M  END
>  <MODEL>
6

>  <REMARK>
 VINA RESULT:      -6.7      2.391      6.945
  Name = 
  3 active torsions:
  status: ('A' for Active; 'I' for Inactive)
    1  A    between atoms: C_15  and  C_19
    2  A    between atoms: C_19  and  C_26
    3  A    between atoms: C_24  and  N_27
                            x       y       z     vdW  Elec       q    Type
                         _______ _______ _______ _____ _____    ______ ____

>  <TORSDO>
F 3

$$$$
=
 OpenBabel11052419063D

 32 38  0  0  1  0  0  0  0  0999 V2000
  189.7950  176.2960  144.8070 C   0  0  1  0  0  3  0  0  0  0  0  0
  190.0610  176.5680  142.4700 C   0  0  2  0  0  3  0  0  0  0  0  0
  189.8760  177.1080  146.4360 S   0  0  0  0  0  0  0  0  0  0  0  0
  189.6160  177.3250  143.6850 C   0  0  1  0  0  3  0  0  0  0  0  0
  188.7910  175.9170  141.9690 C   0  0  2  0  0  0  0  0  0  0  0  0
  192.0200  172.1790  141.2640 C   0  0  0  0  0  3  0  0  0  0  0  0
  191.0710  175.5090  142.8820 C   0  0  1  0  0  3  0  0  0  0  0  0
  190.0390  173.0010  140.1380 C   0  0  0  0  0  3  0  0  0  0  0  0
  189.9980  174.1010  140.9990 C   0  0  0  0  0  0  0  0  0  0  0  0
  187.8070  175.2900  142.9730 C   0  0  2  0  0  3  0  0  0  0  0  0
  187.3570  178.0260  144.5590 C   0  0  0  0  0  2  0  0  0  0  0  0
  188.9540  175.0330  140.8770 O   0  0  0  0  0  0  0  0  0  0  0  0
  188.2000  177.6780  143.4030 N   0  0  2  0  0  0  0  0  0  0  0  0
  187.1680  176.8810  145.5520 C   0  0  0  0  0  2  0  0  0  0  0  0
  190.9120  175.3010  144.4010 C   0  0  1  0  0  3  0  0  0  0  0  0
  186.8890  174.4500  142.3390 O   0  0  0  0  0  1  0  0  0  0  0  0
  190.9980  174.2530  142.0100 C   0  0  0  0  0  0  0  0  0  0  0  0
  187.6050  176.7050  142.4580 C   0  0  1  0  0  3  0  0  0  0  0  0
  188.0700  177.0410  146.7770 C   0  0  0  0  0  2  0  0  0  0  0  0
  191.0460  172.0420  140.2730 C   0  0  0  0  0  3  0  0  0  0  0  0
  191.9990  173.2820  142.1220 C   0  0  0  0  0  3  0  0  0  0  0  0
  194.5830  175.7080  144.4860 C   0  0  1  0  0  3  0  0  0  0  0  0
  195.5380  176.6350  144.0620 O   0  0  0  0  0  1  0  0  0  0  0  0
  194.8400  175.2750  145.9350 C   0  0  1  0  0  3  0  0  0  0  0  0
  192.6590  174.3340  145.4970 O   0  0  0  0  0  0  0  0  0  0  0  0
  193.6000  174.5830  146.5130 C   0  0  0  0  0  2  0  0  0  0  0  0
  193.1550  176.2600  144.3020 C   0  0  2  0  0  3  0  0  0  0  0  0
  193.1230  177.6240  144.6040 O   0  0  0  0  0  1  0  0  0  0  0  0
  192.1600  175.5560  145.1460 N   0  0  1  0  0  0  0  0  0  0  0  0
  196.0180  174.3130  146.0070 C   0  0  0  0  0  2  0  0  0  0  0  0
  196.3860  171.8630  145.7130 C   0  0  0  0  0  1  0  0  0  0  0  0
  195.8260  173.1230  145.0800 C   0  0  0  0  0  2  0  0  0  0  0  0
  1  3  1  1  0  0  0
  2  7  1  0  0  0  0
  2  4  1  0  0  0  0
  3 19  1  0  0  0  0
  4  1  1  0  0  0  0
  5 18  1  0  0  0  0
  5  2  1  0  0  0  0
  5 10  1  0  0  0  0
  6 21  1  0  0  0  0
  7 15  1  0  0  0  0
  8 20  1  0  0  0  0
  8  9  2  0  0  0  0
  9 17  1  0  0  0  0
 11 14  1  0  0  0  0
 12  9  1  0  0  0  0
 12  5  1  0  0  0  0
 13  4  1  0  0  0  0
 13 11  1  0  0  0  0
 14 19  1  0  0  0  0
 15  1  1  0  0  0  0
 15 29  1  0  0  0  0
 16 10  1  0  0  0  0
 17 21  2  0  0  0  0
 17  7  1  0  0  0  0
 18 10  1  0  0  0  0
 18 13  1  0  0  0  0
 20  6  2  0  0  0  0
 22 24  1  0  0  0  0
 23 22  1  0  0  0  0
 24 30  1  0  0  0  0
 24 26  1  0  0  0  0
 25 26  1  0  0  0  0
 27 22  1  0  0  0  0
 27 28  1  0  0  0  0
 27 29  1  0  0  0  0
 29 25  1  0  0  0  0
 32 31  1  0  0  0  0
 32 30  1  0  0  0  0
M  END
>  <MODEL>
7

>  <REMARK>
 VINA RESULT:      -6.7      2.426      3.654
  Name = 
  3 active torsions:
  status: ('A' for Active; 'I' for Inactive)
    1  A    between atoms: C_15  and  C_19
    2  A    between atoms: C_19  and  C_26
    3  A    between atoms: C_24  and  N_27
                            x       y       z     vdW  Elec       q    Type
                         _______ _______ _______ _____ _____    ______ ____

>  <TORSDO>
F 3

$$$$
=
 OpenBabel11052419063D

 32 38  0  0  1  0  0  0  0  0999 V2000
  192.6340  174.3150  143.5220 C   0  0  1  0  0  3  0  0  0  0  0  0
  191.8990  176.4870  142.9310 C   0  0  2  0  0  3  0  0  0  0  0  0
  193.9230  173.0480  143.2950 S   0  0  0  0  0  0  0  0  0  0  0  0
  193.1600  175.7090  143.1620 C   0  0  1  0  0  3  0  0  0  0  0  0
  191.5710  177.0500  144.2960 C   0  0  2  0  0  0  0  0  0  0  0  0
  186.9990  175.7700  142.7620 C   0  0  0  0  0  3  0  0  0  0  0  0
  190.8030  175.5390  142.4720 C   0  0  1  0  0  3  0  0  0  0  0  0
  187.9450  177.5340  144.1270 C   0  0  0  0  0  3  0  0  0  0  0  0
  189.2340  177.0920  143.8160 C   0  0  0  0  0  0  0  0  0  0  0  0
  191.7360  176.1670  145.5450 C   0  0  2  0  0  3  0  0  0  0  0  0
  194.8480  175.6610  145.0340 C   0  0  0  0  0  2  0  0  0  0  0  0
  190.3410  177.7420  144.3860 O   0  0  0  0  0  0  0  0  0  0  0  0
  193.8300  176.4160  144.2840 N   0  0  2  0  0  0  0  0  0  0  0  0
  194.2970  174.4380  145.7630 C   0  0  0  0  0  2  0  0  0  0  0  0
  191.2500  174.1140  142.8570 C   0  0  1  0  0  3  0  0  0  0  0  0
  191.0770  176.7090  146.6510 O   0  0  0  0  0  1  0  0  0  0  0  0
  189.4130  175.9700  142.9480 C   0  0  0  0  0  0  0  0  0  0  0  0
  192.8320  177.1270  145.1150 C   0  0  1  0  0  3  0  0  0  0  0  0
  194.5960  173.1440  145.0030 C   0  0  0  0  0  2  0  0  0  0  0  0
  186.8320  176.8730  143.6030 C   0  0  0  0  0  3  0  0  0  0  0  0
  188.2830  175.3270  142.4320 C   0  0  0  0  0  3  0  0  0  0  0  0
  190.5240  173.3470  139.3170 C   0  0  1  0  0  3  0  0  0  0  0  0
  190.9320  173.7800  138.0530 O   0  0  0  0  0  1  0  0  0  0  0  0
  190.5160  171.8150  139.3990 C   0  0  1  0  0  3  0  0  0  0  0  0
  190.1960  172.4550  141.7060 O   0  0  0  0  0  0  0  0  0  0  0  0
  190.4550  171.3600  140.8610 C   0  0  0  0  0  2  0  0  0  0  0  0
  191.3960  173.9720  140.4240 C   0  0  2  0  0  3  0  0  0  0  0  0
  192.7270  174.0470  140.0040 O   0  0  0  0  0  1  0  0  0  0  0  0
  191.3350  173.2090  141.6940 N   0  0  1  0  0  0  0  0  0  0  0  0
  189.3160  171.2440  138.6560 C   0  0  0  0  0  2  0  0  0  0  0  0
  189.9880  170.7910  136.2960 C   0  0  0  0  0  1  0  0  0  0  0  0
  189.7330  170.1740  137.6590 C   0  0  0  0  0  2  0  0  0  0  0  0
  1  3  1  6  0  0  0
  2  4  1  0  0  0  0
  2  5  1  0  0  0  0
  3 19  1  0  0  0  0
  4  1  1  0  0  0  0
  4 13  1  0  0  0  0
  5 12  1  0  0  0  0
  5 18  1  0  0  0  0
  5 10  1  0  0  0  0
  6 20  1  0  0  0  0
  7 15  1  0  0  0  0
  7  2  1  0  0  0  0
  7 17  1  0  0  0  0
  9  8  1  0  0  0  0
  9 12  1  0  0  0  0
 10 16  1  0  0  0  0
 11 14  1  0  0  0  0
 13 11  1  0  0  0  0
 13 18  1  0  0  0  0
 15  1  1  0  0  0  0
 17  9  2  0  0  0  0
 18 10  1  0  0  0  0
 19 14  1  0  0  0  0
 20  8  2  0  0  0  0
 21  6  2  0  0  0  0
 21 17  1  0  0  0  0
 22 24  1  0  0  0  0
 22 27  1  0  0  0  0
 23 22  1  0  0  0  0
 24 26  1  0  0  0  0
 26 25  1  0  0  0  0
 27 29  1  0  0  0  0
 28 27  1  0  0  0  0
 29 25  1  0  0  0  0
 29 15  1  0  0  0  0
 30 24  1  0  0  0  0
 31 32  1  0  0  0  0
 32 30  1  0  0  0  0
M  END
>  <MODEL>
8

>  <REMARK>
 VINA RESULT:      -6.7      3.420      6.372
  Name = 
  3 active torsions:
  status: ('A' for Active; 'I' for Inactive)
    1  A    between atoms: C_15  and  C_19
    2  A    between atoms: C_19  and  C_26
    3  A    between atoms: C_24  and  N_27
                            x       y       z     vdW  Elec       q    Type
                         _______ _______ _______ _____ _____    ______ ____

>  <TORSDO>
F 3

$$$$
=
 OpenBabel11052419063D

 32 38  0  0  1  0  0  0  0  0999 V2000
  189.3620  175.6490  143.7240 C   0  0  1  0  0  3  0  0  0  0  0  0
  189.3570  177.4600  145.2500 C   0  0  2  0  0  3  0  0  0  0  0  0
  190.2050  174.8790  142.3040 S   0  0  0  0  0  0  0  0  0  0  0  0
  190.3060  176.5870  144.4840 C   0  0  1  0  0  3  0  0  0  0  0  0
  189.1670  176.7210  146.5560 C   0  0  2  0  0  0  0  0  0  0  0  0
  184.4850  178.2310  145.7220 C   0  0  0  0  0  3  0  0  0  0  0  0
  188.0400  177.5490  144.4960 C   0  0  1  0  0  3  0  0  0  0  0  0
  185.8770  177.8770  147.6740 C   0  0  0  0  0  3  0  0  0  0  0  0
  186.9770  177.6220  146.8510 C   0  0  0  0  0  0  0  0  0  0  0  0
  189.0040  175.1910  146.5510 C   0  0  2  0  0  3  0  0  0  0  0  0
  191.8250  174.6850  145.1410 C   0  0  0  0  0  2  0  0  0  0  0  0
  188.2080  177.2790  147.4330 O   0  0  0  0  0  0  0  0  0  0  0  0
  191.1190  175.9160  145.5320 N   0  0  2  0  0  0  0  0  0  0  0  0
  190.8960  173.5440  144.7340 C   0  0  0  0  0  2  0  0  0  0  0  0
  188.0100  176.3710  143.5020 C   0  0  1  0  0  3  0  0  0  0  0  0
  188.5020  174.7210  147.7670 O   0  0  0  0  0  1  0  0  0  0  0  0
  186.8340  177.6850  145.4290 C   0  0  0  0  0  0  0  0  0  0  0  0
  190.3580  175.8320  146.8000 C   0  0  1  0  0  3  0  0  0  0  0  0
  190.8090  173.3990  143.2130 C   0  0  0  0  0  2  0  0  0  0  0  0
  184.6350  178.1780  147.1100 C   0  0  0  0  0  3  0  0  0  0  0  0
  185.5810  177.9930  144.8880 C   0  0  0  0  0  3  0  0  0  0  0  0
  185.9050  177.6180  140.7330 C   0  0  1  0  0  3  0  0  0  0  0  0
  185.2370  178.7930  140.3810 O   0  0  0  0  0  1  0  0  0  0  0  0
  186.7120  177.0660  139.5500 C   0  0  1  0  0  3  0  0  0  0  0  0
  187.4950  175.7050  141.3850 O   0  0  0  0  0  0  0  0  0  0  0  0
  187.7310  176.0290  140.0370 C   0  0  0  0  0  2  0  0  0  0  0  0
  186.7940  177.8360  141.9750 C   0  0  2  0  0  3  0  0  0  0  0  0
  187.3870  179.1010  141.9250 O   0  0  0  0  0  1  0  0  0  0  0  0
  187.8560  176.8100  142.1010 N   0  0  1  0  0  0  0  0  0  0  0  0
  185.7910  176.4100  138.5320 C   0  0  0  0  0  2  0  0  0  0  0  0
  185.5290  176.0050  136.0830 C   0  0  0  0  0  1  0  0  0  0  0  0
  186.5170  176.1110  137.2300 C   0  0  0  0  0  2  0  0  0  0  0  0
  1  3  1  6  0  0  0
  1  4  1  0  0  0  0
  2  5  1  0  0  0  0
  3 19  1  0  0  0  0
  4  2  1  0  0  0  0
  4 13  1  0  0  0  0
  5 18  1  0  0  0  0
  5 12  1  0  0  0  0
  6 20  1  0  0  0  0
  7  2  1  0  0  0  0
  7 17  1  0  0  0  0
  9 12  1  0  0  0  0
  9  8  1  0  0  0  0
 10  5  1  0  0  0  0
 10 18  1  0  0  0  0
 10 16  1  0  0  0  0
 11 13  1  0  0  0  0
 13 18  1  0  0  0  0
 14 11  1  0  0  0  0
 15  1  1  0  0  0  0
 15  7  1  0  0  0  0
 17  9  2  0  0  0  0
 19 14  1  0  0  0  0
 20  8  2  0  0  0  0
 21 17  1  0  0  0  0
 21  6  2  0  0  0  0
 22 27  1  0  0  0  0
 23 22  1  0  0  0  0
 24 26  1  0  0  0  0
 24 22  1  0  0  0  0
 25 29  1  0  0  0  0
 26 25  1  0  0  0  0
 27 29  1  0  0  0  0
 28 27  1  0  0  0  0
 29 15  1  0  0  0  0
 30 24  1  0  0  0  0
 31 32  1  0  0  0  0
 32 30  1  0  0  0  0
M  END
>  <MODEL>
9

>  <REMARK>
 VINA RESULT:      -6.6      2.228      6.759
  Name = 
  3 active torsions:
  status: ('A' for Active; 'I' for Inactive)
    1  A    between atoms: C_15  and  C_19
    2  A    between atoms: C_19  and  C_26
    3  A    between atoms: C_24  and  N_27
                            x       y       z     vdW  Elec       q    Type
                         _______ _______ _______ _____ _____    ______ ____

>  <TORSDO>
F 3

$$$$
