=
 OpenBabel11052419053D

 32 35  0  0  1  0  0  0  0  0999 V2000
  189.2750  174.7560  144.3310 C   0  0  1  0  0  3  0  0  0  0  0  0
  187.6740  176.6610  143.7010 C   0  0  0  0  0  0  0  0  0  0  0  0
  189.5160  173.7960  145.5080 C   0  0  0  0  0  2  0  0  0  0  0  0
  188.6090  176.0890  144.7500 C   0  0  1  0  0  3  0  0  0  0  0  0
  186.7020  177.6050  144.0910 C   0  0  0  0  0  0  0  0  0  0  0  0
  187.0290  176.9690  141.3730 C   0  0  0  0  0  0  0  0  0  0  0  0
  186.0370  177.8960  141.7620 C   0  0  0  0  0  0  0  0  0  0  0  0
  187.8750  175.9500  146.0980 C   0  0  2  0  0  3  0  0  0  0  0  0
  185.8960  178.2100  143.1180 C   0  0  0  0  0  3  0  0  0  0  0  0
  187.1360  177.2040  146.4630 C   0  0  0  0  0  3  0  0  0  0  0  0
  188.8230  175.5330  147.2250 C   0  0  0  0  0  2  0  0  0  0  0  0
  187.8370  176.3690  142.3410 C   0  0  0  0  0  3  0  0  0  0  0  0
  186.5460  177.9530  145.5260 C   0  0  0  0  0  0  0  0  0  0  0  0
  189.9180  174.5580  146.7690 C   0  0  0  0  0  2  0  0  0  0  0  0
  187.2460  176.6470  140.0390 O   0  0  0  0  0  1  0  0  0  0  0  0
  184.3960  178.7160  146.4690 C   0  0  0  0  0  1  0  0  0  0  0  0
  185.7550  179.1460  145.9520 C   0  0  0  0  0  2  0  0  0  0  0  0
  190.6580  174.7330  142.4100 O   0  0  0  0  0  0  0  0  0  0  0  0
  190.5590  175.0130  143.5960 C   0  0  0  0  0  0  0  0  0  0  0  0
  194.8050  175.9140  143.1620 S   0  0  0  0  0  0  0  0  0  0  0  0
  193.2230  176.6120  142.5450 C   0  0  0  0  0  2  0  0  0  0  0  0
  194.1850  175.1730  144.7230 C   0  0  1  0  0  3  0  0  0  0  0  0
  191.7210  175.6190  144.3340 C   0  0  1  0  0  3  0  0  0  0  0  0
  192.8060  174.5540  144.5350 C   0  0  0  0  0  2  0  0  0  0  0  0
  192.2600  176.9110  143.6850 C   0  0  2  0  0  3  0  0  0  0  0  0
  191.1650  177.8660  143.2390 C   0  0  0  0  0  1  0  0  0  0  0  0
  194.6870  172.8900  145.5830 O   0  0  0  0  0  1  0  0  0  0  0  0
  196.3740  174.4190  145.3340 O   0  0  0  0  0  0  0  0  0  0  0  0
  195.1480  174.1510  145.2290 C   0  0  0  0  0  0  0  0  0  0  0  0
  185.1800  178.5430  140.8580 O   0  0  0  0  0  0  0  0  0  0  0  0
  184.0060  177.9680  140.2960 C   0  0  0  0  0  2  0  0  0  0  0  0
  182.8220  178.1980  141.2160 C   0  0  0  0  0  1  0  0  0  0  0  0
  1 19  1  1  0  0  0
  1  4  1  0  0  0  0
  1  3  1  0  0  0  0
  2  5  1  0  0  0  0
  3 14  1  0  0  0  0
  4  2  1  6  0  0  0
  4  8  1  0  0  0  0
  5 13  1  0  0  0  0
  6  7  2  0  0  0  0
  6 12  1  0  0  0  0
  7  9  1  0  0  0  0
  8 10  1  1  0  0  0
  8 11  1  0  0  0  0
  9  5  2  0  0  0  0
 12  2  2  0  0  0  0
 13 17  1  0  0  0  0
 13 10  2  0  0  0  0
 14 11  1  0  0  0  0
 15  6  1  0  0  0  0
 17 16  1  0  0  0  0
 18 19  2  0  0  0  0
 20 22  1  0  0  0  0
 21 20  1  0  0  0  0
 21 25  1  0  0  0  0
 22 29  1  6  0  0  0
 23 19  1  6  0  0  0
 23 24  1  0  0  0  0
 24 22  1  0  0  0  0
 25 26  1  6  0  0  0
 25 23  1  0  0  0  0
 29 28  2  0  0  0  0
 29 27  1  0  0  0  0
 30  7  1  0  0  0  0
 31 30  1  0  0  0  0
 31 32  1  0  0  0  0
M  END
>  <MODEL>
1

>  <REMARK>
 VINA RESULT:      -8.0      0.000      0.000
  Name = 
  6 active torsions:
  status: ('A' for Active; 'I' for Inactive)
    1  A    between atoms: C_1  and  C_27
    2  A    between atoms: C_9  and  O_11
    3  A    between atoms: O_11  and  C_12
    4  A    between atoms: C_15  and  C_26
    5  A    between atoms: C_16  and  C_27
    6  A    between atoms: C_25  and  C_29
                            x       y       z     vdW  Elec       q    Type
                         _______ _______ _______ _____ _____    ______ ____

>  <TORSDO>
F 6

$$$$
=
 OpenBabel11052419053D

 32 35  0  0  1  0  0  0  0  0999 V2000
  188.7700  175.8620  145.5180 C   0  0  1  0  0  3  0  0  0  0  0  0
  188.2750  175.8850  142.9990 C   0  0  0  0  0  0  0  0  0  0  0  0
  188.0150  176.0680  146.8410 C   0  0  0  0  0  2  0  0  0  0  0  0
  188.1350  176.6130  144.3230 C   0  0  1  0  0  3  0  0  0  0  0  0
  187.4090  176.2190  141.9380 C   0  0  0  0  0  0  0  0  0  0  0  0
  189.4960  174.3850  141.5200 C   0  0  0  0  0  0  0  0  0  0  0  0
  188.6150  174.6980  140.4610 C   0  0  0  0  0  0  0  0  0  0  0  0
  186.6560  176.9470  144.5920 C   0  0  2  0  0  3  0  0  0  0  0  0
  187.5890  175.6220  140.6840 C   0  0  0  0  0  3  0  0  0  0  0  0
  185.9990  177.5800  143.4010 C   0  0  0  0  0  3  0  0  0  0  0  0
  186.4840  177.8260  145.8350 C   0  0  0  0  0  2  0  0  0  0  0  0
  189.3210  174.9840  142.7690 C   0  0  0  0  0  3  0  0  0  0  0  0
  186.3200  177.2050  142.1580 C   0  0  0  0  0  0  0  0  0  0  0  0
  187.4800  177.4940  146.9550 C   0  0  0  0  0  2  0  0  0  0  0  0
  190.5590  173.5070  141.3490 O   0  0  0  0  0  1  0  0  0  0  0  0
  184.1760  178.1950  141.4380 C   0  0  0  0  0  1  0  0  0  0  0  0
  185.5790  177.8090  141.0110 C   0  0  0  0  0  2  0  0  0  0  0  0
  190.6190  177.3190  145.2680 O   0  0  0  0  0  0  0  0  0  0  0  0
  190.2140  176.2390  145.6760 C   0  0  0  0  0  0  0  0  0  0  0  0
  194.4580  175.3020  146.0560 S   0  0  0  0  0  0  0  0  0  0  0  0
  193.3070  176.5720  146.7150 C   0  0  0  0  0  2  0  0  0  0  0  0
  193.2460  173.9490  145.7900 C   0  0  1  0  0  3  0  0  0  0  0  0
  191.1580  175.2760  146.3420 C   0  0  1  0  0  3  0  0  0  0  0  0
  191.9190  174.4870  145.2700 C   0  0  0  0  0  2  0  0  0  0  0  0
  192.0920  175.9390  147.3760 C   0  0  2  0  0  3  0  0  0  0  0  0
  191.3830  176.9320  148.2820 C   0  0  0  0  0  1  0  0  0  0  0  0
  194.9740  173.2110  144.1560 O   0  0  0  0  0  0  0  0  0  0  0  0
  193.2190  171.8320  144.6730 O   0  0  0  0  0  1  0  0  0  0  0  0
  193.8010  172.9350  144.8470 C   0  0  0  0  0  0  0  0  0  0  0  0
  188.7140  174.1420  139.1760 O   0  0  0  0  0  0  0  0  0  0  0  0
  188.2460  172.8500  138.8100 C   0  0  0  0  0  2  0  0  0  0  0  0
  189.4040  171.9900  138.3390 C   0  0  0  0  0  1  0  0  0  0  0  0
  1 19  1  1  0  0  0
  1  3  1  0  0  0  0
  3 14  1  0  0  0  0
  4  2  1  6  0  0  0
  4  8  1  0  0  0  0
  4  1  1  0  0  0  0
  5 13  1  0  0  0  0
  5  2  2  0  0  0  0
  6 12  2  0  0  0  0
  7  9  2  0  0  0  0
  7  6  1  0  0  0  0
  8 10  1  6  0  0  0
  8 11  1  0  0  0  0
  9  5  1  0  0  0  0
 11 14  1  0  0  0  0
 12  2  1  0  0  0  0
 13 10  2  0  0  0  0
 15  6  1  0  0  0  0
 17 16  1  0  0  0  0
 17 13  1  0  0  0  0
 18 19  2  0  0  0  0
 20 21  1  0  0  0  0
 21 25  1  0  0  0  0
 22 29  1  6  0  0  0
 22 20  1  0  0  0  0
 23 19  1  6  0  0  0
 23 25  1  0  0  0  0
 24 22  1  0  0  0  0
 24 23  1  0  0  0  0
 25 26  1  6  0  0  0
 27 29  2  0  0  0  0
 28 29  1  0  0  0  0
 30  7  1  0  0  0  0
 31 30  1  0  0  0  0
 32 31  1  0  0  0  0
M  END
>  <MODEL>
2

>  <REMARK>
 VINA RESULT:      -7.7      2.276      3.925
  Name = 
  6 active torsions:
  status: ('A' for Active; 'I' for Inactive)
    1  A    between atoms: C_1  and  C_27
    2  A    between atoms: C_9  and  O_11
    3  A    between atoms: O_11  and  C_12
    4  A    between atoms: C_15  and  C_26
    5  A    between atoms: C_16  and  C_27
    6  A    between atoms: C_25  and  C_29
                            x       y       z     vdW  Elec       q    Type
                         _______ _______ _______ _____ _____    ______ ____

>  <TORSDO>
F 6

$$$$
=
 OpenBabel11052419053D

 32 35  0  0  1  0  0  0  0  0999 V2000
  189.3560  175.0640  144.3060 C   0  0  1  0  0  3  0  0  0  0  0  0
  187.6070  176.8490  143.7170 C   0  0  0  0  0  0  0  0  0  0  0  0
  189.6690  174.0940  145.4570 C   0  0  0  0  0  2  0  0  0  0  0  0
  188.5810  176.3260  144.7570 C   0  0  1  0  0  3  0  0  0  0  0  0
  186.5590  177.6990  144.1250 C   0  0  0  0  0  0  0  0  0  0  0  0
  186.9500  177.1680  141.3940 C   0  0  0  0  0  0  0  0  0  0  0  0
  185.8840  178.0000  141.8010 C   0  0  0  0  0  0  0  0  0  0  0  0
  187.8540  176.0900  146.0940 C   0  0  2  0  0  3  0  0  0  0  0  0
  185.7110  178.2630  143.1640 C   0  0  0  0  0  3  0  0  0  0  0  0
  187.0130  177.2680  146.4890 C   0  0  0  0  0  3  0  0  0  0  0  0
  188.8280  175.7200  147.2170 C   0  0  0  0  0  2  0  0  0  0  0  0
  187.8000  176.6090  142.3510 C   0  0  0  0  0  3  0  0  0  0  0  0
  186.3690  177.9930  145.5680 C   0  0  0  0  0  0  0  0  0  0  0  0
  190.0010  174.8510  146.7420 C   0  0  0  0  0  2  0  0  0  0  0  0
  187.2000  176.9030  140.0530 O   0  0  0  0  0  1  0  0  0  0  0  0
  184.1330  178.5570  146.4500 C   0  0  0  0  0  1  0  0  0  0  0  0
  185.4810  179.1050  146.0210 C   0  0  0  0  0  2  0  0  0  0  0  0
  190.9770  176.6130  143.5450 O   0  0  0  0  0  0  0  0  0  0  0  0
  190.6180  175.4450  143.5870 C   0  0  0  0  0  0  0  0  0  0  0  0
  193.8470  174.8870  140.7070 S   0  0  0  0  0  0  0  0  0  0  0  0
  193.6960  175.4310  142.4540 C   0  0  0  0  0  2  0  0  0  0  0  0
  192.3580  173.8160  140.6260 C   0  0  1  0  0  3  0  0  0  0  0  0
  191.4360  174.3740  142.9200 C   0  0  1  0  0  3  0  0  0  0  0  0
  191.1970  174.4190  141.4070 C   0  0  0  0  0  2  0  0  0  0  0  0
  192.9340  174.4160  143.2930 C   0  0  2  0  0  3  0  0  0  0  0  0
  193.1810  174.6370  144.7760 C   0  0  0  0  0  1  0  0  0  0  0  0
  190.6180  173.5440  138.8650 O   0  0  0  0  0  1  0  0  0  0  0  0
  192.8390  173.4290  138.3130 O   0  0  0  0  0  0  0  0  0  0  0  0
  191.9640  173.5850  139.2060 C   0  0  0  0  0  0  0  0  0  0  0  0
  184.9820  178.6000  140.9080 O   0  0  0  0  0  0  0  0  0  0  0  0
  183.8720  177.9420  140.3080 C   0  0  0  0  0  2  0  0  0  0  0  0
  182.6030  178.2550  141.0780 C   0  0  0  0  0  1  0  0  0  0  0  0
  1 19  1  1  0  0  0
  1  4  1  0  0  0  0
  1  3  1  0  0  0  0
  2  5  1  0  0  0  0
  3 14  1  0  0  0  0
  4  2  1  6  0  0  0
  4  8  1  0  0  0  0
  5 13  1  0  0  0  0
  6  7  2  0  0  0  0
  6 12  1  0  0  0  0
  7  9  1  0  0  0  0
  8 10  1  1  0  0  0
  8 11  1  0  0  0  0
  9  5  2  0  0  0  0
 12  2  2  0  0  0  0
 13 17  1  0  0  0  0
 13 10  2  0  0  0  0
 14 11  1  0  0  0  0
 15  6  1  0  0  0  0
 17 16  1  0  0  0  0
 18 19  2  0  0  0  0
 20 21  1  0  0  0  0
 21 25  1  0  0  0  0
 22 29  1  6  0  0  0
 22 20  1  0  0  0  0
 22 24  1  0  0  0  0
 23 25  1  0  0  0  0
 23 19  1  1  0  0  0
 24 23  1  0  0  0  0
 25 26  1  1  0  0  0
 27 29  1  0  0  0  0
 28 29  2  0  0  0  0
 30  7  1  0  0  0  0
 31 30  1  0  0  0  0
 31 32  1  0  0  0  0
M  END
>  <MODEL>
3

>  <REMARK>
 VINA RESULT:      -7.6      1.799      2.790
  Name = 
  6 active torsions:
  status: ('A' for Active; 'I' for Inactive)
    1  A    between atoms: C_1  and  C_27
    2  A    between atoms: C_9  and  O_11
    3  A    between atoms: O_11  and  C_12
    4  A    between atoms: C_15  and  C_26
    5  A    between atoms: C_16  and  C_27
    6  A    between atoms: C_25  and  C_29
                            x       y       z     vdW  Elec       q    Type
                         _______ _______ _______ _____ _____    ______ ____

>  <TORSDO>
F 6

$$$$
=
 OpenBabel11052419053D

 32 35  0  0  1  0  0  0  0  0999 V2000
  190.9720  174.9110  145.7350 C   0  0  1  0  0  3  0  0  0  0  0  0
  189.4210  174.8200  143.6910 C   0  0  0  0  0  0  0  0  0  0  0  0
  190.8990  175.3040  147.2190 C   0  0  0  0  0  2  0  0  0  0  0  0
  189.9400  175.6510  144.8500 C   0  0  1  0  0  3  0  0  0  0  0  0
  188.2060  175.1860  143.0750 C   0  0  0  0  0  0  0  0  0  0  0  0
  189.7340  173.0760  142.0200 C   0  0  0  0  0  0  0  0  0  0  0  0
  188.5050  173.4240  141.4150 C   0  0  0  0  0  0  0  0  0  0  0  0
  188.7650  176.1890  145.6880 C   0  0  2  0  0  3  0  0  0  0  0  0
  187.7640  174.4840  141.9460 C   0  0  0  0  0  3  0  0  0  0  0  0
  187.7060  176.8150  144.8290 C   0  0  0  0  0  3  0  0  0  0  0  0
  189.2330  177.1670  146.7690 C   0  0  0  0  0  2  0  0  0  0  0  0
  190.1790  173.7790  143.1420 C   0  0  0  0  0  3  0  0  0  0  0  0
  187.4130  176.3150  143.6240 C   0  0  0  0  0  0  0  0  0  0  0  0
  190.5890  176.7920  147.3810 C   0  0  0  0  0  2  0  0  0  0  0  0
  190.5360  172.0610  141.5150 O   0  0  0  0  0  1  0  0  0  0  0  0
  186.7220  178.2690  142.2810 C   0  0  0  0  0  1  0  0  0  0  0  0
  186.2950  176.9270  142.8450 C   0  0  0  0  0  2  0  0  0  0  0  0
  192.5460  175.6950  144.1500 O   0  0  0  0  0  0  0  0  0  0  0  0
  192.3630  175.1120  145.2090 C   0  0  0  0  0  0  0  0  0  0  0  0
  196.5900  174.1020  144.8270 S   0  0  0  0  0  0  0  0  0  0  0  0
  195.5910  175.6370  144.9510 C   0  0  0  0  0  2  0  0  0  0  0  0
  195.4590  172.9680  145.7250 C   0  0  1  0  0  3  0  0  0  0  0  0
  193.5310  174.5900  146.0000 C   0  0  1  0  0  3  0  0  0  0  0  0
  194.0020  173.2620  145.3950 C   0  0  0  0  0  2  0  0  0  0  0  0
  194.6750  175.6130  146.1660 C   0  0  2  0  0  3  0  0  0  0  0  0
  194.1890  177.0110  146.5120 C   0  0  0  0  0  1  0  0  0  0  0  0
  194.7760  170.5990  145.3760 O   0  0  0  0  0  1  0  0  0  0  0  0
  196.9740  171.2040  145.1570 O   0  0  0  0  0  0  0  0  0  0  0  0
  195.7890  171.5480  145.4050 C   0  0  0  0  0  0  0  0  0  0  0  0
  187.9820  172.7710  140.2890 O   0  0  0  0  0  0  0  0  0  0  0  0
  188.5370  172.8320  138.9810 C   0  0  0  0  0  2  0  0  0  0  0  0
  188.1900  174.1580  138.3300 C   0  0  0  0  0  1  0  0  0  0  0  0
  1 19  1  6  0  0  0
  1  3  1  0  0  0  0
  3 14  1  0  0  0  0
  4  2  1  6  0  0  0
  4  8  1  0  0  0  0
  4  1  1  0  0  0  0
  5 13  1  0  0  0  0
  5  2  2  0  0  0  0
  6 12  2  0  0  0  0
  7  9  2  0  0  0  0
  7  6  1  0  0  0  0
  8 10  1  6  0  0  0
  8 11  1  0  0  0  0
  9  5  1  0  0  0  0
 11 14  1  0  0  0  0
 12  2  1  0  0  0  0
 13 10  2  0  0  0  0
 15  6  1  0  0  0  0
 16 17  1  0  0  0  0
 17 13  1  0  0  0  0
 18 19  2  0  0  0  0
 20 21  1  0  0  0  0
 20 22  1  0  0  0  0
 21 25  1  0  0  0  0
 22 29  1  6  0  0  0
 23 19  1  6  0  0  0
 23 25  1  0  0  0  0
 24 22  1  0  0  0  0
 24 23  1  0  0  0  0
 25 26  1  6  0  0  0
 27 29  1  0  0  0  0
 28 29  2  0  0  0  0
 30  7  1  0  0  0  0
 31 30  1  0  0  0  0
 32 31  1  0  0  0  0
M  END
>  <MODEL>
4

>  <REMARK>
 VINA RESULT:      -7.3      2.521      3.779
  Name = 
  6 active torsions:
  status: ('A' for Active; 'I' for Inactive)
    1  A    between atoms: C_1  and  C_27
    2  A    between atoms: C_9  and  O_11
    3  A    between atoms: O_11  and  C_12
    4  A    between atoms: C_15  and  C_26
    5  A    between atoms: C_16  and  C_27
    6  A    between atoms: C_25  and  C_29
                            x       y       z     vdW  Elec       q    Type
                         _______ _______ _______ _____ _____    ______ ____

>  <TORSDO>
F 6

$$$$
=
 OpenBabel11052419053D

 32 35  0  0  1  0  0  0  0  0999 V2000
  187.4460  176.6110  145.5570 C   0  0  1  0  0  3  0  0  0  0  0  0
  187.3790  176.4010  143.0000 C   0  0  0  0  0  0  0  0  0  0  0  0
  186.5020  177.0050  146.7050 C   0  0  0  0  0  2  0  0  0  0  0  0
  187.0820  177.2720  144.2060 C   0  0  1  0  0  3  0  0  0  0  0  0
  186.7310  176.6790  141.7780 C   0  0  0  0  0  0  0  0  0  0  0  0
  188.6990  174.6760  141.8990 C   0  0  0  0  0  0  0  0  0  0  0  0
  188.0340  174.9340  140.6790 C   0  0  0  0  0  0  0  0  0  0  0  0
  185.6110  177.7300  144.1830 C   0  0  2  0  0  3  0  0  0  0  0  0
  187.0660  175.9420  140.6350 C   0  0  0  0  0  3  0  0  0  0  0  0
  185.2160  178.2760  142.8430 C   0  0  0  0  0  3  0  0  0  0  0  0
  185.3100  178.7440  145.2910 C   0  0  0  0  0  2  0  0  0  0  0  0
  188.3700  175.4140  143.0390 C   0  0  0  0  0  3  0  0  0  0  0  0
  185.7060  177.7510  141.7150 C   0  0  0  0  0  0  0  0  0  0  0  0
  186.0750  178.4670  146.5920 C   0  0  0  0  0  2  0  0  0  0  0  0
  189.6990  173.7170  141.9970 O   0  0  0  0  0  1  0  0  0  0  0  0
  183.7020  178.3380  140.3960 C   0  0  0  0  0  1  0  0  0  0  0  0
  185.2180  178.2790  140.4060 C   0  0  0  0  0  2  0  0  0  0  0  0
  189.1600  177.9590  146.4790 O   0  0  0  0  0  0  0  0  0  0  0  0
  188.8700  176.9070  145.9270 C   0  0  0  0  0  0  0  0  0  0  0  0
  192.9990  175.8660  146.8760 S   0  0  0  0  0  0  0  0  0  0  0  0
  191.3660  175.7340  147.7040 C   0  0  0  0  0  2  0  0  0  0  0  0
  192.4250  175.8200  145.1330 C   0  0  1  0  0  3  0  0  0  0  0  0
  189.9370  175.8940  145.6120 C   0  0  1  0  0  3  0  0  0  0  0  0
  191.1290  176.6000  144.9540 C   0  0  0  0  0  2  0  0  0  0  0  0
  190.3460  175.0280  146.8230 C   0  0  2  0  0  3  0  0  0  0  0  0
  189.1630  174.5370  147.6410 C   0  0  0  0  0  1  0  0  0  0  0  0
  193.1980  176.5480  142.8800 O   0  0  0  0  0  0  0  0  0  0  0  0
  194.6270  176.6340  144.6680 O   0  0  0  0  0  1  0  0  0  0  0  0
  193.4820  176.3540  144.2260 C   0  0  0  0  0  0  0  0  0  0  0  0
  188.2990  174.2410  139.4880 O   0  0  0  0  0  0  0  0  0  0  0  0
  189.5910  173.8390  139.0510 C   0  0  0  0  0  2  0  0  0  0  0  0
  189.5870  172.3620  138.7020 C   0  0  0  0  0  1  0  0  0  0  0  0
  1 19  1  1  0  0  0
  1  3  1  0  0  0  0
  2 12  1  0  0  0  0
  4  2  1  6  0  0  0
  4  1  1  0  0  0  0
  5  2  2  0  0  0  0
  6 15  1  0  0  0  0
  6 12  2  0  0  0  0
  7  6  1  0  0  0  0
  8 10  1  6  0  0  0
  8  4  1  0  0  0  0
  8 11  1  0  0  0  0
  9  7  2  0  0  0  0
  9  5  1  0  0  0  0
 11 14  1  0  0  0  0
 13  5  1  0  0  0  0
 13 10  2  0  0  0  0
 14  3  1  0  0  0  0
 16 17  1  0  0  0  0
 17 13  1  0  0  0  0
 19 18  2  0  0  0  0
 20 21  1  0  0  0  0
 22 29  1  6  0  0  0
 22 20  1  0  0  0  0
 23 19  1  1  0  0  0
 23 25  1  0  0  0  0
 24 22  1  0  0  0  0
 24 23  1  0  0  0  0
 25 26  1  1  0  0  0
 25 21  1  0  0  0  0
 27 29  2  0  0  0  0
 29 28  1  0  0  0  0
 30  7  1  0  0  0  0
 31 30  1  0  0  0  0
 32 31  1  0  0  0  0
M  END
>  <MODEL>
5

>  <REMARK>
 VINA RESULT:      -7.1      2.248      4.431
  Name = 
  6 active torsions:
  status: ('A' for Active; 'I' for Inactive)
    1  A    between atoms: C_1  and  C_27
    2  A    between atoms: C_9  and  O_11
    3  A    between atoms: O_11  and  C_12
    4  A    between atoms: C_15  and  C_26
    5  A    between atoms: C_16  and  C_27
    6  A    between atoms: C_25  and  C_29
                            x       y       z     vdW  Elec       q    Type
                         _______ _______ _______ _____ _____    ______ ____

>  <TORSDO>
F 6

$$$$
=
 OpenBabel11052419053D

 32 35  0  0  1  0  0  0  0  0999 V2000
  189.5470  176.9090  145.8650 C   0  0  1  0  0  3  0  0  0  0  0  0
  189.7090  175.1450  144.0070 C   0  0  0  0  0  0  0  0  0  0  0  0
  190.4360  177.5030  146.9700 C   0  0  0  0  0  2  0  0  0  0  0  0
  189.9340  175.4620  145.4730 C   0  0  1  0  0  3  0  0  0  0  0  0
  190.3890  174.0530  143.4290 C   0  0  0  0  0  0  0  0  0  0  0  0
  188.4870  175.4750  141.9260 C   0  0  0  0  0  0  0  0  0  0  0  0
  189.1850  174.3970  141.3360 C   0  0  0  0  0  0  0  0  0  0  0  0
  191.3880  175.1440  145.8690 C   0  0  2  0  0  3  0  0  0  0  0  0
  190.1190  173.6930  142.1030 C   0  0  0  0  0  3  0  0  0  0  0  0
  191.8100  173.7830  145.4000 C   0  0  0  0  0  3  0  0  0  0  0  0
  191.6160  175.2920  147.3760 C   0  0  0  0  0  2  0  0  0  0  0  0
  188.7510  175.8310  143.2500 C   0  0  0  0  0  3  0  0  0  0  0  0
  191.3780  173.2920  144.2340 C   0  0  0  0  0  0  0  0  0  0  0  0
  190.8160  176.4430  148.0020 C   0  0  0  0  0  2  0  0  0  0  0  0
  187.5170  176.1860  141.2300 O   0  0  0  0  0  1  0  0  0  0  0  0
  193.3120  171.7570  144.2690 C   0  0  0  0  0  1  0  0  0  0  0  0
  191.8930  171.9670  143.7770 C   0  0  0  0  0  2  0  0  0  0  0  0
  187.5800  176.0590  146.8740 O   0  0  0  0  0  0  0  0  0  0  0  0
  188.1010  176.9820  146.2630 C   0  0  0  0  0  0  0  0  0  0  0  0
  183.9940  178.4110  145.9110 S   0  0  0  0  0  0  0  0  0  0  0  0
  185.1700  178.0530  147.2750 C   0  0  0  0  0  2  0  0  0  0  0  0
  185.2130  178.8090  144.5970 C   0  0  1  0  0  3  0  0  0  0  0  0
  187.3000  178.2030  145.9020 C   0  0  1  0  0  3  0  0  0  0  0  0
  186.4310  177.8980  144.6760 C   0  0  0  0  0  2  0  0  0  0  0  0
  186.4910  178.7840  147.0820 C   0  0  2  0  0  3  0  0  0  0  0  0
  187.2770  178.8450  148.3810 C   0  0  0  0  0  1  0  0  0  0  0  0
  185.3730  178.6580  142.1170 O   0  0  0  0  0  0  0  0  0  0  0  0
  183.3220  178.6640  143.1370 O   0  0  0  0  0  1  0  0  0  0  0  0
  184.5750  178.7080  143.2520 C   0  0  0  0  0  0  0  0  0  0  0  0
  188.9850  173.9730  140.0130 O   0  0  0  0  0  0  0  0  0  0  0  0
  188.3360  172.7650  139.6340 C   0  0  0  0  0  2  0  0  0  0  0  0
  189.1070  172.0890  138.5160 C   0  0  0  0  0  1  0  0  0  0  0  0
  1 19  1  1  0  0  0
  1  3  1  0  0  0  0
  3 14  1  0  0  0  0
  4  2  1  6  0  0  0
  4  1  1  0  0  0  0
  4  8  1  0  0  0  0
  5  2  1  0  0  0  0
  5 13  1  0  0  0  0
  6 12  1  0  0  0  0
  7  6  2  0  0  0  0
  7  9  1  0  0  0  0
  8 10  1  1  0  0  0
  8 11  1  0  0  0  0
  9  5  2  0  0  0  0
 11 14  1  0  0  0  0
 12  2  2  0  0  0  0
 13 10  2  0  0  0  0
 15  6  1  0  0  0  0
 17 13  1  0  0  0  0
 17 16  1  0  0  0  0
 19 18  2  0  0  0  0
 20 21  1  0  0  0  0
 22 29  1  6  0  0  0
 22 24  1  0  0  0  0
 22 20  1  0  0  0  0
 23 19  1  1  0  0  0
 23 25  1  0  0  0  0
 24 23  1  0  0  0  0
 25 21  1  0  0  0  0
 25 26  1  1  0  0  0
 27 29  2  0  0  0  0
 28 29  1  0  0  0  0
 30  7  1  0  0  0  0
 31 30  1  0  0  0  0
 32 31  1  0  0  0  0
M  END
>  <MODEL>
6

>  <REMARK>
 VINA RESULT:      -7.1      3.521      7.128
  Name = 
  6 active torsions:
  status: ('A' for Active; 'I' for Inactive)
    1  A    between atoms: C_1  and  C_27
    2  A    between atoms: C_9  and  O_11
    3  A    between atoms: O_11  and  C_12
    4  A    between atoms: C_15  and  C_26
    5  A    between atoms: C_16  and  C_27
    6  A    between atoms: C_25  and  C_29
                            x       y       z     vdW  Elec       q    Type
                         _______ _______ _______ _____ _____    ______ ____

>  <TORSDO>
F 6

$$$$
=
 OpenBabel11052419053D

 32 35  0  0  1  0  0  0  0  0999 V2000
  190.7950  175.3040  144.8270 C   0  0  1  0  0  3  0  0  0  0  0  0
  188.6600  176.5050  144.0600 C   0  0  0  0  0  0  0  0  0  0  0  0
  191.3650  174.6740  146.1090 C   0  0  0  0  0  2  0  0  0  0  0  0
  189.7640  176.4260  145.0980 C   0  0  1  0  0  3  0  0  0  0  0  0
  187.4580  177.1660  144.3870 C   0  0  0  0  0  0  0  0  0  0  0  0
  187.8660  176.2060  141.7780 C   0  0  0  0  0  0  0  0  0  0  0  0
  186.6500  176.8460  142.1080 C   0  0  0  0  0  0  0  0  0  0  0  0
  189.1600  176.3050  146.5090 C   0  0  2  0  0  3  0  0  0  0  0  0
  186.4690  177.3280  143.4080 C   0  0  0  0  0  3  0  0  0  0  0  0
  188.0820  177.3220  146.7460 C   0  0  0  0  0  3  0  0  0  0  0  0
  190.2320  176.3880  147.6000 C   0  0  0  0  0  2  0  0  0  0  0  0
  188.8560  176.0490  142.7510 C   0  0  0  0  0  3  0  0  0  0  0  0
  187.2560  177.6900  145.7620 C   0  0  0  0  0  0  0  0  0  0  0  0
  191.5570  175.7240  147.2020 C   0  0  0  0  0  2  0  0  0  0  0  0
  188.1230  175.7430  140.4930 O   0  0  0  0  0  1  0  0  0  0  0  0
  185.0290  177.9300  146.8010 C   0  0  0  0  0  1  0  0  0  0  0  0
  186.1500  178.6450  146.0710 C   0  0  0  0  0  2  0  0  0  0  0  0
  192.1350  177.0030  143.8660 O   0  0  0  0  0  0  0  0  0  0  0  0
  191.9080  175.8040  143.9530 C   0  0  0  0  0  0  0  0  0  0  0  0
  194.9590  175.5710  140.8430 S   0  0  0  0  0  0  0  0  0  0  0  0
  194.8960  176.0310  142.6190 C   0  0  0  0  0  2  0  0  0  0  0  0
  193.5350  174.4130  140.8120 C   0  0  1  0  0  3  0  0  0  0  0  0
  192.7420  174.8150  143.1850 C   0  0  1  0  0  3  0  0  0  0  0  0
  192.3970  174.9080  141.6940 C   0  0  0  0  0  2  0  0  0  0  0  0
  194.2560  174.9370  143.4600 C   0  0  2  0  0  3  0  0  0  0  0  0
  194.5910  175.1110  144.9320 C   0  0  0  0  0  1  0  0  0  0  0  0
  192.0670  173.2800  139.1490 O   0  0  0  0  0  1  0  0  0  0  0  0
  193.5450  174.8910  138.4660 O   0  0  0  0  0  0  0  0  0  0  0  0
  193.0590  174.2160  139.4110 C   0  0  0  0  0  0  0  0  0  0  0  0
  185.6030  177.0420  141.1950 O   0  0  0  0  0  0  0  0  0  0  0  0
  185.2310  178.2990  140.6420 C   0  0  0  0  0  2  0  0  0  0  0  0
  183.7210  178.3840  140.5130 C   0  0  0  0  0  1  0  0  0  0  0  0
  1 19  1  1  0  0  0
  1  4  1  0  0  0  0
  1  3  1  0  0  0  0
  2  5  1  0  0  0  0
  3 14  1  0  0  0  0
  4  2  1  6  0  0  0
  4  8  1  0  0  0  0
  5 13  1  0  0  0  0
  6  7  2  0  0  0  0
  6 12  1  0  0  0  0
  7  9  1  0  0  0  0
  8 10  1  1  0  0  0
  8 11  1  0  0  0  0
  9  5  2  0  0  0  0
 12  2  2  0  0  0  0
 13 17  1  0  0  0  0
 13 10  2  0  0  0  0
 14 11  1  0  0  0  0
 15  6  1  0  0  0  0
 17 16  1  0  0  0  0
 18 19  2  0  0  0  0
 20 21  1  0  0  0  0
 21 25  1  0  0  0  0
 22 29  1  6  0  0  0
 22 20  1  0  0  0  0
 22 24  1  0  0  0  0
 23 25  1  0  0  0  0
 23 19  1  1  0  0  0
 24 23  1  0  0  0  0
 25 26  1  1  0  0  0
 27 29  1  0  0  0  0
 28 29  2  0  0  0  0
 30  7  1  0  0  0  0
 31 30  1  0  0  0  0
 32 31  1  0  0  0  0
M  END
>  <MODEL>
7

>  <REMARK>
 VINA RESULT:      -7.0      1.905      2.832
  Name = 
  6 active torsions:
  status: ('A' for Active; 'I' for Inactive)
    1  A    between atoms: C_1  and  C_27
    2  A    between atoms: C_9  and  O_11
    3  A    between atoms: O_11  and  C_12
    4  A    between atoms: C_15  and  C_26
    5  A    between atoms: C_16  and  C_27
    6  A    between atoms: C_25  and  C_29
                            x       y       z     vdW  Elec       q    Type
                         _______ _______ _______ _____ _____    ______ ____

>  <TORSDO>
F 6

$$$$
=
 OpenBabel11052419053D

 32 35  0  0  1  0  0  0  0  0999 V2000
  191.1830  175.6760  145.1640 C   0  0  1  0  0  3  0  0  0  0  0  0
  189.4940  175.4880  143.2400 C   0  0  0  0  0  0  0  0  0  0  0  0
  191.1730  175.8210  146.6940 C   0  0  0  0  0  2  0  0  0  0  0  0
  189.9170  176.2490  144.4830 C   0  0  1  0  0  3  0  0  0  0  0  0
  188.1700  175.6180  142.7730 C   0  0  0  0  0  0  0  0  0  0  0  0
  190.0400  174.1390  141.2880 C   0  0  0  0  0  0  0  0  0  0  0  0
  188.7080  174.2460  140.8300 C   0  0  0  0  0  0  0  0  0  0  0  0
  188.7410  176.3450  145.4730 C   0  0  2  0  0  3  0  0  0  0  0  0
  187.7930  174.9970  141.5760 C   0  0  0  0  0  3  0  0  0  0  0  0
  187.4790  176.7980  144.8010 C   0  0  0  0  0  3  0  0  0  0  0  0
  189.0710  177.2450  146.6670 C   0  0  0  0  0  2  0  0  0  0  0  0
  190.4190  174.7630  142.4780 C   0  0  0  0  0  3  0  0  0  0  0  0
  187.1900  176.4180  143.5520 C   0  0  0  0  0  0  0  0  0  0  0  0
  190.5340  177.1420  147.1200 C   0  0  0  0  0  2  0  0  0  0  0  0
  191.0060  173.4430  140.5700 O   0  0  0  0  0  1  0  0  0  0  0  0
  185.1960  177.8430  143.8570 C   0  0  0  0  0  1  0  0  0  0  0  0
  185.8830  176.8310  142.9590 C   0  0  0  0  0  2  0  0  0  0  0  0
  192.5030  177.5100  144.4580 O   0  0  0  0  0  0  0  0  0  0  0  0
  192.4220  176.2970  144.5880 C   0  0  0  0  0  0  0  0  0  0  0  0
  196.4460  176.4450  142.9070 S   0  0  0  0  0  0  0  0  0  0  0  0
  195.6650  176.7910  144.5330 C   0  0  0  0  0  2  0  0  0  0  0  0
  195.2430  175.2040  142.2860 C   0  0  1  0  0  3  0  0  0  0  0  0
  193.5650  175.4110  144.1750 C   0  0  1  0  0  3  0  0  0  0  0  0
  193.8160  175.5730  142.6710 C   0  0  0  0  0  2  0  0  0  0  0  0
  194.8410  175.6090  145.0220 C   0  0  2  0  0  3  0  0  0  0  0  0
  194.5660  175.7130  146.5120 C   0  0  0  0  0  1  0  0  0  0  0  0
  194.4580  174.2660  140.1170 O   0  0  0  0  0  0  0  0  0  0  0  0
  196.2710  175.6650  140.1740 O   0  0  0  0  0  1  0  0  0  0  0  0
  195.3620  175.0650  140.8060 C   0  0  0  0  0  0  0  0  0  0  0  0
  188.2420  173.6500  139.6480 O   0  0  0  0  0  0  0  0  0  0  0  0
  188.1890  174.2900  138.3800 C   0  0  0  0  0  2  0  0  0  0  0  0
  189.3170  173.7900  137.4960 C   0  0  0  0  0  1  0  0  0  0  0  0
  1 19  1  6  0  0  0
  1  3  1  0  0  0  0
  3 14  1  0  0  0  0
  4  2  1  6  0  0  0
  4  1  1  0  0  0  0
  4  8  1  0  0  0  0
  5  2  1  0  0  0  0
  5 13  1  0  0  0  0
  6 12  1  0  0  0  0
  7  6  2  0  0  0  0
  7  9  1  0  0  0  0
  8 10  1  6  0  0  0
  8 11  1  0  0  0  0
  9  5  2  0  0  0  0
 11 14  1  0  0  0  0
 12  2  2  0  0  0  0
 13 10  2  0  0  0  0
 15  6  1  0  0  0  0
 17 13  1  0  0  0  0
 17 16  1  0  0  0  0
 18 19  2  0  0  0  0
 20 21  1  0  0  0  0
 21 25  1  0  0  0  0
 22 29  1  6  0  0  0
 22 24  1  0  0  0  0
 22 20  1  0  0  0  0
 23 19  1  1  0  0  0
 23 25  1  0  0  0  0
 24 23  1  0  0  0  0
 25 26  1  1  0  0  0
 27 29  2  0  0  0  0
 28 29  1  0  0  0  0
 30  7  1  0  0  0  0
 31 30  1  0  0  0  0
 32 31  1  0  0  0  0
M  END
>  <MODEL>
8

>  <REMARK>
 VINA RESULT:      -7.0      2.489      3.847
  Name = 
  6 active torsions:
  status: ('A' for Active; 'I' for Inactive)
    1  A    between atoms: C_1  and  C_27
    2  A    between atoms: C_9  and  O_11
    3  A    between atoms: O_11  and  C_12
    4  A    between atoms: C_15  and  C_26
    5  A    between atoms: C_16  and  C_27
    6  A    between atoms: C_25  and  C_29
                            x       y       z     vdW  Elec       q    Type
                         _______ _______ _______ _____ _____    ______ ____

>  <TORSDO>
F 6

$$$$
=
 OpenBabel11052419053D

 32 35  0  0  1  0  0  0  0  0999 V2000
  186.4680  178.9560  145.0360 C   0  0  1  0  0  3  0  0  0  0  0  0
  188.5750  177.4960  145.1570 C   0  0  0  0  0  0  0  0  0  0  0  0
  185.2980  179.3670  145.9450 C   0  0  0  0  0  2  0  0  0  0  0  0
  187.0810  177.5830  145.4030 C   0  0  1  0  0  3  0  0  0  0  0  0
  189.3220  176.4990  145.8180 C   0  0  0  0  0  0  0  0  0  0  0  0
  190.5640  178.1500  143.9140 C   0  0  0  0  0  0  0  0  0  0  0  0
  191.3210  177.1680  144.5920 C   0  0  0  0  0  0  0  0  0  0  0  0
  186.7570  177.1960  146.8580 C   0  0  2  0  0  3  0  0  0  0  0  0
  190.6840  176.3480  145.5280 C   0  0  0  0  0  3  0  0  0  0  0  0
  187.4340  175.9180  147.2600 C   0  0  0  0  0  3  0  0  0  0  0  0
  185.2490  177.1100  147.1070 C   0  0  0  0  0  2  0  0  0  0  0  0
  189.2050  178.2980  144.1970 C   0  0  0  0  0  3  0  0  0  0  0  0
  188.6560  175.6150  146.8090 C   0  0  0  0  0  0  0  0  0  0  0  0
  184.4440  178.1580  146.3260 C   0  0  0  0  0  2  0  0  0  0  0  0
  191.1300  178.9670  142.9430 O   0  0  0  0  0  1  0  0  0  0  0  0
  189.6270  173.4450  146.1430 C   0  0  0  0  0  1  0  0  0  0  0  0
  189.3160  174.3710  147.3030 C   0  0  0  0  0  2  0  0  0  0  0  0
  186.5320  179.7920  142.8220 O   0  0  0  0  0  0  0  0  0  0  0  0
  186.0440  178.9810  143.5960 C   0  0  0  0  0  0  0  0  0  0  0  0
  183.6380  177.9600  140.1030 S   0  0  0  0  0  0  0  0  0  0  0  0
  185.3910  177.7750  140.6160 C   0  0  0  0  0  2  0  0  0  0  0  0
  182.8670  177.9730  141.7690 C   0  0  1  0  0  3  0  0  0  0  0  0
  185.0130  177.9960  143.1160 C   0  0  1  0  0  3  0  0  0  0  0  0
  183.7190  178.7420  142.7700 C   0  0  0  0  0  2  0  0  0  0  0  0
  185.5100  177.0890  141.9690 C   0  0  2  0  0  3  0  0  0  0  0  0
  186.9140  176.5520  142.1890 C   0  0  0  0  0  1  0  0  0  0  0  0
  180.7520  178.4240  140.5340 O   0  0  0  0  0  0  0  0  0  0  0  0
  181.0040  179.1630  142.6870 O   0  0  0  0  0  1  0  0  0  0  0  0
  181.4950  178.5560  141.6990 C   0  0  0  0  0  0  0  0  0  0  0  0
  192.6900  176.9530  144.3720 O   0  0  0  0  0  0  0  0  0  0  0  0
  193.2780  175.6940  144.0690 C   0  0  0  0  0  2  0  0  0  0  0  0
  194.3380  175.3520  145.1000 C   0  0  0  0  0  1  0  0  0  0  0  0
  1 19  1  6  0  0  0
  1  4  1  0  0  0  0
  1  3  1  0  0  0  0
  2  5  1  0  0  0  0
  3 14  1  0  0  0  0
  4  2  1  1  0  0  0
  4  8  1  0  0  0  0
  5 13  1  0  0  0  0
  6 12  1  0  0  0  0
  6  7  2  0  0  0  0
  7  9  1  0  0  0  0
  8 11  1  6  0  0  0
  8 10  1  0  0  0  0
  9  5  2  0  0  0  0
 12  2  2  0  0  0  0
 13 10  2  0  0  0  0
 13 17  1  0  0  0  0
 14 11  1  0  0  0  0
 15  6  1  0  0  0  0
 16 17  1  0  0  0  0
 18 19  2  0  0  0  0
 20 21  1  0  0  0  0
 20 22  1  0  0  0  0
 21 25  1  0  0  0  0
 22 29  1  6  0  0  0
 22 24  1  0  0  0  0
 23 19  1  6  0  0  0
 24 23  1  0  0  0  0
 25 26  1  1  0  0  0
 25 23  1  0  0  0  0
 27 29  2  0  0  0  0
 29 28  1  0  0  0  0
 30  7  1  0  0  0  0
 31 30  1  0  0  0  0
 31 32  1  0  0  0  0
M  END
>  <MODEL>
9

>  <REMARK>
 VINA RESULT:      -6.9      2.845      8.120
  Name = 
  6 active torsions:
  status: ('A' for Active; 'I' for Inactive)
    1  A    between atoms: C_1  and  C_27
    2  A    between atoms: C_9  and  O_11
    3  A    between atoms: O_11  and  C_12
    4  A    between atoms: C_15  and  C_26
    5  A    between atoms: C_16  and  C_27
    6  A    between atoms: C_25  and  C_29
                            x       y       z     vdW  Elec       q    Type
                         _______ _______ _______ _____ _____    ______ ____

>  <TORSDO>
F 6

$$$$
