=
 OpenBabel11052417233D

 30 32  0  0  1  0  0  0  0  0999 V2000
  188.4060  177.7660  145.8820 C   0  0  0  0  0  2  0  0  0  0  0  0
  188.0540  177.7250  144.3770 C   0  0  2  0  0  3  0  0  0  0  0  0
  189.4980  174.1690  146.7160 C   0  0  0  0  0  1  0  0  0  0  0  0
  185.5350  178.0710  140.7820 C   0  0  0  0  0  2  0  0  0  0  0  0
  188.8230  177.1640  142.0080 C   0  0  0  0  0  2  0  0  0  0  0  0
  189.5260  174.8690  143.4240 O   0  0  0  0  0  0  0  0  0  0  0  0
  186.6830  177.0410  144.0710 C   0  0  2  0  0  3  0  0  0  0  0  0
  187.5490  176.3480  141.8020 C   0  0  2  0  0  3  0  0  0  0  0  0
  186.6160  177.5970  139.8130 C   0  0  0  0  0  2  0  0  0  0  0  0
  188.4000  176.3760  146.5290 C   0  0  0  0  0  2  0  0  0  0  0  0
  190.5850  175.9340  145.2530 C   0  0  2  0  0  3  0  0  0  0  0  0
  189.7520  175.6530  146.5150 C   0  0  2  0  0  3  0  0  0  0  0  0
  190.2460  178.2070  143.5620 O   0  0  0  0  0  1  0  0  0  0  0  0
  189.7950  175.9270  143.9750 C   0  0  0  0  0  0  0  0  0  0  0  0
  189.2350  177.2460  143.4840 C   0  0  1  0  0  0  0  0  0  0  0  0
  187.1970  176.2730  140.3150 C   0  0  0  0  0  2  0  0  0  0  0  0
  186.0920  178.2630  142.0600 O   0  0  0  0  0  0  0  0  0  0  0  0
  186.3820  176.9800  142.5690 C   0  0  2  0  0  3  0  0  0  0  0  0
  185.5150  177.6060  144.7730 N   0  0  0  0  0  0  0  0  0  0  0  0
  185.1380  176.7280  145.8700 C   0  0  0  0  0  1  0  0  0  0  0  0
  185.7670  178.9400  145.3100 C   0  0  0  0  0  2  0  0  0  0  0  0
  185.2010  179.0470  146.6410 N   0  0  0  0  0  2  0  0  0  0  0  0
  186.0310  179.3150  147.7350 C   0  0  0  0  0  0  0  0  0  0  0  0
  186.7470  179.5470  148.6770 C   0  0  0  0  0  3  0  0  0  0  0  0
  191.9970  175.3300  145.1590 C   0  0  1  0  0  3  0  0  0  0  0  0
  193.1630  174.7260  143.1220 C   0  0  0  0  0  1  0  0  0  0  0  0
  192.1020  174.3630  144.0550 N   0  0  0  0  0  0  0  0  0  0  0  0
  192.4390  173.0640  144.6140 C   0  0  0  0  0  1  0  0  0  0  0  0
  193.9770  176.1110  146.4620 C   0  0  0  0  0  1  0  0  0  0  0  0
  193.1380  176.3530  145.2240 C   0  0  0  0  0  2  0  0  0  0  0  0
  1 10  1  0  0  0  0
  2  1  1  1  0  0  0
  4 17  1  0  0  0  0
  5 15  1  0  0  0  0
  6 14  2  0  0  0  0
  7  2  1  0  0  0  0
  7 19  1  1  0  0  0
  8 16  1  6  0  0  0
  8  5  1  0  0  0  0
  8 18  1  0  0  0  0
  9 16  1  0  0  0  0
  9  4  1  0  0  0  0
 11 25  1  6  0  0  0
 11 12  1  0  0  0  0
 12 10  1  0  0  0  0
 12  3  1  6  0  0  0
 14 11  1  0  0  0  0
 15 13  1  1  0  0  0
 15 14  1  0  0  0  0
 15  2  1  0  0  0  0
 18 17  1  6  0  0  0
 18  7  1  0  0  0  0
 19 21  1  0  0  0  0
 19 20  1  0  0  0  0
 21 22  1  0  0  0  0
 22 23  1  0  0  0  0
 23 24  3  0  0  0  0
 25 30  1  6  0  0  0
 26 27  1  0  0  0  0
 27 28  1  0  0  0  0
 27 25  1  0  0  0  0
 30 29  1  0  0  0  0
M  END
>  <MODEL>
1

>  <REMARK>
 VINA RESULT:      -6.8      0.000      0.000
  Name = 
  7 active torsions:
  status: ('A' for Active; 'I' for Inactive)
    1  A    between atoms: C_6  and  N_8
    2  A    between atoms: C_6  and  N_21
    3  A    between atoms: N_8  and  C_13
    4  A    between atoms: C_9  and  N_21
    5  A    between atoms: N_14  and  C_28
    6  A    between atoms: C_19  and  C_28
    7  A    between atoms: C_28  and  C_29
                            x       y       z     vdW  Elec       q    Type
                         _______ _______ _______ _____ _____    ______ ____

>  <TORSDO>
F 7

$$$$
=
 OpenBabel11052417233D

 30 32  0  0  1  0  0  0  0  0999 V2000
  190.3370  177.7800  144.6510 C   0  0  0  0  0  2  0  0  0  0  0  0
  189.9990  176.8700  143.4480 C   0  0  2  0  0  3  0  0  0  0  0  0
  190.7950  175.3500  147.6020 C   0  0  0  0  0  1  0  0  0  0  0  0
  187.6160  175.2540  140.1170 C   0  0  0  0  0  2  0  0  0  0  0  0
  190.6880  174.8810  142.0020 C   0  0  0  0  0  2  0  0  0  0  0  0
  190.9770  173.8720  144.5830 O   0  0  0  0  0  0  0  0  0  0  0  0
  188.5360  176.3230  143.4640 C   0  0  2  0  0  3  0  0  0  0  0  0
  189.2970  174.2810  142.1880 C   0  0  2  0  0  3  0  0  0  0  0  0
  188.6110  174.1530  139.7590 C   0  0  0  0  0  2  0  0  0  0  0  0
  190.0890  177.0950  146.0000 C   0  0  0  0  0  2  0  0  0  0  0  0
  192.1810  175.6890  145.5040 C   0  0  2  0  0  3  0  0  0  0  0  0
  191.2990  176.3500  146.5770 C   0  0  2  0  0  3  0  0  0  0  0  0
  192.2510  176.4670  142.7600 O   0  0  0  0  0  1  0  0  0  0  0  0
  191.4160  175.0000  144.4110 C   0  0  0  0  0  0  0  0  0  0  0  0
  191.0920  175.7980  143.1640 C   0  0  1  0  0  0  0  0  0  0  0  0
  188.9540  173.3560  141.0200 C   0  0  0  0  0  2  0  0  0  0  0  0
  188.1830  176.1160  141.0730 O   0  0  0  0  0  0  0  0  0  0  0  0
  188.2450  175.3930  142.2820 C   0  0  2  0  0  3  0  0  0  0  0  0
  187.4730  177.3420  143.5470 N   0  0  0  0  0  0  0  0  0  0  0  0
  187.5720  178.2410  142.4080 C   0  0  0  0  0  1  0  0  0  0  0  0
  186.1330  176.7630  143.5690 C   0  0  0  0  0  2  0  0  0  0  0  0
  185.4370  177.1830  144.7710 N   0  0  0  0  0  2  0  0  0  0  0  0
  186.0370  177.0090  146.0230 C   0  0  0  0  0  0  0  0  0  0  0  0
  186.5540  176.8590  147.1020 C   0  0  0  0  0  3  0  0  0  0  0  0
  193.4710  174.9810  145.9530 C   0  0  1  0  0  3  0  0  0  0  0  0
  195.1740  174.3500  144.3480 C   0  0  0  0  0  1  0  0  0  0  0  0
  193.9090  173.9770  144.9720 N   0  0  0  0  0  0  0  0  0  0  0  0
  194.1230  172.7180  145.6690 C   0  0  0  0  0  1  0  0  0  0  0  0
  194.4580  177.2660  145.7600 C   0  0  0  0  0  1  0  0  0  0  0  0
  194.5800  175.9200  146.4460 C   0  0  0  0  0  2  0  0  0  0  0  0
  1 10  1  0  0  0  0
  2  7  1  0  0  0  0
  2  1  1  1  0  0  0
  4 17  1  0  0  0  0
  5  8  1  0  0  0  0
  5 15  1  0  0  0  0
  7 19  1  6  0  0  0
  8 16  1  6  0  0  0
  8 18  1  0  0  0  0
  9  4  1  0  0  0  0
  9 16  1  0  0  0  0
 10 12  1  0  0  0  0
 11 25  1  1  0  0  0
 11 12  1  0  0  0  0
 12  3  1  1  0  0  0
 14  6  2  0  0  0  0
 14 11  1  0  0  0  0
 15 13  1  6  0  0  0
 15  2  1  0  0  0  0
 15 14  1  0  0  0  0
 18 17  1  6  0  0  0
 18  7  1  0  0  0  0
 19 21  1  0  0  0  0
 20 19  1  0  0  0  0
 21 22  1  0  0  0  0
 22 23  1  0  0  0  0
 23 24  3  0  0  0  0
 25 30  1  6  0  0  0
 26 27  1  0  0  0  0
 27 28  1  0  0  0  0
 27 25  1  0  0  0  0
 29 30  1  0  0  0  0
M  END
>  <MODEL>
2

>  <REMARK>
 VINA RESULT:      -6.7      1.892      2.605
  Name = 
  7 active torsions:
  status: ('A' for Active; 'I' for Inactive)
    1  A    between atoms: C_6  and  N_8
    2  A    between atoms: C_6  and  N_21
    3  A    between atoms: N_8  and  C_13
    4  A    between atoms: C_9  and  N_21
    5  A    between atoms: N_14  and  C_28
    6  A    between atoms: C_19  and  C_28
    7  A    between atoms: C_28  and  C_29
                            x       y       z     vdW  Elec       q    Type
                         _______ _______ _______ _____ _____    ______ ____

>  <TORSDO>
F 7

$$$$
=
 OpenBabel11052417233D

 30 32  0  0  1  0  0  0  0  0999 V2000
  191.6020  176.5780  145.9720 C   0  0  0  0  0  2  0  0  0  0  0  0
  190.6060  176.5170  144.7920 C   0  0  2  0  0  3  0  0  0  0  0  0
  193.6280  173.3160  145.6960 C   0  0  0  0  0  1  0  0  0  0  0  0
  186.6920  176.3990  142.7790 C   0  0  0  0  0  2  0  0  0  0  0  0
  190.2770  176.2550  142.2730 C   0  0  0  0  0  2  0  0  0  0  0  0
  191.9870  174.1390  142.8760 O   0  0  0  0  0  0  0  0  0  0  0  0
  189.4110  175.5380  145.0270 C   0  0  2  0  0  3  0  0  0  0  0  0
  189.2390  175.1680  142.5340 C   0  0  2  0  0  3  0  0  0  0  0  0
  187.2670  176.2390  141.3730 C   0  0  0  0  0  2  0  0  0  0  0  0
  192.1660  175.2010  146.3430 C   0  0  0  0  0  2  0  0  0  0  0  0
  193.5460  175.3490  144.1810 C   0  0  2  0  0  3  0  0  0  0  0  0
  193.4680  174.8240  145.6250 C   0  0  2  0  0  3  0  0  0  0  0  0
  192.0280  177.5430  143.1710 O   0  0  0  0  0  1  0  0  0  0  0  0
  192.2710  175.2070  143.3990 C   0  0  0  0  0  0  0  0  0  0  0  0
  191.3040  176.3720  143.4080 C   0  0  1  0  0  0  0  0  0  0  0  0
  188.2580  175.0730  141.3650 C   0  0  0  0  0  2  0  0  0  0  0  0
  187.7300  176.6650  143.6900 O   0  0  0  0  0  0  0  0  0  0  0  0
  188.4650  175.4690  143.8230 C   0  0  2  0  0  3  0  0  0  0  0  0
  188.6200  175.7760  146.2490 N   0  0  0  0  0  0  0  0  0  0  0  0
  188.9520  174.7710  147.2460 C   0  0  0  0  0  1  0  0  0  0  0  0
  188.8500  177.0980  146.8250 C   0  0  0  0  0  2  0  0  0  0  0  0
  187.5910  177.6640  147.2690 N   0  0  0  0  0  2  0  0  0  0  0  0
  186.3850  177.1980  146.7340 C   0  0  0  0  0  0  0  0  0  0  0  0
  185.3460  176.7960  146.2720 C   0  0  0  0  0  3  0  0  0  0  0  0
  194.8390  175.1060  143.3840 C   0  0  1  0  0  3  0  0  0  0  0  0
  195.5710  176.5700  141.5960 C   0  0  0  0  0  1  0  0  0  0  0  0
  194.6820  175.4740  141.9680 N   0  0  0  0  0  0  0  0  0  0  0  0
  195.0420  174.3250  141.1530 C   0  0  0  0  0  1  0  0  0  0  0  0
  197.0230  174.4940  144.4260 C   0  0  0  0  0  1  0  0  0  0  0  0
  196.1130  175.6450  144.0470 C   0  0  0  0  0  2  0  0  0  0  0  0
  1 10  1  0  0  0  0
  2  7  1  0  0  0  0
  2  1  1  1  0  0  0
  4 17  1  0  0  0  0
  5  8  1  0  0  0  0
  5 15  1  0  0  0  0
  6 14  2  0  0  0  0
  7 19  1  1  0  0  0
  8 16  1  6  0  0  0
  8 18  1  0  0  0  0
  9  4  1  0  0  0  0
 11 25  1  6  0  0  0
 11 12  1  0  0  0  0
 12  3  1  6  0  0  0
 12 10  1  0  0  0  0
 14 15  1  0  0  0  0
 14 11  1  0  0  0  0
 15 13  1  6  0  0  0
 15  2  1  0  0  0  0
 16  9  1  0  0  0  0
 18 17  1  6  0  0  0
 18  7  1  0  0  0  0
 19 21  1  0  0  0  0
 19 20  1  0  0  0  0
 21 22  1  0  0  0  0
 23 22  1  0  0  0  0
 24 23  3  0  0  0  0
 25 30  1  1  0  0  0
 26 27  1  0  0  0  0
 27 25  1  0  0  0  0
 28 27  1  0  0  0  0
 30 29  1  0  0  0  0
M  END
>  <MODEL>
3

>  <REMARK>
 VINA RESULT:      -6.7      2.105      3.241
  Name = 
  7 active torsions:
  status: ('A' for Active; 'I' for Inactive)
    1  A    between atoms: C_6  and  N_8
    2  A    between atoms: C_6  and  N_21
    3  A    between atoms: N_8  and  C_13
    4  A    between atoms: C_9  and  N_21
    5  A    between atoms: N_14  and  C_28
    6  A    between atoms: C_19  and  C_28
    7  A    between atoms: C_28  and  C_29
                            x       y       z     vdW  Elec       q    Type
                         _______ _______ _______ _____ _____    ______ ____

>  <TORSDO>
F 7

$$$$
=
 OpenBabel11052417233D

 30 32  0  0  1  0  0  0  0  0999 V2000
  190.6370  177.2100  146.2770 C   0  0  0  0  0  2  0  0  0  0  0  0
  189.6980  177.4950  145.0820 C   0  0  2  0  0  3  0  0  0  0  0  0
  192.4450  173.9460  145.3260 C   0  0  0  0  0  1  0  0  0  0  0  0
  185.8880  178.1430  142.9720 C   0  0  0  0  0  2  0  0  0  0  0  0
  189.4760  177.8370  142.5620 C   0  0  0  0  0  2  0  0  0  0  0  0
  191.0040  175.5120  142.7180 O   0  0  0  0  0  0  0  0  0  0  0  0
  188.4290  176.5850  145.0480 C   0  0  2  0  0  3  0  0  0  0  0  0
  188.3530  176.8030  142.5330 C   0  0  2  0  0  3  0  0  0  0  0  0
  186.5190  178.2600  141.5850 C   0  0  0  0  0  2  0  0  0  0  0  0
  191.0860  175.7450  146.3400 C   0  0  0  0  0  2  0  0  0  0  0  0
  192.5770  176.2700  144.3140 C   0  0  2  0  0  3  0  0  0  0  0  0
  192.3920  175.4400  145.5960 C   0  0  2  0  0  3  0  0  0  0  0  0
  191.2650  178.7470  143.7860 O   0  0  0  0  0  1  0  0  0  0  0  0
  191.3350  176.4080  143.4810 C   0  0  0  0  0  0  0  0  0  0  0  0
  190.4510  177.6130  143.7250 C   0  0  1  0  0  0  0  0  0  0  0  0
  187.4270  177.0520  141.3420 C   0  0  0  0  0  2  0  0  0  0  0  0
  186.8960  178.1130  143.9520 O   0  0  0  0  0  0  0  0  0  0  0  0
  187.5400  176.8640  143.8320 C   0  0  2  0  0  3  0  0  0  0  0  0
  187.5960  176.6020  146.2660 N   0  0  0  0  0  0  0  0  0  0  0  0
  188.0050  175.5200  147.1480 C   0  0  0  0  0  1  0  0  0  0  0  0
  187.6890  177.8610  146.9990 C   0  0  0  0  0  2  0  0  0  0  0  0
  186.4460  178.1100  147.7040 N   0  0  0  0  0  2  0  0  0  0  0  0
  185.2560  178.2780  146.9870 C   0  0  0  0  0  0  0  0  0  0  0  0
  184.2310  178.4220  146.3690 C   0  0  0  0  0  3  0  0  0  0  0  0
  193.8880  176.1120  143.5250 C   0  0  1  0  0  3  0  0  0  0  0  0
  196.2740  176.5330  143.6130 C   0  0  0  0  0  1  0  0  0  0  0  0
  195.0660  176.2770  144.3910 N   0  0  0  0  0  0  0  0  0  0  0  0
  194.8470  177.4300  145.2480 C   0  0  0  0  0  1  0  0  0  0  0  0
  194.0510  175.3340  141.1590 C   0  0  0  0  0  1  0  0  0  0  0  0
  193.9390  174.8870  142.6020 C   0  0  0  0  0  2  0  0  0  0  0  0
  1 10  1  0  0  0  0
  2  1  1  1  0  0  0
  4 17  1  0  0  0  0
  5 15  1  0  0  0  0
  6 14  2  0  0  0  0
  7  2  1  0  0  0  0
  7 19  1  1  0  0  0
  8 16  1  6  0  0  0
  8  5  1  0  0  0  0
  8 18  1  0  0  0  0
  9  4  1  0  0  0  0
 11 25  1  6  0  0  0
 11 12  1  0  0  0  0
 12  3  1  6  0  0  0
 12 10  1  0  0  0  0
 14 15  1  0  0  0  0
 14 11  1  0  0  0  0
 15 13  1  1  0  0  0
 15  2  1  0  0  0  0
 16  9  1  0  0  0  0
 18 17  1  1  0  0  0
 18  7  1  0  0  0  0
 19 21  1  0  0  0  0
 19 20  1  0  0  0  0
 21 22  1  0  0  0  0
 23 22  1  0  0  0  0
 24 23  3  0  0  0  0
 25 30  1  1  0  0  0
 25 27  1  0  0  0  0
 26 27  1  0  0  0  0
 27 28  1  0  0  0  0
 29 30  1  0  0  0  0
M  END
>  <MODEL>
4

>  <REMARK>
 VINA RESULT:      -6.4      1.721      2.675
  Name = 
  7 active torsions:
  status: ('A' for Active; 'I' for Inactive)
    1  A    between atoms: C_6  and  N_8
    2  A    between atoms: C_6  and  N_21
    3  A    between atoms: N_8  and  C_13
    4  A    between atoms: C_9  and  N_21
    5  A    between atoms: N_14  and  C_28
    6  A    between atoms: C_19  and  C_28
    7  A    between atoms: C_28  and  C_29
                            x       y       z     vdW  Elec       q    Type
                         _______ _______ _______ _____ _____    ______ ____

>  <TORSDO>
F 7

$$$$
=
 OpenBabel11052417233D

 30 32  0  0  1  0  0  0  0  0999 V2000
  190.4630  175.3160  144.3030 C   0  0  0  0  0  2  0  0  0  0  0  0
  189.2240  176.1790  143.9730 C   0  0  2  0  0  3  0  0  0  0  0  0
  189.3170  171.6950  143.6700 C   0  0  0  0  0  1  0  0  0  0  0  0
  185.9420  179.0230  144.6960 C   0  0  0  0  0  2  0  0  0  0  0  0
  187.4390  176.8010  142.2560 C   0  0  0  0  0  2  0  0  0  0  0  0
  187.3520  174.0160  142.2270 O   0  0  0  0  0  0  0  0  0  0  0  0
  188.1180  176.1400  145.0750 C   0  0  2  0  0  3  0  0  0  0  0  0
  186.3620  176.5780  143.3140 C   0  0  2  0  0  3  0  0  0  0  0  0
  185.3330  178.8860  143.3010 C   0  0  0  0  0  2  0  0  0  0  0  0
  190.1070  173.8510  144.5850 C   0  0  0  0  0  2  0  0  0  0  0  0
  189.6790  173.6240  142.0620 C   0  0  2  0  0  3  0  0  0  0  0  0
  190.1390  172.9330  143.3570 C   0  0  2  0  0  3  0  0  0  0  0  0
  189.6820  176.4460  141.6440 O   0  0  0  0  0  1  0  0  0  0  0  0
  188.4730  174.5040  142.2230 C   0  0  0  0  0  0  0  0  0  0  0  0
  188.7030  175.9710  142.5210 C   0  0  1  0  0  0  0  0  0  0  0  0
  185.1160  177.4040  142.9910 C   0  0  0  0  0  2  0  0  0  0  0  0
  187.1770  178.3510  144.7440 O   0  0  0  0  0  0  0  0  0  0  0  0
  186.8870  176.9720  144.7000 C   0  0  2  0  0  3  0  0  0  0  0  0
  188.5560  176.5150  146.4340 N   0  0  0  0  0  0  0  0  0  0  0  0
  188.6660  175.3190  147.2550 C   0  0  0  0  0  1  0  0  0  0  0  0
  189.8410  177.2070  146.4440 C   0  0  0  0  0  2  0  0  0  0  0  0
  190.7170  176.5980  147.4270 N   0  0  0  0  0  2  0  0  0  0  0  0
  192.0740  176.4160  147.1380 C   0  0  0  0  0  0  0  0  0  0  0  0
  193.2430  176.2580  146.8880 C   0  0  0  0  0  3  0  0  0  0  0  0
  189.7450  172.8300  140.7460 C   0  0  1  0  0  3  0  0  0  0  0  0
  190.3550  173.7910  138.6060 C   0  0  0  0  0  1  0  0  0  0  0  0
  189.2990  173.6380  139.6010 N   0  0  0  0  0  0  0  0  0  0  0  0
  188.1910  172.9480  138.9580 C   0  0  0  0  0  1  0  0  0  0  0  0
  190.7830  170.5870  140.3910 C   0  0  0  0  0  1  0  0  0  0  0  0
  191.0600  172.0710  140.5200 C   0  0  0  0  0  2  0  0  0  0  0  0
  1 10  1  0  0  0  0
  2  1  1  1  0  0  0
  2  7  1  0  0  0  0
  4 17  1  0  0  0  0
  5 15  1  0  0  0  0
  7 19  1  1  0  0  0
  8  5  1  6  0  0  0
  8 18  1  0  0  0  0
  9  4  1  0  0  0  0
 11 25  1  6  0  0  0
 11 14  1  0  0  0  0
 11 12  1  0  0  0  0
 12  3  1  1  0  0  0
 12 10  1  0  0  0  0
 14  6  2  0  0  0  0
 14 15  1  0  0  0  0
 15 13  1  6  0  0  0
 15  2  1  0  0  0  0
 16  9  1  0  0  0  0
 16  8  1  0  0  0  0
 18 17  1  6  0  0  0
 18  7  1  0  0  0  0
 19 21  1  0  0  0  0
 19 20  1  0  0  0  0
 21 22  1  0  0  0  0
 23 22  1  0  0  0  0
 24 23  3  0  0  0  0
 25 30  1  6  0  0  0
 26 27  1  0  0  0  0
 27 25  1  0  0  0  0
 28 27  1  0  0  0  0
 29 30  1  0  0  0  0
M  END
>  <MODEL>
5

>  <REMARK>
 VINA RESULT:      -6.4      2.810      4.545
  Name = 
  7 active torsions:
  status: ('A' for Active; 'I' for Inactive)
    1  A    between atoms: C_6  and  N_8
    2  A    between atoms: C_6  and  N_21
    3  A    between atoms: N_8  and  C_13
    4  A    between atoms: C_9  and  N_21
    5  A    between atoms: N_14  and  C_28
    6  A    between atoms: C_19  and  C_28
    7  A    between atoms: C_28  and  C_29
                            x       y       z     vdW  Elec       q    Type
                         _______ _______ _______ _____ _____    ______ ____

>  <TORSDO>
F 7

$$$$
=
 OpenBabel11052417233D

 30 32  0  0  1  0  0  0  0  0999 V2000
  191.6540  177.0730  144.7030 C   0  0  0  0  0  2  0  0  0  0  0  0
  191.7070  175.5300  144.6150 C   0  0  2  0  0  3  0  0  0  0  0  0
  188.9620  178.0950  142.1480 C   0  0  0  0  0  1  0  0  0  0  0  0
  193.4700  171.5590  143.9050 C   0  0  0  0  0  2  0  0  0  0  0  0
  190.4210  173.3290  144.7440 C   0  0  0  0  0  2  0  0  0  0  0  0
  188.8270  174.8530  143.0410 O   0  0  0  0  0  0  0  0  0  0  0  0
  192.4470  174.9980  143.3460 C   0  0  2  0  0  3  0  0  0  0  0  0
  191.0250  172.9120  143.4050 C   0  0  2  0  0  3  0  0  0  0  0  0
  192.1740  170.7890  144.1500 C   0  0  0  0  0  2  0  0  0  0  0  0
  191.0190  177.7150  143.4650 C   0  0  0  0  0  2  0  0  0  0  0  0
  188.7720  176.8300  144.3390 C   0  0  2  0  0  3  0  0  0  0  0  0
  189.5040  177.9340  143.5570 C   0  0  2  0  0  3  0  0  0  0  0  0
  190.0100  175.0970  146.2380 O   0  0  0  0  0  1  0  0  0  0  0  0
  189.2420  175.4370  144.0320 C   0  0  0  0  0  0  0  0  0  0  0  0
  190.3360  174.8520  144.9010 C   0  0  1  0  0  0  0  0  0  0  0  0
  191.0620  171.3880  143.2860 C   0  0  0  0  0  2  0  0  0  0  0  0
  193.2930  172.9110  144.2480 O   0  0  0  0  0  0  0  0  0  0  0  0
  192.4470  173.4680  143.2660 C   0  0  2  0  0  3  0  0  0  0  0  0
  193.8250  175.4900  143.1550 N   0  0  0  0  0  0  0  0  0  0  0  0
  193.8910  176.2880  141.9400 C   0  0  0  0  0  1  0  0  0  0  0  0
  194.2960  176.3030  144.2720 C   0  0  0  0  0  2  0  0  0  0  0  0
  195.6930  176.0100  144.5350 N   0  0  0  0  0  2  0  0  0  0  0  0
  196.0480  174.8380  145.2110 C   0  0  0  0  0  0  0  0  0  0  0  0
  196.3530  173.8270  145.7930 C   0  0  0  0  0  3  0  0  0  0  0  0
  187.2590  176.9800  144.5710 C   0  0  1  0  0  3  0  0  0  0  0  0
  187.5080  177.4650  146.9330 C   0  0  0  0  0  1  0  0  0  0  0  0
  186.8790  176.6000  145.9410 N   0  0  0  0  0  0  0  0  0  0  0  0
  185.4400  176.7560  146.0770 C   0  0  0  0  0  1  0  0  0  0  0  0
  185.6210  178.0500  143.0210 C   0  0  0  0  0  1  0  0  0  0  0  0
  186.6640  178.3090  144.0880 C   0  0  0  0  0  2  0  0  0  0  0  0
  2  1  1  6  0  0  0
  2 15  1  0  0  0  0
  4  9  1  0  0  0  0
  4 17  1  0  0  0  0
  5 15  1  0  0  0  0
  6 14  2  0  0  0  0
  7 19  1  1  0  0  0
  7  2  1  0  0  0  0
  8 16  1  1  0  0  0
  8  5  1  0  0  0  0
 10 12  1  0  0  0  0
 10  1  1  0  0  0  0
 11 25  1  6  0  0  0
 12  3  1  6  0  0  0
 12 11  1  0  0  0  0
 14 11  1  0  0  0  0
 14 15  1  0  0  0  0
 15 13  1  1  0  0  0
 16  9  1  0  0  0  0
 18  7  1  0  0  0  0
 18  8  1  0  0  0  0
 18 17  1  1  0  0  0
 19 21  1  0  0  0  0
 20 19  1  0  0  0  0
 21 22  1  0  0  0  0
 22 23  1  0  0  0  0
 23 24  3  0  0  0  0
 25 30  1  1  0  0  0
 25 27  1  0  0  0  0
 27 28  1  0  0  0  0
 27 26  1  0  0  0  0
 29 30  1  0  0  0  0
M  END
>  <MODEL>
6

>  <REMARK>
 VINA RESULT:      -6.1      2.086      7.210
  Name = 
  7 active torsions:
  status: ('A' for Active; 'I' for Inactive)
    1  A    between atoms: C_6  and  N_8
    2  A    between atoms: C_6  and  N_21
    3  A    between atoms: N_8  and  C_13
    4  A    between atoms: C_9  and  N_21
    5  A    between atoms: N_14  and  C_28
    6  A    between atoms: C_19  and  C_28
    7  A    between atoms: C_28  and  C_29
                            x       y       z     vdW  Elec       q    Type
                         _______ _______ _______ _____ _____    ______ ____

>  <TORSDO>
F 7

$$$$
=
 OpenBabel11052417233D

 30 32  0  0  1  0  0  0  0  0999 V2000
  189.7780  174.5330  142.8770 C   0  0  0  0  0  2  0  0  0  0  0  0
  188.9510  175.1650  144.0210 C   0  0  2  0  0  3  0  0  0  0  0  0
  193.1350  176.4170  142.9570 C   0  0  0  0  0  1  0  0  0  0  0  0
  185.6110  177.3260  145.9050 C   0  0  0  0  0  2  0  0  0  0  0  0
  188.8230  175.7580  146.5010 C   0  0  0  0  0  2  0  0  0  0  0  0
  191.3360  176.7250  145.7850 O   0  0  0  0  0  0  0  0  0  0  0  0
  188.3780  176.5770  143.6760 C   0  0  2  0  0  3  0  0  0  0  0  0
  188.4380  177.1860  146.1260 C   0  0  2  0  0  3  0  0  0  0  0  0
  186.2090  177.3030  147.3110 C   0  0  0  0  0  2  0  0  0  0  0  0
  190.9340  175.4290  142.4180 C   0  0  0  0  0  2  0  0  0  0  0  0
  192.0970  174.8090  144.6230 C   0  0  2  0  0  3  0  0  0  0  0  0
  192.2640  175.1870  143.1410 C   0  0  2  0  0  3  0  0  0  0  0  0
  189.7180  173.7150  145.7560 O   0  0  0  0  0  1  0  0  0  0  0  0
  191.0610  175.6140  145.3540 C   0  0  0  0  0  0  0  0  0  0  0  0
  189.6490  175.0670  145.4090 C   0  0  1  0  0  0  0  0  0  0  0  0
  187.6410  177.8390  147.2570 C   0  0  0  0  0  2  0  0  0  0  0  0
  186.3780  176.5180  145.0480 O   0  0  0  0  0  0  0  0  0  0  0  0
  187.5990  177.1930  144.8430 C   0  0  2  0  0  3  0  0  0  0  0  0
  187.5550  176.6530  142.4540 N   0  0  0  0  0  0  0  0  0  0  0  0
  186.6890  175.4870  142.3790 C   0  0  0  0  0  1  0  0  0  0  0  0
  186.7260  177.8540  142.4030 C   0  0  0  0  0  2  0  0  0  0  0  0
  186.2790  178.0820  141.0420 N   0  0  0  0  0  2  0  0  0  0  0  0
  184.9150  178.2310  140.7680 C   0  0  0  0  0  0  0  0  0  0  0  0
  183.7400  178.3590  140.5320 C   0  0  0  0  0  3  0  0  0  0  0  0
  193.3560  174.4610  145.4350 C   0  0  1  0  0  3  0  0  0  0  0  0
  192.6860  172.2770  144.6230 C   0  0  0  0  0  1  0  0  0  0  0  0
  193.7480  173.0550  145.2520 N   0  0  0  0  0  0  0  0  0  0  0  0
  194.9020  173.0130  144.3670 C   0  0  0  0  0  1  0  0  0  0  0  0
  194.5610  176.3530  146.5300 C   0  0  0  0  0  1  0  0  0  0  0  0
  194.5050  175.4680  145.3010 C   0  0  0  0  0  2  0  0  0  0  0  0
  2  1  1  6  0  0  0
  2 15  1  0  0  0  0
  4  9  1  0  0  0  0
  7 19  1  6  0  0  0
  7  2  1  0  0  0  0
  7 18  1  0  0  0  0
  8  5  1  1  0  0  0
  8 16  1  0  0  0  0
 10  1  1  0  0  0  0
 10 12  1  0  0  0  0
 11 14  1  0  0  0  0
 11 25  1  1  0  0  0
 12  3  1  1  0  0  0
 12 11  1  0  0  0  0
 14 15  1  0  0  0  0
 14  6  2  0  0  0  0
 15 13  1  1  0  0  0
 15  5  1  0  0  0  0
 16  9  1  0  0  0  0
 17  4  1  0  0  0  0
 18 17  1  1  0  0  0
 18  8  1  0  0  0  0
 20 19  1  0  0  0  0
 21 19  1  0  0  0  0
 22 21  1  0  0  0  0
 23 22  1  0  0  0  0
 24 23  3  0  0  0  0
 25 30  1  6  0  0  0
 26 27  1  0  0  0  0
 27 25  1  0  0  0  0
 28 27  1  0  0  0  0
 30 29  1  0  0  0  0
M  END
>  <MODEL>
7

>  <REMARK>
 VINA RESULT:      -6.1      1.970      4.397
  Name = 
  7 active torsions:
  status: ('A' for Active; 'I' for Inactive)
    1  A    between atoms: C_6  and  N_8
    2  A    between atoms: C_6  and  N_21
    3  A    between atoms: N_8  and  C_13
    4  A    between atoms: C_9  and  N_21
    5  A    between atoms: N_14  and  C_28
    6  A    between atoms: C_19  and  C_28
    7  A    between atoms: C_28  and  C_29
                            x       y       z     vdW  Elec       q    Type
                         _______ _______ _______ _____ _____    ______ ____

>  <TORSDO>
F 7

$$$$
=
 OpenBabel11052417233D

 30 32  0  0  1  0  0  0  0  0999 V2000
  193.6650  172.9670  144.8970 C   0  0  0  0  0  2  0  0  0  0  0  0
  194.4370  173.6200  143.7280 C   0  0  2  0  0  3  0  0  0  0  0  0
  192.2920  175.9370  146.9270 C   0  0  0  0  0  1  0  0  0  0  0  0
  197.8950  174.6010  141.1860 C   0  0  0  0  0  2  0  0  0  0  0  0
  194.3730  175.2370  141.7530 C   0  0  0  0  0  2  0  0  0  0  0  0
  193.2350  176.7470  143.8000 O   0  0  0  0  0  0  0  0  0  0  0  0
  195.8200  174.2150  144.1420 C   0  0  2  0  0  3  0  0  0  0  0  0
  195.6320  175.9160  142.2860 C   0  0  2  0  0  3  0  0  0  0  0  0
  197.1300  175.5650  140.2820 C   0  0  0  0  0  2  0  0  0  0  0  0
  193.4500  173.9260  146.0740 C   0  0  0  0  0  2  0  0  0  0  0  0
  191.7180  175.1160  144.5960 C   0  0  2  0  0  3  0  0  0  0  0  0
  192.1430  174.7260  146.0220 C   0  0  2  0  0  3  0  0  0  0  0  0
  192.5860  173.7840  142.2270 O   0  0  0  0  0  1  0  0  0  0  0  0
  192.8430  175.5920  143.7220 C   0  0  0  0  0  0  0  0  0  0  0  0
  193.5530  174.5660  142.8640 C   0  0  1  0  0  0  0  0  0  0  0  0
  196.3970  176.5920  141.1470 C   0  0  0  0  0  2  0  0  0  0  0  0
  196.9970  173.9340  142.0400 O   0  0  0  0  0  0  0  0  0  0  0  0
  196.5420  174.8900  142.9710 C   0  0  2  0  0  3  0  0  0  0  0  0
  196.7480  173.2770  144.8030 N   0  0  0  0  0  0  0  0  0  0  0  0
  196.9610  173.6930  146.1800 C   0  0  0  0  0  1  0  0  0  0  0  0
  196.2590  171.9010  144.8020 C   0  0  0  0  0  2  0  0  0  0  0  0
  196.8960  171.1550  145.8710 N   0  0  0  0  0  2  0  0  0  0  0  0
  196.2440  170.0560  146.4410 C   0  0  0  0  0  0  0  0  0  0  0  0
  195.6830  169.1090  146.9330 C   0  0  0  0  0  3  0  0  0  0  0  0
  190.3800  175.8510  144.4070 C   0  0  1  0  0  3  0  0  0  0  0  0
  189.0630  175.4620  142.4090 C   0  0  0  0  0  1  0  0  0  0  0  0
  190.1580  176.2230  143.0010 N   0  0  0  0  0  0  0  0  0  0  0  0
  189.7880  177.6280  142.9520 C   0  0  0  0  0  1  0  0  0  0  0  0
  188.6030  176.1060  146.1420 C   0  0  0  0  0  1  0  0  0  0  0  0
  189.1780  175.1820  145.0880 C   0  0  0  0  0  2  0  0  0  0  0  0
  1 10  1  0  0  0  0
  2  7  1  0  0  0  0
  2  1  1  1  0  0  0
  4 17  1  0  0  0  0
  5  8  1  0  0  0  0
  5 15  1  0  0  0  0
  7 19  1  6  0  0  0
  8 16  1  6  0  0  0
  8 18  1  0  0  0  0
  9 16  1  0  0  0  0
  9  4  1  0  0  0  0
 11 25  1  1  0  0  0
 11 12  1  0  0  0  0
 12 10  1  0  0  0  0
 12  3  1  1  0  0  0
 14  6  2  0  0  0  0
 14 11  1  0  0  0  0
 15 13  1  6  0  0  0
 15 14  1  0  0  0  0
 15  2  1  0  0  0  0
 18 17  1  6  0  0  0
 18  7  1  0  0  0  0
 19 20  1  0  0  0  0
 21 19  1  0  0  0  0
 21 22  1  0  0  0  0
 22 23  1  0  0  0  0
 23 24  3  0  0  0  0
 25 30  1  6  0  0  0
 26 27  1  0  0  0  0
 27 25  1  0  0  0  0
 28 27  1  0  0  0  0
 30 29  1  0  0  0  0
M  END
>  <MODEL>
8

>  <REMARK>
 VINA RESULT:      -6.0      3.469      8.539
  Name = 
  7 active torsions:
  status: ('A' for Active; 'I' for Inactive)
    1  A    between atoms: C_6  and  N_8
    2  A    between atoms: C_6  and  N_21
    3  A    between atoms: N_8  and  C_13
    4  A    between atoms: C_9  and  N_21
    5  A    between atoms: N_14  and  C_28
    6  A    between atoms: C_19  and  C_28
    7  A    between atoms: C_28  and  C_29
                            x       y       z     vdW  Elec       q    Type
                         _______ _______ _______ _____ _____    ______ ____

>  <TORSDO>
F 7

$$$$
=
 OpenBabel11052417233D

 30 32  0  0  1  0  0  0  0  0999 V2000
  188.1180  173.8580  141.6150 C   0  0  0  0  0  2  0  0  0  0  0  0
  188.6900  174.1060  143.0300 C   0  0  2  0  0  3  0  0  0  0  0  0
  191.2180  173.6620  139.3400 C   0  0  0  0  0  1  0  0  0  0  0  0
  189.3570  176.2270  146.8300 C   0  0  0  0  0  2  0  0  0  0  0  0
  190.2760  173.3210  144.8700 C   0  0  0  0  0  2  0  0  0  0  0  0
  191.9030  173.2500  142.6090 O   0  0  0  0  0  0  0  0  0  0  0  0
  189.1820  175.5700  143.2620 C   0  0  2  0  0  3  0  0  0  0  0  0
  190.8630  174.7270  144.9470 C   0  0  2  0  0  3  0  0  0  0  0  0
  190.3640  175.2160  147.3750 C   0  0  0  0  0  2  0  0  0  0  0  0
  189.1100  174.2210  140.5040 C   0  0  0  0  0  2  0  0  0  0  0  0
  190.4080  172.1080  141.1750 C   0  0  2  0  0  3  0  0  0  0  0  0
  190.0090  173.0680  140.0410 C   0  0  2  0  0  3  0  0  0  0  0  0
  188.9750  171.8100  143.6240 O   0  0  0  0  0  1  0  0  0  0  0  0
  190.7810  172.7880  142.4610 C   0  0  0  0  0  0  0  0  0  0  0  0
  189.6890  173.0030  143.4890 C   0  0  1  0  0  0  0  0  0  0  0  0
  191.4590  174.9830  146.3320 C   0  0  0  0  0  2  0  0  0  0  0  0
  188.7770  175.7310  145.6480 O   0  0  0  0  0  0  0  0  0  0  0  0
  189.7800  175.7730  144.6580 C   0  0  2  0  0  3  0  0  0  0  0  0
  188.1850  176.6270  143.0070 N   0  0  0  0  0  0  0  0  0  0  0  0
  188.5950  177.4140  141.8550 C   0  0  0  0  0  1  0  0  0  0  0  0
  186.8470  176.0970  142.7570 C   0  0  0  0  0  2  0  0  0  0  0  0
  185.9550  176.4930  143.8300 N   0  0  0  0  0  2  0  0  0  0  0  0
  185.9710  177.8100  144.3040 C   0  0  0  0  0  0  0  0  0  0  0  0
  185.9850  178.9440  144.7120 C   0  0  0  0  0  3  0  0  0  0  0  0
  191.2420  170.8650  140.8200 C   0  0  1  0  0  3  0  0  0  0  0  0
  190.8270  168.6800  141.7850 C   0  0  0  0  0  1  0  0  0  0  0  0
  191.4360  169.9900  141.9870 N   0  0  0  0  0  0  0  0  0  0  0  0
  192.8630  169.7830  142.1720 C   0  0  0  0  0  1  0  0  0  0  0  0
  191.9400  170.1090  138.5460 C   0  0  0  0  0  1  0  0  0  0  0  0
  190.8000  170.1380  139.5430 C   0  0  0  0  0  2  0  0  0  0  0  0
  2  1  1  6  0  0  0
  2  7  1  0  0  0  0
  2 15  1  0  0  0  0
  4  9  1  0  0  0  0
  7 19  1  1  0  0  0
  7 18  1  0  0  0  0
  8  5  1  1  0  0  0
  8 16  1  0  0  0  0
 10  1  1  0  0  0  0
 11 25  1  6  0  0  0
 11 14  1  0  0  0  0
 12  3  1  1  0  0  0
 12 10  1  0  0  0  0
 12 11  1  0  0  0  0
 14  6  2  0  0  0  0
 14 15  1  0  0  0  0
 15 13  1  1  0  0  0
 15  5  1  0  0  0  0
 16  9  1  0  0  0  0
 17  4  1  0  0  0  0
 18  8  1  0  0  0  0
 18 17  1  1  0  0  0
 20 19  1  0  0  0  0
 21 19  1  0  0  0  0
 21 22  1  0  0  0  0
 22 23  1  0  0  0  0
 23 24  3  0  0  0  0
 25 30  1  6  0  0  0
 25 27  1  0  0  0  0
 26 27  1  0  0  0  0
 27 28  1  0  0  0  0
 29 30  1  0  0  0  0
M  END
>  <MODEL>
9

>  <REMARK>
 VINA RESULT:      -6.0      3.241      5.785
  Name = 
  7 active torsions:
  status: ('A' for Active; 'I' for Inactive)
    1  A    between atoms: C_6  and  N_8
    2  A    between atoms: C_6  and  N_21
    3  A    between atoms: N_8  and  C_13
    4  A    between atoms: C_9  and  N_21
    5  A    between atoms: N_14  and  C_28
    6  A    between atoms: C_19  and  C_28
    7  A    between atoms: C_28  and  C_29
                            x       y       z     vdW  Elec       q    Type
                         _______ _______ _______ _____ _____    ______ ____

>  <TORSDO>
F 7

$$$$
