=
 OpenBabel11052419193D

 32 35  0  0  1  0  0  0  0  0999 V2000
  189.8700  175.3970  144.5720 C   0  0  0  0  0  2  0  0  0  0  0  0
  189.9050  174.1140  145.3550 C   0  0  0  0  0  0  0  0  0  0  0  0
  188.6970  176.3070  144.9690 C   0  0  1  0  0  3  0  0  0  0  0  0
  188.4360  176.2990  146.4620 C   0  0  0  0  0  0  0  0  0  0  0  0
  188.7180  175.2110  147.1870 C   0  0  0  0  0  3  0  0  0  0  0  0
  189.4100  174.0560  146.5930 C   0  0  0  0  0  3  0  0  0  0  0  0
  188.9760  177.7150  144.4600 C   0  0  0  0  0  2  0  0  0  0  0  0
  187.8560  178.1930  143.6030 C   0  0  0  0  0  0  0  0  0  0  0  0
  184.6510  177.8130  140.6490 C   0  0  0  0  0  3  0  0  0  0  0  0
  187.7740  177.9390  142.2050 N   0  0  0  0  0  0  0  0  0  0  0  0
  184.5030  178.4700  143.0250 C   0  0  0  0  0  3  0  0  0  0  0  0
  185.8800  179.0770  142.9280 C   0  0  1  0  0  3  0  0  0  0  0  0
  186.7660  178.7760  144.0890 C   0  0  0  0  0  2  0  0  0  0  0  0
  186.6500  178.4380  141.8210 C   0  0  2  0  0  3  0  0  0  0  0  0
  183.9180  177.9370  141.9380 C   0  0  0  0  0  3  0  0  0  0  0  0
  185.9730  178.0290  140.5860 C   0  0  0  0  0  3  0  0  0  0  0  0
  187.6290  177.3880  147.0920 C   0  0  0  0  0  2  0  0  0  0  0  0
  186.1670  176.9900  147.1740 C   0  0  0  0  0  2  0  0  0  0  0  0
  185.3350  178.2020  147.5340 C   0  0  0  0  0  2  0  0  0  0  0  0
  184.1300  178.2740  146.6200 C   0  0  0  0  0  1  0  0  0  0  0  0
  190.6290  172.9410  144.7870 C   0  0  0  0  0  2  0  0  0  0  0  0
  190.6200  173.0010  143.3890 O   0  0  0  0  0  0  0  0  0  0  0  0
  189.5860  172.2600  143.0320 O   0  0  0  0  0  0  0  0  0  0  0  0
  188.2810  173.2080  141.1330 C   0  0  2  0  0  0  0  0  0  0  0  0
  189.5620  173.6130  139.0420 N   0  0  0  0  0  2  0  0  0  0  0  0
  187.1000  172.6010  141.5640 O   0  0  0  0  0  1  0  0  0  0  0  0
  190.7940  172.6150  140.9090 C   0  0  0  0  0  2  0  0  0  0  0  0
  188.2630  173.2210  139.5960 C   0  0  0  0  0  2  0  0  0  0  0  0
  189.4670  172.3460  141.6280 C   0  0  1  0  0  3  0  0  0  0  0  0
  190.5550  172.6030  139.4020 C   0  0  0  0  0  2  0  0  0  0  0  0
  188.3040  174.5230  141.6460 O   0  0  0  0  0  0  0  0  0  0  0  0
  187.1830  174.7360  142.3260 F   0  0  0  0  0  0  0  0  0  0  0  0
  1  3  1  0  0  0  0
  1  2  1  0  0  0  0
  2  6  2  0  0  0  0
  3  7  1  1  0  0  0
  3  4  1  0  0  0  0
  4 17  1  0  0  0  0
  4  5  2  0  0  0  0
  6  5  1  0  0  0  0
  8 13  1  0  0  0  0
  8  7  1  0  0  0  0
  9 15  1  0  0  0  0
 10  8  2  0  0  0  0
 12 11  1  1  0  0  0
 12 13  1  0  0  0  0
 14 16  1  1  0  0  0
 14 10  1  0  0  0  0
 14 12  1  0  0  0  0
 15 11  2  0  0  0  0
 16  9  2  0  0  0  0
 17 18  1  0  0  0  0
 18 19  1  0  0  0  0
 20 19  1  0  0  0  0
 21  2  1  0  0  0  0
 22 21  1  0  0  0  0
 23 22  1  0  0  0  0
 24 26  1  1  0  0  0
 24 29  1  0  0  0  0
 24 31  1  0  0  0  0
 25 30  1  0  0  0  0
 25 28  1  0  0  0  0
 27 29  1  0  0  0  0
 28 24  1  0  0  0  0
 29 23  1  1  0  0  0
 30 27  1  0  0  0  0
 31 32  1  0  0  0  0
M  END
>  <MODEL>
1

>  <REMARK>
 VINA RESULT:      -7.1      0.000      0.000
  Name = 
  10 active torsions:
  status: ('A' for Active; 'I' for Inactive)
    1  A    between atoms: C_2  and  C_5
    2  A    between atoms: C_2  and  C_6
    3  A    between atoms: C_3  and  O_22
    4  A    between atoms: C_4  and  C_27
    5  A    between atoms: C_13  and  C_29
    6  A    between atoms: C_14  and  C_18
    7  A    between atoms: O_16  and  C_20
    8  A    between atoms: O_16  and  O_24
    9  A    between atoms: C_18  and  C_29
   10  A    between atoms: O_24  and  C_27
                            x       y       z     vdW  Elec       q    Type
                         _______ _______ _______ _____ _____    ______ ____

>  <TORSDO>
F 10

$$$$
=
 OpenBabel11052419193D

 32 35  0  0  1  0  0  0  0  0999 V2000
  189.8080  175.4760  144.3450 C   0  0  0  0  0  2  0  0  0  0  0  0
  189.8840  174.1880  145.1160 C   0  0  0  0  0  0  0  0  0  0  0  0
  188.6080  176.3460  144.7510 C   0  0  1  0  0  3  0  0  0  0  0  0
  188.3480  176.3160  146.2430 C   0  0  0  0  0  0  0  0  0  0  0  0
  188.6640  175.2300  146.9580 C   0  0  0  0  0  3  0  0  0  0  0  0
  189.3920  174.1030  146.3530 C   0  0  0  0  0  3  0  0  0  0  0  0
  188.8430  177.7670  144.2540 C   0  0  0  0  0  2  0  0  0  0  0  0
  187.6590  178.2580  143.4960 C   0  0  0  0  0  0  0  0  0  0  0  0
  184.2270  177.9240  140.8030 C   0  0  0  0  0  3  0  0  0  0  0  0
  187.4650  178.0230  142.1050 N   0  0  0  0  0  0  0  0  0  0  0  0
  184.2710  178.5490  143.1920 C   0  0  0  0  0  3  0  0  0  0  0  0
  185.6380  179.1550  142.9940 C   0  0  1  0  0  3  0  0  0  0  0  0
  186.6130  178.8370  144.0760 C   0  0  0  0  0  2  0  0  0  0  0  0
  186.3150  178.5300  141.8200 C   0  0  2  0  0  3  0  0  0  0  0  0
  183.6000  178.0320  142.1490 C   0  0  0  0  0  3  0  0  0  0  0  0
  185.5400  178.1390  140.6370 C   0  0  0  0  0  3  0  0  0  0  0  0
  187.5080  177.3740  146.8830 C   0  0  0  0  0  2  0  0  0  0  0  0
  186.2750  176.7620  147.5220 C   0  0  0  0  0  2  0  0  0  0  0  0
  185.0930  176.9270  146.5910 C   0  0  0  0  0  2  0  0  0  0  0  0
  184.4290  178.2620  146.8530 C   0  0  0  0  0  1  0  0  0  0  0  0
  190.6430  173.0440  144.5370 C   0  0  0  0  0  2  0  0  0  0  0  0
  191.9690  173.0700  144.9830 O   0  0  0  0  0  0  0  0  0  0  0  0
  192.6470  173.5970  143.9800 O   0  0  0  0  0  0  0  0  0  0  0  0
  194.3190  175.3870  143.5290 C   0  0  2  0  0  0  0  0  0  0  0  0
  194.8600  176.8660  145.4520 N   0  0  0  0  0  2  0  0  0  0  0  0
  194.9620  174.6240  142.5520 O   0  0  0  0  0  1  0  0  0  0  0  0
  193.2740  175.0480  145.8750 C   0  0  0  0  0  2  0  0  0  0  0  0
  195.3940  176.2160  144.2520 C   0  0  0  0  0  2  0  0  0  0  0  0
  193.6560  174.4150  144.5330 C   0  0  1  0  0  3  0  0  0  0  0  0
  194.4650  175.8360  146.4120 C   0  0  0  0  0  2  0  0  0  0  0  0
  193.3900  176.2280  142.8790 O   0  0  0  0  0  0  0  0  0  0  0  0
  193.8690  176.5490  141.6820 F   0  0  0  0  0  0  0  0  0  0  0  0
  1  3  1  0  0  0  0
  1  2  1  0  0  0  0
  2  6  2  0  0  0  0
  3  7  1  1  0  0  0
  3  4  1  0  0  0  0
  4 17  1  0  0  0  0
  4  5  2  0  0  0  0
  6  5  1  0  0  0  0
  8 13  1  0  0  0  0
  8  7  1  0  0  0  0
  9 15  1  0  0  0  0
 10  8  2  0  0  0  0
 12 11  1  1  0  0  0
 12 13  1  0  0  0  0
 14 16  1  1  0  0  0
 14 10  1  0  0  0  0
 14 12  1  0  0  0  0
 15 11  2  0  0  0  0
 16  9  2  0  0  0  0
 17 18  1  0  0  0  0
 19 20  1  0  0  0  0
 19 18  1  0  0  0  0
 21 22  1  0  0  0  0
 21  2  1  0  0  0  0
 23 22  1  0  0  0  0
 24 26  1  6  0  0  0
 24 28  1  0  0  0  0
 24 29  1  0  0  0  0
 25 30  1  0  0  0  0
 27 30  1  0  0  0  0
 28 25  1  0  0  0  0
 29 23  1  6  0  0  0
 29 27  1  0  0  0  0
 31 24  1  0  0  0  0
 32 31  1  0  0  0  0
M  END
>  <MODEL>
2

>  <REMARK>
 VINA RESULT:      -6.9      2.873      4.018
  Name = 
  10 active torsions:
  status: ('A' for Active; 'I' for Inactive)
    1  A    between atoms: C_2  and  C_5
    2  A    between atoms: C_2  and  C_6
    3  A    between atoms: C_3  and  O_22
    4  A    between atoms: C_4  and  C_27
    5  A    between atoms: C_13  and  C_29
    6  A    between atoms: C_14  and  C_18
    7  A    between atoms: O_16  and  C_20
    8  A    between atoms: O_16  and  O_24
    9  A    between atoms: C_18  and  C_29
   10  A    between atoms: O_24  and  C_27
                            x       y       z     vdW  Elec       q    Type
                         _______ _______ _______ _____ _____    ______ ____

>  <TORSDO>
F 10

$$$$
=
 OpenBabel11052419193D

 32 35  0  0  1  0  0  0  0  0999 V2000
  190.2290  175.3250  143.5650 C   0  0  0  0  0  2  0  0  0  0  0  0
  189.6360  176.7040  143.6280 C   0  0  0  0  0  0  0  0  0  0  0  0
  191.4560  175.1610  144.4760 C   0  0  1  0  0  3  0  0  0  0  0  0
  191.2960  175.8790  145.8000 C   0  0  0  0  0  0  0  0  0  0  0  0
  190.5430  176.9820  145.8790 C   0  0  0  0  0  3  0  0  0  0  0  0
  189.7450  177.4460  144.7320 C   0  0  0  0  0  3  0  0  0  0  0  0
  191.7210  173.6740  144.6780 C   0  0  0  0  0  2  0  0  0  0  0  0
  193.1690  173.3720  144.5050 C   0  0  0  0  0  0  0  0  0  0  0  0
  197.4220  174.3220  144.1080 C   0  0  0  0  0  3  0  0  0  0  0  0
  193.9920  174.0070  143.5320 N   0  0  0  0  0  0  0  0  0  0  0  0
  196.2810  173.0070  145.8600 C   0  0  0  0  0  3  0  0  0  0  0  0
  195.2600  172.5630  144.8430 C   0  0  1  0  0  3  0  0  0  0  0  0
  193.8530  172.5910  145.3330 C   0  0  0  0  0  2  0  0  0  0  0  0
  195.1810  173.5500  143.7260 C   0  0  2  0  0  3  0  0  0  0  0  0
  197.3170  173.7790  145.4900 C   0  0  0  0  0  3  0  0  0  0  0  0
  196.3890  174.2380  143.2560 C   0  0  0  0  0  3  0  0  0  0  0  0
  192.1710  175.5270  146.9600 C   0  0  0  0  0  2  0  0  0  0  0  0
  193.2530  176.5750  147.1490 C   0  0  0  0  0  2  0  0  0  0  0  0
  194.5180  176.1220  146.4530 C   0  0  0  0  0  2  0  0  0  0  0  0
  194.7980  177.0310  145.2750 C   0  0  0  0  0  1  0  0  0  0  0  0
  188.7980  177.1820  142.4910 C   0  0  0  0  0  2  0  0  0  0  0  0
  187.9460  178.2060  142.9180 O   0  0  0  0  0  0  0  0  0  0  0  0
  186.7510  177.6450  142.9670 O   0  0  0  0  0  0  0  0  0  0  0  0
  185.0330  178.8630  144.2980 C   0  0  2  0  0  0  0  0  0  0  0  0
  184.2880  177.7360  146.3840 N   0  0  0  0  0  2  0  0  0  0  0  0
  185.4900  180.1080  143.8600 O   0  0  0  0  0  1  0  0  0  0  0  0
  186.0270  176.6030  145.0840 C   0  0  0  0  0  2  0  0  0  0  0  0
  184.5570  179.0300  145.7510 C   0  0  0  0  0  2  0  0  0  0  0  0
  186.2250  177.8780  144.2560 C   0  0  1  0  0  3  0  0  0  0  0  0
  185.5390  176.9850  146.4780 C   0  0  0  0  0  2  0  0  0  0  0  0
  183.9660  178.4740  143.4620 O   0  0  0  0  0  0  0  0  0  0  0  0
  182.9010  179.2110  143.7580 F   0  0  0  0  0  0  0  0  0  0  0  0
  1  2  1  0  0  0  0
  1  3  1  0  0  0  0
  2  6  2  0  0  0  0
  3  7  1  1  0  0  0
  3  4  1  0  0  0  0
  4  5  2  0  0  0  0
  4 17  1  0  0  0  0
  6  5  1  0  0  0  0
  8  7  1  0  0  0  0
  8 13  1  0  0  0  0
  9 15  1  0  0  0  0
 10 14  1  0  0  0  0
 10  8  2  0  0  0  0
 12 13  1  1  0  0  0
 12 11  1  0  0  0  0
 14 16  1  1  0  0  0
 14 12  1  0  0  0  0
 15 11  2  0  0  0  0
 16  9  2  0  0  0  0
 17 18  1  0  0  0  0
 19 18  1  0  0  0  0
 20 19  1  0  0  0  0
 21 22  1  0  0  0  0
 21  2  1  0  0  0  0
 22 23  1  0  0  0  0
 24 26  1  6  0  0  0
 24 28  1  0  0  0  0
 25 30  1  0  0  0  0
 27 30  1  0  0  0  0
 28 25  1  0  0  0  0
 29 23  1  6  0  0  0
 29 24  1  0  0  0  0
 29 27  1  0  0  0  0
 31 32  1  0  0  0  0
 31 24  1  0  0  0  0
M  END
>  <MODEL>
3

>  <REMARK>
 VINA RESULT:      -6.9      4.181      8.233
  Name = 
  10 active torsions:
  status: ('A' for Active; 'I' for Inactive)
    1  A    between atoms: C_2  and  C_5
    2  A    between atoms: C_2  and  C_6
    3  A    between atoms: C_3  and  O_22
    4  A    between atoms: C_4  and  C_27
    5  A    between atoms: C_13  and  C_29
    6  A    between atoms: C_14  and  C_18
    7  A    between atoms: O_16  and  C_20
    8  A    between atoms: O_16  and  O_24
    9  A    between atoms: C_18  and  C_29
   10  A    between atoms: O_24  and  C_27
                            x       y       z     vdW  Elec       q    Type
                         _______ _______ _______ _____ _____    ______ ____

>  <TORSDO>
F 10

$$$$
=
 OpenBabel11052419193D

 32 35  0  0  1  0  0  0  0  0999 V2000
  189.6350  175.0620  144.1440 C   0  0  0  0  0  2  0  0  0  0  0  0
  189.6660  173.7930  144.9490 C   0  0  0  0  0  0  0  0  0  0  0  0
  188.6620  176.1070  144.7130 C   0  0  1  0  0  3  0  0  0  0  0  0
  188.6750  176.1460  146.2280 C   0  0  0  0  0  0  0  0  0  0  0  0
  188.9590  175.0410  146.9260 C   0  0  0  0  0  3  0  0  0  0  0  0
  189.3990  173.8060  146.2560 C   0  0  0  0  0  3  0  0  0  0  0  0
  189.0020  177.4670  144.1180 C   0  0  0  0  0  2  0  0  0  0  0  0
  187.8170  178.0440  143.4230 C   0  0  0  0  0  0  0  0  0  0  0  0
  184.2830  177.9810  140.8440 C   0  0  0  0  0  3  0  0  0  0  0  0
  187.5650  177.8760  142.0320 N   0  0  0  0  0  0  0  0  0  0  0  0
  184.4390  178.5040  143.2530 C   0  0  0  0  0  3  0  0  0  0  0  0
  185.8250  179.0540  143.0300 C   0  0  1  0  0  3  0  0  0  0  0  0
  186.8210  178.6460  144.0620 C   0  0  0  0  0  2  0  0  0  0  0  0
  186.4310  178.4460  141.8080 C   0  0  2  0  0  3  0  0  0  0  0  0
  183.7090  178.0620  142.2150 C   0  0  0  0  0  3  0  0  0  0  0  0
  185.5990  178.1410  140.6400 C   0  0  0  0  0  3  0  0  0  0  0  0
  188.1230  177.3290  146.9560 C   0  0  0  0  0  2  0  0  0  0  0  0
  186.6850  177.0760  147.3710 C   0  0  0  0  0  2  0  0  0  0  0  0
  186.0010  178.3980  147.6480 C   0  0  0  0  0  2  0  0  0  0  0  0
  184.6190  178.3880  147.0320 C   0  0  0  0  0  1  0  0  0  0  0  0
  190.1390  172.5370  144.2990 C   0  0  0  0  0  2  0  0  0  0  0  0
  189.1270  172.0000  143.4960 O   0  0  0  0  0  0  0  0  0  0  0  0
  189.7610  171.5120  142.4450 O   0  0  0  0  0  0  0  0  0  0  0  0
  190.6000  172.1650  140.1920 C   0  0  2  0  0  0  0  0  0  0  0  0
  189.1550  173.7350  138.9180 N   0  0  0  0  0  2  0  0  0  0  0  0
  191.9330  172.0120  140.5790 O   0  0  0  0  0  1  0  0  0  0  0  0
  188.3990  173.1240  141.1660 C   0  0  0  0  0  2  0  0  0  0  0  0
  190.5370  173.3350  139.1970 C   0  0  0  0  0  2  0  0  0  0  0  0
  189.7760  172.5160  141.4540 C   0  0  1  0  0  3  0  0  0  0  0  0
  188.5530  174.2490  140.1470 C   0  0  0  0  0  2  0  0  0  0  0  0
  190.1860  170.9620  139.5810 O   0  0  0  0  0  0  0  0  0  0  0  0
  191.0470  170.6570  138.6150 F   0  0  0  0  0  0  0  0  0  0  0  0
  1  3  1  0  0  0  0
  1  2  1  0  0  0  0
  2  6  2  0  0  0  0
  3  7  1  6  0  0  0
  3  4  1  0  0  0  0
  4  5  2  0  0  0  0
  4 17  1  0  0  0  0
  6  5  1  0  0  0  0
  8 13  1  0  0  0  0
  8  7  1  0  0  0  0
  9 15  1  0  0  0  0
 10  8  2  0  0  0  0
 12 11  1  1  0  0  0
 12 13  1  0  0  0  0
 14 16  1  1  0  0  0
 14 10  1  0  0  0  0
 14 12  1  0  0  0  0
 15 11  2  0  0  0  0
 16  9  2  0  0  0  0
 17 18  1  0  0  0  0
 18 19  1  0  0  0  0
 20 19  1  0  0  0  0
 21  2  1  0  0  0  0
 22 21  1  0  0  0  0
 23 22  1  0  0  0  0
 24 26  1  1  0  0  0
 24 29  1  0  0  0  0
 25 28  1  0  0  0  0
 25 30  1  0  0  0  0
 27 29  1  0  0  0  0
 28 24  1  0  0  0  0
 29 23  1  6  0  0  0
 30 27  1  0  0  0  0
 31 24  1  0  0  0  0
 32 31  1  0  0  0  0
M  END
>  <MODEL>
4

>  <REMARK>
 VINA RESULT:      -6.7      1.569      1.979
  Name = 
  10 active torsions:
  status: ('A' for Active; 'I' for Inactive)
    1  A    between atoms: C_2  and  C_5
    2  A    between atoms: C_2  and  C_6
    3  A    between atoms: C_3  and  O_22
    4  A    between atoms: C_4  and  C_27
    5  A    between atoms: C_13  and  C_29
    6  A    between atoms: C_14  and  C_18
    7  A    between atoms: O_16  and  C_20
    8  A    between atoms: O_16  and  O_24
    9  A    between atoms: C_18  and  C_29
   10  A    between atoms: O_24  and  C_27
                            x       y       z     vdW  Elec       q    Type
                         _______ _______ _______ _____ _____    ______ ____

>  <TORSDO>
F 10

$$$$
=
 OpenBabel11052419193D

 32 35  0  0  1  0  0  0  0  0999 V2000
  192.7830  175.4310  143.1830 C   0  0  0  0  0  2  0  0  0  0  0  0
  193.4690  174.1050  143.3610 C   0  0  0  0  0  0  0  0  0  0  0  0
  191.9980  175.8690  144.4300 C   0  0  1  0  0  3  0  0  0  0  0  0
  192.7200  175.5330  145.7180 C   0  0  0  0  0  0  0  0  0  0  0  0
  193.5350  174.4730  145.7750 C   0  0  0  0  0  3  0  0  0  0  0  0
  193.8600  173.6950  144.5690 C   0  0  0  0  0  3  0  0  0  0  0  0
  191.7070  177.3610  144.3260 C   0  0  0  0  0  2  0  0  0  0  0  0
  190.2970  177.5910  143.9060 C   0  0  0  0  0  0  0  0  0  0  0  0
  186.5920  176.7440  141.7390 C   0  0  0  0  0  3  0  0  0  0  0  0
  189.8770  177.6090  142.5460 N   0  0  0  0  0  0  0  0  0  0  0  0
  186.9820  176.8230  144.1760 C   0  0  0  0  0  3  0  0  0  0  0  0
  188.0470  177.8680  143.9580 C   0  0  1  0  0  3  0  0  0  0  0  0
  189.2850  177.6600  144.7630 C   0  0  0  0  0  2  0  0  0  0  0  0
  188.5980  177.7630  142.5750 C   0  0  2  0  0  3  0  0  0  0  0  0
  186.2700  176.3520  143.1380 C   0  0  0  0  0  3  0  0  0  0  0  0
  187.7240  177.4040  141.4520 C   0  0  0  0  0  3  0  0  0  0  0  0
  192.3380  176.2100  146.9950 C   0  0  0  0  0  2  0  0  0  0  0  0
  191.4100  175.3260  147.8100 C   0  0  0  0  0  2  0  0  0  0  0  0
  189.9740  175.6410  147.4540 C   0  0  0  0  0  2  0  0  0  0  0  0
  189.3600  174.4540  146.7450 C   0  0  0  0  0  1  0  0  0  0  0  0
  193.8370  173.3150  142.1510 C   0  0  0  0  0  2  0  0  0  0  0  0
  192.8210  173.4000  141.1930 O   0  0  0  0  0  0  0  0  0  0  0  0
  191.9840  172.4270  141.5080 O   0  0  0  0  0  0  0  0  0  0  0  0
  189.5690  173.0280  141.6040 C   0  0  2  0  0  0  0  0  0  0  0  0
  188.6500  174.1250  139.5720 N   0  0  0  0  0  2  0  0  0  0  0  0
  189.2800  171.9750  142.4740 O   0  0  0  0  0  1  0  0  0  0  0  0
  191.0040  173.4550  139.4900 C   0  0  0  0  0  2  0  0  0  0  0  0
  188.3540  173.2110  140.6790 C   0  0  0  0  0  2  0  0  0  0  0  0
  190.8030  172.6250  140.7620 C   0  0  1  0  0  3  0  0  0  0  0  0
  189.6840  173.5290  138.7290 C   0  0  0  0  0  2  0  0  0  0  0  0
  189.7860  174.1850  142.3820 O   0  0  0  0  0  0  0  0  0  0  0  0
  188.8600  174.2410  143.3330 F   0  0  0  0  0  0  0  0  0  0  0  0
  1  2  1  0  0  0  0
  1  3  1  0  0  0  0
  2  6  2  0  0  0  0
  3  7  1  6  0  0  0
  3  4  1  0  0  0  0
  4  5  2  0  0  0  0
  4 17  1  0  0  0  0
  6  5  1  0  0  0  0
  8  7  1  0  0  0  0
  8 13  1  0  0  0  0
  9 15  1  0  0  0  0
 10 14  1  0  0  0  0
 10  8  2  0  0  0  0
 12 11  1  1  0  0  0
 12 13  1  0  0  0  0
 14 16  1  1  0  0  0
 14 12  1  0  0  0  0
 15 11  2  0  0  0  0
 16  9  2  0  0  0  0
 17 18  1  0  0  0  0
 19 18  1  0  0  0  0
 20 19  1  0  0  0  0
 21  2  1  0  0  0  0
 22 23  1  0  0  0  0
 22 21  1  0  0  0  0
 24 31  1  0  0  0  0
 24 26  1  1  0  0  0
 25 28  1  0  0  0  0
 27 29  1  0  0  0  0
 28 24  1  0  0  0  0
 29 23  1  1  0  0  0
 29 24  1  0  0  0  0
 30 27  1  0  0  0  0
 30 25  1  0  0  0  0
 31 32  1  0  0  0  0
M  END
>  <MODEL>
5

>  <REMARK>
 VINA RESULT:      -6.7      2.169      3.358
  Name = 
  10 active torsions:
  status: ('A' for Active; 'I' for Inactive)
    1  A    between atoms: C_2  and  C_5
    2  A    between atoms: C_2  and  C_6
    3  A    between atoms: C_3  and  O_22
    4  A    between atoms: C_4  and  C_27
    5  A    between atoms: C_13  and  C_29
    6  A    between atoms: C_14  and  C_18
    7  A    between atoms: O_16  and  C_20
    8  A    between atoms: O_16  and  O_24
    9  A    between atoms: C_18  and  C_29
   10  A    between atoms: O_24  and  C_27
                            x       y       z     vdW  Elec       q    Type
                         _______ _______ _______ _____ _____    ______ ____

>  <TORSDO>
F 10

$$$$
=
 OpenBabel11052419193D

 32 35  0  0  1  0  0  0  0  0999 V2000
  191.5580  176.8870  144.5730 C   0  0  0  0  0  2  0  0  0  0  0  0
  192.3570  176.0290  145.5130 C   0  0  0  0  0  0  0  0  0  0  0  0
  190.0640  176.9380  144.9330 C   0  0  1  0  0  3  0  0  0  0  0  0
  189.8300  176.9950  146.4290 C   0  0  0  0  0  0  0  0  0  0  0  0
  190.7060  176.4290  147.2680 C   0  0  0  0  0  3  0  0  0  0  0  0
  191.9750  175.8660  146.7810 C   0  0  0  0  0  3  0  0  0  0  0  0
  189.4300  178.1280  144.2240 C   0  0  0  0  0  2  0  0  0  0  0  0
  188.2360  177.6960  143.4440 C   0  0  0  0  0  0  0  0  0  0  0  0
  184.5360  178.2550  141.1780 C   0  0  0  0  0  3  0  0  0  0  0  0
  186.9120  178.1280  143.7340 N   0  0  0  0  0  2  0  0  0  0  0  0
  186.6800  177.2790  140.4350 C   0  0  0  0  0  3  0  0  0  0  0  0
  186.9240  176.7820  141.8370 C   0  0  1  0  0  3  0  0  0  0  0  0
  188.3170  176.9830  142.3260 C   0  0  0  0  0  3  0  0  0  0  0  0
  186.1650  177.6120  142.8190 C   0  0  2  0  0  3  0  0  0  0  0  0
  185.5350  177.9130  140.1280 C   0  0  0  0  0  3  0  0  0  0  0  0
  184.8380  178.1360  142.4790 C   0  0  0  0  0  3  0  0  0  0  0  0
  188.5100  177.4430  146.9690 C   0  0  0  0  0  2  0  0  0  0  0  0
  187.4900  176.3230  146.8810 C   0  0  0  0  0  2  0  0  0  0  0  0
  186.0950  176.9080  146.9230 C   0  0  0  0  0  2  0  0  0  0  0  0
  186.1470  178.2860  147.5480 C   0  0  0  0  0  1  0  0  0  0  0  0
  193.6610  175.4740  145.0510 C   0  0  0  0  0  2  0  0  0  0  0  0
  193.4770  174.7090  143.8950 O   0  0  0  0  0  0  0  0  0  0  0  0
  192.7690  173.6680  144.2950 O   0  0  0  0  0  0  0  0  0  0  0  0
  190.5080  172.8350  143.6610 C   0  0  2  0  0  0  0  0  0  0  0  0
  189.6900  173.5380  141.4220 N   0  0  0  0  0  2  0  0  0  0  0  0
  190.6510  171.6810  144.4340 O   0  0  0  0  0  1  0  0  0  0  0  0
  191.9380  174.2780  142.0520 C   0  0  0  0  0  2  0  0  0  0  0  0
  189.6890  172.4600  142.4150 C   0  0  0  0  0  2  0  0  0  0  0  0
  191.9210  173.2970  143.2290 C   0  0  1  0  0  3  0  0  0  0  0  0
  191.0550  173.7320  140.9350 C   0  0  0  0  0  2  0  0  0  0  0  0
  189.8280  173.7960  144.4390 O   0  0  0  0  0  0  0  0  0  0  0  0
  189.7210  173.3400  145.6820 F   0  0  0  0  0  0  0  0  0  0  0  0
  1  3  1  0  0  0  0
  1  2  1  0  0  0  0
  2  6  2  0  0  0  0
  3  7  1  6  0  0  0
  3  4  1  0  0  0  0
  4 17  1  0  0  0  0
  4  5  2  0  0  0  0
  6  5  1  0  0  0  0
  8 10  1  0  0  0  0
  8  7  1  0  0  0  0
  9 16  2  0  0  0  0
 12 11  1  6  0  0  0
 12 13  1  0  0  0  0
 12 14  1  0  0  0  0
 13  8  2  0  0  0  0
 14 16  1  6  0  0  0
 14 10  1  0  0  0  0
 15 11  2  0  0  0  0
 15  9  1  0  0  0  0
 18 19  1  0  0  0  0
 18 17  1  0  0  0  0
 19 20  1  0  0  0  0
 21  2  1  0  0  0  0
 22 23  1  0  0  0  0
 22 21  1  0  0  0  0
 24 26  1  1  0  0  0
 24 31  1  0  0  0  0
 25 28  1  0  0  0  0
 27 29  1  0  0  0  0
 28 24  1  0  0  0  0
 29 24  1  0  0  0  0
 29 23  1  1  0  0  0
 30 25  1  0  0  0  0
 30 27  1  0  0  0  0
 31 32  1  0  0  0  0
M  END
>  <MODEL>
6

>  <REMARK>
 VINA RESULT:      -6.6      1.970      2.686
  Name = 
  10 active torsions:
  status: ('A' for Active; 'I' for Inactive)
    1  A    between atoms: C_2  and  C_5
    2  A    between atoms: C_2  and  C_6
    3  A    between atoms: C_3  and  O_22
    4  A    between atoms: C_4  and  C_27
    5  A    between atoms: C_13  and  C_29
    6  A    between atoms: C_14  and  C_18
    7  A    between atoms: O_16  and  C_20
    8  A    between atoms: O_16  and  O_24
    9  A    between atoms: C_18  and  C_29
   10  A    between atoms: O_24  and  C_27
                            x       y       z     vdW  Elec       q    Type
                         _______ _______ _______ _____ _____    ______ ____

>  <TORSDO>
F 10

$$$$
=
 OpenBabel11052419193D

 32 35  0  0  1  0  0  0  0  0999 V2000
  188.2060  175.7480  143.9180 C   0  0  0  0  0  2  0  0  0  0  0  0
  187.4330  176.1870  142.7070 C   0  0  0  0  0  0  0  0  0  0  0  0
  187.7840  176.4900  145.1970 C   0  0  1  0  0  3  0  0  0  0  0  0
  186.2880  176.7170  145.2680 C   0  0  0  0  0  0  0  0  0  0  0  0
  185.5750  176.8540  144.1450 C   0  0  0  0  0  3  0  0  0  0  0  0
  186.1880  176.6520  142.8220 C   0  0  0  0  0  3  0  0  0  0  0  0
  188.2880  175.7100  146.4040 C   0  0  0  0  0  2  0  0  0  0  0  0
  189.7770  175.7150  146.4470 C   0  0  0  0  0  0  0  0  0  0  0  0
  193.8100  174.7410  145.0600 C   0  0  0  0  0  3  0  0  0  0  0  0
  190.5690  174.5370  146.3430 N   0  0  0  0  0  0  0  0  0  0  0  0
  192.7480  176.9560  145.3150 C   0  0  0  0  0  3  0  0  0  0  0  0
  191.9330  176.4180  146.4630 C   0  0  1  0  0  3  0  0  0  0  0  0
  190.5000  176.8290  146.4440 C   0  0  0  0  0  2  0  0  0  0  0  0
  191.7950  174.9360  146.3480 C   0  0  2  0  0  3  0  0  0  0  0  0
  193.6630  176.1800  144.7090 C   0  0  0  0  0  3  0  0  0  0  0  0
  192.9020  174.1250  145.8310 C   0  0  0  0  0  3  0  0  0  0  0  0
  185.6370  177.0490  146.5730 C   0  0  0  0  0  2  0  0  0  0  0  0
  184.9280  178.3880  146.4890 C   0  0  0  0  0  2  0  0  0  0  0  0
  185.7030  179.4180  147.2820 C   0  0  0  0  0  2  0  0  0  0  0  0
  186.7540  178.7210  148.1200 C   0  0  0  0  0  1  0  0  0  0  0  0
  188.0210  175.9620  141.3550 C   0  0  0  0  0  2  0  0  0  0  0  0
  188.1890  174.5920  141.1250 O   0  0  0  0  0  0  0  0  0  0  0  0
  189.3520  174.5000  140.5040 O   0  0  0  0  0  0  0  0  0  0  0  0
  191.3360  173.8960  141.8820 C   0  0  2  0  0  0  0  0  0  0  0  0
  191.0970  171.8540  143.2780 N   0  0  0  0  0  2  0  0  0  0  0  0
  192.2220  174.4680  140.9660 O   0  0  0  0  0  1  0  0  0  0  0  0
  189.1930  172.4410  141.8550 C   0  0  0  0  0  2  0  0  0  0  0  0
  192.0290  172.6640  142.4890 C   0  0  0  0  0  2  0  0  0  0  0  0
  190.0730  173.4490  141.1080 C   0  0  1  0  0  3  0  0  0  0  0  0
  190.0700  171.3130  142.3910 C   0  0  0  0  0  2  0  0  0  0  0  0
  191.0620  174.8580  142.8770 O   0  0  0  0  0  0  0  0  0  0  0  0
  191.2690  176.0680  142.3700 F   0  0  0  0  0  0  0  0  0  0  0  0
  1  3  1  0  0  0  0
  2  6  2  0  0  0  0
  2  1  1  0  0  0  0
  3  4  1  0  0  0  0
  3  7  1  1  0  0  0
  4 17  1  0  0  0  0
  5  4  2  0  0  0  0
  6  5  1  0  0  0  0
  7  8  1  0  0  0  0
  9 16  2  0  0  0  0
 10 14  1  0  0  0  0
 10  8  2  0  0  0  0
 12 11  1  6  0  0  0
 13  8  1  0  0  0  0
 13 12  1  0  0  0  0
 14 16  1  6  0  0  0
 14 12  1  0  0  0  0
 15  9  1  0  0  0  0
 15 11  2  0  0  0  0
 18 17  1  0  0  0  0
 18 19  1  0  0  0  0
 19 20  1  0  0  0  0
 21  2  1  0  0  0  0
 22 21  1  0  0  0  0
 23 22  1  0  0  0  0
 24 26  1  6  0  0  0
 24 28  1  0  0  0  0
 24 31  1  0  0  0  0
 27 30  1  0  0  0  0
 28 25  1  0  0  0  0
 29 23  1  1  0  0  0
 29 27  1  0  0  0  0
 29 24  1  0  0  0  0
 30 25  1  0  0  0  0
 32 31  1  0  0  0  0
M  END
>  <MODEL>
7

>  <REMARK>
 VINA RESULT:      -6.5      2.551      5.214
  Name = 
  10 active torsions:
  status: ('A' for Active; 'I' for Inactive)
    1  A    between atoms: C_2  and  C_5
    2  A    between atoms: C_2  and  C_6
    3  A    between atoms: C_3  and  O_22
    4  A    between atoms: C_4  and  C_27
    5  A    between atoms: C_13  and  C_29
    6  A    between atoms: C_14  and  C_18
    7  A    between atoms: O_16  and  C_20
    8  A    between atoms: O_16  and  O_24
    9  A    between atoms: C_18  and  C_29
   10  A    between atoms: O_24  and  C_27
                            x       y       z     vdW  Elec       q    Type
                         _______ _______ _______ _____ _____    ______ ____

>  <TORSDO>
F 10

$$$$
=
 OpenBabel11052419193D

 32 35  0  0  1  0  0  0  0  0999 V2000
  190.0600  177.0590  145.0080 C   0  0  0  0  0  2  0  0  0  0  0  0
  189.7750  176.9220  146.4770 C   0  0  0  0  0  0  0  0  0  0  0  0
  191.5440  177.3290  144.7100 C   0  0  1  0  0  3  0  0  0  0  0  0
  192.4700  176.5400  145.6120 C   0  0  0  0  0  0  0  0  0  0  0  0
  192.0820  176.2090  146.8490 C   0  0  0  0  0  3  0  0  0  0  0  0
  190.7120  176.4750  147.3160 C   0  0  0  0  0  3  0  0  0  0  0  0
  191.8100  177.0320  143.2400 C   0  0  0  0  0  2  0  0  0  0  0  0
  191.0060  175.8620  142.7890 C   0  0  0  0  0  0  0  0  0  0  0  0
  188.5890  173.5230  139.9910 C   0  0  0  0  0  3  0  0  0  0  0  0
  189.7120  175.9770  142.2060 N   0  0  0  0  0  0  0  0  0  0  0  0
  190.7720  172.9640  141.0010 C   0  0  0  0  0  3  0  0  0  0  0  0
  190.3910  173.7530  142.2280 C   0  0  1  0  0  3  0  0  0  0  0  0
  191.4790  174.6210  142.7610 C   0  0  0  0  0  2  0  0  0  0  0  0
  189.3640  174.7790  141.8840 C   0  0  2  0  0  3  0  0  0  0  0  0
  189.8980  172.8150  139.9900 C   0  0  0  0  0  3  0  0  0  0  0  0
  188.3290  174.4880  140.8850 C   0  0  0  0  0  3  0  0  0  0  0  0
  193.9050  176.3490  145.2380 C   0  0  0  0  0  2  0  0  0  0  0  0
  194.5520  175.3000  146.1230 C   0  0  0  0  0  2  0  0  0  0  0  0
  194.9460  174.1060  145.2820 C   0  0  0  0  0  2  0  0  0  0  0  0
  193.8670  173.0480  145.3730 C   0  0  0  0  0  1  0  0  0  0  0  0
  188.3870  177.1550  146.9680 C   0  0  0  0  0  2  0  0  0  0  0  0
  187.4750  176.4280  146.1950 O   0  0  0  0  0  0  0  0  0  0  0  0
  186.3230  177.0540  146.3650 O   0  0  0  0  0  0  0  0  0  0  0  0
  185.0330  178.5450  144.8430 C   0  0  2  0  0  0  0  0  0  0  0  0
  185.3970  178.1800  142.4120 N   0  0  0  0  0  2  0  0  0  0  0  0
  183.9880  178.6760  145.7600 O   0  0  0  0  0  1  0  0  0  0  0  0
  186.5950  176.6860  143.9390 C   0  0  0  0  0  2  0  0  0  0  0  0
  184.4170  178.5560  143.4340 C   0  0  0  0  0  2  0  0  0  0  0  0
  185.7200  177.1820  145.0950 C   0  0  1  0  0  3  0  0  0  0  0  0
  185.8090  176.7960  142.6360 C   0  0  0  0  0  2  0  0  0  0  0  0
  185.9030  179.6420  145.0190 O   0  0  0  0  0  0  0  0  0  0  0  0
  185.5550  180.6030  144.1700 F   0  0  0  0  0  0  0  0  0  0  0  0
  1  2  1  0  0  0  0
  2 21  1  0  0  0  0
  2  6  2  0  0  0  0
  3  7  1  6  0  0  0
  3  1  1  0  0  0  0
  3  4  1  0  0  0  0
  4  5  2  0  0  0  0
  5  6  1  0  0  0  0
  8  7  1  0  0  0  0
  9 16  2  0  0  0  0
 10  8  2  0  0  0  0
 12 11  1  6  0  0  0
 12 13  1  0  0  0  0
 13  8  1  0  0  0  0
 14 16  1  6  0  0  0
 14 10  1  0  0  0  0
 14 12  1  0  0  0  0
 15  9  1  0  0  0  0
 15 11  2  0  0  0  0
 17  4  1  0  0  0  0
 17 18  1  0  0  0  0
 19 20  1  0  0  0  0
 19 18  1  0  0  0  0
 22 23  1  0  0  0  0
 22 21  1  0  0  0  0
 24 31  1  0  0  0  0
 24 29  1  0  0  0  0
 24 26  1  1  0  0  0
 25 30  1  0  0  0  0
 25 28  1  0  0  0  0
 27 29  1  0  0  0  0
 28 24  1  0  0  0  0
 29 23  1  1  0  0  0
 30 27  1  0  0  0  0
 32 31  1  0  0  0  0
M  END
>  <MODEL>
8

>  <REMARK>
 VINA RESULT:      -6.5      3.363      6.387
  Name = 
  10 active torsions:
  status: ('A' for Active; 'I' for Inactive)
    1  A    between atoms: C_2  and  C_5
    2  A    between atoms: C_2  and  C_6
    3  A    between atoms: C_3  and  O_22
    4  A    between atoms: C_4  and  C_27
    5  A    between atoms: C_13  and  C_29
    6  A    between atoms: C_14  and  C_18
    7  A    between atoms: O_16  and  C_20
    8  A    between atoms: O_16  and  O_24
    9  A    between atoms: C_18  and  C_29
   10  A    between atoms: O_24  and  C_27
                            x       y       z     vdW  Elec       q    Type
                         _______ _______ _______ _____ _____    ______ ____

>  <TORSDO>
F 10

$$$$
=
 OpenBabel11052419193D

 32 35  0  0  1  0  0  0  0  0999 V2000
  187.5700  176.6030  143.0370 C   0  0  0  0  0  2  0  0  0  0  0  0
  186.9800  176.9070  141.6890 C   0  0  0  0  0  0  0  0  0  0  0  0
  187.4390  177.7740  144.0250 C   0  0  1  0  0  3  0  0  0  0  0  0
  186.1100  178.4910  143.9010 C   0  0  0  0  0  0  0  0  0  0  0  0
  185.4750  178.5290  142.7250 C   0  0  0  0  0  3  0  0  0  0  0  0
  185.9680  177.7690  141.5650 C   0  0  0  0  0  3  0  0  0  0  0  0
  187.6600  177.2490  145.4380 C   0  0  0  0  0  2  0  0  0  0  0  0
  189.1150  177.0880  145.7140 C   0  0  0  0  0  0  0  0  0  0  0  0
  192.8020  174.8700  146.5080 C   0  0  0  0  0  3  0  0  0  0  0  0
  189.6280  176.2980  146.7820 N   0  0  0  0  0  2  0  0  0  0  0  0
  192.2570  176.3470  144.6050 C   0  0  0  0  0  3  0  0  0  0  0  0
  191.3720  177.1650  145.5110 C   0  0  1  0  0  3  0  0  0  0  0  0
  190.0640  177.5490  144.9080 C   0  0  0  0  0  3  0  0  0  0  0  0
  190.9100  176.3390  146.6650 C   0  0  2  0  0  3  0  0  0  0  0  0
  192.9650  175.3160  145.0970 C   0  0  0  0  0  3  0  0  0  0  0  0
  191.8000  175.3400  147.2660 C   0  0  0  0  0  3  0  0  0  0  0  0
  185.6250  179.3750  145.0050 C   0  0  0  0  0  2  0  0  0  0  0  0
  184.2760  178.9020  145.5130 C   0  0  0  0  0  2  0  0  0  0  0  0
  184.4420  178.2900  146.8880 C   0  0  0  0  0  2  0  0  0  0  0  0
  185.5640  178.9960  147.6190 C   0  0  0  0  0  1  0  0  0  0  0  0
  187.4420  176.1270  140.5060 C   0  0  0  0  0  2  0  0  0  0  0  0
  188.4290  175.2120  140.8880 O   0  0  0  0  0  0  0  0  0  0  0  0
  188.1910  174.1400  140.1540 O   0  0  0  0  0  0  0  0  0  0  0  0
  189.9710  172.3980  140.1930 C   0  0  2  0  0  0  0  0  0  0  0  0
  190.6160  171.5680  142.4450 N   0  0  0  0  0  2  0  0  0  0  0  0
  189.6040  171.9090  138.9380 O   0  0  0  0  0  1  0  0  0  0  0  0
  188.8200  173.2310  142.3600 C   0  0  0  0  0  2  0  0  0  0  0  0
  190.4410  171.2020  141.0380 C   0  0  0  0  0  2  0  0  0  0  0  0
  188.7160  173.0270  140.8450 C   0  0  1  0  0  3  0  0  0  0  0  0
  189.3170  171.9400  143.0030 C   0  0  0  0  0  2  0  0  0  0  0  0
  191.0200  173.3240  140.0080 O   0  0  0  0  0  0  0  0  0  0  0  0
  190.9710  173.7790  138.7610 F   0  0  0  0  0  0  0  0  0  0  0  0
  1  3  1  0  0  0  0
  2  1  1  0  0  0  0
  3  7  1  1  0  0  0
  4  3  1  0  0  0  0
  4 17  1  0  0  0  0
  5  4  2  0  0  0  0
  6  2  2  0  0  0  0
  6  5  1  0  0  0  0
  7  8  1  0  0  0  0
  8 10  1  0  0  0  0
  9 16  2  0  0  0  0
 11 15  2  0  0  0  0
 12 11  1  6  0  0  0
 12 14  1  0  0  0  0
 13 12  1  0  0  0  0
 13  8  2  0  0  0  0
 14 10  1  0  0  0  0
 14 16  1  6  0  0  0
 15  9  1  0  0  0  0
 17 18  1  0  0  0  0
 18 19  1  0  0  0  0
 19 20  1  0  0  0  0
 21 22  1  0  0  0  0
 21  2  1  0  0  0  0
 23 22  1  0  0  0  0
 24 26  1  6  0  0  0
 24 29  1  0  0  0  0
 24 28  1  0  0  0  0
 25 30  1  0  0  0  0
 27 30  1  0  0  0  0
 28 25  1  0  0  0  0
 29 23  1  6  0  0  0
 29 27  1  0  0  0  0
 31 24  1  0  0  0  0
 32 31  1  0  0  0  0
M  END
>  <MODEL>
9

>  <REMARK>
 VINA RESULT:      -6.5      2.362      5.167
  Name = 
  10 active torsions:
  status: ('A' for Active; 'I' for Inactive)
    1  A    between atoms: C_2  and  C_5
    2  A    between atoms: C_2  and  C_6
    3  A    between atoms: C_3  and  O_22
    4  A    between atoms: C_4  and  C_27
    5  A    between atoms: C_13  and  C_29
    6  A    between atoms: C_14  and  C_18
    7  A    between atoms: O_16  and  C_20
    8  A    between atoms: O_16  and  O_24
    9  A    between atoms: C_18  and  C_29
   10  A    between atoms: O_24  and  C_27
                            x       y       z     vdW  Elec       q    Type
                         _______ _______ _______ _____ _____    ______ ____

>  <TORSDO>
F 10

$$$$
