=
 OpenBabel11052417323D

 25 28  0  0  1  0  0  0  0  0999 V2000
  186.7540  177.6980  143.9260 C   0  0  0  0  0  0  0  0  0  0  0  0
  186.0770  177.9780  142.7260 C   0  0  0  0  0  0  0  0  0  0  0  0
  188.6370  176.8240  142.6710 C   0  0  0  0  0  3  0  0  0  0  0  0
  186.3290  177.9240  145.2490 C   0  0  0  0  0  0  0  0  0  0  0  0
  182.5380  178.2780  141.5270 N   0  0  0  0  0  2  0  0  0  0  0  0
  185.8380  178.2110  147.9850 C   0  0  0  0  0  3  0  0  0  0  0  0
  187.9730  177.1050  141.5160 N   0  0  0  0  0  0  0  0  0  0  0  0
  187.2710  177.5180  146.1930 C   0  0  0  0  0  0  0  0  0  0  0  0
  187.0510  177.6490  147.5610 C   0  0  0  0  0  3  0  0  0  0  0  0
  186.0340  178.0020  140.2110 C   0  0  1  0  0  3  0  0  0  0  0  0
  186.4390  177.0620  139.0880 C   0  0  0  0  0  1  0  0  0  0  0  0
  184.7400  178.6660  142.6940 C   0  0  0  0  0  2  0  0  0  0  0  0
  184.8780  178.6250  147.0450 C   0  0  0  0  0  3  0  0  0  0  0  0
  188.0190  177.1190  143.8800 C   0  0  0  0  0  0  0  0  0  0  0  0
  188.6330  176.8790  145.4320 S   0  0  0  0  0  0  0  0  0  0  0  0
  184.5780  177.9750  140.3590 N   0  0  0  0  0  0  0  0  0  0  0  0
  185.1190  178.4840  145.6690 C   0  0  0  0  0  3  0  0  0  0  0  0
  183.9640  178.2860  141.4650 C   0  0  0  0  0  0  0  0  0  0  0  0
  186.7190  177.6530  141.5100 C   0  0  0  0  0  0  0  0  0  0  0  0
  181.7100  177.9230  140.3850 C   0  0  0  0  0  2  0  0  0  0  0  0
  180.3430  178.5540  140.5380 C   0  0  0  0  0  2  0  0  0  0  0  0
  180.1190  178.9230  141.9920 C   0  0  0  0  0  2  0  0  0  0  0  0
  178.7310  178.6910  142.3510 N   0  0  0  0  0  0  0  0  0  0  0  0
  178.5010  177.2640  142.2210 C   0  0  0  0  0  1  0  0  0  0  0  0
  178.6100  178.9830  143.6680 O   0  0  0  0  0  1  0  0  0  0  0  0
  1  4  1  0  0  0  0
  2  1  1  0  0  0  0
  3 14  1  0  0  0  0
  4 17  2  0  0  0  0
  4  8  1  0  0  0  0
  7  3  2  0  0  0  0
  8  9  2  0  0  0  0
  9  6  1  0  0  0  0
 10 11  1  6  0  0  0
 10 16  1  0  0  0  0
 10 19  1  0  0  0  0
 12  2  1  0  0  0  0
 13  6  2  0  0  0  0
 14  1  2  0  0  0  0
 14 15  1  0  0  0  0
 15  8  1  0  0  0  0
 16 18  2  0  0  0  0
 17 13  1  0  0  0  0
 18  5  1  0  0  0  0
 18 12  1  0  0  0  0
 19  7  1  0  0  0  0
 19  2  2  0  0  0  0
 20 21  1  0  0  0  0
 20  5  1  0  0  0  0
 21 22  1  0  0  0  0
 22 23  1  0  0  0  0
 23 25  1  0  0  0  0
 24 23  1  0  0  0  0
M  END
>  <MODEL>
1

>  <REMARK>
 VINA RESULT:      -7.5      0.000      0.000
  Name = 
  4 active torsions:
  status: ('A' for Active; 'I' for Inactive)
    1  A    between atoms: N_2  and  C_25
    2  A    between atoms: N_6  and  C_15
    3  A    between atoms: C_15  and  C_21
    4  A    between atoms: C_21  and  C_25
                            x       y       z     vdW  Elec       q    Type
                         _______ _______ _______ _____ _____    ______ ____

>  <TORSDO>
F 4

$$$$
=
 OpenBabel11052417323D

 25 28  0  0  1  0  0  0  0  0999 V2000
  187.1530  176.6050  144.3570 C   0  0  0  0  0  0  0  0  0  0  0  0
  188.3140  175.8130  144.4120 C   0  0  0  0  0  0  0  0  0  0  0  0
  187.1260  176.4110  141.9390 C   0  0  0  0  0  3  0  0  0  0  0  0
  186.4330  177.1860  145.4170 C   0  0  0  0  0  0  0  0  0  0  0  0
  191.2850  175.3770  146.6550 N   0  0  0  0  0  2  0  0  0  0  0  0
  184.7590  178.4870  147.2380 C   0  0  0  0  0  3  0  0  0  0  0  0
  188.2460  175.6400  142.0070 N   0  0  0  0  0  0  0  0  0  0  0  0
  185.3250  177.9110  144.9810 C   0  0  0  0  0  0  0  0  0  0  0  0
  184.4760  178.5680  145.8670 C   0  0  0  0  0  3  0  0  0  0  0  0
  190.0660  174.4430  143.2390 C   0  0  1  0  0  3  0  0  0  0  0  0
  190.9100  174.5660  141.9820 C   0  0  0  0  0  1  0  0  0  0  0  0
  188.9470  175.3970  145.7120 C   0  0  0  0  0  2  0  0  0  0  0  0
  185.8740  177.7600  147.6940 C   0  0  0  0  0  3  0  0  0  0  0  0
  186.5830  176.8980  143.1210 C   0  0  0  0  0  0  0  0  0  0  0  0
  185.2070  177.8550  143.3010 S   0  0  0  0  0  0  0  0  0  0  0  0
  190.9000  174.7340  144.4070 N   0  0  0  0  0  0  0  0  0  0  0  0
  186.7180  177.1050  146.7840 C   0  0  0  0  0  3  0  0  0  0  0  0
  190.4200  175.1510  145.5440 C   0  0  0  0  0  0  0  0  0  0  0  0
  188.8570  175.3450  143.1950 C   0  0  0  0  0  0  0  0  0  0  0  0
  192.7220  175.1640  146.5790 C   0  0  0  0  0  2  0  0  0  0  0  0
  193.4300  176.5030  146.5720 C   0  0  0  0  0  2  0  0  0  0  0  0
  193.7780  176.8800  145.1450 C   0  0  0  0  0  2  0  0  0  0  0  0
  194.3700  175.7410  144.4640 N   0  0  0  0  0  0  0  0  0  0  0  0
  194.2000  175.9730  143.0420 C   0  0  0  0  0  1  0  0  0  0  0  0
  195.7010  175.7850  144.7060 O   0  0  0  0  0  1  0  0  0  0  0  0
  1  2  1  0  0  0  0
  1  4  1  0  0  0  0
  2 12  1  0  0  0  0
  3  7  2  0  0  0  0
  3 14  1  0  0  0  0
  4 17  1  0  0  0  0
  6 13  1  0  0  0  0
  7 19  1  0  0  0  0
  8  4  2  0  0  0  0
  8  9  1  0  0  0  0
  9  6  2  0  0  0  0
 10 11  1  6  0  0  0
 10 16  1  0  0  0  0
 14 15  1  0  0  0  0
 14  1  2  0  0  0  0
 15  8  1  0  0  0  0
 16 18  2  0  0  0  0
 17 13  2  0  0  0  0
 18 12  1  0  0  0  0
 18  5  1  0  0  0  0
 19 10  1  0  0  0  0
 19  2  2  0  0  0  0
 20  5  1  0  0  0  0
 21 20  1  0  0  0  0
 22 21  1  0  0  0  0
 23 25  1  0  0  0  0
 23 22  1  0  0  0  0
 24 23  1  0  0  0  0
M  END
>  <MODEL>
2

>  <REMARK>
 VINA RESULT:      -7.4      5.260      8.542
  Name = 
  4 active torsions:
  status: ('A' for Active; 'I' for Inactive)
    1  A    between atoms: N_2  and  C_25
    2  A    between atoms: N_6  and  C_15
    3  A    between atoms: C_15  and  C_21
    4  A    between atoms: C_21  and  C_25
                            x       y       z     vdW  Elec       q    Type
                         _______ _______ _______ _____ _____    ______ ____

>  <TORSDO>
F 4

$$$$
=
 OpenBabel11052417323D

 25 28  0  0  1  0  0  0  0  0999 V2000
  187.1560  177.6990  144.6460 C   0  0  0  0  0  0  0  0  0  0  0  0
  188.5440  177.4870  144.7320 C   0  0  0  0  0  0  0  0  0  0  0  0
  186.9760  177.5580  147.0610 C   0  0  0  0  0  3  0  0  0  0  0  0
  186.3670  177.9030  143.4990 C   0  0  0  0  0  0  0  0  0  0  0  0
  191.2810  176.0560  142.6080 N   0  0  0  0  0  2  0  0  0  0  0  0
  184.4880  178.3300  141.4750 C   0  0  0  0  0  3  0  0  0  0  0  0
  188.3220  177.3590  147.1310 N   0  0  0  0  0  0  0  0  0  0  0  0
  185.0170  178.0800  143.8000 C   0  0  0  0  0  0  0  0  0  0  0  0
  184.0620  178.2950  142.8110 C   0  0  0  0  0  3  0  0  0  0  0  0
  190.6050  177.1360  146.1300 C   0  0  1  0  0  3  0  0  0  0  0  0
  190.9890  176.3160  147.3500 C   0  0  0  0  0  1  0  0  0  0  0  0
  189.4420  177.5170  143.5260 C   0  0  0  0  0  2  0  0  0  0  0  0
  185.8460  178.1520  141.1550 C   0  0  0  0  0  3  0  0  0  0  0  0
  186.3940  177.7240  145.8110 C   0  0  0  0  0  0  0  0  0  0  0  0
  184.7670  177.9930  145.4640 S   0  0  0  0  0  0  0  0  0  0  0  0
  191.1600  176.5040  144.9320 N   0  0  0  0  0  0  0  0  0  0  0  0
  186.7940  177.9370  142.1680 C   0  0  0  0  0  3  0  0  0  0  0  0
  190.6650  176.6710  143.7390 C   0  0  0  0  0  0  0  0  0  0  0  0
  189.1100  177.3040  146.0130 C   0  0  0  0  0  0  0  0  0  0  0  0
  192.4660  175.2210  142.7240 C   0  0  0  0  0  2  0  0  0  0  0  0
  193.6730  175.9890  142.2290 C   0  0  0  0  0  2  0  0  0  0  0  0
  194.7380  176.0040  143.3080 C   0  0  0  0  0  2  0  0  0  0  0  0
  196.0520  176.1300  142.7030 N   0  0  0  0  0  0  0  0  0  0  0  0
  195.8480  176.6950  141.3810 C   0  0  0  0  0  1  0  0  0  0  0  0
  196.7300  177.0580  143.4190 O   0  0  0  0  0  1  0  0  0  0  0  0
  1  2  2  0  0  0  0
  1 14  1  0  0  0  0
  2 19  1  0  0  0  0
  3  7  1  0  0  0  0
  4  8  1  0  0  0  0
  4  1  1  0  0  0  0
  5 20  1  0  0  0  0
  5 18  1  0  0  0  0
  6  9  1  0  0  0  0
  8 15  1  0  0  0  0
  9  8  2  0  0  0  0
 10 11  1  1  0  0  0
 12 18  1  0  0  0  0
 12  2  1  0  0  0  0
 13  6  2  0  0  0  0
 13 17  1  0  0  0  0
 14  3  2  0  0  0  0
 15 14  1  0  0  0  0
 16 10  1  0  0  0  0
 17  4  2  0  0  0  0
 18 16  2  0  0  0  0
 19 10  1  0  0  0  0
 19  7  2  0  0  0  0
 21 20  1  0  0  0  0
 21 22  1  0  0  0  0
 23 22  1  0  0  0  0
 23 25  1  0  0  0  0
 24 23  1  0  0  0  0
M  END
>  <MODEL>
3

>  <REMARK>
 VINA RESULT:      -7.1      5.279      9.183
  Name = 
  4 active torsions:
  status: ('A' for Active; 'I' for Inactive)
    1  A    between atoms: N_2  and  C_25
    2  A    between atoms: N_6  and  C_15
    3  A    between atoms: C_15  and  C_21
    4  A    between atoms: C_21  and  C_25
                            x       y       z     vdW  Elec       q    Type
                         _______ _______ _______ _____ _____    ______ ____

>  <TORSDO>
F 4

$$$$
=
 OpenBabel11052417323D

 25 28  0  0  1  0  0  0  0  0999 V2000
  186.9880  177.7630  144.7780 C   0  0  0  0  0  0  0  0  0  0  0  0
  188.3620  177.4750  144.8570 C   0  0  0  0  0  0  0  0  0  0  0  0
  186.8550  177.8320  147.1990 C   0  0  0  0  0  3  0  0  0  0  0  0
  186.1870  177.9190  143.6320 C   0  0  0  0  0  0  0  0  0  0  0  0
  190.9620  175.7110  142.8120 N   0  0  0  0  0  2  0  0  0  0  0  0
  184.2910  178.2920  141.6130 C   0  0  0  0  0  3  0  0  0  0  0  0
  188.1870  177.5590  147.2620 N   0  0  0  0  0  0  0  0  0  0  0  0
  184.8570  178.2020  143.9410 C   0  0  0  0  0  0  0  0  0  0  0  0
  183.8930  178.3920  142.9550 C   0  0  0  0  0  3  0  0  0  0  0  0
  190.4300  177.1160  146.2440 C   0  0  1  0  0  3  0  0  0  0  0  0
  190.7930  176.3780  147.5200 C   0  0  0  0  0  1  0  0  0  0  0  0
  189.2330  177.3520  143.6370 C   0  0  0  0  0  2  0  0  0  0  0  0
  185.6280  178.0060  141.2860 C   0  0  0  0  0  3  0  0  0  0  0  0
  186.2550  177.9300  145.9500 C   0  0  0  0  0  0  0  0  0  0  0  0
  184.6390  178.2670  145.6110 S   0  0  0  0  0  0  0  0  0  0  0  0
  190.9200  176.3550  145.0930 N   0  0  0  0  0  0  0  0  0  0  0  0
  186.5850  177.8170  142.2960 C   0  0  0  0  0  3  0  0  0  0  0  0
  190.4090  176.4530  143.8980 C   0  0  0  0  0  0  0  0  0  0  0  0
  188.9450  177.3640  146.1390 C   0  0  0  0  0  0  0  0  0  0  0  0
  192.0980  174.8180  142.9770 C   0  0  0  0  0  2  0  0  0  0  0  0
  191.6430  173.3860  142.7990 C   0  0  0  0  0  2  0  0  0  0  0  0
  191.1460  172.8470  144.1260 C   0  0  0  0  0  2  0  0  0  0  0  0
  189.6940  172.8020  144.1280 N   0  0  0  0  0  0  0  0  0  0  0  0
  189.2960  172.2300  142.8540 C   0  0  0  0  0  1  0  0  0  0  0  0
  189.3280  171.9130  145.0810 O   0  0  0  0  0  1  0  0  0  0  0  0
  1  2  2  0  0  0  0
  1 14  1  0  0  0  0
  2 19  1  0  0  0  0
  3  7  1  0  0  0  0
  4  8  1  0  0  0  0
  4  1  1  0  0  0  0
  5 20  1  0  0  0  0
  5 18  1  0  0  0  0
  6  9  1  0  0  0  0
  8 15  1  0  0  0  0
  9  8  2  0  0  0  0
 10 11  1  1  0  0  0
 12 18  1  0  0  0  0
 12  2  1  0  0  0  0
 13  6  2  0  0  0  0
 13 17  1  0  0  0  0
 14  3  2  0  0  0  0
 15 14  1  0  0  0  0
 16 10  1  0  0  0  0
 17  4  2  0  0  0  0
 18 16  2  0  0  0  0
 19 10  1  0  0  0  0
 19  7  2  0  0  0  0
 21 20  1  0  0  0  0
 21 22  1  0  0  0  0
 22 23  1  0  0  0  0
 23 25  1  0  0  0  0
 24 23  1  0  0  0  0
M  END
>  <MODEL>
4

>  <REMARK>
 VINA RESULT:      -6.9      4.573      7.841
  Name = 
  4 active torsions:
  status: ('A' for Active; 'I' for Inactive)
    1  A    between atoms: N_2  and  C_25
    2  A    between atoms: N_6  and  C_15
    3  A    between atoms: C_15  and  C_21
    4  A    between atoms: C_21  and  C_25
                            x       y       z     vdW  Elec       q    Type
                         _______ _______ _______ _____ _____    ______ ____

>  <TORSDO>
F 4

$$$$
=
 OpenBabel11052417323D

 25 28  0  0  1  0  0  0  0  0999 V2000
  187.5600  176.7450  143.7880 C   0  0  0  0  0  0  0  0  0  0  0  0
  188.4900  175.6930  143.7110 C   0  0  0  0  0  0  0  0  0  0  0  0
  187.3230  176.7230  141.3740 C   0  0  0  0  0  3  0  0  0  0  0  0
  187.0780  177.4110  144.9300 C   0  0  0  0  0  0  0  0  0  0  0  0
  191.4060  174.4020  145.6810 N   0  0  0  0  0  2  0  0  0  0  0  0
  185.9050  178.9570  146.9410 C   0  0  0  0  0  3  0  0  0  0  0  0
  188.2200  175.7000  141.3130 N   0  0  0  0  0  0  0  0  0  0  0  0
  186.1570  178.4110  144.6200 C   0  0  0  0  0  0  0  0  0  0  0  0
  185.5580  179.1940  145.6030 C   0  0  0  0  0  3  0  0  0  0  0  0
  189.7670  174.0190  142.3350 C   0  0  1  0  0  3  0  0  0  0  0  0
  190.5280  174.0160  141.0200 C   0  0  0  0  0  1  0  0  0  0  0  0
  189.0870  175.0510  144.9340 C   0  0  0  0  0  2  0  0  0  0  0  0
  186.8330  177.9530  147.2690 C   0  0  0  0  0  3  0  0  0  0  0  0
  186.9970  177.2480  142.6180 C   0  0  0  0  0  0  0  0  0  0  0  0
  185.9150  178.4960  142.9540 S   0  0  0  0  0  0  0  0  0  0  0  0
  190.7230  174.0210  143.4440 N   0  0  0  0  0  0  0  0  0  0  0  0
  187.4260  177.1740  146.2630 C   0  0  0  0  0  3  0  0  0  0  0  0
  190.4380  174.4670  144.6350 C   0  0  0  0  0  0  0  0  0  0  0  0
  188.8180  175.1880  142.4330 C   0  0  0  0  0  0  0  0  0  0  0  0
  192.7380  173.8520  145.4780 C   0  0  0  0  0  2  0  0  0  0  0  0
  193.7700  174.8250  146.0080 C   0  0  0  0  0  2  0  0  0  0  0  0
  193.1210  176.1770  146.2290 C   0  0  0  0  0  2  0  0  0  0  0  0
  193.6450  177.1380  145.2730 N   0  0  0  0  0  0  0  0  0  0  0  0
  194.9360  176.6320  144.8420 C   0  0  0  0  0  1  0  0  0  0  0  0
  192.8340  177.1000  144.1900 O   0  0  0  0  0  1  0  0  0  0  0  0
  1  4  1  0  0  0  0
  2  1  1  0  0  0  0
  2 12  1  0  0  0  0
  3 14  1  0  0  0  0
  4 17  1  0  0  0  0
  6 13  1  0  0  0  0
  7  3  2  0  0  0  0
  7 19  1  0  0  0  0
  8  4  2  0  0  0  0
  8  9  1  0  0  0  0
  9  6  2  0  0  0  0
 10 11  1  6  0  0  0
 10 19  1  0  0  0  0
 10 16  1  0  0  0  0
 14 15  1  0  0  0  0
 14  1  2  0  0  0  0
 15  8  1  0  0  0  0
 16 18  2  0  0  0  0
 17 13  2  0  0  0  0
 18 12  1  0  0  0  0
 18  5  1  0  0  0  0
 19  2  2  0  0  0  0
 20  5  1  0  0  0  0
 20 21  1  0  0  0  0
 21 22  1  0  0  0  0
 23 22  1  0  0  0  0
 24 23  1  0  0  0  0
 25 23  1  0  0  0  0
M  END
>  <MODEL>
5

>  <REMARK>
 VINA RESULT:      -6.9      4.953      8.289
  Name = 
  4 active torsions:
  status: ('A' for Active; 'I' for Inactive)
    1  A    between atoms: N_2  and  C_25
    2  A    between atoms: N_6  and  C_15
    3  A    between atoms: C_15  and  C_21
    4  A    between atoms: C_21  and  C_25
                            x       y       z     vdW  Elec       q    Type
                         _______ _______ _______ _____ _____    ______ ____

>  <TORSDO>
F 4

$$$$
=
 OpenBabel11052417323D

 25 28  0  0  1  0  0  0  0  0999 V2000
  187.8980  176.5260  144.9730 C   0  0  0  0  0  0  0  0  0  0  0  0
  188.6740  175.7020  144.1380 C   0  0  0  0  0  0  0  0  0  0  0  0
  188.7070  175.3280  146.9210 C   0  0  0  0  0  3  0  0  0  0  0  0
  187.0500  177.5900  144.6150 C   0  0  0  0  0  0  0  0  0  0  0  0
  188.5820  174.4310  140.6130 N   0  0  0  0  0  2  0  0  0  0  0  0
  185.2890  179.7380  144.3000 C   0  0  0  0  0  3  0  0  0  0  0  0
  189.4580  174.5410  146.1020 N   0  0  0  0  0  0  0  0  0  0  0  0
  186.4380  178.1840  145.7190 C   0  0  0  0  0  0  0  0  0  0  0  0
  185.5580  179.2540  145.5890 C   0  0  0  0  0  3  0  0  0  0  0  0
  190.3370  173.8340  143.8680 C   0  0  1  0  0  3  0  0  0  0  0  0
  190.5580  172.4540  144.4640 C   0  0  0  0  0  1  0  0  0  0  0  0
  188.7550  175.9070  142.6500 C   0  0  0  0  0  2  0  0  0  0  0  0
  185.8980  179.1490  143.1770 C   0  0  0  0  0  3  0  0  0  0  0  0
  187.9210  176.3210  146.3490 C   0  0  0  0  0  0  0  0  0  0  0  0
  186.9210  177.4220  147.1430 S   0  0  0  0  0  0  0  0  0  0  0  0
  189.7730  173.6920  142.5240 N   0  0  0  0  0  0  0  0  0  0  0  0
  186.7830  178.0700  143.3290 C   0  0  0  0  0  3  0  0  0  0  0  0
  189.0670  174.6190  141.9410 C   0  0  0  0  0  0  0  0  0  0  0  0
  189.4510  174.6880  144.7420 C   0  0  0  0  0  0  0  0  0  0  0  0
  188.8370  173.2160  139.8550 C   0  0  0  0  0  2  0  0  0  0  0  0
  189.7040  173.5420  138.6580 C   0  0  0  0  0  2  0  0  0  0  0  0
  188.8380  173.6230  137.4160 C   0  0  0  0  0  2  0  0  0  0  0  0
  189.6550  173.9720  136.2670 N   0  0  0  0  0  0  0  0  0  0  0  0
  189.0010  175.0940  135.6180 C   0  0  0  0  0  1  0  0  0  0  0  0
  190.8330  174.4380  136.7460 O   0  0  0  0  0  1  0  0  0  0  0  0
  1 14  2  0  0  0  0
  2 19  2  0  0  0  0
  2  1  1  0  0  0  0
  4  1  1  0  0  0  0
  4  8  1  0  0  0  0
  5 18  1  0  0  0  0
  6  9  1  0  0  0  0
  7  3  2  0  0  0  0
  8 15  1  0  0  0  0
  9  8  2  0  0  0  0
 10 11  1  1  0  0  0
 10 19  1  0  0  0  0
 12  2  1  0  0  0  0
 13 17  1  0  0  0  0
 13  6  2  0  0  0  0
 14  3  1  0  0  0  0
 14 15  1  0  0  0  0
 16 10  1  0  0  0  0
 17  4  2  0  0  0  0
 18 16  2  0  0  0  0
 18 12  1  0  0  0  0
 19  7  1  0  0  0  0
 20  5  1  0  0  0  0
 21 20  1  0  0  0  0
 22 21  1  0  0  0  0
 23 25  1  0  0  0  0
 23 22  1  0  0  0  0
 24 23  1  0  0  0  0
M  END
>  <MODEL>
6

>  <REMARK>
 VINA RESULT:      -6.8      5.085      7.242
  Name = 
  4 active torsions:
  status: ('A' for Active; 'I' for Inactive)
    1  A    between atoms: N_2  and  C_25
    2  A    between atoms: N_6  and  C_15
    3  A    between atoms: C_15  and  C_21
    4  A    between atoms: C_21  and  C_25
                            x       y       z     vdW  Elec       q    Type
                         _______ _______ _______ _____ _____    ______ ____

>  <TORSDO>
F 4

$$$$
=
 OpenBabel11052417323D

 25 28  0  0  1  0  0  0  0  0999 V2000
  187.2690  176.7100  144.4070 C   0  0  0  0  0  0  0  0  0  0  0  0
  188.5480  176.1290  144.4780 C   0  0  0  0  0  0  0  0  0  0  0  0
  187.1730  176.2300  142.0310 C   0  0  0  0  0  3  0  0  0  0  0  0
  186.5070  177.2870  145.4400 C   0  0  0  0  0  0  0  0  0  0  0  0
  191.6420  176.4510  146.5690 N   0  0  0  0  0  2  0  0  0  0  0  0
  184.7160  178.5040  147.2060 C   0  0  0  0  0  3  0  0  0  0  0  0
  188.4100  175.6650  142.1140 N   0  0  0  0  0  0  0  0  0  0  0  0
  185.2750  177.7650  144.9950 C   0  0  0  0  0  0  0  0  0  0  0  0
  184.3650  178.3750  145.8540 C   0  0  0  0  0  3  0  0  0  0  0  0
  190.4560  174.9330  143.3560 C   0  0  1  0  0  3  0  0  0  0  0  0
  191.2130  175.0430  142.0440 C   0  0  0  0  0  1  0  0  0  0  0  0
  189.2960  175.9790  145.7740 C   0  0  0  0  0  2  0  0  0  0  0  0
  185.9550  178.0270  147.6690 C   0  0  0  0  0  3  0  0  0  0  0  0
  186.6060  176.7580  143.1840 C   0  0  0  0  0  0  0  0  0  0  0  0
  185.0970  177.4930  143.3410 S   0  0  0  0  0  0  0  0  0  0  0  0
  191.2760  175.4920  144.4330 N   0  0  0  0  0  0  0  0  0  0  0  0
  186.8590  177.4150  146.7870 C   0  0  0  0  0  3  0  0  0  0  0  0
  190.7810  175.9570  145.5440 C   0  0  0  0  0  0  0  0  0  0  0  0
  189.1110  175.6150  143.2890 C   0  0  0  0  0  0  0  0  0  0  0  0
  193.0900  176.4670  146.4290 C   0  0  0  0  0  2  0  0  0  0  0  0
  193.6220  175.0530  146.5330 C   0  0  0  0  0  2  0  0  0  0  0  0
  194.8940  174.9330  145.7180 C   0  0  0  0  0  2  0  0  0  0  0  0
  194.8360  173.7450  144.8830 N   0  0  0  0  0  0  0  0  0  0  0  0
  193.7630  172.9210  145.4090 C   0  0  0  0  0  1  0  0  0  0  0  0
  194.4450  174.1480  143.6510 O   0  0  0  0  0  1  0  0  0  0  0  0
  1  2  1  0  0  0  0
  1  4  1  0  0  0  0
  2 12  1  0  0  0  0
  3  7  2  0  0  0  0
  3 14  1  0  0  0  0
  4 17  1  0  0  0  0
  6 13  1  0  0  0  0
  7 19  1  0  0  0  0
  8  4  2  0  0  0  0
  8  9  1  0  0  0  0
  9  6  2  0  0  0  0
 10 11  1  6  0  0  0
 10 16  1  0  0  0  0
 14 15  1  0  0  0  0
 14  1  2  0  0  0  0
 15  8  1  0  0  0  0
 16 18  2  0  0  0  0
 17 13  2  0  0  0  0
 18 12  1  0  0  0  0
 18  5  1  0  0  0  0
 19 10  1  0  0  0  0
 19  2  2  0  0  0  0
 20 21  1  0  0  0  0
 20  5  1  0  0  0  0
 22 21  1  0  0  0  0
 23 24  1  0  0  0  0
 23 22  1  0  0  0  0
 25 23  1  0  0  0  0
M  END
>  <MODEL>
7

>  <REMARK>
 VINA RESULT:      -6.8      5.174      8.730
  Name = 
  4 active torsions:
  status: ('A' for Active; 'I' for Inactive)
    1  A    between atoms: N_2  and  C_25
    2  A    between atoms: N_6  and  C_15
    3  A    between atoms: C_15  and  C_21
    4  A    between atoms: C_21  and  C_25
                            x       y       z     vdW  Elec       q    Type
                         _______ _______ _______ _____ _____    ______ ____

>  <TORSDO>
F 4

$$$$
=
 OpenBabel11052417323D

 25 28  0  0  1  0  0  0  0  0999 V2000
  192.1050  176.1600  145.1050 C   0  0  0  0  0  0  0  0  0  0  0  0
  190.7260  175.9630  144.9090 C   0  0  0  0  0  0  0  0  0  0  0  0
  191.7290  176.4930  147.4780 C   0  0  0  0  0  3  0  0  0  0  0  0
  193.1420  176.1260  144.1550 C   0  0  0  0  0  0  0  0  0  0  0  0
  188.2110  176.4040  142.1650 N   0  0  0  0  0  2  0  0  0  0  0  0
  195.4470  176.1420  142.5750 C   0  0  0  0  0  3  0  0  0  0  0  0
  190.3970  176.2950  147.2760 N   0  0  0  0  0  0  0  0  0  0  0  0
  194.3950  176.3670  144.7170 C   0  0  0  0  0  0  0  0  0  0  0  0
  195.5580  176.3810  143.9530 C   0  0  0  0  0  3  0  0  0  0  0  0
  188.4020  175.7830  145.8540 C   0  0  1  0  0  3  0  0  0  0  0  0
  187.5620  176.5280  146.8770 C   0  0  0  0  0  1  0  0  0  0  0  0
  190.1440  175.6000  143.5710 C   0  0  0  0  0  2  0  0  0  0  0  0
  194.1910  175.8980  141.9930 C   0  0  0  0  0  3  0  0  0  0  0  0
  192.5830  176.4290  146.3840 C   0  0  0  0  0  0  0  0  0  0  0  0
  194.2570  176.6250  146.3770 S   0  0  0  0  0  0  0  0  0  0  0  0
  187.9590  176.1520  144.5080 N   0  0  0  0  0  0  0  0  0  0  0  0
  193.0290  175.8880  142.7810 C   0  0  0  0  0  3  0  0  0  0  0  0
  188.7200  176.0650  143.4540 C   0  0  0  0  0  0  0  0  0  0  0  0
  189.8760  176.0510  146.0340 C   0  0  0  0  0  0  0  0  0  0  0  0
  186.8460  176.8630  141.9630 C   0  0  0  0  0  2  0  0  0  0  0  0
  186.8260  178.3760  141.9060 C   0  0  0  0  0  2  0  0  0  0  0  0
  185.9290  178.9090  143.0060 C   0  0  0  0  0  2  0  0  0  0  0  0
  184.9630  177.8940  143.3900 N   0  0  0  0  0  0  0  0  0  0  0  0
  184.7800  178.0160  144.8250 C   0  0  0  0  0  1  0  0  0  0  0  0
  183.7830  178.2380  142.8200 O   0  0  0  0  0  1  0  0  0  0  0  0
  1 14  1  0  0  0  0
  2  1  2  0  0  0  0
  2 19  1  0  0  0  0
  4  8  1  0  0  0  0
  4  1  1  0  0  0  0
  5 18  1  0  0  0  0
  6  9  1  0  0  0  0
  7  3  1  0  0  0  0
  8 15  1  0  0  0  0
  9  8  2  0  0  0  0
 10 19  1  0  0  0  0
 10 11  1  1  0  0  0
 12  2  1  0  0  0  0
 13  6  2  0  0  0  0
 13 17  1  0  0  0  0
 14  3  2  0  0  0  0
 15 14  1  0  0  0  0
 16 10  1  0  0  0  0
 17  4  2  0  0  0  0
 18 12  1  0  0  0  0
 18 16  2  0  0  0  0
 19  7  2  0  0  0  0
 20  5  1  0  0  0  0
 21 20  1  0  0  0  0
 21 22  1  0  0  0  0
 22 23  1  0  0  0  0
 23 24  1  0  0  0  0
 25 23  1  0  0  0  0
M  END
>  <MODEL>
8

>  <REMARK>
 VINA RESULT:      -6.7      4.159      6.961
  Name = 
  4 active torsions:
  status: ('A' for Active; 'I' for Inactive)
    1  A    between atoms: N_2  and  C_25
    2  A    between atoms: N_6  and  C_15
    3  A    between atoms: C_15  and  C_21
    4  A    between atoms: C_21  and  C_25
                            x       y       z     vdW  Elec       q    Type
                         _______ _______ _______ _____ _____    ______ ____

>  <TORSDO>
F 4

$$$$
=
 OpenBabel11052417323D

 25 28  0  0  1  0  0  0  0  0999 V2000
  187.0590  177.7090  144.6170 C   0  0  0  0  0  0  0  0  0  0  0  0
  188.4430  177.4790  144.7110 C   0  0  0  0  0  0  0  0  0  0  0  0
  186.8720  177.6220  147.0340 C   0  0  0  0  0  3  0  0  0  0  0  0
  186.2750  177.8980  143.4640 C   0  0  0  0  0  0  0  0  0  0  0  0
  191.1650  175.9650  142.6250 N   0  0  0  0  0  2  0  0  0  0  0  0
  184.4060  178.3080  141.4270 C   0  0  0  0  0  3  0  0  0  0  0  0
  188.2150  177.4060  147.1120 N   0  0  0  0  0  0  0  0  0  0  0  0
  184.9280  178.1010  143.7580 C   0  0  0  0  0  0  0  0  0  0  0  0
  183.9770  178.3070  142.7620 C   0  0  0  0  0  3  0  0  0  0  0  0
  190.4970  177.1300  146.1220 C   0  0  1  0  0  3  0  0  0  0  0  0
  190.8670  176.3310  147.3600 C   0  0  0  0  0  1  0  0  0  0  0  0
  189.3450  177.4710  143.5070 C   0  0  0  0  0  2  0  0  0  0  0  0
  185.7620  178.1040  141.1150 C   0  0  0  0  0  3  0  0  0  0  0  0
  186.2950  177.7690  145.7790 C   0  0  0  0  0  0  0  0  0  0  0  0
  184.6720  178.0530  145.4230 S   0  0  0  0  0  0  0  0  0  0  0  0
  191.0460  176.4650  144.9390 N   0  0  0  0  0  0  0  0  0  0  0  0
  186.7060  177.8980  142.1340 C   0  0  0  0  0  3  0  0  0  0  0  0
  190.5550  176.6130  143.7410 C   0  0  0  0  0  0  0  0  0  0  0  0
  189.0040  177.3160  145.9970 C   0  0  0  0  0  0  0  0  0  0  0  0
  192.3390  175.1170  142.7620 C   0  0  0  0  0  2  0  0  0  0  0  0
  193.5510  175.8450  142.2230 C   0  0  0  0  0  2  0  0  0  0  0  0
  193.9490  175.2430  140.8900 C   0  0  0  0  0  2  0  0  0  0  0  0
  193.3280  173.9390  140.7320 N   0  0  0  0  0  0  0  0  0  0  0  0
  192.7810  173.8990  139.3880 C   0  0  0  0  0  1  0  0  0  0  0  0
  194.3220  173.0210  140.7720 O   0  0  0  0  0  1  0  0  0  0  0  0
  1  2  2  0  0  0  0
  1 14  1  0  0  0  0
  2 19  1  0  0  0  0
  3  7  1  0  0  0  0
  4  8  1  0  0  0  0
  4  1  1  0  0  0  0
  5 20  1  0  0  0  0
  5 18  1  0  0  0  0
  6  9  1  0  0  0  0
  8 15  1  0  0  0  0
  9  8  2  0  0  0  0
 10 11  1  1  0  0  0
 12 18  1  0  0  0  0
 12  2  1  0  0  0  0
 13  6  2  0  0  0  0
 13 17  1  0  0  0  0
 14  3  2  0  0  0  0
 15 14  1  0  0  0  0
 16 10  1  0  0  0  0
 17  4  2  0  0  0  0
 18 16  2  0  0  0  0
 19 10  1  0  0  0  0
 19  7  2  0  0  0  0
 21 20  1  0  0  0  0
 22 21  1  0  0  0  0
 23 25  1  0  0  0  0
 23 22  1  0  0  0  0
 24 23  1  0  0  0  0
M  END
>  <MODEL>
9

>  <REMARK>
 VINA RESULT:      -6.4      5.085      8.702
  Name = 
  4 active torsions:
  status: ('A' for Active; 'I' for Inactive)
    1  A    between atoms: N_2  and  C_25
    2  A    between atoms: N_6  and  C_15
    3  A    between atoms: C_15  and  C_21
    4  A    between atoms: C_21  and  C_25
                            x       y       z     vdW  Elec       q    Type
                         _______ _______ _______ _____ _____    ______ ____

>  <TORSDO>
F 4

$$$$
