=
 OpenBabel11052418053D

 28 30  0  0  1  0  0  0  0  0999 V2000
  187.3630  177.5380  146.1300 C   0  0  2  0  0  3  0  0  0  0  0  0
  184.0620  179.5490  144.2730 O   0  0  0  0  0  1  0  0  0  0  0  0
  187.4510  176.5320  142.3510 C   0  0  1  0  0  3  0  0  0  0  0  0
  186.3110  178.7130  144.0930 C   0  0  1  0  0  3  0  0  0  0  0  0
  187.2020  176.3430  143.8580 C   0  0  0  0  0  2  0  0  0  0  0  0
  184.9380  178.5010  146.2180 C   0  0  0  0  0  2  0  0  0  0  0  0
  186.2080  178.7160  142.5530 C   0  0  0  0  0  2  0  0  0  0  0  0
  184.9060  178.5190  144.6930 C   0  0  1  0  0  3  0  0  0  0  0  0
  187.3700  177.9900  141.8720 C   0  0  0  0  0  2  0  0  0  0  0  0
  185.7600  176.9890  146.8050 S   0  0  0  0  0  0  0  0  0  0  0  0
  187.3330  177.6730  144.6030 C   0  0  2  0  0  3  0  0  0  0  0  0
  188.5270  176.7130  146.6110 C   0  0  0  0  0  0  0  0  0  0  0  0
  188.6540  175.3730  146.2050 C   0  0  0  0  0  3  0  0  0  0  0  0
  190.6300  176.5110  147.8300 C   0  0  0  0  0  0  0  0  0  0  0  0
  189.7460  174.6100  146.6130 C   0  0  0  0  0  3  0  0  0  0  0  0
  189.4310  178.7280  147.8370 C   0  0  0  0  0  1  0  0  0  0  0  0
  189.5290  177.2910  147.4220 C   0  0  0  0  0  0  0  0  0  0  0  0
  191.7150  177.0780  148.6870 C   0  0  0  0  0  1  0  0  0  0  0  0
  190.7290  175.1780  147.4240 C   0  0  0  0  0  3  0  0  0  0  0  0
  188.7020  175.8980  141.9280 N   0  0  0  0  0  0  0  0  0  0  0  0
  191.0040  175.5330  142.2130 O   0  0  0  0  0  0  0  0  0  0  0  0
  189.9950  176.2470  142.4710 C   0  0  0  0  0  0  0  0  0  0  0  0
  188.5970  174.8360  141.0140 C   0  0  0  0  0  0  0  0  0  0  0  0
  188.5110  173.9200  140.2340 C   0  0  0  0  0  3  0  0  0  0  0  0
  190.1860  177.4700  143.3090 C   0  0  0  0  0  2  0  0  0  0  0  0
  192.0900  176.8950  144.7370 C   0  0  0  0  0  3  0  0  0  0  0  0
  191.6170  177.5950  143.7080 C   0  0  0  0  0  3  0  0  0  0  0  0
  193.5240  177.0240  145.1220 C   0  0  0  0  0  1  0  0  0  0  0  0
  1 12  1  6  0  0  0
  1 10  1  0  0  0  0
  3 20  1  1  0  0  0
  3  5  1  0  0  0  0
  4  7  1  6  0  0  0
  4 11  1  0  0  0  0
  4  8  1  0  0  0  0
  6 10  1  0  0  0  0
  8  2  1  1  0  0  0
  8  6  1  0  0  0  0
  9  3  1  0  0  0  0
  9  7  1  0  0  0  0
 11  5  1  6  0  0  0
 11  1  1  0  0  0  0
 12 17  1  0  0  0  0
 13 12  2  0  0  0  0
 13 15  1  0  0  0  0
 14 18  1  0  0  0  0
 15 19  2  0  0  0  0
 17 14  2  0  0  0  0
 17 16  1  0  0  0  0
 19 14  1  0  0  0  0
 20 22  1  0  0  0  0
 21 22  2  0  0  0  0
 22 25  1  0  0  0  0
 23 20  1  0  0  0  0
 24 23  3  0  0  0  0
 25 27  1  0  0  0  0
 26 28  1  0  0  0  0
 27 26  2  0  0  0  0
M  END
>  <MODEL>
1

>  <REMARK>
 VINA RESULT:      -7.3      0.000      0.000
  Name = 
  5 active torsions:
  status: ('A' for Active; 'I' for Inactive)
    1  A    between atoms: C_1  and  C_2
    2  A    between atoms: C_4  and  N_13
    3  A    between atoms: C_9  and  C_15
    4  A    between atoms: C_9  and  C_18
    5  A    between atoms: C_10  and  N_13
                            x       y       z     vdW  Elec       q    Type
                         _______ _______ _______ _____ _____    ______ ____

>  <TORSDO>
F 5

$$$$
=
 OpenBabel11052418053D

 28 30  0  0  1  0  0  0  0  0999 V2000
  187.6670  177.2180  144.9830 C   0  0  2  0  0  3  0  0  0  0  0  0
  184.5650  178.6350  142.3840 O   0  0  0  0  0  1  0  0  0  0  0  0
  187.7990  174.9640  141.7870 C   0  0  1  0  0  3  0  0  0  0  0  0
  186.7570  177.6710  142.6160 C   0  0  1  0  0  3  0  0  0  0  0  0
  187.4920  175.3220  143.2540 C   0  0  0  0  0  2  0  0  0  0  0  0
  185.3110  178.2790  144.6120 C   0  0  0  0  0  2  0  0  0  0  0  0
  186.6990  177.1470  141.1650 C   0  0  0  0  0  2  0  0  0  0  0  0
  185.3250  177.7700  143.1740 C   0  0  1  0  0  3  0  0  0  0  0  0
  187.8300  176.1700  140.8340 C   0  0  0  0  0  2  0  0  0  0  0  0
  186.0110  177.0210  145.7220 S   0  0  0  0  0  0  0  0  0  0  0  0
  187.6910  176.8190  143.5030 C   0  0  2  0  0  3  0  0  0  0  0  0
  188.7580  176.5490  145.7760 C   0  0  0  0  0  0  0  0  0  0  0  0
  188.4480  175.4840  146.6390 C   0  0  0  0  0  3  0  0  0  0  0  0
  191.1150  176.2790  146.3400 C   0  0  0  0  0  0  0  0  0  0  0  0
  189.4540  174.8330  147.3510 C   0  0  0  0  0  3  0  0  0  0  0  0
  190.4620  178.0540  144.6740 C   0  0  0  0  0  1  0  0  0  0  0  0
  190.1050  176.9440  145.6170 C   0  0  0  0  0  0  0  0  0  0  0  0
  192.5540  176.6610  146.2050 C   0  0  0  0  0  1  0  0  0  0  0  0
  190.7820  175.2320  147.2020 C   0  0  0  0  0  3  0  0  0  0  0  0
  189.0160  174.1590  141.6720 N   0  0  0  0  0  0  0  0  0  0  0  0
  190.3830  172.6880  140.4560 O   0  0  0  0  0  0  0  0  0  0  0  0
  189.2410  173.2020  140.6130 C   0  0  0  0  0  0  0  0  0  0  0  0
  190.0380  174.4180  142.6010 C   0  0  0  0  0  0  0  0  0  0  0  0
  190.9190  174.6360  143.3950 C   0  0  0  0  0  3  0  0  0  0  0  0
  188.1350  172.7650  139.7070 C   0  0  0  0  0  2  0  0  0  0  0  0
  188.5260  174.2340  137.7880 C   0  0  0  0  0  3  0  0  0  0  0  0
  188.5180  173.0000  138.2860 C   0  0  0  0  0  3  0  0  0  0  0  0
  188.9170  174.4560  136.3670 C   0  0  0  0  0  1  0  0  0  0  0  0
  1 10  1  0  0  0  0
  1 12  1  1  0  0  0
  3 20  1  1  0  0  0
  3  5  1  0  0  0  0
  4  7  1  6  0  0  0
  4  8  1  0  0  0  0
  4 11  1  0  0  0  0
  6 10  1  0  0  0  0
  8  2  1  6  0  0  0
  8  6  1  0  0  0  0
  9  7  1  0  0  0  0
  9  3  1  0  0  0  0
 11  5  1  1  0  0  0
 11  1  1  0  0  0  0
 12 13  1  0  0  0  0
 13 15  2  0  0  0  0
 14 19  2  0  0  0  0
 16 17  1  0  0  0  0
 17 12  2  0  0  0  0
 17 14  1  0  0  0  0
 18 14  1  0  0  0  0
 19 15  1  0  0  0  0
 20 23  1  0  0  0  0
 21 22  2  0  0  0  0
 22 20  1  0  0  0  0
 23 24  3  0  0  0  0
 25 22  1  0  0  0  0
 26 27  2  0  0  0  0
 27 25  1  0  0  0  0
 28 26  1  0  0  0  0
M  END
>  <MODEL>
2

>  <REMARK>
 VINA RESULT:      -7.3      1.700      3.684
  Name = 
  5 active torsions:
  status: ('A' for Active; 'I' for Inactive)
    1  A    between atoms: C_1  and  C_2
    2  A    between atoms: C_4  and  N_13
    3  A    between atoms: C_9  and  C_15
    4  A    between atoms: C_9  and  C_18
    5  A    between atoms: C_10  and  N_13
                            x       y       z     vdW  Elec       q    Type
                         _______ _______ _______ _____ _____    ______ ____

>  <TORSDO>
F 5

$$$$
=
 OpenBabel11052418053D

 28 30  0  0  1  0  0  0  0  0999 V2000
  188.1840  176.4480  142.8900 C   0  0  2  0  0  3  0  0  0  0  0  0
  184.5590  178.1240  144.4500 O   0  0  0  0  0  1  0  0  0  0  0  0
  188.8390  177.1400  146.6840 C   0  0  1  0  0  3  0  0  0  0  0  0
  186.5030  176.7550  144.8170 C   0  0  1  0  0  3  0  0  0  0  0  0
  188.9440  177.3740  145.1660 C   0  0  0  0  0  2  0  0  0  0  0  0
  186.0310  177.8950  142.5990 C   0  0  0  0  0  2  0  0  0  0  0  0
  186.3500  176.9170  146.3450 C   0  0  0  0  0  2  0  0  0  0  0  0
  185.9080  177.9900  144.1160 C   0  0  1  0  0  3  0  0  0  0  0  0
  187.5630  176.4060  147.1270 C   0  0  0  0  0  2  0  0  0  0  0  0
  187.7750  178.0430  142.1060 S   0  0  0  0  0  0  0  0  0  0  0  0
  187.9650  176.4750  144.4070 C   0  0  2  0  0  3  0  0  0  0  0  0
  189.5490  175.9320  142.5160 C   0  0  0  0  0  0  0  0  0  0  0  0
  190.7010  176.5840  142.9890 C   0  0  0  0  0  3  0  0  0  0  0  0
  190.9690  174.2720  141.4320 C   0  0  0  0  0  0  0  0  0  0  0  0
  191.9690  176.0940  142.6810 C   0  0  0  0  0  3  0  0  0  0  0  0
  188.4670  174.0300  141.2540 C   0  0  0  0  0  1  0  0  0  0  0  0
  189.6840  174.7600  141.7390 C   0  0  0  0  0  0  0  0  0  0  0  0
  191.1630  173.0370  140.6140 C   0  0  0  0  0  1  0  0  0  0  0  0
  192.1010  174.9440  141.9030 C   0  0  0  0  0  3  0  0  0  0  0  0
  190.0410  176.4900  147.2140 N   0  0  0  0  0  0  0  0  0  0  0  0
  191.6650  174.7990  147.1010 O   0  0  0  0  0  0  0  0  0  0  0  0
  190.5230  175.2100  146.7510 C   0  0  0  0  0  0  0  0  0  0  0  0
  190.7920  177.2170  148.1530 C   0  0  0  0  0  0  0  0  0  0  0  0
  191.4300  177.8440  148.9610 C   0  0  0  0  0  3  0  0  0  0  0  0
  189.6850  174.3240  145.8870 C   0  0  0  0  0  2  0  0  0  0  0  0
  190.0820  172.2990  144.5700 C   0  0  0  0  0  3  0  0  0  0  0  0
  190.5580  173.4400  145.0650 C   0  0  0  0  0  3  0  0  0  0  0  0
  190.9640  171.4260  143.7430 C   0  0  0  0  0  1  0  0  0  0  0  0
  1 12  1  1  0  0  0
  1 11  1  0  0  0  0
  3  9  1  0  0  0  0
  3 20  1  6  0  0  0
  4  7  1  1  0  0  0
  5  3  1  0  0  0  0
  6  8  1  0  0  0  0
  7  9  1  0  0  0  0
  8  2  1  6  0  0  0
  8  4  1  0  0  0  0
 10  6  1  0  0  0  0
 10  1  1  0  0  0  0
 11  4  1  0  0  0  0
 11  5  1  1  0  0  0
 12 13  1  0  0  0  0
 14 17  1  0  0  0  0
 14 19  2  0  0  0  0
 15 13  2  0  0  0  0
 16 17  1  0  0  0  0
 17 12  2  0  0  0  0
 18 14  1  0  0  0  0
 19 15  1  0  0  0  0
 20 23  1  0  0  0  0
 22 21  2  0  0  0  0
 22 20  1  0  0  0  0
 23 24  3  0  0  0  0
 25 22  1  0  0  0  0
 26 27  2  0  0  0  0
 27 25  1  0  0  0  0
 28 26  1  0  0  0  0
M  END
>  <MODEL>
3

>  <REMARK>
 VINA RESULT:      -7.2      2.381      5.344
  Name = 
  5 active torsions:
  status: ('A' for Active; 'I' for Inactive)
    1  A    between atoms: C_1  and  C_2
    2  A    between atoms: C_4  and  N_13
    3  A    between atoms: C_9  and  C_15
    4  A    between atoms: C_9  and  C_18
    5  A    between atoms: C_10  and  N_13
                            x       y       z     vdW  Elec       q    Type
                         _______ _______ _______ _____ _____    ______ ____

>  <TORSDO>
F 5

$$$$
=
 OpenBabel11052418053D

 28 30  0  0  1  0  0  0  0  0999 V2000
  187.4790  177.4510  146.3280 C   0  0  2  0  0  3  0  0  0  0  0  0
  184.1720  179.0160  144.0910 O   0  0  0  0  0  1  0  0  0  0  0  0
  188.1330  176.4970  142.5910 C   0  0  1  0  0  3  0  0  0  0  0  0
  186.5190  178.4910  144.1760 C   0  0  1  0  0  3  0  0  0  0  0  0
  187.7400  176.2640  144.0610 C   0  0  0  0  0  2  0  0  0  0  0  0
  184.9530  178.0790  146.1310 C   0  0  0  0  0  2  0  0  0  0  0  0
  186.5930  178.4930  142.6340 C   0  0  0  0  0  2  0  0  0  0  0  0
  185.0930  178.1050  144.6120 C   0  0  1  0  0  3  0  0  0  0  0  0
  187.9130  177.9350  142.0950 C   0  0  0  0  0  2  0  0  0  0  0  0
  185.8980  176.6860  146.8180 S   0  0  0  0  0  0  0  0  0  0  0  0
  187.6060  177.5930  144.8070 C   0  0  2  0  0  3  0  0  0  0  0  0
  188.6810  176.7850  146.9440 C   0  0  0  0  0  0  0  0  0  0  0  0
  188.9240  175.4200  146.7120 C   0  0  0  0  0  3  0  0  0  0  0  0
  190.7400  176.9000  148.2460 C   0  0  0  0  0  0  0  0  0  0  0  0
  190.0530  174.8010  147.2460 C   0  0  0  0  0  3  0  0  0  0  0  0
  189.3790  178.9990  147.9400 C   0  0  0  0  0  1  0  0  0  0  0  0
  189.6010  177.5340  147.7100 C   0  0  0  0  0  0  0  0  0  0  0  0
  191.7430  177.6500  149.0610 C   0  0  0  0  0  1  0  0  0  0  0  0
  190.9550  175.5390  148.0130 C   0  0  0  0  0  3  0  0  0  0  0  0
  189.4980  176.0400  142.3180 N   0  0  0  0  0  0  0  0  0  0  0  0
  190.9830  174.5440  141.2840 O   0  0  0  0  0  0  0  0  0  0  0  0
  189.8040  174.7880  141.6670 C   0  0  0  0  0  0  0  0  0  0  0  0
  190.5380  176.9300  142.6360 C   0  0  0  0  0  0  0  0  0  0  0  0
  191.4340  177.6920  142.9020 C   0  0  0  0  0  3  0  0  0  0  0  0
  188.7610  173.7380  141.4630 C   0  0  0  0  0  2  0  0  0  0  0  0
  189.4850  173.0030  143.6840 C   0  0  0  0  0  3  0  0  0  0  0  0
  188.8380  172.7250  142.5540 C   0  0  0  0  0  3  0  0  0  0  0  0
  189.5500  171.9840  144.7700 C   0  0  0  0  0  1  0  0  0  0  0  0
  1 10  1  0  0  0  0
  1 12  1  6  0  0  0
  3 20  1  1  0  0  0
  3  5  1  0  0  0  0
  4  7  1  6  0  0  0
  4  8  1  0  0  0  0
  4 11  1  0  0  0  0
  6 10  1  0  0  0  0
  8  2  1  6  0  0  0
  8  6  1  0  0  0  0
  9  3  1  0  0  0  0
  9  7  1  0  0  0  0
 11  5  1  6  0  0  0
 11  1  1  0  0  0  0
 12 17  1  0  0  0  0
 13 12  2  0  0  0  0
 13 15  1  0  0  0  0
 14 18  1  0  0  0  0
 15 19  2  0  0  0  0
 17 16  1  0  0  0  0
 17 14  2  0  0  0  0
 19 14  1  0  0  0  0
 20 23  1  0  0  0  0
 21 22  2  0  0  0  0
 22 20  1  0  0  0  0
 23 24  3  0  0  0  0
 25 22  1  0  0  0  0
 25 27  1  0  0  0  0
 26 28  1  0  0  0  0
 27 26  2  0  0  0  0
M  END
>  <MODEL>
4

>  <REMARK>
 VINA RESULT:      -6.9      1.210      2.447
  Name = 
  5 active torsions:
  status: ('A' for Active; 'I' for Inactive)
    1  A    between atoms: C_1  and  C_2
    2  A    between atoms: C_4  and  N_13
    3  A    between atoms: C_9  and  C_15
    4  A    between atoms: C_9  and  C_18
    5  A    between atoms: C_10  and  N_13
                            x       y       z     vdW  Elec       q    Type
                         _______ _______ _______ _____ _____    ______ ____

>  <TORSDO>
F 5

$$$$
=
 OpenBabel11052418053D

 28 30  0  0  1  0  0  0  0  0999 V2000
  191.0550  174.1830  143.2010 C   0  0  2  0  0  3  0  0  0  0  0  0
  192.7430  175.6610  146.8560 O   0  0  0  0  0  1  0  0  0  0  0  0
  188.2870  176.3820  144.8770 C   0  0  1  0  0  3  0  0  0  0  0  0
  191.2810  176.0310  144.9810 C   0  0  1  0  0  3  0  0  0  0  0  0
  188.9850  175.0830  144.4350 C   0  0  0  0  0  2  0  0  0  0  0  0
  192.6260  173.8980  145.2660 C   0  0  0  0  0  2  0  0  0  0  0  0
  190.5270  177.1290  145.7630 C   0  0  0  0  0  2  0  0  0  0  0  0
  191.8700  175.0150  145.9770 C   0  0  1  0  0  3  0  0  0  0  0  0
  189.2350  177.5760  145.0750 C   0  0  0  0  0  2  0  0  0  0  0  0
  191.4600  172.8360  144.3620 S   0  0  0  0  0  0  0  0  0  0  0  0
  190.3910  175.3730  143.9040 C   0  0  2  0  0  3  0  0  0  0  0  0
  190.2780  173.7200  141.9970 C   0  0  0  0  0  0  0  0  0  0  0  0
  188.9280  173.3520  142.1320 C   0  0  0  0  0  3  0  0  0  0  0  0
  190.1200  173.3070  139.5990 C   0  0  0  0  0  0  0  0  0  0  0  0
  188.1870  172.9570  141.0190 C   0  0  0  0  0  3  0  0  0  0  0  0
  192.3050  174.1310  140.5480 C   0  0  0  0  0  1  0  0  0  0  0  0
  190.8770  173.7070  140.7180 C   0  0  0  0  0  0  0  0  0  0  0  0
  190.7100  173.2790  138.2260 C   0  0  0  0  0  1  0  0  0  0  0  0
  188.7840  172.9340  139.7580 C   0  0  0  0  0  3  0  0  0  0  0  0
  187.1740  176.7240  143.9890 N   0  0  0  0  0  0  0  0  0  0  0  0
  185.0000  177.5490  143.6640 O   0  0  0  0  0  0  0  0  0  0  0  0
  185.8550  177.0750  144.4630 C   0  0  0  0  0  0  0  0  0  0  0  0
  187.4590  176.7960  142.6140 C   0  0  0  0  0  0  0  0  0  0  0  0
  187.6980  176.8530  141.4340 C   0  0  0  0  0  3  0  0  0  0  0  0
  185.4520  176.8520  145.8840 C   0  0  0  0  0  2  0  0  0  0  0  0
  186.5800  178.1470  147.6290 C   0  0  0  0  0  3  0  0  0  0  0  0
  185.6560  178.1000  146.6730 C   0  0  0  0  0  3  0  0  0  0  0  0
  186.7790  179.4030  148.4070 C   0  0  0  0  0  1  0  0  0  0  0  0
  1 12  1  6  0  0  0
  1 11  1  0  0  0  0
  1 10  1  0  0  0  0
  3 20  1  6  0  0  0
  3  9  1  0  0  0  0
  4  7  1  1  0  0  0
  4  8  1  0  0  0  0
  5  3  1  0  0  0  0
  6  8  1  0  0  0  0
  8  2  1  1  0  0  0
  9  7  1  0  0  0  0
 10  6  1  0  0  0  0
 11  5  1  1  0  0  0
 11  4  1  0  0  0  0
 12 13  1  0  0  0  0
 14 19  2  0  0  0  0
 14 17  1  0  0  0  0
 15 13  2  0  0  0  0
 16 17  1  0  0  0  0
 17 12  2  0  0  0  0
 18 14  1  0  0  0  0
 19 15  1  0  0  0  0
 20 22  1  0  0  0  0
 21 22  2  0  0  0  0
 22 25  1  0  0  0  0
 23 20  1  0  0  0  0
 24 23  3  0  0  0  0
 25 27  1  0  0  0  0
 26 28  1  0  0  0  0
 27 26  2  0  0  0  0
M  END
>  <MODEL>
5

>  <REMARK>
 VINA RESULT:      -6.9      2.613      6.559
  Name = 
  5 active torsions:
  status: ('A' for Active; 'I' for Inactive)
    1  A    between atoms: C_1  and  C_2
    2  A    between atoms: C_4  and  N_13
    3  A    between atoms: C_9  and  C_15
    4  A    between atoms: C_9  and  C_18
    5  A    between atoms: C_10  and  N_13
                            x       y       z     vdW  Elec       q    Type
                         _______ _______ _______ _____ _____    ______ ____

>  <TORSDO>
F 5

$$$$
=
 OpenBabel11052418053D

 28 30  0  0  1  0  0  0  0  0999 V2000
  189.7410  173.7630  143.1710 C   0  0  2  0  0  3  0  0  0  0  0  0
  191.5170  171.9170  139.7320 O   0  0  0  0  0  1  0  0  0  0  0  0
  193.4800  174.9120  143.1180 C   0  0  1  0  0  3  0  0  0  0  0  0
  191.4160  173.8090  141.2150 C   0  0  1  0  0  3  0  0  0  0  0  0
  192.2530  174.1140  143.5970 C   0  0  0  0  0  2  0  0  0  0  0  0
  189.9230  171.7750  141.4890 C   0  0  0  0  0  2  0  0  0  0  0  0
  192.8280  174.2530  140.7730 C   0  0  0  0  0  2  0  0  0  0  0  0
  191.2970  172.2810  141.0620 C   0  0  1  0  0  3  0  0  0  0  0  0
  193.4100  175.3630  141.6500 C   0  0  0  0  0  2  0  0  0  0  0  0
  189.7300  171.9430  143.2890 S   0  0  0  0  0  0  0  0  0  0  0  0
  191.0740  174.3010  142.6390 C   0  0  2  0  0  3  0  0  0  0  0  0
  189.3130  174.4460  144.4430 C   0  0  0  0  0  0  0  0  0  0  0  0
  189.6890  173.9120  145.6880 C   0  0  0  0  0  3  0  0  0  0  0  0
  188.2260  176.2970  145.5990 C   0  0  0  0  0  0  0  0  0  0  0  0
  189.3310  174.5550  146.8720 C   0  0  0  0  0  3  0  0  0  0  0  0
  188.2030  176.2590  143.0790 C   0  0  0  0  0  1  0  0  0  0  0  0
  188.5830  175.6540  144.3970 C   0  0  0  0  0  0  0  0  0  0  0  0
  187.4550  177.5780  145.6020 C   0  0  0  0  0  1  0  0  0  0  0  0
  188.5990  175.7420  146.8250 C   0  0  0  0  0  3  0  0  0  0  0  0
  193.7750  176.0350  144.0100 N   0  0  0  0  0  0  0  0  0  0  0  0
  195.3160  177.4850  145.0280 O   0  0  0  0  0  0  0  0  0  0  0  0
  195.1110  176.3950  144.4230 C   0  0  0  0  0  0  0  0  0  0  0  0
  192.6900  176.8410  144.3940 C   0  0  0  0  0  0  0  0  0  0  0  0
  191.7540  177.5300  144.7170 C   0  0  0  0  0  3  0  0  0  0  0  0
  196.2730  175.4850  144.1890 C   0  0  0  0  0  2  0  0  0  0  0  0
  196.7280  173.2280  145.0230 C   0  0  0  0  0  3  0  0  0  0  0  0
  196.3630  174.4810  145.2870 C   0  0  0  0  0  3  0  0  0  0  0  0
  196.8200  172.2350  146.1310 C   0  0  0  0  0  1  0  0  0  0  0  0
  1 10  1  0  0  0  0
  1 12  1  1  0  0  0
  3  5  1  0  0  0  0
  3 20  1  1  0  0  0
  4  7  1  1  0  0  0
  4 11  1  0  0  0  0
  6 10  1  0  0  0  0
  7  9  1  0  0  0  0
  8  2  1  6  0  0  0
  8  4  1  0  0  0  0
  8  6  1  0  0  0  0
  9  3  1  0  0  0  0
 11  1  1  0  0  0  0
 11  5  1  1  0  0  0
 12 13  1  0  0  0  0
 13 15  2  0  0  0  0
 14 18  1  0  0  0  0
 14 19  2  0  0  0  0
 16 17  1  0  0  0  0
 17 12  2  0  0  0  0
 17 14  1  0  0  0  0
 19 15  1  0  0  0  0
 20 23  1  0  0  0  0
 20 22  1  0  0  0  0
 22 21  2  0  0  0  0
 23 24  3  0  0  0  0
 25 22  1  0  0  0  0
 25 27  1  0  0  0  0
 26 27  2  0  0  0  0
 26 28  1  0  0  0  0
M  END
>  <MODEL>
6

>  <REMARK>
 VINA RESULT:      -6.8      3.481      6.222
  Name = 
  5 active torsions:
  status: ('A' for Active; 'I' for Inactive)
    1  A    between atoms: C_1  and  C_2
    2  A    between atoms: C_4  and  N_13
    3  A    between atoms: C_9  and  C_15
    4  A    between atoms: C_9  and  C_18
    5  A    between atoms: C_10  and  N_13
                            x       y       z     vdW  Elec       q    Type
                         _______ _______ _______ _____ _____    ______ ____

>  <TORSDO>
F 5

$$$$
=
 OpenBabel11052418053D

 28 30  0  0  1  0  0  0  0  0999 V2000
  188.0200  177.2580  145.9200 C   0  0  2  0  0  3  0  0  0  0  0  0
  184.1420  179.0390  146.3370 O   0  0  0  0  0  1  0  0  0  0  0  0
  186.1810  176.6900  142.5150 C   0  0  1  0  0  3  0  0  0  0  0  0
  186.0070  178.5110  144.9130 C   0  0  1  0  0  3  0  0  0  0  0  0
  186.7600  176.3080  143.8890 C   0  0  0  0  0  2  0  0  0  0  0  0
  185.9500  177.9010  147.3760 C   0  0  0  0  0  2  0  0  0  0  0  0
  185.1190  178.6700  143.6600 C   0  0  0  0  0  2  0  0  0  0  0  0
  185.1300  178.0810  146.1030 C   0  0  1  0  0  3  0  0  0  0  0  0
  185.7920  178.1710  142.3790 C   0  0  0  0  0  2  0  0  0  0  0  0
  187.0300  176.4460  147.2190 S   0  0  0  0  0  0  0  0  0  0  0  0
  187.1950  177.5550  144.6630 C   0  0  2  0  0  3  0  0  0  0  0  0
  189.3030  176.5350  145.6080 C   0  0  0  0  0  0  0  0  0  0  0  0
  189.6070  175.3290  146.2630 C   0  0  0  0  0  3  0  0  0  0  0  0
  191.3580  176.3140  144.3130 C   0  0  0  0  0  0  0  0  0  0  0  0
  190.7730  174.6300  145.9550 C   0  0  0  0  0  3  0  0  0  0  0  0
  189.8580  178.2930  143.8820 C   0  0  0  0  0  1  0  0  0  0  0  0
  190.1810  177.0270  144.6170 C   0  0  0  0  0  0  0  0  0  0  0  0
  192.3170  176.7950  143.2720 C   0  0  0  0  0  1  0  0  0  0  0  0
  191.6460  175.1240  144.9850 C   0  0  0  0  0  3  0  0  0  0  0  0
  187.0590  176.2650  141.4230 N   0  0  0  0  0  0  0  0  0  0  0  0
  188.5430  174.7060  140.4840 O   0  0  0  0  0  0  0  0  0  0  0  0
  187.9620  175.1420  141.5180 C   0  0  0  0  0  0  0  0  0  0  0  0
  186.9270  176.9480  140.2010 C   0  0  0  0  0  0  0  0  0  0  0  0
  186.8140  177.5400  139.1570 C   0  0  0  0  0  3  0  0  0  0  0  0
  188.2670  174.4930  142.8290 C   0  0  0  0  0  2  0  0  0  0  0  0
  189.4640  172.4080  143.2920 C   0  0  0  0  0  3  0  0  0  0  0  0
  189.4490  173.5960  142.6910 C   0  0  0  0  0  3  0  0  0  0  0  0
  190.6500  171.5170  143.1410 C   0  0  0  0  0  1  0  0  0  0  0  0
  1 12  1  6  0  0  0
  1 10  1  0  0  0  0
  3 20  1  6  0  0  0
  3  5  1  0  0  0  0
  4  7  1  6  0  0  0
  4  8  1  0  0  0  0
  8  2  1  1  0  0  0
  8  6  1  0  0  0  0
  9  3  1  0  0  0  0
  9  7  1  0  0  0  0
 10  6  1  0  0  0  0
 11  5  1  1  0  0  0
 11  4  1  0  0  0  0
 11  1  1  0  0  0  0
 12 13  1  0  0  0  0
 14 17  1  0  0  0  0
 14 19  2  0  0  0  0
 15 13  2  0  0  0  0
 16 17  1  0  0  0  0
 17 12  2  0  0  0  0
 18 14  1  0  0  0  0
 19 15  1  0  0  0  0
 20 22  1  0  0  0  0
 21 22  2  0  0  0  0
 22 25  1  0  0  0  0
 23 20  1  0  0  0  0
 24 23  3  0  0  0  0
 27 25  1  0  0  0  0
 27 26  2  0  0  0  0
 28 26  1  0  0  0  0
M  END
>  <MODEL>
7

>  <REMARK>
 VINA RESULT:      -6.7      1.811      2.977
  Name = 
  5 active torsions:
  status: ('A' for Active; 'I' for Inactive)
    1  A    between atoms: C_1  and  C_2
    2  A    between atoms: C_4  and  N_13
    3  A    between atoms: C_9  and  C_15
    4  A    between atoms: C_9  and  C_18
    5  A    between atoms: C_10  and  N_13
                            x       y       z     vdW  Elec       q    Type
                         _______ _______ _______ _____ _____    ______ ____

>  <TORSDO>
F 5

$$$$
=
 OpenBabel11052418053D

 28 30  0  0  1  0  0  0  0  0999 V2000
  193.4100  173.4750  142.3660 C   0  0  2  0  0  3  0  0  0  0  0  0
  189.9160  171.8230  140.5090 O   0  0  0  0  0  1  0  0  0  0  0  0
  190.3430  175.2460  144.0280 C   0  0  1  0  0  3  0  0  0  0  0  0
  190.9480  172.7260  142.4860 C   0  0  1  0  0  3  0  0  0  0  0  0
  191.5700  175.1120  143.1070 C   0  0  0  0  0  2  0  0  0  0  0  0
  192.1940  172.4630  140.2900 C   0  0  0  0  0  2  0  0  0  0  0  0
  189.5610  173.0410  143.0870 C   0  0  0  0  0  2  0  0  0  0  0  0
  190.8510  172.7610  140.9490 C   0  0  1  0  0  3  0  0  0  0  0  0
  189.6360  173.9170  144.3400 C   0  0  0  0  0  2  0  0  0  0  0  0
  193.3480  173.8370  140.5800 S   0  0  0  0  0  0  0  0  0  0  0  0
  192.0460  173.6590  143.0420 C   0  0  2  0  0  3  0  0  0  0  0  0
  194.5110  174.2070  143.0860 C   0  0  0  0  0  0  0  0  0  0  0  0
  194.8880  175.4960  142.6690 C   0  0  0  0  0  3  0  0  0  0  0  0
  196.1350  174.3530  144.8990 C   0  0  0  0  0  0  0  0  0  0  0  0
  195.8800  176.1990  143.3500 C   0  0  0  0  0  3  0  0  0  0  0  0
  194.7220  172.2760  144.7000 C   0  0  0  0  0  1  0  0  0  0  0  0
  195.1330  173.6340  144.2170 C   0  0  0  0  0  0  0  0  0  0  0  0
  196.8220  173.7890  146.1010 C   0  0  0  0  0  1  0  0  0  0  0  0
  196.5020  175.6270  144.4590 C   0  0  0  0  0  3  0  0  0  0  0  0
  190.6670  175.9810  145.2530 N   0  0  0  0  0  0  0  0  0  0  0  0
  190.0420  177.4350  146.9880 O   0  0  0  0  0  0  0  0  0  0  0  0
  189.8030  176.9830  145.8330 C   0  0  0  0  0  0  0  0  0  0  0  0
  191.8410  175.6030  145.9270 C   0  0  0  0  0  0  0  0  0  0  0  0
  192.8440  175.2770  146.5110 C   0  0  0  0  0  3  0  0  0  0  0  0
  188.6390  177.5420  145.0800 C   0  0  0  0  0  2  0  0  0  0  0  0
  186.4170  177.5310  146.1080 C   0  0  0  0  0  3  0  0  0  0  0  0
  187.3850  176.8520  145.4960 C   0  0  0  0  0  3  0  0  0  0  0  0
  185.1650  176.8310  146.5130 C   0  0  0  0  0  1  0  0  0  0  0  0
  1 11  1  0  0  0  0
  1 12  1  1  0  0  0
  3  9  1  0  0  0  0
  3 20  1  1  0  0  0
  4 11  1  0  0  0  0
  4  7  1  1  0  0  0
  5  3  1  0  0  0  0
  6 10  1  0  0  0  0
  6  8  1  0  0  0  0
  7  9  1  0  0  0  0
  8  2  1  6  0  0  0
  8  4  1  0  0  0  0
 10  1  1  0  0  0  0
 11  5  1  6  0  0  0
 12 17  1  0  0  0  0
 13 12  2  0  0  0  0
 13 15  1  0  0  0  0
 14 18  1  0  0  0  0
 15 19  2  0  0  0  0
 17 16  1  0  0  0  0
 17 14  2  0  0  0  0
 19 14  1  0  0  0  0
 20 22  1  0  0  0  0
 20 23  1  0  0  0  0
 22 21  2  0  0  0  0
 23 24  3  0  0  0  0
 25 27  1  0  0  0  0
 25 22  1  0  0  0  0
 26 28  1  0  0  0  0
 27 26  2  0  0  0  0
M  END
>  <MODEL>
8

>  <REMARK>
 VINA RESULT:      -6.6      3.734      7.067
  Name = 
  5 active torsions:
  status: ('A' for Active; 'I' for Inactive)
    1  A    between atoms: C_1  and  C_2
    2  A    between atoms: C_4  and  N_13
    3  A    between atoms: C_9  and  C_15
    4  A    between atoms: C_9  and  C_18
    5  A    between atoms: C_10  and  N_13
                            x       y       z     vdW  Elec       q    Type
                         _______ _______ _______ _____ _____    ______ ____

>  <TORSDO>
F 5

$$$$
=
 OpenBabel11052418053D

 28 30  0  0  1  0  0  0  0  0999 V2000
  191.1840  174.8430  145.2350 C   0  0  2  0  0  3  0  0  0  0  0  0
  194.1640  171.8010  144.7310 O   0  0  0  0  0  1  0  0  0  0  0  0
  190.8110  173.5400  141.5650 C   0  0  1  0  0  3  0  0  0  0  0  0
  191.9660  172.6200  144.1950 C   0  0  1  0  0  3  0  0  0  0  0  0
  191.2110  174.5210  142.6830 C   0  0  0  0  0  2  0  0  0  0  0  0
  193.5390  173.8500  145.7620 C   0  0  0  0  0  2  0  0  0  0  0  0
  191.9260  171.7360  142.9300 C   0  0  0  0  0  2  0  0  0  0  0  0
  193.4300  172.9700  144.5200 C   0  0  1  0  0  3  0  0  0  0  0  0
  190.7540  172.0680  142.0030 C   0  0  0  0  0  2  0  0  0  0  0  0
  192.8740  175.5050  145.4120 S   0  0  0  0  0  0  0  0  0  0  0  0
  191.0640  173.8670  144.0590 C   0  0  2  0  0  3  0  0  0  0  0  0
  190.1240  175.9120  145.2040 C   0  0  0  0  0  0  0  0  0  0  0  0
  190.1810  176.9300  144.2360 C   0  0  0  0  0  3  0  0  0  0  0  0
  188.0360  176.8600  146.0330 C   0  0  0  0  0  0  0  0  0  0  0  0
  189.1860  177.9040  144.1720 C   0  0  0  0  0  3  0  0  0  0  0  0
  188.9390  174.7740  147.1220 C   0  0  0  0  0  1  0  0  0  0  0  0
  189.0370  175.8710  146.1050 C   0  0  0  0  0  0  0  0  0  0  0  0
  186.8660  176.8580  146.9640 C   0  0  0  0  0  1  0  0  0  0  0  0
  188.1190  177.8690  145.0700 C   0  0  0  0  0  3  0  0  0  0  0  0
  189.5700  173.9520  140.9060 N   0  0  0  0  0  0  0  0  0  0  0  0
  188.1580  173.9550  139.0300 O   0  0  0  0  0  0  0  0  0  0  0  0
  189.3160  173.7630  139.4970 C   0  0  0  0  0  0  0  0  0  0  0  0
  188.5560  174.4690  141.7310 C   0  0  0  0  0  0  0  0  0  0  0  0
  187.6820  174.9130  142.4330 C   0  0  0  0  0  3  0  0  0  0  0  0
  190.4080  173.3810  138.5500 C   0  0  0  0  0  2  0  0  0  0  0  0
  190.0780  170.9550  138.5580 C   0  0  0  0  0  3  0  0  0  0  0  0
  190.0690  172.0970  137.8740 C   0  0  0  0  0  3  0  0  0  0  0  0
  189.7310  169.6780  137.8720 C   0  0  0  0  0  1  0  0  0  0  0  0
  1 12  1  6  0  0  0
  1 10  1  0  0  0  0
  3 20  1  1  0  0  0
  3  9  1  0  0  0  0
  3  5  1  0  0  0  0
  4  7  1  6  0  0  0
  4  8  1  0  0  0  0
  8  2  1  1  0  0  0
  8  6  1  0  0  0  0
  9  7  1  0  0  0  0
 10  6  1  0  0  0  0
 11  5  1  6  0  0  0
 11  4  1  0  0  0  0
 11  1  1  0  0  0  0
 12 17  1  0  0  0  0
 13 12  2  0  0  0  0
 14 17  2  0  0  0  0
 14 18  1  0  0  0  0
 15 13  1  0  0  0  0
 15 19  2  0  0  0  0
 17 16  1  0  0  0  0
 19 14  1  0  0  0  0
 20 23  1  0  0  0  0
 21 22  2  0  0  0  0
 22 20  1  0  0  0  0
 23 24  3  0  0  0  0
 25 22  1  0  0  0  0
 27 25  1  0  0  0  0
 27 26  2  0  0  0  0
 28 26  1  0  0  0  0
M  END
>  <MODEL>
9

>  <REMARK>
 VINA RESULT:      -6.5      3.192      6.457
  Name = 
  5 active torsions:
  status: ('A' for Active; 'I' for Inactive)
    1  A    between atoms: C_1  and  C_2
    2  A    between atoms: C_4  and  N_13
    3  A    between atoms: C_9  and  C_15
    4  A    between atoms: C_9  and  C_18
    5  A    between atoms: C_10  and  N_13
                            x       y       z     vdW  Elec       q    Type
                         _______ _______ _______ _____ _____    ______ ____

>  <TORSDO>
F 5

$$$$
