=
 OpenBabel11052419123D

 32 36  0  0  1  0  0  0  0  0999 V2000
  187.6860  176.4530  145.0820 C   0  0  1  0  0  3  0  0  0  0  0  0
  186.9300  178.2130  143.4680 C   0  0  1  0  0  3  0  0  0  0  0  0
  187.7530  176.0290  146.5620 C   0  0  0  0  0  2  0  0  0  0  0  0
  186.8640  177.7200  144.9060 C   0  0  1  0  0  3  0  0  0  0  0  0
  186.1580  179.5290  143.3500 C   0  0  0  0  0  2  0  0  0  0  0  0
  188.3970  178.3950  143.0340 C   0  0  1  0  0  3  0  0  0  0  0  0
  185.4230  177.4680  145.3360 C   0  0  2  0  0  3  0  0  0  0  0  0
  184.6380  178.7760  145.2550 C   0  0  0  0  0  2  0  0  0  0  0  0
  185.3330  176.8380  146.7370 C   0  0  0  0  0  2  0  0  0  0  0  0
  189.3410  177.9160  143.9840 O   0  0  0  0  0  0  0  0  0  0  0  0
  189.0330  176.5770  144.3310 C   0  0  1  0  0  3  0  0  0  0  0  0
  184.7090  179.3850  143.8450 C   0  0  2  0  0  3  0  0  0  0  0  0
  186.6940  176.7180  147.4420 C   0  0  0  0  0  2  0  0  0  0  0  0
  191.8410  173.9740  145.0690 C   0  0  2  0  0  3  0  0  0  0  0  0
  194.3410  175.5320  145.9590 F   0  0  0  0  0  0  0  0  0  0  0  0
  191.8410  172.5970  144.9300 F   0  0  0  0  0  0  0  0  0  0  0  0
  192.3350  176.7920  145.7400 C   0  0  0  0  0  2  0  0  0  0  0  0
  190.1590  175.9330  145.0100 N   0  0  0  0  0  0  0  0  0  0  0  0
  192.3400  174.3300  146.4610 C   0  0  0  0  0  2  0  0  0  0  0  0
  190.8420  176.7440  146.0140 C   0  0  0  0  0  2  0  0  0  0  0  0
  190.4640  174.5320  144.8100 C   0  0  0  0  0  0  0  0  0  0  0  0
  189.5890  173.7690  144.3170 O   0  0  0  0  0  0  0  0  0  0  0  0
  193.0690  175.6750  146.4820 C   0  0  1  0  0  3  0  0  0  0  0  0
  183.8990  178.6130  142.8920 C   0  0  0  0  0  0  0  0  0  0  0  0
  183.2360  177.9810  142.1080 C   0  0  0  0  0  3  0  0  0  0  0  0
  188.6280  177.8130  141.6410 C   0  0  0  0  0  2  0  0  0  0  0  0
  186.7940  177.7130  139.9470 C   0  0  0  0  0  2  0  0  0  0  0  0
  187.5800  175.3260  138.9740 S   0  0  0  0  0  0  0  0  0  0  0  0
  187.8220  175.6790  140.7020 C   0  0  0  0  0  0  0  0  0  0  0  0
  188.1840  174.8160  141.4850 O   0  0  0  0  0  0  0  0  0  0  0  0
  186.3210  176.6330  138.9850 C   0  0  0  0  0  2  0  0  0  0  0  0
  187.4130  177.0320  141.1600 C   0  0  1  0  0  3  0  0  0  0  0  0
  1  3  1  1  0  0  0
  2  5  1  1  0  0  0
  2  4  1  0  0  0  0
  3 13  1  0  0  0  0
  4  1  1  0  0  0  0
  4  7  1  0  0  0  0
  5 12  1  0  0  0  0
  6  2  1  0  0  0  0
  6 10  1  0  0  0  0
  7  9  1  0  0  0  0
  8  7  1  0  0  0  0
  9 13  1  0  0  0  0
 10 11  1  0  0  0  0
 11 18  1  0  0  0  0
 11  1  1  0  0  0  0
 12  8  1  0  0  0  0
 14 19  1  0  0  0  0
 15 23  1  0  0  0  0
 16 14  1  0  0  0  0
 17 20  1  0  0  0  0
 17 23  1  0  0  0  0
 18 20  1  0  0  0  0
 19 23  1  0  0  0  0
 21 18  1  0  0  0  0
 21 14  1  0  0  0  0
 22 21  2  0  0  0  0
 24 12  1  0  0  0  0
 25 24  3  0  0  0  0
 26  6  1  0  0  0  0
 27 32  1  0  0  0  0
 28 31  1  0  0  0  0
 28 29  1  0  0  0  0
 29 32  1  0  0  0  0
 29 30  2  0  0  0  0
 31 27  1  0  0  0  0
 32 26  1  0  0  0  0
M  END
>  <MODEL>
1

>  <REMARK>
 VINA RESULT:      -7.6      0.000      0.000
  Name = 
  4 active torsions:
  status: ('A' for Active; 'I' for Inactive)
    1  A    between atoms: C_10  and  C_28
    2  A    between atoms: C_13  and  C_29
    3  A    between atoms: N_16  and  C_27
    4  A    between atoms: C_28  and  C_32
                            x       y       z     vdW  Elec       q    Type
                         _______ _______ _______ _____ _____    ______ ____

>  <TORSDO>
F 4

$$$$
=
 OpenBabel11052419123D

 32 36  0  0  1  0  0  0  0  0999 V2000
  190.1830  176.5700  145.2960 C   0  0  1  0  0  3  0  0  0  0  0  0
  190.9040  174.4700  144.1370 C   0  0  1  0  0  3  0  0  0  0  0  0
  190.0800  177.3060  146.6460 C   0  0  0  0  0  2  0  0  0  0  0  0
  190.9400  175.2580  145.4370 C   0  0  1  0  0  3  0  0  0  0  0  0
  191.6060  173.1260  144.3430 C   0  0  0  0  0  2  0  0  0  0  0  0
  189.4470  174.2650  143.6780 C   0  0  1  0  0  3  0  0  0  0  0  0
  192.3740  175.5320  145.8770 C   0  0  2  0  0  3  0  0  0  0  0  0
  193.0880  174.2030  146.1180 C   0  0  0  0  0  2  0  0  0  0  0  0
  192.4420  176.4450  147.1140 C   0  0  0  0  0  2  0  0  0  0  0  0
  188.4940  174.9810  144.4540 O   0  0  0  0  0  0  0  0  0  0  0  0
  188.8620  176.3470  144.5220 C   0  0  1  0  0  3  0  0  0  0  0  0
  193.0400  173.3080  144.8690 C   0  0  2  0  0  3  0  0  0  0  0  0
  191.0640  176.7770  147.7050 C   0  0  0  0  0  2  0  0  0  0  0  0
  185.7370  178.6750  144.3760 C   0  0  2  0  0  3  0  0  0  0  0  0
  183.7640  177.7170  146.5350 F   0  0  0  0  0  0  0  0  0  0  0  0
  185.4410  179.7200  143.5180 F   0  0  0  0  0  0  0  0  0  0  0  0
  185.9230  176.7200  146.5620 C   0  0  0  0  0  2  0  0  0  0  0  0
  187.7470  177.1740  144.9890 N   0  0  0  0  0  0  0  0  0  0  0  0
  185.5370  179.1420  145.8100 C   0  0  0  0  0  2  0  0  0  0  0  0
  187.4010  177.0330  146.4000 C   0  0  0  0  0  2  0  0  0  0  0  0
  187.1410  178.1790  144.1410 C   0  0  0  0  0  0  0  0  0  0  0  0
  187.7610  178.5890  143.1210 O   0  0  0  0  0  0  0  0  0  0  0  0
  185.1030  177.9990  146.7300 C   0  0  1  0  0  3  0  0  0  0  0  0
  193.9280  173.8180  143.8150 C   0  0  0  0  0  0  0  0  0  0  0  0
  194.6580  174.2370  142.9510 C   0  0  0  0  0  3  0  0  0  0  0  0
  189.3060  174.5420  142.1820 C   0  0  0  0  0  2  0  0  0  0  0  0
  188.2490  173.0100  140.5160 C   0  0  0  0  0  2  0  0  0  0  0  0
  190.1860  173.3810  138.6790 S   0  0  0  0  0  0  0  0  0  0  0  0
  190.6100  173.4320  140.4070 C   0  0  0  0  0  0  0  0  0  0  0  0
  191.7730  173.4700  140.7780 O   0  0  0  0  0  0  0  0  0  0  0  0
  188.7030  172.4580  139.1720 C   0  0  0  0  0  2  0  0  0  0  0  0
  189.4860  173.2710  141.3650 C   0  0  1  0  0  3  0  0  0  0  0  0
  1  4  1  0  0  0  0
  1  3  1  1  0  0  0
  2  5  1  1  0  0  0
  2  4  1  0  0  0  0
  3 13  1  0  0  0  0
  4  7  1  0  0  0  0
  5 12  1  0  0  0  0
  6  2  1  0  0  0  0
  6 10  1  0  0  0  0
  7  8  1  0  0  0  0
  7  9  1  0  0  0  0
  9 13  1  0  0  0  0
 10 11  1  0  0  0  0
 11 18  1  0  0  0  0
 11  1  1  0  0  0  0
 12  8  1  0  0  0  0
 14 19  1  0  0  0  0
 15 23  1  0  0  0  0
 16 14  1  0  0  0  0
 17 23  1  0  0  0  0
 18 20  1  0  0  0  0
 19 23  1  0  0  0  0
 20 17  1  0  0  0  0
 21 14  1  0  0  0  0
 21 18  1  0  0  0  0
 22 21  2  0  0  0  0
 24 12  1  0  0  0  0
 25 24  3  0  0  0  0
 26  6  1  0  0  0  0
 27 32  1  0  0  0  0
 28 31  1  0  0  0  0
 28 29  1  0  0  0  0
 29 30  2  0  0  0  0
 29 32  1  0  0  0  0
 31 27  1  0  0  0  0
 32 26  1  0  0  0  0
M  END
>  <MODEL>
2

>  <REMARK>
 VINA RESULT:      -7.1      3.218      6.611
  Name = 
  4 active torsions:
  status: ('A' for Active; 'I' for Inactive)
    1  A    between atoms: C_10  and  C_28
    2  A    between atoms: C_13  and  C_29
    3  A    between atoms: N_16  and  C_27
    4  A    between atoms: C_28  and  C_32
                            x       y       z     vdW  Elec       q    Type
                         _______ _______ _______ _____ _____    ______ ____

>  <TORSDO>
F 4

$$$$
=
 OpenBabel11052419123D

 32 36  0  0  1  0  0  0  0  0999 V2000
  189.1640  174.3010  143.2570 C   0  0  1  0  0  3  0  0  0  0  0  0
  189.0760  176.5830  144.2850 C   0  0  1  0  0  3  0  0  0  0  0  0
  189.8480  172.9200  143.2820 C   0  0  0  0  0  2  0  0  0  0  0  0
  189.6400  175.1750  144.4070 C   0  0  1  0  0  3  0  0  0  0  0  0
  189.6400  177.4500  145.4130 C   0  0  0  0  0  2  0  0  0  0  0  0
  189.4220  177.1790  142.9070 C   0  0  1  0  0  3  0  0  0  0  0  0
  189.2530  174.5390  145.7370 C   0  0  2  0  0  3  0  0  0  0  0  0
  189.8310  175.3720  146.8800 C   0  0  0  0  0  2  0  0  0  0  0  0
  189.6920  173.0660  145.8300 C   0  0  0  0  0  2  0  0  0  0  0  0
  190.0250  176.2500  142.0140 O   0  0  0  0  0  0  0  0  0  0  0  0
  189.2250  175.0850  141.9240 C   0  0  1  0  0  3  0  0  0  0  0  0
  189.3670  176.8350  146.7950 C   0  0  2  0  0  3  0  0  0  0  0  0
  190.5250  172.5990  144.6260 C   0  0  0  0  0  2  0  0  0  0  0  0
  191.2910  172.6230  139.7160 C   0  0  2  0  0  3  0  0  0  0  0  0
  189.2990  170.7670  138.2810 F   0  0  0  0  0  0  0  0  0  0  0  0
  192.6610  172.4830  139.5770 F   0  0  0  0  0  0  0  0  0  0  0  0
  188.3640  172.6060  139.4640 C   0  0  0  0  0  2  0  0  0  0  0  0
  189.6030  174.2710  140.7670 N   0  0  0  0  0  0  0  0  0  0  0  0
  190.6630  172.7260  138.3340 C   0  0  0  0  0  2  0  0  0  0  0  0
  188.5660  174.0830  139.7580 C   0  0  0  0  0  2  0  0  0  0  0  0
  190.9660  173.8240  140.5670 C   0  0  0  0  0  0  0  0  0  0  0  0
  191.9050  174.3910  141.1920 O   0  0  0  0  0  0  0  0  0  0  0  0
  189.2460  172.1480  138.3030 C   0  0  1  0  0  3  0  0  0  0  0  0
  187.9480  176.9630  147.1590 C   0  0  0  0  0  0  0  0  0  0  0  0
  186.7850  177.0690  147.4600 C   0  0  0  0  0  3  0  0  0  0  0  0
  188.2050  177.8690  142.2940 C   0  0  0  0  0  2  0  0  0  0  0  0
  186.4890  179.3320  143.3690 C   0  0  0  0  0  2  0  0  0  0  0  0
  184.4130  177.9260  142.3830 S   0  0  0  0  0  0  0  0  0  0  0  0
  185.9220  177.0730  142.7850 C   0  0  0  0  0  0  0  0  0  0  0  0
  185.9890  175.8540  142.7790 O   0  0  0  0  0  0  0  0  0  0  0  0
  184.9750  179.2430  143.4970 C   0  0  0  0  0  2  0  0  0  0  0  0
  187.0430  177.9170  143.2760 C   0  0  1  0  0  3  0  0  0  0  0  0
  1  3  1  6  0  0  0
  1  4  1  0  0  0  0
  2  4  1  0  0  0  0
  2  5  1  1  0  0  0
  3 13  1  0  0  0  0
  4  7  1  0  0  0  0
  5 12  1  0  0  0  0
  6  2  1  0  0  0  0
  7  9  1  0  0  0  0
  7  8  1  0  0  0  0
 10  6  1  0  0  0  0
 11 10  1  0  0  0  0
 11  1  1  0  0  0  0
 12  8  1  0  0  0  0
 12 24  1  0  0  0  0
 13  9  1  0  0  0  0
 14 21  1  0  0  0  0
 15 23  1  0  0  0  0
 16 14  1  0  0  0  0
 17 20  1  0  0  0  0
 18 11  1  0  0  0  0
 19 14  1  0  0  0  0
 20 18  1  0  0  0  0
 21 18  1  0  0  0  0
 21 22  2  0  0  0  0
 23 19  1  0  0  0  0
 23 17  1  0  0  0  0
 24 25  3  0  0  0  0
 26  6  1  0  0  0  0
 26 32  1  0  0  0  0
 27 31  1  0  0  0  0
 28 29  1  0  0  0  0
 28 31  1  0  0  0  0
 29 32  1  0  0  0  0
 30 29  2  0  0  0  0
 32 27  1  0  0  0  0
M  END
>  <MODEL>
3

>  <REMARK>
 VINA RESULT:      -6.8      3.035      5.470
  Name = 
  4 active torsions:
  status: ('A' for Active; 'I' for Inactive)
    1  A    between atoms: C_10  and  C_28
    2  A    between atoms: C_13  and  C_29
    3  A    between atoms: N_16  and  C_27
    4  A    between atoms: C_28  and  C_32
                            x       y       z     vdW  Elec       q    Type
                         _______ _______ _______ _____ _____    ______ ____

>  <TORSDO>
F 4

$$$$
=
 OpenBabel11052419123D

 32 36  0  0  1  0  0  0  0  0999 V2000
  190.2310  174.8140  143.5940 C   0  0  1  0  0  3  0  0  0  0  0  0
  189.1540  176.9720  144.2700 C   0  0  1  0  0  3  0  0  0  0  0  0
  191.1000  173.6270  144.0540 C   0  0  0  0  0  2  0  0  0  0  0  0
  189.8800  175.7270  144.7590 C   0  0  1  0  0  3  0  0  0  0  0  0
  188.8900  177.8990  145.4590 C   0  0  0  0  0  2  0  0  0  0  0  0
  189.9880  177.6860  143.1900 C   0  0  1  0  0  3  0  0  0  0  0  0
  189.0440  174.9650  145.7810 C   0  0  2  0  0  3  0  0  0  0  0  0
  188.7910  175.8620  146.9920 C   0  0  0  0  0  2  0  0  0  0  0  0
  189.6920  173.6300  146.1880 C   0  0  0  0  0  2  0  0  0  0  0  0
  191.1370  176.9570  142.7760 O   0  0  0  0  0  0  0  0  0  0  0  0
  190.7610  175.6440  142.4010 C   0  0  1  0  0  3  0  0  0  0  0  0
  188.1190  177.1820  146.5800 C   0  0  2  0  0  3  0  0  0  0  0  0
  191.0860  173.4160  145.5780 C   0  0  0  0  0  2  0  0  0  0  0  0
  192.5240  173.7800  139.4640 C   0  0  2  0  0  3  0  0  0  0  0  0
  195.3210  175.0190  139.1230 F   0  0  0  0  0  0  0  0  0  0  0  0
  192.0530  172.7820  138.6290 F   0  0  0  0  0  0  0  0  0  0  0  0
  194.0910  175.7020  141.0410 C   0  0  0  0  0  2  0  0  0  0  0  0
  191.8240  174.9860  141.6380 N   0  0  0  0  0  0  0  0  0  0  0  0
  193.8700  173.3540  140.0310 C   0  0  0  0  0  2  0  0  0  0  0  0
  193.1800  175.1830  142.1410 C   0  0  0  0  0  2  0  0  0  0  0  0
  191.5260  174.0710  140.5560 C   0  0  0  0  0  0  0  0  0  0  0  0
  190.3710  173.5720  140.4640 O   0  0  0  0  0  0  0  0  0  0  0  0
  194.7810  174.5520  140.3070 C   0  0  1  0  0  3  0  0  0  0  0  0
  186.7150  176.9670  146.2010 C   0  0  0  0  0  0  0  0  0  0  0  0
  185.5630  176.7900  145.8920 C   0  0  0  0  0  3  0  0  0  0  0  0
  189.1080  178.1030  142.0130 C   0  0  0  0  0  2  0  0  0  0  0  0
  186.6920  178.6560  142.3280 C   0  0  0  0  0  2  0  0  0  0  0  0
  185.9480  177.5410  139.9900 S   0  0  0  0  0  0  0  0  0  0  0  0
  187.3140  176.8370  140.8890 C   0  0  0  0  0  0  0  0  0  0  0  0
  187.8160  175.7750  140.5580 O   0  0  0  0  0  0  0  0  0  0  0  0
  185.4300  178.2910  141.5600 C   0  0  0  0  0  2  0  0  0  0  0  0
  187.7030  177.5320  142.1430 C   0  0  1  0  0  3  0  0  0  0  0  0
  1  3  1  1  0  0  0
  1  4  1  0  0  0  0
  2  4  1  0  0  0  0
  2  5  1  1  0  0  0
  3 13  1  0  0  0  0
  4  7  1  0  0  0  0
  5 12  1  0  0  0  0
  6  2  1  0  0  0  0
  7  9  1  0  0  0  0
  7  8  1  0  0  0  0
 10  6  1  0  0  0  0
 11 10  1  0  0  0  0
 11  1  1  0  0  0  0
 12  8  1  0  0  0  0
 13  9  1  0  0  0  0
 14 19  1  0  0  0  0
 14 21  1  0  0  0  0
 15 23  1  0  0  0  0
 16 14  1  0  0  0  0
 17 20  1  0  0  0  0
 18 20  1  0  0  0  0
 18 11  1  0  0  0  0
 19 23  1  0  0  0  0
 21 18  1  0  0  0  0
 22 21  2  0  0  0  0
 23 17  1  0  0  0  0
 24 12  1  0  0  0  0
 25 24  3  0  0  0  0
 26 32  1  0  0  0  0
 26  6  1  0  0  0  0
 28 29  1  0  0  0  0
 28 31  1  0  0  0  0
 29 32  1  0  0  0  0
 30 29  2  0  0  0  0
 31 27  1  0  0  0  0
 32 27  1  0  0  0  0
M  END
>  <MODEL>
4

>  <REMARK>
 VINA RESULT:      -6.8      3.093      4.332
  Name = 
  4 active torsions:
  status: ('A' for Active; 'I' for Inactive)
    1  A    between atoms: C_10  and  C_28
    2  A    between atoms: C_13  and  C_29
    3  A    between atoms: N_16  and  C_27
    4  A    between atoms: C_28  and  C_32
                            x       y       z     vdW  Elec       q    Type
                         _______ _______ _______ _____ _____    ______ ____

>  <TORSDO>
F 4

$$$$
=
 OpenBabel11052419123D

 32 36  0  0  1  0  0  0  0  0999 V2000
  190.6400  176.7060  145.5630 C   0  0  1  0  0  3  0  0  0  0  0  0
  192.0320  175.0940  144.2440 C   0  0  1  0  0  3  0  0  0  0  0  0
  190.2680  177.2080  146.9720 C   0  0  0  0  0  2  0  0  0  0  0  0
  191.7760  175.6950  145.6180 C   0  0  1  0  0  3  0  0  0  0  0  0
  193.1240  174.0280  144.3560 C   0  0  0  0  0  2  0  0  0  0  0  0
  190.7330  174.4940  143.6750 C   0  0  1  0  0  3  0  0  0  0  0  0
  193.0320  176.3560  146.1740 C   0  0  2  0  0  3  0  0  0  0  0  0
  194.1290  175.3040  146.3240 C   0  0  0  0  0  2  0  0  0  0  0  0
  192.7670  177.0930  147.5000 C   0  0  0  0  0  2  0  0  0  0  0  0
  189.5780  174.7740  144.4560 O   0  0  0  0  0  0  0  0  0  0  0  0
  189.4840  176.1680  144.6870 C   0  0  1  0  0  3  0  0  0  0  0  0
  194.4070  174.5930  144.9900 C   0  0  2  0  0  3  0  0  0  0  0  0
  191.3390  176.8980  148.0320 C   0  0  0  0  0  2  0  0  0  0  0  0
  186.5680  176.8790  147.1760 C   0  0  2  0  0  3  0  0  0  0  0  0
  185.1050  179.4040  146.1960 F   0  0  0  0  0  0  0  0  0  0  0  0
  186.2080  176.2240  148.3410 F   0  0  0  0  0  0  0  0  0  0  0  0
  186.7430  178.4970  144.7290 C   0  0  0  0  0  2  0  0  0  0  0  0
  188.1490  176.5370  145.1630 N   0  0  0  0  0  0  0  0  0  0  0  0
  185.3370  177.0300  146.2950 C   0  0  0  0  0  2  0  0  0  0  0  0
  187.2830  177.1860  144.1830 C   0  0  0  0  0  2  0  0  0  0  0  0
  187.6720  176.1350  146.4690 C   0  0  0  0  0  0  0  0  0  0  0  0
  188.2530  175.1970  147.0820 O   0  0  0  0  0  0  0  0  0  0  0  0
  185.4010  178.2910  145.4310 C   0  0  1  0  0  3  0  0  0  0  0  0
  195.1130  175.4780  144.0520 C   0  0  0  0  0  0  0  0  0  0  0  0
  195.6910  176.2040  143.2820 C   0  0  0  0  0  3  0  0  0  0  0  0
  190.5510  174.8840  142.2090 C   0  0  0  0  0  2  0  0  0  0  0  0
  188.6340  174.5640  140.6400 C   0  0  0  0  0  2  0  0  0  0  0  0
  190.1350  173.3310  138.7720 S   0  0  0  0  0  0  0  0  0  0  0  0
  190.5410  173.1130  140.4920 C   0  0  0  0  0  0  0  0  0  0  0  0
  191.3750  172.2980  140.8530 O   0  0  0  0  0  0  0  0  0  0  0  0
  188.4750  173.8110  139.3270 C   0  0  0  0  0  2  0  0  0  0  0  0
  189.7040  173.8620  141.4650 C   0  0  1  0  0  3  0  0  0  0  0  0
  1  4  1  0  0  0  0
  1  3  1  1  0  0  0
  2  5  1  1  0  0  0
  2  4  1  0  0  0  0
  3 13  1  0  0  0  0
  4  7  1  0  0  0  0
  5 12  1  0  0  0  0
  6  2  1  0  0  0  0
  6 10  1  0  0  0  0
  7  8  1  0  0  0  0
  7  9  1  0  0  0  0
  9 13  1  0  0  0  0
 10 11  1  0  0  0  0
 11 18  1  0  0  0  0
 11  1  1  0  0  0  0
 12  8  1  0  0  0  0
 14 16  1  0  0  0  0
 17 23  1  0  0  0  0
 18 21  1  0  0  0  0
 19 14  1  0  0  0  0
 20 17  1  0  0  0  0
 20 18  1  0  0  0  0
 21 22  2  0  0  0  0
 21 14  1  0  0  0  0
 23 15  1  0  0  0  0
 23 19  1  0  0  0  0
 24 12  1  0  0  0  0
 25 24  3  0  0  0  0
 26  6  1  0  0  0  0
 27 32  1  0  0  0  0
 28 31  1  0  0  0  0
 28 29  1  0  0  0  0
 29 30  2  0  0  0  0
 29 32  1  0  0  0  0
 31 27  1  0  0  0  0
 32 26  1  0  0  0  0
M  END
>  <MODEL>
5

>  <REMARK>
 VINA RESULT:      -6.7      2.980      6.487
  Name = 
  4 active torsions:
  status: ('A' for Active; 'I' for Inactive)
    1  A    between atoms: C_10  and  C_28
    2  A    between atoms: C_13  and  C_29
    3  A    between atoms: N_16  and  C_27
    4  A    between atoms: C_28  and  C_32
                            x       y       z     vdW  Elec       q    Type
                         _______ _______ _______ _____ _____    ______ ____

>  <TORSDO>
F 4

$$$$
=
 OpenBabel11052419123D

 32 36  0  0  1  0  0  0  0  0999 V2000
  190.7090  175.8870  143.8060 C   0  0  1  0  0  3  0  0  0  0  0  0
  191.1930  173.4340  143.6450 C   0  0  1  0  0  3  0  0  0  0  0  0
  191.0420  177.2040  144.5340 C   0  0  0  0  0  2  0  0  0  0  0  0
  191.6260  174.7590  144.2550 C   0  0  1  0  0  3  0  0  0  0  0  0
  192.0890  172.3160  144.1820 C   0  0  0  0  0  2  0  0  0  0  0  0
  189.7130  173.1580  143.9700 C   0  0  1  0  0  3  0  0  0  0  0  0
  193.0700  175.0880  143.8900 C   0  0  2  0  0  3  0  0  0  0  0  0
  193.9880  173.9990  144.4420 C   0  0  0  0  0  2  0  0  0  0  0  0
  193.4910  176.4860  144.3760 C   0  0  0  0  0  2  0  0  0  0  0  0
  189.0490  174.2450  144.6030 O   0  0  0  0  0  0  0  0  0  0  0  0
  189.2330  175.4250  143.8410 C   0  0  1  0  0  3  0  0  0  0  0  0
  193.5780  172.6090  143.9300 C   0  0  2  0  0  3  0  0  0  0  0  0
  192.4190  177.1890  145.2230 C   0  0  0  0  0  2  0  0  0  0  0  0
  186.4750  178.1650  143.5320 C   0  0  2  0  0  3  0  0  0  0  0  0
  184.5560  177.8220  145.9130 F   0  0  0  0  0  0  0  0  0  0  0  0
  186.2690  179.1180  142.5500 F   0  0  0  0  0  0  0  0  0  0  0  0
  186.5440  176.5180  145.9640 C   0  0  0  0  0  2  0  0  0  0  0  0
  188.2880  176.4690  144.2440 N   0  0  0  0  0  0  0  0  0  0  0  0
  186.4560  178.8460  144.8920 C   0  0  0  0  0  2  0  0  0  0  0  0
  188.0340  176.5750  145.6770 C   0  0  0  0  0  2  0  0  0  0  0  0
  187.7710  177.4310  143.2950 C   0  0  0  0  0  0  0  0  0  0  0  0
  188.3640  177.6000  142.1930 O   0  0  0  0  0  0  0  0  0  0  0  0
  185.9320  177.9190  145.9910 C   0  0  1  0  0  3  0  0  0  0  0  0
  193.9140  172.4460  142.5080 C   0  0  0  0  0  0  0  0  0  0  0  0
  194.1920  172.3110  141.3430 C   0  0  0  0  0  3  0  0  0  0  0  0
  188.9680  172.6630  142.7310 C   0  0  0  0  0  2  0  0  0  0  0  0
  190.2290  171.5780  140.8680 C   0  0  0  0  0  2  0  0  0  0  0  0
  188.6370  172.6050  138.9520 S   0  0  0  0  0  0  0  0  0  0  0  0
  188.9350  173.5520  140.4290 C   0  0  0  0  0  0  0  0  0  0  0  0
  188.5700  174.7120  140.5290 O   0  0  0  0  0  0  0  0  0  0  0  0
  190.1520  171.6890  139.3520 C   0  0  0  0  0  2  0  0  0  0  0  0
  189.7800  172.9040  141.4660 C   0  0  1  0  0  3  0  0  0  0  0  0
  1 11  1  0  0  0  0
  1  4  1  0  0  0  0
  1  3  1  1  0  0  0
  2  6  1  0  0  0  0
  2  5  1  1  0  0  0
  2  4  1  0  0  0  0
  3 13  1  0  0  0  0
  6 10  1  0  0  0  0
  7  4  1  0  0  0  0
  7  9  1  0  0  0  0
  7  8  1  0  0  0  0
  9 13  1  0  0  0  0
 11 18  1  0  0  0  0
 11 10  1  0  0  0  0
 12  5  1  0  0  0  0
 12  8  1  0  0  0  0
 14 19  1  0  0  0  0
 15 23  1  0  0  0  0
 16 14  1  0  0  0  0
 17 23  1  0  0  0  0
 18 20  1  0  0  0  0
 19 23  1  0  0  0  0
 20 17  1  0  0  0  0
 21 14  1  0  0  0  0
 21 18  1  0  0  0  0
 22 21  2  0  0  0  0
 24 12  1  0  0  0  0
 25 24  3  0  0  0  0
 26  6  1  0  0  0  0
 27 32  1  0  0  0  0
 28 31  1  0  0  0  0
 28 29  1  0  0  0  0
 29 30  2  0  0  0  0
 29 32  1  0  0  0  0
 31 27  1  0  0  0  0
 32 26  1  0  0  0  0
M  END
>  <MODEL>
6

>  <REMARK>
 VINA RESULT:      -6.7      3.220      6.892
  Name = 
  4 active torsions:
  status: ('A' for Active; 'I' for Inactive)
    1  A    between atoms: C_10  and  C_28
    2  A    between atoms: C_13  and  C_29
    3  A    between atoms: N_16  and  C_27
    4  A    between atoms: C_28  and  C_32
                            x       y       z     vdW  Elec       q    Type
                         _______ _______ _______ _____ _____    ______ ____

>  <TORSDO>
F 4

$$$$
=
 OpenBabel11052419123D

 32 36  0  0  1  0  0  0  0  0999 V2000
  188.5990  175.0550  143.3720 C   0  0  1  0  0  3  0  0  0  0  0  0
  190.9930  174.3340  143.5310 C   0  0  1  0  0  3  0  0  0  0  0  0
  187.5140  175.6710  142.4680 C   0  0  0  0  0  2  0  0  0  0  0  0
  189.8840  174.7980  142.5980 C   0  0  1  0  0  3  0  0  0  0  0  0
  192.2850  174.1620  142.7290 C   0  0  0  0  0  2  0  0  0  0  0  0
  191.1850  175.3460  144.6750 C   0  0  1  0  0  3  0  0  0  0  0  0
  189.6280  173.7780  141.4940 C   0  0  2  0  0  3  0  0  0  0  0  0
  190.8980  173.6120  140.6600 C   0  0  0  0  0  2  0  0  0  0  0  0
  188.4200  174.1550  140.6190 C   0  0  0  0  0  2  0  0  0  0  0  0
  190.2020  176.3730  144.7070 O   0  0  0  0  0  0  0  0  0  0  0  0
  188.9080  175.7960  144.6950 C   0  0  1  0  0  3  0  0  0  0  0  0
  192.0940  173.2090  141.5370 C   0  0  2  0  0  3  0  0  0  0  0  0
  187.8160  175.5250  140.9660 C   0  0  0  0  0  2  0  0  0  0  0  0
  186.2720  178.6500  144.3590 C   0  0  2  0  0  3  0  0  0  0  0  0
  183.8680  177.9060  146.1300 F   0  0  0  0  0  0  0  0  0  0  0  0
  186.2850  179.7900  143.5750 F   0  0  0  0  0  0  0  0  0  0  0  0
  185.8020  176.5400  146.3490 C   0  0  0  0  0  2  0  0  0  0  0  0
  187.8890  176.7720  145.0860 N   0  0  0  0  0  0  0  0  0  0  0  0
  185.9410  179.0400  145.7910 C   0  0  0  0  0  2  0  0  0  0  0  0
  187.3180  176.5940  146.4180 C   0  0  0  0  0  2  0  0  0  0  0  0
  187.5930  177.9290  144.2670 C   0  0  0  0  0  0  0  0  0  0  0  0
  188.4170  178.2940  143.3840 O   0  0  0  0  0  0  0  0  0  0  0  0
  185.1910  177.9290  146.5300 C   0  0  1  0  0  3  0  0  0  0  0  0
  191.9750  171.8150  141.9900 C   0  0  0  0  0  0  0  0  0  0  0  0
  191.8790  170.6730  142.3630 C   0  0  0  0  0  3  0  0  0  0  0  0
  191.3190  174.6280  146.0170 C   0  0  0  0  0  2  0  0  0  0  0  0
  193.7980  174.4420  145.7630 C   0  0  0  0  0  2  0  0  0  0  0  0
  194.1910  177.1040  145.8910 S   0  0  0  0  0  0  0  0  0  0  0  0
  192.8580  176.3810  146.8220 C   0  0  0  0  0  0  0  0  0  0  0  0
  192.2220  177.0300  147.6370 O   0  0  0  0  0  0  0  0  0  0  0  0
  194.9350  175.4490  145.8570 C   0  0  0  0  0  2  0  0  0  0  0  0
  192.6660  174.9160  146.6660 C   0  0  1  0  0  3  0  0  0  0  0  0
  1  3  1  6  0  0  0
  1 11  1  0  0  0  0
  2  5  1  6  0  0  0
  2  6  1  0  0  0  0
  4  1  1  0  0  0  0
  4  2  1  0  0  0  0
  6 10  1  0  0  0  0
  6 26  1  0  0  0  0
  7  4  1  0  0  0  0
  8  7  1  0  0  0  0
  8 12  1  0  0  0  0
  9 13  1  0  0  0  0
  9  7  1  0  0  0  0
 11 10  1  0  0  0  0
 11 18  1  0  0  0  0
 12 24  1  0  0  0  0
 12  5  1  0  0  0  0
 13  3  1  0  0  0  0
 14 19  1  0  0  0  0
 15 23  1  0  0  0  0
 16 14  1  0  0  0  0
 17 20  1  0  0  0  0
 17 23  1  0  0  0  0
 18 20  1  0  0  0  0
 19 23  1  0  0  0  0
 21 14  1  0  0  0  0
 21 18  1  0  0  0  0
 22 21  2  0  0  0  0
 24 25  3  0  0  0  0
 26 32  1  0  0  0  0
 27 31  1  0  0  0  0
 27 32  1  0  0  0  0
 28 29  1  0  0  0  0
 29 30  2  0  0  0  0
 31 28  1  0  0  0  0
 32 29  1  0  0  0  0
M  END
>  <MODEL>
7

>  <REMARK>
 VINA RESULT:      -6.6      3.590      7.414
  Name = 
  4 active torsions:
  status: ('A' for Active; 'I' for Inactive)
    1  A    between atoms: C_10  and  C_28
    2  A    between atoms: C_13  and  C_29
    3  A    between atoms: N_16  and  C_27
    4  A    between atoms: C_28  and  C_32
                            x       y       z     vdW  Elec       q    Type
                         _______ _______ _______ _____ _____    ______ ____

>  <TORSDO>
F 4

$$$$
=
 OpenBabel11052419123D

 32 36  0  0  1  0  0  0  0  0999 V2000
  192.2590  175.2620  144.8420 C   0  0  1  0  0  3  0  0  0  0  0  0
  192.8690  172.8570  144.4940 C   0  0  1  0  0  3  0  0  0  0  0  0
  192.4580  176.5090  145.7250 C   0  0  0  0  0  2  0  0  0  0  0  0
  193.1790  174.1280  145.2700 C   0  0  1  0  0  3  0  0  0  0  0  0
  193.7600  171.7240  145.0080 C   0  0  0  0  0  2  0  0  0  0  0  0
  191.3790  172.4950  144.6380 C   0  0  1  0  0  3  0  0  0  0  0  0
  194.6340  174.5450  145.0880 C   0  0  2  0  0  3  0  0  0  0  0  0
  195.5440  173.4400  145.6220 C   0  0  0  0  0  2  0  0  0  0  0  0
  194.9410  175.9010  145.7480 C   0  0  0  0  0  2  0  0  0  0  0  0
  190.6070  173.4880  145.3020 O   0  0  0  0  0  0  0  0  0  0  0  0
  190.8100  174.7450  144.6810 C   0  0  1  0  0  3  0  0  0  0  0  0
  195.2510  172.0950  144.9380 C   0  0  2  0  0  3  0  0  0  0  0  0
  193.7590  176.4740  146.5460 C   0  0  0  0  0  2  0  0  0  0  0  0
  187.7760  177.1790  144.3920 C   0  0  2  0  0  3  0  0  0  0  0  0
  186.0100  176.7600  146.8770 F   0  0  0  0  0  0  0  0  0  0  0  0
  187.4300  178.0580  143.3810 F   0  0  0  0  0  0  0  0  0  0  0  0
  188.1210  175.6640  146.8860 C   0  0  0  0  0  2  0  0  0  0  0  0
  189.7820  175.7070  145.0850 N   0  0  0  0  0  0  0  0  0  0  0  0
  187.7480  177.9190  145.7200 C   0  0  0  0  0  2  0  0  0  0  0  0
  189.5840  175.8560  146.5240 C   0  0  0  0  0  2  0  0  0  0  0  0
  189.1280  176.5670  144.1220 C   0  0  0  0  0  0  0  0  0  0  0  0
  189.6510  176.7410  142.9870 O   0  0  0  0  0  0  0  0  0  0  0  0
  187.3720  176.9970  146.8830 C   0  0  1  0  0  3  0  0  0  0  0  0
  195.7320  172.0890  143.5500 C   0  0  0  0  0  0  0  0  0  0  0  0
  196.1260  172.0850  142.4100 C   0  0  0  0  0  3  0  0  0  0  0  0
  190.7830  172.1020  143.2870 C   0  0  0  0  0  2  0  0  0  0  0  0
  192.0930  170.9270  141.5140 C   0  0  0  0  0  2  0  0  0  0  0  0
  190.9940  172.3510  139.5070 S   0  0  0  0  0  0  0  0  0  0  0  0
  191.2350  173.1290  141.0900 C   0  0  0  0  0  0  0  0  0  0  0  0
  191.0660  174.3280  141.2440 O   0  0  0  0  0  0  0  0  0  0  0  0
  192.2540  171.1490  140.0170 C   0  0  0  0  0  2  0  0  0  0  0  0
  191.7980  172.2720  142.1650 C   0  0  1  0  0  3  0  0  0  0  0  0
  1  4  1  0  0  0  0
  1  3  1  1  0  0  0
  2  6  1  0  0  0  0
  2  5  1  1  0  0  0
  2  4  1  0  0  0  0
  3 13  1  0  0  0  0
  6 10  1  0  0  0  0
  7  4  1  0  0  0  0
  7  8  1  0  0  0  0
  7  9  1  0  0  0  0
  9 13  1  0  0  0  0
 11  1  1  0  0  0  0
 11 18  1  0  0  0  0
 11 10  1  0  0  0  0
 12  5  1  0  0  0  0
 12  8  1  0  0  0  0
 14 19  1  0  0  0  0
 15 23  1  0  0  0  0
 16 14  1  0  0  0  0
 18 20  1  0  0  0  0
 19 23  1  0  0  0  0
 20 17  1  0  0  0  0
 21 14  1  0  0  0  0
 21 18  1  0  0  0  0
 22 21  2  0  0  0  0
 23 17  1  0  0  0  0
 24 12  1  0  0  0  0
 25 24  3  0  0  0  0
 26  6  1  0  0  0  0
 27 32  1  0  0  0  0
 28 31  1  0  0  0  0
 28 29  1  0  0  0  0
 29 30  2  0  0  0  0
 29 32  1  0  0  0  0
 31 27  1  0  0  0  0
 32 26  1  0  0  0  0
M  END
>  <MODEL>
8

>  <REMARK>
 VINA RESULT:      -6.6      3.280      7.561
  Name = 
  4 active torsions:
  status: ('A' for Active; 'I' for Inactive)
    1  A    between atoms: C_10  and  C_28
    2  A    between atoms: C_13  and  C_29
    3  A    between atoms: N_16  and  C_27
    4  A    between atoms: C_28  and  C_32
                            x       y       z     vdW  Elec       q    Type
                         _______ _______ _______ _____ _____    ______ ____

>  <TORSDO>
F 4

$$$$
=
 OpenBabel11052419123D

 32 36  0  0  1  0  0  0  0  0999 V2000
  191.3960  174.1050  141.8310 C   0  0  1  0  0  3  0  0  0  0  0  0
  189.1790  174.0160  140.6680 C   0  0  1  0  0  3  0  0  0  0  0  0
  192.5850  173.2840  142.3660 C   0  0  0  0  0  2  0  0  0  0  0  0
  190.4210  173.2280  141.0600 C   0  0  1  0  0  3  0  0  0  0  0  0
  188.1910  173.0810  139.9660 C   0  0  0  0  0  2  0  0  0  0  0  0
  188.5390  174.6570  141.9140 C   0  0  1  0  0  3  0  0  0  0  0  0
  191.1100  172.6390  139.8340 C   0  0  2  0  0  3  0  0  0  0  0  0
  190.1520  171.6780  139.1320 C   0  0  0  0  0  2  0  0  0  0  0  0
  192.4430  171.9550  140.1860 C   0  0  0  0  0  2  0  0  0  0  0  0
  189.3190  174.5210  143.0950 O   0  0  0  0  0  0  0  0  0  0  0  0
  190.6370  174.9820  142.8550 C   0  0  1  0  0  3  0  0  0  0  0  0
  188.8340  172.3760  138.7590 C   0  0  2  0  0  3  0  0  0  0  0  0
  192.7260  171.9060  141.6960 C   0  0  0  0  0  2  0  0  0  0  0  0
  192.8520  176.7580  145.5280 C   0  0  2  0  0  3  0  0  0  0  0  0
  191.5660  176.2590  148.2790 F   0  0  0  0  0  0  0  0  0  0  0  0
  193.9830  177.5410  145.3740 F   0  0  0  0  0  0  0  0  0  0  0  0
  190.6520  175.0430  146.4510 C   0  0  0  0  0  2  0  0  0  0  0  0
  191.3590  175.1980  144.1100 N   0  0  0  0  0  0  0  0  0  0  0  0
  193.1320  175.6860  146.5700 C   0  0  0  0  0  2  0  0  0  0  0  0
  191.0340  174.2780  145.1960 C   0  0  0  0  0  2  0  0  0  0  0  0
  192.4380  176.1580  144.2080 C   0  0  0  0  0  0  0  0  0  0  0  0
  192.9920  176.5810  143.1550 O   0  0  0  0  0  0  0  0  0  0  0  0
  191.8700  175.2910  147.3400 C   0  0  1  0  0  3  0  0  0  0  0  0
  189.0250  173.3110  137.6420 C   0  0  0  0  0  0  0  0  0  0  0  0
  189.1840  174.0790  136.7250 C   0  0  0  0  0  3  0  0  0  0  0  0
  188.1520  176.1090  141.6380 C   0  0  0  0  0  2  0  0  0  0  0  0
  186.5480  176.4220  143.5270 C   0  0  0  0  0  2  0  0  0  0  0  0
  185.8560  178.9120  142.7630 S   0  0  0  0  0  0  0  0  0  0  0  0
  186.2790  177.7110  141.5190 C   0  0  0  0  0  0  0  0  0  0  0  0
  186.1110  177.9350  140.3310 O   0  0  0  0  0  0  0  0  0  0  0  0
  185.5380  177.5090  143.8690 C   0  0  0  0  0  2  0  0  0  0  0  0
  186.7000  176.3740  142.0130 C   0  0  1  0  0  3  0  0  0  0  0  0
  1  3  1  1  0  0  0
  1 11  1  0  0  0  0
  2  5  1  1  0  0  0
  2  4  1  0  0  0  0
  2  6  1  0  0  0  0
  4  1  1  0  0  0  0
  6 10  1  0  0  0  0
  7  9  1  0  0  0  0
  7  4  1  0  0  0  0
  8  7  1  0  0  0  0
  9 13  1  0  0  0  0
 11 10  1  0  0  0  0
 11 18  1  0  0  0  0
 12  8  1  0  0  0  0
 12  5  1  0  0  0  0
 13  3  1  0  0  0  0
 14 19  1  0  0  0  0
 16 14  1  0  0  0  0
 17 23  1  0  0  0  0
 18 21  1  0  0  0  0
 18 20  1  0  0  0  0
 19 23  1  0  0  0  0
 20 17  1  0  0  0  0
 21 14  1  0  0  0  0
 22 21  2  0  0  0  0
 23 15  1  0  0  0  0
 24 12  1  0  0  0  0
 25 24  3  0  0  0  0
 26  6  1  0  0  0  0
 26 32  1  0  0  0  0
 27 31  1  0  0  0  0
 28 31  1  0  0  0  0
 29 32  1  0  0  0  0
 29 28  1  0  0  0  0
 30 29  2  0  0  0  0
 32 27  1  0  0  0  0
M  END
>  <MODEL>
9

>  <REMARK>
 VINA RESULT:      -6.5      3.035      5.900
  Name = 
  4 active torsions:
  status: ('A' for Active; 'I' for Inactive)
    1  A    between atoms: C_10  and  C_28
    2  A    between atoms: C_13  and  C_29
    3  A    between atoms: N_16  and  C_27
    4  A    between atoms: C_28  and  C_32
                            x       y       z     vdW  Elec       q    Type
                         _______ _______ _______ _____ _____    ______ ____

>  <TORSDO>
F 4

$$$$
