=
 OpenBabel11052417183D

 30 33  0  0  1  0  0  0  0  0999 V2000
  190.2580  177.0660  143.8880 N   0  0  0  0  0  2  0  0  0  0  0  0
  192.1980  176.4230  145.2660 C   0  0  0  0  0  0  0  0  0  0  0  0
  187.6910  176.0800  147.0940 N   0  0  0  0  0  2  0  0  0  0  0  0
  188.8320  177.3480  143.7150 C   0  0  2  0  0  3  0  0  0  0  0  0
  186.3620  176.7000  147.1290 C   0  0  0  0  0  2  0  0  0  0  0  0
  192.7340  176.0310  146.4960 C   0  0  0  0  0  3  0  0  0  0  0  0
  193.1080  176.5660  144.0950 C   0  0  0  0  0  1  0  0  0  0  0  0
  188.5150  176.8370  146.1520 C   0  0  2  0  0  3  0  0  0  0  0  0
  191.9060  175.8890  147.6120 C   0  0  0  0  0  3  0  0  0  0  0  0
  190.8210  176.6750  145.1510 C   0  0  0  0  0  0  0  0  0  0  0  0
  188.0070  176.5580  144.7360 C   0  0  1  0  0  3  0  0  0  0  0  0
  185.7620  176.8490  145.7460 C   0  0  0  0  0  3  0  0  0  0  0  0
  186.5310  176.8410  144.6450 C   0  0  0  0  0  3  0  0  0  0  0  0
  190.5350  176.1300  147.5010 C   0  0  0  0  0  3  0  0  0  0  0  0
  189.9790  176.5010  146.2690 C   0  0  0  0  0  0  0  0  0  0  0  0
  187.9990  175.5040  140.6330 O   0  0  0  0  0  0  0  0  0  0  0  0
  188.4330  175.7120  141.7990 C   0  0  0  0  0  0  0  0  0  0  0  0
  188.4260  177.0490  142.3420 N   0  0  0  0  0  0  0  0  0  0  0  0
  188.1620  173.3050  142.3690 C   0  0  0  0  0  2  0  0  0  0  0  0
  190.3840  174.2350  142.2220 C   0  0  0  0  0  2  0  0  0  0  0  0
  188.9630  174.5610  142.6010 C   0  0  1  0  0  3  0  0  0  0  0  0
  188.9160  172.1910  142.9180 N   0  0  0  0  0  2  0  0  0  0  0  0
  190.6270  172.4630  142.5330 S   0  0  0  0  0  0  0  0  0  0  0  0
  187.9510  178.1670  141.5370 C   0  0  0  0  0  2  0  0  0  0  0  0
  186.6090  178.6550  142.0560 C   0  0  0  0  0  2  0  0  0  0  0  0
  185.4770  177.9390  141.3430 C   0  0  0  0  0  2  0  0  0  0  0  0
  184.2070  178.2770  141.9630 N   0  0  0  0  0  2  0  0  0  0  0  0
  182.9610  177.7270  139.9320 O   0  0  0  0  0  0  0  0  0  0  0  0
  182.9770  178.1670  141.2510 C   0  0  0  0  0  0  0  0  0  0  0  0
  181.8970  178.4680  141.8200 O   0  0  0  0  0  1  0  0  0  0  0  0
  1 10  1  0  0  0  0
  2  6  1  0  0  0  0
  3  5  1  0  0  0  0
  4 18  1  6  0  0  0
  4  1  1  0  0  0  0
  4 11  1  0  0  0  0
  6  9  2  0  0  0  0
  7  2  1  0  0  0  0
  8 15  1  6  0  0  0
  8  3  1  0  0  0  0
 10  2  2  0  0  0  0
 10 15  1  0  0  0  0
 11 13  1  1  0  0  0
 11  8  1  0  0  0  0
 12  5  1  0  0  0  0
 13 12  2  0  0  0  0
 14  9  1  0  0  0  0
 15 14  2  0  0  0  0
 16 17  2  0  0  0  0
 17 18  1  0  0  0  0
 19 21  1  0  0  0  0
 19 22  1  0  0  0  0
 20 23  1  0  0  0  0
 20 21  1  0  0  0  0
 21 17  1  6  0  0  0
 23 22  1  0  0  0  0
 24 25  1  0  0  0  0
 24 18  1  0  0  0  0
 26 27  1  0  0  0  0
 26 25  1  0  0  0  0
 28 29  2  0  0  0  0
 29 30  1  0  0  0  0
 29 27  1  0  0  0  0
M  END
>  <MODEL>
1

>  <REMARK>
 VINA RESULT:      -7.5      0.000      0.000
  Name = 
  6 active torsions:
  status: ('A' for Active; 'I' for Inactive)
    1  A    between atoms: C_4  and  N_13
    2  A    between atoms: N_7  and  C_16
    3  A    between atoms: C_8  and  C_12
    4  A    between atoms: N_13  and  C_27
    5  A    between atoms: C_16  and  C_30
    6  A    between atoms: C_27  and  C_30
                            x       y       z     vdW  Elec       q    Type
                         _______ _______ _______ _____ _____    ______ ____

>  <TORSDO>
F 6

$$$$
=
 OpenBabel11052417183D

 30 33  0  0  1  0  0  0  0  0999 V2000
  190.5720  176.8080  143.3120 N   0  0  0  0  0  2  0  0  0  0  0  0
  192.6970  176.3690  144.4810 C   0  0  0  0  0  0  0  0  0  0  0  0
  188.4780  176.0790  146.9080 N   0  0  0  0  0  2  0  0  0  0  0  0
  189.1250  177.0280  143.3010 C   0  0  2  0  0  3  0  0  0  0  0  0
  187.1390  176.6600  147.0550 C   0  0  0  0  0  2  0  0  0  0  0  0
  193.4010  176.1210  145.6630 C   0  0  0  0  0  3  0  0  0  0  0  0
  193.4440  176.4180  143.1930 C   0  0  0  0  0  1  0  0  0  0  0  0
  189.1420  176.7600  145.7960 C   0  0  2  0  0  3  0  0  0  0  0  0
  192.7290  176.0690  146.8860 C   0  0  0  0  0  3  0  0  0  0  0  0
  191.3070  176.5660  144.5230 C   0  0  0  0  0  0  0  0  0  0  0  0
  188.4700  176.3230  144.4930 C   0  0  1  0  0  3  0  0  0  0  0  0
  186.3630  176.6480  145.7550 C   0  0  0  0  0  3  0  0  0  0  0  0
  186.9840  176.5500  144.5700 C   0  0  0  0  0  3  0  0  0  0  0  0
  191.3460  176.2570  146.9330 C   0  0  0  0  0  3  0  0  0  0  0  0
  190.6230  176.4820  145.7540 C   0  0  0  0  0  0  0  0  0  0  0  0
  188.0910  174.8670  140.4980 O   0  0  0  0  0  0  0  0  0  0  0  0
  188.6640  175.2150  141.5680 C   0  0  0  0  0  0  0  0  0  0  0  0
  188.5600  176.5780  142.0280 N   0  0  0  0  0  0  0  0  0  0  0  0
  188.6890  172.9180  142.5240 C   0  0  0  0  0  2  0  0  0  0  0  0
  190.7280  173.8360  141.6190 C   0  0  0  0  0  2  0  0  0  0  0  0
  189.4560  174.2010  142.3390 C   0  0  1  0  0  3  0  0  0  0  0  0
  189.6220  171.9050  142.9860 N   0  0  0  0  0  2  0  0  0  0  0  0
  191.1400  172.1320  142.0940 S   0  0  0  0  0  0  0  0  0  0  0  0
  187.8260  177.5640  141.2480 C   0  0  0  0  0  2  0  0  0  0  0  0
  186.3300  177.3340  141.3840 C   0  0  0  0  0  2  0  0  0  0  0  0
  185.6240  178.6390  141.7030 C   0  0  0  0  0  2  0  0  0  0  0  0
  184.6080  178.4180  142.7200 N   0  0  0  0  0  2  0  0  0  0  0  0
  185.5160  180.1860  144.1450 O   0  0  0  0  0  0  0  0  0  0  0  0
  184.5720  179.1910  143.9170 C   0  0  0  0  0  0  0  0  0  0  0  0
  183.6780  178.9720  144.7740 O   0  0  0  0  0  1  0  0  0  0  0  0
  1 10  1  0  0  0  0
  2 10  2  0  0  0  0
  2  6  1  0  0  0  0
  3  5  1  0  0  0  0
  4 18  1  6  0  0  0
  4  1  1  0  0  0  0
  4 11  1  0  0  0  0
  6  9  2  0  0  0  0
  7  2  1  0  0  0  0
  8 15  1  6  0  0  0
  8  3  1  0  0  0  0
  9 14  1  0  0  0  0
 10 15  1  0  0  0  0
 11 13  1  1  0  0  0
 11  8  1  0  0  0  0
 12  5  1  0  0  0  0
 13 12  2  0  0  0  0
 15 14  2  0  0  0  0
 16 17  2  0  0  0  0
 17 18  1  0  0  0  0
 19 22  1  0  0  0  0
 20 23  1  0  0  0  0
 20 21  1  0  0  0  0
 21 17  1  6  0  0  0
 21 19  1  0  0  0  0
 23 22  1  0  0  0  0
 24 25  1  0  0  0  0
 24 18  1  0  0  0  0
 25 26  1  0  0  0  0
 26 27  1  0  0  0  0
 27 29  1  0  0  0  0
 29 28  2  0  0  0  0
 29 30  1  0  0  0  0
M  END
>  <MODEL>
2

>  <REMARK>
 VINA RESULT:      -7.3      1.414      1.542
  Name = 
  6 active torsions:
  status: ('A' for Active; 'I' for Inactive)
    1  A    between atoms: C_4  and  N_13
    2  A    between atoms: N_7  and  C_16
    3  A    between atoms: C_8  and  C_12
    4  A    between atoms: N_13  and  C_27
    5  A    between atoms: C_16  and  C_30
    6  A    between atoms: C_27  and  C_30
                            x       y       z     vdW  Elec       q    Type
                         _______ _______ _______ _____ _____    ______ ____

>  <TORSDO>
F 6

$$$$
=
 OpenBabel11052417183D

 30 33  0  0  1  0  0  0  0  0999 V2000
  188.5980  177.0900  144.1640 N   0  0  0  0  0  2  0  0  0  0  0  0
  186.9590  178.1740  142.6760 C   0  0  0  0  0  0  0  0  0  0  0  0
  189.0150  173.9520  141.3670 N   0  0  0  0  0  2  0  0  0  0  0  0
  189.6070  176.0690  144.4480 C   0  0  2  0  0  3  0  0  0  0  0  0
  190.2500  173.1610  141.3980 C   0  0  0  0  0  2  0  0  0  0  0  0
  186.2910  178.2370  141.4490 C   0  0  0  0  0  3  0  0  0  0  0  0
  186.6380  179.1820  143.7250 C   0  0  0  0  0  1  0  0  0  0  0  0
  189.2490  175.1780  142.1290 C   0  0  2  0  0  3  0  0  0  0  0  0
  186.5710  177.3060  140.4460 C   0  0  0  0  0  3  0  0  0  0  0  0
  187.9150  177.1700  142.9020 C   0  0  0  0  0  0  0  0  0  0  0  0
  189.3440  174.8130  143.6120 C   0  0  1  0  0  3  0  0  0  0  0  0
  190.7530  172.9390  142.8090 C   0  0  0  0  0  3  0  0  0  0  0  0
  190.3790  173.7390  143.8200 C   0  0  0  0  0  3  0  0  0  0  0  0
  187.5150  176.3010  140.6680 C   0  0  0  0  0  3  0  0  0  0  0  0
  188.1750  176.2100  141.9010 C   0  0  0  0  0  0  0  0  0  0  0  0
  190.7930  175.5860  147.9060 O   0  0  0  0  0  0  0  0  0  0  0  0
  190.8450  175.7740  146.6590 C   0  0  0  0  0  0  0  0  0  0  0  0
  189.6290  175.7720  145.8800 N   0  0  0  0  0  0  0  0  0  0  0  0
  193.0500  176.9170  146.8030 C   0  0  0  0  0  2  0  0  0  0  0  0
  192.9380  174.6920  145.8780 C   0  0  0  0  0  2  0  0  0  0  0  0
  192.1770  175.9850  146.0030 C   0  0  1  0  0  3  0  0  0  0  0  0
  194.4010  176.8170  146.2810 N   0  0  0  0  0  2  0  0  0  0  0  0
  194.7060  175.1080  145.9140 S   0  0  0  0  0  0  0  0  0  0  0  0
  188.3460  175.5210  146.5210 C   0  0  0  0  0  2  0  0  0  0  0  0
  187.6790  176.8340  146.8940 C   0  0  0  0  0  2  0  0  0  0  0  0
  186.3380  176.5740  147.5550 C   0  0  0  0  0  2  0  0  0  0  0  0
  185.2600  176.9990  146.6760 N   0  0  0  0  0  2  0  0  0  0  0  0
  185.3350  179.2870  147.5360 O   0  0  0  0  0  1  0  0  0  0  0  0
  184.7790  178.3410  146.6820 C   0  0  0  0  0  0  0  0  0  0  0  0
  183.8450  178.6720  145.9080 O   0  0  0  0  0  0  0  0  0  0  0  0
  1  4  1  0  0  0  0
  2 10  1  0  0  0  0
  2  7  1  0  0  0  0
  3  5  1  0  0  0  0
  4 18  1  1  0  0  0
  5 12  1  0  0  0  0
  6  2  2  0  0  0  0
  8  3  1  6  0  0  0
  8 11  1  0  0  0  0
  9 14  2  0  0  0  0
  9  6  1  0  0  0  0
 10  1  1  0  0  0  0
 11 13  1  6  0  0  0
 11  4  1  0  0  0  0
 12 13  2  0  0  0  0
 14 15  1  0  0  0  0
 15  8  1  0  0  0  0
 15 10  2  0  0  0  0
 17 16  2  0  0  0  0
 18 24  1  0  0  0  0
 18 17  1  0  0  0  0
 20 23  1  0  0  0  0
 20 21  1  0  0  0  0
 21 17  1  1  0  0  0
 21 19  1  0  0  0  0
 22 19  1  0  0  0  0
 23 22  1  0  0  0  0
 24 25  1  0  0  0  0
 25 26  1  0  0  0  0
 27 29  1  0  0  0  0
 27 26  1  0  0  0  0
 29 28  1  0  0  0  0
 30 29  2  0  0  0  0
M  END
>  <MODEL>
3

>  <REMARK>
 VINA RESULT:      -7.2      2.828      6.016
  Name = 
  6 active torsions:
  status: ('A' for Active; 'I' for Inactive)
    1  A    between atoms: C_4  and  N_13
    2  A    between atoms: N_7  and  C_16
    3  A    between atoms: C_8  and  C_12
    4  A    between atoms: N_13  and  C_27
    5  A    between atoms: C_16  and  C_30
    6  A    between atoms: C_27  and  C_30
                            x       y       z     vdW  Elec       q    Type
                         _______ _______ _______ _____ _____    ______ ____

>  <TORSDO>
F 6

$$$$
=
 OpenBabel11052417183D

 30 33  0  0  1  0  0  0  0  0999 V2000
  191.9300  175.7170  142.8010 N   0  0  0  0  0  2  0  0  0  0  0  0
  194.3620  176.0860  142.9580 C   0  0  0  0  0  0  0  0  0  0  0  0
  191.7800  175.1350  146.9830 N   0  0  0  0  0  2  0  0  0  0  0  0
  190.6090  175.5360  143.4060 C   0  0  2  0  0  3  0  0  0  0  0  0
  190.4990  175.3530  147.6630 C   0  0  0  0  0  2  0  0  0  0  0  0
  195.5140  176.2600  143.7310 C   0  0  0  0  0  3  0  0  0  0  0  0
  194.4810  176.0940  141.4730 C   0  0  0  0  0  1  0  0  0  0  0  0
  191.6940  175.7500  145.6580 C   0  0  2  0  0  3  0  0  0  0  0  0
  195.4350  176.2580  145.1250 C   0  0  0  0  0  3  0  0  0  0  0  0
  193.1180  175.9090  143.5860 C   0  0  0  0  0  0  0  0  0  0  0  0
  190.7420  174.9150  144.8000 C   0  0  1  0  0  3  0  0  0  0  0  0
  189.3210  174.8930  146.8300 C   0  0  0  0  0  3  0  0  0  0  0  0
  189.4200  174.7470  145.4990 C   0  0  0  0  0  3  0  0  0  0  0  0
  194.2020  176.0740  145.7550 C   0  0  0  0  0  3  0  0  0  0  0  0
  193.0420  175.8750  144.9950 C   0  0  0  0  0  0  0  0  0  0  0  0
  187.7860  174.4230  141.3120 O   0  0  0  0  0  0  0  0  0  0  0  0
  188.4380  175.1270  142.1320 C   0  0  0  0  0  0  0  0  0  0  0  0
  189.7650  174.7240  142.5290 N   0  0  0  0  0  0  0  0  0  0  0  0
  187.8100  177.4930  141.6850 C   0  0  0  0  0  2  0  0  0  0  0  0
  186.3740  176.1380  143.0730 C   0  0  0  0  0  2  0  0  0  0  0  0
  187.8130  176.3700  142.6900 C   0  0  1  0  0  3  0  0  0  0  0  0
  186.9220  178.5300  142.1800 N   0  0  0  0  0  2  0  0  0  0  0  0
  185.5130  177.7280  142.9010 S   0  0  0  0  0  0  0  0  0  0  0  0
  190.3440  173.4900  142.0140 C   0  0  0  0  0  2  0  0  0  0  0  0
  189.8870  172.3070  142.8500 C   0  0  0  0  0  2  0  0  0  0  0  0
  191.0270  171.3230  143.0360 C   0  0  0  0  0  2  0  0  0  0  0  0
  191.7330  171.6090  144.2740 N   0  0  0  0  0  2  0  0  0  0  0  0
  193.6790  172.4790  143.0750 O   0  0  0  0  0  0  0  0  0  0  0  0
  193.0400  172.1780  144.2730 C   0  0  0  0  0  0  0  0  0  0  0  0
  193.6200  172.4120  145.3640 O   0  0  0  0  0  1  0  0  0  0  0  0
  1  4  1  0  0  0  0
  1 10  1  0  0  0  0
  2 10  2  0  0  0  0
  2  6  1  0  0  0  0
  3  5  1  0  0  0  0
  4 18  1  6  0  0  0
  4 11  1  0  0  0  0
  6  9  2  0  0  0  0
  7  2  1  0  0  0  0
  8 15  1  6  0  0  0
  8  3  1  0  0  0  0
  9 14  1  0  0  0  0
 10 15  1  0  0  0  0
 11 13  1  1  0  0  0
 11  8  1  0  0  0  0
 12  5  1  0  0  0  0
 13 12  2  0  0  0  0
 15 14  2  0  0  0  0
 16 17  2  0  0  0  0
 17 18  1  0  0  0  0
 19 22  1  0  0  0  0
 19 21  1  0  0  0  0
 21 17  1  6  0  0  0
 21 20  1  0  0  0  0
 22 23  1  0  0  0  0
 23 20  1  0  0  0  0
 24 18  1  0  0  0  0
 24 25  1  0  0  0  0
 25 26  1  0  0  0  0
 26 27  1  0  0  0  0
 28 29  2  0  0  0  0
 29 27  1  0  0  0  0
 29 30  1  0  0  0  0
M  END
>  <MODEL>
4

>  <REMARK>
 VINA RESULT:      -7.1      3.107      6.032
  Name = 
  6 active torsions:
  status: ('A' for Active; 'I' for Inactive)
    1  A    between atoms: C_4  and  N_13
    2  A    between atoms: N_7  and  C_16
    3  A    between atoms: C_8  and  C_12
    4  A    between atoms: N_13  and  C_27
    5  A    between atoms: C_16  and  C_30
    6  A    between atoms: C_27  and  C_30
                            x       y       z     vdW  Elec       q    Type
                         _______ _______ _______ _____ _____    ______ ____

>  <TORSDO>
F 6

$$$$
=
 OpenBabel11052417183D

 30 33  0  0  1  0  0  0  0  0999 V2000
  191.3070  176.1300  143.0950 N   0  0  0  0  0  2  0  0  0  0  0  0
  188.9790  176.3370  142.3130 C   0  0  0  0  0  0  0  0  0  0  0  0
  190.6580  172.0230  143.8430 N   0  0  0  0  0  2  0  0  0  0  0  0
  192.4600  175.3370  143.5250 C   0  0  2  0  0  3  0  0  0  0  0  0
  191.8260  171.1360  143.8760 C   0  0  0  0  0  2  0  0  0  0  0  0
  187.7590  175.7480  141.9690 C   0  0  0  0  0  3  0  0  0  0  0  0
  189.1130  177.8190  142.2330 C   0  0  0  0  0  1  0  0  0  0  0  0
  191.0650  173.2750  143.2060 C   0  0  2  0  0  3  0  0  0  0  0  0
  187.6030  174.3610  142.0350 C   0  0  0  0  0  3  0  0  0  0  0  0
  190.0530  175.5320  142.7270 C   0  0  0  0  0  0  0  0  0  0  0  0
  191.9950  174.0240  144.1620 C   0  0  1  0  0  3  0  0  0  0  0  0
  193.0330  171.7990  144.5040 C   0  0  0  0  0  3  0  0  0  0  0  0
  193.1350  173.1360  144.5830 C   0  0  0  0  0  3  0  0  0  0  0  0
  188.6650  173.5570  142.4530 C   0  0  0  0  0  3  0  0  0  0  0  0
  189.8870  174.1350  142.8240 C   0  0  0  0  0  0  0  0  0  0  0  0
  195.3560  177.0680  145.0110 O   0  0  0  0  0  0  0  0  0  0  0  0
  194.7050  176.3210  144.2300 C   0  0  0  0  0  0  0  0  0  0  0  0
  193.2920  176.1190  144.4400 N   0  0  0  0  0  0  0  0  0  0  0  0
  195.5870  176.5610  141.9160 C   0  0  0  0  0  2  0  0  0  0  0  0
  196.8040  175.2110  143.5030 C   0  0  0  0  0  2  0  0  0  0  0  0
  195.4180  175.6430  143.0990 C   0  0  1  0  0  3  0  0  0  0  0  0
  196.5440  175.9490  141.0110 N   0  0  0  0  0  2  0  0  0  0  0  0
  197.8260  175.2240  142.0020 S   0  0  0  0  0  0  0  0  0  0  0  0
  192.6190  176.7470  145.5690 C   0  0  0  0  0  2  0  0  0  0  0  0
  192.8860  175.9620  146.8430 C   0  0  0  0  0  2  0  0  0  0  0  0
  191.5800  175.6380  147.5440 C   0  0  0  0  0  2  0  0  0  0  0  0
  190.4670  176.2220  146.8140 N   0  0  0  0  0  2  0  0  0  0  0  0
  189.3540  174.0550  146.5910 O   0  0  0  0  0  1  0  0  0  0  0  0
  189.3790  175.4250  146.3520 C   0  0  0  0  0  0  0  0  0  0  0  0
  188.4320  175.9650  145.7240 O   0  0  0  0  0  0  0  0  0  0  0  0
  1  4  1  0  0  0  0
  2 10  1  0  0  0  0
  3  5  1  0  0  0  0
  4 11  1  0  0  0  0
  4 18  1  1  0  0  0
  5 12  1  0  0  0  0
  6  9  1  0  0  0  0
  6  2  2  0  0  0  0
  7  2  1  0  0  0  0
  8 15  1  1  0  0  0
  8  3  1  0  0  0  0
  8 11  1  0  0  0  0
  9 14  2  0  0  0  0
 10 15  2  0  0  0  0
 10  1  1  0  0  0  0
 11 13  1  6  0  0  0
 12 13  2  0  0  0  0
 14 15  1  0  0  0  0
 17 18  1  0  0  0  0
 17 16  2  0  0  0  0
 18 24  1  0  0  0  0
 19 21  1  0  0  0  0
 21 20  1  0  0  0  0
 21 17  1  1  0  0  0
 22 19  1  0  0  0  0
 22 23  1  0  0  0  0
 23 20  1  0  0  0  0
 24 25  1  0  0  0  0
 25 26  1  0  0  0  0
 27 26  1  0  0  0  0
 29 28  1  0  0  0  0
 29 27  1  0  0  0  0
 30 29  2  0  0  0  0
M  END
>  <MODEL>
5

>  <REMARK>
 VINA RESULT:      -7.0      3.676      6.945
  Name = 
  6 active torsions:
  status: ('A' for Active; 'I' for Inactive)
    1  A    between atoms: C_4  and  N_13
    2  A    between atoms: N_7  and  C_16
    3  A    between atoms: C_8  and  C_12
    4  A    between atoms: N_13  and  C_27
    5  A    between atoms: C_16  and  C_30
    6  A    between atoms: C_27  and  C_30
                            x       y       z     vdW  Elec       q    Type
                         _______ _______ _______ _____ _____    ______ ____

>  <TORSDO>
F 6

$$$$
=
 OpenBabel11052417183D

 30 33  0  0  1  0  0  0  0  0999 V2000
  187.5380  176.4870  144.6820 N   0  0  0  0  0  2  0  0  0  0  0  0
  185.9520  177.2870  146.3910 C   0  0  0  0  0  0  0  0  0  0  0  0
  184.9990  177.9990  141.6630 N   0  0  0  0  0  2  0  0  0  0  0  0
  188.0160  176.4050  143.3010 C   0  0  2  0  0  3  0  0  0  0  0  0
  185.5890  178.3030  140.3550 C   0  0  0  0  0  2  0  0  0  0  0  0
  184.8040  178.0050  146.7380 C   0  0  0  0  0  3  0  0  0  0  0  0
  186.7180  176.5900  147.4620 C   0  0  0  0  0  1  0  0  0  0  0  0
  186.0910  177.8670  142.6280 C   0  0  2  0  0  3  0  0  0  0  0  0
  184.0650  178.6690  145.7560 C   0  0  0  0  0  3  0  0  0  0  0  0
  186.3660  177.2330  145.0500 C   0  0  0  0  0  0  0  0  0  0  0  0
  186.8490  176.5740  142.3230 C   0  0  1  0  0  3  0  0  0  0  0  0
  186.6590  177.3060  139.9630 C   0  0  0  0  0  3  0  0  0  0  0  0
  187.2810  176.5490  140.8810 C   0  0  0  0  0  3  0  0  0  0  0  0
  184.4670  178.6120  144.4200 C   0  0  0  0  0  3  0  0  0  0  0  0
  185.6030  177.8770  144.0530 C   0  0  0  0  0  0  0  0  0  0  0  0
  190.5880  173.7660  143.4330 O   0  0  0  0  0  0  0  0  0  0  0  0
  190.0590  174.9030  143.5770 C   0  0  0  0  0  0  0  0  0  0  0  0
  188.7210  175.1400  143.0900 N   0  0  0  0  0  0  0  0  0  0  0  0
  191.0040  175.7400  145.7210 C   0  0  0  0  0  2  0  0  0  0  0  0
  192.2290  176.1050  143.6740 C   0  0  0  0  0  2  0  0  0  0  0  0
  190.8390  175.9950  144.2450 C   0  0  1  0  0  3  0  0  0  0  0  0
  192.0180  176.6540  146.2180 N   0  0  0  0  0  2  0  0  0  0  0  0
  193.2980  176.7490  144.9930 S   0  0  0  0  0  0  0  0  0  0  0  0
  187.9900  174.0840  142.4030 C   0  0  0  0  0  2  0  0  0  0  0  0
  188.9190  173.3200  141.4750 C   0  0  0  0  0  2  0  0  0  0  0  0
  188.1980  172.9580  140.1910 C   0  0  0  0  0  2  0  0  0  0  0  0
  189.1290  172.9840  139.0740 N   0  0  0  0  0  2  0  0  0  0  0  0
  187.8070  174.6630  137.8870 O   0  0  0  0  0  1  0  0  0  0  0  0
  188.9180  173.8310  137.9470 C   0  0  0  0  0  0  0  0  0  0  0  0
  189.7460  173.8260  137.0000 O   0  0  0  0  0  0  0  0  0  0  0  0
  1 10  1  0  0  0  0
  2  6  1  0  0  0  0
  2  7  1  0  0  0  0
  4 18  1  1  0  0  0
  4  1  1  0  0  0  0
  5  3  1  0  0  0  0
  8  3  1  6  0  0  0
  8 15  1  0  0  0  0
  9  6  2  0  0  0  0
 10  2  2  0  0  0  0
 11 13  1  6  0  0  0
 11  8  1  0  0  0  0
 11  4  1  0  0  0  0
 12  5  1  0  0  0  0
 12 13  2  0  0  0  0
 14  9  1  0  0  0  0
 15 14  2  0  0  0  0
 15 10  1  0  0  0  0
 16 17  2  0  0  0  0
 18 17  1  0  0  0  0
 19 22  1  0  0  0  0
 20 21  1  0  0  0  0
 20 23  1  0  0  0  0
 21 17  1  6  0  0  0
 21 19  1  0  0  0  0
 23 22  1  0  0  0  0
 24 18  1  0  0  0  0
 25 24  1  0  0  0  0
 26 25  1  0  0  0  0
 27 26  1  0  0  0  0
 28 29  1  0  0  0  0
 29 27  1  0  0  0  0
 30 29  2  0  0  0  0
M  END
>  <MODEL>
6

>  <REMARK>
 VINA RESULT:      -6.9      2.690      5.784
  Name = 
  6 active torsions:
  status: ('A' for Active; 'I' for Inactive)
    1  A    between atoms: C_4  and  N_13
    2  A    between atoms: N_7  and  C_16
    3  A    between atoms: C_8  and  C_12
    4  A    between atoms: N_13  and  C_27
    5  A    between atoms: C_16  and  C_30
    6  A    between atoms: C_27  and  C_30
                            x       y       z     vdW  Elec       q    Type
                         _______ _______ _______ _____ _____    ______ ____

>  <TORSDO>
F 6

$$$$
=
 OpenBabel11052417183D

 30 33  0  0  1  0  0  0  0  0999 V2000
  191.8500  175.5200  142.9900 N   0  0  0  0  0  2  0  0  0  0  0  0
  194.2720  175.9760  142.9180 C   0  0  0  0  0  0  0  0  0  0  0  0
  192.0700  175.1860  147.1950 N   0  0  0  0  0  2  0  0  0  0  0  0
  190.5920  175.3340  143.7140 C   0  0  2  0  0  3  0  0  0  0  0  0
  190.8430  175.4040  147.9690 C   0  0  0  0  0  2  0  0  0  0  0  0
  195.4770  176.2320  143.5780 C   0  0  0  0  0  3  0  0  0  0  0  0
  194.2660  175.8970  141.4300 C   0  0  0  0  0  1  0  0  0  0  0  0
  191.8520  175.7170  145.8500 C   0  0  2  0  0  3  0  0  0  0  0  0
  195.5130  176.3120  144.9720 C   0  0  0  0  0  3  0  0  0  0  0  0
  193.0920  175.7970  143.6580 C   0  0  0  0  0  0  0  0  0  0  0  0
  190.8630  174.8020  145.1250 C   0  0  1  0  0  3  0  0  0  0  0  0
  189.6170  174.8570  147.2660 C   0  0  0  0  0  3  0  0  0  0  0  0
  189.6100  174.6340  145.9430 C   0  0  0  0  0  3  0  0  0  0  0  0
  194.3450  176.1260  145.7140 C   0  0  0  0  0  3  0  0  0  0  0  0
  193.1340  175.8450  145.0680 C   0  0  0  0  0  0  0  0  0  0  0  0
  187.7250  174.0690  141.7710 O   0  0  0  0  0  0  0  0  0  0  0  0
  188.4100  174.8540  142.4820 C   0  0  0  0  0  0  0  0  0  0  0  0
  189.7090  174.4430  142.9600 N   0  0  0  0  0  0  0  0  0  0  0  0
  188.0660  177.1960  141.7150 C   0  0  0  0  0  2  0  0  0  0  0  0
  186.3690  176.1410  143.0690 C   0  0  0  0  0  2  0  0  0  0  0  0
  187.8550  176.2030  142.8290 C   0  0  1  0  0  3  0  0  0  0  0  0
  187.2370  178.3560  141.9920 N   0  0  0  0  0  2  0  0  0  0  0  0
  185.6900  177.7670  142.6300 S   0  0  0  0  0  0  0  0  0  0  0  0
  190.2180  173.1140  142.6540 C   0  0  0  0  0  2  0  0  0  0  0  0
  191.1350  173.1680  141.4430 C   0  0  0  0  0  2  0  0  0  0  0  0
  190.5000  172.4450  140.2700 C   0  0  0  0  0  2  0  0  0  0  0  0
  190.2360  173.3830  139.1920 N   0  0  0  0  0  2  0  0  0  0  0  0
  187.9550  172.5490  138.8980 O   0  0  0  0  0  1  0  0  0  0  0  0
  188.9750  173.4190  138.5270 C   0  0  0  0  0  0  0  0  0  0  0  0
  188.7820  174.2450  137.5990 O   0  0  0  0  0  0  0  0  0  0  0  0
  1 10  1  0  0  0  0
  1  4  1  0  0  0  0
  2  6  2  0  0  0  0
  2 10  1  0  0  0  0
  3  5  1  0  0  0  0
  4 18  1  6  0  0  0
  4 11  1  0  0  0  0
  6  9  1  0  0  0  0
  7  2  1  0  0  0  0
  8 15  1  6  0  0  0
  8  3  1  0  0  0  0
  9 14  2  0  0  0  0
 10 15  2  0  0  0  0
 11  8  1  0  0  0  0
 11 13  1  1  0  0  0
 12  5  1  0  0  0  0
 13 12  2  0  0  0  0
 15 14  1  0  0  0  0
 16 17  2  0  0  0  0
 17 18  1  0  0  0  0
 19 22  1  0  0  0  0
 19 21  1  0  0  0  0
 21 17  1  6  0  0  0
 21 20  1  0  0  0  0
 22 23  1  0  0  0  0
 23 20  1  0  0  0  0
 24 18  1  0  0  0  0
 25 24  1  0  0  0  0
 26 25  1  0  0  0  0
 27 26  1  0  0  0  0
 29 28  1  0  0  0  0
 29 27  1  0  0  0  0
 30 29  2  0  0  0  0
M  END
>  <MODEL>
7

>  <REMARK>
 VINA RESULT:      -6.9      3.049      5.054
  Name = 
  6 active torsions:
  status: ('A' for Active; 'I' for Inactive)
    1  A    between atoms: C_4  and  N_13
    2  A    between atoms: N_7  and  C_16
    3  A    between atoms: C_8  and  C_12
    4  A    between atoms: N_13  and  C_27
    5  A    between atoms: C_16  and  C_30
    6  A    between atoms: C_27  and  C_30
                            x       y       z     vdW  Elec       q    Type
                         _______ _______ _______ _____ _____    ______ ____

>  <TORSDO>
F 6

$$$$
=
 OpenBabel11052417183D

 30 33  0  0  1  0  0  0  0  0999 V2000
  189.3910  174.3720  143.8310 N   0  0  0  0  0  2  0  0  0  0  0  0
  189.8450  172.5450  142.2410 C   0  0  0  0  0  0  0  0  0  0  0  0
  187.6350  176.6120  140.7100 N   0  0  0  0  0  2  0  0  0  0  0  0
  188.7720  175.6500  144.1890 C   0  0  2  0  0  3  0  0  0  0  0  0
  186.6770  177.6630  141.0690 C   0  0  0  0  0  2  0  0  0  0  0  0
  189.7000  171.9800  140.9710 C   0  0  0  0  0  3  0  0  0  0  0  0
  190.6480  171.8210  143.2660 C   0  0  0  0  0  1  0  0  0  0  0  0
  187.8080  175.7440  141.8740 C   0  0  2  0  0  3  0  0  0  0  0  0
  188.9540  172.6360  139.9890 C   0  0  0  0  0  3  0  0  0  0  0  0
  189.2370  173.7780  142.5330 C   0  0  0  0  0  0  0  0  0  0  0  0
  188.5840  176.5180  142.9410 C   0  0  1  0  0  3  0  0  0  0  0  0
  187.0690  178.3860  142.3410 C   0  0  0  0  0  3  0  0  0  0  0  0
  187.9060  177.8300  143.2320 C   0  0  0  0  0  3  0  0  0  0  0  0
  188.3540  173.8650  140.2710 C   0  0  0  0  0  3  0  0  0  0  0  0
  188.5100  174.4550  141.5320 C   0  0  0  0  0  0  0  0  0  0  0  0
  191.6500  177.0930  145.9870 O   0  0  0  0  0  0  0  0  0  0  0  0
  191.0150  176.4300  145.1220 C   0  0  0  0  0  0  0  0  0  0  0  0
  189.5780  176.3290  145.2050 N   0  0  0  0  0  0  0  0  0  0  0  0
  192.3250  176.7320  143.0280 C   0  0  0  0  0  2  0  0  0  0  0  0
  192.9490  174.9770  144.5630 C   0  0  0  0  0  2  0  0  0  0  0  0
  191.7710  175.7440  144.0230 C   0  0  1  0  0  3  0  0  0  0  0  0
  193.2890  176.0310  142.1980 N   0  0  0  0  0  2  0  0  0  0  0  0
  194.2050  174.9360  143.2510 S   0  0  0  0  0  0  0  0  0  0  0  0
  188.8580  176.9610  146.3020 C   0  0  0  0  0  2  0  0  0  0  0  0
  187.8360  175.9990  146.8840 C   0  0  0  0  0  2  0  0  0  0  0  0
  186.5440  176.7300  147.1970 C   0  0  0  0  0  2  0  0  0  0  0  0
  185.7290  176.8340  145.9980 N   0  0  0  0  0  2  0  0  0  0  0  0
  185.2140  179.1840  146.4370 O   0  0  0  0  0  1  0  0  0  0  0  0
  185.0810  178.0520  145.6400 C   0  0  0  0  0  0  0  0  0  0  0  0
  184.3840  178.1050  144.5950 O   0  0  0  0  0  0  0  0  0  0  0  0
  1  4  1  0  0  0  0
  2 10  1  0  0  0  0
  2  7  1  0  0  0  0
  3  5  1  0  0  0  0
  4 18  1  1  0  0  0
  5 12  1  0  0  0  0
  6  2  2  0  0  0  0
  8  3  1  6  0  0  0
  8 11  1  0  0  0  0
  9 14  2  0  0  0  0
  9  6  1  0  0  0  0
 10  1  1  0  0  0  0
 11 13  1  1  0  0  0
 11  4  1  0  0  0  0
 12 13  2  0  0  0  0
 14 15  1  0  0  0  0
 15  8  1  0  0  0  0
 15 10  2  0  0  0  0
 17 18  1  0  0  0  0
 17 16  2  0  0  0  0
 18 24  1  0  0  0  0
 19 21  1  0  0  0  0
 21 20  1  0  0  0  0
 21 17  1  1  0  0  0
 22 19  1  0  0  0  0
 22 23  1  0  0  0  0
 23 20  1  0  0  0  0
 24 25  1  0  0  0  0
 25 26  1  0  0  0  0
 27 26  1  0  0  0  0
 29 27  1  0  0  0  0
 29 28  1  0  0  0  0
 30 29  2  0  0  0  0
M  END
>  <MODEL>
8

>  <REMARK>
 VINA RESULT:      -6.9      2.508      5.218
  Name = 
  6 active torsions:
  status: ('A' for Active; 'I' for Inactive)
    1  A    between atoms: C_4  and  N_13
    2  A    between atoms: N_7  and  C_16
    3  A    between atoms: C_8  and  C_12
    4  A    between atoms: N_13  and  C_27
    5  A    between atoms: C_16  and  C_30
    6  A    between atoms: C_27  and  C_30
                            x       y       z     vdW  Elec       q    Type
                         _______ _______ _______ _____ _____    ______ ____

>  <TORSDO>
F 6

$$$$
=
 OpenBabel11052417183D

 30 33  0  0  1  0  0  0  0  0999 V2000
  190.0990  174.1940  144.7340 N   0  0  0  0  0  2  0  0  0  0  0  0
  190.3380  175.1460  146.9950 C   0  0  0  0  0  0  0  0  0  0  0  0
  193.5980  176.2360  143.5380 N   0  0  0  0  0  2  0  0  0  0  0  0
  190.5960  173.9360  143.3820 C   0  0  2  0  0  3  0  0  0  0  0  0
  194.3380  175.7170  142.3830 C   0  0  0  0  0  2  0  0  0  0  0  0
  191.0770  175.8750  147.9310 C   0  0  0  0  0  3  0  0  0  0  0  0
  189.0060  174.6080  147.3890 C   0  0  0  0  0  1  0  0  0  0  0  0
  192.6830  175.1890  143.9920 C   0  0  2  0  0  3  0  0  0  0  0  0
  192.3300  176.3920  147.5920 C   0  0  0  0  0  3  0  0  0  0  0  0
  190.8560  174.9320  145.7070 C   0  0  0  0  0  0  0  0  0  0  0  0
  191.5700  175.0390  142.9530 C   0  0  1  0  0  3  0  0  0  0  0  0
  193.4190  175.1740  141.3090 C   0  0  0  0  0  3  0  0  0  0  0  0
  192.1580  174.8070  141.5870 C   0  0  0  0  0  3  0  0  0  0  0  0
  192.8460  176.1890  146.3100 C   0  0  0  0  0  3  0  0  0  0  0  0
  192.1070  175.4800  145.3540 C   0  0  0  0  0  0  0  0  0  0  0  0
  188.3660  172.6670  140.7340 O   0  0  0  0  0  0  0  0  0  0  0  0
  189.3950  172.7700  141.4580 C   0  0  0  0  0  0  0  0  0  0  0  0
  189.4730  173.8130  142.4520 N   0  0  0  0  0  0  0  0  0  0  0  0
  190.3990  170.6040  142.1600 C   0  0  0  0  0  2  0  0  0  0  0  0
  190.5670  171.2830  139.8510 C   0  0  0  0  0  2  0  0  0  0  0  0
  190.5290  171.8080  141.2630 C   0  0  1  0  0  3  0  0  0  0  0  0
  191.3360  169.5980  141.6920 N   0  0  0  0  0  2  0  0  0  0  0  0
  191.3050  169.6250  139.9180 S   0  0  0  0  0  0  0  0  0  0  0  0
  188.3850  174.7690  142.6010 C   0  0  0  0  0  2  0  0  0  0  0  0
  188.5270  175.8900  141.5850 C   0  0  0  0  0  2  0  0  0  0  0  0
  188.3620  177.2380  142.2630 C   0  0  0  0  0  2  0  0  0  0  0  0
  188.6190  177.1110  143.6890 N   0  0  0  0  0  2  0  0  0  0  0  0
  186.6980  178.5160  144.2550 O   0  0  0  0  0  0  0  0  0  0  0  0
  187.7870  177.7490  144.6550 C   0  0  0  0  0  0  0  0  0  0  0  0
  188.0390  177.6170  145.8800 O   0  0  0  0  0  1  0  0  0  0  0  0
  1 10  1  0  0  0  0
  2  7  1  0  0  0  0
  2  6  1  0  0  0  0
  4 18  1  6  0  0  0
  4  1  1  0  0  0  0
  5  3  1  0  0  0  0
  8  3  1  6  0  0  0
  8 15  1  0  0  0  0
  9  6  2  0  0  0  0
 10  2  2  0  0  0  0
 11 13  1  6  0  0  0
 11  4  1  0  0  0  0
 11  8  1  0  0  0  0
 12 13  2  0  0  0  0
 12  5  1  0  0  0  0
 14  9  1  0  0  0  0
 15 10  1  0  0  0  0
 15 14  2  0  0  0  0
 16 17  2  0  0  0  0
 17 18  1  0  0  0  0
 18 24  1  0  0  0  0
 20 23  1  0  0  0  0
 20 21  1  0  0  0  0
 21 17  1  6  0  0  0
 21 19  1  0  0  0  0
 22 19  1  0  0  0  0
 23 22  1  0  0  0  0
 25 26  1  0  0  0  0
 25 24  1  0  0  0  0
 26 27  1  0  0  0  0
 27 29  1  0  0  0  0
 28 29  2  0  0  0  0
 29 30  1  0  0  0  0
M  END
>  <MODEL>
9

>  <REMARK>
 VINA RESULT:      -6.8      2.689      4.717
  Name = 
  6 active torsions:
  status: ('A' for Active; 'I' for Inactive)
    1  A    between atoms: C_4  and  N_13
    2  A    between atoms: N_7  and  C_16
    3  A    between atoms: C_8  and  C_12
    4  A    between atoms: N_13  and  C_27
    5  A    between atoms: C_16  and  C_30
    6  A    between atoms: C_27  and  C_30
                            x       y       z     vdW  Elec       q    Type
                         _______ _______ _______ _____ _____    ______ ____

>  <TORSDO>
F 6

$$$$
