=
 OpenBabel11052418443D

 34 39  0  0  1  0  0  0  0  0999 V2000
  189.0390  174.2230  142.2260 C   0  0  0  0  0  0  0  0  0  0  0  0
  191.3710  175.0710  142.3000 C   0  0  0  0  0  0  0  0  0  0  0  0
  189.7430  175.5460  144.2550 C   0  0  0  0  0  0  0  0  0  0  0  0
  190.0470  176.5630  146.3890 N   0  0  0  0  0  0  0  0  0  0  0  0
  190.6040  173.5660  140.5090 C   0  0  0  0  0  3  0  0  0  0  0  0
  191.5930  174.4890  141.1120 C   0  0  0  0  0  3  0  0  0  0  0  0
  191.7670  175.1970  145.6010 N   0  0  0  0  0  2  0  0  0  0  0  0
  190.1800  174.6240  143.1370 C   0  0  0  0  0  0  0  0  0  0  0  0
  191.0270  176.5710  147.4530 C   0  0  0  0  0  2  0  0  0  0  0  0
  189.3750  173.4500  141.0240 C   0  0  0  0  0  2  0  0  0  0  0  0
  188.3500  176.0650  144.3010 C   0  0  0  0  0  0  0  0  0  0  0  0
  187.8310  174.6720  142.3870 N   0  0  0  0  0  0  0  0  0  0  0  0
  192.3990  176.0190  142.8150 C   0  0  0  0  0  1  0  0  0  0  0  0
  188.7800  177.1660  146.4080 N   0  0  0  0  0  0  0  0  0  0  0  0
  187.9410  176.9760  145.4260 C   0  0  0  0  0  0  0  0  0  0  0  0
  192.1750  175.6740  146.9240 C   0  0  2  0  0  3  0  0  0  0  0  0
  190.5020  175.7660  145.3320 C   0  0  0  0  0  0  0  0  0  0  0  0
  187.4590  175.5910  143.4240 C   0  0  0  0  0  3  0  0  0  0  0  0
  185.1100  179.4250  144.7920 C   0  0  0  0  0  0  0  0  0  0  0  0
  184.1690  178.9530  145.6530 N   0  0  0  0  0  0  0  0  0  0  0  0
  186.6230  177.6630  145.4800 C   0  0  0  0  0  0  0  0  0  0  0  0
  184.4050  177.8670  146.4360 C   0  0  0  0  0  3  0  0  0  0  0  0
  186.3500  178.7920  144.6950 C   0  0  0  0  0  3  0  0  0  0  0  0
  185.6350  177.2070  146.3650 C   0  0  0  0  0  3  0  0  0  0  0  0
  184.8440  180.5120  144.0300 F   0  0  0  0  0  0  0  0  0  0  0  0
  193.4580  176.4820  146.7970 C   0  0  0  0  0  2  0  0  0  0  0  0
  194.5800  175.6060  146.4980 N   0  0  0  0  0  2  0  0  0  0  0  0
  195.2090  176.0960  145.2800 C   0  0  0  0  0  2  0  0  0  0  0  0
  196.9550  176.7110  143.0670 C   0  0  0  0  0  1  0  0  0  0  0  0
  196.7270  175.2370  143.3770 C   0  0  2  0  0  3  0  0  0  0  0  0
  197.6190  173.8380  144.9990 C   0  0  0  0  0  2  0  0  0  0  0  0
  196.1490  173.8050  145.2370 C   0  0  0  0  0  2  0  0  0  0  0  0
  195.5920  174.9280  144.3720 C   0  0  1  0  0  3  0  0  0  0  0  0
  197.9370  174.6280  143.9860 C   0  0  0  0  0  2  0  0  0  0  0  0
  1 12  2  0  0  0  0
  1  8  1  0  0  0  0
  2 13  1  0  0  0  0
  2  8  2  0  0  0  0
  3 11  1  0  0  0  0
  3 17  2  0  0  0  0
  4 14  1  0  0  0  0
  4  9  1  0  0  0  0
  5 10  1  0  0  0  0
  5  6  2  0  0  0  0
  6  2  1  0  0  0  0
  7 16  1  0  0  0  0
  8  3  1  0  0  0  0
 10  1  1  0  0  0  0
 11 15  1  0  0  0  0
 12 18  1  0  0  0  0
 15 21  1  0  0  0  0
 15 14  2  0  0  0  0
 16 26  1  6  0  0  0
 16  9  1  0  0  0  0
 17  7  1  0  0  0  0
 17  4  1  0  0  0  0
 18 11  2  0  0  0  0
 19 20  1  0  0  0  0
 20 22  2  0  0  0  0
 21 24  2  0  0  0  0
 23 19  2  0  0  0  0
 23 21  1  0  0  0  0
 24 22  1  0  0  0  0
 25 19  1  0  0  0  0
 27 26  1  0  0  0  0
 28 27  1  0  0  0  0
 30 29  1  1  0  0  0
 30 34  1  0  0  0  0
 30 33  1  0  0  0  0
 31 32  1  0  0  0  0
 33 32  1  0  0  0  0
 33 28  1  1  0  0  0
 34 31  1  0  0  0  0
M  END
>  <MODEL>
1

>  <REMARK>
 VINA RESULT:      -8.3      0.000      0.000
  Name = 
  5 active torsions:
  status: ('A' for Active; 'I' for Inactive)
    1  A    between atoms: N_3  and  C_13
    2  A    between atoms: N_3  and  C_17
    3  A    between atoms: C_12  and  C_28
    4  A    between atoms: C_13  and  C_33
    5  A    between atoms: C_17  and  C_29
                            x       y       z     vdW  Elec       q    Type
                         _______ _______ _______ _____ _____    ______ ____

>  <TORSDO>
F 5

$$$$
=
 OpenBabel11052418443D

 34 39  0  0  1  0  0  0  0  0999 V2000
  189.1270  174.0480  142.0260 C   0  0  0  0  0  0  0  0  0  0  0  0
  191.4820  174.8280  142.0950 C   0  0  0  0  0  0  0  0  0  0  0  0
  189.8280  175.4930  143.9710 C   0  0  0  0  0  0  0  0  0  0  0  0
  190.1180  176.6530  146.0330 N   0  0  0  0  0  0  0  0  0  0  0  0
  190.7070  173.2210  140.3980 C   0  0  0  0  0  3  0  0  0  0  0  0
  191.7110  174.1560  140.9570 C   0  0  0  0  0  3  0  0  0  0  0  0
  191.8110  175.1820  145.3860 N   0  0  0  0  0  2  0  0  0  0  0  0
  190.2600  174.4800  142.9330 C   0  0  0  0  0  0  0  0  0  0  0  0
  191.0750  176.7090  147.1170 C   0  0  0  0  0  2  0  0  0  0  0  0
  189.4650  173.1800  140.8920 C   0  0  0  0  0  2  0  0  0  0  0  0
  188.4520  176.0560  143.9460 C   0  0  0  0  0  0  0  0  0  0  0  0
  187.9300  174.5440  142.1250 N   0  0  0  0  0  0  0  0  0  0  0  0
  192.5290  175.7800  142.5640 C   0  0  0  0  0  1  0  0  0  0  0  0
  188.8710  177.2940  145.9780 N   0  0  0  0  0  0  0  0  0  0  0  0
  188.0470  177.0590  144.9930 C   0  0  0  0  0  0  0  0  0  0  0  0
  192.2050  175.7420  146.6810 C   0  0  2  0  0  3  0  0  0  0  0  0
  190.5700  175.7680  145.0470 C   0  0  0  0  0  0  0  0  0  0  0  0
  187.5660  175.5460  143.0850 C   0  0  0  0  0  3  0  0  0  0  0  0
  184.5360  178.2240  145.8430 C   0  0  0  0  0  0  0  0  0  0  0  0
  184.3220  179.1270  144.8480 N   0  0  0  0  0  0  0  0  0  0  0  0
  186.7510  177.7870  144.9660 C   0  0  0  0  0  0  0  0  0  0  0  0
  185.2680  179.3830  143.9060 C   0  0  0  0  0  3  0  0  0  0  0  0
  185.7490  177.5380  145.9150 C   0  0  0  0  0  3  0  0  0  0  0  0
  186.4950  178.7170  143.9480 C   0  0  0  0  0  3  0  0  0  0  0  0
  183.5710  177.9890  146.7620 F   0  0  0  0  0  0  0  0  0  0  0  0
  193.5150  176.4990  146.5270 C   0  0  0  0  0  2  0  0  0  0  0  0
  194.6310  175.5690  146.4410 N   0  0  0  0  0  2  0  0  0  0  0  0
  195.2630  175.7570  145.1440 C   0  0  0  0  0  2  0  0  0  0  0  0
  197.4640  175.6680  143.2820 C   0  0  0  0  0  1  0  0  0  0  0  0
  196.8770  174.3330  143.7190 C   0  0  2  0  0  3  0  0  0  0  0  0
  197.1480  173.0790  145.6540 C   0  0  0  0  0  2  0  0  0  0  0  0
  195.6870  173.3570  145.5840 C   0  0  0  0  0  2  0  0  0  0  0  0
  195.5440  174.4050  144.4890 C   0  0  1  0  0  3  0  0  0  0  0  0
  197.8020  173.6200  144.6370 C   0  0  0  0  0  2  0  0  0  0  0  0
  1 12  2  0  0  0  0
  1  8  1  0  0  0  0
  2 13  1  0  0  0  0
  2  8  2  0  0  0  0
  3 17  2  0  0  0  0
  4  9  1  0  0  0  0
  5 10  1  0  0  0  0
  5  6  2  0  0  0  0
  6  2  1  0  0  0  0
  7 16  1  0  0  0  0
  8  3  1  0  0  0  0
 10  1  1  0  0  0  0
 11  3  1  0  0  0  0
 11 15  1  0  0  0  0
 12 18  1  0  0  0  0
 14  4  1  0  0  0  0
 15 14  2  0  0  0  0
 16 26  1  6  0  0  0
 16  9  1  0  0  0  0
 17  7  1  0  0  0  0
 17  4  1  0  0  0  0
 18 11  2  0  0  0  0
 19 23  1  0  0  0  0
 19 25  1  0  0  0  0
 20 19  2  0  0  0  0
 21 15  1  0  0  0  0
 21 23  2  0  0  0  0
 22 24  2  0  0  0  0
 22 20  1  0  0  0  0
 24 21  1  0  0  0  0
 27 26  1  0  0  0  0
 28 27  1  0  0  0  0
 30 29  1  1  0  0  0
 30 33  1  0  0  0  0
 30 34  1  0  0  0  0
 32 31  1  0  0  0  0
 33 28  1  1  0  0  0
 33 32  1  0  0  0  0
 34 31  1  0  0  0  0
M  END
>  <MODEL>
2

>  <REMARK>
 VINA RESULT:      -8.1      0.865      1.204
  Name = 
  5 active torsions:
  status: ('A' for Active; 'I' for Inactive)
    1  A    between atoms: N_3  and  C_13
    2  A    between atoms: N_3  and  C_17
    3  A    between atoms: C_12  and  C_28
    4  A    between atoms: C_13  and  C_33
    5  A    between atoms: C_17  and  C_29
                            x       y       z     vdW  Elec       q    Type
                         _______ _______ _______ _____ _____    ______ ____

>  <TORSDO>
F 5

$$$$
=
 OpenBabel11052418443D

 34 39  0  0  1  0  0  0  0  0999 V2000
  191.6770  176.4020  145.5290 C   0  0  0  0  0  0  0  0  0  0  0  0
  191.8530  174.0060  144.9020 C   0  0  0  0  0  0  0  0  0  0  0  0
  190.0120  175.5000  143.8630 C   0  0  0  0  0  0  0  0  0  0  0  0
  188.3990  175.1080  142.1520 N   0  0  0  0  0  0  0  0  0  0  0  0
  193.5430  175.0910  146.3260 C   0  0  0  0  0  3  0  0  0  0  0  0
  192.9140  173.8980  145.7140 C   0  0  0  0  0  3  0  0  0  0  0  0
  190.5180  174.1730  141.8590 N   0  0  0  0  0  2  0  0  0  0  0  0
  191.4070  175.3860  144.4380 C   0  0  1  0  0  3  0  0  0  0  0  0
  188.3260  174.4500  140.8660 C   0  0  0  0  0  2  0  0  0  0  0  0
  192.9460  176.2860  146.2580 C   0  0  0  0  0  3  0  0  0  0  0  0
  189.0270  176.4430  144.4570 C   0  0  0  0  0  0  0  0  0  0  0  0
  190.7740  177.2410  145.9370 N   0  0  0  0  0  0  0  0  0  0  0  0
  191.2560  172.7510  144.3630 C   0  0  0  0  0  1  0  0  0  0  0  0
  187.4060  175.8980  142.7510 N   0  0  0  0  0  0  0  0  0  0  0  0
  187.6490  176.5390  143.8620 C   0  0  0  0  0  0  0  0  0  0  0  0
  189.7290  173.8180  140.6770 C   0  0  2  0  0  3  0  0  0  0  0  0
  189.6730  174.9290  142.7030 C   0  0  0  0  0  0  0  0  0  0  0  0
  189.4400  177.2860  145.4090 C   0  0  0  0  0  3  0  0  0  0  0  0
  185.2450  179.3680  144.6550 C   0  0  0  0  0  0  0  0  0  0  0  0
  184.5330  178.8170  145.6730 N   0  0  0  0  0  0  0  0  0  0  0  0
  186.5520  177.3370  144.4710 C   0  0  0  0  0  0  0  0  0  0  0  0
  184.7910  177.5600  146.1210 C   0  0  0  0  0  3  0  0  0  0  0  0
  186.2660  178.6410  144.0410 C   0  0  0  0  0  3  0  0  0  0  0  0
  185.8050  176.8020  145.5310 C   0  0  0  0  0  3  0  0  0  0  0  0
  184.9650  180.6250  144.2360 F   0  0  0  0  0  0  0  0  0  0  0  0
  189.6150  172.3040  140.5810 C   0  0  0  0  0  2  0  0  0  0  0  0
  190.8750  171.7290  140.1370 N   0  0  0  0  0  2  0  0  0  0  0  0
  191.0010  171.9920  138.7110 C   0  0  0  0  0  2  0  0  0  0  0  0
  189.6450  173.8550  136.9740 C   0  0  0  0  0  1  0  0  0  0  0  0
  189.2520  172.3890  136.8530 C   0  0  2  0  0  3  0  0  0  0  0  0
  190.2730  170.5920  135.7960 C   0  0  0  0  0  2  0  0  0  0  0  0
  190.1810  170.1870  137.2260 C   0  0  0  0  0  2  0  0  0  0  0  0
  189.7790  171.4580  137.9620 C   0  0  1  0  0  3  0  0  0  0  0  0
  189.7720  171.8010  135.5920 C   0  0  0  0  0  2  0  0  0  0  0  0
  1 12  2  0  0  0  0
  1 10  1  0  0  0  0
  2  6  2  0  0  0  0
  3 11  1  0  0  0  0
  4 17  1  0  0  0  0
  4 14  1  0  0  0  0
  6  5  1  0  0  0  0
  7 17  1  0  0  0  0
  8  3  1  1  0  0  0
  8  2  1  0  0  0  0
  8  1  1  0  0  0  0
  9  4  1  0  0  0  0
 10  5  2  0  0  0  0
 11 18  2  0  0  0  0
 13  2  1  0  0  0  0
 14 15  2  0  0  0  0
 15 11  1  0  0  0  0
 15 21  1  0  0  0  0
 16 26  1  1  0  0  0
 16  9  1  0  0  0  0
 16  7  1  0  0  0  0
 17  3  2  0  0  0  0
 18 12  1  0  0  0  0
 19 20  1  0  0  0  0
 20 22  2  0  0  0  0
 21 24  2  0  0  0  0
 23 21  1  0  0  0  0
 23 19  2  0  0  0  0
 24 22  1  0  0  0  0
 25 19  1  0  0  0  0
 27 26  1  0  0  0  0
 28 27  1  0  0  0  0
 30 29  1  1  0  0  0
 30 33  1  0  0  0  0
 31 32  1  0  0  0  0
 32 33  1  0  0  0  0
 33 28  1  6  0  0  0
 34 31  1  0  0  0  0
 34 30  1  0  0  0  0
M  END
>  <MODEL>
3

>  <REMARK>
 VINA RESULT:      -7.9      2.413      6.173
  Name = 
  5 active torsions:
  status: ('A' for Active; 'I' for Inactive)
    1  A    between atoms: N_3  and  C_13
    2  A    between atoms: N_3  and  C_17
    3  A    between atoms: C_12  and  C_28
    4  A    between atoms: C_13  and  C_33
    5  A    between atoms: C_17  and  C_29
                            x       y       z     vdW  Elec       q    Type
                         _______ _______ _______ _____ _____    ______ ____

>  <TORSDO>
F 5

$$$$
=
 OpenBabel11052418443D

 34 39  0  0  1  0  0  0  0  0999 V2000
  186.5130  176.7310  144.2720 C   0  0  0  0  0  0  0  0  0  0  0  0
  187.9030  176.3110  146.2850 C   0  0  0  0  0  0  0  0  0  0  0  0
  188.9410  176.1470  143.9200 C   0  0  0  0  0  0  0  0  0  0  0  0
  191.1780  175.8190  143.1650 N   0  0  0  0  0  0  0  0  0  0  0  0
  185.5860  177.1230  146.4670 C   0  0  0  0  0  3  0  0  0  0  0  0
  186.8310  176.5690  147.0480 C   0  0  0  0  0  3  0  0  0  0  0  0
  190.8700  177.1660  145.0470 N   0  0  0  0  0  2  0  0  0  0  0  0
  187.9170  176.7800  144.8360 C   0  0  1  0  0  3  0  0  0  0  0  0
  192.5120  176.2590  143.5140 C   0  0  0  0  0  2  0  0  0  0  0  0
  185.4200  177.1840  145.1410 C   0  0  0  0  0  3  0  0  0  0  0  0
  188.5100  175.4500  142.6780 C   0  0  0  0  0  0  0  0  0  0  0  0
  186.2390  176.1610  143.1370 N   0  0  0  0  0  0  0  0  0  0  0  0
  189.0990  175.7150  146.9440 C   0  0  0  0  0  1  0  0  0  0  0  0
  190.8100  175.0550  142.0480 N   0  0  0  0  0  0  0  0  0  0  0  0
  189.5500  174.8330  141.7830 C   0  0  0  0  0  0  0  0  0  0  0  0
  192.3090  177.1420  144.7710 C   0  0  2  0  0  3  0  0  0  0  0  0
  190.2530  176.3540  144.0690 C   0  0  0  0  0  0  0  0  0  0  0  0
  187.2260  175.5190  142.3170 C   0  0  0  0  0  3  0  0  0  0  0  0
  189.3330  171.9100  139.3700 C   0  0  0  0  0  0  0  0  0  0  0  0
  188.6160  172.4690  138.3600 N   0  0  0  0  0  0  0  0  0  0  0  0
  189.2150  173.9910  140.6040 C   0  0  0  0  0  0  0  0  0  0  0  0
  188.1910  173.7590  138.4200 C   0  0  0  0  0  3  0  0  0  0  0  0
  189.6470  172.6610  140.5040 C   0  0  0  0  0  3  0  0  0  0  0  0
  188.4850  174.5410  139.5400 C   0  0  0  0  0  3  0  0  0  0  0  0
  189.7460  170.6240  139.2760 F   0  0  0  0  0  0  0  0  0  0  0  0
  193.0420  176.5410  145.9600 C   0  0  0  0  0  2  0  0  0  0  0  0
  194.4190  176.2330  145.6030 N   0  0  0  0  0  2  0  0  0  0  0  0
  194.7290  174.9160  146.1390 C   0  0  0  0  0  2  0  0  0  0  0  0
  197.1980  173.4240  146.1580 C   0  0  0  0  0  1  0  0  0  0  0  0
  196.1160  172.9540  145.1950 C   0  0  2  0  0  3  0  0  0  0  0  0
  194.1870  171.7060  145.5200 C   0  0  0  0  0  2  0  0  0  0  0  0
  193.7110  172.9970  144.9500 C   0  0  0  0  0  2  0  0  0  0  0  0
  194.9260  173.9130  145.0020 C   0  0  1  0  0  3  0  0  0  0  0  0
  195.5030  171.6850  145.6620 C   0  0  0  0  0  2  0  0  0  0  0  0
  1  8  1  0  0  0  0
  1 10  1  0  0  0  0
  2 13  1  0  0  0  0
  2  6  2  0  0  0  0
  3 17  2  0  0  0  0
  4  9  1  0  0  0  0
  4 17  1  0  0  0  0
  5  6  1  0  0  0  0
  8  3  1  6  0  0  0
  8  2  1  0  0  0  0
  9 16  1  0  0  0  0
 10  5  2  0  0  0  0
 11  3  1  0  0  0  0
 12  1  2  0  0  0  0
 14  4  1  0  0  0  0
 15 14  2  0  0  0  0
 15 11  1  0  0  0  0
 16  7  1  0  0  0  0
 16 26  1  1  0  0  0
 17  7  1  0  0  0  0
 18 11  2  0  0  0  0
 18 12  1  0  0  0  0
 19 23  1  0  0  0  0
 20 22  1  0  0  0  0
 20 19  2  0  0  0  0
 21 15  1  0  0  0  0
 22 24  2  0  0  0  0
 23 21  2  0  0  0  0
 24 21  1  0  0  0  0
 25 19  1  0  0  0  0
 27 26  1  0  0  0  0
 27 28  1  0  0  0  0
 30 34  1  0  0  0  0
 30 29  1  1  0  0  0
 31 34  1  0  0  0  0
 32 33  1  0  0  0  0
 32 31  1  0  0  0  0
 33 30  1  0  0  0  0
 33 28  1  1  0  0  0
M  END
>  <MODEL>
4

>  <REMARK>
 VINA RESULT:      -7.8      2.770      5.632
  Name = 
  5 active torsions:
  status: ('A' for Active; 'I' for Inactive)
    1  A    between atoms: N_3  and  C_13
    2  A    between atoms: N_3  and  C_17
    3  A    between atoms: C_12  and  C_28
    4  A    between atoms: C_13  and  C_33
    5  A    between atoms: C_17  and  C_29
                            x       y       z     vdW  Elec       q    Type
                         _______ _______ _______ _____ _____    ______ ____

>  <TORSDO>
F 5

$$$$
=
 OpenBabel11052418443D

 34 39  0  0  1  0  0  0  0  0999 V2000
  186.2990  176.9820  144.3670 C   0  0  0  0  0  0  0  0  0  0  0  0
  187.5340  176.3520  146.4260 C   0  0  0  0  0  0  0  0  0  0  0  0
  188.6900  176.2190  144.1150 C   0  0  0  0  0  0  0  0  0  0  0  0
  190.9340  175.7460  143.4650 N   0  0  0  0  0  0  0  0  0  0  0  0
  185.2820  177.3410  146.5270 C   0  0  0  0  0  3  0  0  0  0  0  0
  186.4430  176.6590  147.1430 C   0  0  0  0  0  3  0  0  0  0  0  0
  190.6260  177.0200  145.3960 N   0  0  0  0  0  2  0  0  0  0  0  0
  187.6680  176.8880  145.0080 C   0  0  1  0  0  3  0  0  0  0  0  0
  192.2760  176.0570  143.9070 C   0  0  0  0  0  2  0  0  0  0  0  0
  185.1980  177.4800  145.2000 C   0  0  0  0  0  3  0  0  0  0  0  0
  188.2780  175.6210  142.8170 C   0  0  0  0  0  0  0  0  0  0  0  0
  186.0480  176.4920  143.1900 N   0  0  0  0  0  0  0  0  0  0  0  0
  188.6400  175.6280  147.1160 C   0  0  0  0  0  1  0  0  0  0  0  0
  190.5710  175.0700  142.2900 N   0  0  0  0  0  0  0  0  0  0  0  0
  189.3160  174.9650  141.9460 C   0  0  0  0  0  0  0  0  0  0  0  0
  192.0710  176.8930  145.1960 C   0  0  2  0  0  3  0  0  0  0  0  0
  190.0030  176.3100  144.3440 C   0  0  0  0  0  0  0  0  0  0  0  0
  187.0260  175.8120  142.3910 C   0  0  0  0  0  3  0  0  0  0  0  0
  188.0810  174.0970  138.4630 C   0  0  0  0  0  0  0  0  0  0  0  0
  188.3230  172.7590  138.4350 N   0  0  0  0  0  0  0  0  0  0  0  0
  188.9830  174.2110  140.7080 C   0  0  0  0  0  0  0  0  0  0  0  0
  188.8750  172.1150  139.4980 C   0  0  0  0  0  3  0  0  0  0  0  0
  188.4020  174.8420  139.5980 C   0  0  0  0  0  3  0  0  0  0  0  0
  189.2110  172.8290  140.6510 C   0  0  0  0  0  3  0  0  0  0  0  0
  187.5250  174.7060  137.3890 F   0  0  0  0  0  0  0  0  0  0  0  0
  192.6850  176.1760  146.3900 C   0  0  0  0  0  2  0  0  0  0  0  0
  193.2570  174.9030  145.9760 N   0  0  0  0  0  2  0  0  0  0  0  0
  194.7040  175.0610  145.9420 C   0  0  0  0  0  2  0  0  0  0  0  0
  196.0510  176.3720  143.7530 C   0  0  0  0  0  1  0  0  0  0  0  0
  196.2450  174.8670  143.8800 C   0  0  2  0  0  3  0  0  0  0  0  0
  197.5970  173.5900  145.2700 C   0  0  0  0  0  2  0  0  0  0  0  0
  196.2110  173.1320  145.5640 C   0  0  0  0  0  2  0  0  0  0  0  0
  195.3130  174.1500  144.8750 C   0  0  1  0  0  3  0  0  0  0  0  0
  197.6160  174.5460  144.3530 C   0  0  0  0  0  2  0  0  0  0  0  0
  1  8  1  0  0  0  0
  1 10  1  0  0  0  0
  2 13  1  0  0  0  0
  2  6  2  0  0  0  0
  3 17  2  0  0  0  0
  4  9  1  0  0  0  0
  4 17  1  0  0  0  0
  5  6  1  0  0  0  0
  8  3  1  6  0  0  0
  8  2  1  0  0  0  0
  9 16  1  0  0  0  0
 10  5  2  0  0  0  0
 11  3  1  0  0  0  0
 12  1  2  0  0  0  0
 14  4  1  0  0  0  0
 15 14  2  0  0  0  0
 15 11  1  0  0  0  0
 16  7  1  0  0  0  0
 16 26  1  1  0  0  0
 17  7  1  0  0  0  0
 18 11  2  0  0  0  0
 18 12  1  0  0  0  0
 19 23  1  0  0  0  0
 20 19  2  0  0  0  0
 20 22  1  0  0  0  0
 21 15  1  0  0  0  0
 22 24  2  0  0  0  0
 23 21  2  0  0  0  0
 24 21  1  0  0  0  0
 25 19  1  0  0  0  0
 27 26  1  0  0  0  0
 28 27  1  0  0  0  0
 30 29  1  1  0  0  0
 30 34  1  0  0  0  0
 30 33  1  0  0  0  0
 31 32  1  0  0  0  0
 33 32  1  0  0  0  0
 33 28  1  1  0  0  0
 34 31  1  0  0  0  0
M  END
>  <MODEL>
5

>  <REMARK>
 VINA RESULT:      -7.8      2.273      5.200
  Name = 
  5 active torsions:
  status: ('A' for Active; 'I' for Inactive)
    1  A    between atoms: N_3  and  C_13
    2  A    between atoms: N_3  and  C_17
    3  A    between atoms: C_12  and  C_28
    4  A    between atoms: C_13  and  C_33
    5  A    between atoms: C_17  and  C_29
                            x       y       z     vdW  Elec       q    Type
                         _______ _______ _______ _____ _____    ______ ____

>  <TORSDO>
F 5

$$$$
=
 OpenBabel11052418443D

 34 39  0  0  1  0  0  0  0  0999 V2000
  191.6290  176.3260  145.5020 C   0  0  0  0  0  0  0  0  0  0  0  0
  191.7820  173.9370  144.8440 C   0  0  0  0  0  0  0  0  0  0  0  0
  189.9330  175.4530  143.8520 C   0  0  0  0  0  0  0  0  0  0  0  0
  188.2920  175.0900  142.1630 N   0  0  0  0  0  0  0  0  0  0  0  0
  193.5010  174.9970  146.2540 C   0  0  0  0  0  3  0  0  0  0  0  0
  192.8550  173.8140  145.6380 C   0  0  0  0  0  3  0  0  0  0  0  0
  190.4000  174.1470  141.8260 N   0  0  0  0  0  2  0  0  0  0  0  0
  191.3370  175.3260  144.4040 C   0  0  1  0  0  3  0  0  0  0  0  0
  188.1940  174.4470  140.8700 C   0  0  0  0  0  2  0  0  0  0  0  0
  192.9090  176.1960  146.2100 C   0  0  0  0  0  3  0  0  0  0  0  0
  188.9640  176.3950  144.4730 C   0  0  0  0  0  0  0  0  0  0  0  0
  190.7370  177.1660  145.9340 N   0  0  0  0  0  0  0  0  0  0  0  0
  191.1700  172.6920  144.3010 C   0  0  0  0  0  1  0  0  0  0  0  0
  187.3120  175.8780  142.7860 N   0  0  0  0  0  0  0  0  0  0  0  0
  187.5760  176.5050  143.9010 C   0  0  0  0  0  0  0  0  0  0  0  0
  189.5900  173.8100  140.6520 C   0  0  2  0  0  3  0  0  0  0  0  0
  189.5730  174.8970  142.6920 C   0  0  0  0  0  0  0  0  0  0  0  0
  189.3960  177.2240  145.4280 C   0  0  0  0  0  3  0  0  0  0  0  0
  185.1490  179.3080  144.7120 C   0  0  0  0  0  0  0  0  0  0  0  0
  184.5040  178.7810  145.7870 N   0  0  0  0  0  0  0  0  0  0  0  0
  186.4930  177.3010  144.5370 C   0  0  0  0  0  0  0  0  0  0  0  0
  184.8160  177.5490  146.2680 C   0  0  0  0  0  3  0  0  0  0  0  0
  186.1540  178.5810  144.0740 C   0  0  0  0  0  3  0  0  0  0  0  0
  185.8160  176.7910  145.6540 C   0  0  0  0  0  3  0  0  0  0  0  0
  184.8170  180.5420  144.2630 F   0  0  0  0  0  0  0  0  0  0  0  0
  189.4670  172.2980  140.5400 C   0  0  0  0  0  2  0  0  0  0  0  0
  190.7780  171.6740  140.6460 N   0  0  0  0  0  2  0  0  0  0  0  0
  191.5170  171.9960  139.4340 C   0  0  0  0  0  2  0  0  0  0  0  0
  193.0580  174.1660  138.3210 C   0  0  0  0  0  1  0  0  0  0  0  0
  193.7590  173.2710  139.3330 C   0  0  2  0  0  3  0  0  0  0  0  0
  193.6720  173.1880  141.6510 C   0  0  0  0  0  2  0  0  0  0  0  0
  193.2380  171.8350  141.2080 C   0  0  0  0  0  2  0  0  0  0  0  0
  193.0210  171.9720  139.7070 C   0  0  1  0  0  3  0  0  0  0  0  0
  193.9500  173.9780  140.6260 C   0  0  0  0  0  2  0  0  0  0  0  0
  1 12  2  0  0  0  0
  1 10  1  0  0  0  0
  2  6  2  0  0  0  0
  3 11  1  0  0  0  0
  4 17  1  0  0  0  0
  4 14  1  0  0  0  0
  6  5  1  0  0  0  0
  7 17  1  0  0  0  0
  8  3  1  1  0  0  0
  8  2  1  0  0  0  0
  8  1  1  0  0  0  0
  9  4  1  0  0  0  0
 10  5  2  0  0  0  0
 11 18  2  0  0  0  0
 13  2  1  0  0  0  0
 14 15  2  0  0  0  0
 15 11  1  0  0  0  0
 15 21  1  0  0  0  0
 16 26  1  1  0  0  0
 16  9  1  0  0  0  0
 16  7  1  0  0  0  0
 17  3  2  0  0  0  0
 18 12  1  0  0  0  0
 19 20  1  0  0  0  0
 20 22  2  0  0  0  0
 21 24  2  0  0  0  0
 23 21  1  0  0  0  0
 23 19  2  0  0  0  0
 24 22  1  0  0  0  0
 25 19  1  0  0  0  0
 26 27  1  0  0  0  0
 28 27  1  0  0  0  0
 30 29  1  6  0  0  0
 30 33  1  0  0  0  0
 30 34  1  0  0  0  0
 32 31  1  0  0  0  0
 33 28  1  1  0  0  0
 33 32  1  0  0  0  0
 34 31  1  0  0  0  0
M  END
>  <MODEL>
6

>  <REMARK>
 VINA RESULT:      -7.6      2.198      4.762
  Name = 
  5 active torsions:
  status: ('A' for Active; 'I' for Inactive)
    1  A    between atoms: N_3  and  C_13
    2  A    between atoms: N_3  and  C_17
    3  A    between atoms: C_12  and  C_28
    4  A    between atoms: C_13  and  C_33
    5  A    between atoms: C_17  and  C_29
                            x       y       z     vdW  Elec       q    Type
                         _______ _______ _______ _____ _____    ______ ____

>  <TORSDO>
F 5

$$$$
=
 OpenBabel11052418443D

 34 39  0  0  1  0  0  0  0  0999 V2000
  187.5560  177.5170  145.0220 C   0  0  0  0  0  0  0  0  0  0  0  0
  187.0530  177.7980  142.6070 C   0  0  0  0  0  0  0  0  0  0  0  0
  188.8710  176.1260  143.3800 C   0  0  0  0  0  0  0  0  0  0  0  0
  190.1800  174.5180  142.2040 N   0  0  0  0  0  0  0  0  0  0  0  0
  185.6980  178.9010  144.3420 C   0  0  0  0  0  3  0  0  0  0  0  0
  186.1100  178.6940  142.9340 C   0  0  0  0  0  3  0  0  0  0  0  0
  187.9580  174.7800  141.5400 N   0  0  0  0  0  2  0  0  0  0  0  0
  187.5670  176.8360  143.6700 C   0  0  1  0  0  3  0  0  0  0  0  0
  190.0060  173.5470  141.1450 C   0  0  0  0  0  2  0  0  0  0  0  0
  186.3970  178.3580  145.3440 C   0  0  0  0  0  3  0  0  0  0  0  0
  190.0200  176.2500  144.3170 C   0  0  0  0  0  0  0  0  0  0  0  0
  188.5880  177.5120  145.8110 N   0  0  0  0  0  0  0  0  0  0  0  0
  187.4380  177.6840  141.1720 C   0  0  0  0  0  1  0  0  0  0  0  0
  191.3230  174.7000  142.9980 N   0  0  0  0  0  0  0  0  0  0  0  0
  191.3040  175.5300  144.0060 C   0  0  0  0  0  0  0  0  0  0  0  0
  188.5340  173.7300  140.6960 C   0  0  2  0  0  3  0  0  0  0  0  0
  188.9850  175.2170  142.4070 C   0  0  0  0  0  0  0  0  0  0  0  0
  189.8320  176.8770  145.4820 C   0  0  0  0  0  3  0  0  0  0  0  0
  194.3580  177.0830  145.6400 C   0  0  0  0  0  0  0  0  0  0  0  0
  194.9090  175.9910  146.2360 N   0  0  0  0  0  0  0  0  0  0  0  0
  192.5500  175.7090  144.7970 C   0  0  0  0  0  0  0  0  0  0  0  0
  194.3340  174.7630  146.1370 C   0  0  0  0  0  3  0  0  0  0  0  0
  193.1760  176.9590  144.9090 C   0  0  0  0  0  3  0  0  0  0  0  0
  193.1490  174.6020  145.4150 C   0  0  0  0  0  3  0  0  0  0  0  0
  194.9600  178.2900  145.7540 F   0  0  0  0  0  0  0  0  0  0  0  0
  188.4790  174.1660  139.2390 C   0  0  0  0  0  2  0  0  0  0  0  0
  189.7060  173.7910  138.5530 N   0  0  0  0  0  2  0  0  0  0  0  0
  189.3370  173.2600  137.2490 C   0  0  0  0  0  2  0  0  0  0  0  0
  189.3680  171.9630  134.6720 C   0  0  0  0  0  1  0  0  0  0  0  0
  189.6910  171.0990  135.8830 C   0  0  2  0  0  3  0  0  0  0  0  0
  191.6230  170.8630  137.1480 C   0  0  0  0  0  2  0  0  0  0  0  0
  190.5860  171.3070  138.1200 C   0  0  0  0  0  2  0  0  0  0  0  0
  189.4060  171.7330  137.2580 C   0  0  1  0  0  3  0  0  0  0  0  0
  191.1360  170.7560  135.9220 C   0  0  0  0  0  2  0  0  0  0  0  0
  1 10  1  0  0  0  0
  1 12  2  0  0  0  0
  2  6  2  0  0  0  0
  3  8  1  0  0  0  0
  3 11  1  0  0  0  0
  4 17  1  0  0  0  0
  4 14  1  0  0  0  0
  5 10  2  0  0  0  0
  6  5  1  0  0  0  0
  7 17  1  0  0  0  0
  8  2  1  6  0  0  0
  8  1  1  0  0  0  0
  9  4  1  0  0  0  0
 11 18  2  0  0  0  0
 13  2  1  0  0  0  0
 14 15  2  0  0  0  0
 15 11  1  0  0  0  0
 15 21  1  0  0  0  0
 16 26  1  6  0  0  0
 16  9  1  0  0  0  0
 16  7  1  0  0  0  0
 17  3  2  0  0  0  0
 18 12  1  0  0  0  0
 19 25  1  0  0  0  0
 19 20  1  0  0  0  0
 21 23  1  0  0  0  0
 21 24  2  0  0  0  0
 22 20  2  0  0  0  0
 23 19  2  0  0  0  0
 24 22  1  0  0  0  0
 27 26  1  0  0  0  0
 28 27  1  0  0  0  0
 30 29  1  6  0  0  0
 30 34  1  0  0  0  0
 30 33  1  0  0  0  0
 31 32  1  0  0  0  0
 33 28  1  6  0  0  0
 33 32  1  0  0  0  0
 34 31  1  0  0  0  0
M  END
>  <MODEL>
7

>  <REMARK>
 VINA RESULT:      -7.6      3.205      7.804
  Name = 
  5 active torsions:
  status: ('A' for Active; 'I' for Inactive)
    1  A    between atoms: N_3  and  C_13
    2  A    between atoms: N_3  and  C_17
    3  A    between atoms: C_12  and  C_28
    4  A    between atoms: C_13  and  C_33
    5  A    between atoms: C_17  and  C_29
                            x       y       z     vdW  Elec       q    Type
                         _______ _______ _______ _____ _____    ______ ____

>  <TORSDO>
F 5

$$$$
=
 OpenBabel11052418443D

 34 39  0  0  1  0  0  0  0  0999 V2000
  191.9860  173.9050  144.5230 C   0  0  0  0  0  0  0  0  0  0  0  0
  191.5230  176.3420  144.6230 C   0  0  0  0  0  0  0  0  0  0  0  0
  190.2580  174.8380  142.9390 C   0  0  0  0  0  0  0  0  0  0  0  0
  188.4590  175.2670  141.4360 N   0  0  0  0  0  0  0  0  0  0  0  0
  193.0000  175.2440  146.2590 C   0  0  0  0  0  3  0  0  0  0  0  0
  192.4180  176.4450  145.6160 C   0  0  0  0  0  3  0  0  0  0  0  0
  188.3850  176.3140  143.5210 N   0  0  0  0  0  2  0  0  0  0  0  0
  190.9430  174.9760  144.2820 C   0  0  1  0  0  3  0  0  0  0  0  0
  187.2150  176.0050  141.4220 C   0  0  0  0  0  2  0  0  0  0  0  0
  192.8140  174.0300  145.7290 C   0  0  0  0  0  3  0  0  0  0  0  0
  190.7180  173.8140  141.9630 C   0  0  0  0  0  0  0  0  0  0  0  0
  192.2720  173.0000  143.6360 N   0  0  0  0  0  0  0  0  0  0  0  0
  191.0210  177.6020  144.0050 C   0  0  0  0  0  1  0  0  0  0  0  0
  188.9310  174.3960  140.4430 N   0  0  0  0  0  0  0  0  0  0  0  0
  190.0160  173.6950  140.6370 C   0  0  0  0  0  0  0  0  0  0  0  0
  187.1710  176.7100  142.8020 C   0  0  2  0  0  3  0  0  0  0  0  0
  189.1150  175.4680  142.6560 C   0  0  0  0  0  0  0  0  0  0  0  0
  191.6430  172.9300  142.3480 C   0  0  0  0  0  3  0  0  0  0  0  0
  190.3140  170.8010  138.1980 C   0  0  0  0  0  0  0  0  0  0  0  0
  191.4410  171.1540  137.5240 N   0  0  0  0  0  0  0  0  0  0  0  0
  190.4900  172.8090  139.5400 C   0  0  0  0  0  0  0  0  0  0  0  0
  192.1170  172.2960  137.8190 C   0  0  0  0  0  3  0  0  0  0  0  0
  189.8240  171.6190  139.2170 C   0  0  0  0  0  3  0  0  0  0  0  0
  191.6550  173.1390  138.8330 C   0  0  0  0  0  3  0  0  0  0  0  0
  189.6680  169.6540  137.8810 F   0  0  0  0  0  0  0  0  0  0  0  0
  187.1610  178.2210  142.6200 C   0  0  0  0  0  2  0  0  0  0  0  0
  185.9970  178.8010  143.2720 N   0  0  0  0  0  2  0  0  0  0  0  0
  186.3040  178.9300  144.6890 C   0  0  0  0  0  2  0  0  0  0  0  0
  187.8470  177.2800  146.4830 C   0  0  0  0  0  1  0  0  0  0  0  0
  186.3330  177.2270  146.6280 C   0  0  2  0  0  3  0  0  0  0  0  0
  184.8200  178.6670  147.6400 C   0  0  0  0  0  2  0  0  0  0  0  0
  184.3840  178.5990  146.2180 C   0  0  0  0  0  2  0  0  0  0  0  0
  185.5250  177.8930  145.4980 C   0  0  1  0  0  3  0  0  0  0  0  0
  185.8910  177.9220  147.8640 C   0  0  0  0  0  2  0  0  0  0  0  0
  1 10  1  0  0  0  0
  2  6  2  0  0  0  0
  4 17  1  0  0  0  0
  6  5  1  0  0  0  0
  8  3  1  6  0  0  0
  8  1  1  0  0  0  0
  8  2  1  0  0  0  0
  9  4  1  0  0  0  0
  9 16  1  0  0  0  0
 10  5  2  0  0  0  0
 11 18  2  0  0  0  0
 11  3  1  0  0  0  0
 12  1  2  0  0  0  0
 13  2  1  0  0  0  0
 14 15  2  0  0  0  0
 14  4  1  0  0  0  0
 15 11  1  0  0  0  0
 16 26  1  6  0  0  0
 16  7  1  0  0  0  0
 17  3  2  0  0  0  0
 17  7  1  0  0  0  0
 18 12  1  0  0  0  0
 19 23  1  0  0  0  0
 20 22  1  0  0  0  0
 20 19  2  0  0  0  0
 21 15  1  0  0  0  0
 22 24  2  0  0  0  0
 23 21  2  0  0  0  0
 24 21  1  0  0  0  0
 25 19  1  0  0  0  0
 26 27  1  0  0  0  0
 27 28  1  0  0  0  0
 30 29  1  6  0  0  0
 30 34  1  0  0  0  0
 31 34  1  0  0  0  0
 32 31  1  0  0  0  0
 33 28  1  1  0  0  0
 33 32  1  0  0  0  0
 33 30  1  0  0  0  0
M  END
>  <MODEL>
8

>  <REMARK>
 VINA RESULT:      -7.5      3.446      8.527
  Name = 
  5 active torsions:
  status: ('A' for Active; 'I' for Inactive)
    1  A    between atoms: N_3  and  C_13
    2  A    between atoms: N_3  and  C_17
    3  A    between atoms: C_12  and  C_28
    4  A    between atoms: C_13  and  C_33
    5  A    between atoms: C_17  and  C_29
                            x       y       z     vdW  Elec       q    Type
                         _______ _______ _______ _____ _____    ______ ____

>  <TORSDO>
F 5

$$$$
=
 OpenBabel11052418443D

 34 39  0  0  1  0  0  0  0  0999 V2000
  191.9370  173.1810  140.3430 C   0  0  0  0  0  0  0  0  0  0  0  0
  189.6770  173.8620  141.1110 C   0  0  0  0  0  0  0  0  0  0  0  0
  191.7580  174.3470  142.5720 C   0  0  0  0  0  0  0  0  0  0  0  0
  192.0490  175.5630  144.6010 N   0  0  0  0  0  0  0  0  0  0  0  0
  190.0460  172.9340  138.8600 C   0  0  0  0  0  3  0  0  0  0  0  0
  189.1690  173.3680  139.9720 C   0  0  0  0  0  3  0  0  0  0  0  0
  190.5440  176.4290  143.0420 N   0  0  0  0  0  2  0  0  0  0  0  0
  191.1660  174.1710  141.1900 C   0  0  0  0  0  0  0  0  0  0  0  0
  191.5750  176.7900  145.2040 C   0  0  0  0  0  2  0  0  0  0  0  0
  191.3670  172.8230  139.0380 C   0  0  0  0  0  2  0  0  0  0  0  0
  192.8940  173.4970  143.0170 C   0  0  0  0  0  0  0  0  0  0  0  0
  192.9690  172.5340  140.7940 N   0  0  0  0  0  0  0  0  0  0  0  0
  188.7240  174.2360  142.1940 C   0  0  0  0  0  1  0  0  0  0  0  0
  193.0420  174.7090  145.1030 N   0  0  0  0  0  0  0  0  0  0  0  0
  193.4660  173.6960  144.3950 C   0  0  0  0  0  0  0  0  0  0  0  0
  190.5650  177.3580  144.1740 C   0  0  2  0  0  3  0  0  0  0  0  0
  191.4350  175.3780  143.3570 C   0  0  0  0  0  0  0  0  0  0  0  0
  193.4720  172.6820  142.1300 C   0  0  0  0  0  3  0  0  0  0  0  0
  195.1810  170.7000  145.9730 C   0  0  0  0  0  0  0  0  0  0  0  0
  196.4400  171.1870  146.1380 N   0  0  0  0  0  0  0  0  0  0  0  0
  194.4980  172.8030  144.9860 C   0  0  0  0  0  0  0  0  0  0  0  0
  196.7680  172.4500  145.7580 C   0  0  0  0  0  3  0  0  0  0  0  0
  194.1910  171.4990  145.4000 C   0  0  0  0  0  3  0  0  0  0  0  0
  195.8030  173.2790  145.1790 C   0  0  0  0  0  3  0  0  0  0  0  0
  194.8870  169.4390  146.3680 F   0  0  0  0  0  0  0  0  0  0  0  0
  189.1760  177.4390  144.7890 C   0  0  0  0  0  2  0  0  0  0  0  0
  188.1720  177.6070  143.7490 N   0  0  0  0  0  2  0  0  0  0  0  0
  186.8900  177.2000  144.3060 C   0  0  0  0  0  2  0  0  0  0  0  0
  185.5660  179.7450  144.0020 C   0  0  0  0  0  1  0  0  0  0  0  0
  185.6620  179.1820  145.4130 C   0  0  2  0  0  3  0  0  0  0  0  0
  184.4430  177.5430  146.5150 C   0  0  0  0  0  2  0  0  0  0  0  0
  185.8500  177.0550  146.5490 C   0  0  0  0  0  2  0  0  0  0  0  0
  186.6000  177.9730  145.5920 C   0  0  1  0  0  3  0  0  0  0  0  0
  184.3380  178.7030  145.8860 C   0  0  0  0  0  2  0  0  0  0  0  0
  1 12  2  0  0  0  0
  1  8  1  0  0  0  0
  2  8  2  0  0  0  0
  2 13  1  0  0  0  0
  3 11  1  0  0  0  0
  3 17  2  0  0  0  0
  4 14  1  0  0  0  0
  4  9  1  0  0  0  0
  5 10  1  0  0  0  0
  5  6  2  0  0  0  0
  6  2  1  0  0  0  0
  7 17  1  0  0  0  0
  7 16  1  0  0  0  0
  8  3  1  0  0  0  0
 10  1  1  0  0  0  0
 11 15  1  0  0  0  0
 12 18  1  0  0  0  0
 15 21  1  0  0  0  0
 15 14  2  0  0  0  0
 16 26  1  1  0  0  0
 16  9  1  0  0  0  0
 17  4  1  0  0  0  0
 18 11  2  0  0  0  0
 19 20  1  0  0  0  0
 19 25  1  0  0  0  0
 21 24  2  0  0  0  0
 21 23  1  0  0  0  0
 22 20  2  0  0  0  0
 23 19  2  0  0  0  0
 24 22  1  0  0  0  0
 27 28  1  0  0  0  0
 27 26  1  0  0  0  0
 30 29  1  6  0  0  0
 30 33  1  0  0  0  0
 30 34  1  0  0  0  0
 31 32  1  0  0  0  0
 33 28  1  6  0  0  0
 33 32  1  0  0  0  0
 34 31  1  0  0  0  0
M  END
>  <MODEL>
9

>  <REMARK>
 VINA RESULT:      -7.5      3.324      8.479
  Name = 
  5 active torsions:
  status: ('A' for Active; 'I' for Inactive)
    1  A    between atoms: N_3  and  C_13
    2  A    between atoms: N_3  and  C_17
    3  A    between atoms: C_12  and  C_28
    4  A    between atoms: C_13  and  C_33
    5  A    between atoms: C_17  and  C_29
                            x       y       z     vdW  Elec       q    Type
                         _______ _______ _______ _____ _____    ______ ____

>  <TORSDO>
F 5

$$$$
