=
 OpenBabel11052417543D

 31 34  0  0  1  0  0  0  0  0999 V2000
  191.0990  176.1740  146.6720 C   0  0  2  0  0  3  0  0  0  0  0  0
  187.8300  176.4820  144.5920 C   0  0  2  0  0  3  0  0  0  0  0  0
  186.7650  177.0290  145.5270 C   0  0  0  0  0  0  0  0  0  0  0  0
  186.9230  178.3080  147.6370 C   0  0  0  0  0  3  0  0  0  0  0  0
  189.2720  176.8100  145.0490 C   0  0  1  0  0  3  0  0  0  0  0  0
  192.0240  176.9370  145.7130 C   0  0  0  0  0  2  0  0  0  0  0  0
  187.0080  176.9610  147.0040 C   0  0  0  0  0  2  0  0  0  0  0  0
  188.6070  176.2680  142.2360 C   0  0  0  0  0  0  0  0  0  0  0  0
  191.8070  174.9460  147.2100 C   0  0  0  0  0  1  0  0  0  0  0  0
  185.2590  177.1890  143.6760 O   0  0  0  0  0  0  0  0  0  0  0  0
  185.7980  179.0160  147.6560 C   0  0  0  0  0  3  0  0  0  0  0  0
  189.8850  176.2930  142.6230 C   0  0  0  0  0  3  0  0  0  0  0  0
  187.5830  176.9070  143.1370 C   0  0  1  0  0  3  0  0  0  0  0  0
  189.7640  175.7580  146.0430 C   0  0  0  0  0  2  0  0  0  0  0  0
  184.5440  178.6090  146.9960 C   0  0  0  0  0  3  0  0  0  0  0  0
  190.2920  176.9990  143.8860 C   0  0  2  0  0  3  0  0  0  0  0  0
  191.7270  176.6080  144.2520 C   0  0  0  0  0  2  0  0  0  0  0  0
  186.1520  176.5430  142.7720 C   0  0  0  0  0  2  0  0  0  0  0  0
  185.5400  177.3480  145.0420 C   0  0  0  0  0  0  0  0  0  0  0  0
  184.4390  177.8820  145.8770 C   0  0  0  0  0  3  0  0  0  0  0  0
  188.1980  175.5960  141.0320 N   0  0  0  0  0  2  0  0  0  0  0  0
  188.7690  173.9370  138.9970 S   0  0  0  0  0  0  0  0  0  0  0  0
  188.5730  174.2830  140.5870 C   0  0  0  0  0  0  0  0  0  0  0  0
  188.4350  173.1490  141.5390 C   0  0  0  0  0  2  0  0  0  0  0  0
  189.1970  172.0660  141.0930 O   0  0  0  0  0  0  0  0  0  0  0  0
  190.5770  170.3480  142.0350 C   0  0  0  0  0  1  0  0  0  0  0  0
  190.0610  171.7730  142.1530 C   0  0  2  0  0  3  0  0  0  0  0  0
  189.3770  172.0170  143.5020 C   0  0  0  0  0  2  0  0  0  0  0  0
  190.3490  172.4480  144.6000 C   0  0  0  0  0  2  0  0  0  0  0  0
  191.5880  173.1170  144.0240 C   0  0  0  0  0  2  0  0  0  0  0  0
  192.8440  172.5360  144.6470 C   0  0  0  0  0  1  0  0  0  0  0  0
  1  9  1  6  0  0  0
  2  5  1  0  0  0  0
  2  3  1  1  0  0  0
  3  7  1  0  0  0  0
  4 11  2  0  0  0  0
  5 14  1  1  0  0  0
  6  1  1  0  0  0  0
  7  4  1  0  0  0  0
  8 12  2  0  0  0  0
  8 13  1  0  0  0  0
 10 19  1  0  0  0  0
 13 18  1  6  0  0  0
 13  2  1  0  0  0  0
 14  1  1  0  0  0  0
 15 11  1  0  0  0  0
 16 12  1  6  0  0  0
 16 17  1  0  0  0  0
 16  5  1  0  0  0  0
 17  6  1  0  0  0  0
 18 10  1  0  0  0  0
 19  3  2  0  0  0  0
 19 20  1  0  0  0  0
 20 15  2  0  0  0  0
 21  8  1  0  0  0  0
 22 23  2  0  0  0  0
 23 21  1  0  0  0  0
 23 24  1  0  0  0  0
 25 24  1  0  0  0  0
 25 27  1  0  0  0  0
 27 26  1  1  0  0  0
 27 28  1  0  0  0  0
 28 29  1  0  0  0  0
 30 29  1  0  0  0  0
 30 31  1  0  0  0  0
M  END
>  <MODEL>
1

>  <REMARK>
 VINA RESULT:      -7.2      0.000      0.000
  Name = 
  8 active torsions:
  status: ('A' for Active; 'I' for Inactive)
    1  A    between atoms: C_1  and  C_11
    2  A    between atoms: C_3  and  C_9
    3  A    between atoms: C_3  and  O_22
    4  A    between atoms: C_9  and  N_23
    5  A    between atoms: C_11  and  C_24
    6  A    between atoms: C_15  and  N_23
    7  A    between atoms: C_19  and  O_22
    8  A    between atoms: C_19  and  C_24
                            x       y       z     vdW  Elec       q    Type
                         _______ _______ _______ _____ _____    ______ ____

>  <TORSDO>
F 8

$$$$
=
 OpenBabel11052417543D

 31 34  0  0  1  0  0  0  0  0999 V2000
  190.9020  171.9820  142.0040 C   0  0  2  0  0  3  0  0  0  0  0  0
  189.3570  174.9290  144.0130 C   0  0  2  0  0  3  0  0  0  0  0  0
  190.3070  175.2210  145.1630 C   0  0  0  0  0  0  0  0  0  0  0  0
  192.7090  174.7300  145.4830 C   0  0  0  0  0  3  0  0  0  0  0  0
  190.0400  174.2090  142.8260 C   0  0  1  0  0  3  0  0  0  0  0  0
  190.8440  172.6310  140.6130 C   0  0  0  0  0  2  0  0  0  0  0  0
  191.3230  174.1830  145.5320 C   0  0  0  0  0  2  0  0  0  0  0  0
  187.6150  175.8370  142.4850 C   0  0  0  0  0  0  0  0  0  0  0  0
  190.4820  170.5280  141.9170 C   0  0  0  0  0  1  0  0  0  0  0  0
  188.9780  177.1220  145.7430 O   0  0  0  0  0  0  0  0  0  0  0  0
  193.1190  175.7020  146.2930 C   0  0  0  0  0  3  0  0  0  0  0  0
  188.0200  175.0350  141.4960 C   0  0  0  0  0  3  0  0  0  0  0  0
  188.6080  176.1900  143.5610 C   0  0  1  0  0  3  0  0  0  0  0  0
  190.0460  172.6970  143.0560 C   0  0  0  0  0  2  0  0  0  0  0  0
  192.2550  176.4040  147.2590 C   0  0  0  0  0  3  0  0  0  0  0  0
  189.4440  174.5590  141.4280 C   0  0  2  0  0  3  0  0  0  0  0  0
  189.5560  173.4230  140.4060 C   0  0  0  0  0  2  0  0  0  0  0  0
  187.9660  176.8270  144.7840 C   0  0  0  0  0  2  0  0  0  0  0  0
  190.0790  176.2830  145.9740 C   0  0  0  0  0  0  0  0  0  0  0  0
  190.9450  176.6420  147.1200 C   0  0  0  0  0  3  0  0  0  0  0  0
  186.2560  176.3010  142.5680 N   0  0  0  0  0  2  0  0  0  0  0  0
  185.9720  177.7730  140.3370 S   0  0  0  0  0  0  0  0  0  0  0  0
  185.6740  177.4400  141.9140 C   0  0  0  0  0  0  0  0  0  0  0  0
  185.0880  178.5150  142.7590 C   0  0  0  0  0  2  0  0  0  0  0  0
  184.5010  177.9520  143.8950 O   0  0  0  0  0  0  0  0  0  0  0  0
  185.4730  180.0230  144.6090 C   0  0  0  0  0  1  0  0  0  0  0  0
  184.3430  179.0200  144.7850 C   0  0  2  0  0  3  0  0  0  0  0  0
  184.2500  178.5200  146.2300 C   0  0  0  0  0  2  0  0  0  0  0  0
  184.9190  177.1620  146.4410 C   0  0  0  0  0  2  0  0  0  0  0  0
  185.8650  177.1810  147.6330 C   0  0  0  0  0  2  0  0  0  0  0  0
  186.4070  178.5800  147.8600 C   0  0  0  0  0  1  0  0  0  0  0  0
  1  9  1  6  0  0  0
  1 14  1  0  0  0  0
  2  3  1  1  0  0  0
  3  7  1  0  0  0  0
  3 19  2  0  0  0  0
  4  7  1  0  0  0  0
  4 11  2  0  0  0  0
  5 14  1  1  0  0  0
  5  2  1  0  0  0  0
  6  1  1  0  0  0  0
  8 21  1  0  0  0  0
  8 13  1  0  0  0  0
 10 19  1  0  0  0  0
 11 15  1  0  0  0  0
 12  8  2  0  0  0  0
 13  2  1  0  0  0  0
 13 18  1  1  0  0  0
 16 17  1  6  0  0  0
 16 12  1  0  0  0  0
 16  5  1  0  0  0  0
 17  6  1  0  0  0  0
 18 10  1  0  0  0  0
 19 20  1  0  0  0  0
 20 15  2  0  0  0  0
 22 23  2  0  0  0  0
 23 21  1  0  0  0  0
 23 24  1  0  0  0  0
 24 25  1  0  0  0  0
 25 27  1  0  0  0  0
 27 26  1  1  0  0  0
 27 28  1  0  0  0  0
 28 29  1  0  0  0  0
 29 30  1  0  0  0  0
 30 31  1  0  0  0  0
M  END
>  <MODEL>
2

>  <REMARK>
 VINA RESULT:      -6.9      2.038      6.219
  Name = 
  8 active torsions:
  status: ('A' for Active; 'I' for Inactive)
    1  A    between atoms: C_1  and  C_11
    2  A    between atoms: C_3  and  C_9
    3  A    between atoms: C_3  and  O_22
    4  A    between atoms: C_9  and  N_23
    5  A    between atoms: C_11  and  C_24
    6  A    between atoms: C_15  and  N_23
    7  A    between atoms: C_19  and  O_22
    8  A    between atoms: C_19  and  C_24
                            x       y       z     vdW  Elec       q    Type
                         _______ _______ _______ _____ _____    ______ ____

>  <TORSDO>
F 8

$$$$
=
 OpenBabel11052417543D

 31 34  0  0  1  0  0  0  0  0999 V2000
  192.2400  175.8560  146.5650 C   0  0  2  0  0  3  0  0  0  0  0  0
  190.2990  175.2120  143.2590 C   0  0  2  0  0  3  0  0  0  0  0  0
  190.7020  173.8290  142.7760 C   0  0  0  0  0  0  0  0  0  0  0  0
  191.6500  171.8790  143.9650 C   0  0  0  0  0  3  0  0  0  0  0  0
  190.5100  175.4140  144.7790 C   0  0  1  0  0  3  0  0  0  0  0  0
  191.0390  176.2630  147.4300 C   0  0  0  0  0  2  0  0  0  0  0  0
  191.9390  173.2050  143.3470 C   0  0  0  0  0  2  0  0  0  0  0  0
  188.5470  176.9800  143.2490 C   0  0  0  0  0  0  0  0  0  0  0  0
  193.4180  176.7680  146.8480 C   0  0  0  0  0  1  0  0  0  0  0  0
  189.0780  173.9950  141.0290 O   0  0  0  0  0  0  0  0  0  0  0  0
  191.2180  170.8420  143.2540 C   0  0  0  0  0  3  0  0  0  0  0  0
  188.8760  177.3570  144.4870 C   0  0  0  0  0  3  0  0  0  0  0  0
  188.8690  175.5700  142.8290 C   0  0  1  0  0  3  0  0  0  0  0  0
  191.9460  175.8570  145.0590 C   0  0  0  0  0  2  0  0  0  0  0  0
  190.8950  170.8920  141.8160 C   0  0  0  0  0  3  0  0  0  0  0  0
  189.4860  176.3780  145.4510 C   0  0  2  0  0  3  0  0  0  0  0  0
  190.0490  177.1320  146.6600 C   0  0  0  0  0  2  0  0  0  0  0  0
  188.7540  175.3490  141.3290 C   0  0  0  0  0  2  0  0  0  0  0  0
  190.0920  173.2870  141.6940 C   0  0  0  0  0  0  0  0  0  0  0  0
  190.4200  171.9500  141.1480 C   0  0  0  0  0  3  0  0  0  0  0  0
  187.9640  177.9030  142.3120 N   0  0  0  0  0  2  0  0  0  0  0  0
  186.0680  177.7120  140.4170 S   0  0  0  0  0  0  0  0  0  0  0  0
  186.5820  178.0250  141.9420 C   0  0  0  0  0  0  0  0  0  0  0  0
  185.6730  178.7790  142.8460 C   0  0  0  0  0  2  0  0  0  0  0  0
  184.9440  177.8830  143.6330 O   0  0  0  0  0  0  0  0  0  0  0  0
  185.1360  179.9960  144.7470 C   0  0  0  0  0  1  0  0  0  0  0  0
  184.4110  178.6620  144.6650 C   0  0  2  0  0  3  0  0  0  0  0  0
  184.4580  177.9100  145.9990 C   0  0  0  0  0  2  0  0  0  0  0  0
  185.5710  176.8650  146.0620 C   0  0  0  0  0  2  0  0  0  0  0  0
  186.3420  176.9440  147.3710 C   0  0  0  0  0  2  0  0  0  0  0  0
  186.5310  178.3900  147.7910 C   0  0  0  0  0  1  0  0  0  0  0  0
  1  9  1  6  0  0  0
  1  6  1  0  0  0  0
  2  3  1  1  0  0  0
  2  5  1  0  0  0  0
  3  7  1  0  0  0  0
  5 14  1  6  0  0  0
  5 16  1  0  0  0  0
  7  4  1  0  0  0  0
  8 12  2  0  0  0  0
 10 18  1  0  0  0  0
 10 19  1  0  0  0  0
 11  4  2  0  0  0  0
 13 18  1  6  0  0  0
 13  8  1  0  0  0  0
 13  2  1  0  0  0  0
 14  1  1  0  0  0  0
 15 11  1  0  0  0  0
 16 12  1  6  0  0  0
 16 17  1  0  0  0  0
 17  6  1  0  0  0  0
 19  3  2  0  0  0  0
 20 19  1  0  0  0  0
 20 15  2  0  0  0  0
 21  8  1  0  0  0  0
 22 23  2  0  0  0  0
 23 21  1  0  0  0  0
 23 24  1  0  0  0  0
 24 25  1  0  0  0  0
 25 27  1  0  0  0  0
 27 26  1  1  0  0  0
 27 28  1  0  0  0  0
 28 29  1  0  0  0  0
 29 30  1  0  0  0  0
 30 31  1  0  0  0  0
M  END
>  <MODEL>
3

>  <REMARK>
 VINA RESULT:      -6.8      1.627      6.362
  Name = 
  8 active torsions:
  status: ('A' for Active; 'I' for Inactive)
    1  A    between atoms: C_1  and  C_11
    2  A    between atoms: C_3  and  C_9
    3  A    between atoms: C_3  and  O_22
    4  A    between atoms: C_9  and  N_23
    5  A    between atoms: C_11  and  C_24
    6  A    between atoms: C_15  and  N_23
    7  A    between atoms: C_19  and  O_22
    8  A    between atoms: C_19  and  C_24
                            x       y       z     vdW  Elec       q    Type
                         _______ _______ _______ _____ _____    ______ ____

>  <TORSDO>
F 8

$$$$
=
 OpenBabel11052417543D

 31 34  0  0  1  0  0  0  0  0999 V2000
  186.5510  176.5950  142.4760 C   0  0  2  0  0  3  0  0  0  0  0  0
  190.0560  174.9140  142.4630 C   0  0  2  0  0  3  0  0  0  0  0  0
  189.9350  173.6550  141.6210 C   0  0  0  0  0  0  0  0  0  0  0  0
  188.3230  172.9920  139.8660 C   0  0  0  0  0  3  0  0  0  0  0  0
  188.9750  175.9720  142.1360 C   0  0  1  0  0  3  0  0  0  0  0  0
  186.9970  178.0000  142.0490 C   0  0  0  0  0  2  0  0  0  0  0  0
  188.5670  173.1160  141.3320 C   0  0  0  0  0  2  0  0  0  0  0  0
  191.5690  176.6950  143.3190 C   0  0  0  0  0  0  0  0  0  0  0  0
  185.5140  176.6910  143.5770 C   0  0  0  0  0  1  0  0  0  0  0  0
  192.2950  173.3250  141.8220 O   0  0  0  0  0  0  0  0  0  0  0  0
  189.0250  172.1670  139.0960 C   0  0  0  0  0  3  0  0  0  0  0  0
  190.5790  177.5920  143.2920 C   0  0  0  0  0  3  0  0  0  0  0  0
  191.4710  175.5050  142.4010 C   0  0  1  0  0  3  0  0  0  0  0  0
  187.7030  175.6930  142.9380 C   0  0  0  0  0  2  0  0  0  0  0  0
  190.1610  171.3520  139.5630 C   0  0  0  0  0  3  0  0  0  0  0  0
  189.4400  177.4490  142.3220 C   0  0  2  0  0  3  0  0  0  0  0  0
  188.3100  178.4080  142.7120 C   0  0  0  0  0  2  0  0  0  0  0  0
  192.4630  174.4040  142.7380 C   0  0  0  0  0  2  0  0  0  0  0  0
  191.0390  172.9180  141.3450 C   0  0  0  0  0  0  0  0  0  0  0  0
  191.0190  171.6760  140.5390 C   0  0  0  0  0  3  0  0  0  0  0  0
  192.6660  176.8140  144.2410 N   0  0  0  0  0  2  0  0  0  0  0  0
  194.0500  176.5590  146.5310 S   0  0  0  0  0  0  0  0  0  0  0  0
  192.6690  176.5250  145.6470 C   0  0  0  0  0  0  0  0  0  0  0  0
  191.4810  175.8460  146.2300 C   0  0  0  0  0  2  0  0  0  0  0  0
  190.6150  176.7990  146.7730 O   0  0  0  0  0  0  0  0  0  0  0  0
  189.4240  174.8390  146.0770 C   0  0  0  0  0  1  0  0  0  0  0  0
  189.3660  176.1710  146.8100 C   0  0  2  0  0  3  0  0  0  0  0  0
  188.2760  177.0830  146.2390 C   0  0  0  0  0  2  0  0  0  0  0  0
  186.9300  176.9280  146.9460 C   0  0  0  0  0  2  0  0  0  0  0  0
  186.3110  178.2780  147.2790 C   0  0  0  0  0  2  0  0  0  0  0  0
  184.8280  178.2770  146.9550 C   0  0  0  0  0  1  0  0  0  0  0  0
  1 14  1  0  0  0  0
  1  9  1  1  0  0  0
  2  3  1  6  0  0  0
  4  7  1  0  0  0  0
  5 16  1  0  0  0  0
  5  2  1  0  0  0  0
  5 14  1  1  0  0  0
  6  1  1  0  0  0  0
  6 17  1  0  0  0  0
  7  3  1  0  0  0  0
  8 21  1  0  0  0  0
 10 18  1  0  0  0  0
 11 15  1  0  0  0  0
 11  4  2  0  0  0  0
 12  8  2  0  0  0  0
 13  2  1  0  0  0  0
 13 18  1  1  0  0  0
 13  8  1  0  0  0  0
 15 20  2  0  0  0  0
 16 17  1  1  0  0  0
 16 12  1  0  0  0  0
 19  3  2  0  0  0  0
 19 10  1  0  0  0  0
 20 19  1  0  0  0  0
 21 23  1  0  0  0  0
 23 24  1  0  0  0  0
 23 22  2  0  0  0  0
 24 25  1  0  0  0  0
 25 27  1  0  0  0  0
 27 26  1  6  0  0  0
 28 27  1  0  0  0  0
 28 29  1  0  0  0  0
 29 30  1  0  0  0  0
 31 30  1  0  0  0  0
M  END
>  <MODEL>
4

>  <REMARK>
 VINA RESULT:      -6.6      2.732      7.043
  Name = 
  8 active torsions:
  status: ('A' for Active; 'I' for Inactive)
    1  A    between atoms: C_1  and  C_11
    2  A    between atoms: C_3  and  C_9
    3  A    between atoms: C_3  and  O_22
    4  A    between atoms: C_9  and  N_23
    5  A    between atoms: C_11  and  C_24
    6  A    between atoms: C_15  and  N_23
    7  A    between atoms: C_19  and  O_22
    8  A    between atoms: C_19  and  C_24
                            x       y       z     vdW  Elec       q    Type
                         _______ _______ _______ _____ _____    ______ ____

>  <TORSDO>
F 8

$$$$
=
 OpenBabel11052417543D

 31 34  0  0  1  0  0  0  0  0999 V2000
  190.8150  176.5130  147.1050 C   0  0  2  0  0  3  0  0  0  0  0  0
  191.8510  175.1160  143.6290 C   0  0  2  0  0  3  0  0  0  0  0  0
  193.3350  175.4000  143.4660 C   0  0  0  0  0  0  0  0  0  0  0  0
  195.1200  175.8400  145.1200 C   0  0  0  0  0  3  0  0  0  0  0  0
  191.3950  175.0810  145.1070 C   0  0  1  0  0  3  0  0  0  0  0  0
  190.1290  175.2470  147.6370 C   0  0  0  0  0  2  0  0  0  0  0  0
  193.9700  176.4170  144.3650 C   0  0  0  0  0  2  0  0  0  0  0  0
  189.9390  173.6580  142.9830 C   0  0  0  0  0  0  0  0  0  0  0  0
  189.9970  177.7380  147.4650 C   0  0  0  0  0  1  0  0  0  0  0  0
  193.3250  174.1500  141.4280 O   0  0  0  0  0  0  0  0  0  0  0  0
  196.2190  175.4000  144.5150 C   0  0  0  0  0  3  0  0  0  0  0  0
  189.3760  173.8130  144.1850 C   0  0  0  0  0  3  0  0  0  0  0  0
  191.4290  173.8490  142.8710 C   0  0  1  0  0  3  0  0  0  0  0  0
  191.0620  176.4930  145.5910 C   0  0  0  0  0  2  0  0  0  0  0  0
  196.4030  175.3470  143.0530 C   0  0  0  0  0  3  0  0  0  0  0  0
  190.2180  174.0990  145.3970 C   0  0  2  0  0  3  0  0  0  0  0  0
  189.3170  174.5400  146.5550 C   0  0  0  0  0  2  0  0  0  0  0  0
  191.9110  173.9710  141.4340 C   0  0  0  0  0  2  0  0  0  0  0  0
  194.0000  174.9210  142.3870 C   0  0  0  0  0  0  0  0  0  0  0  0
  195.4430  175.1510  142.1420 C   0  0  0  0  0  3  0  0  0  0  0  0
  189.1500  173.3850  141.8130 N   0  0  0  0  0  2  0  0  0  0  0  0
  188.5650  174.0940  139.2870 S   0  0  0  0  0  0  0  0  0  0  0  0
  188.5590  174.3320  140.9090 C   0  0  0  0  0  0  0  0  0  0  0  0
  188.2590  175.6980  141.4160 C   0  0  0  0  0  2  0  0  0  0  0  0
  187.1040  175.6640  142.2020 O   0  0  0  0  0  0  0  0  0  0  0  0
  188.5150  177.3520  143.1520 C   0  0  0  0  0  1  0  0  0  0  0  0
  187.0920  176.8890  142.8770 C   0  0  2  0  0  3  0  0  0  0  0  0
  186.2690  176.7970  144.1650 C   0  0  0  0  0  2  0  0  0  0  0  0
  187.0140  177.3130  145.3950 C   0  0  0  0  0  2  0  0  0  0  0  0
  186.3990  176.7910  146.6850 C   0  0  0  0  0  2  0  0  0  0  0  0
  186.2120  177.9210  147.6800 C   0  0  0  0  0  1  0  0  0  0  0  0
  1  9  1  6  0  0  0
  1  6  1  0  0  0  0
  2  3  1  1  0  0  0
  2  5  1  0  0  0  0
  3  7  1  0  0  0  0
  5 16  1  0  0  0  0
  5 14  1  6  0  0  0
  7  4  1  0  0  0  0
  8 12  2  0  0  0  0
 10 18  1  0  0  0  0
 10 19  1  0  0  0  0
 11  4  2  0  0  0  0
 13 18  1  6  0  0  0
 13  8  1  0  0  0  0
 13  2  1  0  0  0  0
 14  1  1  0  0  0  0
 15 11  1  0  0  0  0
 16 12  1  6  0  0  0
 16 17  1  0  0  0  0
 17  6  1  0  0  0  0
 19  3  2  0  0  0  0
 20 19  1  0  0  0  0
 20 15  2  0  0  0  0
 21  8  1  0  0  0  0
 22 23  2  0  0  0  0
 23 24  1  0  0  0  0
 23 21  1  0  0  0  0
 24 25  1  0  0  0  0
 25 27  1  0  0  0  0
 27 26  1  1  0  0  0
 27 28  1  0  0  0  0
 28 29  1  0  0  0  0
 29 30  1  0  0  0  0
 30 31  1  0  0  0  0
M  END
>  <MODEL>
5

>  <REMARK>
 VINA RESULT:      -6.4      2.354      6.402
  Name = 
  8 active torsions:
  status: ('A' for Active; 'I' for Inactive)
    1  A    between atoms: C_1  and  C_11
    2  A    between atoms: C_3  and  C_9
    3  A    between atoms: C_3  and  O_22
    4  A    between atoms: C_9  and  N_23
    5  A    between atoms: C_11  and  C_24
    6  A    between atoms: C_15  and  N_23
    7  A    between atoms: C_19  and  O_22
    8  A    between atoms: C_19  and  C_24
                            x       y       z     vdW  Elec       q    Type
                         _______ _______ _______ _____ _____    ______ ____

>  <TORSDO>
F 8

$$$$
=
 OpenBabel11052417543D

 31 34  0  0  1  0  0  0  0  0999 V2000
  188.2340  174.0900  141.9640 C   0  0  2  0  0  3  0  0  0  0  0  0
  189.5060  175.8770  145.1730 C   0  0  2  0  0  3  0  0  0  0  0  0
  188.3690  176.7550  145.6670 C   0  0  0  0  0  0  0  0  0  0  0  0
  185.9280  176.6640  145.2790 C   0  0  0  0  0  3  0  0  0  0  0  0
  189.0310  174.7060  144.2800 C   0  0  1  0  0  3  0  0  0  0  0  0
  188.5910  172.6550  142.3750 C   0  0  0  0  0  2  0  0  0  0  0  0
  187.2490  177.0730  144.7220 C   0  0  0  0  0  2  0  0  0  0  0  0
  191.5550  174.6030  145.7860 C   0  0  0  0  0  0  0  0  0  0  0  0
  188.5890  174.3190  140.5080 C   0  0  0  0  0  1  0  0  0  0  0  0
  189.6540  177.2810  147.6130 O   0  0  0  0  0  0  0  0  0  0  0  0
  185.4190  177.2130  146.3770 C   0  0  0  0  0  3  0  0  0  0  0  0
  191.3090  173.6920  144.8400 C   0  0  0  0  0  3  0  0  0  0  0  0
  190.3910  175.3910  146.3290 C   0  0  1  0  0  3  0  0  0  0  0  0
  188.9050  175.1660  142.8270 C   0  0  0  0  0  2  0  0  0  0  0  0
  186.1140  178.2080  147.2130 C   0  0  0  0  0  3  0  0  0  0  0  0
  189.9030  173.4180  144.3850 C   0  0  2  0  0  3  0  0  0  0  0  0
  189.9340  172.5860  143.0990 C   0  0  0  0  0  2  0  0  0  0  0  0
  190.8150  176.6010  147.1460 C   0  0  0  0  0  2  0  0  0  0  0  0
  188.4880  177.4170  146.8430 C   0  0  0  0  0  0  0  0  0  0  0  0
  187.4360  178.2970  147.4020 C   0  0  0  0  0  3  0  0  0  0  0  0
  192.8930  174.8800  146.2330 N   0  0  0  0  0  2  0  0  0  0  0  0
  195.5140  174.5380  145.7480 S   0  0  0  0  0  0  0  0  0  0  0  0
  194.0430  175.1880  145.4300 C   0  0  0  0  0  0  0  0  0  0  0  0
  193.9790  176.3710  144.5300 C   0  0  0  0  0  2  0  0  0  0  0  0
  194.7420  176.1310  143.3840 O   0  0  0  0  0  0  0  0  0  0  0  0
  192.4820  176.6950  142.8200 C   0  0  0  0  0  1  0  0  0  0  0  0
  193.8300  176.1930  142.3260 C   0  0  2  0  0  3  0  0  0  0  0  0
  193.7070  174.8350  141.6280 C   0  0  0  0  0  2  0  0  0  0  0  0
  192.2600  174.4380  141.3360 C   0  0  0  0  0  2  0  0  0  0  0  0
  192.1260  173.7610  139.9800 C   0  0  0  0  0  2  0  0  0  0  0  0
  192.1820  172.2520  140.1300 C   0  0  0  0  0  1  0  0  0  0  0  0
  1  9  1  6  0  0  0
  1  6  1  0  0  0  0
  1 14  1  0  0  0  0
  2  3  1  1  0  0  0
  2 13  1  0  0  0  0
  3 19  2  0  0  0  0
  4 11  2  0  0  0  0
  5 14  1  6  0  0  0
  5 16  1  0  0  0  0
  5  2  1  0  0  0  0
  6 17  1  0  0  0  0
  7  4  1  0  0  0  0
  7  3  1  0  0  0  0
  8 21  1  0  0  0  0
  8 13  1  0  0  0  0
 11 15  1  0  0  0  0
 12  8  2  0  0  0  0
 13 18  1  6  0  0  0
 15 20  2  0  0  0  0
 16 17  1  6  0  0  0
 16 12  1  0  0  0  0
 18 10  1  0  0  0  0
 19 20  1  0  0  0  0
 19 10  1  0  0  0  0
 23 22  2  0  0  0  0
 23 21  1  0  0  0  0
 24 23  1  0  0  0  0
 25 24  1  0  0  0  0
 27 26  1  1  0  0  0
 27 25  1  0  0  0  0
 28 27  1  0  0  0  0
 29 28  1  0  0  0  0
 30 31  1  0  0  0  0
 30 29  1  0  0  0  0
M  END
>  <MODEL>
6

>  <REMARK>
 VINA RESULT:      -6.3      3.211      5.175
  Name = 
  8 active torsions:
  status: ('A' for Active; 'I' for Inactive)
    1  A    between atoms: C_1  and  C_11
    2  A    between atoms: C_3  and  C_9
    3  A    between atoms: C_3  and  O_22
    4  A    between atoms: C_9  and  N_23
    5  A    between atoms: C_11  and  C_24
    6  A    between atoms: C_15  and  N_23
    7  A    between atoms: C_19  and  O_22
    8  A    between atoms: C_19  and  C_24
                            x       y       z     vdW  Elec       q    Type
                         _______ _______ _______ _____ _____    ______ ____

>  <TORSDO>
F 8

$$$$
=
 OpenBabel11052417543D

 31 34  0  0  1  0  0  0  0  0999 V2000
  189.8640  173.9250  141.4300 C   0  0  2  0  0  3  0  0  0  0  0  0
  188.7980  176.2090  144.3890 C   0  0  2  0  0  3  0  0  0  0  0  0
  187.7440  177.1620  143.8500 C   0  0  0  0  0  0  0  0  0  0  0  0
  186.2400  177.0200  141.8920 C   0  0  0  0  0  3  0  0  0  0  0  0
  188.9280  174.9100  143.5590 C   0  0  1  0  0  3  0  0  0  0  0  0
  189.6730  172.5750  142.1360 C   0  0  0  0  0  2  0  0  0  0  0  0
  187.6210  177.3250  142.3660 C   0  0  0  0  0  2  0  0  0  0  0  0
  189.7050  175.0430  146.3930 C   0  0  0  0  0  0  0  0  0  0  0  0
  191.1420  173.9090  140.6150 C   0  0  0  0  0  1  0  0  0  0  0  0
  187.4010  177.9940  146.0650 O   0  0  0  0  0  0  0  0  0  0  0  0
  185.1870  177.7450  142.2570 C   0  0  0  0  0  3  0  0  0  0  0  0
  190.0680  173.9910  145.6540 C   0  0  0  0  0  3  0  0  0  0  0  0
  188.5880  175.9150  145.8810 C   0  0  1  0  0  3  0  0  0  0  0  0
  189.8840  175.1250  142.3860 C   0  0  0  0  0  2  0  0  0  0  0  0
  185.2330  178.8600  143.2190 C   0  0  0  0  0  3  0  0  0  0  0  0
  189.3340  173.6520  144.3870 C   0  0  2  0  0  3  0  0  0  0  0  0
  190.1370  172.6200  143.5890 C   0  0  0  0  0  2  0  0  0  0  0  0
  188.4770  177.2410  146.6170 C   0  0  0  0  0  2  0  0  0  0  0  0
  187.1040  178.0080  144.6930 C   0  0  0  0  0  0  0  0  0  0  0  0
  186.0680  178.9730  144.2600 C   0  0  0  0  0  3  0  0  0  0  0  0
  190.3960  175.3840  147.6070 N   0  0  0  0  0  2  0  0  0  0  0  0
  191.5300  177.4040  148.9700 S   0  0  0  0  0  0  0  0  0  0  0  0
  191.4980  176.2910  147.7670 C   0  0  0  0  0  0  0  0  0  0  0  0
  192.4440  176.4590  146.6310 C   0  0  0  0  0  2  0  0  0  0  0  0
  193.5890  175.6900  146.8540 O   0  0  0  0  0  0  0  0  0  0  0  0
  195.1780  174.5710  145.4510 C   0  0  0  0  0  1  0  0  0  0  0  0
  193.7150  174.8930  145.7110 C   0  0  2  0  0  3  0  0  0  0  0  0
  193.0590  175.5640  144.5000 C   0  0  0  0  0  2  0  0  0  0  0  0
  193.6170  175.0730  143.1650 C   0  0  0  0  0  2  0  0  0  0  0  0
  193.5640  176.1580  142.1000 C   0  0  0  0  0  2  0  0  0  0  0  0
  194.8890  176.2490  141.3670 C   0  0  0  0  0  1  0  0  0  0  0  0
  1  9  1  1  0  0  0
  1  6  1  0  0  0  0
  1 14  1  0  0  0  0
  2  3  1  6  0  0  0
  2 13  1  0  0  0  0
  3 19  2  0  0  0  0
  4 11  2  0  0  0  0
  4  7  1  0  0  0  0
  5 14  1  6  0  0  0
  5 16  1  0  0  0  0
  5  2  1  0  0  0  0
  6 17  1  0  0  0  0
  7  3  1  0  0  0  0
  8 21  1  0  0  0  0
 10 18  1  0  0  0  0
 11 15  1  0  0  0  0
 12  8  2  0  0  0  0
 13  8  1  0  0  0  0
 13 18  1  1  0  0  0
 15 20  2  0  0  0  0
 16 17  1  6  0  0  0
 16 12  1  0  0  0  0
 19 10  1  0  0  0  0
 20 19  1  0  0  0  0
 21 23  1  0  0  0  0
 23 22  2  0  0  0  0
 24 25  1  0  0  0  0
 24 23  1  0  0  0  0
 27 26  1  6  0  0  0
 27 25  1  0  0  0  0
 28 27  1  0  0  0  0
 29 28  1  0  0  0  0
 30 29  1  0  0  0  0
 31 30  1  0  0  0  0
M  END
>  <MODEL>
7

>  <REMARK>
 VINA RESULT:      -6.2      3.325      5.356
  Name = 
  8 active torsions:
  status: ('A' for Active; 'I' for Inactive)
    1  A    between atoms: C_1  and  C_11
    2  A    between atoms: C_3  and  C_9
    3  A    between atoms: C_3  and  O_22
    4  A    between atoms: C_9  and  N_23
    5  A    between atoms: C_11  and  C_24
    6  A    between atoms: C_15  and  N_23
    7  A    between atoms: C_19  and  O_22
    8  A    between atoms: C_19  and  C_24
                            x       y       z     vdW  Elec       q    Type
                         _______ _______ _______ _____ _____    ______ ____

>  <TORSDO>
F 8

$$$$
=
 OpenBabel11052417543D

 31 34  0  0  1  0  0  0  0  0999 V2000
  190.3180  172.9970  142.0690 C   0  0  2  0  0  3  0  0  0  0  0  0
  190.3960  175.2690  145.2230 C   0  0  2  0  0  3  0  0  0  0  0  0
  191.8590  175.4720  145.5800 C   0  0  0  0  0  0  0  0  0  0  0  0
  193.9270  175.2750  144.2400 C   0  0  0  0  0  3  0  0  0  0  0  0
  190.1780  174.8870  143.7390 C   0  0  1  0  0  3  0  0  0  0  0  0
  189.4060  173.8790  141.2050 C   0  0  0  0  0  2  0  0  0  0  0  0
  192.8740  174.5380  144.9960 C   0  0  0  0  0  2  0  0  0  0  0  0
  188.0870  176.1910  145.3440 C   0  0  0  0  0  0  0  0  0  0  0  0
  189.9260  171.5400  141.9200 C   0  0  0  0  0  1  0  0  0  0  0  0
  191.2010  177.0250  147.2760 O   0  0  0  0  0  0  0  0  0  0  0  0
  194.7610  176.1260  144.8290 C   0  0  0  0  0  3  0  0  0  0  0  0
  187.7770  175.6530  144.1610 C   0  0  0  0  0  3  0  0  0  0  0  0
  189.5380  176.4740  145.6340 C   0  0  1  0  0  3  0  0  0  0  0  0
  190.3160  173.3760  143.5560 C   0  0  0  0  0  2  0  0  0  0  0  0
  194.6990  176.5070  146.2520 C   0  0  0  0  0  3  0  0  0  0  0  0
  188.8400  175.4040  143.1280 C   0  0  2  0  0  3  0  0  0  0  0  0
  188.2780  174.5060  142.0210 C   0  0  0  0  0  2  0  0  0  0  0  0
  189.8100  176.7740  147.0990 C   0  0  0  0  0  2  0  0  0  0  0  0
  192.1980  176.3220  146.5810 C   0  0  0  0  0  0  0  0  0  0  0  0
  193.5930  176.5800  147.0030 C   0  0  0  0  0  3  0  0  0  0  0  0
  187.0840  176.4350  146.3450 N   0  0  0  0  0  2  0  0  0  0  0  0
  186.4830  178.6870  147.6830 S   0  0  0  0  0  0  0  0  0  0  0  0
  186.2450  177.5920  146.4870 C   0  0  0  0  0  0  0  0  0  0  0  0
  184.9430  177.6100  145.7680 C   0  0  0  0  0  2  0  0  0  0  0  0
  185.1660  177.5550  144.3890 O   0  0  0  0  0  0  0  0  0  0  0  0
  184.7510  179.9010  144.1330 C   0  0  0  0  0  1  0  0  0  0  0  0
  185.7720  178.7760  144.0740 C   0  0  2  0  0  3  0  0  0  0  0  0
  186.4610  178.7080  142.7080 C   0  0  0  0  0  2  0  0  0  0  0  0
  185.8610  177.6500  141.7830 C   0  0  0  0  0  2  0  0  0  0  0  0
  185.0890  178.2810  140.6330 C   0  0  0  0  0  2  0  0  0  0  0  0
  183.5970  178.2360  140.9070 C   0  0  0  0  0  1  0  0  0  0  0  0
  1  9  1  1  0  0  0
  1 14  1  0  0  0  0
  2  3  1  6  0  0  0
  2 13  1  0  0  0  0
  3 19  2  0  0  0  0
  4 11  2  0  0  0  0
  4  7  1  0  0  0  0
  5 14  1  1  0  0  0
  5  2  1  0  0  0  0
  6 17  1  0  0  0  0
  6  1  1  0  0  0  0
  7  3  1  0  0  0  0
  8 13  1  0  0  0  0
  8 21  1  0  0  0  0
 11 15  1  0  0  0  0
 12  8  2  0  0  0  0
 13 18  1  1  0  0  0
 15 20  2  0  0  0  0
 16 17  1  6  0  0  0
 16  5  1  0  0  0  0
 16 12  1  0  0  0  0
 18 10  1  0  0  0  0
 19 20  1  0  0  0  0
 19 10  1  0  0  0  0
 21 23  1  0  0  0  0
 23 22  2  0  0  0  0
 24 23  1  0  0  0  0
 25 24  1  0  0  0  0
 27 26  1  6  0  0  0
 27 25  1  0  0  0  0
 28 27  1  0  0  0  0
 29 28  1  0  0  0  0
 30 31  1  0  0  0  0
 30 29  1  0  0  0  0
M  END
>  <MODEL>
8

>  <REMARK>
 VINA RESULT:      -6.2      2.979      7.113
  Name = 
  8 active torsions:
  status: ('A' for Active; 'I' for Inactive)
    1  A    between atoms: C_1  and  C_11
    2  A    between atoms: C_3  and  C_9
    3  A    between atoms: C_3  and  O_22
    4  A    between atoms: C_9  and  N_23
    5  A    between atoms: C_11  and  C_24
    6  A    between atoms: C_15  and  N_23
    7  A    between atoms: C_19  and  O_22
    8  A    between atoms: C_19  and  C_24
                            x       y       z     vdW  Elec       q    Type
                         _______ _______ _______ _____ _____    ______ ____

>  <TORSDO>
F 8

$$$$
=
 OpenBabel11052417543D

 31 34  0  0  1  0  0  0  0  0999 V2000
  188.1350  174.1120  141.2330 C   0  0  2  0  0  3  0  0  0  0  0  0
  189.4770  175.2560  144.6970 C   0  0  2  0  0  3  0  0  0  0  0  0
  188.4240  176.1740  145.2940 C   0  0  0  0  0  0  0  0  0  0  0  0
  186.0030  176.4160  144.8490 C   0  0  0  0  0  3  0  0  0  0  0  0
  188.9100  174.2890  143.6310 C   0  0  1  0  0  3  0  0  0  0  0  0
  188.3210  172.6010  141.4320 C   0  0  0  0  0  2  0  0  0  0  0  0
  187.3810  176.7510  144.3860 C   0  0  0  0  0  2  0  0  0  0  0  0
  191.3520  173.6840  145.1540 C   0  0  0  0  0  0  0  0  0  0  0  0
  188.5660  174.5090  139.8350 C   0  0  0  0  0  1  0  0  0  0  0  0
  189.6870  176.2620  147.3230 O   0  0  0  0  0  0  0  0  0  0  0  0
  185.5170  176.8520  146.0070 C   0  0  0  0  0  3  0  0  0  0  0  0
  191.0440  172.9550  144.0780 C   0  0  0  0  0  3  0  0  0  0  0  0
  190.2620  174.5090  145.7850 C   0  0  1  0  0  3  0  0  0  0  0  0
  188.8870  174.9670  142.2610 C   0  0  0  0  0  2  0  0  0  0  0  0
  186.2850  177.6290  146.9960 C   0  0  0  0  0  3  0  0  0  0  0  0
  189.6340  172.9100  143.5590 C   0  0  2  0  0  3  0  0  0  0  0  0
  189.6210  172.2770  142.1640 C   0  0  0  0  0  2  0  0  0  0  0  0
  190.7850  175.5320  146.7820 C   0  0  0  0  0  2  0  0  0  0  0  0
  188.5710  176.6390  146.5580 C   0  0  0  0  0  0  0  0  0  0  0  0
  187.6020  177.5410  147.2220 C   0  0  0  0  0  3  0  0  0  0  0  0
  192.6960  173.7410  145.6640 N   0  0  0  0  0  2  0  0  0  0  0  0
  194.4390  171.7140  145.3880 S   0  0  0  0  0  0  0  0  0  0  0  0
  193.8900  173.2230  145.0570 C   0  0  0  0  0  0  0  0  0  0  0  0
  194.8220  174.1800  144.4050 C   0  0  0  0  0  2  0  0  0  0  0  0
  194.2580  174.6510  143.2160 O   0  0  0  0  0  0  0  0  0  0  0  0
  195.7220  176.4060  143.9360 C   0  0  0  0  0  1  0  0  0  0  0  0
  194.4020  176.0410  143.2750 C   0  0  2  0  0  3  0  0  0  0  0  0
  193.2130  176.6850  143.9920 C   0  0  0  0  0  2  0  0  0  0  0  0
  192.0160  176.9290  143.0740 C   0  0  0  0  0  2  0  0  0  0  0  0
  191.2080  178.1410  143.5130 C   0  0  0  0  0  2  0  0  0  0  0  0
  189.9650  178.2910  142.6550 C   0  0  0  0  0  1  0  0  0  0  0  0
  1  9  1  6  0  0  0
  1  6  1  0  0  0  0
  1 14  1  0  0  0  0
  2  3  1  1  0  0  0
  2 13  1  0  0  0  0
  3 19  2  0  0  0  0
  4 11  2  0  0  0  0
  5 14  1  6  0  0  0
  5  2  1  0  0  0  0
  6 17  1  0  0  0  0
  7  4  1  0  0  0  0
  7  3  1  0  0  0  0
  8 21  1  0  0  0  0
  8 13  1  0  0  0  0
 11 15  1  0  0  0  0
 12  8  2  0  0  0  0
 13 18  1  1  0  0  0
 15 20  2  0  0  0  0
 16 17  1  6  0  0  0
 16  5  1  0  0  0  0
 16 12  1  0  0  0  0
 18 10  1  0  0  0  0
 19 20  1  0  0  0  0
 19 10  1  0  0  0  0
 23 22  2  0  0  0  0
 23 21  1  0  0  0  0
 24 23  1  0  0  0  0
 25 27  1  0  0  0  0
 25 24  1  0  0  0  0
 27 26  1  1  0  0  0
 27 28  1  0  0  0  0
 29 30  1  0  0  0  0
 29 28  1  0  0  0  0
 31 30  1  0  0  0  0
M  END
>  <MODEL>
9

>  <REMARK>
 VINA RESULT:      -6.1      2.898      5.439
  Name = 
  8 active torsions:
  status: ('A' for Active; 'I' for Inactive)
    1  A    between atoms: C_1  and  C_11
    2  A    between atoms: C_3  and  C_9
    3  A    between atoms: C_3  and  O_22
    4  A    between atoms: C_9  and  N_23
    5  A    between atoms: C_11  and  C_24
    6  A    between atoms: C_15  and  N_23
    7  A    between atoms: C_19  and  O_22
    8  A    between atoms: C_19  and  C_24
                            x       y       z     vdW  Elec       q    Type
                         _______ _______ _______ _____ _____    ______ ____

>  <TORSDO>
F 8

$$$$
