=
 OpenBabel11052420383D

 34 34  0  0  1  0  0  0  0  0999 V2000
  190.6160  176.9010  144.8500 C   0  0  1  0  0  3  0  0  0  0  0  0
  190.1470  178.1990  144.6200 O   0  0  0  0  0  1  0  0  0  0  0  0
  189.2400  175.1960  145.8710 O   0  0  0  0  0  1  0  0  0  0  0  0
  189.9980  176.3320  146.1660 C   0  0  2  0  0  0  0  0  0  0  0  0
  189.0750  177.3780  146.8090 C   0  0  0  0  0  2  0  0  0  0  0  0
  186.8620  177.9510  147.4920 O   0  0  0  0  0  1  0  0  0  0  0  0
  187.5960  177.0150  146.7630 C   0  0  0  0  0  2  0  0  0  0  0  0
  191.0580  175.9060  147.2000 C   0  0  0  0  0  2  0  0  0  0  0  0
  194.8830  174.7160  145.5990 C   0  0  0  0  0  0  0  0  0  0  0  0
  193.8070  173.8270  145.5500 C   0  0  0  0  0  3  0  0  0  0  0  0
  192.5690  174.1960  146.0770 C   0  0  0  0  0  3  0  0  0  0  0  0
  193.4650  176.3450  146.7090 C   0  0  0  0  0  3  0  0  0  0  0  0
  192.3970  175.4450  146.6890 C   0  0  0  0  0  0  0  0  0  0  0  0
  194.7040  175.9840  146.1730 C   0  0  0  0  0  3  0  0  0  0  0  0
  196.1160  174.3180  145.0730 O   0  0  0  0  0  0  0  0  0  0  0  0
  196.9880  172.2110  145.7930 C   0  0  0  0  0  1  0  0  0  0  0  0
  196.3750  172.9850  144.6540 C   0  0  0  0  0  2  0  0  0  0  0  0
  190.5160  176.0630  143.5420 C   0  0  2  0  0  0  0  0  0  0  0  0
  190.0260  174.7890  143.8490 O   0  0  0  0  0  1  0  0  0  0  0  0
  192.0750  174.8820  141.8940 N   0  0  0  0  0  1  0  0  0  0  0  0
  191.8650  175.8860  142.8850 C   0  0  0  0  0  0  0  0  0  0  0  0
  192.8160  176.6510  143.1940 O   0  0  0  0  0  0  0  0  0  0  0  0
  189.5390  176.7370  142.5660 C   0  0  0  0  0  2  0  0  0  0  0  0
  188.2270  175.9870  142.2740 C   0  0  1  0  0  3  0  0  0  0  0  0
  187.0140  176.7360  142.8450 C   0  0  2  0  0  3  0  0  0  0  0  0
  185.9460  175.8680  143.0040 F   0  0  0  0  0  0  0  0  0  0  0  0
  186.5640  177.9010  141.9610 C   0  0  1  0  0  3  0  0  0  0  0  0
  185.2300  177.6740  141.4250 N   0  0  0  0  0  2  0  0  0  0  0  0
  185.3350  177.7010  140.0750 O   0  0  0  0  0  1  0  0  0  0  0  0
  186.5950  179.1050  142.6700 O   0  0  0  0  0  0  0  0  0  0  0  0
  185.5810  179.6570  144.7340 C   0  0  0  0  0  1  0  0  0  0  0  0
  185.3690  179.1590  143.3320 C   0  0  0  0  0  2  0  0  0  0  0  0
  188.0680  175.7580  140.9040 O   0  0  0  0  0  0  0  0  0  0  0  0
  188.5250  174.4560  140.6930 C   0  0  0  0  0  1  0  0  0  0  0  0
  1  2  1  6  0  0  0
  1  4  1  0  0  0  0
  4  3  1  6  0  0  0
  4  5  1  0  0  0  0
  4  8  1  0  0  0  0
  7  5  1  0  0  0  0
  7  6  1  0  0  0  0
  9 14  1  0  0  0  0
 10  9  2  0  0  0  0
 10 11  1  0  0  0  0
 11 13  2  0  0  0  0
 13 12  1  0  0  0  0
 13  8  1  0  0  0  0
 14 12  2  0  0  0  0
 15  9  1  0  0  0  0
 17 15  1  0  0  0  0
 17 16  1  0  0  0  0
 18 19  1  1  0  0  0
 18  1  1  0  0  0  0
 20 21  1  0  0  0  0
 21 22  2  0  0  0  0
 21 18  1  0  0  0  0
 23 18  1  0  0  0  0
 24 23  1  6  0  0  0
 24 25  1  0  0  0  0
 25 26  1  6  0  0  0
 27 28  1  1  0  0  0
 27 30  1  0  0  0  0
 27 25  1  0  0  0  0
 29 28  1  0  0  0  0
 30 32  1  0  0  0  0
 32 31  1  0  0  0  0
 33 24  1  0  0  0  0
 34 33  1  0  0  0  0
M  END
>  <MODEL>
1

>  <REMARK>
 VINA RESULT:      -5.8      0.000      0.000
  Name = 
  17 active torsions:
  status: ('A' for Active; 'I' for Inactive)
    1  A    between atoms: C_1  and  C_18
    2  A    between atoms: C_1  and  C_20
    3  A    between atoms: C_2  and  C_25
    4  A    between atoms: C_2  and  C_32
    5  A    between atoms: O_3  and  C_24
    6  A    between atoms: O_3  and  C_25
    7  A    between atoms: C_5  and  C_20
    8  A    between atoms: C_5  and  C_32
    9  A    between atoms: C_6  and  C_18
   10  A    between atoms: C_6  and  C_28
   11  A    between atoms: C_7  and  O_11
   12  A    between atoms: O_11  and  C_21
   13  A    between atoms: C_12  and  C_20
   14  A    between atoms: C_18  and  C_30
   15  A    between atoms: O_19  and  C_32
   16  A    between atoms: C_25  and  N_27
   17  A    between atoms: C_30  and  C_31
                            x       y       z     vdW  Elec       q    Type
                         _______ _______ _______ _____ _____    ______ ____

>  <TORSDO>
F 17

$$$$
=
 OpenBabel11052420383D

 34 34  0  0  1  0  0  0  0  0999 V2000
  190.6440  177.0480  145.3440 C   0  0  1  0  0  3  0  0  0  0  0  0
  189.7400  177.7570  146.1440 O   0  0  0  0  0  1  0  0  0  0  0  0
  191.5450  174.8060  145.3880 O   0  0  0  0  0  1  0  0  0  0  0  0
  191.3460  175.9360  146.1850 C   0  0  2  0  0  0  0  0  0  0  0  0
  190.4620  175.5410  147.3770 C   0  0  0  0  0  2  0  0  0  0  0  0
  188.4920  174.3910  148.0760 O   0  0  0  0  0  1  0  0  0  0  0  0
  189.4520  174.4430  147.0660 C   0  0  0  0  0  2  0  0  0  0  0  0
  192.7300  176.3590  146.7160 C   0  0  0  0  0  2  0  0  0  0  0  0
  196.3080  175.3570  144.5240 C   0  0  0  0  0  0  0  0  0  0  0  0
  195.5420  176.4560  144.1300 C   0  0  0  0  0  3  0  0  0  0  0  0
  194.3760  176.7810  144.8220 C   0  0  0  0  0  3  0  0  0  0  0  0
  194.7250  174.9160  146.3110 C   0  0  0  0  0  3  0  0  0  0  0  0
  193.9410  175.9950  145.8980 C   0  0  0  0  0  0  0  0  0  0  0  0
  195.9000  174.5920  145.6280 C   0  0  0  0  0  3  0  0  0  0  0  0
  197.4670  175.0460  143.8070 O   0  0  0  0  0  0  0  0  0  0  0  0
  196.6520  173.4740  142.2010 C   0  0  0  0  0  1  0  0  0  0  0  0
  197.4500  174.7330  142.4200 C   0  0  0  0  0  2  0  0  0  0  0  0
  189.9690  176.6650  143.9950 C   0  0  2  0  0  0  0  0  0  0  0  0
  189.2560  175.4730  144.1610 O   0  0  0  0  0  1  0  0  0  0  0  0
  190.9870  175.2400  142.1300 N   0  0  0  0  0  1  0  0  0  0  0  0
  190.9880  176.4390  142.9020 C   0  0  0  0  0  0  0  0  0  0  0  0
  191.8390  177.3330  142.6470 O   0  0  0  0  0  0  0  0  0  0  0  0
  188.9830  177.7660  143.5750 C   0  0  0  0  0  2  0  0  0  0  0  0
  187.7810  177.3280  142.7190 C   0  0  1  0  0  3  0  0  0  0  0  0
  186.5010  178.0720  143.1250 C   0  0  2  0  0  3  0  0  0  0  0  0
  186.4520  179.3130  142.5110 F   0  0  0  0  0  0  0  0  0  0  0  0
  186.3860  178.2750  144.6380 C   0  0  1  0  0  3  0  0  0  0  0  0
  185.8180  179.5770  144.9550 N   0  0  0  0  0  2  0  0  0  0  0  0
  184.4980  179.3880  145.1860 O   0  0  0  0  0  1  0  0  0  0  0  0
  185.6160  177.2630  145.2190 O   0  0  0  0  0  0  0  0  0  0  0  0
  186.2120  177.0790  147.5010 C   0  0  0  0  0  1  0  0  0  0  0  0
  186.4850  176.6160  146.0970 C   0  0  0  0  0  2  0  0  0  0  0  0
  188.0420  177.4960  141.3550 O   0  0  0  0  0  0  0  0  0  0  0  0
  187.5560  176.3400  140.7430 C   0  0  0  0  0  1  0  0  0  0  0  0
  1  2  1  1  0  0  0
  1  4  1  0  0  0  0
  4  3  1  6  0  0  0
  4  8  1  0  0  0  0
  4  5  1  0  0  0  0
  7  5  1  0  0  0  0
  7  6  1  0  0  0  0
  9 14  1  0  0  0  0
 10  9  2  0  0  0  0
 10 11  1  0  0  0  0
 11 13  2  0  0  0  0
 13 12  1  0  0  0  0
 13  8  1  0  0  0  0
 14 12  2  0  0  0  0
 15  9  1  0  0  0  0
 16 17  1  0  0  0  0
 17 15  1  0  0  0  0
 18 19  1  1  0  0  0
 18  1  1  0  0  0  0
 20 21  1  0  0  0  0
 21 18  1  0  0  0  0
 22 21  2  0  0  0  0
 23 18  1  0  0  0  0
 24 25  1  0  0  0  0
 24 23  1  1  0  0  0
 25 26  1  6  0  0  0
 25 27  1  0  0  0  0
 27 28  1  6  0  0  0
 27 30  1  0  0  0  0
 28 29  1  0  0  0  0
 30 32  1  0  0  0  0
 32 31  1  0  0  0  0
 33 24  1  0  0  0  0
 34 33  1  0  0  0  0
M  END
>  <MODEL>
2

>  <REMARK>
 VINA RESULT:      -5.5      1.910      2.647
  Name = 
  17 active torsions:
  status: ('A' for Active; 'I' for Inactive)
    1  A    between atoms: C_1  and  C_18
    2  A    between atoms: C_1  and  C_20
    3  A    between atoms: C_2  and  C_25
    4  A    between atoms: C_2  and  C_32
    5  A    between atoms: O_3  and  C_24
    6  A    between atoms: O_3  and  C_25
    7  A    between atoms: C_5  and  C_20
    8  A    between atoms: C_5  and  C_32
    9  A    between atoms: C_6  and  C_18
   10  A    between atoms: C_6  and  C_28
   11  A    between atoms: C_7  and  O_11
   12  A    between atoms: O_11  and  C_21
   13  A    between atoms: C_12  and  C_20
   14  A    between atoms: C_18  and  C_30
   15  A    between atoms: O_19  and  C_32
   16  A    between atoms: C_25  and  N_27
   17  A    between atoms: C_30  and  C_31
                            x       y       z     vdW  Elec       q    Type
                         _______ _______ _______ _____ _____    ______ ____

>  <TORSDO>
F 17

$$$$
=
 OpenBabel11052420383D

 34 34  0  0  1  0  0  0  0  0999 V2000
  190.2030  175.5810  145.2370 C   0  0  1  0  0  3  0  0  0  0  0  0
  189.3850  174.4660  145.0220 O   0  0  0  0  0  1  0  0  0  0  0  0
  190.1190  176.5820  143.0390 O   0  0  0  0  0  1  0  0  0  0  0  0
  190.9790  175.9360  143.9300 C   0  0  2  0  0  0  0  0  0  0  0  0
  191.4980  174.6540  143.2610 C   0  0  0  0  0  2  0  0  0  0  0  0
  190.5490  173.1540  141.6670 O   0  0  0  0  0  1  0  0  0  0  0  0
  191.0130  174.4590  141.8300 C   0  0  0  0  0  2  0  0  0  0  0  0
  192.1700  176.8840  144.1700 C   0  0  0  0  0  2  0  0  0  0  0  0
  195.9410  174.9730  145.0330 C   0  0  0  0  0  0  0  0  0  0  0  0
  195.0350  175.2120  146.0680 C   0  0  0  0  0  3  0  0  0  0  0  0
  193.8190  175.8420  145.8040 C   0  0  0  0  0  3  0  0  0  0  0  0
  194.3960  176.0020  143.4670 C   0  0  0  0  0  3  0  0  0  0  0  0
  193.5040  176.2700  144.5070 C   0  0  0  0  0  0  0  0  0  0  0  0
  195.6110  175.3610  143.7250 C   0  0  0  0  0  3  0  0  0  0  0  0
  197.1570  174.3490  145.3260 O   0  0  0  0  0  0  0  0  0  0  0  0
  196.8670  172.0450  145.8990 C   0  0  0  0  0  1  0  0  0  0  0  0
  197.4560  173.0220  144.9130 C   0  0  0  0  0  2  0  0  0  0  0  0
  189.3980  176.6950  145.9660 C   0  0  2  0  0  0  0  0  0  0  0  0
  189.3380  177.8280  145.1480 O   0  0  0  0  0  1  0  0  0  0  0  0
  189.6660  178.2960  147.9430 N   0  0  0  0  0  1  0  0  0  0  0  0
  190.0550  177.1040  147.2640 C   0  0  0  0  0  0  0  0  0  0  0  0
  190.9440  176.3710  147.7720 O   0  0  0  0  0  0  0  0  0  0  0  0
  187.9640  176.2120  146.2320 C   0  0  0  0  0  2  0  0  0  0  0  0
  186.8260  177.1620  145.8180 C   0  0  1  0  0  3  0  0  0  0  0  0
  186.1240  176.6760  144.5420 C   0  0  2  0  0  3  0  0  0  0  0  0
  187.0430  176.1030  143.6780 F   0  0  0  0  0  0  0  0  0  0  0  0
  185.3950  177.7990  143.8000 C   0  0  1  0  0  3  0  0  0  0  0  0
  186.1890  179.0180  143.7740 N   0  0  0  0  0  2  0  0  0  0  0  0
  185.4250  180.0000  144.3080 O   0  0  0  0  0  1  0  0  0  0  0  0
  185.0760  177.4080  142.4960 O   0  0  0  0  0  0  0  0  0  0  0  0
  186.0590  177.6060  140.3540 C   0  0  0  0  0  1  0  0  0  0  0  0
  185.8080  178.2690  141.6790 C   0  0  0  0  0  2  0  0  0  0  0  0
  185.9060  177.3340  146.8570 O   0  0  0  0  0  0  0  0  0  0  0  0
  186.2070  178.5770  147.4140 C   0  0  0  0  0  1  0  0  0  0  0  0
  1  2  1  6  0  0  0
  1 18  1  0  0  0  0
  4  3  1  6  0  0  0
  4  8  1  0  0  0  0
  4  1  1  0  0  0  0
  5  4  1  0  0  0  0
  6  7  1  0  0  0  0
  7  5  1  0  0  0  0
  8 13  1  0  0  0  0
  9 15  1  0  0  0  0
  9 10  1  0  0  0  0
 11 10  2  0  0  0  0
 12 14  1  0  0  0  0
 12 13  2  0  0  0  0
 13 11  1  0  0  0  0
 14  9  2  0  0  0  0
 17 15  1  0  0  0  0
 17 16  1  0  0  0  0
 18 19  1  6  0  0  0
 18 23  1  0  0  0  0
 18 21  1  0  0  0  0
 21 22  2  0  0  0  0
 21 20  1  0  0  0  0
 24 23  1  1  0  0  0
 24 33  1  0  0  0  0
 25 26  1  6  0  0  0
 25 24  1  0  0  0  0
 27 30  1  6  0  0  0
 27 25  1  0  0  0  0
 28 27  1  0  0  0  0
 28 29  1  0  0  0  0
 31 32  1  0  0  0  0
 32 30  1  0  0  0  0
 33 34  1  0  0  0  0
M  END
>  <MODEL>
3

>  <REMARK>
 VINA RESULT:      -5.4      2.140      4.055
  Name = 
  17 active torsions:
  status: ('A' for Active; 'I' for Inactive)
    1  A    between atoms: C_1  and  C_18
    2  A    between atoms: C_1  and  C_20
    3  A    between atoms: C_2  and  C_25
    4  A    between atoms: C_2  and  C_32
    5  A    between atoms: O_3  and  C_24
    6  A    between atoms: O_3  and  C_25
    7  A    between atoms: C_5  and  C_20
    8  A    between atoms: C_5  and  C_32
    9  A    between atoms: C_6  and  C_18
   10  A    between atoms: C_6  and  C_28
   11  A    between atoms: C_7  and  O_11
   12  A    between atoms: O_11  and  C_21
   13  A    between atoms: C_12  and  C_20
   14  A    between atoms: C_18  and  C_30
   15  A    between atoms: O_19  and  C_32
   16  A    between atoms: C_25  and  N_27
   17  A    between atoms: C_30  and  C_31
                            x       y       z     vdW  Elec       q    Type
                         _______ _______ _______ _____ _____    ______ ____

>  <TORSDO>
F 17

$$$$
=
 OpenBabel11052420383D

 34 34  0  0  1  0  0  0  0  0999 V2000
  189.7820  175.2130  144.7090 C   0  0  1  0  0  3  0  0  0  0  0  0
  189.6410  174.1910  145.6540 O   0  0  0  0  0  1  0  0  0  0  0  0
  191.7190  176.5790  145.1810 O   0  0  0  0  0  1  0  0  0  0  0  0
  190.3400  176.5020  145.3900 C   0  0  2  0  0  0  0  0  0  0  0  0
  190.0800  176.4510  146.9030 C   0  0  0  0  0  2  0  0  0  0  0  0
  191.4410  177.2360  148.6990 O   0  0  0  0  0  1  0  0  0  0  0  0
  191.3310  176.2260  147.7420 C   0  0  0  0  0  2  0  0  0  0  0  0
  189.7280  177.8000  144.8270 C   0  0  0  0  0  2  0  0  0  0  0  0
  185.9130  177.7220  142.8120 C   0  0  0  0  0  0  0  0  0  0  0  0
  185.9610  177.6300  144.2050 C   0  0  0  0  0  3  0  0  0  0  0  0
  187.1890  177.6400  144.8670 C   0  0  0  0  0  3  0  0  0  0  0  0
  188.3380  177.8350  142.7550 C   0  0  0  0  0  3  0  0  0  0  0  0
  188.3890  177.7100  144.1440 C   0  0  0  0  0  0  0  0  0  0  0  0
  187.1100  177.8370  142.0880 C   0  0  0  0  0  3  0  0  0  0  0  0
  184.6700  177.7000  142.1730 O   0  0  0  0  0  0  0  0  0  0  0  0
  183.0040  178.1460  140.5170 C   0  0  0  0  0  1  0  0  0  0  0  0
  184.4570  178.2810  140.8940 C   0  0  0  0  0  2  0  0  0  0  0  0
  190.4890  174.6630  143.4360 C   0  0  2  0  0  0  0  0  0  0  0  0
  191.2930  175.6670  142.8870 O   0  0  0  0  0  1  0  0  0  0  0  0
  189.9260  173.6390  141.1610 N   0  0  0  0  0  1  0  0  0  0  0  0
  189.4950  174.2440  142.3780 C   0  0  0  0  0  0  0  0  0  0  0  0
  188.2630  174.4050  142.5810 O   0  0  0  0  0  0  0  0  0  0  0  0
  191.3880  173.4750  143.8130 C   0  0  0  0  0  2  0  0  0  0  0  0
  192.8770  173.5880  143.4390 C   0  0  1  0  0  3  0  0  0  0  0  0
  193.7630  173.6970  144.6880 C   0  0  2  0  0  3  0  0  0  0  0  0
  192.9840  173.6810  145.8330 F   0  0  0  0  0  0  0  0  0  0  0  0
  194.6180  174.9670  144.7010 C   0  0  1  0  0  3  0  0  0  0  0  0
  195.3100  175.1250  145.9720 N   0  0  0  0  0  2  0  0  0  0  0  0
  194.6970  176.1360  146.6330 O   0  0  0  0  0  1  0  0  0  0  0  0
  195.5420  174.9560  143.6520 O   0  0  0  0  0  0  0  0  0  0  0  0
  197.1370  176.6290  143.1500 C   0  0  0  0  0  1  0  0  0  0  0  0
  195.6780  176.2950  143.2870 C   0  0  0  0  0  2  0  0  0  0  0  0
  193.2800  172.5180  142.6350 O   0  0  0  0  0  0  0  0  0  0  0  0
  192.5880  171.4090  143.1230 C   0  0  0  0  0  1  0  0  0  0  0  0
  1  4  1  0  0  0  0
  1  2  1  1  0  0  0
  4  3  1  6  0  0  0
  4  5  1  0  0  0  0
  5  7  1  0  0  0  0
  7  6  1  0  0  0  0
  8  4  1  0  0  0  0
  9 10  1  0  0  0  0
 10 11  2  0  0  0  0
 12 13  2  0  0  0  0
 13  8  1  0  0  0  0
 13 11  1  0  0  0  0
 14 12  1  0  0  0  0
 14  9  2  0  0  0  0
 15  9  1  0  0  0  0
 16 17  1  0  0  0  0
 17 15  1  0  0  0  0
 18 19  1  6  0  0  0
 18 23  1  0  0  0  0
 18  1  1  0  0  0  0
 20 21  1  0  0  0  0
 21 22  2  0  0  0  0
 21 18  1  0  0  0  0
 24 23  1  1  0  0  0
 24 25  1  0  0  0  0
 25 27  1  0  0  0  0
 25 26  1  1  0  0  0
 27 30  1  6  0  0  0
 27 28  1  0  0  0  0
 28 29  1  0  0  0  0
 31 32  1  0  0  0  0
 32 30  1  0  0  0  0
 33 34  1  0  0  0  0
 33 24  1  0  0  0  0
M  END
>  <MODEL>
4

>  <REMARK>
 VINA RESULT:      -5.3      2.758      7.721
  Name = 
  17 active torsions:
  status: ('A' for Active; 'I' for Inactive)
    1  A    between atoms: C_1  and  C_18
    2  A    between atoms: C_1  and  C_20
    3  A    between atoms: C_2  and  C_25
    4  A    between atoms: C_2  and  C_32
    5  A    between atoms: O_3  and  C_24
    6  A    between atoms: O_3  and  C_25
    7  A    between atoms: C_5  and  C_20
    8  A    between atoms: C_5  and  C_32
    9  A    between atoms: C_6  and  C_18
   10  A    between atoms: C_6  and  C_28
   11  A    between atoms: C_7  and  O_11
   12  A    between atoms: O_11  and  C_21
   13  A    between atoms: C_12  and  C_20
   14  A    between atoms: C_18  and  C_30
   15  A    between atoms: O_19  and  C_32
   16  A    between atoms: C_25  and  N_27
   17  A    between atoms: C_30  and  C_31
                            x       y       z     vdW  Elec       q    Type
                         _______ _______ _______ _____ _____    ______ ____

>  <TORSDO>
F 17

$$$$
=
 OpenBabel11052420383D

 34 34  0  0  1  0  0  0  0  0999 V2000
  192.7380  174.7900  146.3840 C   0  0  1  0  0  3  0  0  0  0  0  0
  193.8410  175.6260  146.5950 O   0  0  0  0  0  1  0  0  0  0  0  0
  191.4730  176.7620  145.7910 O   0  0  0  0  0  1  0  0  0  0  0  0
  191.4130  175.5960  146.5580 C   0  0  2  0  0  0  0  0  0  0  0  0
  191.2270  175.9920  148.0300 C   0  0  0  0  0  2  0  0  0  0  0  0
  191.6550  177.8120  149.5130 O   0  0  0  0  0  1  0  0  0  0  0  0
  191.1240  177.4950  148.2620 C   0  0  0  0  0  2  0  0  0  0  0  0
  190.1650  174.8190  146.0950 C   0  0  0  0  0  2  0  0  0  0  0  0
  186.4840  176.9240  145.2930 C   0  0  0  0  0  0  0  0  0  0  0  0
  187.3130  176.5520  144.2320 C   0  0  0  0  0  3  0  0  0  0  0  0
  188.5120  175.8840  144.4800 C   0  0  0  0  0  3  0  0  0  0  0  0
  188.0710  175.9480  146.8510 C   0  0  0  0  0  3  0  0  0  0  0  0
  188.9160  175.6050  145.7930 C   0  0  0  0  0  0  0  0  0  0  0  0
  186.8640  176.6080  146.6070 C   0  0  0  0  0  3  0  0  0  0  0  0
  185.2930  177.6010  145.0190 O   0  0  0  0  0  0  0  0  0  0  0  0
  185.4130  179.8290  144.1590 C   0  0  0  0  0  1  0  0  0  0  0  0
  185.0940  178.9680  145.3540 C   0  0  0  0  0  2  0  0  0  0  0  0
  192.9500  173.9510  145.0900 C   0  0  2  0  0  0  0  0  0  0  0  0
  191.8750  173.0700  144.9330 O   0  0  0  0  0  1  0  0  0  0  0  0
  194.1980  171.8040  145.7010 N   0  0  0  0  0  1  0  0  0  0  0  0
  194.2120  173.1230  145.1590 C   0  0  0  0  0  0  0  0  0  0  0  0
  195.2910  173.5900  144.7080 O   0  0  0  0  0  0  0  0  0  0  0  0
  192.9970  174.8820  143.8690 C   0  0  0  0  0  2  0  0  0  0  0  0
  192.8130  174.2230  142.4900 C   0  0  1  0  0  3  0  0  0  0  0  0
  191.5430  174.7300  141.7910 C   0  0  2  0  0  3  0  0  0  0  0  0
  190.9020  175.6700  142.5810 F   0  0  0  0  0  0  0  0  0  0  0  0
  190.5510  173.6080  141.4720 C   0  0  1  0  0  3  0  0  0  0  0  0
  190.1690  173.6230  140.0680 N   0  0  0  0  0  2  0  0  0  0  0  0
  188.9580  174.2260  139.9940 O   0  0  0  0  0  1  0  0  0  0  0  0
  191.0850  172.3610  141.8090 O   0  0  0  0  0  0  0  0  0  0  0  0
  189.0810  172.3180  143.0660 C   0  0  0  0  0  1  0  0  0  0  0  0
  189.9770  171.5720  142.1160 C   0  0  0  0  0  2  0  0  0  0  0  0
  193.9360  174.4160  141.6810 O   0  0  0  0  0  0  0  0  0  0  0  0
  194.1280  175.7980  141.6400 C   0  0  0  0  0  1  0  0  0  0  0  0
  1  4  1  0  0  0  0
  1  2  1  6  0  0  0
  4  3  1  6  0  0  0
  4  5  1  0  0  0  0
  5  7  1  0  0  0  0
  7  6  1  0  0  0  0
  8  4  1  0  0  0  0
  9 14  1  0  0  0  0
 10 11  1  0  0  0  0
 10  9  2  0  0  0  0
 11 13  2  0  0  0  0
 13  8  1  0  0  0  0
 13 12  1  0  0  0  0
 14 12  2  0  0  0  0
 15  9  1  0  0  0  0
 15 17  1  0  0  0  0
 16 17  1  0  0  0  0
 18 19  1  6  0  0  0
 18 21  1  0  0  0  0
 18  1  1  0  0  0  0
 21 20  1  0  0  0  0
 22 21  2  0  0  0  0
 23 18  1  0  0  0  0
 24 23  1  1  0  0  0
 25 24  1  0  0  0  0
 25 26  1  1  0  0  0
 27 28  1  6  0  0  0
 27 25  1  0  0  0  0
 27 30  1  0  0  0  0
 29 28  1  0  0  0  0
 30 32  1  0  0  0  0
 32 31  1  0  0  0  0
 33 24  1  0  0  0  0
 34 33  1  0  0  0  0
M  END
>  <MODEL>
5

>  <REMARK>
 VINA RESULT:      -5.3      2.579      6.425
  Name = 
  17 active torsions:
  status: ('A' for Active; 'I' for Inactive)
    1  A    between atoms: C_1  and  C_18
    2  A    between atoms: C_1  and  C_20
    3  A    between atoms: C_2  and  C_25
    4  A    between atoms: C_2  and  C_32
    5  A    between atoms: O_3  and  C_24
    6  A    between atoms: O_3  and  C_25
    7  A    between atoms: C_5  and  C_20
    8  A    between atoms: C_5  and  C_32
    9  A    between atoms: C_6  and  C_18
   10  A    between atoms: C_6  and  C_28
   11  A    between atoms: C_7  and  O_11
   12  A    between atoms: O_11  and  C_21
   13  A    between atoms: C_12  and  C_20
   14  A    between atoms: C_18  and  C_30
   15  A    between atoms: O_19  and  C_32
   16  A    between atoms: C_25  and  N_27
   17  A    between atoms: C_30  and  C_31
                            x       y       z     vdW  Elec       q    Type
                         _______ _______ _______ _____ _____    ______ ____

>  <TORSDO>
F 17

$$$$
=
 OpenBabel11052420383D

 34 34  0  0  1  0  0  0  0  0999 V2000
  189.4270  175.0960  144.2480 C   0  0  1  0  0  3  0  0  0  0  0  0
  189.5250  173.9250  145.0070 O   0  0  0  0  0  1  0  0  0  0  0  0
  191.3620  176.4210  144.8330 O   0  0  0  0  0  1  0  0  0  0  0  0
  189.9880  176.3080  145.0560 C   0  0  2  0  0  0  0  0  0  0  0  0
  189.7550  176.0910  146.5590 C   0  0  0  0  0  2  0  0  0  0  0  0
  191.2910  176.9250  148.1830 O   0  0  0  0  0  1  0  0  0  0  0  0
  190.1690  177.2710  147.4290 C   0  0  0  0  0  2  0  0  0  0  0  0
  189.3560  177.6540  144.6480 C   0  0  0  0  0  2  0  0  0  0  0  0
  185.4230  177.7760  142.8790 C   0  0  0  0  0  0  0  0  0  0  0  0
  185.5690  177.3800  144.2100 C   0  0  0  0  0  3  0  0  0  0  0  0
  186.8370  177.3220  144.7880 C   0  0  0  0  0  3  0  0  0  0  0  0
  187.8290  178.0590  142.7160 C   0  0  0  0  0  3  0  0  0  0  0  0
  187.9800  177.6310  144.0370 C   0  0  0  0  0  0  0  0  0  0  0  0
  186.5600  178.1280  142.1350 C   0  0  0  0  0  3  0  0  0  0  0  0
  184.1420  177.8160  142.3200 O   0  0  0  0  0  0  0  0  0  0  0  0
  182.4250  178.1720  140.6950 C   0  0  0  0  0  1  0  0  0  0  0  0
  183.9050  178.2150  140.9770 C   0  0  0  0  0  2  0  0  0  0  0  0
  189.9560  174.8380  142.8070 C   0  0  2  0  0  0  0  0  0  0  0  0
  190.6430  175.9710  142.3600 O   0  0  0  0  0  1  0  0  0  0  0  0
  189.0910  174.3120  140.4580 N   0  0  0  0  0  1  0  0  0  0  0  0
  188.8290  174.5740  141.8350 C   0  0  0  0  0  0  0  0  0  0  0  0
  187.6390  174.5590  142.2470 O   0  0  0  0  0  0  0  0  0  0  0  0
  190.9320  173.6510  142.8150 C   0  0  0  0  0  2  0  0  0  0  0  0
  192.3350  173.9060  142.2360 C   0  0  1  0  0  3  0  0  0  0  0  0
  193.4260  173.6970  143.2970 C   0  0  2  0  0  3  0  0  0  0  0  0
  194.4580  172.9300  142.7800 F   0  0  0  0  0  0  0  0  0  0  0  0
  192.9020  173.0130  144.5630 C   0  0  1  0  0  3  0  0  0  0  0  0
  193.4530  171.6740  144.7070 N   0  0  0  0  0  2  0  0  0  0  0  0
  192.4650  170.8030  144.3900 O   0  0  0  0  0  1  0  0  0  0  0  0
  193.1940  173.7750  145.6970 O   0  0  0  0  0  0  0  0  0  0  0  0
  194.4660  175.6600  146.3500 C   0  0  0  0  0  1  0  0  0  0  0  0
  194.2540  174.5940  145.3100 C   0  0  0  0  0  2  0  0  0  0  0  0
  192.5740  173.1070  141.1140 O   0  0  0  0  0  0  0  0  0  0  0  0
  191.6840  172.0370  141.2280 C   0  0  0  0  0  1  0  0  0  0  0  0
  1  2  1  1  0  0  0
  1  4  1  0  0  0  0
  4  3  1  6  0  0  0
  4  5  1  0  0  0  0
  5  7  1  0  0  0  0
  7  6  1  0  0  0  0
  8  4  1  0  0  0  0
  9 10  1  0  0  0  0
 10 11  2  0  0  0  0
 12 13  2  0  0  0  0
 13  8  1  0  0  0  0
 13 11  1  0  0  0  0
 14 12  1  0  0  0  0
 14  9  2  0  0  0  0
 15  9  1  0  0  0  0
 16 17  1  0  0  0  0
 17 15  1  0  0  0  0
 18 19  1  6  0  0  0
 18 23  1  0  0  0  0
 18  1  1  0  0  0  0
 20 21  1  0  0  0  0
 21 22  2  0  0  0  0
 21 18  1  0  0  0  0
 24 23  1  1  0  0  0
 24 25  1  0  0  0  0
 25 26  1  6  0  0  0
 25 27  1  0  0  0  0
 27 28  1  1  0  0  0
 27 30  1  0  0  0  0
 29 28  1  0  0  0  0
 32 30  1  0  0  0  0
 32 31  1  0  0  0  0
 33 34  1  0  0  0  0
 33 24  1  0  0  0  0
M  END
>  <MODEL>
6

>  <REMARK>
 VINA RESULT:      -5.2      2.873      7.601
  Name = 
  17 active torsions:
  status: ('A' for Active; 'I' for Inactive)
    1  A    between atoms: C_1  and  C_18
    2  A    between atoms: C_1  and  C_20
    3  A    between atoms: C_2  and  C_25
    4  A    between atoms: C_2  and  C_32
    5  A    between atoms: O_3  and  C_24
    6  A    between atoms: O_3  and  C_25
    7  A    between atoms: C_5  and  C_20
    8  A    between atoms: C_5  and  C_32
    9  A    between atoms: C_6  and  C_18
   10  A    between atoms: C_6  and  C_28
   11  A    between atoms: C_7  and  O_11
   12  A    between atoms: O_11  and  C_21
   13  A    between atoms: C_12  and  C_20
   14  A    between atoms: C_18  and  C_30
   15  A    between atoms: O_19  and  C_32
   16  A    between atoms: C_25  and  N_27
   17  A    between atoms: C_30  and  C_31
                            x       y       z     vdW  Elec       q    Type
                         _______ _______ _______ _____ _____    ______ ____

>  <TORSDO>
F 17

$$$$
=
 OpenBabel11052420383D

 34 34  0  0  1  0  0  0  0  0999 V2000
  193.2290  173.6960  145.4410 C   0  0  1  0  0  3  0  0  0  0  0  0
  194.5380  173.2500  145.6540 O   0  0  0  0  0  1  0  0  0  0  0  0
  192.4380  175.9460  145.0470 O   0  0  0  0  0  1  0  0  0  0  0  0
  193.0550  175.1410  146.0070 C   0  0  2  0  0  0  0  0  0  0  0  0
  194.4280  175.7450  146.3380 C   0  0  0  0  0  2  0  0  0  0  0  0
  195.6120  176.8630  144.5940 O   0  0  0  0  0  1  0  0  0  0  0  0
  194.7100  177.0690  145.6380 C   0  0  0  0  0  2  0  0  0  0  0  0
  192.1750  175.1960  147.2710 C   0  0  0  0  0  2  0  0  0  0  0  0
  188.1840  176.7290  146.6880 C   0  0  0  0  0  0  0  0  0  0  0  0
  189.1680  177.5540  147.2360 C   0  0  0  0  0  3  0  0  0  0  0  0
  190.4580  177.0650  147.4430 C   0  0  0  0  0  3  0  0  0  0  0  0
  189.8000  174.9210  146.5550 C   0  0  0  0  0  3  0  0  0  0  0  0
  190.7760  175.7350  147.1330 C   0  0  0  0  0  0  0  0  0  0  0  0
  188.5090  175.4090  146.3360 C   0  0  0  0  0  3  0  0  0  0  0  0
  186.8970  177.2400  146.5010 O   0  0  0  0  0  0  0  0  0  0  0  0
  185.7510  178.9730  145.3160 C   0  0  0  0  0  1  0  0  0  0  0  0
  186.4010  177.6160  145.2230 C   0  0  0  0  0  2  0  0  0  0  0  0
  192.8030  173.4020  143.9730 C   0  0  2  0  0  0  0  0  0  0  0  0
  192.2840  172.1050  143.8970 O   0  0  0  0  0  1  0  0  0  0  0  0
  194.5680  172.3000  142.4860 N   0  0  0  0  0  1  0  0  0  0  0  0
  193.9740  173.4810  143.0220 C   0  0  0  0  0  0  0  0  0  0  0  0
  194.4210  174.6060  142.6730 O   0  0  0  0  0  0  0  0  0  0  0  0
  191.7070  174.3890  143.5420 C   0  0  0  0  0  2  0  0  0  0  0  0
  190.6600  173.8660  142.5410 C   0  0  1  0  0  3  0  0  0  0  0  0
  189.2630  174.4240  142.8480 C   0  0  2  0  0  3  0  0  0  0  0  0
  188.2940  173.4750  142.5650 F   0  0  0  0  0  0  0  0  0  0  0  0
  188.9430  175.6940  142.0550 C   0  0  1  0  0  3  0  0  0  0  0  0
  187.7120  175.5450  141.2930 N   0  0  0  0  0  2  0  0  0  0  0  0
  186.8410  176.4690  141.7630 O   0  0  0  0  0  1  0  0  0  0  0  0
  188.8490  176.8010  142.9040 O   0  0  0  0  0  0  0  0  0  0  0  0
  190.4050  178.2740  143.9050 C   0  0  0  0  0  1  0  0  0  0  0  0
  190.0080  177.5350  142.6580 C   0  0  0  0  0  2  0  0  0  0  0  0
  191.0310  174.1520  141.2240 O   0  0  0  0  0  0  0  0  0  0  0  0
  191.0310  172.9210  140.5670 C   0  0  0  0  0  1  0  0  0  0  0  0
  1  2  1  6  0  0  0
  1  4  1  0  0  0  0
  4  3  1  6  0  0  0
  4  5  1  0  0  0  0
  4  8  1  0  0  0  0
  6  7  1  0  0  0  0
  7  5  1  0  0  0  0
  9 10  1  0  0  0  0
 10 11  2  0  0  0  0
 12 13  2  0  0  0  0
 13  8  1  0  0  0  0
 13 11  1  0  0  0  0
 14 12  1  0  0  0  0
 14  9  2  0  0  0  0
 15  9  1  0  0  0  0
 17 16  1  0  0  0  0
 17 15  1  0  0  0  0
 18 19  1  6  0  0  0
 18  1  1  0  0  0  0
 20 21  1  0  0  0  0
 21 18  1  0  0  0  0
 22 21  2  0  0  0  0
 23 18  1  0  0  0  0
 24 25  1  0  0  0  0
 24 23  1  1  0  0  0
 25 26  1  6  0  0  0
 27 28  1  1  0  0  0
 27 25  1  0  0  0  0
 27 30  1  0  0  0  0
 28 29  1  0  0  0  0
 32 30  1  0  0  0  0
 32 31  1  0  0  0  0
 33 24  1  0  0  0  0
 34 33  1  0  0  0  0
M  END
>  <MODEL>
7

>  <REMARK>
 VINA RESULT:      -5.1      2.121      5.458
  Name = 
  17 active torsions:
  status: ('A' for Active; 'I' for Inactive)
    1  A    between atoms: C_1  and  C_18
    2  A    between atoms: C_1  and  C_20
    3  A    between atoms: C_2  and  C_25
    4  A    between atoms: C_2  and  C_32
    5  A    between atoms: O_3  and  C_24
    6  A    between atoms: O_3  and  C_25
    7  A    between atoms: C_5  and  C_20
    8  A    between atoms: C_5  and  C_32
    9  A    between atoms: C_6  and  C_18
   10  A    between atoms: C_6  and  C_28
   11  A    between atoms: C_7  and  O_11
   12  A    between atoms: O_11  and  C_21
   13  A    between atoms: C_12  and  C_20
   14  A    between atoms: C_18  and  C_30
   15  A    between atoms: O_19  and  C_32
   16  A    between atoms: C_25  and  N_27
   17  A    between atoms: C_30  and  C_31
                            x       y       z     vdW  Elec       q    Type
                         _______ _______ _______ _____ _____    ______ ____

>  <TORSDO>
F 17

$$$$
=
 OpenBabel11052420383D

 34 34  0  0  1  0  0  0  0  0999 V2000
  187.6920  177.0340  144.1480 C   0  0  1  0  0  3  0  0  0  0  0  0
  187.4180  178.4070  144.1450 O   0  0  0  0  0  1  0  0  0  0  0  0
  189.5000  176.3470  142.6980 O   0  0  0  0  0  1  0  0  0  0  0  0
  188.1210  176.5690  142.7210 C   0  0  2  0  0  0  0  0  0  0  0  0
  187.7860  177.6580  141.6900 C   0  0  0  0  0  2  0  0  0  0  0  0
  186.7160  177.5480  139.5610 O   0  0  0  0  0  1  0  0  0  0  0  0
  186.4870  177.4170  140.9300 C   0  0  0  0  0  2  0  0  0  0  0  0
  187.4480  175.2530  142.2840 C   0  0  0  0  0  2  0  0  0  0  0  0
  189.7850  172.1460  140.4120 C   0  0  0  0  0  0  0  0  0  0  0  0
  189.5120  172.0760  141.7800 C   0  0  0  0  0  3  0  0  0  0  0  0
  188.7690  173.0820  142.3990 C   0  0  0  0  0  3  0  0  0  0  0  0
  188.5610  174.2400  140.2930 C   0  0  0  0  0  3  0  0  0  0  0  0
  188.3160  174.1880  141.6670 C   0  0  0  0  0  0  0  0  0  0  0  0
  189.2950  173.2290  139.6670 C   0  0  0  0  0  3  0  0  0  0  0  0
  190.5390  171.1300  139.8190 O   0  0  0  0  0  0  0  0  0  0  0  0
  191.3100  170.8330  137.5750 C   0  0  0  0  0  1  0  0  0  0  0  0
  190.2020  170.5620  138.5600 C   0  0  0  0  0  2  0  0  0  0  0  0
  188.5960  176.6770  145.3640 C   0  0  2  0  0  0  0  0  0  0  0  0
  188.8130  175.2960  145.3850 O   0  0  0  0  0  1  0  0  0  0  0  0
  186.7290  176.4470  147.0980 N   0  0  0  0  0  1  0  0  0  0  0  0
  187.9470  177.0570  146.6750 C   0  0  0  0  0  0  0  0  0  0  0  0
  188.5010  177.9050  147.4230 O   0  0  0  0  0  0  0  0  0  0  0  0
  189.9550  177.3810  145.2260 C   0  0  0  0  0  2  0  0  0  0  0  0
  191.1930  176.5860  145.6770 C   0  0  1  0  0  3  0  0  0  0  0  0
  192.4260  176.9410  144.8330 C   0  0  2  0  0  3  0  0  0  0  0  0
  192.0900  177.8630  143.8560 F   0  0  0  0  0  0  0  0  0  0  0  0
  193.0500  175.7200  144.1510 C   0  0  1  0  0  3  0  0  0  0  0  0
  194.4000  175.4740  144.6400 N   0  0  0  0  0  2  0  0  0  0  0  0
  194.2850  175.0280  145.9130 O   0  0  0  0  0  1  0  0  0  0  0  0
  192.2590  174.5840  144.3420 O   0  0  0  0  0  0  0  0  0  0  0  0
  192.2540  174.5920  141.9770 C   0  0  0  0  0  1  0  0  0  0  0  0
  192.5040  173.7890  143.2230 C   0  0  0  0  0  2  0  0  0  0  0  0
  191.4520  176.7790  147.0380 O   0  0  0  0  0  0  0  0  0  0  0  0
  191.2930  175.5230  147.6240 C   0  0  0  0  0  1  0  0  0  0  0  0
  1  2  1  6  0  0  0
  1 18  1  0  0  0  0
  4  3  1  6  0  0  0
  4  1  1  0  0  0  0
  5  4  1  0  0  0  0
  6  7  1  0  0  0  0
  7  5  1  0  0  0  0
  8  4  1  0  0  0  0
  9 10  1  0  0  0  0
 10 11  2  0  0  0  0
 12 13  2  0  0  0  0
 13  8  1  0  0  0  0
 13 11  1  0  0  0  0
 14 12  1  0  0  0  0
 14  9  2  0  0  0  0
 15  9  1  0  0  0  0
 16 17  1  0  0  0  0
 17 15  1  0  0  0  0
 18 19  1  6  0  0  0
 18 21  1  0  0  0  0
 21 20  1  0  0  0  0
 21 22  2  0  0  0  0
 23 18  1  0  0  0  0
 24 23  1  6  0  0  0
 24 33  1  0  0  0  0
 25 26  1  6  0  0  0
 25 24  1  0  0  0  0
 27 30  1  1  0  0  0
 27 28  1  0  0  0  0
 27 25  1  0  0  0  0
 28 29  1  0  0  0  0
 31 32  1  0  0  0  0
 32 30  1  0  0  0  0
 33 34  1  0  0  0  0
M  END
>  <MODEL>
8

>  <REMARK>
 VINA RESULT:      -5.1      2.738      6.884
  Name = 
  17 active torsions:
  status: ('A' for Active; 'I' for Inactive)
    1  A    between atoms: C_1  and  C_18
    2  A    between atoms: C_1  and  C_20
    3  A    between atoms: C_2  and  C_25
    4  A    between atoms: C_2  and  C_32
    5  A    between atoms: O_3  and  C_24
    6  A    between atoms: O_3  and  C_25
    7  A    between atoms: C_5  and  C_20
    8  A    between atoms: C_5  and  C_32
    9  A    between atoms: C_6  and  C_18
   10  A    between atoms: C_6  and  C_28
   11  A    between atoms: C_7  and  O_11
   12  A    between atoms: O_11  and  C_21
   13  A    between atoms: C_12  and  C_20
   14  A    between atoms: C_18  and  C_30
   15  A    between atoms: O_19  and  C_32
   16  A    between atoms: C_25  and  N_27
   17  A    between atoms: C_30  and  C_31
                            x       y       z     vdW  Elec       q    Type
                         _______ _______ _______ _____ _____    ______ ____

>  <TORSDO>
F 17

$$$$
=
 OpenBabel11052420383D

 34 34  0  0  1  0  0  0  0  0999 V2000
  191.2290  175.4730  142.9750 C   0  0  1  0  0  3  0  0  0  0  0  0
  192.3700  174.9830  142.3300 O   0  0  0  0  0  1  0  0  0  0  0  0
  189.4260  174.3090  144.0880 O   0  0  0  0  0  1  0  0  0  0  0  0
  190.0600  174.4460  142.8500 C   0  0  2  0  0  0  0  0  0  0  0  0
  190.6070  173.0740  142.4290 C   0  0  0  0  0  2  0  0  0  0  0  0
  191.8780  172.0960  144.1960 O   0  0  0  0  0  1  0  0  0  0  0  0
  190.6400  172.0460  143.5540 C   0  0  0  0  0  2  0  0  0  0  0  0
  188.9790  174.8780  141.8390 C   0  0  0  0  0  2  0  0  0  0  0  0
  186.1950  178.0190  142.8340 C   0  0  0  0  0  0  0  0  0  0  0  0
  187.4390  178.3460  142.2920 C   0  0  0  0  0  3  0  0  0  0  0  0
  188.3540  177.3400  141.9800 C   0  0  0  0  0  3  0  0  0  0  0  0
  186.7920  175.6680  142.7450 C   0  0  0  0  0  3  0  0  0  0  0  0
  188.0490  175.9950  142.2330 C   0  0  0  0  0  0  0  0  0  0  0  0
  185.8690  176.6710  143.0490 C   0  0  0  0  0  3  0  0  0  0  0  0
  185.3010  179.0470  143.1470 O   0  0  0  0  0  0  0  0  0  0  0  0
  185.4880  179.1070  145.5310 C   0  0  0  0  0  1  0  0  0  0  0  0
  185.4890  179.9140  144.2580 C   0  0  0  0  0  2  0  0  0  0  0  0
  191.6100  176.0180  144.3820 C   0  0  2  0  0  0  0  0  0  0  0  0
  191.1810  175.1120  145.3580 O   0  0  0  0  0  1  0  0  0  0  0  0
  191.2190  178.4930  143.8670 N   0  0  0  0  0  1  0  0  0  0  0  0
  190.9460  177.3450  144.6690 C   0  0  0  0  0  0  0  0  0  0  0  0
  190.1180  177.4380  145.6130 O   0  0  0  0  0  0  0  0  0  0  0  0
  193.1370  176.1590  144.4900 C   0  0  0  0  0  2  0  0  0  0  0  0
  193.8150  175.4470  145.6730 C   0  0  1  0  0  3  0  0  0  0  0  0
  195.0150  174.6070  145.2100 C   0  0  2  0  0  3  0  0  0  0  0  0
  196.0600  174.7240  146.1120 F   0  0  0  0  0  0  0  0  0  0  0  0
  195.5230  175.0120  143.8240 C   0  0  1  0  0  3  0  0  0  0  0  0
  196.8820  175.5290  143.8890 N   0  0  0  0  0  2  0  0  0  0  0  0
  196.8330  176.8240  143.4970 O   0  0  0  0  0  1  0  0  0  0  0  0
  195.4650  173.9330  142.9380 O   0  0  0  0  0  0  0  0  0  0  0  0
  196.5510  171.8490  143.2130 C   0  0  0  0  0  1  0  0  0  0  0  0
  195.5200  172.8020  143.7520 C   0  0  0  0  0  2  0  0  0  0  0  0
  194.1990  176.3580  146.6620 O   0  0  0  0  0  0  0  0  0  0  0  0
  194.5300  177.5270  145.9770 C   0  0  0  0  0  1  0  0  0  0  0  0
  1  2  1  1  0  0  0
  1 18  1  0  0  0  0
  4  1  1  0  0  0  0
  4  3  1  1  0  0  0
  5  4  1  0  0  0  0
  5  7  1  0  0  0  0
  7  6  1  0  0  0  0
  8 13  1  0  0  0  0
  8  4  1  0  0  0  0
  9 14  1  0  0  0  0
  9 15  1  0  0  0  0
 10  9  2  0  0  0  0
 11 13  2  0  0  0  0
 11 10  1  0  0  0  0
 12 14  2  0  0  0  0
 13 12  1  0  0  0  0
 15 17  1  0  0  0  0
 17 16  1  0  0  0  0
 18 23  1  0  0  0  0
 18 21  1  0  0  0  0
 18 19  1  1  0  0  0
 20 21  1  0  0  0  0
 21 22  2  0  0  0  0
 24 23  1  6  0  0  0
 24 33  1  0  0  0  0
 25 24  1  0  0  0  0
 25 26  1  1  0  0  0
 27 30  1  6  0  0  0
 27 28  1  0  0  0  0
 27 25  1  0  0  0  0
 29 28  1  0  0  0  0
 30 32  1  0  0  0  0
 31 32  1  0  0  0  0
 34 33  1  0  0  0  0
M  END
>  <MODEL>
9

>  <REMARK>
 VINA RESULT:      -5.1      2.926      8.353
  Name = 
  17 active torsions:
  status: ('A' for Active; 'I' for Inactive)
    1  A    between atoms: C_1  and  C_18
    2  A    between atoms: C_1  and  C_20
    3  A    between atoms: C_2  and  C_25
    4  A    between atoms: C_2  and  C_32
    5  A    between atoms: O_3  and  C_24
    6  A    between atoms: O_3  and  C_25
    7  A    between atoms: C_5  and  C_20
    8  A    between atoms: C_5  and  C_32
    9  A    between atoms: C_6  and  C_18
   10  A    between atoms: C_6  and  C_28
   11  A    between atoms: C_7  and  O_11
   12  A    between atoms: O_11  and  C_21
   13  A    between atoms: C_12  and  C_20
   14  A    between atoms: C_18  and  C_30
   15  A    between atoms: O_19  and  C_32
   16  A    between atoms: C_25  and  N_27
   17  A    between atoms: C_30  and  C_31
                            x       y       z     vdW  Elec       q    Type
                         _______ _______ _______ _____ _____    ______ ____

>  <TORSDO>
F 17

$$$$
