=
 OpenBabel11052417123D

 30 37  0  0  1  0  0  0  0  0999 V2000
  189.8280  174.5160  144.4460 C   0  0  2  0  0  3  0  0  0  0  0  0
  191.3480  173.3010  142.7850 C   0  0  1  0  0  3  0  0  0  0  0  0
  187.6810  175.6830  140.6890 C   0  0  0  0  0  2  0  0  0  0  0  0
  188.8790  175.6890  144.7770 C   0  0  1  0  0  3  0  0  0  0  0  0
  191.2540  174.5350  145.5970 S   0  0  0  0  0  0  0  0  0  0  0  0
  189.9540  178.3160  147.6030 C   0  0  0  0  0  2  0  0  0  0  0  0
  186.5930  177.6870  145.0050 C   0  0  2  0  0  0  0  0  0  0  0  0
  189.0950  177.7600  146.4520 C   0  0  1  0  0  3  0  0  0  0  0  0
  191.3050  176.2480  147.6910 C   0  0  0  0  0  2  0  0  0  0  0  0
  187.5780  177.7420  143.8800 N   0  0  1  0  0  0  0  0  0  0  0  0
  187.5510  176.9280  141.5580 C   0  0  1  0  0  3  0  0  0  0  0  0
  190.3200  175.4290  146.8680 C   0  0  1  0  0  3  0  0  0  0  0  0
  189.3010  176.2770  146.1180 C   0  0  2  0  0  0  0  0  0  0  0  0
  190.8460  171.8540  142.9280 C   0  0  0  0  0  2  0  0  0  0  0  0
  184.8750  177.5930  144.3860 S   0  0  0  0  0  0  0  0  0  0  0  0
  186.4300  179.0810  145.5870 C   0  0  0  0  0  2  0  0  0  0  0  0
  191.5250  177.9380  149.4820 C   0  0  0  0  0  1  0  0  0  0  0  0
  192.1860  173.5120  141.2260 Cl  0  0  0  0  0  0  0  0  0  0  0  0
  189.0380  175.0190  140.8650 C   0  0  0  0  0  2  0  0  0  0  0  0
  189.3410  171.6950  142.7070 C   0  0  0  0  0  2  0  0  0  0  0  0
  190.5620  177.2670  148.5270 C   0  0  1  0  0  3  0  0  0  0  0  0
  190.2510  174.3680  142.9680 C   0  0  1  0  0  3  0  0  0  0  0  0
  188.6920  176.7570  143.6980 C   0  0  2  0  0  3  0  0  0  0  0  0
  186.3280  177.7050  141.1100 C   0  0  0  0  0  1  0  0  0  0  0  0
  187.4130  176.5480  143.0260 C   0  0  1  0  0  3  0  0  0  0  0  0
  184.9860  179.2290  145.1630 C   0  0  0  0  0  2  0  0  0  0  0  0
  186.7860  176.6610  146.1440 C   0  0  0  0  0  2  0  0  0  0  0  0
  188.8570  172.6460  141.6240 C   0  0  0  0  0  2  0  0  0  0  0  0
  189.0210  174.1000  142.0740 C   0  0  2  0  0  3  0  0  0  0  0  0
  188.1000  176.7170  146.9570 C   0  0  2  0  0  3  0  0  0  0  0  0
  1  4  1  0  0  0  0
  1  5  1  1  0  0  0
  2 18  1  6  0  0  0
  2 14  1  0  0  0  0
  2 22  1  0  0  0  0
  3 19  1  0  0  0  0
  3 11  1  0  0  0  0
  4 13  1  0  0  0  0
  5 12  1  0  0  0  0
  6 21  1  0  0  0  0
  7 16  1  0  0  0  0
  7 27  1  0  0  0  0
  8 30  1  0  0  0  0
  8  6  1  0  0  0  0
  9 21  1  0  0  0  0
 10  7  1  0  0  0  0
 11 25  1  0  0  0  0
 12  9  1  0  0  0  0
 13  8  1  0  0  0  0
 13 12  1  0  0  0  0
 13 30  1  0  0  0  0
 15  7  1  0  0  0  0
 15 26  1  0  0  0  0
 19 29  1  0  0  0  0
 20 14  1  0  0  0  0
 21 17  1  0  0  0  0
 22  1  1  0  0  0  0
 23 10  1  0  0  0  0
 23  4  1  0  0  0  0
 24 11  1  0  0  0  0
 25 23  1  0  0  0  0
 25 10  1  0  0  0  0
 26 16  1  0  0  0  0
 27 30  1  0  0  0  0
 28 29  1  0  0  0  0
 28 20  1  0  0  0  0
 29 22  1  0  0  0  0
M  END
>  <MODEL>
1

>  <REMARK>
 VINA RESULT:      -7.7      0.000      0.000
  Name = 
  0 active torsions:
  status: ('A' for Active; 'I' for Inactive)
                            x       y       z     vdW  Elec       q    Type
                         _______ _______ _______ _____ _____    ______ ____

>  <TORSDO>
F 0

$$$$
=
 OpenBabel11052417123D

 30 37  0  0  1  0  0  0  0  0999 V2000
  190.6150  173.7170  144.4370 C   0  0  2  0  0  3  0  0  0  0  0  0
  189.5550  175.9730  145.0180 C   0  0  1  0  0  3  0  0  0  0  0  0
  194.1260  175.5090  146.5690 C   0  0  0  0  0  2  0  0  0  0  0  0
  191.8650  172.8770  144.0980 C   0  0  1  0  0  3  0  0  0  0  0  0
  189.4080  173.6080  143.0620 S   0  0  0  0  0  0  0  0  0  0  0  0
  192.1260  171.1560  140.4900 C   0  0  0  0  0  2  0  0  0  0  0  0
  194.4870  171.3300  144.0720 C   0  0  2  0  0  0  0  0  0  0  0  0
  192.6280  171.6040  141.8750 C   0  0  1  0  0  3  0  0  0  0  0  0
  189.8260  171.9040  141.0010 C   0  0  0  0  0  2  0  0  0  0  0  0
  194.4490  172.8160  143.9080 N   0  0  1  0  0  0  0  0  0  0  0  0
  194.7790  174.7040  145.4520 C   0  0  1  0  0  3  0  0  0  0  0  0
  190.0690  172.0160  142.5000 C   0  0  1  0  0  3  0  0  0  0  0  0
  191.5450  172.0210  142.8790 C   0  0  2  0  0  0  0  0  0  0  0  0
  188.6880  175.5890  146.2290 C   0  0  0  0  0  2  0  0  0  0  0  0
  195.5830  170.8370  145.4520 S   0  0  0  0  0  0  0  0  0  0  0  0
  195.3830  170.7380  142.9980 C   0  0  0  0  0  2  0  0  0  0  0  0
  190.2570  170.5460  138.9810 C   0  0  0  0  0  1  0  0  0  0  0  0
  189.8840  177.7250  145.0240 Cl  0  0  0  0  0  0  0  0  0  0  0  0
  192.8350  176.1640  146.1050 C   0  0  0  0  0  2  0  0  0  0  0  0
  189.4620  174.8970  147.3520 C   0  0  0  0  0  2  0  0  0  0  0  0
  190.6510  170.7750  140.4250 C   0  0  1  0  0  3  0  0  0  0  0  0
  190.8650  175.1680  144.9030 C   0  0  1  0  0  3  0  0  0  0  0  0
  193.1910  173.6280  143.9580 C   0  0  2  0  0  3  0  0  0  0  0  0
  196.1910  174.3460  145.8740 C   0  0  0  0  0  1  0  0  0  0  0  0
  193.9850  173.4360  145.1670 C   0  0  1  0  0  3  0  0  0  0  0  0
  196.4340  170.2420  143.9650 C   0  0  0  0  0  2  0  0  0  0  0  0
  193.1660  170.5320  144.1550 C   0  0  0  0  0  2  0  0  0  0  0  0
  190.8610  175.4820  147.4750 C   0  0  0  0  0  2  0  0  0  0  0  0
  191.6780  175.1860  146.2150 C   0  0  2  0  0  3  0  0  0  0  0  0
  192.1820  170.6330  142.9670 C   0  0  2  0  0  3  0  0  0  0  0  0
  1  5  1  6  0  0  0
  1 22  1  0  0  0  0
  2 18  1  1  0  0  0
  2 14  1  0  0  0  0
  4  1  1  0  0  0  0
  6  8  1  0  0  0  0
  7 27  1  0  0  0  0
  7 15  1  0  0  0  0
  8 13  1  0  0  0  0
  8 30  1  0  0  0  0
  9 12  1  0  0  0  0
 10 23  1  0  0  0  0
 10  7  1  0  0  0  0
 10 25  1  0  0  0  0
 11 24  1  0  0  0  0
 11  3  1  0  0  0  0
 12 13  1  0  0  0  0
 12  5  1  0  0  0  0
 13 30  1  0  0  0  0
 13  4  1  0  0  0  0
 14 20  1  0  0  0  0
 16 26  1  0  0  0  0
 16  7  1  0  0  0  0
 17 21  1  0  0  0  0
 19 29  1  0  0  0  0
 19  3  1  0  0  0  0
 20 28  1  0  0  0  0
 21  6  1  0  0  0  0
 21  9  1  0  0  0  0
 22  2  1  0  0  0  0
 22 29  1  0  0  0  0
 23  4  1  0  0  0  0
 23 25  1  0  0  0  0
 25 11  1  0  0  0  0
 26 15  1  0  0  0  0
 29 28  1  0  0  0  0
 30 27  1  0  0  0  0
M  END
>  <MODEL>
2

>  <REMARK>
 VINA RESULT:      -7.5      3.489      8.308
  Name = 
  0 active torsions:
  status: ('A' for Active; 'I' for Inactive)
                            x       y       z     vdW  Elec       q    Type
                         _______ _______ _______ _____ _____    ______ ____

>  <TORSDO>
F 0

$$$$
=
 OpenBabel11052417123D

 30 37  0  0  1  0  0  0  0  0999 V2000
  192.1090  174.7720  143.1540 C   0  0  2  0  0  3  0  0  0  0  0  0
  194.1270  173.8740  144.4450 C   0  0  1  0  0  3  0  0  0  0  0  0
  190.8290  176.0560  147.2520 C   0  0  0  0  0  2  0  0  0  0  0  0
  190.6070  175.1270  143.1010 C   0  0  1  0  0  3  0  0  0  0  0  0
  192.4920  173.5240  141.8670 S   0  0  0  0  0  0  0  0  0  0  0  0
  188.2270  173.1190  140.5810 C   0  0  0  0  0  2  0  0  0  0  0  0
  187.8240  176.3200  143.4150 C   0  0  2  0  0  0  0  0  0  0  0  0
  188.5620  174.0910  141.7270 C   0  0  1  0  0  3  0  0  0  0  0  0
  190.6210  172.8080  140.0480 C   0  0  0  0  0  2  0  0  0  0  0  0
  188.3900  175.3690  144.4210 N   0  0  1  0  0  0  0  0  0  0  0  0
  189.5140  175.6630  146.5910 C   0  0  1  0  0  3  0  0  0  0  0  0
  191.0780  174.0210  140.8480 C   0  0  1  0  0  3  0  0  0  0  0  0
  190.0260  174.5400  141.8200 C   0  0  2  0  0  0  0  0  0  0  0  0
  195.1740  174.9610  144.1520 C   0  0  0  0  0  2  0  0  0  0  0  0
  187.2890  177.8840  144.1980 S   0  0  0  0  0  0  0  0  0  0  0  0
  186.4130  175.8810  143.0610 C   0  0  0  0  0  2  0  0  0  0  0  0
  188.8950  171.9390  138.5060 C   0  0  0  0  0  1  0  0  0  0  0  0
  194.5700  172.9710  145.9180 Cl  0  0  0  0  0  0  0  0  0  0  0  0
  191.9620  175.1320  146.8340 C   0  0  0  0  0  2  0  0  0  0  0  0
  194.7180  176.3760  144.5120 C   0  0  0  0  0  2  0  0  0  0  0  0
  189.2530  173.0640  139.4540 C   0  0  1  0  0  3  0  0  0  0  0  0
  192.6820  174.4020  144.5390 C   0  0  1  0  0  3  0  0  0  0  0  0
  189.7700  174.7900  144.3360 C   0  0  2  0  0  3  0  0  0  0  0  0
  188.3850  176.4080  147.2770 C   0  0  0  0  0  1  0  0  0  0  0  0
  189.5330  176.0060  145.1070 C   0  0  1  0  0  3  0  0  0  0  0  0
  185.7450  177.1000  143.6580 C   0  0  0  0  0  2  0  0  0  0  0  0
  188.6150  176.6350  142.1260 C   0  0  0  0  0  2  0  0  0  0  0  0
  193.8600  176.3570  145.7670 C   0  0  0  0  0  2  0  0  0  0  0  0
  192.5580  175.5920  145.5150 C   0  0  2  0  0  3  0  0  0  0  0  0
  188.9780  175.4590  141.1900 C   0  0  2  0  0  3  0  0  0  0  0  0
  1  5  1  6  0  0  0
  1 22  1  0  0  0  0
  2 22  1  0  0  0  0
  2 18  1  1  0  0  0
  4  1  1  0  0  0  0
  4 23  1  0  0  0  0
  6  8  1  0  0  0  0
  7 15  1  0  0  0  0
  7 10  1  0  0  0  0
  8 13  1  0  0  0  0
  9 12  1  0  0  0  0
 10 25  1  0  0  0  0
 11  3  1  0  0  0  0
 11 24  1  0  0  0  0
 12 13  1  0  0  0  0
 12  5  1  0  0  0  0
 13  4  1  0  0  0  0
 14  2  1  0  0  0  0
 14 20  1  0  0  0  0
 16  7  1  0  0  0  0
 16 26  1  0  0  0  0
 17 21  1  0  0  0  0
 19  3  1  0  0  0  0
 20 28  1  0  0  0  0
 21  9  1  0  0  0  0
 21  6  1  0  0  0  0
 22 29  1  0  0  0  0
 23 10  1  0  0  0  0
 23 25  1  0  0  0  0
 25 11  1  0  0  0  0
 26 15  1  0  0  0  0
 27  7  1  0  0  0  0
 29 28  1  0  0  0  0
 29 19  1  0  0  0  0
 30  8  1  0  0  0  0
 30 13  1  0  0  0  0
 30 27  1  0  0  0  0
M  END
>  <MODEL>
3

>  <REMARK>
 VINA RESULT:      -7.4      2.416      5.886
  Name = 
  0 active torsions:
  status: ('A' for Active; 'I' for Inactive)
                            x       y       z     vdW  Elec       q    Type
                         _______ _______ _______ _____ _____    ______ ____

>  <TORSDO>
F 0

$$$$
=
 OpenBabel11052417123D

 30 37  0  0  1  0  0  0  0  0999 V2000
  190.0780  174.5880  141.6380 C   0  0  2  0  0  3  0  0  0  0  0  0
  190.0130  172.6250  139.9970 C   0  0  1  0  0  3  0  0  0  0  0  0
  193.4290  172.2000  143.4130 C   0  0  0  0  0  2  0  0  0  0  0  0
  190.3660  175.1380  143.0510 C   0  0  1  0  0  3  0  0  0  0  0  0
  188.3220  174.8880  141.2070 S   0  0  0  0  0  0  0  0  0  0  0  0
  187.3350  176.6190  145.2110 C   0  0  0  0  0  2  0  0  0  0  0  0
  191.5740  176.1090  145.6720 C   0  0  2  0  0  0  0  0  0  0  0  0
  188.7730  176.1350  144.9520 C   0  0  1  0  0  3  0  0  0  0  0  0
  186.7480  176.3830  142.8220 C   0  0  0  0  0  2  0  0  0  0  0  0
  191.3280  174.6570  145.4090 N   0  0  1  0  0  0  0  0  0  0  0  0
  192.7550  172.8060  144.6380 C   0  0  1  0  0  3  0  0  0  0  0  0
  188.1940  176.2850  142.3550 C   0  0  1  0  0  3  0  0  0  0  0  0
  189.1780  175.9910  143.4790 C   0  0  2  0  0  0  0  0  0  0  0  0
  190.7420  173.2280  138.7850 C   0  0  0  0  0  2  0  0  0  0  0  0
  193.3170  176.4220  146.1260 S   0  0  0  0  0  0  0  0  0  0  0  0
  191.0320  176.4600  147.0480 C   0  0  0  0  0  2  0  0  0  0  0  0
  185.1970  177.5400  144.3610 C   0  0  0  0  0  1  0  0  0  0  0  0
  190.0660  170.8440  139.9270 Cl  0  0  0  0  0  0  0  0  0  0  0  0
  192.4120  171.8060  142.3530 C   0  0  0  0  0  2  0  0  0  0  0  0
  192.1270  173.7910  139.1110 C   0  0  0  0  0  2  0  0  0  0  0  0
  186.6520  177.2930  144.0260 C   0  0  1  0  0  3  0  0  0  0  0  0
  190.5260  173.1370  141.3580 C   0  0  1  0  0  3  0  0  0  0  0  0
  190.7790  174.1250  144.1210 C   0  0  2  0  0  3  0  0  0  0  0  0
  193.7710  172.8830  145.7610 C   0  0  0  0  0  1  0  0  0  0  0  0
  192.2220  174.1980  144.3260 C   0  0  1  0  0  3  0  0  0  0  0  0
  192.3880  176.7670  147.6450 C   0  0  0  0  0  2  0  0  0  0  0  0
  191.1140  177.1640  144.6410 C   0  0  0  0  0  2  0  0  0  0  0  0
  192.8170  172.9360  140.1620 C   0  0  0  0  0  2  0  0  0  0  0  0
  192.0580  173.0060  141.4910 C   0  0  2  0  0  3  0  0  0  0  0  0
  189.6110  177.2210  144.2800 C   0  0  2  0  0  3  0  0  0  0  0  0
  1  5  1  1  0  0  0
  1  4  1  0  0  0  0
  2 18  1  1  0  0  0
  2 22  1  0  0  0  0
  3 11  1  0  0  0  0
  4 13  1  0  0  0  0
  4 23  1  0  0  0  0
  5 12  1  0  0  0  0
  7 15  1  0  0  0  0
  7 16  1  0  0  0  0
  8  6  1  0  0  0  0
  9 21  1  0  0  0  0
 10  7  1  0  0  0  0
 11 24  1  0  0  0  0
 12  9  1  0  0  0  0
 12 13  1  0  0  0  0
 13 30  1  0  0  0  0
 13  8  1  0  0  0  0
 14 20  1  0  0  0  0
 14  2  1  0  0  0  0
 15 26  1  0  0  0  0
 16 26  1  0  0  0  0
 19  3  1  0  0  0  0
 20 28  1  0  0  0  0
 21 17  1  0  0  0  0
 21  6  1  0  0  0  0
 22 29  1  0  0  0  0
 22  1  1  0  0  0  0
 23 25  1  0  0  0  0
 23 10  1  0  0  0  0
 25 11  1  0  0  0  0
 25 10  1  0  0  0  0
 27  7  1  0  0  0  0
 28 29  1  0  0  0  0
 29 19  1  0  0  0  0
 30 27  1  0  0  0  0
 30  8  1  0  0  0  0
M  END
>  <MODEL>
4

>  <REMARK>
 VINA RESULT:      -7.4      2.416      5.388
  Name = 
  0 active torsions:
  status: ('A' for Active; 'I' for Inactive)
                            x       y       z     vdW  Elec       q    Type
                         _______ _______ _______ _____ _____    ______ ____

>  <TORSDO>
F 0

$$$$
=
 OpenBabel11052417123D

 30 37  0  0  1  0  0  0  0  0999 V2000
  190.6590  175.7740  144.5380 C   0  0  2  0  0  3  0  0  0  0  0  0
  192.6250  176.8100  145.8070 C   0  0  1  0  0  3  0  0  0  0  0  0
  193.9630  173.6630  142.3680 C   0  0  0  0  0  2  0  0  0  0  0  0
  190.0750  175.1670  143.2440 C   0  0  1  0  0  3  0  0  0  0  0  0
  189.6890  177.2540  145.0160 S   0  0  0  0  0  0  0  0  0  0  0  0
  187.0890  177.0790  141.3810 C   0  0  0  0  0  2  0  0  0  0  0  0
  189.3340  173.4590  140.8350 C   0  0  2  0  0  0  0  0  0  0  0  0
  188.1910  176.0180  141.5490 C   0  0  1  0  0  3  0  0  0  0  0  0
  187.4180  177.8940  143.6910 C   0  0  0  0  0  2  0  0  0  0  0  0
  190.5500  174.3300  140.8380 N   0  0  1  0  0  0  0  0  0  0  0  0
  192.9360  173.9110  141.2700 C   0  0  1  0  0  3  0  0  0  0  0  0
  188.2160  176.6740  144.1330 C   0  0  1  0  0  3  0  0  0  0  0  0
  188.7300  175.8300  142.9740 C   0  0  2  0  0  0  0  0  0  0  0  0
  192.6050  175.9880  147.1060 C   0  0  0  0  0  2  0  0  0  0  0  0
  189.7530  171.7230  140.4430 S   0  0  0  0  0  0  0  0  0  0  0  0
  188.5670  173.6870  139.5430 C   0  0  0  0  0  2  0  0  0  0  0  0
  185.4690  178.6660  142.3810 C   0  0  0  0  0  1  0  0  0  0  0  0
  194.2330  177.5400  145.5620 Cl  0  0  0  0  0  0  0  0  0  0  0  0
  194.0310  174.8290  143.3420 C   0  0  0  0  0  2  0  0  0  0  0  0
  192.6660  174.4750  146.8840 C   0  0  0  0  0  2  0  0  0  0  0  0
  186.3800  177.4910  142.6660 C   0  0  1  0  0  3  0  0  0  0  0  0
  192.1830  176.0220  144.5570 C   0  0  1  0  0  3  0  0  0  0  0  0
  190.9830  175.1530  142.0120 C   0  0  2  0  0  3  0  0  0  0  0  0
  193.1380  172.8780  140.1770 C   0  0  0  0  0  1  0  0  0  0  0  0
  191.5210  173.8100  141.8230 C   0  0  1  0  0  3  0  0  0  0  0  0
  188.7970  172.2910  139.0090 C   0  0  0  0  0  2  0  0  0  0  0  0
  188.3620  173.4940  142.0360 C   0  0  0  0  0  2  0  0  0  0  0  0
  193.5580  174.1450  145.6980 C   0  0  0  0  0  2  0  0  0  0  0  0
  192.9520  174.6930  144.4030 C   0  0  2  0  0  3  0  0  0  0  0  0
  187.7070  174.8470  142.4020 C   0  0  2  0  0  3  0  0  0  0  0  0
  1 22  1  0  0  0  0
  1  5  1  6  0  0  0
  2 18  1  6  0  0  0
  2 14  1  0  0  0  0
  3 19  1  0  0  0  0
  4  1  1  0  0  0  0
  6  8  1  0  0  0  0
  6 21  1  0  0  0  0
  7 10  1  0  0  0  0
  7 27  1  0  0  0  0
  8 30  1  0  0  0  0
  8 13  1  0  0  0  0
  9 12  1  0  0  0  0
 10 25  1  0  0  0  0
 10 23  1  0  0  0  0
 11 25  1  0  0  0  0
 11  3  1  0  0  0  0
 12  5  1  0  0  0  0
 13  4  1  0  0  0  0
 13 12  1  0  0  0  0
 15  7  1  0  0  0  0
 16  7  1  0  0  0  0
 17 21  1  0  0  0  0
 19 29  1  0  0  0  0
 20 14  1  0  0  0  0
 21  9  1  0  0  0  0
 22  2  1  0  0  0  0
 23  4  1  0  0  0  0
 24 11  1  0  0  0  0
 25 23  1  0  0  0  0
 26 16  1  0  0  0  0
 26 15  1  0  0  0  0
 27 30  1  0  0  0  0
 28 20  1  0  0  0  0
 29 22  1  0  0  0  0
 29 28  1  0  0  0  0
 30 13  1  0  0  0  0
M  END
>  <MODEL>
5

>  <REMARK>
 VINA RESULT:      -7.3      2.724      6.030
  Name = 
  0 active torsions:
  status: ('A' for Active; 'I' for Inactive)
                            x       y       z     vdW  Elec       q    Type
                         _______ _______ _______ _____ _____    ______ ____

>  <TORSDO>
F 0

$$$$
=
 OpenBabel11052417123D

 30 37  0  0  1  0  0  0  0  0999 V2000
  193.8100  174.8490  142.2100 C   0  0  2  0  0  3  0  0  0  0  0  0
  196.2480  174.1500  142.5480 C   0  0  1  0  0  3  0  0  0  0  0  0
  194.2160  176.1080  146.4910 C   0  0  0  0  0  2  0  0  0  0  0  0
  192.3940  175.0750  142.7820 C   0  0  1  0  0  3  0  0  0  0  0  0
  193.7370  173.6100  140.8610 S   0  0  0  0  0  0  0  0  0  0  0  0
  189.3710  172.8220  141.4290 C   0  0  0  0  0  2  0  0  0  0  0  0
  189.8930  176.0380  144.2270 C   0  0  2  0  0  0  0  0  0  0  0  0
  190.0610  173.8430  142.3520 C   0  0  1  0  0  3  0  0  0  0  0  0
  191.3530  172.7020  139.9580 C   0  0  0  0  0  2  0  0  0  0  0  0
  190.9000  175.1590  144.8980 N   0  0  1  0  0  0  0  0  0  0  0  0
  192.7840  175.5930  146.4210 C   0  0  1  0  0  3  0  0  0  0  0  0
  191.9930  173.9650  140.5180 C   0  0  1  0  0  3  0  0  0  0  0  0
  191.3910  174.4150  141.8440 C   0  0  2  0  0  0  0  0  0  0  0  0
  196.9870  175.3140  141.8670 C   0  0  0  0  0  2  0  0  0  0  0  0
  189.5950  177.5680  145.1840 S   0  0  0  0  0  0  0  0  0  0  0  0
  188.5040  175.4750  144.4750 C   0  0  0  0  0  2  0  0  0  0  0  0
  189.2280  171.6590  139.2460 C   0  0  0  0  0  1  0  0  0  0  0  0
  197.3300  173.3180  143.6950 Cl  0  0  0  0  0  0  0  0  0  0  0  0
  195.1530  175.2740  145.6320 C   0  0  0  0  0  2  0  0  0  0  0  0
  196.5990  176.6930  142.4030 C   0  0  0  0  0  2  0  0  0  0  0  0
  189.8460  172.8290  139.9810 C   0  0  1  0  0  3  0  0  0  0  0  0
  194.9290  174.5580  143.2330 C   0  0  1  0  0  3  0  0  0  0  0  0
  192.1680  174.6960  144.2470 C   0  0  2  0  0  3  0  0  0  0  0  0
  191.9770  176.2550  147.5210 C   0  0  0  0  0  1  0  0  0  0  0  0
  192.1650  175.9040  145.0650 C   0  0  1  0  0  3  0  0  0  0  0  0
  188.0380  176.6460  145.3120 C   0  0  0  0  0  2  0  0  0  0  0  0
  190.0570  176.3910  142.7310 C   0  0  0  0  0  2  0  0  0  0  0  0
  196.3360  176.6300  143.8990 C   0  0  0  0  0  2  0  0  0  0  0  0
  195.1150  175.7530  144.1910 C   0  0  2  0  0  3  0  0  0  0  0  0
  190.1030  175.2290  141.7120 C   0  0  2  0  0  3  0  0  0  0  0  0
  1  5  1  6  0  0  0
  1  4  1  0  0  0  0
  1 22  1  0  0  0  0
  2 22  1  0  0  0  0
  2 18  1  1  0  0  0
  4 23  1  0  0  0  0
  6  8  1  0  0  0  0
  7 16  1  0  0  0  0
  7 10  1  0  0  0  0
  7 15  1  0  0  0  0
  9 21  1  0  0  0  0
  9 12  1  0  0  0  0
 10 25  1  0  0  0  0
 11  3  1  0  0  0  0
 11 24  1  0  0  0  0
 12  5  1  0  0  0  0
 12 13  1  0  0  0  0
 13  8  1  0  0  0  0
 13  4  1  0  0  0  0
 14 20  1  0  0  0  0
 14  2  1  0  0  0  0
 15 26  1  0  0  0  0
 16 26  1  0  0  0  0
 17 21  1  0  0  0  0
 19  3  1  0  0  0  0
 20 28  1  0  0  0  0
 21  6  1  0  0  0  0
 22 29  1  0  0  0  0
 23 10  1  0  0  0  0
 23 25  1  0  0  0  0
 25 11  1  0  0  0  0
 27  7  1  0  0  0  0
 28 29  1  0  0  0  0
 29 19  1  0  0  0  0
 30 13  1  0  0  0  0
 30  8  1  0  0  0  0
 30 27  1  0  0  0  0
M  END
>  <MODEL>
6

>  <REMARK>
 VINA RESULT:      -7.2      3.480      6.682
  Name = 
  0 active torsions:
  status: ('A' for Active; 'I' for Inactive)
                            x       y       z     vdW  Elec       q    Type
                         _______ _______ _______ _____ _____    ______ ____

>  <TORSDO>
F 0

$$$$
=
 OpenBabel11052417123D

 30 37  0  0  1  0  0  0  0  0999 V2000
  190.0670  174.5360  144.1140 C   0  0  2  0  0  3  0  0  0  0  0  0
  189.0010  176.4480  145.4390 C   0  0  1  0  0  3  0  0  0  0  0  0
  193.6700  175.6960  146.5130 C   0  0  0  0  0  2  0  0  0  0  0  0
  191.3090  173.8970  143.4570 C   0  0  1  0  0  3  0  0  0  0  0  0
  188.7770  174.8210  142.8420 S   0  0  0  0  0  0  0  0  0  0  0  0
  191.3740  173.4200  139.4800 C   0  0  0  0  0  2  0  0  0  0  0  0
  193.9550  172.5420  142.7980 C   0  0  2  0  0  0  0  0  0  0  0  0
  191.9540  173.4250  140.9070 C   0  0  1  0  0  3  0  0  0  0  0  0
  189.0970  173.8760  140.3270 C   0  0  0  0  0  2  0  0  0  0  0  0
  193.8760  174.0010  143.1190 N   0  0  1  0  0  0  0  0  0  0  0  0
  194.2660  175.3140  145.1640 C   0  0  1  0  0  3  0  0  0  0  0  0
  189.4330  173.5170  141.7680 C   0  0  1  0  0  3  0  0  0  0  0  0
  190.9290  173.4590  142.0480 C   0  0  2  0  0  0  0  0  0  0  0  0
  188.2210  175.6660  146.5100 C   0  0  0  0  0  2  0  0  0  0  0  0
  195.1460  171.6810  143.8870 S   0  0  0  0  0  0  0  0  0  0  0  0
  194.7920  172.3570  141.5440 C   0  0  0  0  0  2  0  0  0  0  0  0
  189.4260  173.2470  137.9590 C   0  0  0  0  0  1  0  0  0  0  0  0
  189.2940  178.1190  145.9860 Cl  0  0  0  0  0  0  0  0  0  0  0  0
  192.3390  176.4140  146.3520 C   0  0  0  0  0  2  0  0  0  0  0  0
  189.0790  174.6850  147.3110 C   0  0  0  0  0  2  0  0  0  0  0  0
  189.9060  173.0220  139.3760 C   0  0  1  0  0  3  0  0  0  0  0  0
  190.3170  175.7730  145.0030 C   0  0  1  0  0  3  0  0  0  0  0  0
  192.6080  174.7050  143.4930 C   0  0  2  0  0  3  0  0  0  0  0  0
  195.7090  174.8950  145.3730 C   0  0  0  0  0  1  0  0  0  0  0  0
  193.4820  174.1710  144.5320 C   0  0  1  0  0  3  0  0  0  0  0  0
  195.9130  171.6220  142.2440 C   0  0  0  0  0  2  0  0  0  0  0  0
  192.6580  171.7080  142.6930 C   0  0  0  0  0  2  0  0  0  0  0  0
  190.4700  175.2550  147.5380 C   0  0  0  0  0  2  0  0  0  0  0  0
  191.2110  175.4060  146.2070 C   0  0  2  0  0  3  0  0  0  0  0  0
  191.5980  172.1410  141.6540 C   0  0  2  0  0  3  0  0  0  0  0  0
  1  5  1  6  0  0  0
  1 22  1  0  0  0  0
  2 18  1  1  0  0  0
  2 14  1  0  0  0  0
  4 23  1  0  0  0  0
  4  1  1  0  0  0  0
  6  8  1  0  0  0  0
  7 10  1  0  0  0  0
  7 15  1  0  0  0  0
  8 30  1  0  0  0  0
  8 13  1  0  0  0  0
  9 12  1  0  0  0  0
 10 23  1  0  0  0  0
 10 25  1  0  0  0  0
 11 24  1  0  0  0  0
 11  3  1  0  0  0  0
 12 13  1  0  0  0  0
 12  5  1  0  0  0  0
 13  4  1  0  0  0  0
 14 20  1  0  0  0  0
 16 26  1  0  0  0  0
 16  7  1  0  0  0  0
 17 21  1  0  0  0  0
 19  3  1  0  0  0  0
 20 28  1  0  0  0  0
 21  6  1  0  0  0  0
 21  9  1  0  0  0  0
 22  2  1  0  0  0  0
 22 29  1  0  0  0  0
 23 25  1  0  0  0  0
 25 11  1  0  0  0  0
 26 15  1  0  0  0  0
 27  7  1  0  0  0  0
 29 19  1  0  0  0  0
 29 28  1  0  0  0  0
 30 13  1  0  0  0  0
 30 27  1  0  0  0  0
M  END
>  <MODEL>
7

>  <REMARK>
 VINA RESULT:      -7.1      3.198      7.860
  Name = 
  0 active torsions:
  status: ('A' for Active; 'I' for Inactive)
                            x       y       z     vdW  Elec       q    Type
                         _______ _______ _______ _____ _____    ______ ____

>  <TORSDO>
F 0

$$$$
=
 OpenBabel11052417123D

 30 37  0  0  1  0  0  0  0  0999 V2000
  193.2820  174.8750  144.4420 C   0  0  2  0  0  3  0  0  0  0  0  0
  195.6590  175.8210  144.5140 C   0  0  1  0  0  3  0  0  0  0  0  0
  194.4290  173.9640  140.2060 C   0  0  0  0  0  2  0  0  0  0  0  0
  191.9950  174.5590  143.6510 C   0  0  1  0  0  3  0  0  0  0  0  0
  192.8890  176.0040  145.8310 S   0  0  0  0  0  0  0  0  0  0  0  0
  188.5930  176.4190  144.6570 C   0  0  0  0  0  2  0  0  0  0  0  0
  189.8400  173.4710  141.7950 C   0  0  2  0  0  0  0  0  0  0  0  0
  189.5100  175.5350  143.7930 C   0  0  1  0  0  3  0  0  0  0  0  0
  190.3190  176.6200  146.4140 C   0  0  0  0  0  2  0  0  0  0  0  0
  190.8380  174.4850  141.3330 N   0  0  1  0  0  0  0  0  0  0  0  0
  192.9570  174.3380  140.0890 C   0  0  1  0  0  3  0  0  0  0  0  0
  191.1590  175.4650  145.8870 C   0  0  1  0  0  3  0  0  0  0  0  0
  190.8050  175.0550  144.4630 C   0  0  2  0  0  0  0  0  0  0  0  0
  196.4070  174.6850  145.2330 C   0  0  0  0  0  2  0  0  0  0  0  0
  189.8420  171.9910  140.7200 S   0  0  0  0  0  0  0  0  0  0  0  0
  188.4510  173.9180  141.3720 C   0  0  0  0  0  2  0  0  0  0  0  0
  188.0180  177.4080  146.8560 C   0  0  0  0  0  1  0  0  0  0  0  0
  196.8040  176.8280  143.5910 Cl  0  0  0  0  0  0  0  0  0  0  0  0
  195.1420  174.8200  141.2420 C   0  0  0  0  0  2  0  0  0  0  0  0
  196.2450  173.3170  144.5680 C   0  0  0  0  0  2  0  0  0  0  0  0
  188.8520  176.3550  146.1580 C   0  0  1  0  0  3  0  0  0  0  0  0
  194.5010  175.3410  143.6160 C   0  0  1  0  0  3  0  0  0  0  0  0
  191.9440  175.0170  142.1920 C   0  0  2  0  0  3  0  0  0  0  0  0
  192.3890  173.6820  138.8450 C   0  0  0  0  0  1  0  0  0  0  0  0
  192.1840  173.8750  141.3170 C   0  0  1  0  0  3  0  0  0  0  0  0
  188.2330  172.7710  140.4110 C   0  0  0  0  0  2  0  0  0  0  0  0
  189.8220  173.0310  143.2760 C   0  0  0  0  0  2  0  0  0  0  0  0
  196.1940  173.4610  143.0550 C   0  0  0  0  0  2  0  0  0  0  0  0
  194.9450  174.2380  142.6320 C   0  0  2  0  0  3  0  0  0  0  0  0
  189.6010  174.1170  144.3540 C   0  0  2  0  0  3  0  0  0  0  0  0
  1  5  1  1  0  0  0
  2 18  1  6  0  0  0
  2 14  1  0  0  0  0
  3 19  1  0  0  0  0
  4  1  1  0  0  0  0
  4 13  1  0  0  0  0
  5 12  1  0  0  0  0
  6 21  1  0  0  0  0
  7 27  1  0  0  0  0
  8 30  1  0  0  0  0
  8 13  1  0  0  0  0
  8  6  1  0  0  0  0
 10  7  1  0  0  0  0
 10 23  1  0  0  0  0
 11  3  1  0  0  0  0
 11 25  1  0  0  0  0
 12  9  1  0  0  0  0
 13 12  1  0  0  0  0
 15  7  1  0  0  0  0
 16  7  1  0  0  0  0
 19 29  1  0  0  0  0
 20 14  1  0  0  0  0
 21  9  1  0  0  0  0
 21 17  1  0  0  0  0
 22  1  1  0  0  0  0
 22  2  1  0  0  0  0
 23  4  1  0  0  0  0
 24 11  1  0  0  0  0
 25 10  1  0  0  0  0
 25 23  1  0  0  0  0
 26 15  1  0  0  0  0
 26 16  1  0  0  0  0
 27 30  1  0  0  0  0
 28 20  1  0  0  0  0
 29 28  1  0  0  0  0
 29 22  1  0  0  0  0
 30 13  1  0  0  0  0
M  END
>  <MODEL>
8

>  <REMARK>
 VINA RESULT:      -7.0      3.359      5.499
  Name = 
  0 active torsions:
  status: ('A' for Active; 'I' for Inactive)
                            x       y       z     vdW  Elec       q    Type
                         _______ _______ _______ _____ _____    ______ ____

>  <TORSDO>
F 0

$$$$
=
 OpenBabel11052417123D

 30 37  0  0  1  0  0  0  0  0999 V2000
  192.2750  175.3190  144.2900 C   0  0  2  0  0  3  0  0  0  0  0  0
  194.5530  176.2800  144.9470 C   0  0  1  0  0  3  0  0  0  0  0  0
  194.6910  173.4520  141.0100 C   0  0  0  0  0  2  0  0  0  0  0  0
  191.3020  174.8120  143.2030 C   0  0  1  0  0  3  0  0  0  0  0  0
  191.5230  176.7370  145.1750 S   0  0  0  0  0  0  0  0  0  0  0  0
  187.8970  176.8210  142.5580 C   0  0  0  0  0  2  0  0  0  0  0  0
  189.8120  173.2970  141.0220 C   0  0  2  0  0  0  0  0  0  0  0  0
  188.9840  175.7680  142.2760 C   0  0  1  0  0  3  0  0  0  0  0  0
  188.9550  177.4460  144.7020 C   0  0  0  0  0  2  0  0  0  0  0  0
  190.9750  174.1850  140.7100 N   0  0  1  0  0  0  0  0  0  0  0  0
  193.3700  173.7720  140.3210 C   0  0  1  0  0  3  0  0  0  0  0  0
  189.8390  176.2080  144.7620 C   0  0  1  0  0  3  0  0  0  0  0  0
  189.9480  175.4720  143.4330 C   0  0  2  0  0  0  0  0  0  0  0  0
  194.9410  175.3530  146.1110 C   0  0  0  0  0  2  0  0  0  0  0  0
  190.0670  171.6070  140.3720 S   0  0  0  0  0  0  0  0  0  0  0  0
  188.6760  173.6180  140.0670 C   0  0  0  0  0  2  0  0  0  0  0  0
  186.6970  178.2910  144.1520 C   0  0  0  0  0  1  0  0  0  0  0  0
  196.0060  177.0550  144.2640 Cl  0  0  0  0  0  0  0  0  0  0  0  0
  195.0780  174.5350  142.0050 C   0  0  0  0  0  2  0  0  0  0  0  0
  194.9130  173.8650  145.7550 C   0  0  0  0  0  2  0  0  0  0  0  0
  187.6400  177.1130  144.0320 C   0  0  1  0  0  3  0  0  0  0  0  0
  193.7270  175.5910  143.8420 C   0  0  1  0  0  3  0  0  0  0  0  0
  191.7690  174.9160  141.7500 C   0  0  2  0  0  3  0  0  0  0  0  0
  193.2010  172.8380  139.1390 C   0  0  0  0  0  1  0  0  0  0  0  0
  192.2040  173.6020  141.2870 C   0  0  1  0  0  3  0  0  0  0  0  0
  188.7090  172.2750  139.3720 C   0  0  0  0  0  2  0  0  0  0  0  0
  189.2750  173.2160  142.4690 C   0  0  0  0  0  2  0  0  0  0  0  0
  195.3760  173.6500  144.3220 C   0  0  0  0  0  2  0  0  0  0  0  0
  194.3940  174.2930  143.3400 C   0  0  2  0  0  3  0  0  0  0  0  0
  188.7860  174.5220  143.1370 C   0  0  2  0  0  3  0  0  0  0  0  0
  1  5  1  6  0  0  0
  2 18  1  6  0  0  0
  2 14  1  0  0  0  0
  3 19  1  0  0  0  0
  4 13  1  0  0  0  0
  4  1  1  0  0  0  0
  6 21  1  0  0  0  0
  7 27  1  0  0  0  0
  8  6  1  0  0  0  0
  8 30  1  0  0  0  0
  8 13  1  0  0  0  0
  9 12  1  0  0  0  0
 10  7  1  0  0  0  0
 10 25  1  0  0  0  0
 10 23  1  0  0  0  0
 11  3  1  0  0  0  0
 11 25  1  0  0  0  0
 12  5  1  0  0  0  0
 13 12  1  0  0  0  0
 15  7  1  0  0  0  0
 16  7  1  0  0  0  0
 19 29  1  0  0  0  0
 20 14  1  0  0  0  0
 21 17  1  0  0  0  0
 21  9  1  0  0  0  0
 22  1  1  0  0  0  0
 22  2  1  0  0  0  0
 23  4  1  0  0  0  0
 24 11  1  0  0  0  0
 25 23  1  0  0  0  0
 26 16  1  0  0  0  0
 26 15  1  0  0  0  0
 27 30  1  0  0  0  0
 28 20  1  0  0  0  0
 29 22  1  0  0  0  0
 29 28  1  0  0  0  0
 30 13  1  0  0  0  0
M  END
>  <MODEL>
9

>  <REMARK>
 VINA RESULT:      -7.0      3.190      5.942
  Name = 
  0 active torsions:
  status: ('A' for Active; 'I' for Inactive)
                            x       y       z     vdW  Elec       q    Type
                         _______ _______ _______ _____ _____    ______ ____

>  <TORSDO>
F 0

$$$$
