=
 OpenBabel11052418013D

 28 31  0  0  1  0  0  0  0  0999 V2000
  187.8070  176.0450  145.3640 N   0  0  0  0  0  0  0  0  0  0  0  0
  190.8490  176.8020  147.8060 O   0  0  0  0  0  1  0  0  0  0  0  0
  189.1070  176.0140  144.6730 C   0  0  0  0  0  2  0  0  0  0  0  0
  189.1470  175.2160  147.2890 C   0  0  0  0  0  2  0  0  0  0  0  0
  190.4250  175.9150  146.8160 C   0  0  1  0  0  3  0  0  0  0  0  0
  187.9170  175.9980  146.8310 C   0  0  0  0  0  2  0  0  0  0  0  0
  190.2350  176.6760  145.4840 C   0  0  1  0  0  3  0  0  0  0  0  0
  191.1720  176.9460  143.2860 C   0  0  0  0  0  1  0  0  0  0  0  0
  191.4850  176.7430  144.6960 N   0  0  0  0  0  0  0  0  0  0  0  0
  196.0240  174.8220  145.4640 C   0  0  0  0  0  3  0  0  0  0  0  0
  194.1710  173.2900  144.6080 C   0  0  0  0  0  0  0  0  0  0  0  0
  193.6960  175.6650  145.3170 C   0  0  0  0  0  2  0  0  0  0  0  0
  196.1300  172.4160  145.7650 C   0  0  0  0  0  0  0  0  0  0  0  0
  194.7200  174.7040  144.7140 C   0  0  1  0  0  3  0  0  0  0  0  0
  192.1670  174.5630  143.1830 S   0  0  0  0  0  0  0  0  0  0  0  0
  194.8410  172.2400  145.0880 C   0  0  0  0  0  3  0  0  0  0  0  0
  192.8660  173.0420  143.9150 C   0  0  0  0  0  2  0  0  0  0  0  0
  196.7570  171.4160  146.2010 O   0  0  0  0  0  0  0  0  0  0  0  0
  196.6790  173.7630  145.9400 C   0  0  0  0  0  3  0  0  0  0  0  0
  192.2650  175.4930  144.7550 C   0  0  2  0  0  3  0  0  0  0  0  0
  187.1690  177.3060  145.0140 C   0  0  0  0  0  2  0  0  0  0  0  0
  185.6560  177.1260  144.9100 C   0  0  2  0  0  3  0  0  0  0  0  0
  184.5070  179.1370  144.4150 N   0  0  0  0  0  0  0  0  0  0  0  0
  185.2880  177.0750  143.5550 O   0  0  0  0  0  0  0  0  0  0  0  0
  185.5160  178.9840  146.7200 C   0  0  0  0  0  1  0  0  0  0  0  0
  184.8840  178.2740  145.5180 C   0  0  2  0  0  3  0  0  0  0  0  0
  185.5620  180.0970  144.1020 C   0  0  0  0  0  1  0  0  0  0  0  0
  184.4690  178.2000  143.2990 C   0  0  0  0  0  2  0  0  0  0  0  0
  1  6  1  0  0  0  0
  3  1  1  0  0  0  0
  3  7  1  0  0  0  0
  5  4  1  0  0  0  0
  5  2  1  1  0  0  0
  6  4  1  0  0  0  0
  7  9  1  6  0  0  0
  7  5  1  0  0  0  0
  8  9  1  0  0  0  0
 10 19  2  0  0  0  0
 11 14  1  0  0  0  0
 11 16  2  0  0  0  0
 13 19  1  0  0  0  0
 13 18  2  0  0  0  0
 14 12  1  1  0  0  0
 14 10  1  0  0  0  0
 15 17  1  0  0  0  0
 15 20  1  0  0  0  0
 16 13  1  0  0  0  0
 17 11  1  0  0  0  0
 20  9  1  6  0  0  0
 20 12  1  0  0  0  0
 21  1  1  0  0  0  0
 22 21  1  6  0  0  0
 22 26  1  0  0  0  0
 23 26  1  0  0  0  0
 24 22  1  0  0  0  0
 26 25  1  1  0  0  0
 27 23  1  0  0  0  0
 28 24  1  0  0  0  0
 28 23  1  0  0  0  0
M  END
>  <MODEL>
1

>  <REMARK>
 VINA RESULT:      -7.5      0.000      0.000
  Name = 
  4 active torsions:
  status: ('A' for Active; 'I' for Inactive)
    1  A    between atoms: N_1  and  C_2
    2  A    between atoms: C_2  and  C_3
    3  A    between atoms: N_20  and  C_25
    4  A    between atoms: N_20  and  C_27
                            x       y       z     vdW  Elec       q    Type
                         _______ _______ _______ _____ _____    ______ ____

>  <TORSDO>
F 4

$$$$
=
 OpenBabel11052418013D

 28 31  0  0  1  0  0  0  0  0999 V2000
  193.0740  176.7730  145.2210 N   0  0  0  0  0  0  0  0  0  0  0  0
  191.5180  174.8960  148.3580 O   0  0  0  0  0  1  0  0  0  0  0  0
  191.6820  176.3530  144.9930 C   0  0  0  0  0  2  0  0  0  0  0  0
  192.3050  177.0050  147.5750 C   0  0  0  0  0  2  0  0  0  0  0  0
  191.2490  175.9050  147.4330 C   0  0  1  0  0  3  0  0  0  0  0  0
  193.4790  176.7350  146.6350 C   0  0  0  0  0  2  0  0  0  0  0  0
  191.1970  175.3040  146.0090 C   0  0  1  0  0  3  0  0  0  0  0  0
  189.9490  173.7230  144.6960 C   0  0  0  0  0  1  0  0  0  0  0  0
  189.8460  174.8130  145.6590 N   0  0  0  0  0  0  0  0  0  0  0  0
  185.6070  177.4210  146.0040 C   0  0  0  0  0  3  0  0  0  0  0  0
  186.9680  177.5670  143.8500 C   0  0  0  0  0  0  0  0  0  0  0  0
  187.8440  176.3560  145.8830 C   0  0  0  0  0  2  0  0  0  0  0  0
  185.3870  179.3070  144.4930 C   0  0  0  0  0  0  0  0  0  0  0  0
  186.6050  176.7590  145.0850 C   0  0  1  0  0  3  0  0  0  0  0  0
  188.5440  175.3560  143.3110 S   0  0  0  0  0  0  0  0  0  0  0  0
  186.3860  178.7390  143.5830 C   0  0  0  0  0  3  0  0  0  0  0  0
  187.9720  177.0350  142.8730 C   0  0  0  0  0  2  0  0  0  0  0  0
  184.8370  180.4060  144.2220 O   0  0  0  0  0  0  0  0  0  0  0  0
  185.0380  178.5930  145.7240 C   0  0  0  0  0  3  0  0  0  0  0  0
  189.0140  175.8430  145.0110 C   0  0  2  0  0  3  0  0  0  0  0  0
  193.9250  175.8400  144.4970 C   0  0  0  0  0  2  0  0  0  0  0  0
  195.3840  176.0170  144.9130 C   0  0  2  0  0  3  0  0  0  0  0  0
  196.8640  174.5570  143.7770 N   0  0  0  0  0  0  0  0  0  0  0  0
  196.0540  176.7750  143.9380 O   0  0  0  0  0  0  0  0  0  0  0  0
  195.3250  173.4780  145.4570 C   0  0  0  0  0  1  0  0  0  0  0  0
  196.1290  174.7060  145.0190 C   0  0  2  0  0  3  0  0  0  0  0  0
  196.0440  173.9330  142.7430 C   0  0  0  0  0  1  0  0  0  0  0  0
  197.0460  175.9440  143.3660 C   0  0  0  0  0  2  0  0  0  0  0  0
  1  6  1  0  0  0  0
  3  1  1  0  0  0  0
  3  7  1  0  0  0  0
  5  4  1  0  0  0  0
  5  2  1  1  0  0  0
  6  4  1  0  0  0  0
  7  9  1  6  0  0  0
  7  5  1  0  0  0  0
  8  9  1  0  0  0  0
 11 14  1  0  0  0  0
 13 19  1  0  0  0  0
 14 12  1  1  0  0  0
 14 10  1  0  0  0  0
 15 20  1  0  0  0  0
 16 11  2  0  0  0  0
 16 13  1  0  0  0  0
 17 15  1  0  0  0  0
 17 11  1  0  0  0  0
 18 13  2  0  0  0  0
 19 10  2  0  0  0  0
 20  9  1  1  0  0  0
 20 12  1  0  0  0  0
 21  1  1  0  0  0  0
 22 21  1  6  0  0  0
 22 26  1  0  0  0  0
 23 26  1  0  0  0  0
 24 22  1  0  0  0  0
 26 25  1  6  0  0  0
 27 23  1  0  0  0  0
 28 23  1  0  0  0  0
 28 24  1  0  0  0  0
M  END
>  <MODEL>
2

>  <REMARK>
 VINA RESULT:      -7.2      2.411      8.758
  Name = 
  4 active torsions:
  status: ('A' for Active; 'I' for Inactive)
    1  A    between atoms: N_1  and  C_2
    2  A    between atoms: C_2  and  C_3
    3  A    between atoms: N_20  and  C_25
    4  A    between atoms: N_20  and  C_27
                            x       y       z     vdW  Elec       q    Type
                         _______ _______ _______ _____ _____    ______ ____

>  <TORSDO>
F 4

$$$$
=
 OpenBabel11052418013D

 28 31  0  0  1  0  0  0  0  0999 V2000
  191.8360  173.9980  142.3080 N   0  0  0  0  0  0  0  0  0  0  0  0
  189.8470  173.9930  145.7480 O   0  0  0  0  0  1  0  0  0  0  0  0
  191.7910  175.3290  142.9360 C   0  0  0  0  0  2  0  0  0  0  0  0
  191.8230  173.2130  144.6690 C   0  0  0  0  0  2  0  0  0  0  0  0
  191.0360  174.4300  145.1640 C   0  0  1  0  0  3  0  0  0  0  0  0
  191.4600  172.9030  143.2170 C   0  0  0  0  0  2  0  0  0  0  0  0
  190.7200  175.4390  144.0360 C   0  0  1  0  0  3  0  0  0  0  0  0
  190.8880  176.8530  145.9730 C   0  0  0  0  0  1  0  0  0  0  0  0
  190.6190  176.8260  144.5400 N   0  0  0  0  0  0  0  0  0  0  0  0
  185.9120  176.6630  146.1860 C   0  0  0  0  0  3  0  0  0  0  0  0
  186.4360  178.0310  144.0960 C   0  0  0  0  0  0  0  0  0  0  0  0
  188.2680  176.9880  145.4820 C   0  0  0  0  0  2  0  0  0  0  0  0
  184.4620  178.4670  145.4570 C   0  0  0  0  0  0  0  0  0  0  0  0
  186.8230  176.8720  145.0010 C   0  0  1  0  0  3  0  0  0  0  0  0
  188.6510  177.1810  142.6680 S   0  0  0  0  0  0  0  0  0  0  0  0
  185.3340  178.7520  144.3120 C   0  0  0  0  0  3  0  0  0  0  0  0
  187.2780  178.3640  142.9010 C   0  0  0  0  0  2  0  0  0  0  0  0
  183.4190  179.1470  145.6410 O   0  0  0  0  0  0  0  0  0  0  0  0
  184.8170  177.3940  146.3890 C   0  0  0  0  0  3  0  0  0  0  0  0
  189.2700  177.3970  144.3760 C   0  0  2  0  0  3  0  0  0  0  0  0
  190.8730  174.0100  141.2170 C   0  0  0  0  0  2  0  0  0  0  0  0
  190.2770  172.6180  141.0170 C   0  0  2  0  0  3  0  0  0  0  0  0
  188.4030  172.6000  139.5690 N   0  0  0  0  0  0  0  0  0  0  0  0
  190.7070  172.1030  139.7830 O   0  0  0  0  0  0  0  0  0  0  0  0
  188.0470  173.6810  141.8190 C   0  0  0  0  0  1  0  0  0  0  0  0
  188.7660  172.6250  140.9730 C   0  0  2  0  0  3  0  0  0  0  0  0
  188.3620  173.9460  139.0050 C   0  0  0  0  0  1  0  0  0  0  0  0
  189.5590  171.9460  138.9700 C   0  0  0  0  0  2  0  0  0  0  0  0
  1  3  1  0  0  0  0
  1  6  1  0  0  0  0
  3  7  1  0  0  0  0
  4  5  1  0  0  0  0
  5  2  1  6  0  0  0
  6  4  1  0  0  0  0
  7  9  1  1  0  0  0
  7  5  1  0  0  0  0
  9  8  1  0  0  0  0
 10 19  2  0  0  0  0
 11 16  2  0  0  0  0
 11 14  1  0  0  0  0
 13 18  2  0  0  0  0
 13 19  1  0  0  0  0
 14 12  1  1  0  0  0
 14 10  1  0  0  0  0
 15 17  1  0  0  0  0
 15 20  1  0  0  0  0
 16 13  1  0  0  0  0
 17 11  1  0  0  0  0
 20  9  1  6  0  0  0
 20 12  1  0  0  0  0
 21  1  1  0  0  0  0
 22 21  1  6  0  0  0
 23 26  1  0  0  0  0
 24 22  1  0  0  0  0
 26 22  1  0  0  0  0
 26 25  1  6  0  0  0
 27 23  1  0  0  0  0
 28 23  1  0  0  0  0
 28 24  1  0  0  0  0
M  END
>  <MODEL>
3

>  <REMARK>
 VINA RESULT:      -7.0      3.499      7.859
  Name = 
  4 active torsions:
  status: ('A' for Active; 'I' for Inactive)
    1  A    between atoms: N_1  and  C_2
    2  A    between atoms: C_2  and  C_3
    3  A    between atoms: N_20  and  C_25
    4  A    between atoms: N_20  and  C_27
                            x       y       z     vdW  Elec       q    Type
                         _______ _______ _______ _____ _____    ______ ____

>  <TORSDO>
F 4

$$$$
=
 OpenBabel11052418013D

 28 31  0  0  1  0  0  0  0  0999 V2000
  188.3510  177.9050  143.6940 N   0  0  0  0  0  0  0  0  0  0  0  0
  187.7260  174.1590  142.5250 O   0  0  0  0  0  1  0  0  0  0  0  0
  189.3820  176.9790  144.1920 C   0  0  0  0  0  2  0  0  0  0  0  0
  188.3040  176.3400  141.7600 C   0  0  0  0  0  2  0  0  0  0  0  0
  188.7190  175.1350  142.6100 C   0  0  1  0  0  3  0  0  0  0  0  0
  187.5270  177.3440  142.6110 C   0  0  0  0  0  2  0  0  0  0  0  0
  188.9620  175.5020  144.0930 C   0  0  1  0  0  3  0  0  0  0  0  0
  189.5710  174.3250  146.0990 C   0  0  0  0  0  1  0  0  0  0  0  0
  189.9670  174.6220  144.7270 N   0  0  0  0  0  0  0  0  0  0  0  0
  194.6620  174.4680  143.0460 C   0  0  0  0  0  3  0  0  0  0  0  0
  194.1100  176.0020  145.0090 C   0  0  0  0  0  0  0  0  0  0  0  0
  192.3030  174.7760  143.7460 C   0  0  0  0  0  2  0  0  0  0  0  0
  196.0550  176.3790  143.5910 C   0  0  0  0  0  0  0  0  0  0  0  0
  193.7550  174.7530  144.2180 C   0  0  1  0  0  3  0  0  0  0  0  0
  191.9390  175.2120  146.5360 S   0  0  0  0  0  0  0  0  0  0  0  0
  195.1850  176.7370  144.7150 C   0  0  0  0  0  3  0  0  0  0  0  0
  193.2680  176.4140  146.1790 C   0  0  0  0  0  2  0  0  0  0  0  0
  197.0730  177.0730  143.3330 O   0  0  0  0  0  0  0  0  0  0  0  0
  195.7300  175.2140  142.7640 C   0  0  0  0  0  3  0  0  0  0  0  0
  191.2980  175.2500  144.8220 C   0  0  2  0  0  3  0  0  0  0  0  0
  187.4650  178.1950  144.8110 C   0  0  0  0  0  2  0  0  0  0  0  0
  186.0990  177.5490  144.5900 C   0  0  2  0  0  3  0  0  0  0  0  0
  184.5860  177.9250  146.3730 N   0  0  0  0  0  0  0  0  0  0  0  0
  185.1860  178.5280  144.1650 O   0  0  0  0  0  0  0  0  0  0  0  0
  186.5120  176.3770  146.8720 C   0  0  0  0  0  1  0  0  0  0  0  0
  185.5220  176.9480  145.8510 C   0  0  2  0  0  3  0  0  0  0  0  0
  185.2560  178.9050  147.2240 C   0  0  0  0  0  1  0  0  0  0  0  0
  184.1930  178.6410  145.1660 C   0  0  0  0  0  2  0  0  0  0  0  0
  1  3  1  0  0  0  0
  1 21  1  0  0  0  0
  4  5  1  0  0  0  0
  4  6  1  0  0  0  0
  5  2  1  1  0  0  0
  5  7  1  0  0  0  0
  6  1  1  0  0  0  0
  7  3  1  0  0  0  0
  7  9  1  6  0  0  0
  9  8  1  0  0  0  0
 11 17  1  0  0  0  0
 12 14  1  0  0  0  0
 12 20  1  0  0  0  0
 13 16  1  0  0  0  0
 14 10  1  6  0  0  0
 14 11  1  0  0  0  0
 16 11  2  0  0  0  0
 17 15  1  0  0  0  0
 18 13  2  0  0  0  0
 19 10  2  0  0  0  0
 19 13  1  0  0  0  0
 20  9  1  1  0  0  0
 20 15  1  0  0  0  0
 22 21  1  1  0  0  0
 22 26  1  0  0  0  0
 23 27  1  0  0  0  0
 24 22  1  0  0  0  0
 24 28  1  0  0  0  0
 26 23  1  0  0  0  0
 26 25  1  1  0  0  0
 28 23  1  0  0  0  0
M  END
>  <MODEL>
4

>  <REMARK>
 VINA RESULT:      -7.0      2.619      3.458
  Name = 
  4 active torsions:
  status: ('A' for Active; 'I' for Inactive)
    1  A    between atoms: N_1  and  C_2
    2  A    between atoms: C_2  and  C_3
    3  A    between atoms: N_20  and  C_25
    4  A    between atoms: N_20  and  C_27
                            x       y       z     vdW  Elec       q    Type
                         _______ _______ _______ _____ _____    ______ ____

>  <TORSDO>
F 4

$$$$
=
 OpenBabel11052418013D

 28 31  0  0  1  0  0  0  0  0999 V2000
  188.6590  175.7570  142.6030 N   0  0  0  0  0  0  0  0  0  0  0  0
  189.0240  171.9900  143.8100 O   0  0  0  0  0  1  0  0  0  0  0  0
  189.6430  175.6060  143.6880 C   0  0  0  0  0  2  0  0  0  0  0  0
  189.4270  173.4720  141.9890 C   0  0  0  0  0  2  0  0  0  0  0  0
  189.7750  173.1040  143.4340 C   0  0  1  0  0  3  0  0  0  0  0  0
  188.2840  174.4860  141.9630 C   0  0  0  0  0  2  0  0  0  0  0  0
  189.5200  174.2610  144.4270 C   0  0  1  0  0  3  0  0  0  0  0  0
  189.8950  175.0180  146.6780 C   0  0  0  0  0  1  0  0  0  0  0  0
  190.4330  174.2110  145.5890 N   0  0  0  0  0  0  0  0  0  0  0  0
  195.3190  173.2150  145.4250 C   0  0  0  0  0  3  0  0  0  0  0  0
  194.5480  175.6310  145.1440 C   0  0  0  0  0  0  0  0  0  0  0  0
  192.8990  173.7240  145.2370 C   0  0  0  0  0  2  0  0  0  0  0  0
  196.7100  174.8670  144.3190 C   0  0  0  0  0  0  0  0  0  0  0  0
  194.2550  174.2480  145.7040 C   0  0  1  0  0  3  0  0  0  0  0  0
  192.1240  176.2310  146.3410 S   0  0  0  0  0  0  0  0  0  0  0  0
  195.6940  175.9050  144.5170 C   0  0  0  0  0  3  0  0  0  0  0  0
  193.5560  176.7400  145.3260 C   0  0  0  0  0  2  0  0  0  0  0  0
  197.7910  175.1430  143.7380 O   0  0  0  0  0  0  0  0  0  0  0  0
  196.4560  173.5040  144.7940 C   0  0  0  0  0  3  0  0  0  0  0  0
  191.7640  174.7740  145.2950 C   0  0  2  0  0  3  0  0  0  0  0  0
  187.4540  176.3190  143.1970 C   0  0  0  0  0  2  0  0  0  0  0  0
  187.5860  177.8350  143.3350 C   0  0  2  0  0  3  0  0  0  0  0  0
  185.5260  178.9790  143.0910 N   0  0  0  0  0  0  0  0  0  0  0  0
  187.1670  178.2210  144.6190 O   0  0  0  0  0  0  0  0  0  0  0  0
  186.4640  177.9400  140.9940 C   0  0  0  0  0  1  0  0  0  0  0  0
  186.7160  178.5920  142.3570 C   0  0  2  0  0  3  0  0  0  0  0  0
  184.5190  177.9220  143.0690 C   0  0  0  0  0  1  0  0  0  0  0  0
  186.0210  179.0360  144.4600 C   0  0  0  0  0  2  0  0  0  0  0  0
  1 21  1  0  0  0  0
  1  3  1  0  0  0  0
  3  7  1  0  0  0  0
  4  5  1  0  0  0  0
  5  2  1  1  0  0  0
  5  7  1  0  0  0  0
  6  4  1  0  0  0  0
  6  1  1  0  0  0  0
  7  9  1  1  0  0  0
  9  8  1  0  0  0  0
 10 14  1  0  0  0  0
 11 17  1  0  0  0  0
 11 14  1  0  0  0  0
 12 20  1  0  0  0  0
 13 16  1  0  0  0  0
 13 19  1  0  0  0  0
 14 12  1  6  0  0  0
 16 11  2  0  0  0  0
 17 15  1  0  0  0  0
 18 13  2  0  0  0  0
 19 10  2  0  0  0  0
 20  9  1  1  0  0  0
 20 15  1  0  0  0  0
 22 21  1  1  0  0  0
 22 24  1  0  0  0  0
 23 28  1  0  0  0  0
 26 25  1  6  0  0  0
 26 23  1  0  0  0  0
 26 22  1  0  0  0  0
 27 23  1  0  0  0  0
 28 24  1  0  0  0  0
M  END
>  <MODEL>
5

>  <REMARK>
 VINA RESULT:      -6.9      2.513      3.441
  Name = 
  4 active torsions:
  status: ('A' for Active; 'I' for Inactive)
    1  A    between atoms: N_1  and  C_2
    2  A    between atoms: C_2  and  C_3
    3  A    between atoms: N_20  and  C_25
    4  A    between atoms: N_20  and  C_27
                            x       y       z     vdW  Elec       q    Type
                         _______ _______ _______ _____ _____    ______ ____

>  <TORSDO>
F 4

$$$$
=
 OpenBabel11052418013D

 28 31  0  0  1  0  0  0  0  0999 V2000
  192.5240  173.3100  144.5670 N   0  0  0  0  0  0  0  0  0  0  0  0
  189.0240  173.3210  142.6860 O   0  0  0  0  0  1  0  0  0  0  0  0
  191.9230  174.6530  144.5010 C   0  0  0  0  0  2  0  0  0  0  0  0
  190.1480  172.5770  144.6510 C   0  0  0  0  0  2  0  0  0  0  0  0
  189.6540  173.7800  143.8430 C   0  0  1  0  0  3  0  0  0  0  0  0
  191.5810  172.2250  144.2530 C   0  0  0  0  0  2  0  0  0  0  0  0
  190.7930  174.7550  143.4610 C   0  0  1  0  0  3  0  0  0  0  0  0
  191.3990  177.0750  143.6420 C   0  0  0  0  0  1  0  0  0  0  0  0
  190.3150  176.1490  143.3340 N   0  0  0  0  0  0  0  0  0  0  0  0
  186.1470  178.8100  143.9920 C   0  0  0  0  0  3  0  0  0  0  0  0
  187.1600  177.6000  145.9970 C   0  0  0  0  0  0  0  0  0  0  0  0
  188.0610  177.2680  143.6630 C   0  0  0  0  0  2  0  0  0  0  0  0
  184.8090  178.2400  145.9340 C   0  0  0  0  0  0  0  0  0  0  0  0
  187.3850  178.2350  144.6340 C   0  0  1  0  0  3  0  0  0  0  0  0
  189.8910  177.1660  145.8420 S   0  0  0  0  0  0  0  0  0  0  0  0
  185.9650  177.6220  146.5920 C   0  0  0  0  0  3  0  0  0  0  0  0
  188.3040  176.9640  146.7270 C   0  0  0  0  0  2  0  0  0  0  0  0
  183.6920  178.2640  146.5130 O   0  0  0  0  0  0  0  0  0  0  0  0
  184.9600  178.8210  144.5980 C   0  0  0  0  0  3  0  0  0  0  0  0
  189.2330  176.4710  144.2830 C   0  0  2  0  0  3  0  0  0  0  0  0
  193.5850  173.2690  143.5710 C   0  0  0  0  0  2  0  0  0  0  0  0
  194.9380  173.0480  144.2440 C   0  0  2  0  0  3  0  0  0  0  0  0
  196.2030  175.0360  144.4780 N   0  0  0  0  0  0  0  0  0  0  0  0
  194.8550  173.4400  145.5900 O   0  0  0  0  0  0  0  0  0  0  0  0
  195.9440  174.1650  142.1260 C   0  0  0  0  0  1  0  0  0  0  0  0
  196.0430  173.8730  143.6260 C   0  0  2  0  0  3  0  0  0  0  0  0
  195.2830  176.1050  144.0990 C   0  0  0  0  0  1  0  0  0  0  0  0
  195.7340  174.5360  145.7640 C   0  0  0  0  0  2  0  0  0  0  0  0
  3  1  1  0  0  0  0
  5  2  1  6  0  0  0
  5  4  1  0  0  0  0
  6  1  1  0  0  0  0
  6  4  1  0  0  0  0
  7  9  1  1  0  0  0
  7  5  1  0  0  0  0
  7  3  1  0  0  0  0
  9  8  1  0  0  0  0
 10 19  2  0  0  0  0
 10 14  1  0  0  0  0
 11 16  2  0  0  0  0
 11 17  1  0  0  0  0
 12 20  1  0  0  0  0
 13 18  2  0  0  0  0
 13 16  1  0  0  0  0
 14 12  1  6  0  0  0
 14 11  1  0  0  0  0
 15 17  1  0  0  0  0
 19 13  1  0  0  0  0
 20  9  1  6  0  0  0
 20 15  1  0  0  0  0
 21  1  1  0  0  0  0
 22 21  1  6  0  0  0
 22 24  1  0  0  0  0
 23 28  1  0  0  0  0
 24 28  1  0  0  0  0
 26 25  1  6  0  0  0
 26 22  1  0  0  0  0
 26 23  1  0  0  0  0
 27 23  1  0  0  0  0
M  END
>  <MODEL>
6

>  <REMARK>
 VINA RESULT:      -6.9      2.464      8.775
  Name = 
  4 active torsions:
  status: ('A' for Active; 'I' for Inactive)
    1  A    between atoms: N_1  and  C_2
    2  A    between atoms: C_2  and  C_3
    3  A    between atoms: N_20  and  C_25
    4  A    between atoms: N_20  and  C_27
                            x       y       z     vdW  Elec       q    Type
                         _______ _______ _______ _____ _____    ______ ____

>  <TORSDO>
F 4

$$$$
=
 OpenBabel11052418013D

 28 31  0  0  1  0  0  0  0  0999 V2000
  189.1320  176.7980  142.5150 N   0  0  0  0  0  0  0  0  0  0  0  0
  188.4010  172.9120  142.9040 O   0  0  0  0  0  1  0  0  0  0  0  0
  189.8540  176.1990  143.6490 C   0  0  0  0  0  2  0  0  0  0  0  0
  189.4410  174.5420  141.5120 C   0  0  0  0  0  2  0  0  0  0  0  0
  189.4430  173.8390  142.8730 C   0  0  1  0  0  3  0  0  0  0  0  0
  188.5860  175.8080  141.5720 C   0  0  0  0  0  2  0  0  0  0  0  0
  189.2980  174.8230  144.0570 C   0  0  1  0  0  3  0  0  0  0  0  0
  189.3340  174.9090  146.4590 C   0  0  0  0  0  1  0  0  0  0  0  0
  189.9630  174.3250  145.2810 N   0  0  0  0  0  0  0  0  0  0  0  0
  194.6440  172.6020  145.2090 C   0  0  0  0  0  3  0  0  0  0  0  0
  194.2460  175.0490  145.8120 C   0  0  0  0  0  0  0  0  0  0  0  0
  192.3700  173.5680  145.0030 C   0  0  0  0  0  2  0  0  0  0  0  0
  196.3930  174.2670  144.9650 C   0  0  0  0  0  0  0  0  0  0  0  0
  193.6930  173.6340  145.7630 C   0  0  1  0  0  3  0  0  0  0  0  0
  191.7630  175.5920  146.9120 S   0  0  0  0  0  0  0  0  0  0  0  0
  195.5010  175.3240  145.4510 C   0  0  0  0  0  3  0  0  0  0  0  0
  193.3890  176.1720  146.3130 C   0  0  0  0  0  2  0  0  0  0  0  0
  197.5780  174.5390  144.6410 O   0  0  0  0  0  0  0  0  0  0  0  0
  195.8940  172.8940  144.8500 C   0  0  0  0  0  3  0  0  0  0  0  0
  191.3850  174.7090  145.3550 C   0  0  2  0  0  3  0  0  0  0  0  0
  188.0080  177.5390  143.0690 C   0  0  0  0  0  2  0  0  0  0  0  0
  186.6870  176.9440  142.5860 C   0  0  2  0  0  3  0  0  0  0  0  0
  184.7870  178.1110  143.3830 N   0  0  0  0  0  0  0  0  0  0  0  0
  186.1940  177.7160  141.5210 O   0  0  0  0  0  0  0  0  0  0  0  0
  186.0700  176.7900  145.1040 C   0  0  0  0  0  1  0  0  0  0  0  0
  185.6140  176.9500  143.6500 C   0  0  2  0  0  3  0  0  0  0  0  0
  185.3300  179.3110  144.0140 C   0  0  0  0  0  1  0  0  0  0  0  0
  184.9730  178.2910  141.9490 C   0  0  0  0  0  2  0  0  0  0  0  0
  1 21  1  0  0  0  0
  1  3  1  0  0  0  0
  3  7  1  0  0  0  0
  4  6  1  0  0  0  0
  4  5  1  0  0  0  0
  5  2  1  6  0  0  0
  5  7  1  0  0  0  0
  6  1  1  0  0  0  0
  7  9  1  1  0  0  0
  9  8  1  0  0  0  0
 10 14  1  0  0  0  0
 11 17  1  0  0  0  0
 12 20  1  0  0  0  0
 13 16  1  0  0  0  0
 14 12  1  6  0  0  0
 14 11  1  0  0  0  0
 16 11  2  0  0  0  0
 17 15  1  0  0  0  0
 18 13  2  0  0  0  0
 19 13  1  0  0  0  0
 19 10  2  0  0  0  0
 20  9  1  1  0  0  0
 20 15  1  0  0  0  0
 22 21  1  1  0  0  0
 22 26  1  0  0  0  0
 23 26  1  0  0  0  0
 23 27  1  0  0  0  0
 24 28  1  0  0  0  0
 24 22  1  0  0  0  0
 26 25  1  1  0  0  0
 28 23  1  0  0  0  0
M  END
>  <MODEL>
7

>  <REMARK>
 VINA RESULT:      -6.8      2.241      3.222
  Name = 
  4 active torsions:
  status: ('A' for Active; 'I' for Inactive)
    1  A    between atoms: N_1  and  C_2
    2  A    between atoms: C_2  and  C_3
    3  A    between atoms: N_20  and  C_25
    4  A    between atoms: N_20  and  C_27
                            x       y       z     vdW  Elec       q    Type
                         _______ _______ _______ _____ _____    ______ ____

>  <TORSDO>
F 4

$$$$
=
 OpenBabel11052418013D

 28 31  0  0  1  0  0  0  0  0999 V2000
  188.2060  176.5920  142.0700 N   0  0  0  0  0  0  0  0  0  0  0  0
  189.4200  174.1970  144.9990 O   0  0  0  0  0  1  0  0  0  0  0  0
  189.5690  176.9100  142.5300 C   0  0  0  0  0  2  0  0  0  0  0  0
  188.8600  174.2720  142.6840 C   0  0  0  0  0  2  0  0  0  0  0  0
  189.8250  174.7370  143.7780 C   0  0  1  0  0  3  0  0  0  0  0  0
  187.7210  175.2780  142.5210 C   0  0  0  0  0  2  0  0  0  0  0  0
  189.9050  176.2770  143.8930 C   0  0  1  0  0  3  0  0  0  0  0  0
  191.5830  177.9920  143.7310 C   0  0  0  0  0  1  0  0  0  0  0  0
  191.2270  176.7330  144.3760 N   0  0  0  0  0  0  0  0  0  0  0  0
  195.5910  174.8620  145.9060 C   0  0  0  0  0  3  0  0  0  0  0  0
  194.7780  174.3140  143.5500 C   0  0  0  0  0  0  0  0  0  0  0  0
  193.3160  175.5490  145.1950 C   0  0  0  0  0  2  0  0  0  0  0  0
  196.3930  172.9070  144.7130 C   0  0  0  0  0  0  0  0  0  0  0  0
  194.7440  175.2760  144.7270 C   0  0  1  0  0  3  0  0  0  0  0  0
  193.0800  176.1940  142.4320 S   0  0  0  0  0  0  0  0  0  0  0  0
  195.5550  173.2290  143.5530 C   0  0  0  0  0  3  0  0  0  0  0  0
  193.9550  174.5930  142.3290 C   0  0  0  0  0  2  0  0  0  0  0  0
  197.1310  171.8880  144.6970 O   0  0  0  0  0  0  0  0  0  0  0  0
  196.3590  173.7730  145.8940 C   0  0  0  0  0  3  0  0  0  0  0  0
  192.3120  175.7930  144.0430 C   0  0  2  0  0  3  0  0  0  0  0  0
  187.3210  177.6010  142.6340 C   0  0  0  0  0  2  0  0  0  0  0  0
  185.9700  176.9850  142.9890 C   0  0  2  0  0  3  0  0  0  0  0  0
  184.5900  178.4280  144.2630 N   0  0  0  0  0  0  0  0  0  0  0  0
  184.9870  177.4960  142.1240 O   0  0  0  0  0  0  0  0  0  0  0  0
  186.6110  177.5020  145.4520 C   0  0  0  0  0  1  0  0  0  0  0  0
  185.5200  177.3220  144.3920 C   0  0  2  0  0  3  0  0  0  0  0  0
  185.2850  179.7110  144.2480 C   0  0  0  0  0  1  0  0  0  0  0  0
  184.0730  178.2320  142.9150 C   0  0  0  0  0  2  0  0  0  0  0  0
  1  6  1  0  0  0  0
  1  3  1  0  0  0  0
  1 21  1  0  0  0  0
  3  7  1  0  0  0  0
  4  5  1  0  0  0  0
  5  7  1  0  0  0  0
  5  2  1  1  0  0  0
  6  4  1  0  0  0  0
  7  9  1  6  0  0  0
  8  9  1  0  0  0  0
 11 16  2  0  0  0  0
 11 14  1  0  0  0  0
 13 19  1  0  0  0  0
 14 12  1  1  0  0  0
 14 10  1  0  0  0  0
 15 20  1  0  0  0  0
 16 13  1  0  0  0  0
 17 15  1  0  0  0  0
 17 11  1  0  0  0  0
 18 13  2  0  0  0  0
 19 10  2  0  0  0  0
 20  9  1  1  0  0  0
 20 12  1  0  0  0  0
 22 21  1  6  0  0  0
 22 26  1  0  0  0  0
 23 26  1  0  0  0  0
 24 28  1  0  0  0  0
 24 22  1  0  0  0  0
 26 25  1  1  0  0  0
 27 23  1  0  0  0  0
 28 23  1  0  0  0  0
M  END
>  <MODEL>
8

>  <REMARK>
 VINA RESULT:      -6.8      1.833      2.180
  Name = 
  4 active torsions:
  status: ('A' for Active; 'I' for Inactive)
    1  A    between atoms: N_1  and  C_2
    2  A    between atoms: C_2  and  C_3
    3  A    between atoms: N_20  and  C_25
    4  A    between atoms: N_20  and  C_27
                            x       y       z     vdW  Elec       q    Type
                         _______ _______ _______ _____ _____    ______ ____

>  <TORSDO>
F 4

$$$$
=
 OpenBabel11052418013D

 28 31  0  0  1  0  0  0  0  0999 V2000
  190.3910  173.5600  142.6250 N   0  0  0  0  0  0  0  0  0  0  0  0
  188.7920  174.1660  139.0380 O   0  0  0  0  0  1  0  0  0  0  0  0
  189.0980  174.2620  142.6950 C   0  0  0  0  0  2  0  0  0  0  0  0
  189.3620  172.4870  140.6300 C   0  0  0  0  0  2  0  0  0  0  0  0
  188.4840  173.7020  140.3180 C   0  0  1  0  0  3  0  0  0  0  0  0
  190.6520  172.9300  141.3210 C   0  0  0  0  0  2  0  0  0  0  0  0
  188.6580  174.8480  141.3410 C   0  0  1  0  0  3  0  0  0  0  0  0
  187.4410  176.7570  140.5320 C   0  0  0  0  0  1  0  0  0  0  0  0
  187.4290  175.6560  141.4890 N   0  0  0  0  0  0  0  0  0  0  0  0
  184.4420  178.2930  144.4910 C   0  0  0  0  0  3  0  0  0  0  0  0
  186.8690  177.9250  145.1880 C   0  0  0  0  0  0  0  0  0  0  0  0
  185.8890  176.7750  143.1680 C   0  0  0  0  0  2  0  0  0  0  0  0
  185.1300  178.4510  146.8130 C   0  0  0  0  0  0  0  0  0  0  0  0
  185.8600  178.0180  144.0550 C   0  0  1  0  0  3  0  0  0  0  0  0
  188.6370  177.5170  143.0970 S   0  0  0  0  0  0  0  0  0  0  0  0
  186.5190  178.1410  146.4580 C   0  0  0  0  0  3  0  0  0  0  0  0
  188.3070  177.6240  144.8910 C   0  0  0  0  0  2  0  0  0  0  0  0
  184.8160  178.6660  148.0130 O   0  0  0  0  0  0  0  0  0  0  0  0
  184.1080  178.5030  145.7640 C   0  0  0  0  0  3  0  0  0  0  0  0
  187.3140  176.2840  142.8180 C   0  0  2  0  0  3  0  0  0  0  0  0
  191.4280  174.5570  142.8440 C   0  0  0  0  0  2  0  0  0  0  0  0
  191.4630  174.9760  144.3120 C   0  0  2  0  0  3  0  0  0  0  0  0
  193.6520  175.3890  145.1170 N   0  0  0  0  0  0  0  0  0  0  0  0
  191.6230  176.3690  144.3920 O   0  0  0  0  0  0  0  0  0  0  0  0
  193.0920  172.9790  144.6330 C   0  0  0  0  0  1  0  0  0  0  0  0
  192.6210  174.3690  145.0710 C   0  0  2  0  0  3  0  0  0  0  0  0
  194.4950  175.3500  143.9260 C   0  0  0  0  0  1  0  0  0  0  0  0
  192.8690  176.6140  145.0180 C   0  0  0  0  0  2  0  0  0  0  0  0
  1  3  1  0  0  0  0
  1 21  1  0  0  0  0
  4  6  1  0  0  0  0
  5  2  1  6  0  0  0
  5  4  1  0  0  0  0
  5  7  1  0  0  0  0
  6  1  1  0  0  0  0
  7  9  1  1  0  0  0
  7  3  1  0  0  0  0
  8  9  1  0  0  0  0
 10 19  2  0  0  0  0
 11 16  2  0  0  0  0
 13 18  2  0  0  0  0
 14 12  1  1  0  0  0
 14 10  1  0  0  0  0
 14 11  1  0  0  0  0
 15 17  1  0  0  0  0
 16 13  1  0  0  0  0
 17 11  1  0  0  0  0
 19 13  1  0  0  0  0
 20  9  1  6  0  0  0
 20 15  1  0  0  0  0
 20 12  1  0  0  0  0
 22 21  1  6  0  0  0
 22 24  1  0  0  0  0
 22 26  1  0  0  0  0
 24 28  1  0  0  0  0
 26 25  1  6  0  0  0
 26 23  1  0  0  0  0
 27 23  1  0  0  0  0
 28 23  1  0  0  0  0
M  END
>  <MODEL>
9

>  <REMARK>
 VINA RESULT:      -6.8      3.052      8.479
  Name = 
  4 active torsions:
  status: ('A' for Active; 'I' for Inactive)
    1  A    between atoms: N_1  and  C_2
    2  A    between atoms: C_2  and  C_3
    3  A    between atoms: N_20  and  C_25
    4  A    between atoms: N_20  and  C_27
                            x       y       z     vdW  Elec       q    Type
                         _______ _______ _______ _____ _____    ______ ____

>  <TORSDO>
F 4

$$$$
