=
 OpenBabel11052417303D

 25 28  0  0  1  0  0  0  0  0999 V2000
  187.8680  177.2860  145.3580 C   0  0  0  0  0  0  0  0  0  0  0  0
  189.0520  177.3310  144.5620 C   0  0  0  0  0  0  0  0  0  0  0  0
  189.0320  176.0900  147.1270 C   0  0  0  0  0  3  0  0  0  0  0  0
  186.5290  177.8800  145.2300 C   0  0  0  0  0  0  0  0  0  0  0  0
  183.9350  178.8560  145.5670 C   0  0  0  0  0  3  0  0  0  0  0  0
  190.2180  176.1830  146.4010 C   0  0  0  0  0  3  0  0  0  0  0  0
  185.7780  177.5200  146.3390 C   0  0  0  0  0  0  0  0  0  0  0  0
  184.4790  177.9920  146.5260 C   0  0  0  0  0  3  0  0  0  0  0  0
  191.4980  177.4190  143.2440 C   0  0  0  0  0  3  0  0  0  0  0  0
  191.4210  176.8720  144.4780 N   0  0  0  0  0  0  0  0  0  0  0  0
  189.1610  177.8380  143.2400 C   0  0  1  0  0  3  0  0  0  0  0  0
  184.6990  179.2500  144.4550 C   0  0  0  0  0  3  0  0  0  0  0  0
  187.8740  176.6390  146.5930 C   0  0  0  0  0  0  0  0  0  0  0  0
  186.5550  176.6850  147.2930 C   0  0  0  0  0  3  0  0  0  0  0  0
  190.3790  177.8790  142.6360 N   0  0  0  0  0  0  0  0  0  0  0  0
  186.0060  178.7740  144.2910 C   0  0  0  0  0  3  0  0  0  0  0  0
  190.2410  176.8010  145.1420 C   0  0  0  0  0  0  0  0  0  0  0  0
  187.9890  178.1910  142.3900 C   0  0  0  0  0  2  0  0  0  0  0  0
  187.8180  177.1970  141.2460 C   0  0  0  0  0  2  0  0  0  0  0  0
  187.6170  175.7780  141.7610 C   0  0  0  0  0  2  0  0  0  0  0  0
  188.4810  174.7960  141.0260 C   0  0  0  0  0  0  0  0  0  0  0  0
  188.3360  174.6480  139.8220 O   0  0  0  0  0  0  0  0  0  0  0  0
  189.5280  174.0000  141.7400 C   0  0  1  0  0  3  0  0  0  0  0  0
  190.7780  174.5960  141.5800 O   0  0  0  0  0  1  0  0  0  0  0  0
  189.2070  173.8600  143.2170 C   0  0  0  0  0  1  0  0  0  0  0  0
  1 13  1  0  0  0  0
  2 17  1  0  0  0  0
  2  1  2  0  0  0  0
  4  1  1  0  0  0  0
  4  7  1  0  0  0  0
  5  8  1  0  0  0  0
  6  3  2  0  0  0  0
  7  8  2  0  0  0  0
  7 14  1  0  0  0  0
  9 10  1  0  0  0  0
 10 17  2  0  0  0  0
 11 18  1  6  0  0  0
 11  2  1  0  0  0  0
 12  5  2  0  0  0  0
 13  3  1  0  0  0  0
 13 14  2  0  0  0  0
 15 11  1  0  0  0  0
 15  9  2  0  0  0  0
 16 12  1  0  0  0  0
 16  4  2  0  0  0  0
 17  6  1  0  0  0  0
 19 20  1  0  0  0  0
 19 18  1  0  0  0  0
 21 23  1  0  0  0  0
 21 20  1  0  0  0  0
 22 21  2  0  0  0  0
 23 25  1  1  0  0  0
 24 23  1  0  0  0  0
M  END
>  <MODEL>
1

>  <REMARK>
 VINA RESULT:      -7.6      0.000      0.000
  Name = 
  5 active torsions:
  status: ('A' for Active; 'I' for Inactive)
    1  A    between atoms: C_2  and  C_21
    2  A    between atoms: C_6  and  C_15
    3  A    between atoms: C_6  and  C_23
    4  A    between atoms: C_15  and  C_21
    5  A    between atoms: C_16  and  C_23
                            x       y       z     vdW  Elec       q    Type
                         _______ _______ _______ _____ _____    ______ ____

>  <TORSDO>
F 5

$$$$
=
 OpenBabel11052417303D

 25 28  0  0  1  0  0  0  0  0999 V2000
  187.9650  176.4840  144.4930 C   0  0  0  0  0  0  0  0  0  0  0  0
  188.7980  175.3270  144.4290 C   0  0  0  0  0  0  0  0  0  0  0  0
  188.0780  176.7720  142.0810 C   0  0  0  0  0  3  0  0  0  0  0  0
  187.2030  177.1350  145.5700 C   0  0  0  0  0  0  0  0  0  0  0  0
  185.4850  178.6570  147.1600 C   0  0  0  0  0  3  0  0  0  0  0  0
  188.8350  175.6060  141.9840 C   0  0  0  0  0  3  0  0  0  0  0  0
  186.5330  178.2260  145.0400 C   0  0  2  0  0  3  0  0  0  0  0  0
  185.6730  179.0040  145.8160 C   0  0  0  0  0  3  0  0  0  0  0  0
  190.3220  173.0320  144.0570 C   0  0  0  0  0  3  0  0  0  0  0  0
  189.9180  173.7500  142.9840 N   0  0  0  0  0  0  0  0  0  0  0  0
  189.2970  174.5830  145.5320 C   0  0  0  0  0  0  0  0  0  0  0  0
  186.1360  177.5340  147.6980 C   0  0  0  0  0  3  0  0  0  0  0  0
  187.6580  177.1960  143.3350 C   0  0  0  0  0  0  0  0  0  0  0  0
  186.7770  178.3770  143.5810 C   0  0  0  0  0  3  0  0  0  0  0  0
  190.0240  173.4570  145.3070 N   0  0  0  0  0  0  0  0  0  0  0  0
  186.9860  176.7590  146.8990 C   0  0  0  0  0  3  0  0  0  0  0  0
  189.1860  174.8820  143.1320 C   0  0  0  0  0  0  0  0  0  0  0  0
  189.2100  175.0440  146.9470 C   0  0  0  0  0  2  0  0  0  0  0  0
  190.5900  175.3730  147.5060 C   0  0  0  0  0  2  0  0  0  0  0  0
  191.1580  176.6440  146.8870 C   0  0  0  0  0  2  0  0  0  0  0  0
  192.4230  176.3720  146.1280 C   0  0  0  0  0  0  0  0  0  0  0  0
  193.3430  175.7900  146.6790 O   0  0  0  0  0  0  0  0  0  0  0  0
  192.5730  176.7910  144.6980 C   0  0  1  0  0  3  0  0  0  0  0  0
  192.6320  175.6690  143.8720 O   0  0  0  0  0  1  0  0  0  0  0  0
  191.4340  177.6940  144.2630 C   0  0  0  0  0  1  0  0  0  0  0  0
  1  4  2  0  0  0  0
  2  1  1  0  0  0  0
  2 11  1  0  0  0  0
  3 13  1  0  0  0  0
  4 16  1  0  0  0  0
  5 12  1  0  0  0  0
  6  3  2  0  0  0  0
  6 17  1  0  0  0  0
  7 14  1  6  0  0  0
  7  4  1  0  0  0  0
  7  8  1  0  0  0  0
  8  5  2  0  0  0  0
  9 15  1  0  0  0  0
 10 17  1  0  0  0  0
 10  9  2  0  0  0  0
 11 18  1  0  0  0  0
 13 14  2  0  0  0  0
 13  1  1  0  0  0  0
 15 11  2  0  0  0  0
 16 12  2  0  0  0  0
 17  2  2  0  0  0  0
 18 19  1  0  0  0  0
 20 19  1  0  0  0  0
 21 22  2  0  0  0  0
 21 20  1  0  0  0  0
 23 25  1  6  0  0  0
 23 21  1  0  0  0  0
 24 23  1  0  0  0  0
M  END
>  <MODEL>
2

>  <REMARK>
 VINA RESULT:      -7.4      2.114      4.489
  Name = 
  5 active torsions:
  status: ('A' for Active; 'I' for Inactive)
    1  A    between atoms: C_2  and  C_21
    2  A    between atoms: C_6  and  C_15
    3  A    between atoms: C_6  and  C_23
    4  A    between atoms: C_15  and  C_21
    5  A    between atoms: C_16  and  C_23
                            x       y       z     vdW  Elec       q    Type
                         _______ _______ _______ _____ _____    ______ ____

>  <TORSDO>
F 5

$$$$
=
 OpenBabel11052417303D

 25 28  0  0  1  0  0  0  0  0999 V2000
  187.3300  177.1190  144.0220 C   0  0  0  0  0  0  0  0  0  0  0  0
  188.1790  176.0720  143.5530 C   0  0  0  0  0  0  0  0  0  0  0  0
  187.0160  177.9590  141.7620 C   0  0  0  0  0  3  0  0  0  0  0  0
  186.7430  177.4480  145.3300 C   0  0  0  0  0  0  0  0  0  0  0  0
  185.2740  178.4340  147.4890 C   0  0  0  0  0  3  0  0  0  0  0  0
  187.7850  176.9040  141.2700 C   0  0  0  0  0  3  0  0  0  0  0  0
  185.9550  178.5790  145.1890 C   0  0  2  0  0  3  0  0  0  0  0  0
  185.2160  179.0930  146.2540 C   0  0  0  0  0  3  0  0  0  0  0  0
  189.6940  174.0410  142.4070 C   0  0  0  0  0  3  0  0  0  0  0  0
  189.0860  174.9540  141.6150 N   0  0  0  0  0  0  0  0  0  0  0  0
  188.8850  175.1340  144.3530 C   0  0  0  0  0  0  0  0  0  0  0  0
  186.0460  177.2700  147.6340 C   0  0  0  0  0  3  0  0  0  0  0  0
  186.8040  178.0520  143.1310 C   0  0  0  0  0  0  0  0  0  0  0  0
  185.9390  179.0780  143.7880 C   0  0  0  0  0  3  0  0  0  0  0  0
  189.6010  174.1460  143.7540 N   0  0  0  0  0  0  0  0  0  0  0  0
  186.7720  176.7630  146.5480 C   0  0  0  0  0  3  0  0  0  0  0  0
  188.3530  175.9650  142.1430 C   0  0  0  0  0  0  0  0  0  0  0  0
  189.0280  175.2510  145.8320 C   0  0  0  0  0  2  0  0  0  0  0  0
  190.4940  175.2140  146.2490 C   0  0  0  0  0  2  0  0  0  0  0  0
  191.1580  176.5760  146.0920 C   0  0  0  0  0  2  0  0  0  0  0  0
  192.2080  176.5580  145.0200 C   0  0  0  0  0  0  0  0  0  0  0  0
  193.1840  175.8360  145.1450 O   0  0  0  0  0  0  0  0  0  0  0  0
  192.0750  177.4030  143.7910 C   0  0  1  0  0  3  0  0  0  0  0  0
  191.9860  176.5940  142.6590 O   0  0  0  0  0  1  0  0  0  0  0  0
  190.8630  178.3120  143.8730 C   0  0  0  0  0  1  0  0  0  0  0  0
  1  4  2  0  0  0  0
  2  1  1  0  0  0  0
  2 11  1  0  0  0  0
  3 13  1  0  0  0  0
  4 16  1  0  0  0  0
  5 12  1  0  0  0  0
  6  3  2  0  0  0  0
  6 17  1  0  0  0  0
  7 14  1  6  0  0  0
  7  4  1  0  0  0  0
  7  8  1  0  0  0  0
  8  5  2  0  0  0  0
  9 15  1  0  0  0  0
 10 17  1  0  0  0  0
 10  9  2  0  0  0  0
 11 18  1  0  0  0  0
 13 14  2  0  0  0  0
 13  1  1  0  0  0  0
 15 11  2  0  0  0  0
 16 12  2  0  0  0  0
 17  2  2  0  0  0  0
 18 19  1  0  0  0  0
 20 19  1  0  0  0  0
 21 22  2  0  0  0  0
 21 20  1  0  0  0  0
 23 25  1  1  0  0  0
 23 21  1  0  0  0  0
 24 23  1  0  0  0  0
M  END
>  <MODEL>
3

>  <REMARK>
 VINA RESULT:      -7.4      1.838      4.205
  Name = 
  5 active torsions:
  status: ('A' for Active; 'I' for Inactive)
    1  A    between atoms: C_2  and  C_21
    2  A    between atoms: C_6  and  C_15
    3  A    between atoms: C_6  and  C_23
    4  A    between atoms: C_15  and  C_21
    5  A    between atoms: C_16  and  C_23
                            x       y       z     vdW  Elec       q    Type
                         _______ _______ _______ _____ _____    ______ ____

>  <TORSDO>
F 5

$$$$
=
 OpenBabel11052417303D

 25 28  0  0  1  0  0  0  0  0999 V2000
  186.6390  177.5040  143.5640 C   0  0  0  0  0  0  0  0  0  0  0  0
  187.3620  176.5920  142.7380 C   0  0  0  0  0  0  0  0  0  0  0  0
  185.6750  178.5980  141.6180 C   0  0  0  0  0  3  0  0  0  0  0  0
  186.4280  177.6190  145.0160 C   0  0  0  0  0  0  0  0  0  0  0  0
  185.5840  178.2100  147.6100 C   0  0  0  0  0  3  0  0  0  0  0  0
  186.3150  177.6760  140.7910 C   0  0  0  0  0  3  0  0  0  0  0  0
  185.5900  178.6970  145.2560 C   0  0  2  0  0  3  0  0  0  0  0  0
  185.1590  179.0140  146.5450 C   0  0  0  0  0  3  0  0  0  0  0  0
  188.5710  174.8440  140.9460 C   0  0  0  0  0  3  0  0  0  0  0  0
  187.7330  175.8010  140.4870 N   0  0  0  0  0  0  0  0  0  0  0  0
  188.2980  175.6170  143.1740 C   0  0  0  0  0  0  0  0  0  0  0  0
  186.4090  177.0980  147.3720 C   0  0  0  0  0  3  0  0  0  0  0  0
  185.8500  178.5010  142.9920 C   0  0  0  0  0  0  0  0  0  0  0  0
  185.1650  179.3660  143.9990 C   0  0  0  0  0  3  0  0  0  0  0  0
  188.8540  174.7700  142.2680 N   0  0  0  0  0  0  0  0  0  0  0  0
  186.8210  176.7900  146.0690 C   0  0  0  0  0  3  0  0  0  0  0  0
  187.1390  176.6790  141.3330 C   0  0  0  0  0  0  0  0  0  0  0  0
  188.8430  175.5560  144.5600 C   0  0  0  0  0  2  0  0  0  0  0  0
  189.6040  174.2550  144.7950 C   0  0  0  0  0  2  0  0  0  0  0  0
  190.7150  174.4330  145.8220 C   0  0  0  0  0  2  0  0  0  0  0  0
  190.2030  175.0560  147.0870 C   0  0  0  0  0  0  0  0  0  0  0  0
  189.2230  174.5820  147.6390 O   0  0  0  0  0  0  0  0  0  0  0  0
  190.8810  176.2450  147.6940 C   0  0  1  0  0  3  0  0  0  0  0  0
  192.1910  176.3430  147.2250 O   0  0  0  0  0  1  0  0  0  0  0  0
  190.1270  177.5270  147.3930 C   0  0  0  0  0  1  0  0  0  0  0  0
  1  4  2  0  0  0  0
  2 11  1  0  0  0  0
  2  1  1  0  0  0  0
  3 13  1  0  0  0  0
  4  7  1  0  0  0  0
  4 16  1  0  0  0  0
  6 17  1  0  0  0  0
  6  3  2  0  0  0  0
  7 14  1  6  0  0  0
  7  8  1  0  0  0  0
  8  5  2  0  0  0  0
  9 15  1  0  0  0  0
 10  9  2  0  0  0  0
 10 17  1  0  0  0  0
 11 18  1  0  0  0  0
 12  5  1  0  0  0  0
 13  1  1  0  0  0  0
 13 14  2  0  0  0  0
 15 11  2  0  0  0  0
 16 12  2  0  0  0  0
 17  2  2  0  0  0  0
 18 19  1  0  0  0  0
 19 20  1  0  0  0  0
 20 21  1  0  0  0  0
 21 22  2  0  0  0  0
 21 23  1  0  0  0  0
 23 25  1  6  0  0  0
 24 23  1  0  0  0  0
M  END
>  <MODEL>
4

>  <REMARK>
 VINA RESULT:      -7.3      2.655      4.711
  Name = 
  5 active torsions:
  status: ('A' for Active; 'I' for Inactive)
    1  A    between atoms: C_2  and  C_21
    2  A    between atoms: C_6  and  C_15
    3  A    between atoms: C_6  and  C_23
    4  A    between atoms: C_15  and  C_21
    5  A    between atoms: C_16  and  C_23
                            x       y       z     vdW  Elec       q    Type
                         _______ _______ _______ _____ _____    ______ ____

>  <TORSDO>
F 5

$$$$
=
 OpenBabel11052417303D

 25 28  0  0  1  0  0  0  0  0999 V2000
  185.5080  178.2950  143.8680 C   0  0  0  0  0  0  0  0  0  0  0  0
  186.1190  177.9610  142.6220 C   0  0  0  0  0  0  0  0  0  0  0  0
  183.3660  178.6800  142.7820 C   0  0  0  0  0  3  0  0  0  0  0  0
  185.9560  178.2510  145.2680 C   0  0  0  0  0  0  0  0  0  0  0  0
  186.2200  178.2270  148.0470 C   0  0  0  0  0  3  0  0  0  0  0  0
  183.9210  178.2910  141.5640 C   0  0  0  0  0  3  0  0  0  0  0  0
  184.9110  178.6640  146.0790 C   0  0  0  0  0  0  0  0  0  0  0  0
  185.0210  178.6650  147.4700 C   0  0  0  0  0  3  0  0  0  0  0  0
  187.0670  177.2250  140.1130 C   0  0  0  0  0  3  0  0  0  0  0  0
  185.7630  177.5480  140.2700 N   0  0  0  0  0  0  0  0  0  0  0  0
  187.4940  177.6780  142.4040 C   0  0  0  0  0  0  0  0  0  0  0  0
  187.2740  177.7780  147.2340 C   0  0  0  0  0  3  0  0  0  0  0  0
  184.1690  178.6800  143.9150 C   0  0  0  0  0  0  0  0  0  0  0  0
  183.6910  178.9930  145.2950 C   0  0  0  0  0  3  0  0  0  0  0  0
  187.9140  177.3050  141.1660 N   0  0  0  0  0  0  0  0  0  0  0  0
  187.1390  177.7740  145.8400 C   0  0  0  0  0  3  0  0  0  0  0  0
  185.2720  177.9260  141.4760 C   0  0  1  0  0  3  0  0  0  0  0  0
  188.5580  177.9170  143.4210 C   0  0  0  0  0  2  0  0  0  0  0  0
  189.9120  177.4160  142.9290 C   0  0  0  0  0  2  0  0  0  0  0  0
  190.8140  177.0050  144.0860 C   0  0  0  0  0  2  0  0  0  0  0  0
  190.3200  175.7550  144.7520 C   0  0  0  0  0  0  0  0  0  0  0  0
  189.7980  174.8790  144.0800 O   0  0  0  0  0  0  0  0  0  0  0  0
  190.4680  175.5550  146.2290 C   0  0  1  0  0  3  0  0  0  0  0  0
  190.5470  176.7870  146.8750 O   0  0  0  0  0  1  0  0  0  0  0  0
  189.3160  174.7460  146.7960 C   0  0  0  0  0  1  0  0  0  0  0  0
  1 13  1  0  0  0  0
  1  4  1  0  0  0  0
  2  1  2  0  0  0  0
  3 13  1  0  0  0  0
  4 16  2  0  0  0  0
  4  7  1  0  0  0  0
  6  3  2  0  0  0  0
  7  8  2  0  0  0  0
  8  5  1  0  0  0  0
  9 10  2  0  0  0  0
  9 15  1  0  0  0  0
 10 17  1  0  0  0  0
 11  2  1  0  0  0  0
 11 18  1  0  0  0  0
 12  5  2  0  0  0  0
 13 14  2  0  0  0  0
 14  7  1  0  0  0  0
 15 11  2  0  0  0  0
 16 12  1  0  0  0  0
 17  6  1  6  0  0  0
 17  2  1  0  0  0  0
 19 18  1  0  0  0  0
 19 20  1  0  0  0  0
 20 21  1  0  0  0  0
 21 23  1  0  0  0  0
 22 21  2  0  0  0  0
 23 25  1  1  0  0  0
 23 24  1  0  0  0  0
M  END
>  <MODEL>
5

>  <REMARK>
 VINA RESULT:      -7.1      2.190      4.436
  Name = 
  5 active torsions:
  status: ('A' for Active; 'I' for Inactive)
    1  A    between atoms: C_2  and  C_21
    2  A    between atoms: C_6  and  C_15
    3  A    between atoms: C_6  and  C_23
    4  A    between atoms: C_15  and  C_21
    5  A    between atoms: C_16  and  C_23
                            x       y       z     vdW  Elec       q    Type
                         _______ _______ _______ _____ _____    ______ ____

>  <TORSDO>
F 5

$$$$
=
 OpenBabel11052417303D

 25 28  0  0  1  0  0  0  0  0999 V2000
  186.5090  177.2970  144.9220 C   0  0  0  0  0  0  0  0  0  0  0  0
  185.8640  177.6380  143.6950 C   0  0  0  0  0  0  0  0  0  0  0  0
  184.7530  178.3740  146.2140 C   0  0  0  0  0  3  0  0  0  0  0  0
  187.6780  176.4730  145.2660 C   0  0  0  0  0  0  0  0  0  0  0  0
  189.6730  174.9390  146.4760 C   0  0  0  0  0  3  0  0  0  0  0  0
  184.0680  178.6570  145.0330 C   0  0  0  0  0  3  0  0  0  0  0  0
  187.8240  176.4680  146.6440 C   0  0  0  0  0  0  0  0  0  0  0  0
  188.8160  175.7130  147.2710 C   0  0  0  0  0  3  0  0  0  0  0  0
  184.3730  178.2910  141.4400 C   0  0  0  0  0  3  0  0  0  0  0  0
  183.8920  178.5820  142.6700 N   0  0  0  0  0  0  0  0  0  0  0  0
  186.3640  177.4070  142.3850 C   0  0  1  0  0  3  0  0  0  0  0  0
  189.5130  174.9150  145.0810 C   0  0  0  0  0  3  0  0  0  0  0  0
  185.9660  177.7020  146.1400 C   0  0  0  0  0  0  0  0  0  0  0  0
  186.7660  177.2630  147.3220 C   0  0  0  0  0  3  0  0  0  0  0  0
  185.5970  177.7250  141.3090 N   0  0  0  0  0  0  0  0  0  0  0  0
  188.5020  175.6710  144.4710 C   0  0  0  0  0  3  0  0  0  0  0  0
  184.6010  178.2900  143.7890 C   0  0  0  0  0  0  0  0  0  0  0  0
  187.7620  176.9770  142.0980 C   0  0  0  0  0  2  0  0  0  0  0  0
  187.8160  176.0530  140.8860 C   0  0  0  0  0  2  0  0  0  0  0  0
  187.8710  174.5870  141.2980 C   0  0  0  0  0  2  0  0  0  0  0  0
  189.0270  173.8770  140.6570 C   0  0  0  0  0  0  0  0  0  0  0  0
  189.2050  173.9800  139.4540 O   0  0  0  0  0  0  0  0  0  0  0  0
  189.9750  173.0510  141.4700 C   0  0  1  0  0  3  0  0  0  0  0  0
  190.9590  173.8630  142.0330 O   0  0  0  0  0  1  0  0  0  0  0  0
  189.2490  172.2860  142.5610 C   0  0  0  0  0  1  0  0  0  0  0  0
  1  4  1  0  0  0  0
  1 13  1  0  0  0  0
  2 17  1  0  0  0  0
  2  1  2  0  0  0  0
  4  7  1  0  0  0  0
  5  8  1  0  0  0  0
  6  3  2  0  0  0  0
  7  8  2  0  0  0  0
  7 14  1  0  0  0  0
  9 10  1  0  0  0  0
 10 17  2  0  0  0  0
 11 18  1  6  0  0  0
 11  2  1  0  0  0  0
 12  5  2  0  0  0  0
 13  3  1  0  0  0  0
 13 14  2  0  0  0  0
 15  9  2  0  0  0  0
 15 11  1  0  0  0  0
 16 12  1  0  0  0  0
 16  4  2  0  0  0  0
 17  6  1  0  0  0  0
 19 20  1  0  0  0  0
 19 18  1  0  0  0  0
 21 20  1  0  0  0  0
 21 23  1  0  0  0  0
 22 21  2  0  0  0  0
 23 24  1  0  0  0  0
 23 25  1  1  0  0  0
M  END
>  <MODEL>
6

>  <REMARK>
 VINA RESULT:      -6.7      2.108      4.139
  Name = 
  5 active torsions:
  status: ('A' for Active; 'I' for Inactive)
    1  A    between atoms: C_2  and  C_21
    2  A    between atoms: C_6  and  C_15
    3  A    between atoms: C_6  and  C_23
    4  A    between atoms: C_15  and  C_21
    5  A    between atoms: C_16  and  C_23
                            x       y       z     vdW  Elec       q    Type
                         _______ _______ _______ _____ _____    ______ ____

>  <TORSDO>
F 5

$$$$
=
 OpenBabel11052417303D

 25 28  0  0  1  0  0  0  0  0999 V2000
  186.6040  177.3680  143.8140 C   0  0  0  0  0  0  0  0  0  0  0  0
  186.5760  177.7190  145.1970 C   0  0  2  0  0  3  0  0  0  0  0  0
  185.0090  179.1230  143.2740 C   0  0  0  0  0  3  0  0  0  0  0  0
  187.4100  176.4330  143.0140 C   0  0  0  0  0  0  0  0  0  0  0  0
  188.7200  174.9670  141.0320 C   0  0  0  0  0  3  0  0  0  0  0  0
  185.0170  179.5310  144.6070 C   0  0  0  0  0  3  0  0  0  0  0  0
  187.0210  176.5360  141.6880 C   0  0  0  0  0  0  0  0  0  0  0  0
  187.6580  175.8110  140.6810 C   0  0  0  0  0  3  0  0  0  0  0  0
  186.4660  178.6560  147.8130 C   0  0  0  0  0  3  0  0  0  0  0  0
  185.7720  179.2930  146.8420 N   0  0  0  0  0  0  0  0  0  0  0  0
  187.2380  177.0400  146.2540 C   0  0  0  0  0  0  0  0  0  0  0  0
  189.1410  174.8790  142.3690 C   0  0  0  0  0  3  0  0  0  0  0  0
  185.8000  178.0450  142.8980 C   0  0  0  0  0  0  0  0  0  0  0  0
  185.9520  177.5510  141.4970 C   0  0  0  0  0  3  0  0  0  0  0  0
  187.1730  177.5400  147.5170 N   0  0  0  0  0  0  0  0  0  0  0  0
  188.4960  175.6250  143.3640 C   0  0  0  0  0  3  0  0  0  0  0  0
  185.7930  178.8530  145.5590 C   0  0  0  0  0  0  0  0  0  0  0  0
  187.8820  175.7040  146.1040 C   0  0  0  0  0  2  0  0  0  0  0  0
  188.5920  175.2870  147.3880 C   0  0  0  0  0  2  0  0  0  0  0  0
  190.0770  175.0380  147.1530 C   0  0  0  0  0  2  0  0  0  0  0  0
  190.8300  176.3220  146.9720 C   0  0  0  0  0  0  0  0  0  0  0  0
  190.8950  177.1190  147.8950 O   0  0  0  0  0  0  0  0  0  0  0  0
  191.5170  176.6410  145.6800 C   0  0  1  0  0  3  0  0  0  0  0  0
  191.7030  175.4780  144.9350 O   0  0  0  0  0  1  0  0  0  0  0  0
  190.7300  177.6550  144.8700 C   0  0  0  0  0  1  0  0  0  0  0  0
  2  1  1  1  0  0  0
  2 17  1  0  0  0  0
  2 11  1  0  0  0  0
  3  6  1  0  0  0  0
  4 16  1  0  0  0  0
  4  1  2  0  0  0  0
  5 12  1  0  0  0  0
  6 17  2  0  0  0  0
  7  4  1  0  0  0  0
  8  5  2  0  0  0  0
  8  7  1  0  0  0  0
 10  9  2  0  0  0  0
 11 15  2  0  0  0  0
 12 16  2  0  0  0  0
 13  3  2  0  0  0  0
 13  1  1  0  0  0  0
 14  7  2  0  0  0  0
 14 13  1  0  0  0  0
 15  9  1  0  0  0  0
 17 10  1  0  0  0  0
 18 11  1  0  0  0  0
 18 19  1  0  0  0  0
 20 19  1  0  0  0  0
 21 20  1  0  0  0  0
 21 22  2  0  0  0  0
 23 25  1  6  0  0  0
 23 21  1  0  0  0  0
 24 23  1  0  0  0  0
M  END
>  <MODEL>
7

>  <REMARK>
 VINA RESULT:      -6.7      2.536      5.611
  Name = 
  5 active torsions:
  status: ('A' for Active; 'I' for Inactive)
    1  A    between atoms: C_2  and  C_21
    2  A    between atoms: C_6  and  C_15
    3  A    between atoms: C_6  and  C_23
    4  A    between atoms: C_15  and  C_21
    5  A    between atoms: C_16  and  C_23
                            x       y       z     vdW  Elec       q    Type
                         _______ _______ _______ _____ _____    ______ ____

>  <TORSDO>
F 5

$$$$
=
 OpenBabel11052417303D

 25 28  0  0  1  0  0  0  0  0999 V2000
  186.6920  177.1440  144.5060 C   0  0  0  0  0  0  0  0  0  0  0  0
  186.5670  177.4110  143.1090 C   0  0  0  0  0  0  0  0  0  0  0  0
  184.6000  178.2930  144.9740 C   0  0  0  0  0  3  0  0  0  0  0  0
  187.6260  176.3440  145.3120 C   0  0  0  0  0  0  0  0  0  0  0  0
  188.9810  174.8870  147.2720 C   0  0  0  0  0  3  0  0  0  0  0  0
  184.4190  178.5050  143.6080 C   0  0  0  0  0  3  0  0  0  0  0  0
  187.2390  176.4200  146.6410 C   0  0  0  0  0  0  0  0  0  0  0  0
  187.9040  175.7050  147.6380 C   0  0  0  0  0  3  0  0  0  0  0  0
  186.0540  177.9280  140.4260 C   0  0  0  0  0  3  0  0  0  0  0  0
  185.1500  178.2900  141.3630 N   0  0  0  0  0  0  0  0  0  0  0  0
  187.5200  177.1050  142.1020 C   0  0  1  0  0  3  0  0  0  0  0  0
  189.3610  174.7800  145.9230 C   0  0  0  0  0  3  0  0  0  0  0  0
  185.7360  177.6190  145.4030 C   0  0  0  0  0  0  0  0  0  0  0  0
  186.0200  177.2520  146.8220 C   0  0  0  0  0  3  0  0  0  0  0  0
  187.2250  177.3570  140.8000 N   0  0  0  0  0  0  0  0  0  0  0  0
  188.6720  175.4980  144.9360 C   0  0  0  0  0  3  0  0  0  0  0  0
  185.3760  178.0660  142.6820 C   0  0  0  0  0  0  0  0  0  0  0  0
  188.9140  176.6600  142.3910 C   0  0  0  0  0  2  0  0  0  0  0  0
  189.8720  177.8460  142.4380 C   0  0  0  0  0  2  0  0  0  0  0  0
  190.7570  177.8030  143.6770 C   0  0  0  0  0  2  0  0  0  0  0  0
  191.8990  176.8440  143.5070 C   0  0  0  0  0  0  0  0  0  0  0  0
  192.2120  176.4730  142.3870 O   0  0  0  0  0  0  0  0  0  0  0  0
  192.6700  176.3420  144.6880 C   0  0  1  0  0  3  0  0  0  0  0  0
  193.9910  176.7840  144.6220 O   0  0  0  0  0  1  0  0  0  0  0  0
  192.0400  176.7910  145.9930 C   0  0  0  0  0  1  0  0  0  0  0  0
  1  4  1  0  0  0  0
  1 13  1  0  0  0  0
  2  1  2  0  0  0  0
  3 13  1  0  0  0  0
  4  7  1  0  0  0  0
  5  8  1  0  0  0  0
  6  3  2  0  0  0  0
  7 14  1  0  0  0  0
  7  8  2  0  0  0  0
  9 15  2  0  0  0  0
  9 10  1  0  0  0  0
 10 17  2  0  0  0  0
 11 18  1  1  0  0  0
 11  2  1  0  0  0  0
 12  5  2  0  0  0  0
 13 14  2  0  0  0  0
 15 11  1  0  0  0  0
 16  4  2  0  0  0  0
 16 12  1  0  0  0  0
 17  2  1  0  0  0  0
 17  6  1  0  0  0  0
 18 19  1  0  0  0  0
 19 20  1  0  0  0  0
 21 20  1  0  0  0  0
 21 23  1  0  0  0  0
 22 21  2  0  0  0  0
 23 25  1  1  0  0  0
 24 23  1  0  0  0  0
M  END
>  <MODEL>
8

>  <REMARK>
 VINA RESULT:      -6.7      2.223      4.519
  Name = 
  5 active torsions:
  status: ('A' for Active; 'I' for Inactive)
    1  A    between atoms: C_2  and  C_21
    2  A    between atoms: C_6  and  C_15
    3  A    between atoms: C_6  and  C_23
    4  A    between atoms: C_15  and  C_21
    5  A    between atoms: C_16  and  C_23
                            x       y       z     vdW  Elec       q    Type
                         _______ _______ _______ _____ _____    ______ ____

>  <TORSDO>
F 5

$$$$
=
 OpenBabel11052417303D

 25 28  0  0  1  0  0  0  0  0999 V2000
  190.7410  176.8740  145.1540 C   0  0  0  0  0  0  0  0  0  0  0  0
  192.1420  176.6020  145.1760 C   0  0  2  0  0  3  0  0  0  0  0  0
  190.5910  176.6130  147.5670 C   0  0  0  0  0  3  0  0  0  0  0  0
  189.8020  177.3090  144.1080 C   0  0  0  0  0  0  0  0  0  0  0  0
  187.6580  178.2520  142.5890 C   0  0  0  0  0  3  0  0  0  0  0  0
  191.9690  176.4150  147.6240 C   0  0  0  0  0  3  0  0  0  0  0  0
  188.5450  177.4490  144.6740 C   0  0  0  0  0  0  0  0  0  0  0  0
  187.4570  177.9150  143.9330 C   0  0  0  0  0  3  0  0  0  0  0  0
  194.8740  176.1780  145.4700 C   0  0  0  0  0  3  0  0  0  0  0  0
  194.0810  176.2270  146.5650 N   0  0  0  0  0  0  0  0  0  0  0  0
  192.9960  176.4800  144.0480 C   0  0  0  0  0  0  0  0  0  0  0  0
  188.9350  178.1410  142.0150 C   0  0  0  0  0  3  0  0  0  0  0  0
  189.9960  176.8350  146.3320 C   0  0  0  0  0  0  0  0  0  0  0  0
  188.5490  177.1420  146.1290 C   0  0  0  0  0  3  0  0  0  0  0  0
  194.3300  176.2900  144.2350 N   0  0  0  0  0  0  0  0  0  0  0  0
  190.0170  177.6830  142.7790 C   0  0  0  0  0  3  0  0  0  0  0  0
  192.7430  176.4170  146.4550 C   0  0  0  0  0  0  0  0  0  0  0  0
  192.5050  176.3870  142.6440 C   0  0  0  0  0  2  0  0  0  0  0  0
  192.7060  174.9840  142.0810 C   0  0  0  0  0  2  0  0  0  0  0  0
  191.9380  173.9410  142.8850 C   0  0  0  0  0  2  0  0  0  0  0  0
  190.4770  173.9460  142.5420 C   0  0  0  0  0  0  0  0  0  0  0  0
  190.1180  174.3260  141.4380 O   0  0  0  0  0  0  0  0  0  0  0  0
  189.4500  173.4800  143.5260 C   0  0  1  0  0  3  0  0  0  0  0  0
  188.9430  172.2400  143.1410 O   0  0  0  0  0  1  0  0  0  0  0  0
  190.0250  173.3920  144.9270 C   0  0  0  0  0  1  0  0  0  0  0  0
  1  2  1  0  0  0  0
  1 13  1  0  0  0  0
  2 11  1  6  0  0  0
  2 17  1  0  0  0  0
  3  6  1  0  0  0  0
  4  7  1  0  0  0  0
  4  1  2  0  0  0  0
  5  8  2  0  0  0  0
  7 14  2  0  0  0  0
  8  7  1  0  0  0  0
  9 10  2  0  0  0  0
 11 15  2  0  0  0  0
 12  5  1  0  0  0  0
 12 16  2  0  0  0  0
 13  3  2  0  0  0  0
 14 13  1  0  0  0  0
 15  9  1  0  0  0  0
 16  4  1  0  0  0  0
 17 10  1  0  0  0  0
 17  6  2  0  0  0  0
 18 11  1  0  0  0  0
 19 18  1  0  0  0  0
 19 20  1  0  0  0  0
 21 20  1  0  0  0  0
 21 23  1  0  0  0  0
 22 21  2  0  0  0  0
 23 25  1  1  0  0  0
 24 23  1  0  0  0  0
M  END
>  <MODEL>
9

>  <REMARK>
 VINA RESULT:      -6.6      2.219      3.614
  Name = 
  5 active torsions:
  status: ('A' for Active; 'I' for Inactive)
    1  A    between atoms: C_2  and  C_21
    2  A    between atoms: C_6  and  C_15
    3  A    between atoms: C_6  and  C_23
    4  A    between atoms: C_15  and  C_21
    5  A    between atoms: C_16  and  C_23
                            x       y       z     vdW  Elec       q    Type
                         _______ _______ _______ _____ _____    ______ ____

>  <TORSDO>
F 5

$$$$
