=
 OpenBabel11052418093D

 28 32  0  0  1  0  0  0  0  0999 V2000
  189.8040  173.7920  143.1670 N   0  0  0  0  0  0  0  0  0  0  0  0
  187.4080  177.1620  146.2440 C   0  0  0  0  0  3  0  0  0  0  0  0
  187.1500  176.4880  140.2730 O   0  0  0  0  0  0  0  0  0  0  0  0
  185.7610  178.2260  144.6970 C   0  0  0  0  0  0  0  0  0  0  0  0
  187.2820  176.4020  143.8420 C   0  0  0  0  0  0  0  0  0  0  0  0
  185.9410  178.9850  146.9940 C   0  0  0  0  0  0  0  0  0  0  0  0
  186.5460  176.9740  145.0230 C   0  0  1  0  0  3  0  0  0  0  0  0
  185.9270  177.7770  142.3650 O   0  0  0  0  0  0  0  0  0  0  0  0
  185.3350  179.0910  145.8070 C   0  0  0  0  0  3  0  0  0  0  0  0
  188.4630  175.1670  141.6460 C   0  0  0  0  0  0  0  0  0  0  0  0
  188.2120  175.4250  144.0150 N   0  0  0  0  0  2  0  0  0  0  0  0
  185.4360  178.5310  143.4390 C   0  0  0  0  0  3  0  0  0  0  0  0
  190.0310  173.5360  140.7210 C   0  0  0  0  0  3  0  0  0  0  0  0
  187.4890  176.1570  141.4410 C   0  0  0  0  0  0  0  0  0  0  0  0
  189.1180  174.4850  140.5120 C   0  0  0  0  0  3  0  0  0  0  0  0
  185.5640  179.7950  148.0130 F   0  0  0  0  0  0  0  0  0  0  0  0
  187.0890  178.0670  147.1770 C   0  0  0  0  0  3  0  0  0  0  0  0
  186.8930  176.7780  142.5440 C   0  0  0  0  0  0  0  0  0  0  0  0
  190.3930  173.1620  142.0570 N   0  0  0  0  0  2  0  0  0  0  0  0
  188.8160  174.8130  142.9590 C   0  0  0  0  0  0  0  0  0  0  0  0
  190.1600  173.3480  144.5080 C   0  0  0  0  0  2  0  0  0  0  0  0
  191.1630  174.2720  145.1070 C   0  0  0  0  0  0  0  0  0  0  0  0
  193.0250  176.0500  146.2020 C   0  0  0  0  0  0  0  0  0  0  0  0
  190.8900  174.9140  146.3200 C   0  0  0  0  0  3  0  0  0  0  0  0
  192.3660  174.5280  144.4390 C   0  0  0  0  0  3  0  0  0  0  0  0
  193.2970  175.4150  144.9870 C   0  0  0  0  0  3  0  0  0  0  0  0
  194.1910  177.1610  146.8880 Cl  0  0  0  0  0  0  0  0  0  0  0  0
  191.8210  175.8010  146.8680 C   0  0  0  0  0  3  0  0  0  0  0  0
  1 21  1  0  0  0  0
  2 17  2  0  0  0  0
  3 14  2  0  0  0  0
  4  7  1  0  0  0  0
  4  9  1  0  0  0  0
  5 11  1  0  0  0  0
  5  7  1  0  0  0  0
  6 17  1  0  0  0  0
  6 16  1  0  0  0  0
  7  2  1  1  0  0  0
  8 18  1  0  0  0  0
  8 12  1  0  0  0  0
  9  6  2  0  0  0  0
 10 20  2  0  0  0  0
 12  4  2  0  0  0  0
 13 19  1  0  0  0  0
 14 10  1  0  0  0  0
 14 18  1  0  0  0  0
 15 13  2  0  0  0  0
 15 10  1  0  0  0  0
 18  5  2  0  0  0  0
 19  1  1  0  0  0  0
 20  1  1  0  0  0  0
 20 11  1  0  0  0  0
 21 22  1  0  0  0  0
 22 24  1  0  0  0  0
 23 28  1  0  0  0  0
 23 27  1  0  0  0  0
 24 28  2  0  0  0  0
 25 26  1  0  0  0  0
 25 22  2  0  0  0  0
 26 23  2  0  0  0  0
M  END
>  <MODEL>
1

>  <REMARK>
 VINA RESULT:      -8.1      0.000      0.000
  Name = 
  2 active torsions:
  status: ('A' for Active; 'I' for Inactive)
    1  A    between atoms: N_1  and  C_2
    2  A    between atoms: C_2  and  C_3
                            x       y       z     vdW  Elec       q    Type
                         _______ _______ _______ _____ _____    ______ ____

>  <TORSDO>
F 2

$$$$
=
 OpenBabel11052418093D

 28 32  0  0  0  0  0  0  0  0999 V2000
  189.8170  172.3960  143.0350 N   0  0  0  0  0  0  0  0  0  0  0  0
  187.4560  176.8110  144.2560 C   0  0  0  0  0  3  0  0  0  0  0  0
  188.6170  174.3860  138.8770 O   0  0  0  0  0  0  0  0  0  0  0  0
  186.5200  177.5470  142.0600 C   0  0  0  0  0  0  0  0  0  0  0  0
  187.8010  175.3770  142.2100 C   0  0  0  0  0  0  0  0  0  0  0  0
  186.2540  178.9420  144.0260 C   0  0  0  0  0  0  0  0  0  0  0  0
  186.9190  176.3670  142.9210 C   0  0  0  0  0  0  0  0  0  0  0  0
  187.1870  176.3910  140.0890 O   0  0  0  0  0  0  0  0  0  0  0  0
  186.0100  178.7540  142.7250 C   0  0  0  0  0  2  0  0  0  0  0  0
  189.2280  173.3960  140.8770 C   0  0  0  0  0  0  0  0  0  0  0  0
  188.4320  174.3920  142.9050 N   0  0  0  0  0  2  0  0  0  0  0  0
  186.6020  177.4910  140.7300 C   0  0  0  0  0  3  0  0  0  0  0  0
  190.6110  171.3800  140.9280 C   0  0  0  0  0  3  0  0  0  0  0  0
  188.5660  174.3870  140.1360 C   0  0  0  0  0  0  0  0  0  0  0  0
  189.9990  172.3250  140.2130 C   0  0  0  0  0  3  0  0  0  0  0  0
  185.8020  180.0630  144.6370 F   0  0  0  0  0  0  0  0  0  0  0  0
  187.1000  177.9900  144.7820 C   0  0  0  0  0  3  0  0  0  0  0  0
  187.8470  175.3830  140.8050 C   0  0  0  0  0  0  0  0  0  0  0  0
  190.5300  171.3890  142.3590 N   0  0  0  0  0  2  0  0  0  0  0  0
  189.1490  173.4180  142.2790 C   0  0  0  0  0  0  0  0  0  0  0  0
  189.7150  172.3410  144.4860 C   0  0  0  0  0  2  0  0  0  0  0  0
  190.6300  173.3420  145.1050 C   0  0  0  0  0  0  0  0  0  0  0  0
  192.3420  175.2520  146.2200 C   0  0  0  0  0  0  0  0  0  0  0  0
  190.1170  174.3390  145.9420 C   0  0  0  0  0  3  0  0  0  0  0  0
  192.0000  173.3070  144.8200 C   0  0  0  0  0  3  0  0  0  0  0  0
  192.8550  174.2610  145.3790 C   0  0  0  0  0  3  0  0  0  0  0  0
  193.4150  176.4460  146.9190 Cl  0  0  0  0  0  0  0  0  0  0  0  0
  190.9730  175.2930  146.5000 C   0  0  0  0  0  3  0  0  0  0  0  0
  1 21  1  0  0  0  0
  2 17  1  0  0  0  0
  3 14  2  0  0  0  0
  4  9  1  0  0  0  0
  4  7  1  0  0  0  0
  5 11  1  0  0  0  0
  5  7  1  0  0  0  0
  6 16  1  0  0  0  0
  6 17  2  0  0  0  0
  7  2  2  0  0  0  0
  8 12  1  0  0  0  0
  8 18  1  0  0  0  0
  9  6  1  0  0  0  0
 10 20  2  0  0  0  0
 12  4  2  0  0  0  0
 13 19  1  0  0  0  0
 14 18  1  0  0  0  0
 14 10  1  0  0  0  0
 15 10  1  0  0  0  0
 15 13  2  0  0  0  0
 18  5  2  0  0  0  0
 19  1  1  0  0  0  0
 20 11  1  0  0  0  0
 20  1  1  0  0  0  0
 21 22  1  0  0  0  0
 22 24  1  0  0  0  0
 23 28  1  0  0  0  0
 23 27  1  0  0  0  0
 24 28  2  0  0  0  0
 25 22  2  0  0  0  0
 25 26  1  0  0  0  0
 26 23  2  0  0  0  0
M  END
>  <MODEL>
2

>  <REMARK>
 VINA RESULT:      -7.9      1.506      2.165
  Name = 
  2 active torsions:
  status: ('A' for Active; 'I' for Inactive)
    1  A    between atoms: N_1  and  C_2
    2  A    between atoms: C_2  and  C_3
                            x       y       z     vdW  Elec       q    Type
                         _______ _______ _______ _____ _____    ______ ____

>  <TORSDO>
F 2

$$$$
=
 OpenBabel11052418093D

 28 32  0  0  0  0  0  0  0  0999 V2000
  187.4160  176.6110  146.6940 N   0  0  0  0  0  0  0  0  0  0  0  0
  188.3740  173.9170  142.4070 C   0  0  0  0  0  3  0  0  0  0  0  0
  185.8660  179.3380  143.1100 O   0  0  0  0  0  0  0  0  0  0  0  0
  187.9140  175.5870  140.6070 C   0  0  0  0  0  0  0  0  0  0  0  0
  187.6780  176.2600  143.0290 C   0  0  0  0  0  0  0  0  0  0  0  0
  188.5240  173.3120  140.0290 C   0  0  0  0  0  0  0  0  0  0  0  0
  188.3780  175.3760  142.0330 C   0  0  0  0  0  0  0  0  0  0  0  0
  186.8890  177.6520  141.2000 O   0  0  0  0  0  0  0  0  0  0  0  0
  188.2120  174.5450  139.6150 C   0  0  0  0  0  2  0  0  0  0  0  0
  186.5940  178.0340  144.8780 C   0  0  0  0  0  0  0  0  0  0  0  0
  187.8070  176.0330  144.3640 N   0  0  0  0  0  2  0  0  0  0  0  0
  187.2740  176.7010  140.2460 C   0  0  0  0  0  3  0  0  0  0  0  0
  186.1760  178.6870  147.1960 C   0  0  0  0  0  3  0  0  0  0  0  0
  186.4670  178.3030  143.5060 C   0  0  0  0  0  0  0  0  0  0  0  0
  186.0350  178.9460  145.8960 C   0  0  0  0  0  3  0  0  0  0  0  0
  188.7790  172.3440  139.1170 F   0  0  0  0  0  0  0  0  0  0  0  0
  188.4920  172.9680  141.4700 C   0  0  0  0  0  3  0  0  0  0  0  0
  187.0130  177.4120  142.5750 C   0  0  0  0  0  0  0  0  0  0  0  0
  186.8760  177.5130  147.6280 N   0  0  0  0  0  2  0  0  0  0  0  0
  187.2750  176.8780  145.2900 C   0  0  0  0  0  0  0  0  0  0  0  0
  188.1640  175.4570  147.1730 C   0  0  0  0  0  2  0  0  0  0  0  0
  189.6280  175.6870  147.0080 C   0  0  0  0  0  0  0  0  0  0  0  0
  192.3840  176.0890  146.7450 C   0  0  0  0  0  0  0  0  0  0  0  0
  190.3930  174.8080  146.2330 C   0  0  0  0  0  3  0  0  0  0  0  0
  190.2450  176.7620  147.6580 C   0  0  0  0  0  3  0  0  0  0  0  0
  191.6210  176.9640  147.5250 C   0  0  0  0  0  3  0  0  0  0  0  0
  194.1080  176.3420  146.5800 Cl  0  0  0  0  0  0  0  0  0  0  0  0
  191.7710  175.0110  146.1010 C   0  0  0  0  0  3  0  0  0  0  0  0
  1 21  1  0  0  0  0
  1 19  1  0  0  0  0
  3 14  2  0  0  0  0
  4  7  1  0  0  0  0
  5 11  1  0  0  0  0
  6 17  2  0  0  0  0
  7  2  2  0  0  0  0
  7  5  1  0  0  0  0
  8 18  1  0  0  0  0
  9  6  1  0  0  0  0
  9  4  1  0  0  0  0
 10 20  2  0  0  0  0
 10 15  1  0  0  0  0
 11 20  1  0  0  0  0
 12  4  2  0  0  0  0
 12  8  1  0  0  0  0
 13 19  1  0  0  0  0
 14 10  1  0  0  0  0
 15 13  2  0  0  0  0
 16  6  1  0  0  0  0
 17  2  1  0  0  0  0
 18  5  2  0  0  0  0
 18 14  1  0  0  0  0
 20  1  1  0  0  0  0
 22 21  1  0  0  0  0
 22 25  1  0  0  0  0
 23 26  1  0  0  0  0
 24 22  2  0  0  0  0
 26 25  2  0  0  0  0
 27 23  1  0  0  0  0
 28 24  1  0  0  0  0
 28 23  2  0  0  0  0
M  END
>  <MODEL>
3

>  <REMARK>
 VINA RESULT:      -7.8      2.745      5.348
  Name = 
  2 active torsions:
  status: ('A' for Active; 'I' for Inactive)
    1  A    between atoms: N_1  and  C_2
    2  A    between atoms: C_2  and  C_3
                            x       y       z     vdW  Elec       q    Type
                         _______ _______ _______ _____ _____    ______ ____

>  <TORSDO>
F 2

$$$$
=
 OpenBabel11052418093D

 28 32  0  0  0  0  0  0  0  0999 V2000
  190.7850  177.1320  144.5860 N   0  0  0  0  0  0  0  0  0  0  0  0
  186.5590  177.9010  141.7370 C   0  0  0  0  0  3  0  0  0  0  0  0
  187.1850  177.3730  147.6950 O   0  0  0  0  0  0  0  0  0  0  0  0
  184.8320  178.4200  143.4650 C   0  0  0  0  0  0  0  0  0  0  0  0
  187.2120  177.9650  144.1730 C   0  0  0  0  0  0  0  0  0  0  0  0
  184.2110  178.2910  141.1240 C   0  0  0  0  0  0  0  0  0  0  0  0
  186.2990  178.4910  143.0990 C   0  0  0  0  0  0  0  0  0  0  0  0
  185.3760  178.0910  145.7590 O   0  0  0  0  0  0  0  0  0  0  0  0
  183.8380  178.5190  142.3880 C   0  0  0  0  0  2  0  0  0  0  0  0
  188.9570  177.2360  146.2130 C   0  0  0  0  0  0  0  0  0  0  0  0
  188.5290  177.7430  143.9110 N   0  0  0  0  0  2  0  0  0  0  0  0
  184.4420  178.2960  144.7350 C   0  0  0  0  0  3  0  0  0  0  0  0
  191.2010  176.6290  146.9670 C   0  0  0  0  0  3  0  0  0  0  0  0
  187.6080  177.4820  146.5130 C   0  0  0  0  0  0  0  0  0  0  0  0
  189.9190  176.8450  147.2630 C   0  0  0  0  0  3  0  0  0  0  0  0
  183.2930  178.3630  140.1310 F   0  0  0  0  0  0  0  0  0  0  0  0
  185.5930  177.8590  140.8110 C   0  0  0  0  0  3  0  0  0  0  0  0
  186.7290  177.8510  145.4880 C   0  0  0  0  0  0  0  0  0  0  0  0
  191.6670  176.7720  145.6200 N   0  0  0  0  0  2  0  0  0  0  0  0
  189.4010  177.3720  144.8890 C   0  0  0  0  0  0  0  0  0  0  0  0
  191.3060  177.3180  143.2390 C   0  0  0  0  0  2  0  0  0  0  0  0
  191.7130  176.0070  142.6580 C   0  0  0  0  0  0  0  0  0  0  0  0
  192.4860  173.5270  141.6190 C   0  0  0  0  0  0  0  0  0  0  0  0
  190.7520  175.0190  142.4160 C   0  0  0  0  0  3  0  0  0  0  0  0
  193.0620  175.7490  142.3880 C   0  0  0  0  0  3  0  0  0  0  0  0
  193.4480  174.5110  141.8670 C   0  0  0  0  0  3  0  0  0  0  0  0
  192.9700  171.9760  140.9680 Cl  0  0  0  0  0  0  0  0  0  0  0  0
  191.1390  173.7800  141.8950 C   0  0  0  0  0  3  0  0  0  0  0  0
  1 20  1  0  0  0  0
  1 19  1  0  0  0  0
  2  7  2  0  0  0  0
  4 12  2  0  0  0  0
  5 18  2  0  0  0  0
  6  9  1  0  0  0  0
  7  4  1  0  0  0  0
  7  5  1  0  0  0  0
  9  4  1  0  0  0  0
 10 14  1  0  0  0  0
 10 15  1  0  0  0  0
 11  5  1  0  0  0  0
 11 20  1  0  0  0  0
 12  8  1  0  0  0  0
 13 15  2  0  0  0  0
 14  3  2  0  0  0  0
 16  6  1  0  0  0  0
 17  6  2  0  0  0  0
 17  2  1  0  0  0  0
 18  8  1  0  0  0  0
 18 14  1  0  0  0  0
 19 13  1  0  0  0  0
 20 10  2  0  0  0  0
 21  1  1  0  0  0  0
 22 21  1  0  0  0  0
 23 26  2  0  0  0  0
 23 28  1  0  0  0  0
 24 22  1  0  0  0  0
 25 22  2  0  0  0  0
 26 25  1  0  0  0  0
 27 23  1  0  0  0  0
 28 24  2  0  0  0  0
M  END
>  <MODEL>
4

>  <REMARK>
 VINA RESULT:      -7.7      3.263      4.891
  Name = 
  2 active torsions:
  status: ('A' for Active; 'I' for Inactive)
    1  A    between atoms: N_1  and  C_2
    2  A    between atoms: C_2  and  C_3
                            x       y       z     vdW  Elec       q    Type
                         _______ _______ _______ _____ _____    ______ ____

>  <TORSDO>
F 2

$$$$
=
 OpenBabel11052418093D

 28 32  0  0  0  0  0  0  0  0999 V2000
  189.6360  175.9130  146.8210 N   0  0  0  0  0  0  0  0  0  0  0  0
  188.6580  173.5950  142.3230 C   0  0  0  0  0  3  0  0  0  0  0  0
  193.8870  175.2790  144.7690 O   0  0  0  0  0  0  0  0  0  0  0  0
  190.9410  172.9490  141.5430 C   0  0  0  0  0  0  0  0  0  0  0  0
  190.6620  174.1200  143.7610 C   0  0  0  0  0  0  0  0  0  0  0  0
  189.0070  172.5090  140.1460 C   0  0  0  0  0  0  0  0  0  0  0  0
  190.0500  173.2000  142.7410 C   0  0  0  0  0  0  0  0  0  0  0  0
  192.8310  173.7950  142.7160 O   0  0  0  0  0  0  0  0  0  0  0  0
  190.3290  172.4110  140.3190 C   0  0  0  0  0  2  0  0  0  0  0  0
  191.8380  175.6170  145.7900 C   0  0  0  0  0  0  0  0  0  0  0  0
  189.9070  174.6290  144.7720 N   0  0  0  0  0  2  0  0  0  0  0  0
  192.2530  173.1820  141.5960 C   0  0  0  0  0  3  0  0  0  0  0  0
  191.6450  176.9070  147.8580 C   0  0  0  0  0  3  0  0  0  0  0  0
  192.6420  175.0830  144.7710 C   0  0  0  0  0  0  0  0  0  0  0  0
  192.4180  176.4180  146.8870 C   0  0  0  0  0  3  0  0  0  0  0  0
  188.4430  172.0320  139.0110 F   0  0  0  0  0  0  0  0  0  0  0  0
  188.1670  173.2250  141.1340 C   0  0  0  0  0  3  0  0  0  0  0  0
  192.0520  174.3290  143.7500 C   0  0  0  0  0  0  0  0  0  0  0  0
  190.2330  176.6610  147.8510 N   0  0  0  0  0  2  0  0  0  0  0  0
  190.4550  175.3770  145.7710 C   0  0  0  0  0  0  0  0  0  0  0  0
  188.2060  175.6410  146.8780 C   0  0  0  0  0  2  0  0  0  0  0  0
  187.4460  176.7450  146.2270 C   0  0  0  0  0  0  0  0  0  0  0  0
  186.0610  178.8540  145.0170 C   0  0  0  0  0  0  0  0  0  0  0  0
  187.5330  176.9390  144.8440 C   0  0  0  0  0  3  0  0  0  0  0  0
  186.6720  177.6150  147.0050 C   0  0  0  0  0  3  0  0  0  0  0  0
  185.9790  178.6670  146.4000 C   0  0  0  0  0  3  0  0  0  0  0  0
  185.1940  180.1730  144.2610 Cl  0  0  0  0  0  0  0  0  0  0  0  0
  186.8400  177.9920  144.2400 C   0  0  0  0  0  3  0  0  0  0  0  0
  1 21  1  0  0  0  0
  1 19  1  0  0  0  0
  2  7  2  0  0  0  0
  3 14  2  0  0  0  0
  4 12  2  0  0  0  0
  4  7  1  0  0  0  0
  5 11  1  0  0  0  0
  6  9  1  0  0  0  0
  6 17  2  0  0  0  0
  7  5  1  0  0  0  0
  8 18  1  0  0  0  0
  9  4  1  0  0  0  0
 10 15  1  0  0  0  0
 11 20  1  0  0  0  0
 12  8  1  0  0  0  0
 14 10  1  0  0  0  0
 15 13  2  0  0  0  0
 16  6  1  0  0  0  0
 17  2  1  0  0  0  0
 18  5  2  0  0  0  0
 18 14  1  0  0  0  0
 19 13  1  0  0  0  0
 20 10  2  0  0  0  0
 20  1  1  0  0  0  0
 22 21  1  0  0  0  0
 22 25  1  0  0  0  0
 23 26  1  0  0  0  0
 24 22  2  0  0  0  0
 26 25  2  0  0  0  0
 27 23  1  0  0  0  0
 28 24  1  0  0  0  0
 28 23  2  0  0  0  0
M  END
>  <MODEL>
5

>  <REMARK>
 VINA RESULT:      -7.3      3.906      7.122
  Name = 
  2 active torsions:
  status: ('A' for Active; 'I' for Inactive)
    1  A    between atoms: N_1  and  C_2
    2  A    between atoms: C_2  and  C_3
                            x       y       z     vdW  Elec       q    Type
                         _______ _______ _______ _____ _____    ______ ____

>  <TORSDO>
F 2

$$$$
=
 OpenBabel11052418093D

 28 32  0  0  0  0  0  0  0  0999 V2000
  190.0170  175.7060  146.9350 N   0  0  0  0  0  0  0  0  0  0  0  0
  190.0450  172.1330  143.2210 C   0  0  0  0  0  3  0  0  0  0  0  0
  194.6130  174.9400  145.9460 O   0  0  0  0  0  0  0  0  0  0  0  0
  192.4620  171.5200  143.0830 C   0  0  0  0  0  0  0  0  0  0  0  0
  191.7020  173.2350  144.7710 C   0  0  0  0  0  0  0  0  0  0  0  0
  190.8630  170.5180  141.5590 C   0  0  0  0  0  0  0  0  0  0  0  0
  191.3430  172.0090  143.9760 C   0  0  0  0  0  0  0  0  0  0  0  0
  194.0470  172.8430  144.2680 O   0  0  0  0  0  0  0  0  0  0  0  0
  192.1280  170.6030  141.9840 C   0  0  0  0  0  2  0  0  0  0  0  0
  192.3900  175.3490  146.4440 C   0  0  0  0  0  0  0  0  0  0  0  0
  190.7420  173.9320  145.4370 N   0  0  0  0  0  2  0  0  0  0  0  0
  193.7280  171.8860  143.2950 C   0  0  0  0  0  3  0  0  0  0  0  0
  191.7380  177.1430  147.9710 C   0  0  0  0  0  3  0  0  0  0  0  0
  193.4010  174.6310  145.7860 C   0  0  0  0  0  0  0  0  0  0  0  0
  192.7070  176.4790  147.3400 C   0  0  0  0  0  3  0  0  0  0  0  0
  190.5550  169.6880  140.5340 F   0  0  0  0  0  0  0  0  0  0  0  0
  189.8150  171.3980  142.1260 C   0  0  0  0  0  3  0  0  0  0  0  0
  193.0570  173.5670  144.9450 C   0  0  0  0  0  0  0  0  0  0  0  0
  190.3670  176.7690  147.7880 N   0  0  0  0  0  2  0  0  0  0  0  0
  191.0500  174.9790  146.2510 C   0  0  0  0  0  0  0  0  0  0  0  0
  188.6170  175.3230  146.8150 C   0  0  0  0  0  2  0  0  0  0  0  0
  187.8350  176.4210  146.1790 C   0  0  0  0  0  0  0  0  0  0  0  0
  186.3990  178.5190  145.0110 C   0  0  0  0  0  0  0  0  0  0  0  0
  188.1940  176.8950  144.9130 C   0  0  0  0  0  3  0  0  0  0  0  0
  186.7630  177.0030  146.8640 C   0  0  0  0  0  3  0  0  0  0  0  0
  186.0440  178.0510  146.2800 C   0  0  0  0  0  3  0  0  0  0  0  0
  185.5000  179.8310  144.2810 Cl  0  0  0  0  0  0  0  0  0  0  0  0
  187.4750  177.9430  144.3290 C   0  0  0  0  0  3  0  0  0  0  0  0
  1 19  1  0  0  0  0
  2  7  2  0  0  0  0
  4 12  2  0  0  0  0
  4  7  1  0  0  0  0
  5 18  2  0  0  0  0
  5 11  1  0  0  0  0
  6  9  1  0  0  0  0
  6 17  2  0  0  0  0
  7  5  1  0  0  0  0
  8 18  1  0  0  0  0
  9  4  1  0  0  0  0
 10 15  1  0  0  0  0
 11 20  1  0  0  0  0
 12  8  1  0  0  0  0
 14  3  2  0  0  0  0
 14 10  1  0  0  0  0
 15 13  2  0  0  0  0
 16  6  1  0  0  0  0
 17  2  1  0  0  0  0
 18 14  1  0  0  0  0
 19 13  1  0  0  0  0
 20 10  2  0  0  0  0
 20  1  1  0  0  0  0
 21  1  1  0  0  0  0
 22 21  1  0  0  0  0
 22 25  1  0  0  0  0
 23 26  1  0  0  0  0
 24 22  2  0  0  0  0
 26 25  2  0  0  0  0
 27 23  1  0  0  0  0
 28 24  1  0  0  0  0
 28 23  2  0  0  0  0
M  END
>  <MODEL>
6

>  <REMARK>
 VINA RESULT:      -7.3      4.473      7.830
  Name = 
  2 active torsions:
  status: ('A' for Active; 'I' for Inactive)
    1  A    between atoms: N_1  and  C_2
    2  A    between atoms: C_2  and  C_3
                            x       y       z     vdW  Elec       q    Type
                         _______ _______ _______ _____ _____    ______ ____

>  <TORSDO>
F 2

$$$$
=
 OpenBabel11052418093D

 28 32  0  0  0  0  0  0  0  0999 V2000
  191.8060  176.3700  145.2200 N   0  0  0  0  0  0  0  0  0  0  0  0
  188.0530  177.6230  141.9180 C   0  0  0  0  0  3  0  0  0  0  0  0
  187.7390  175.7000  147.6070 O   0  0  0  0  0  0  0  0  0  0  0  0
  186.0300  177.6350  143.3810 C   0  0  0  0  0  0  0  0  0  0  0  0
  188.2920  177.1250  144.3790 C   0  0  0  0  0  0  0  0  0  0  0  0
  185.8130  178.0480  141.0010 C   0  0  0  0  0  0  0  0  0  0  0  0
  187.5250  177.8550  143.3090 C   0  0  0  0  0  0  0  0  0  0  0  0
  186.2170  176.7850  145.5970 O   0  0  0  0  0  0  0  0  0  0  0  0
  185.2200  177.9490  142.1960 C   0  0  0  0  0  2  0  0  0  0  0  0
  189.7340  176.0000  146.4750 C   0  0  0  0  0  0  0  0  0  0  0  0
  189.6470  177.0290  144.3130 N   0  0  0  0  0  2  0  0  0  0  0  0
  185.4490  177.1910  144.4980 C   0  0  0  0  0  3  0  0  0  0  0  0
  191.8690  175.3260  147.4570 C   0  0  0  0  0  3  0  0  0  0  0  0
  188.3390  176.1090  146.5770 C   0  0  0  0  0  0  0  0  0  0  0  0
  190.5420  175.4090  147.5610 C   0  0  0  0  0  3  0  0  0  0  0  0
  185.0670  178.3180  139.9030 F   0  0  0  0  0  0  0  0  0  0  0  0
  187.2590  177.7640  140.8490 C   0  0  0  0  0  3  0  0  0  0  0  0
  187.6120  176.6760  145.5240 C   0  0  0  0  0  0  0  0  0  0  0  0
  192.5350  175.8100  146.2850 N   0  0  0  0  0  2  0  0  0  0  0  0
  190.3770  176.4710  145.3180 C   0  0  0  0  0  0  0  0  0  0  0  0
  192.5230  176.8980  144.0680 C   0  0  0  0  0  2  0  0  0  0  0  0
  193.6290  175.9760  143.6830 C   0  0  0  0  0  0  0  0  0  0  0  0
  195.7000  174.2190  143.0090 C   0  0  0  0  0  0  0  0  0  0  0  0
  193.3470  174.7930  142.9900 C   0  0  0  0  0  3  0  0  0  0  0  0
  194.9470  176.2740  144.0460 C   0  0  0  0  0  3  0  0  0  0  0  0
  195.9820  175.3970  143.7080 C   0  0  0  0  0  3  0  0  0  0  0  0
  196.9960  173.1210  142.5870 Cl  0  0  0  0  0  0  0  0  0  0  0  0
  194.3820  173.9160  142.6530 C   0  0  0  0  0  3  0  0  0  0  0  0
  1 20  1  0  0  0  0
  1 19  1  0  0  0  0
  2  7  2  0  0  0  0
  4 12  2  0  0  0  0
  5 18  2  0  0  0  0
  6  9  1  0  0  0  0
  7  4  1  0  0  0  0
  7  5  1  0  0  0  0
  9  4  1  0  0  0  0
 10 14  1  0  0  0  0
 10 15  1  0  0  0  0
 11  5  1  0  0  0  0
 11 20  1  0  0  0  0
 12  8  1  0  0  0  0
 13 15  2  0  0  0  0
 14  3  2  0  0  0  0
 16  6  1  0  0  0  0
 17  6  2  0  0  0  0
 17  2  1  0  0  0  0
 18  8  1  0  0  0  0
 18 14  1  0  0  0  0
 19 13  1  0  0  0  0
 20 10  2  0  0  0  0
 21  1  1  0  0  0  0
 22 25  1  0  0  0  0
 22 21  1  0  0  0  0
 23 26  1  0  0  0  0
 24 22  2  0  0  0  0
 26 25  2  0  0  0  0
 27 23  1  0  0  0  0
 28 24  1  0  0  0  0
 28 23  2  0  0  0  0
M  END
>  <MODEL>
7

>  <REMARK>
 VINA RESULT:      -7.3      3.228      4.780
  Name = 
  2 active torsions:
  status: ('A' for Active; 'I' for Inactive)
    1  A    between atoms: N_1  and  C_2
    2  A    between atoms: C_2  and  C_3
                            x       y       z     vdW  Elec       q    Type
                         _______ _______ _______ _____ _____    ______ ____

>  <TORSDO>
F 2

$$$$
=
 OpenBabel11052418093D

 28 32  0  0  1  0  0  0  0  0999 V2000
  191.7600  175.0030  143.9380 N   0  0  0  0  0  0  0  0  0  0  0  0
  187.9020  177.2500  146.5120 C   0  0  0  0  0  3  0  0  0  0  0  0
  188.1590  175.2860  140.8330 O   0  0  0  0  0  0  0  0  0  0  0  0
  185.9760  176.9700  144.9470 C   0  0  0  0  0  0  0  0  0  0  0  0
  188.2390  176.0410  144.3240 C   0  0  0  0  0  0  0  0  0  0  0  0
  185.6880  178.1850  147.0270 C   0  0  0  0  0  0  0  0  0  0  0  0
  187.2880  176.3950  145.4350 C   0  0  1  0  0  3  0  0  0  0  0  0
  186.4010  176.1840  142.7410 O   0  0  0  0  0  0  0  0  0  0  0  0
  185.1400  177.7110  145.9030 C   0  0  0  0  0  3  0  0  0  0  0  0
  189.9350  175.1440  142.3100 C   0  0  0  0  0  0  0  0  0  0  0  0
  189.5360  175.7360  144.5970 N   0  0  0  0  0  2  0  0  0  0  0  0
  185.5680  176.7920  143.6890 C   0  0  0  0  0  3  0  0  0  0  0  0
  192.1400  174.3840  141.5770 C   0  0  0  0  0  3  0  0  0  0  0  0
  188.5950  175.4300  142.0080 C   0  0  0  0  0  0  0  0  0  0  0  0
  190.8730  174.6670  141.2740 C   0  0  0  0  0  3  0  0  0  0  0  0
  184.9260  178.8850  147.9000 F   0  0  0  0  0  0  0  0  0  0  0  0
  187.1410  178.0420  147.2780 C   0  0  0  0  0  3  0  0  0  0  0  0
  187.7400  175.8800  143.0200 C   0  0  0  0  0  0  0  0  0  0  0  0
  192.6140  174.5400  142.9210 N   0  0  0  0  0  2  0  0  0  0  0  0
  190.3920  175.3080  143.6270 C   0  0  0  0  0  0  0  0  0  0  0  0
  192.2650  175.0990  145.3000 C   0  0  0  0  0  2  0  0  0  0  0  0
  193.4800  174.2500  145.4610 C   0  0  0  0  0  0  0  0  0  0  0  0
  195.7660  172.6560  145.7060 C   0  0  0  0  0  0  0  0  0  0  0  0
  194.7320  174.8450  145.6460 C   0  0  0  0  0  3  0  0  0  0  0  0
  193.3740  172.8560  145.3890 C   0  0  0  0  0  3  0  0  0  0  0  0
  194.5160  172.0600  145.5140 C   0  0  0  0  0  3  0  0  0  0  0  0
  197.1950  171.6580  145.8610 Cl  0  0  0  0  0  0  0  0  0  0  0  0
  195.8750  174.0480  145.7700 C   0  0  0  0  0  3  0  0  0  0  0  0
  1 21  1  0  0  0  0
  2 17  2  0  0  0  0
  3 14  2  0  0  0  0
  4  7  1  0  0  0  0
  4  9  1  0  0  0  0
  5 11  1  0  0  0  0
  5  7  1  0  0  0  0
  6 17  1  0  0  0  0
  6 16  1  0  0  0  0
  7  2  1  1  0  0  0
  8 18  1  0  0  0  0
  8 12  1  0  0  0  0
  9  6  2  0  0  0  0
 10 20  2  0  0  0  0
 12  4  2  0  0  0  0
 13 19  1  0  0  0  0
 14 10  1  0  0  0  0
 14 18  1  0  0  0  0
 15 13  2  0  0  0  0
 15 10  1  0  0  0  0
 18  5  2  0  0  0  0
 19  1  1  0  0  0  0
 20  1  1  0  0  0  0
 20 11  1  0  0  0  0
 21 22  1  0  0  0  0
 22 24  1  0  0  0  0
 23 28  1  0  0  0  0
 23 27  1  0  0  0  0
 24 28  2  0  0  0  0
 25 22  2  0  0  0  0
 25 26  1  0  0  0  0
 26 23  2  0  0  0  0
M  END
>  <MODEL>
8

>  <REMARK>
 VINA RESULT:      -7.3      2.166      2.527
  Name = 
  2 active torsions:
  status: ('A' for Active; 'I' for Inactive)
    1  A    between atoms: N_1  and  C_2
    2  A    between atoms: C_2  and  C_3
                            x       y       z     vdW  Elec       q    Type
                         _______ _______ _______ _____ _____    ______ ____

>  <TORSDO>
F 2

$$$$
=
 OpenBabel11052418093D

 28 32  0  0  1  0  0  0  0  0999 V2000
  187.2750  176.8030  142.6020 N   0  0  0  0  0  0  0  0  0  0  0  0
  192.1560  176.3490  144.1950 C   0  0  0  0  0  3  0  0  0  0  0  0
  187.1670  177.6670  147.2850 O   0  0  0  0  0  0  0  0  0  0  0  0
  191.9190  176.4080  146.6810 C   0  0  0  0  0  0  0  0  0  0  0  0
  189.8610  176.5470  145.2240 C   0  0  0  0  0  0  0  0  0  0  0  0
  194.1200  176.2820  145.6700 C   0  0  0  0  0  0  0  0  0  0  0  0
  191.2670  176.0290  145.3680 C   0  0  1  0  0  3  0  0  0  0  0  0
  189.8060  176.9850  147.6140 O   0  0  0  0  0  0  0  0  0  0  0  0
  193.3820  176.3180  146.7850 C   0  0  0  0  0  3  0  0  0  0  0  0
  187.1830  177.2680  145.0060 C   0  0  0  0  0  0  0  0  0  0  0  0
  189.2270  176.4950  144.0220 N   0  0  0  0  0  2  0  0  0  0  0  0
  191.1890  176.7910  147.7300 C   0  0  0  0  0  3  0  0  0  0  0  0
  185.1780  177.5860  143.6450 C   0  0  0  0  0  3  0  0  0  0  0  0
  187.8090  177.3070  146.2620 C   0  0  0  0  0  0  0  0  0  0  0  0
  185.7640  177.6420  144.8410 C   0  0  0  0  0  3  0  0  0  0  0  0
  195.4700  176.2190  145.7630 F   0  0  0  0  0  0  0  0  0  0  0  0
  193.4850  176.4150  144.3390 C   0  0  0  0  0  3  0  0  0  0  0  0
  189.1560  176.9430  146.3730 C   0  0  0  0  0  0  0  0  0  0  0  0
  185.9190  177.1590  142.4950 N   0  0  0  0  0  2  0  0  0  0  0  0
  187.9210  176.8550  143.8840 C   0  0  0  0  0  0  0  0  0  0  0  0
  187.9800  176.3260  141.4210 C   0  0  0  0  0  2  0  0  0  0  0  0
  188.5360  174.9650  141.6670 C   0  0  0  0  0  0  0  0  0  0  0  0
  189.5680  172.3970  142.0740 C   0  0  0  0  0  0  0  0  0  0  0  0
  189.9070  174.7290  141.5170 C   0  0  0  0  0  3  0  0  0  0  0  0
  187.6810  173.9120  142.0110 C   0  0  0  0  0  3  0  0  0  0  0  0
  188.1970  172.6290  142.2170 C   0  0  0  0  0  3  0  0  0  0  0  0
  190.2140  170.7900  142.3310 Cl  0  0  0  0  0  0  0  0  0  0  0  0
  190.4230  173.4460  141.7220 C   0  0  0  0  0  3  0  0  0  0  0  0
  1 20  1  0  0  0  0
  2 17  2  0  0  0  0
  4  9  1  0  0  0  0
  4 12  2  0  0  0  0
  5  7  1  0  0  0  0
  5 18  2  0  0  0  0
  6 16  1  0  0  0  0
  6  9  2  0  0  0  0
  7  2  1  6  0  0  0
  7  4  1  0  0  0  0
  8 12  1  0  0  0  0
 10 14  1  0  0  0  0
 11  5  1  0  0  0  0
 13 15  2  0  0  0  0
 14 18  1  0  0  0  0
 14  3  2  0  0  0  0
 15 10  1  0  0  0  0
 17  6  1  0  0  0  0
 18  8  1  0  0  0  0
 19  1  1  0  0  0  0
 19 13  1  0  0  0  0
 20 11  1  0  0  0  0
 20 10  2  0  0  0  0
 21 22  1  0  0  0  0
 21  1  1  0  0  0  0
 22 25  1  0  0  0  0
 23 26  1  0  0  0  0
 23 27  1  0  0  0  0
 24 22  2  0  0  0  0
 24 28  1  0  0  0  0
 25 26  2  0  0  0  0
 28 23  2  0  0  0  0
M  END
>  <MODEL>
9

>  <REMARK>
 VINA RESULT:      -7.3      3.468      6.181
  Name = 
  2 active torsions:
  status: ('A' for Active; 'I' for Inactive)
    1  A    between atoms: N_1  and  C_2
    2  A    between atoms: C_2  and  C_3
                            x       y       z     vdW  Elec       q    Type
                         _______ _______ _______ _____ _____    ______ ____

>  <TORSDO>
F 2

$$$$
