=
 OpenBabel11052417333D

 25 29  0  0  1  0  0  0  0  0999 V2000
  189.2090  173.9250  142.8500 C   0  0  0  0  0  0  0  0  0  0  0  0
  189.3350  175.0070  143.8790 C   0  0  1  0  0  3  0  0  0  0  0  0
  190.3890  172.2600  144.1670 C   0  0  0  0  0  3  0  0  0  0  0  0
  188.8570  173.9530  141.5780 C   0  0  0  0  0  0  0  0  0  0  0  0
  188.3370  173.5160  138.8900 C   0  0  0  0  0  3  0  0  0  0  0  0
  190.3350  173.1960  145.3180 C   0  0  0  0  0  3  0  0  0  0  0  0
  189.1800  172.7300  140.9970 C   0  0  0  0  0  0  0  0  0  0  0  0
  188.9230  172.4890  139.6490 C   0  0  0  0  0  3  0  0  0  0  0  0
  189.6190  175.3010  146.3880 C   0  0  0  0  0  0  0  0  0  0  0  0
  190.4210  175.1070  147.6300 C   0  0  0  0  0  1  0  0  0  0  0  0
  188.0810  175.8120  144.0590 C   0  0  0  0  0  3  0  0  0  0  0  0
  188.0290  174.7600  139.4800 C   0  0  0  0  0  3  0  0  0  0  0  0
  189.8190  172.6320  143.0240 C   0  0  0  0  0  0  0  0  0  0  0  0
  189.7630  171.8960  141.8060 N   0  0  0  0  0  0  0  0  0  0  0  0
  188.6930  176.2160  146.3620 N   0  0  0  0  0  0  0  0  0  0  0  0
  188.2940  174.9920  140.8390 C   0  0  0  0  0  3  0  0  0  0  0  0
  187.8270  176.4320  145.2250 C   0  0  0  0  0  0  0  0  0  0  0  0
  189.8120  174.4380  145.2070 C   0  0  0  0  0  0  0  0  0  0  0  0
  185.4340  179.3280  144.7890 C   0  0  0  0  0  0  0  0  0  0  0  0
  186.6360  177.2950  145.3730 C   0  0  0  0  0  0  0  0  0  0  0  0
  186.5540  178.5000  144.6600 C   0  0  0  0  0  3  0  0  0  0  0  0
  185.3660  180.5180  144.0790 O   0  0  0  0  0  1  0  0  0  0  0  0
  185.5720  176.9310  146.2170 C   0  0  0  0  0  3  0  0  0  0  0  0
  184.3830  178.9560  145.6320 C   0  0  0  0  0  3  0  0  0  0  0  0
  184.4530  177.7580  146.3460 C   0  0  0  0  0  3  0  0  0  0  0  0
  1 13  1  0  0  0  0
  1  2  1  0  0  0  0
  2 11  1  1  0  0  0
  2 18  1  0  0  0  0
  3  6  1  0  0  0  0
  4  1  2  0  0  0  0
  5 12  1  0  0  0  0
  5  8  2  0  0  0  0
  7  4  1  0  0  0  0
  7 14  2  0  0  0  0
  8  7  1  0  0  0  0
  9 10  1  0  0  0  0
 11 17  2  0  0  0  0
 12 16  2  0  0  0  0
 13  3  2  0  0  0  0
 14 13  1  0  0  0  0
 15  9  2  0  0  0  0
 16  4  1  0  0  0  0
 17 20  1  0  0  0  0
 17 15  1  0  0  0  0
 18  6  2  0  0  0  0
 18  9  1  0  0  0  0
 19 24  1  0  0  0  0
 20 23  2  0  0  0  0
 21 19  2  0  0  0  0
 21 20  1  0  0  0  0
 22 19  1  0  0  0  0
 23 25  1  0  0  0  0
 24 25  2  0  0  0  0
M  END
>  <MODEL>
1

>  <REMARK>
 VINA RESULT:      -8.3      0.000      0.000
  Name = 
  1 active torsions:
  status: ('A' for Active; 'I' for Inactive)
    1  A    between atoms: C_6  and  C_23
                            x       y       z     vdW  Elec       q    Type
                         _______ _______ _______ _____ _____    ______ ____

>  <TORSDO>
F 1

$$$$
=
 OpenBabel11052417333D

 25 29  0  0  1  0  0  0  0  0999 V2000
  186.6650  177.5630  143.0450 C   0  0  0  0  0  0  0  0  0  0  0  0
  186.9360  177.0840  144.4390 C   0  0  1  0  0  3  0  0  0  0  0  0
  185.1710  179.3490  143.7350 C   0  0  0  0  0  3  0  0  0  0  0  0
  186.9060  177.0240  141.8640 C   0  0  0  0  0  0  0  0  0  0  0  0
  187.0600  176.2640  139.2020 C   0  0  0  0  0  3  0  0  0  0  0  0
  185.5820  179.0910  145.1380 C   0  0  0  0  0  3  0  0  0  0  0  0
  186.2020  177.7340  140.8960 C   0  0  0  0  0  0  0  0  0  0  0  0
  186.2700  177.3710  139.5520 C   0  0  0  0  0  3  0  0  0  0  0  0
  186.9520  177.9350  146.8340 C   0  0  0  0  0  0  0  0  0  0  0  0
  186.2320  178.5050  148.0080 C   0  0  0  0  0  1  0  0  0  0  0  0
  188.3780  176.7470  144.6870 C   0  0  0  0  0  3  0  0  0  0  0  0
  187.7570  175.5360  140.1900 C   0  0  0  0  0  3  0  0  0  0  0  0
  185.7290  178.6220  142.7710 C   0  0  0  0  0  0  0  0  0  0  0  0
  185.4740  178.7000  141.3710 N   0  0  0  0  0  0  0  0  0  0  0  0
  188.0940  177.3370  147.0140 N   0  0  0  0  0  0  0  0  0  0  0  0
  187.6800  175.9100  141.5410 C   0  0  0  0  0  3  0  0  0  0  0  0
  188.8900  176.8110  145.9280 C   0  0  0  0  0  0  0  0  0  0  0  0
  186.4270  178.0860  145.4640 C   0  0  0  0  0  0  0  0  0  0  0  0
  192.6270  176.3840  145.5220 C   0  0  0  0  0  0  0  0  0  0  0  0
  190.2870  176.3970  146.1860 C   0  0  0  0  0  0  0  0  0  0  0  0
  191.3020  176.7680  145.2920 C   0  0  0  0  0  3  0  0  0  0  0  0
  193.6220  176.7570  144.6290 O   0  0  0  0  0  1  0  0  0  0  0  0
  190.6230  175.6350  147.3190 C   0  0  0  0  0  3  0  0  0  0  0  0
  192.9490  175.6260  146.6510 C   0  0  0  0  0  3  0  0  0  0  0  0
  191.9480  175.2510  147.5490 C   0  0  0  0  0  3  0  0  0  0  0  0
  1  2  1  0  0  0  0
  2 11  1  6  0  0  0
  2 18  1  0  0  0  0
  3  6  1  0  0  0  0
  4  1  2  0  0  0  0
  5  8  2  0  0  0  0
  5 12  1  0  0  0  0
  6 18  2  0  0  0  0
  7 14  2  0  0  0  0
  7  4  1  0  0  0  0
  8  7  1  0  0  0  0
  9 15  2  0  0  0  0
  9 10  1  0  0  0  0
 11 17  2  0  0  0  0
 12 16  2  0  0  0  0
 13  1  1  0  0  0  0
 13  3  2  0  0  0  0
 14 13  1  0  0  0  0
 16  4  1  0  0  0  0
 17 20  1  0  0  0  0
 17 15  1  0  0  0  0
 18  9  1  0  0  0  0
 19 24  1  0  0  0  0
 20 23  2  0  0  0  0
 21 19  2  0  0  0  0
 21 20  1  0  0  0  0
 22 19  1  0  0  0  0
 23 25  1  0  0  0  0
 24 25  2  0  0  0  0
M  END
>  <MODEL>
2

>  <REMARK>
 VINA RESULT:      -8.3      3.226      5.687
  Name = 
  1 active torsions:
  status: ('A' for Active; 'I' for Inactive)
    1  A    between atoms: C_6  and  C_23
                            x       y       z     vdW  Elec       q    Type
                         _______ _______ _______ _____ _____    ______ ____

>  <TORSDO>
F 1

$$$$
=
 OpenBabel11052417333D

 25 29  0  0  1  0  0  0  0  0999 V2000
  185.9090  177.5790  143.9320 C   0  0  0  0  0  0  0  0  0  0  0  0
  186.8870  177.2820  142.8370 C   0  0  0  0  0  0  0  0  0  0  0  0
  184.2020  178.4560  142.4440 C   0  0  0  0  0  3  0  0  0  0  0  0
  186.0420  177.6300  145.2450 C   0  0  0  0  0  0  0  0  0  0  0  0
  185.8460  177.9970  147.9860 C   0  0  0  0  0  3  0  0  0  0  0  0
  185.0110  177.9650  141.3000 C   0  0  0  0  0  3  0  0  0  0  0  0
  184.9090  178.2300  145.7870 C   0  0  1  0  0  3  0  0  0  0  0  0
  184.7890  178.4200  147.1630 C   0  0  0  0  0  3  0  0  0  0  0  0
  186.9430  176.7600  140.3500 C   0  0  0  0  0  0  0  0  0  0  0  0
  186.6790  177.1600  138.9390 C   0  0  0  0  0  1  0  0  0  0  0  0
  187.5830  175.9620  142.9970 C   0  0  0  0  0  3  0  0  0  0  0  0
  187.0000  177.4070  147.4290 C   0  0  0  0  0  3  0  0  0  0  0  0
  184.6490  178.2280  143.6750 C   0  0  0  0  0  0  0  0  0  0  0  0
  184.0380  178.6160  144.9020 N   0  0  0  0  0  0  0  0  0  0  0  0
  187.7920  175.8030  140.5940 N   0  0  0  0  0  0  0  0  0  0  0  0
  187.1100  177.2220  146.0420 C   0  0  0  0  0  3  0  0  0  0  0  0
  188.0630  175.3080  141.9250 C   0  0  0  0  0  0  0  0  0  0  0  0
  186.2200  177.3840  141.4730 C   0  0  0  0  0  0  0  0  0  0  0  0
  189.8410  172.0710  141.1090 C   0  0  0  0  0  0  0  0  0  0  0  0
  188.8240  174.0510  142.0910 C   0  0  0  0  0  0  0  0  0  0  0  0
  189.1220  173.2620  140.9690 C   0  0  0  0  0  3  0  0  0  0  0  0
  190.1280  171.2990  139.9910 O   0  0  0  0  0  1  0  0  0  0  0  0
  189.2630  173.6260  143.3570 C   0  0  0  0  0  3  0  0  0  0  0  0
  190.2720  171.6580  142.3720 C   0  0  0  0  0  3  0  0  0  0  0  0
  189.9820  172.4350  143.4960 C   0  0  0  0  0  3  0  0  0  0  0  0
  1  4  2  0  0  0  0
  2 11  1  0  0  0  0
  2  1  1  0  0  0  0
  3 13  1  0  0  0  0
  4  7  1  0  0  0  0
  4 16  1  0  0  0  0
  6 18  1  0  0  0  0
  6  3  2  0  0  0  0
  7  8  1  6  0  0  0
  8  5  2  0  0  0  0
  9 15  2  0  0  0  0
  9 18  1  0  0  0  0
 10  9  1  0  0  0  0
 12  5  1  0  0  0  0
 13  1  1  0  0  0  0
 13 14  2  0  0  0  0
 14  7  1  0  0  0  0
 15 17  1  0  0  0  0
 16 12  2  0  0  0  0
 17 20  1  0  0  0  0
 17 11  2  0  0  0  0
 18  2  2  0  0  0  0
 19 24  1  0  0  0  0
 20 23  2  0  0  0  0
 21 19  2  0  0  0  0
 21 20  1  0  0  0  0
 22 19  1  0  0  0  0
 23 25  1  0  0  0  0
 24 25  2  0  0  0  0
M  END
>  <MODEL>
3

>  <REMARK>
 VINA RESULT:      -8.2      3.144      7.653
  Name = 
  1 active torsions:
  status: ('A' for Active; 'I' for Inactive)
    1  A    between atoms: C_6  and  C_23
                            x       y       z     vdW  Elec       q    Type
                         _______ _______ _______ _____ _____    ______ ____

>  <TORSDO>
F 1

$$$$
=
 OpenBabel11052417333D

 25 29  0  0  1  0  0  0  0  0999 V2000
  190.1770  175.9980  145.1120 C   0  0  0  0  0  0  0  0  0  0  0  0
  188.9950  176.9070  145.2580 C   0  0  1  0  0  3  0  0  0  0  0  0
  189.8050  174.8460  147.2180 C   0  0  0  0  0  3  0  0  0  0  0  0
  191.2110  176.0190  144.2920 C   0  0  0  0  0  0  0  0  0  0  0  0
  193.6020  175.7130  142.9210 C   0  0  0  0  0  3  0  0  0  0  0  0
  188.4930  175.5350  147.3120 C   0  0  0  0  0  3  0  0  0  0  0  0
  192.1690  175.1210  144.7550 C   0  0  0  0  0  0  0  0  0  0  0  0
  193.3750  174.9500  144.0790 C   0  0  0  0  0  3  0  0  0  0  0  0
  186.7290  177.0050  146.4080 C   0  0  0  0  0  0  0  0  0  0  0  0
  185.9120  177.0270  147.6540 C   0  0  0  0  0  1  0  0  0  0  0  0
  188.2130  177.0820  143.9900 C   0  0  0  0  0  3  0  0  0  0  0  0
  192.6350  176.6360  142.4670 C   0  0  0  0  0  3  0  0  0  0  0  0
  190.5600  175.0710  146.1460 C   0  0  0  0  0  0  0  0  0  0  0  0
  191.8440  174.5240  145.8630 N   0  0  0  0  0  0  0  0  0  0  0  0
  186.2110  177.4410  145.2960 N   0  0  0  0  0  0  0  0  0  0  0  0
  191.4240  176.8010  143.1580 C   0  0  0  0  0  3  0  0  0  0  0  0
  186.9080  177.4000  144.0300 C   0  0  0  0  0  0  0  0  0  0  0  0
  188.0940  176.4450  146.3940 C   0  0  0  0  0  0  0  0  0  0  0  0
  184.0480  178.1060  141.6560 C   0  0  0  0  0  0  0  0  0  0  0  0
  186.1580  177.6580  142.7810 C   0  0  0  0  0  0  0  0  0  0  0  0
  184.7710  177.8610  142.8280 C   0  0  0  0  0  3  0  0  0  0  0  0
  182.6760  178.3030  141.7170 O   0  0  0  0  0  1  0  0  0  0  0  0
  186.8110  177.7080  141.5370 C   0  0  0  0  0  3  0  0  0  0  0  0
  184.7070  178.1520  140.4250 C   0  0  0  0  0  3  0  0  0  0  0  0
  186.0880  177.9530  140.3650 C   0  0  0  0  0  3  0  0  0  0  0  0
  1  2  1  0  0  0  0
  1 13  1  0  0  0  0
  2 11  1  6  0  0  0
  2 18  1  0  0  0  0
  3  6  1  0  0  0  0
  4  7  1  0  0  0  0
  4  1  2  0  0  0  0
  5  8  2  0  0  0  0
  7 14  2  0  0  0  0
  8  7  1  0  0  0  0
  9 10  1  0  0  0  0
 11 17  2  0  0  0  0
 12  5  1  0  0  0  0
 12 16  2  0  0  0  0
 13  3  2  0  0  0  0
 14 13  1  0  0  0  0
 15  9  2  0  0  0  0
 16  4  1  0  0  0  0
 17 15  1  0  0  0  0
 18  9  1  0  0  0  0
 18  6  2  0  0  0  0
 19 22  1  0  0  0  0
 19 21  1  0  0  0  0
 20 21  2  0  0  0  0
 20 17  1  0  0  0  0
 23 20  1  0  0  0  0
 24 19  2  0  0  0  0
 25 24  1  0  0  0  0
 25 23  2  0  0  0  0
M  END
>  <MODEL>
4

>  <REMARK>
 VINA RESULT:      -8.2      3.211      4.355
  Name = 
  1 active torsions:
  status: ('A' for Active; 'I' for Inactive)
    1  A    between atoms: C_6  and  C_23
                            x       y       z     vdW  Elec       q    Type
                         _______ _______ _______ _____ _____    ______ ____

>  <TORSDO>
F 1

$$$$
=
 OpenBabel11052417333D

 25 29  0  0  1  0  0  0  0  0999 V2000
  190.5690  174.8690  144.2620 C   0  0  0  0  0  0  0  0  0  0  0  0
  190.3200  176.1360  145.0210 C   0  0  1  0  0  3  0  0  0  0  0  0
  192.2750  174.0540  145.7860 C   0  0  0  0  0  3  0  0  0  0  0  0
  190.2130  174.4800  143.0510 C   0  0  0  0  0  0  0  0  0  0  0  0
  189.8450  173.2840  140.5770 C   0  0  0  0  0  3  0  0  0  0  0  0
  191.9110  175.1560  146.7120 C   0  0  0  0  0  3  0  0  0  0  0  0
  190.9370  173.3400  142.7150 C   0  0  0  0  0  0  0  0  0  0  0  0
  190.7640  172.7210  141.4790 C   0  0  0  0  0  3  0  0  0  0  0  0
  190.5160  177.0810  147.3730 C   0  0  0  0  0  0  0  0  0  0  0  0
  191.3510  177.4630  148.5470 C   0  0  0  0  0  1  0  0  0  0  0  0
  188.8660  176.4870  145.1410 C   0  0  0  0  0  3  0  0  0  0  0  0
  189.1270  174.4510  140.9160 C   0  0  0  0  0  3  0  0  0  0  0  0
  191.5960  173.9360  144.6480 C   0  0  0  0  0  0  0  0  0  0  0  0
  191.7860  172.9640  143.6250 N   0  0  0  0  0  0  0  0  0  0  0  0
  189.3280  177.5960  147.2390 N   0  0  0  0  0  0  0  0  0  0  0  0
  189.3120  175.0670  142.1640 C   0  0  0  0  0  3  0  0  0  0  0  0
  188.4270  177.2360  146.1680 C   0  0  0  0  0  0  0  0  0  0  0  0
  190.9840  176.0860  146.3900 C   0  0  0  0  0  0  0  0  0  0  0  0
  184.9100  178.1480  145.1150 C   0  0  0  0  0  0  0  0  0  0  0  0
  187.0100  177.6550  146.2400 C   0  0  0  0  0  0  0  0  0  0  0  0
  186.2500  177.7540  145.0640 C   0  0  0  0  0  3  0  0  0  0  0  0
  184.1700  178.2430  143.9440 O   0  0  0  0  0  1  0  0  0  0  0  0
  186.4000  177.9540  147.4700 C   0  0  0  0  0  3  0  0  0  0  0  0
  184.3150  178.4440  146.3440 C   0  0  0  0  0  3  0  0  0  0  0  0
  185.0590  178.3480  147.5210 C   0  0  0  0  0  3  0  0  0  0  0  0
  1 13  1  0  0  0  0
  1  2  1  0  0  0  0
  2 11  1  1  0  0  0
  2 18  1  0  0  0  0
  3  6  1  0  0  0  0
  4  1  2  0  0  0  0
  5 12  1  0  0  0  0
  5  8  2  0  0  0  0
  7  4  1  0  0  0  0
  7 14  2  0  0  0  0
  8  7  1  0  0  0  0
  9 10  1  0  0  0  0
 11 17  2  0  0  0  0
 12 16  2  0  0  0  0
 13  3  2  0  0  0  0
 14 13  1  0  0  0  0
 15  9  2  0  0  0  0
 16  4  1  0  0  0  0
 17 20  1  0  0  0  0
 17 15  1  0  0  0  0
 18  6  2  0  0  0  0
 18  9  1  0  0  0  0
 19 24  1  0  0  0  0
 20 23  2  0  0  0  0
 21 19  2  0  0  0  0
 21 20  1  0  0  0  0
 22 19  1  0  0  0  0
 23 25  1  0  0  0  0
 24 25  2  0  0  0  0
M  END
>  <MODEL>
5

>  <REMARK>
 VINA RESULT:      -7.8      1.649      2.118
  Name = 
  1 active torsions:
  status: ('A' for Active; 'I' for Inactive)
    1  A    between atoms: C_6  and  C_23
                            x       y       z     vdW  Elec       q    Type
                         _______ _______ _______ _____ _____    ______ ____

>  <TORSDO>
F 1

$$$$
=
 OpenBabel11052417333D

 25 29  0  0  0  0  0  0  0  0999 V2000
  188.7920  177.0370  144.7030 C   0  0  0  0  0  0  0  0  0  0  0  0
  188.4990  177.1790  143.2410 C   0  0  0  0  0  0  0  0  0  0  0  0
  186.7450  178.1270  145.4240 C   0  0  0  0  0  3  0  0  0  0  0  0
  189.8940  176.7140  145.3550 C   0  0  0  0  0  0  0  0  0  0  0  0
  191.9470  176.2370  147.1560 C   0  0  0  0  0  3  0  0  0  0  0  0
  186.2780  178.0810  144.0160 C   0  0  0  0  0  3  0  0  0  0  0  0
  189.7170  177.0050  146.7050 C   0  0  0  0  0  0  0  0  0  0  0  0
  190.7350  176.7690  147.6270 C   0  0  0  0  0  3  0  0  0  0  0  0
  186.5280  177.4200  141.6520 C   0  0  0  0  0  0  0  0  0  0  0  0
  185.3470  178.1870  141.1650 C   0  0  0  0  0  1  0  0  0  0  0  0
  188.8260  175.9520  142.4410 C   0  0  0  0  0  2  0  0  0  0  0  0
  192.1280  175.9620  145.7840 C   0  0  0  0  0  3  0  0  0  0  0  0
  187.9300  177.5950  145.7120 C   0  0  0  0  0  0  0  0  0  0  0  0
  188.5660  177.5390  146.9860 N   0  0  0  0  0  0  0  0  0  0  0  0
  187.0760  176.5290  140.8770 N   0  0  0  0  0  0  0  0  0  0  0  0
  191.0950  176.2050  144.8640 C   0  0  0  0  0  3  0  0  0  0  0  0
  188.1840  175.6960  141.2880 C   0  0  0  0  0  0  0  0  0  0  0  0
  187.0560  177.6060  143.0170 C   0  0  0  0  0  0  0  0  0  0  0  0
  189.6830  172.3830  140.2490 C   0  0  0  0  0  0  0  0  0  0  0  0
  188.5660  174.5340  140.4570 C   0  0  0  0  0  0  0  0  0  0  0  0
  189.3140  173.4890  141.0200 C   0  0  0  0  0  3  0  0  0  0  0  0
  190.4240  171.3560  140.8180 O   0  0  0  0  0  1  0  0  0  0  0  0
  188.1920  174.4500  139.1050 C   0  0  0  0  0  3  0  0  0  0  0  0
  189.3060  172.3110  138.9050 C   0  0  0  0  0  3  0  0  0  0  0  0
  188.5610  173.3440  138.3330 C   0  0  0  0  0  3  0  0  0  0  0  0
  1  4  1  0  0  0  0
  1 13  1  0  0  0  0
  2  1  2  0  0  0  0
  3 13  1  0  0  0  0
  4  7  1  0  0  0  0
  5  8  1  0  0  0  0
  6  3  2  0  0  0  0
  7 14  1  0  0  0  0
  7  8  2  0  0  0  0
  9 18  2  0  0  0  0
 10  9  1  0  0  0  0
 11  2  1  0  0  0  0
 12  5  2  0  0  0  0
 13 14  2  0  0  0  0
 15 17  2  0  0  0  0
 15  9  1  0  0  0  0
 16  4  2  0  0  0  0
 16 12  1  0  0  0  0
 17 11  1  0  0  0  0
 18  2  1  0  0  0  0
 18  6  1  0  0  0  0
 19 22  1  0  0  0  0
 19 21  1  0  0  0  0
 20 21  2  0  0  0  0
 20 17  1  0  0  0  0
 23 20  1  0  0  0  0
 24 19  2  0  0  0  0
 25 24  1  0  0  0  0
 25 23  2  0  0  0  0
M  END
>  <MODEL>
6

>  <REMARK>
 VINA RESULT:      -7.8      2.994      7.189
  Name = 
  1 active torsions:
  status: ('A' for Active; 'I' for Inactive)
    1  A    between atoms: C_6  and  C_23
                            x       y       z     vdW  Elec       q    Type
                         _______ _______ _______ _____ _____    ______ ____

>  <TORSDO>
F 1

$$$$
=
 OpenBabel11052417333D

 25 29  0  0  1  0  0  0  0  0999 V2000
  191.6500  175.1270  143.7080 C   0  0  0  0  0  0  0  0  0  0  0  0
  190.2270  174.7120  143.4940 C   0  0  0  0  0  0  0  0  0  0  0  0
  192.4680  174.0930  141.6680 C   0  0  0  0  0  3  0  0  0  0  0  0
  192.2810  175.6100  144.7630 C   0  0  0  0  0  0  0  0  0  0  0  0
  194.0520  176.4910  146.7050 C   0  0  0  0  0  3  0  0  0  0  0  0
  191.0560  173.8660  141.2700 C   0  0  0  0  0  3  0  0  0  0  0  0
  193.6520  175.5570  144.5290 C   0  0  1  0  0  3  0  0  0  0  0  0
  194.5590  175.9990  145.4900 C   0  0  0  0  0  3  0  0  0  0  0  0
  188.6250  174.1050  141.6160 C   0  0  0  0  0  0  0  0  0  0  0  0
  188.2340  173.2120  140.4890 C   0  0  0  0  0  1  0  0  0  0  0  0
  189.2340  175.7900  143.8170 C   0  0  0  0  0  3  0  0  0  0  0  0
  192.6620  176.5240  146.9440 C   0  0  0  0  0  3  0  0  0  0  0  0
  192.7060  174.7200  142.8170 C   0  0  0  0  0  0  0  0  0  0  0  0
  193.9750  175.0310  143.3850 N   0  0  0  0  0  0  0  0  0  0  0  0
  187.7250  174.8670  142.1690 N   0  0  0  0  0  0  0  0  0  0  0  0
  191.7580  176.0750  145.9680 C   0  0  0  0  0  3  0  0  0  0  0  0
  188.0270  175.8070  143.2240 C   0  0  0  0  0  0  0  0  0  0  0  0
  190.0220  174.1890  142.0800 C   0  0  0  0  0  0  0  0  0  0  0  0
  184.8710  177.8910  143.2080 C   0  0  0  0  0  0  0  0  0  0  0  0
  187.0170  176.8190  143.6060 C   0  0  0  0  0  0  0  0  0  0  0  0
  185.8350  176.9410  142.8610 C   0  0  0  0  0  3  0  0  0  0  0  0
  183.7060  178.0020  142.4610 O   0  0  0  0  0  1  0  0  0  0  0  0
  187.2150  177.6650  144.7100 C   0  0  0  0  0  3  0  0  0  0  0  0
  185.0780  178.7280  144.3070 C   0  0  0  0  0  3  0  0  0  0  0  0
  186.2500  178.6160  145.0580 C   0  0  0  0  0  3  0  0  0  0  0  0
  1  4  2  0  0  0  0
  2  1  1  0  0  0  0
  2 11  1  0  0  0  0
  3 13  1  0  0  0  0
  4 16  1  0  0  0  0
  5 12  1  0  0  0  0
  6  3  2  0  0  0  0
  6 18  1  0  0  0  0
  7  4  1  0  0  0  0
  7  8  1  1  0  0  0
  8  5  2  0  0  0  0
  9 18  1  0  0  0  0
  9 15  2  0  0  0  0
 10  9  1  0  0  0  0
 13 14  2  0  0  0  0
 13  1  1  0  0  0  0
 14  7  1  0  0  0  0
 15 17  1  0  0  0  0
 16 12  2  0  0  0  0
 17 20  1  0  0  0  0
 17 11  2  0  0  0  0
 18  2  2  0  0  0  0
 19 24  1  0  0  0  0
 20 23  2  0  0  0  0
 21 19  2  0  0  0  0
 21 20  1  0  0  0  0
 22 19  1  0  0  0  0
 23 25  1  0  0  0  0
 24 25  2  0  0  0  0
M  END
>  <MODEL>
7

>  <REMARK>
 VINA RESULT:      -7.7      2.718      4.936
  Name = 
  1 active torsions:
  status: ('A' for Active; 'I' for Inactive)
    1  A    between atoms: C_6  and  C_23
                            x       y       z     vdW  Elec       q    Type
                         _______ _______ _______ _____ _____    ______ ____

>  <TORSDO>
F 1

$$$$
=
 OpenBabel11052417333D

 25 29  0  0  0  0  0  0  0  0999 V2000
  188.8040  177.3010  145.1780 C   0  0  0  0  0  0  0  0  0  0  0  0
  187.9570  177.9080  144.1010 C   0  0  0  0  0  0  0  0  0  0  0  0
  187.1140  177.5230  146.9090 C   0  0  0  0  0  3  0  0  0  0  0  0
  190.0940  177.0280  145.2390 C   0  0  0  0  0  0  0  0  0  0  0  0
  192.7150  176.4130  145.8990 C   0  0  0  0  0  3  0  0  0  0  0  0
  186.1430  177.8990  145.8500 C   0  0  0  0  0  3  0  0  0  0  0  0
  190.4300  176.7410  146.5590 C   0  0  0  0  0  0  0  0  0  0  0  0
  191.7410  176.4250  146.9110 C   0  0  0  0  0  3  0  0  0  0  0  0
  185.5130  178.2520  143.4910 C   0  0  0  0  0  0  0  0  0  0  0  0
  184.1780  178.8420  143.7880 C   0  0  0  0  0  1  0  0  0  0  0  0
  188.0480  177.1850  142.7890 C   0  0  0  0  0  2  0  0  0  0  0  0
  192.3730  176.7230  144.5660 C   0  0  0  0  0  3  0  0  0  0  0  0
  188.3570  177.2190  146.5450 C   0  0  0  0  0  0  0  0  0  0  0  0
  189.4380  176.8420  147.3920 N   0  0  0  0  0  0  0  0  0  0  0  0
  185.7890  177.8730  142.2760 N   0  0  0  0  0  0  0  0  0  0  0  0
  191.0490  177.0410  144.2230 C   0  0  0  0  0  3  0  0  0  0  0  0
  187.0330  177.2360  141.9090 C   0  0  0  0  0  0  0  0  0  0  0  0
  186.5100  178.0320  144.5550 C   0  0  0  0  0  0  0  0  0  0  0  0
  188.0020  174.7800  139.2000 C   0  0  0  0  0  0  0  0  0  0  0  0
  187.1570  176.5960  140.5810 C   0  0  0  0  0  0  0  0  0  0  0  0
  187.8750  175.3980  140.4480 C   0  0  0  0  0  3  0  0  0  0  0  0
  188.7160  173.5960  139.0820 O   0  0  0  0  0  1  0  0  0  0  0  0
  186.5650  177.1640  139.4400 C   0  0  0  0  0  3  0  0  0  0  0  0
  187.4090  175.3550  138.0730 C   0  0  0  0  0  3  0  0  0  0  0  0
  186.6910  176.5460  138.1920 C   0  0  0  0  0  3  0  0  0  0  0  0
  1  4  1  0  0  0  0
  1 13  1  0  0  0  0
  2 18  1  0  0  0  0
  2  1  2  0  0  0  0
  4  7  1  0  0  0  0
  5  8  1  0  0  0  0
  6  3  2  0  0  0  0
  7  8  2  0  0  0  0
  7 14  1  0  0  0  0
  9 10  1  0  0  0  0
  9 18  2  0  0  0  0
 11  2  1  0  0  0  0
 12  5  2  0  0  0  0
 13  3  1  0  0  0  0
 13 14  2  0  0  0  0
 15  9  1  0  0  0  0
 16 12  1  0  0  0  0
 16  4  2  0  0  0  0
 17 15  2  0  0  0  0
 17 11  1  0  0  0  0
 18  6  1  0  0  0  0
 19 21  1  0  0  0  0
 20 17  1  0  0  0  0
 21 20  2  0  0  0  0
 22 19  1  0  0  0  0
 23 20  1  0  0  0  0
 24 25  1  0  0  0  0
 24 19  2  0  0  0  0
 25 23  2  0  0  0  0
M  END
>  <MODEL>
8

>  <REMARK>
 VINA RESULT:      -7.6      3.236      6.531
  Name = 
  1 active torsions:
  status: ('A' for Active; 'I' for Inactive)
    1  A    between atoms: C_6  and  C_23
                            x       y       z     vdW  Elec       q    Type
                         _______ _______ _______ _____ _____    ______ ____

>  <TORSDO>
F 1

$$$$
=
 OpenBabel11052417333D

 25 29  0  0  1  0  0  0  0  0999 V2000
  187.2580  176.4480  141.5690 C   0  0  0  0  0  0  0  0  0  0  0  0
  187.1080  176.4710  143.0590 C   0  0  1  0  0  3  0  0  0  0  0  0
  185.8510  178.3920  141.1950 C   0  0  0  0  0  3  0  0  0  0  0  0
  187.7300  175.5320  140.7430 C   0  0  0  0  0  0  0  0  0  0  0  0
  188.4720  173.9010  138.6280 C   0  0  0  0  0  3  0  0  0  0  0  0
  185.8580  178.6230  142.6620 C   0  0  0  0  0  3  0  0  0  0  0  0
  187.3830  175.8800  139.4410 C   0  0  0  0  0  0  0  0  0  0  0  0
  187.7500  175.0770  138.3630 C   0  0  0  0  0  3  0  0  0  0  0  0
  186.6070  178.0930  144.9520 C   0  0  0  0  0  0  0  0  0  0  0  0
  185.6810  179.0460  145.6270 C   0  0  0  0  0  1  0  0  0  0  0  0
  188.3900  176.2120  143.7950 C   0  0  0  0  0  3  0  0  0  0  0  0
  188.8050  173.5430  139.9510 C   0  0  0  0  0  3  0  0  0  0  0  0
  186.5500  177.3670  140.7150 C   0  0  0  0  0  0  0  0  0  0  0  0
  186.6720  176.9660  139.3540 N   0  0  0  0  0  0  0  0  0  0  0  0
  187.5900  177.5710  145.6270 N   0  0  0  0  0  0  0  0  0  0  0  0
  188.4280  174.3600  141.0290 C   0  0  0  0  0  3  0  0  0  0  0  0
  188.5720  176.6880  145.0390 C   0  0  0  0  0  0  0  0  0  0  0  0
  186.4710  177.7750  143.5180 C   0  0  0  0  0  0  0  0  0  0  0  0
  192.2260  176.3650  145.9620 C   0  0  0  0  0  0  0  0  0  0  0  0
  189.7990  176.3590  145.7970 C   0  0  0  0  0  0  0  0  0  0  0  0
  191.0570  176.6690  145.2580 C   0  0  0  0  0  3  0  0  0  0  0  0
  193.4640  176.6770  145.4160 O   0  0  0  0  0  1  0  0  0  0  0  0
  189.7330  175.7410  147.0570 C   0  0  0  0  0  3  0  0  0  0  0  0
  192.1490  175.7500  147.2130 C   0  0  0  0  0  3  0  0  0  0  0  0
  190.9030  175.4370  147.7610 C   0  0  0  0  0  3  0  0  0  0  0  0
  1  2  1  0  0  0  0
  2 18  1  0  0  0  0
  2 11  1  1  0  0  0
  3  6  1  0  0  0  0
  4 16  1  0  0  0  0
  4  1  2  0  0  0  0
  5 12  1  0  0  0  0
  6 18  2  0  0  0  0
  7  4  1  0  0  0  0
  8  5  2  0  0  0  0
  8  7  1  0  0  0  0
  9 10  1  0  0  0  0
  9 15  2  0  0  0  0
 11 17  2  0  0  0  0
 12 16  2  0  0  0  0
 13  3  2  0  0  0  0
 13  1  1  0  0  0  0
 14  7  2  0  0  0  0
 14 13  1  0  0  0  0
 17 15  1  0  0  0  0
 17 20  1  0  0  0  0
 18  9  1  0  0  0  0
 19 24  1  0  0  0  0
 20 23  2  0  0  0  0
 21 20  1  0  0  0  0
 21 19  2  0  0  0  0
 22 19  1  0  0  0  0
 23 25  1  0  0  0  0
 24 25  2  0  0  0  0
M  END
>  <MODEL>
9

>  <REMARK>
 VINA RESULT:      -7.6      2.782      5.143
  Name = 
  1 active torsions:
  status: ('A' for Active; 'I' for Inactive)
    1  A    between atoms: C_6  and  C_23
                            x       y       z     vdW  Elec       q    Type
                         _______ _______ _______ _____ _____    ______ ____

>  <TORSDO>
F 1

$$$$
