=
 OpenBabel11052420403D

 34 40  0  0  1  0  0  0  0  0999 V2000
  189.0350  174.5570  144.0660 C   0  0  1  0  0  3  0  0  0  0  0  0
  189.7900  174.7810  141.6030 C   0  0  1  0  0  3  0  0  0  0  0  0
  191.7060  175.9500  147.2060 C   0  0  0  0  0  0  0  0  0  0  0  0
  187.4720  175.4590  142.4640 C   0  0  2  0  0  3  0  0  0  0  0  0
  191.0280  177.4270  145.2980 C   0  0  0  0  0  2  0  0  0  0  0  0
  192.2650  173.4390  145.0930 O   0  0  0  0  0  0  0  0  0  0  0  0
  187.9450  176.4010  146.2080 C   0  0  2  0  0  3  0  0  0  0  0  0
  189.6090  174.5160  145.4820 C   0  0  0  0  0  2  0  0  0  0  0  0
  187.4560  176.4250  144.7630 C   0  0  1  0  0  0  0  0  0  0  0  0
  193.1220  174.4140  144.5640 C   0  0  0  0  0  0  0  0  0  0  0  0
  186.0620  176.4420  144.5510 O   0  0  0  0  0  0  0  0  0  0  0  0
  192.1260  172.1110  144.5820 C   0  0  2  0  0  3  0  0  0  0  0  0
  193.9460  174.1240  143.6550 O   0  0  0  0  0  0  0  0  0  0  0  0
  193.0680  175.9240  146.5670 C   0  0  0  0  0  2  0  0  0  0  0  0
  187.9760  177.6950  145.3960 C   0  0  0  0  0  2  0  0  0  0  0  0
  189.3460  175.7620  146.3330 C   0  0  1  0  0  3  0  0  0  0  0  0
  186.4310  176.5180  142.1070 C   0  0  0  0  0  2  0  0  0  0  0  0
  188.3380  175.8500  143.6580 C   0  0  1  0  0  3  0  0  0  0  0  0
  193.4190  171.3300  144.7360 C   0  0  0  0  0  1  0  0  0  0  0  0
  185.8270  177.1800  143.3650 C   0  0  0  0  0  2  0  0  0  0  0  0
  191.8180  176.5130  144.3620 C   0  0  0  0  0  2  0  0  0  0  0  0
  190.2780  172.6460  142.9710 C   0  0  0  0  0  0  0  0  0  0  0  0
  193.0180  175.8280  145.0330 C   0  0  2  0  0  3  0  0  0  0  0  0
  191.6650  172.1010  143.1270 C   0  0  0  0  0  2  0  0  0  0  0  0
  190.5610  176.6870  146.5580 C   0  0  1  0  0  3  0  0  0  0  0  0
  191.5470  175.4200  148.2930 O   0  0  0  0  0  0  0  0  0  0  0  0
  188.3010  174.9750  141.2610 C   0  0  0  0  0  2  0  0  0  0  0  0
  189.2690  171.8090  142.7310 C   0  0  0  0  0  2  0  0  0  0  0  0
  190.0640  174.1380  142.9960 C   0  0  2  0  0  3  0  0  0  0  0  0
  190.5660  174.1690  140.4450 C   0  0  0  0  0  2  0  0  0  0  0  0
  190.2410  172.2380  138.9470 C   0  0  2  0  0  3  0  0  0  0  0  0
  190.2410  173.4850  138.0930 C   0  0  0  0  0  2  0  0  0  0  0  0
  189.2340  171.3790  138.5080 O   0  0  0  0  0  1  0  0  0  0  0  0
  189.6090  173.5120  139.4690 C   0  0  2  0  0  3  0  0  0  0  0  0
  1  8  1  1  0  0  0
  2 30  1  6  0  0  0
  2 29  1  0  0  0  0
  3 26  2  0  0  0  0
  4 27  1  6  0  0  0
  4 18  1  0  0  0  0
  5 25  1  0  0  0  0
  7 15  1  6  0  0  0
  7 16  1  0  0  0  0
  9 15  1  6  0  0  0
  9  7  1  0  0  0  0
 10 23  1  0  0  0  0
 10  6  1  0  0  0  0
 11  9  1  0  0  0  0
 12 19  1  6  0  0  0
 12  6  1  0  0  0  0
 13 10  2  0  0  0  0
 14  3  1  0  0  0  0
 16  8  1  6  0  0  0
 16 25  1  0  0  0  0
 17  4  1  0  0  0  0
 17 20  1  0  0  0  0
 18  1  1  0  0  0  0
 18  9  1  0  0  0  0
 20 11  1  0  0  0  0
 21 23  1  0  0  0  0
 21  5  1  0  0  0  0
 22 29  1  0  0  0  0
 22 24  1  0  0  0  0
 23 14  1  0  0  0  0
 24 12  1  0  0  0  0
 25  3  1  0  0  0  0
 27  2  1  0  0  0  0
 28 22  2  0  0  0  0
 29  1  1  0  0  0  0
 31 34  1  0  0  0  0
 32 31  1  0  0  0  0
 32 34  1  0  0  0  0
 33 31  1  0  0  0  0
 34 30  1  0  0  0  0
M  END
>  <MODEL>
1

>  <REMARK>
 VINA RESULT:      -8.1      0.000      0.000
  Name = 
  2 active torsions:
  status: ('A' for Active; 'I' for Inactive)
    1  A    between atoms: C_2  and  C_23
    2  A    between atoms: C_23  and  C_25
                            x       y       z     vdW  Elec       q    Type
                         _______ _______ _______ _____ _____    ______ ____

>  <TORSDO>
F 2

$$$$
=
 OpenBabel11052420403D

 34 40  0  0  1  0  0  0  0  0999 V2000
  189.4220  174.3050  143.7400 C   0  0  1  0  0  3  0  0  0  0  0  0
  190.3450  174.4110  141.3270 C   0  0  1  0  0  3  0  0  0  0  0  0
  191.9150  175.7600  146.9970 C   0  0  0  0  0  0  0  0  0  0  0  0
  187.9940  175.1800  142.0030 C   0  0  2  0  0  3  0  0  0  0  0  0
  191.4060  177.1740  144.9920 C   0  0  0  0  0  2  0  0  0  0  0  0
  192.5460  173.1520  145.0260 O   0  0  0  0  0  0  0  0  0  0  0  0
  188.2430  176.2610  145.7310 C   0  0  2  0  0  3  0  0  0  0  0  0
  189.8990  174.3080  145.1920 C   0  0  0  0  0  2  0  0  0  0  0  0
  187.8520  176.2390  144.2560 C   0  0  1  0  0  0  0  0  0  0  0  0
  193.4620  174.0830  144.5180 C   0  0  0  0  0  0  0  0  0  0  0  0
  186.4760  176.2810  143.9510 O   0  0  0  0  0  0  0  0  0  0  0  0
  192.4050  171.8090  144.5590 C   0  0  2  0  0  3  0  0  0  0  0  0
  194.3360  173.7370  143.6790 O   0  0  0  0  0  0  0  0  0  0  0  0
  193.3160  175.6750  146.4530 C   0  0  0  0  0  2  0  0  0  0  0  0
  188.3630  177.5200  144.8730 C   0  0  0  0  0  2  0  0  0  0  0  0
  189.6150  175.5930  145.9750 C   0  0  1  0  0  3  0  0  0  0  0  0
  187.0080  176.2480  141.5360 C   0  0  0  0  0  2  0  0  0  0  0  0
  188.7890  175.5980  143.2360 C   0  0  1  0  0  3  0  0  0  0  0  0
  193.6630  171.0030  144.8290 C   0  0  0  0  0  1  0  0  0  0  0  0
  186.3410  176.9750  142.7230 C   0  0  0  0  0  2  0  0  0  0  0  0
  192.2310  176.2040  144.1480 C   0  0  0  0  0  2  0  0  0  0  0  0
  190.6840  172.3230  142.8070 C   0  0  0  0  0  0  0  0  0  0  0  0
  193.3650  175.5180  144.9230 C   0  0  2  0  0  3  0  0  0  0  0  0
  192.0420  171.7500  143.0770 C   0  0  0  0  0  2  0  0  0  0  0  0
  190.8360  176.4980  146.2450 C   0  0  1  0  0  3  0  0  0  0  0  0
  191.6710  175.2780  148.0900 O   0  0  0  0  0  0  0  0  0  0  0  0
  188.8880  174.6280  140.8780 C   0  0  0  0  0  2  0  0  0  0  0  0
  189.6700  171.5010  142.5310 C   0  0  0  0  0  2  0  0  0  0  0  0
  190.5080  173.8190  142.7600 C   0  0  2  0  0  3  0  0  0  0  0  0
  191.1790  173.7350  140.2490 C   0  0  0  0  0  2  0  0  0  0  0  0
  193.2120  174.2440  138.9480 C   0  0  2  0  0  3  0  0  0  0  0  0
  193.5320  173.0840  139.8620 C   0  0  0  0  0  2  0  0  0  0  0  0
  194.2840  175.1340  138.9410 O   0  0  0  0  0  1  0  0  0  0  0  0
  192.6210  174.1950  140.3420 C   0  0  2  0  0  3  0  0  0  0  0  0
  1  8  1  1  0  0  0
  2 30  1  6  0  0  0
  2 29  1  0  0  0  0
  3 26  2  0  0  0  0
  4 27  1  6  0  0  0
  4 18  1  0  0  0  0
  5 25  1  0  0  0  0
  7 15  1  6  0  0  0
  7 16  1  0  0  0  0
  9 15  1  6  0  0  0
  9  7  1  0  0  0  0
 10 23  1  0  0  0  0
 10  6  1  0  0  0  0
 11  9  1  0  0  0  0
 12 19  1  6  0  0  0
 12  6  1  0  0  0  0
 13 10  2  0  0  0  0
 14  3  1  0  0  0  0
 16  8  1  6  0  0  0
 16 25  1  0  0  0  0
 17  4  1  0  0  0  0
 17 20  1  0  0  0  0
 18  1  1  0  0  0  0
 18  9  1  0  0  0  0
 20 11  1  0  0  0  0
 21 23  1  0  0  0  0
 21  5  1  0  0  0  0
 22 24  1  0  0  0  0
 23 14  1  0  0  0  0
 24 12  1  0  0  0  0
 25  3  1  0  0  0  0
 27  2  1  0  0  0  0
 28 22  2  0  0  0  0
 29 22  1  0  0  0  0
 29  1  1  0  0  0  0
 30 34  1  0  0  0  0
 31 32  1  0  0  0  0
 31 34  1  0  0  0  0
 32 34  1  0  0  0  0
 33 31  1  0  0  0  0
M  END
>  <MODEL>
2

>  <REMARK>
 VINA RESULT:      -7.8      1.367      1.604
  Name = 
  2 active torsions:
  status: ('A' for Active; 'I' for Inactive)
    1  A    between atoms: C_2  and  C_23
    2  A    between atoms: C_23  and  C_25
                            x       y       z     vdW  Elec       q    Type
                         _______ _______ _______ _____ _____    ______ ____

>  <TORSDO>
F 2

$$$$
=
 OpenBabel11052420403D

 34 40  0  0  1  0  0  0  0  0999 V2000
  192.1960  175.2350  144.1060 C   0  0  1  0  0  3  0  0  0  0  0  0
  194.1590  174.2880  145.4970 C   0  0  1  0  0  3  0  0  0  0  0  0
  189.4750  172.4480  142.1650 C   0  0  0  0  0  0  0  0  0  0  0  0
  192.6030  176.1630  146.2960 C   0  0  2  0  0  3  0  0  0  0  0  0
  189.9750  172.3130  144.6160 C   0  0  0  0  0  2  0  0  0  0  0  0
  192.7140  172.8470  141.5050 O   0  0  0  0  0  0  0  0  0  0  0  0
  189.2110  175.5970  144.4790 C   0  0  2  0  0  3  0  0  0  0  0  0
  191.2260  174.8290  142.9960 C   0  0  0  0  0  2  0  0  0  0  0  0
  190.2310  175.9300  145.5640 C   0  0  1  0  0  0  0  0  0  0  0  0
  192.7420  171.6270  142.1930 C   0  0  0  0  0  0  0  0  0  0  0  0
  190.0950  177.1710  146.2200 O   0  0  0  0  0  0  0  0  0  0  0  0
  193.8590  173.4930  140.9430 C   0  0  2  0  0  3  0  0  0  0  0  0
  193.7980  170.9400  142.2460 O   0  0  0  0  0  0  0  0  0  0  0  0
  190.2780  171.1810  142.0370 C   0  0  0  0  0  2  0  0  0  0  0  0
  189.1030  174.9710  145.8690 C   0  0  0  0  0  2  0  0  0  0  0  0
  189.7780  174.6030  143.4390 C   0  0  1  0  0  3  0  0  0  0  0  0
  192.0500  176.6380  147.6380 C   0  0  0  0  0  2  0  0  0  0  0  0
  191.6190  175.2970  145.5160 C   0  0  1  0  0  3  0  0  0  0  0  0
  194.4620  172.6600  139.8270 C   0  0  0  0  0  1  0  0  0  0  0  0
  190.5500  176.9940  147.5500 C   0  0  0  0  0  2  0  0  0  0  0  0
  191.4070  171.9160  144.2630 C   0  0  0  0  0  2  0  0  0  0  0  0
  194.4280  174.8330  142.9880 C   0  0  0  0  0  0  0  0  0  0  0  0
  191.5300  171.1610  142.9310 C   0  0  2  0  0  3  0  0  0  0  0  0
  194.9130  173.8150  142.0000 C   0  0  0  0  0  2  0  0  0  0  0  0
  189.3160  173.1320  143.4990 C   0  0  1  0  0  3  0  0  0  0  0  0
  188.8960  172.8870  141.1860 O   0  0  0  0  0  0  0  0  0  0  0  0
  194.0040  175.5320  146.3920 C   0  0  0  0  0  2  0  0  0  0  0  0
  194.8920  176.0810  142.9230 C   0  0  0  0  0  2  0  0  0  0  0  0
  193.4950  174.4040  144.0920 C   0  0  2  0  0  3  0  0  0  0  0  0
  195.5880  173.7620  145.4960 C   0  0  0  0  0  2  0  0  0  0  0  0
  196.8160  171.7060  146.0810 C   0  0  2  0  0  3  0  0  0  0  0  0
  196.7800  171.8040  144.5730 C   0  0  0  0  0  2  0  0  0  0  0  0
  196.5770  170.3860  146.4620 O   0  0  0  0  0  1  0  0  0  0  0  0
  195.5840  172.2500  145.3880 C   0  0  2  0  0  3  0  0  0  0  0  0
  1  8  1  6  0  0  0
  1 18  1  0  0  0  0
  2 30  1  6  0  0  0
  2 27  1  0  0  0  0
  3 25  1  0  0  0  0
  4 27  1  1  0  0  0
  4 17  1  0  0  0  0
  6 10  1  0  0  0  0
  7  9  1  0  0  0  0
  7 15  1  1  0  0  0
  9 15  1  1  0  0  0
  9 11  1  0  0  0  0
 10 13  2  0  0  0  0
 10 23  1  0  0  0  0
 11 20  1  0  0  0  0
 12 19  1  6  0  0  0
 12  6  1  0  0  0  0
 12 24  1  0  0  0  0
 14  3  1  0  0  0  0
 14 23  1  0  0  0  0
 16  8  1  1  0  0  0
 16 25  1  0  0  0  0
 16  7  1  0  0  0  0
 18  9  1  0  0  0  0
 18  4  1  0  0  0  0
 20 17  1  0  0  0  0
 21  5  1  0  0  0  0
 22 29  1  0  0  0  0
 23 21  1  0  0  0  0
 24 22  1  0  0  0  0
 25  5  1  0  0  0  0
 26  3  2  0  0  0  0
 28 22  2  0  0  0  0
 29  1  1  0  0  0  0
 29  2  1  0  0  0  0
 31 33  1  0  0  0  0
 32 34  1  0  0  0  0
 32 31  1  0  0  0  0
 34 30  1  0  0  0  0
 34 31  1  0  0  0  0
M  END
>  <MODEL>
3

>  <REMARK>
 VINA RESULT:      -7.5      2.347      5.914
  Name = 
  2 active torsions:
  status: ('A' for Active; 'I' for Inactive)
    1  A    between atoms: C_2  and  C_23
    2  A    between atoms: C_23  and  C_25
                            x       y       z     vdW  Elec       q    Type
                         _______ _______ _______ _____ _____    ______ ____

>  <TORSDO>
F 2

$$$$
=
 OpenBabel11052420403D

 34 40  0  0  1  0  0  0  0  0999 V2000
  191.2490  174.0390  144.4310 C   0  0  1  0  0  3  0  0  0  0  0  0
  189.4720  175.3770  143.1140 C   0  0  1  0  0  3  0  0  0  0  0  0
  195.3310  173.9400  142.9250 C   0  0  0  0  0  0  0  0  0  0  0  0
  189.7890  175.5190  145.6540 C   0  0  2  0  0  3  0  0  0  0  0  0
  194.1210  176.0990  143.3210 C   0  0  0  0  0  2  0  0  0  0  0  0
  192.6340  172.6770  141.4370 O   0  0  0  0  0  0  0  0  0  0  0  0
  193.5270  174.6770  146.3230 C   0  0  2  0  0  3  0  0  0  0  0  0
  192.6150  173.3790  144.2430 C   0  0  0  0  0  2  0  0  0  0  0  0
  192.1550  175.3390  146.4200 C   0  0  1  0  0  0  0  0  0  0  0  0
  192.8560  173.8120  140.6440 C   0  0  0  0  0  0  0  0  0  0  0  0
  191.5590  175.4070  147.6960 O   0  0  0  0  0  0  0  0  0  0  0  0
  191.5940  171.7220  141.2190 C   0  0  2  0  0  3  0  0  0  0  0  0
  192.2070  173.9910  139.5780 O   0  0  0  0  0  0  0  0  0  0  0  0
  195.1880  174.2490  141.4590 C   0  0  0  0  0  2  0  0  0  0  0  0
  193.3920  176.2000  146.2960 C   0  0  0  0  0  2  0  0  0  0  0  0
  193.7890  174.0950  144.9160 C   0  0  1  0  0  3  0  0  0  0  0  0
  189.6170  176.5920  146.7280 C   0  0  0  0  0  2  0  0  0  0  0  0
  191.2360  175.3540  145.2010 C   0  0  1  0  0  3  0  0  0  0  0  0
  191.7870  170.9960  139.9000 C   0  0  0  0  0  1  0  0  0  0  0  0
  190.7870  176.5940  147.7350 C   0  0  0  0  0  2  0  0  0  0  0  0
  193.1760  175.7340  142.1780 C   0  0  0  0  0  2  0  0  0  0  0  0
  189.8840  172.8710  142.6510 C   0  0  0  0  0  0  0  0  0  0  0  0
  193.8230  174.8570  141.0950 C   0  0  2  0  0  3  0  0  0  0  0  0
  190.2070  172.3570  141.2810 C   0  0  0  0  0  2  0  0  0  0  0  0
  194.7420  174.8550  143.9690 C   0  0  1  0  0  3  0  0  0  0  0  0
  195.9860  172.9710  143.2690 O   0  0  0  0  0  0  0  0  0  0  0  0
  188.8090  175.6590  144.4760 C   0  0  0  0  0  2  0  0  0  0  0  0
  189.0170  172.2020  143.4140 C   0  0  0  0  0  2  0  0  0  0  0  0
  190.4720  174.1820  143.1070 C   0  0  2  0  0  3  0  0  0  0  0  0
  188.4600  175.3810  141.9770 C   0  0  0  0  0  2  0  0  0  0  0  0
  187.0480  177.0180  140.7910 C   0  0  2  0  0  3  0  0  0  0  0  0
  188.0810  177.7900  141.5780 C   0  0  0  0  0  2  0  0  0  0  0  0
  185.8110  177.6510  140.9090 O   0  0  0  0  0  1  0  0  0  0  0  0
  187.4820  176.5250  142.1560 C   0  0  2  0  0  3  0  0  0  0  0  0
  1  8  1  6  0  0  0
  1 18  1  0  0  0  0
  2 30  1  6  0  0  0
  2 27  1  0  0  0  0
  3 26  2  0  0  0  0
  3 25  1  0  0  0  0
  4 27  1  6  0  0  0
  4 17  1  0  0  0  0
  5 25  1  0  0  0  0
  7 15  1  6  0  0  0
  7  9  1  0  0  0  0
  9 15  1  6  0  0  0
  9 11  1  0  0  0  0
 10 23  1  0  0  0  0
 10  6  1  0  0  0  0
 11 20  1  0  0  0  0
 12 19  1  6  0  0  0
 12 24  1  0  0  0  0
 12  6  1  0  0  0  0
 13 10  2  0  0  0  0
 14  3  1  0  0  0  0
 16  8  1  6  0  0  0
 16  7  1  0  0  0  0
 17 20  1  0  0  0  0
 18  4  1  0  0  0  0
 18  9  1  0  0  0  0
 21  5  1  0  0  0  0
 22 29  1  0  0  0  0
 22 28  2  0  0  0  0
 23 14  1  0  0  0  0
 23 21  1  0  0  0  0
 24 22  1  0  0  0  0
 25 16  1  0  0  0  0
 29  2  1  0  0  0  0
 29  1  1  0  0  0  0
 30 34  1  0  0  0  0
 31 33  1  0  0  0  0
 31 32  1  0  0  0  0
 31 34  1  0  0  0  0
 32 34  1  0  0  0  0
M  END
>  <MODEL>
4

>  <REMARK>
 VINA RESULT:      -7.4      2.016      4.634
  Name = 
  2 active torsions:
  status: ('A' for Active; 'I' for Inactive)
    1  A    between atoms: C_2  and  C_23
    2  A    between atoms: C_23  and  C_25
                            x       y       z     vdW  Elec       q    Type
                         _______ _______ _______ _____ _____    ______ ____

>  <TORSDO>
F 2

$$$$
=
 OpenBabel11052420403D

 34 40  0  0  1  0  0  0  0  0999 V2000
  191.3760  174.9150  142.2440 C   0  0  1  0  0  3  0  0  0  0  0  0
  189.4400  175.0510  143.9520 C   0  0  1  0  0  3  0  0  0  0  0  0
  194.9250  172.6230  143.2860 C   0  0  0  0  0  0  0  0  0  0  0  0
  189.1250  174.5410  141.4600 C   0  0  2  0  0  3  0  0  0  0  0  0
  192.6280  171.6280  143.4070 C   0  0  0  0  0  2  0  0  0  0  0  0
  193.8320  175.3840  144.7910 O   0  0  0  0  0  0  0  0  0  0  0  0
  192.4310  172.8690  140.2760 C   0  0  2  0  0  3  0  0  0  0  0  0
  192.8730  174.6170  142.1720 C   0  0  0  0  0  2  0  0  0  0  0  0
  190.9460  173.1770  140.4380 C   0  0  1  0  0  0  0  0  0  0  0  0
  193.4870  174.4190  145.7470 C   0  0  0  0  0  0  0  0  0  0  0  0
  190.1960  173.3850  139.2620 O   0  0  0  0  0  0  0  0  0  0  0  0
  193.6190  176.7900  144.9380 C   0  0  2  0  0  3  0  0  0  0  0  0
  193.0740  174.7590  146.8880 O   0  0  0  0  0  0  0  0  0  0  0  0
  194.9080  172.5850  144.7900 C   0  0  0  0  0  2  0  0  0  0  0  0
  191.4330  171.7540  140.5870 C   0  0  0  0  0  2  0  0  0  0  0  0
  193.2470  173.2820  141.5220 C   0  0  1  0  0  3  0  0  0  0  0  0
  188.1550  173.7140  140.6190 C   0  0  0  0  0  2  0  0  0  0  0  0
  190.4450  173.8240  141.7270 C   0  0  1  0  0  3  0  0  0  0  0  0
  194.4480  177.3500  146.0810 C   0  0  0  0  0  1  0  0  0  0  0  0
  188.8830  172.9180  139.5150 C   0  0  0  0  0  2  0  0  0  0  0  0
  192.3170  172.5850  144.5560 C   0  0  0  0  0  2  0  0  0  0  0  0
  191.3270  176.8120  143.9160 C   0  0  0  0  0  0  0  0  0  0  0  0
  193.5460  172.9680  145.3940 C   0  0  2  0  0  3  0  0  0  0  0  0
  192.1430  177.1300  145.1320 C   0  0  0  0  0  2  0  0  0  0  0  0
  193.7260  172.1770  142.4880 C   0  0  1  0  0  3  0  0  0  0  0  0
  195.9460  172.9590  142.7100 O   0  0  0  0  0  0  0  0  0  0  0  0
  188.4960  175.1230  142.7380 C   0  0  0  0  0  2  0  0  0  0  0  0
  190.8970  177.8070  143.1380 C   0  0  0  0  0  2  0  0  0  0  0  0
  190.9310  175.3830  143.6440 C   0  0  2  0  0  3  0  0  0  0  0  0
  188.8580  175.7580  145.1690 C   0  0  0  0  0  2  0  0  0  0  0  0
  187.5560  177.8490  145.2990 C   0  0  2  0  0  3  0  0  0  0  0  0
  186.8040  176.7910  146.0750 C   0  0  0  0  0  2  0  0  0  0  0  0
  186.6530  178.5970  144.5470 O   0  0  0  0  0  1  0  0  0  0  0  0
  187.5410  176.4160  144.8060 C   0  0  2  0  0  3  0  0  0  0  0  0
  1  8  1  1  0  0  0
  1 29  1  0  0  0  0
  2 30  1  1  0  0  0
  3 14  1  0  0  0  0
  4 17  1  1  0  0  0
  4 18  1  0  0  0  0
  4 27  1  0  0  0  0
  5 21  1  0  0  0  0
  6 12  1  0  0  0  0
  6 10  1  0  0  0  0
  7  9  1  0  0  0  0
  7 15  1  1  0  0  0
  7 16  1  0  0  0  0
  9 15  1  1  0  0  0
  9 18  1  0  0  0  0
 10 13  2  0  0  0  0
 11 20  1  0  0  0  0
 11  9  1  0  0  0  0
 12 24  1  0  0  0  0
 12 19  1  1  0  0  0
 14 23  1  0  0  0  0
 16  8  1  1  0  0  0
 16 25  1  0  0  0  0
 18  1  1  0  0  0  0
 20 17  1  0  0  0  0
 21 23  1  0  0  0  0
 22 24  1  0  0  0  0
 23 10  1  0  0  0  0
 25  3  1  0  0  0  0
 25  5  1  0  0  0  0
 26  3  2  0  0  0  0
 27  2  1  0  0  0  0
 28 22  2  0  0  0  0
 29 22  1  0  0  0  0
 29  2  1  0  0  0  0
 31 32  1  0  0  0  0
 33 31  1  0  0  0  0
 34 30  1  0  0  0  0
 34 31  1  0  0  0  0
 34 32  1  0  0  0  0
M  END
>  <MODEL>
5

>  <REMARK>
 VINA RESULT:      -7.3      1.664      5.725
  Name = 
  2 active torsions:
  status: ('A' for Active; 'I' for Inactive)
    1  A    between atoms: C_2  and  C_23
    2  A    between atoms: C_23  and  C_25
                            x       y       z     vdW  Elec       q    Type
                         _______ _______ _______ _____ _____    ______ ____

>  <TORSDO>
F 2

$$$$
=
 OpenBabel11052420403D

 34 40  0  0  1  0  0  0  0  0999 V2000
  188.9410  174.7680  144.4000 C   0  0  1  0  0  3  0  0  0  0  0  0
  188.1220  176.1590  142.3800 C   0  0  1  0  0  3  0  0  0  0  0  0
  193.2190  174.4800  145.1410 C   0  0  0  0  0  0  0  0  0  0  0  0
  187.1300  176.3260  144.7380 C   0  0  2  0  0  3  0  0  0  0  0  0
  192.0690  176.6920  144.8940 C   0  0  0  0  0  2  0  0  0  0  0  0
  191.5790  173.3060  142.4920 O   0  0  0  0  0  0  0  0  0  0  0  0
  189.9910  175.3420  147.1830 C   0  0  2  0  0  3  0  0  0  0  0  0
  190.1880  174.0500  144.9160 C   0  0  0  0  0  2  0  0  0  0  0  0
  188.7850  176.0600  146.5850 C   0  0  1  0  0  0  0  0  0  0  0  0
  192.2170  174.4190  141.9250 C   0  0  0  0  0  0  0  0  0  0  0  0
  187.6330  176.1720  147.3910 O   0  0  0  0  0  0  0  0  0  0  0  0
  190.7480  172.3910  141.7760 C   0  0  2  0  0  3  0  0  0  0  0  0
  192.1980  174.6080  140.6790 O   0  0  0  0  0  0  0  0  0  0  0  0
  193.8430  174.7720  143.8030 C   0  0  0  0  0  2  0  0  0  0  0  0
  189.9520  176.8680  147.1040 C   0  0  0  0  0  2  0  0  0  0  0  0
  190.8970  174.7270  146.0920 C   0  0  1  0  0  3  0  0  0  0  0  0
  186.4900  177.4210  145.5890 C   0  0  0  0  0  2  0  0  0  0  0  0
  188.6010  176.0950  145.0700 C   0  0  1  0  0  3  0  0  0  0  0  0
  191.5440  171.6380  140.7250 C   0  0  0  0  0  1  0  0  0  0  0  0
  186.9970  177.3900  147.0470 C   0  0  0  0  0  2  0  0  0  0  0  0
  191.8080  176.3490  143.4280 C   0  0  0  0  0  2  0  0  0  0  0  0
  188.6010  173.6310  142.1670 C   0  0  0  0  0  0  0  0  0  0  0  0
  192.8720  175.4300  142.8090 C   0  0  2  0  0  3  0  0  0  0  0  0
  189.5450  173.0830  141.1390 C   0  0  0  0  0  2  0  0  0  0  0  0
  192.2270  175.4340  145.7560 C   0  0  1  0  0  3  0  0  0  0  0  0
  193.5720  173.4900  145.7590 O   0  0  0  0  0  0  0  0  0  0  0  0
  186.8790  176.4890  143.2290 C   0  0  0  0  0  2  0  0  0  0  0  0
  187.4420  173.0100  142.3880 C   0  0  0  0  0  2  0  0  0  0  0  0
  188.9380  174.9240  142.8660 C   0  0  2  0  0  3  0  0  0  0  0  0
  187.8170  176.1870  140.8890 C   0  0  0  0  0  2  0  0  0  0  0  0
  185.7640  177.4150  140.2900 C   0  0  2  0  0  3  0  0  0  0  0  0
  186.6910  177.4630  139.0970 C   0  0  0  0  0  2  0  0  0  0  0  0
  185.1730  178.6650  140.4650 O   0  0  0  0  0  1  0  0  0  0  0  0
  187.2590  177.5420  140.4990 C   0  0  2  0  0  3  0  0  0  0  0  0
  1  8  1  1  0  0  0
  1 18  1  0  0  0  0
  2 30  1  6  0  0  0
  2 29  1  0  0  0  0
  2 27  1  0  0  0  0
  3 25  1  0  0  0  0
  3 26  2  0  0  0  0
  4 27  1  6  0  0  0
  4 18  1  0  0  0  0
  4 17  1  0  0  0  0
  5 25  1  0  0  0  0
  7 15  1  6  0  0  0
  9 15  1  1  0  0  0
  9  7  1  0  0  0  0
  9 11  1  0  0  0  0
 10  6  1  0  0  0  0
 10 23  1  0  0  0  0
 12 19  1  6  0  0  0
 12  6  1  0  0  0  0
 13 10  2  0  0  0  0
 14  3  1  0  0  0  0
 16  8  1  6  0  0  0
 16  7  1  0  0  0  0
 17 20  1  0  0  0  0
 18  9  1  0  0  0  0
 20 11  1  0  0  0  0
 21  5  1  0  0  0  0
 22 28  2  0  0  0  0
 22 29  1  0  0  0  0
 23 21  1  0  0  0  0
 23 14  1  0  0  0  0
 24 12  1  0  0  0  0
 24 22  1  0  0  0  0
 25 16  1  0  0  0  0
 29  1  1  0  0  0  0
 31 33  1  0  0  0  0
 31 34  1  0  0  0  0
 32 31  1  0  0  0  0
 32 34  1  0  0  0  0
 34 30  1  0  0  0  0
M  END
>  <MODEL>
6

>  <REMARK>
 VINA RESULT:      -7.3      1.936      3.398
  Name = 
  2 active torsions:
  status: ('A' for Active; 'I' for Inactive)
    1  A    between atoms: C_2  and  C_23
    2  A    between atoms: C_23  and  C_25
                            x       y       z     vdW  Elec       q    Type
                         _______ _______ _______ _____ _____    ______ ____

>  <TORSDO>
F 2

$$$$
=
 OpenBabel11052420403D

 34 40  0  0  1  0  0  0  0  0999 V2000
  189.9240  174.7230  144.1960 C   0  0  1  0  0  3  0  0  0  0  0  0
  189.5070  173.7500  141.8370 C   0  0  1  0  0  3  0  0  0  0  0  0
  193.8210  176.4410  145.0890 C   0  0  0  0  0  0  0  0  0  0  0  0
  187.8840  175.3180  143.0530 C   0  0  2  0  0  3  0  0  0  0  0  0
  192.4760  177.1780  143.1070 C   0  0  0  0  0  2  0  0  0  0  0  0
  193.1720  173.2550  144.3720 O   0  0  0  0  0  0  0  0  0  0  0  0
  190.0610  177.4790  145.4440 C   0  0  2  0  0  3  0  0  0  0  0  0
  191.0680  175.0830  145.1440 C   0  0  0  0  0  2  0  0  0  0  0  0
  188.9790  177.0710  144.4500 C   0  0  1  0  0  0  0  0  0  0  0  0
  193.7740  173.6690  143.1750 C   0  0  0  0  0  0  0  0  0  0  0  0
  187.6450  177.3860  144.7800 O   0  0  0  0  0  0  0  0  0  0  0  0
  192.7150  171.9270  144.6380 C   0  0  2  0  0  3  0  0  0  0  0  0
  194.0750  172.8330  142.2820 O   0  0  0  0  0  0  0  0  0  0  0  0
  194.7440  175.7940  144.0920 C   0  0  0  0  0  2  0  0  0  0  0  0
  189.8260  178.2910  144.1710 C   0  0  0  0  0  2  0  0  0  0  0  0
  191.3150  176.5820  145.3360 C   0  0  1  0  0  3  0  0  0  0  0  0
  186.8800  176.3950  142.6470 C   0  0  0  0  0  2  0  0  0  0  0  0
  189.2220  175.8910  143.5120 C   0  0  1  0  0  3  0  0  0  0  0  0
  193.8740  170.9460  144.6590 C   0  0  0  0  0  1  0  0  0  0  0  0
  186.9600  177.6340  143.5650 C   0  0  0  0  0  2  0  0  0  0  0  0
  192.6870  175.7930  142.4990 C   0  0  0  0  0  2  0  0  0  0  0  0
  190.3880  172.2750  143.7640 C   0  0  0  0  0  0  0  0  0  0  0  0
  194.0030  175.1230  142.9220 C   0  0  2  0  0  3  0  0  0  0  0  0
  191.6500  171.4750  143.6410 C   0  0  0  0  0  2  0  0  0  0  0  0
  192.5690  177.1500  144.6380 C   0  0  1  0  0  3  0  0  0  0  0  0
  194.1270  176.4430  146.2690 O   0  0  0  0  0  0  0  0  0  0  0  0
  188.0430  174.1960  142.0130 C   0  0  0  0  0  2  0  0  0  0  0  0
  189.3160  171.7230  144.3340 C   0  0  0  0  0  2  0  0  0  0  0  0
  190.3260  173.6550  143.1590 C   0  0  2  0  0  3  0  0  0  0  0  0
  189.6280  172.5470  140.9130 C   0  0  0  0  0  2  0  0  0  0  0  0
  191.3320  172.0430  139.2020 C   0  0  2  0  0  3  0  0  0  0  0  0
  191.6350  173.4140  139.7610 C   0  0  0  0  0  2  0  0  0  0  0  0
  191.5000  172.0620  137.8180 O   0  0  0  0  0  1  0  0  0  0  0  0
  190.1980  172.9760  139.5750 C   0  0  2  0  0  3  0  0  0  0  0  0
  1  8  1  6  0  0  0
  2 30  1  1  0  0  0
  2 27  1  0  0  0  0
  2 29  1  0  0  0  0
  3 26  2  0  0  0  0
  4 27  1  6  0  0  0
  4 18  1  0  0  0  0
  5 25  1  0  0  0  0
  6 12  1  0  0  0  0
  7 15  1  6  0  0  0
  9 15  1  6  0  0  0
  9 11  1  0  0  0  0
  9  7  1  0  0  0  0
 10  6  1  0  0  0  0
 12 19  1  6  0  0  0
 13 10  2  0  0  0  0
 14  3  1  0  0  0  0
 16  8  1  6  0  0  0
 16  7  1  0  0  0  0
 17  4  1  0  0  0  0
 17 20  1  0  0  0  0
 18  1  1  0  0  0  0
 18  9  1  0  0  0  0
 20 11  1  0  0  0  0
 21 23  1  0  0  0  0
 21  5  1  0  0  0  0
 22 28  2  0  0  0  0
 23 10  1  0  0  0  0
 23 14  1  0  0  0  0
 24 22  1  0  0  0  0
 24 12  1  0  0  0  0
 25  3  1  0  0  0  0
 25 16  1  0  0  0  0
 29 22  1  0  0  0  0
 29  1  1  0  0  0  0
 31 34  1  0  0  0  0
 31 32  1  0  0  0  0
 33 31  1  0  0  0  0
 34 32  1  0  0  0  0
 34 30  1  0  0  0  0
M  END
>  <MODEL>
7

>  <REMARK>
 VINA RESULT:      -7.3      1.488      1.859
  Name = 
  2 active torsions:
  status: ('A' for Active; 'I' for Inactive)
    1  A    between atoms: C_2  and  C_23
    2  A    between atoms: C_23  and  C_25
                            x       y       z     vdW  Elec       q    Type
                         _______ _______ _______ _____ _____    ______ ____

>  <TORSDO>
F 2

$$$$
=
 OpenBabel11052420403D

 34 40  0  0  1  0  0  0  0  0999 V2000
  191.3220  174.0290  144.7390 C   0  0  1  0  0  3  0  0  0  0  0  0
  190.3460  174.8060  142.4750 C   0  0  1  0  0  3  0  0  0  0  0  0
  195.4320  175.0760  145.7130 C   0  0  0  0  0  0  0  0  0  0  0  0
  189.1340  175.0450  144.7210 C   0  0  2  0  0  3  0  0  0  0  0  0
  193.7530  176.8100  145.0370 C   0  0  0  0  0  2  0  0  0  0  0  0
  194.4210  173.0980  143.2340 O   0  0  0  0  0  0  0  0  0  0  0  0
  191.9170  175.2930  147.4270 C   0  0  2  0  0  3  0  0  0  0  0  0
  192.6640  173.7800  145.4280 C   0  0  0  0  0  2  0  0  0  0  0  0
  190.6210  175.5420  146.6600 C   0  0  1  0  0  0  0  0  0  0  0  0
  194.7830  174.2450  142.5140 C   0  0  0  0  0  0  0  0  0  0  0  0
  189.4140  175.4460  147.3810 O   0  0  0  0  0  0  0  0  0  0  0  0
  193.9380  171.8870  142.6490 C   0  0  2  0  0  3  0  0  0  0  0  0
  194.8280  174.2290  141.2550 O   0  0  0  0  0  0  0  0  0  0  0  0
  196.0740  175.3250  144.3750 C   0  0  0  0  0  2  0  0  0  0  0  0
  191.4740  176.7160  147.0850 C   0  0  0  0  0  2  0  0  0  0  0  0
  193.0510  174.8010  146.5010 C   0  0  1  0  0  3  0  0  0  0  0  0
  188.1450  176.0320  145.3410 C   0  0  0  0  0  2  0  0  0  0  0  0
  190.5750  175.2920  145.1550 C   0  0  1  0  0  3  0  0  0  0  0  0
  195.0020  171.2380  141.7810 C   0  0  0  0  0  1  0  0  0  0  0  0
  188.5060  176.3680  146.8040 C   0  0  0  0  0  2  0  0  0  0  0  0
  193.7310  176.1870  143.6420 C   0  0  0  0  0  2  0  0  0  0  0  0
  191.5090  172.5150  142.7230 C   0  0  0  0  0  0  0  0  0  0  0  0
  195.0550  175.5220  143.2390 C   0  0  2  0  0  3  0  0  0  0  0  0
  192.6560  172.1060  141.8490 C   0  0  0  0  0  2  0  0  0  0  0  0
  194.1660  175.7940  146.1100 C   0  0  1  0  0  3  0  0  0  0  0  0
  195.9810  174.3330  146.5080 O   0  0  0  0  0  0  0  0  0  0  0  0
  188.9880  174.8980  143.1960 C   0  0  0  0  0  2  0  0  0  0  0  0
  190.5460  171.6330  142.9930 C   0  0  0  0  0  2  0  0  0  0  0  0
  191.4180  173.9410  143.2030 C   0  0  2  0  0  3  0  0  0  0  0  0
  190.1830  174.5190  140.9890 C   0  0  0  0  0  2  0  0  0  0  0  0
  188.8240  173.2550  139.3650 C   0  0  2  0  0  3  0  0  0  0  0  0
  188.1980  174.6220  139.5210 C   0  0  0  0  0  2  0  0  0  0  0  0
  187.8190  172.2890  139.3300 O   0  0  0  0  0  1  0  0  0  0  0  0
  188.8110  173.9310  140.7210 C   0  0  2  0  0  3  0  0  0  0  0  0
  1 18  1  0  0  0  0
  1  8  1  1  0  0  0
  2 30  1  6  0  0  0
  2 27  1  0  0  0  0
  2 29  1  0  0  0  0
  3 25  1  0  0  0  0
  3 26  2  0  0  0  0
  4 27  1  6  0  0  0
  4 18  1  0  0  0  0
  4 17  1  0  0  0  0
  5 25  1  0  0  0  0
  7 15  1  6  0  0  0
  9 15  1  6  0  0  0
  9 11  1  0  0  0  0
  9  7  1  0  0  0  0
 10  6  1  0  0  0  0
 10 23  1  0  0  0  0
 12 19  1  6  0  0  0
 12  6  1  0  0  0  0
 13 10  2  0  0  0  0
 14  3  1  0  0  0  0
 16  8  1  6  0  0  0
 16  7  1  0  0  0  0
 17 20  1  0  0  0  0
 18  9  1  0  0  0  0
 20 11  1  0  0  0  0
 21  5  1  0  0  0  0
 22 28  2  0  0  0  0
 22 29  1  0  0  0  0
 23 21  1  0  0  0  0
 23 14  1  0  0  0  0
 24 12  1  0  0  0  0
 24 22  1  0  0  0  0
 25 16  1  0  0  0  0
 29  1  1  0  0  0  0
 31 32  1  0  0  0  0
 31 34  1  0  0  0  0
 32 34  1  0  0  0  0
 33 31  1  0  0  0  0
 34 30  1  0  0  0  0
M  END
>  <MODEL>
8

>  <REMARK>
 VINA RESULT:      -7.2      1.785      3.008
  Name = 
  2 active torsions:
  status: ('A' for Active; 'I' for Inactive)
    1  A    between atoms: C_2  and  C_23
    2  A    between atoms: C_23  and  C_25
                            x       y       z     vdW  Elec       q    Type
                         _______ _______ _______ _____ _____    ______ ____

>  <TORSDO>
F 2

$$$$
=
 OpenBabel11052420403D

 34 40  0  0  1  0  0  0  0  0999 V2000
  191.8420  175.6360  143.8190 C   0  0  1  0  0  3  0  0  0  0  0  0
  193.3340  173.7960  144.8550 C   0  0  1  0  0  3  0  0  0  0  0  0
  188.5470  174.4470  141.2370 C   0  0  0  0  0  0  0  0  0  0  0  0
  192.3630  175.7700  146.1710 C   0  0  2  0  0  3  0  0  0  0  0  0
  188.8180  173.5120  143.5460 C   0  0  0  0  0  2  0  0  0  0  0  0
  191.7930  173.9960  140.6490 O   0  0  0  0  0  0  0  0  0  0  0  0
  189.0860  176.7810  144.3350 C   0  0  2  0  0  3  0  0  0  0  0  0
  190.8720  175.8610  142.6590 C   0  0  0  0  0  2  0  0  0  0  0  0
  190.0840  176.4820  145.4500 C   0  0  1  0  0  0  0  0  0  0  0  0
  191.4080  172.6870  140.9730 C   0  0  0  0  0  0  0  0  0  0  0  0
  190.2830  177.4800  146.4250 O   0  0  0  0  0  0  0  0  0  0  0  0
  193.1130  174.3850  140.2660 C   0  0  2  0  0  3  0  0  0  0  0  0
  192.2030  171.7220  140.8140 O   0  0  0  0  0  0  0  0  0  0  0  0
  188.9390  173.0790  140.7490 C   0  0  0  0  0  2  0  0  0  0  0  0
  188.7030  175.8700  145.5010 C   0  0  0  0  0  2  0  0  0  0  0  0
  189.3960  175.9800  143.0510 C   0  0  1  0  0  3  0  0  0  0  0  0
  191.8890  176.0140  147.6020 C   0  0  0  0  0  2  0  0  0  0  0  0
  191.2180  175.4910  145.2020 C   0  0  1  0  0  3  0  0  0  0  0  0
  193.5120  173.7390  138.9510 C   0  0  0  0  0  1  0  0  0  0  0  0
  190.5750  176.8220  147.6450 C   0  0  0  0  0  2  0  0  0  0  0  0
  190.0860  172.8050  143.0680 C   0  0  0  0  0  2  0  0  0  0  0  0
  193.9200  174.8850  142.5890 C   0  0  0  0  0  0  0  0  0  0  0  0
  190.0650  172.4360  141.5780 C   0  0  2  0  0  3  0  0  0  0  0  0
  194.1430  174.0720  141.3490 C   0  0  0  0  0  2  0  0  0  0  0  0
  188.5120  174.7620  142.7110 C   0  0  1  0  0  3  0  0  0  0  0  0
  188.1930  175.2890  140.4290 O   0  0  0  0  0  0  0  0  0  0  0  0
  193.4990  174.7390  146.0610 C   0  0  0  0  0  2  0  0  0  0  0  0
  194.7410  175.9000  142.8620 C   0  0  0  0  0  2  0  0  0  0  0  0
  192.8300  174.4830  143.5500 C   0  0  2  0  0  3  0  0  0  0  0  0
  194.5360  172.8780  144.6800 C   0  0  0  0  0  2  0  0  0  0  0  0
  196.9760  173.2280  144.6190 C   0  0  2  0  0  3  0  0  0  0  0  0
  196.6760  172.2920  145.7670 C   0  0  0  0  0  2  0  0  0  0  0  0
  197.9360  174.1570  145.0190 O   0  0  0  0  0  1  0  0  0  0  0  0
  195.7230  173.4250  145.4480 C   0  0  2  0  0  3  0  0  0  0  0  0
  1  8  1  6  0  0  0
  1 18  1  0  0  0  0
  2 30  1  6  0  0  0
  2 27  1  0  0  0  0
  3 25  1  0  0  0  0
  4 27  1  1  0  0  0
  4 17  1  0  0  0  0
  6 10  1  0  0  0  0
  7  9  1  0  0  0  0
  7 15  1  1  0  0  0
  9 15  1  1  0  0  0
  9 11  1  0  0  0  0
 10 23  1  0  0  0  0
 11 20  1  0  0  0  0
 12 19  1  6  0  0  0
 12  6  1  0  0  0  0
 12 24  1  0  0  0  0
 13 10  2  0  0  0  0
 14  3  1  0  0  0  0
 14 23  1  0  0  0  0
 16  8  1  1  0  0  0
 16  7  1  0  0  0  0
 17 20  1  0  0  0  0
 18  9  1  0  0  0  0
 18  4  1  0  0  0  0
 21  5  1  0  0  0  0
 22 28  2  0  0  0  0
 22 29  1  0  0  0  0
 23 21  1  0  0  0  0
 24 22  1  0  0  0  0
 25 16  1  0  0  0  0
 25  5  1  0  0  0  0
 26  3  2  0  0  0  0
 29  1  1  0  0  0  0
 29  2  1  0  0  0  0
 30 34  1  0  0  0  0
 31 33  1  0  0  0  0
 31 34  1  0  0  0  0
 31 32  1  0  0  0  0
 34 32  1  0  0  0  0
M  END
>  <MODEL>
9

>  <REMARK>
 VINA RESULT:      -7.2      2.344      5.920
  Name = 
  2 active torsions:
  status: ('A' for Active; 'I' for Inactive)
    1  A    between atoms: C_2  and  C_23
    2  A    between atoms: C_23  and  C_25
                            x       y       z     vdW  Elec       q    Type
                         _______ _______ _______ _____ _____    ______ ____

>  <TORSDO>
F 2

$$$$
