=
 OpenBabel11052417413D

 31 33  0  0  1  0  0  0  0  0999 V2000
  191.4750  175.0200  143.2870 C   0  0  2  0  0  3  0  0  0  0  0  0
  191.5000  175.4970  144.7390 C   0  0  2  0  0  3  0  0  0  0  0  0
  192.9970  175.6540  146.8240 C   0  0  0  0  0  2  0  0  0  0  0  0
  192.4760  175.7190  142.3580 C   0  0  0  0  0  2  0  0  0  0  0  0
  192.3470  173.0220  140.5650 C   0  0  1  0  0  3  0  0  0  0  0  0
  192.9060  175.7760  145.2950 C   0  0  0  0  0  2  0  0  0  0  0  0
  189.9360  174.3550  141.3420 C   0  0  0  0  0  2  0  0  0  0  0  0
  189.8120  173.5360  144.9070 C   0  0  0  0  0  2  0  0  0  0  0  0
  192.0570  176.5820  147.6100 C   0  0  0  0  0  2  0  0  0  0  0  0
  190.2630  172.9800  141.2640 O   0  0  0  0  0  0  0  0  0  0  0  0
  190.0120  174.9700  142.7550 C   0  0  1  0  0  0  0  0  0  0  0  0
  191.5120  172.8350  141.6800 O   0  0  0  0  0  0  0  0  0  0  0  0
  190.5970  176.6210  147.1330 C   0  0  0  0  0  2  0  0  0  0  0  0
  193.3910  174.7810  141.8590 O   0  0  0  0  0  0  0  0  0  0  0  0
  192.9260  174.4390  140.5800 C   0  0  0  0  0  2  0  0  0  0  0  0
  189.1000  174.1640  143.7030 C   0  0  0  0  0  2  0  0  0  0  0  0
  190.7140  174.5300  145.6490 C   0  0  2  0  0  3  0  0  0  0  0  0
  189.9860  175.2540  146.7890 C   0  0  0  0  0  2  0  0  0  0  0  0
  193.4740  172.0050  140.5930 C   0  0  0  0  0  2  0  0  0  0  0  0
  193.3020  171.1370  141.6690 O   0  0  0  0  0  1  0  0  0  0  0  0
  189.3940  176.3780  142.7150 C   0  0  0  0  0  2  0  0  0  0  0  0
  187.8780  176.4000  142.5460 C   0  0  0  0  0  2  0  0  0  0  0  0
  186.3180  178.3540  142.8400 C   0  0  0  0  0  0  0  0  0  0  0  0
  187.2960  177.4450  143.3790 N   0  0  0  0  0  0  0  0  0  0  0  0
  185.9520  178.2520  141.6390 O   0  0  0  0  0  0  0  0  0  0  0  0
  187.6630  177.4930  144.7900 C   0  0  0  0  0  2  0  0  0  0  0  0
  186.7300  176.9730  147.0450 C   0  0  0  0  0  1  0  0  0  0  0  0
  186.8270  176.5150  145.6020 C   0  0  0  0  0  2  0  0  0  0  0  0
  185.7010  179.4120  143.6950 C   0  0  0  0  0  2  0  0  0  0  0  0
  184.2680  179.0440  144.0180 C   0  0  0  0  0  2  0  0  0  0  0  0
  184.0940  178.9630  145.5200 C   0  0  0  0  0  1  0  0  0  0  0  0
  1  4  1  6  0  0  0
  1  2  1  0  0  0  0
  2  6  1  1  0  0  0
  2 17  1  0  0  0  0
  3  9  1  0  0  0  0
  5 15  1  0  0  0  0
  5 19  1  1  0  0  0
  5 12  1  0  0  0  0
  6  3  1  0  0  0  0
  7 11  1  0  0  0  0
 10  7  1  0  0  0  0
 10 12  1  0  0  0  0
 11 21  1  6  0  0  0
 11  1  1  0  0  0  0
 11 16  1  0  0  0  0
 13  9  1  0  0  0  0
 14  4  1  0  0  0  0
 15 14  1  0  0  0  0
 16  8  1  0  0  0  0
 17  8  1  6  0  0  0
 17 18  1  0  0  0  0
 18 13  1  0  0  0  0
 19 20  1  0  0  0  0
 22 21  1  0  0  0  0
 22 24  1  0  0  0  0
 23 24  1  0  0  0  0
 23 29  1  0  0  0  0
 24 26  1  0  0  0  0
 25 23  2  0  0  0  0
 26 28  1  0  0  0  0
 28 27  1  0  0  0  0
 29 30  1  0  0  0  0
 30 31  1  0  0  0  0
M  END
>  <MODEL>
1

>  <REMARK>
 VINA RESULT:      -6.4      0.000      0.000
  Name = 
  8 active torsions:
  status: ('A' for Active; 'I' for Inactive)
    1  A    between atoms: C_1  and  C_8
    2  A    between atoms: C_2  and  C_13
    3  A    between atoms: C_3  and  C_7
    4  A    between atoms: C_3  and  N_22
    5  A    between atoms: C_8  and  C_19
    6  A    between atoms: C_9  and  N_22
    7  A    between atoms: C_9  and  C_23
    8  A    between atoms: C_21  and  C_23
                            x       y       z     vdW  Elec       q    Type
                         _______ _______ _______ _____ _____    ______ ____

>  <TORSDO>
F 8

$$$$
=
 OpenBabel11052417413D

 31 33  0  0  1  0  0  0  0  0999 V2000
  191.2280  174.5580  143.2390 C   0  0  2  0  0  3  0  0  0  0  0  0
  192.1180  175.0490  144.3810 C   0  0  2  0  0  3  0  0  0  0  0  0
  194.4760  174.8380  145.3850 C   0  0  0  0  0  2  0  0  0  0  0  0
  191.7210  174.9180  141.8320 C   0  0  0  0  0  2  0  0  0  0  0  0
  190.0660  172.3160  140.8340 C   0  0  1  0  0  3  0  0  0  0  0  0
  193.6270  174.9360  144.1080 C   0  0  0  0  0  2  0  0  0  0  0  0
  188.7940  174.2980  142.4620 C   0  0  0  0  0  2  0  0  0  0  0  0
  190.3770  173.6510  145.6980 C   0  0  0  0  0  2  0  0  0  0  0  0
  194.3250  176.0160  146.3620 C   0  0  0  0  0  2  0  0  0  0  0  0
  188.7120  172.8850  142.4690 O   0  0  0  0  0  0  0  0  0  0  0  0
  189.7370  174.9070  143.5210 C   0  0  1  0  0  0  0  0  0  0  0  0
  189.9230  172.4050  142.2290 O   0  0  0  0  0  0  0  0  0  0  0  0
  192.8860  176.4520  146.6730 C   0  0  0  0  0  2  0  0  0  0  0  0
  191.9990  173.7460  141.1150 O   0  0  0  0  0  0  0  0  0  0  0  0
  190.8700  173.5120  140.3150 C   0  0  0  0  0  2  0  0  0  0  0  0
  189.3030  174.4190  144.9190 C   0  0  0  0  0  2  0  0  0  0  0  0
  191.7310  174.3710  145.7120 C   0  0  2  0  0  3  0  0  0  0  0  0
  191.8940  175.3030  146.9180 C   0  0  0  0  0  2  0  0  0  0  0  0
  190.7760  171.0240  140.4730 C   0  0  0  0  0  2  0  0  0  0  0  0
  191.2520  171.0950  139.1650 O   0  0  0  0  0  1  0  0  0  0  0  0
  189.5270  176.4310  143.5520 C   0  0  0  0  0  2  0  0  0  0  0  0
  188.2710  176.9120  142.8320 C   0  0  0  0  0  2  0  0  0  0  0  0
  186.4760  178.6460  143.1650 C   0  0  0  0  0  0  0  0  0  0  0  0
  187.4970  177.7870  143.7050 N   0  0  0  0  0  0  0  0  0  0  0  0
  186.2370  178.6460  141.9280 O   0  0  0  0  0  0  0  0  0  0  0  0
  187.7250  177.7090  145.1440 C   0  0  0  0  0  2  0  0  0  0  0  0
  186.6430  176.9750  147.2700 C   0  0  0  0  0  1  0  0  0  0  0  0
  186.7900  176.6950  145.7860 C   0  0  0  0  0  2  0  0  0  0  0  0
  185.6650  179.5280  144.0570 C   0  0  0  0  0  2  0  0  0  0  0  0
  184.2510  178.9950  144.1630 C   0  0  0  0  0  2  0  0  0  0  0  0
  183.8730  178.8560  145.6230 C   0  0  0  0  0  1  0  0  0  0  0  0
  1  4  1  6  0  0  0
  1 11  1  0  0  0  0
  1  2  1  0  0  0  0
  2  6  1  6  0  0  0
  2 17  1  0  0  0  0
  3  9  1  0  0  0  0
  5 19  1  1  0  0  0
  5 12  1  0  0  0  0
  6  3  1  0  0  0  0
  7 10  1  0  0  0  0
  7 11  1  0  0  0  0
  9 13  1  0  0  0  0
 11 21  1  6  0  0  0
 11 16  1  0  0  0  0
 12 10  1  0  0  0  0
 13 18  1  0  0  0  0
 14  4  1  0  0  0  0
 15  5  1  0  0  0  0
 15 14  1  0  0  0  0
 16  8  1  0  0  0  0
 17  8  1  6  0  0  0
 17 18  1  0  0  0  0
 20 19  1  0  0  0  0
 22 21  1  0  0  0  0
 22 24  1  0  0  0  0
 23 24  1  0  0  0  0
 23 29  1  0  0  0  0
 24 26  1  0  0  0  0
 25 23  2  0  0  0  0
 26 28  1  0  0  0  0
 28 27  1  0  0  0  0
 29 30  1  0  0  0  0
 30 31  1  0  0  0  0
M  END
>  <MODEL>
2

>  <REMARK>
 VINA RESULT:      -6.3      1.290      1.563
  Name = 
  8 active torsions:
  status: ('A' for Active; 'I' for Inactive)
    1  A    between atoms: C_1  and  C_8
    2  A    between atoms: C_2  and  C_13
    3  A    between atoms: C_3  and  C_7
    4  A    between atoms: C_3  and  N_22
    5  A    between atoms: C_8  and  C_19
    6  A    between atoms: C_9  and  N_22
    7  A    between atoms: C_9  and  C_23
    8  A    between atoms: C_21  and  C_23
                            x       y       z     vdW  Elec       q    Type
                         _______ _______ _______ _____ _____    ______ ____

>  <TORSDO>
F 8

$$$$
=
 OpenBabel11052417413D

 31 33  0  0  1  0  0  0  0  0999 V2000
  188.9880  175.6100  144.2860 C   0  0  2  0  0  3  0  0  0  0  0  0
  189.4450  174.3040  143.6360 C   0  0  2  0  0  3  0  0  0  0  0  0
  188.6380  172.3370  142.1890 C   0  0  0  0  0  2  0  0  0  0  0  0
  188.5150  176.6920  143.3070 C   0  0  0  0  0  2  0  0  0  0  0  0
  186.7390  177.8230  145.7700 C   0  0  1  0  0  3  0  0  0  0  0  0
  188.5880  173.8520  142.4420 C   0  0  0  0  0  2  0  0  0  0  0  0
  189.5360  177.3250  146.1180 C   0  0  0  0  0  2  0  0  0  0  0  0
  189.5880  173.6660  146.1450 C   0  0  0  0  0  2  0  0  0  0  0  0
  190.0400  171.7650  141.9250 C   0  0  0  0  0  2  0  0  0  0  0  0
  188.4300  177.0950  146.9710 O   0  0  0  0  0  0  0  0  0  0  0  0
  190.0330  176.0900  145.3380 C   0  0  1  0  0  0  0  0  0  0  0  0
  187.4190  176.6790  146.2230 O   0  0  0  0  0  0  0  0  0  0  0  0
  191.1430  172.2110  142.8960 C   0  0  0  0  0  2  0  0  0  0  0  0
  187.1630  176.9810  143.5410 O   0  0  0  0  0  0  0  0  0  0  0  0
  187.1540  178.1400  144.3310 C   0  0  0  0  0  2  0  0  0  0  0  0
  190.3730  174.9670  146.3390 C   0  0  0  0  0  2  0  0  0  0  0  0
  189.5850  173.1840  144.6880 C   0  0  2  0  0  3  0  0  0  0  0  0
  190.7410  172.2250  144.3790 C   0  0  0  0  0  2  0  0  0  0  0  0
  185.2400  177.5860  145.8330 C   0  0  0  0  0  2  0  0  0  0  0  0
  184.7180  178.1600  146.9910 O   0  0  0  0  0  1  0  0  0  0  0  0
  191.3710  176.4360  144.6630 C   0  0  0  0  0  2  0  0  0  0  0  0
  192.5660  176.4780  145.6100 C   0  0  0  0  0  2  0  0  0  0  0  0
  194.9750  176.5590  144.8860 C   0  0  0  0  0  0  0  0  0  0  0  0
  193.7240  175.8540  144.9840 N   0  0  0  0  0  0  0  0  0  0  0  0
  195.0830  177.7260  145.3480 O   0  0  0  0  0  0  0  0  0  0  0  0
  193.6090  174.4700  144.5350 C   0  0  0  0  0  2  0  0  0  0  0  0
  194.3510  172.1940  145.2390 C   0  0  0  0  0  1  0  0  0  0  0  0
  193.7500  173.5070  145.7040 C   0  0  0  0  0  2  0  0  0  0  0  0
  196.1720  175.9160  144.2650 C   0  0  0  0  0  2  0  0  0  0  0  0
  196.7230  176.8010  143.1660 C   0  0  0  0  0  2  0  0  0  0  0  0
  195.9810  176.5230  141.8760 C   0  0  0  0  0  1  0  0  0  0  0  0
  1  4  1  6  0  0  0
  1 11  1  0  0  0  0
  2  6  1  6  0  0  0
  2  1  1  0  0  0  0
  2 17  1  0  0  0  0
  3  6  1  0  0  0  0
  4 14  1  0  0  0  0
  5 19  1  6  0  0  0
  5 12  1  0  0  0  0
  7 10  1  0  0  0  0
  8 16  1  0  0  0  0
  9  3  1  0  0  0  0
  9 13  1  0  0  0  0
 11 21  1  6  0  0  0
 11  7  1  0  0  0  0
 11 16  1  0  0  0  0
 12 10  1  0  0  0  0
 13 18  1  0  0  0  0
 14 15  1  0  0  0  0
 15  5  1  0  0  0  0
 17 18  1  6  0  0  0
 17  8  1  0  0  0  0
 19 20  1  0  0  0  0
 21 22  1  0  0  0  0
 23 24  1  0  0  0  0
 23 25  2  0  0  0  0
 24 22  1  0  0  0  0
 26 24  1  0  0  0  0
 26 28  1  0  0  0  0
 27 28  1  0  0  0  0
 29 23  1  0  0  0  0
 30 29  1  0  0  0  0
 31 30  1  0  0  0  0
M  END
>  <MODEL>
3

>  <REMARK>
 VINA RESULT:      -6.3      3.066      7.509
  Name = 
  8 active torsions:
  status: ('A' for Active; 'I' for Inactive)
    1  A    between atoms: C_1  and  C_8
    2  A    between atoms: C_2  and  C_13
    3  A    between atoms: C_3  and  C_7
    4  A    between atoms: C_3  and  N_22
    5  A    between atoms: C_8  and  C_19
    6  A    between atoms: C_9  and  N_22
    7  A    between atoms: C_9  and  C_23
    8  A    between atoms: C_21  and  C_23
                            x       y       z     vdW  Elec       q    Type
                         _______ _______ _______ _____ _____    ______ ____

>  <TORSDO>
F 8

$$$$
=
 OpenBabel11052417413D

 31 33  0  0  1  0  0  0  0  0999 V2000
  189.0560  176.4740  145.3140 C   0  0  2  0  0  3  0  0  0  0  0  0
  190.5560  176.2850  145.5460 C   0  0  2  0  0  3  0  0  0  0  0  0
  192.4380  176.6880  147.2510 C   0  0  0  0  0  2  0  0  0  0  0  0
  188.1480  175.7290  146.3000 C   0  0  0  0  0  2  0  0  0  0  0  0
  185.9430  178.0110  145.6410 C   0  0  1  0  0  3  0  0  0  0  0  0
  190.9760  176.2730  147.0250 C   0  0  0  0  0  2  0  0  0  0  0  0
  187.2270  176.5880  143.5150 C   0  0  0  0  0  2  0  0  0  0  0  0
  190.5840  178.0420  143.6400 C   0  0  0  0  0  2  0  0  0  0  0  0
  193.4820  175.8260  146.5230 C   0  0  0  0  0  2  0  0  0  0  0  0
  186.8720  177.9520  143.6500 O   0  0  0  0  0  0  0  0  0  0  0  0
  188.7060  176.2610  143.8110 C   0  0  1  0  0  0  0  0  0  0  0  0
  187.1020  178.3100  144.9040 O   0  0  0  0  0  0  0  0  0  0  0  0
  193.2000  175.5360  145.0410 C   0  0  0  0  0  2  0  0  0  0  0  0
  187.3870  176.6530  147.0300 O   0  0  0  0  0  0  0  0  0  0  0  0
  186.1340  176.6950  146.4000 C   0  0  0  0  0  2  0  0  0  0  0  0
  189.6030  177.1250  142.9010 C   0  0  0  0  0  2  0  0  0  0  0  0
  191.3720  177.3120  144.7340 C   0  0  2  0  0  3  0  0  0  0  0  0
  192.7000  176.7380  144.2240 C   0  0  0  0  0  2  0  0  0  0  0  0
  185.6560  179.1340  146.6220 C   0  0  0  0  0  2  0  0  0  0  0  0
  184.8270  178.6700  147.6420 O   0  0  0  0  0  1  0  0  0  0  0  0
  188.9870  174.8110  143.3830 C   0  0  0  0  0  2  0  0  0  0  0  0
  189.9580  174.6730  142.2140 C   0  0  0  0  0  2  0  0  0  0  0  0
  188.6180  173.8640  140.2430 C   0  0  0  0  0  0  0  0  0  0  0  0
  189.5270  173.6000  141.3280 N   0  0  0  0  0  0  0  0  0  0  0  0
  188.1890  175.0320  140.0450 O   0  0  0  0  0  0  0  0  0  0  0  0
  190.1020  172.2720  141.5150 C   0  0  0  0  0  2  0  0  0  0  0  0
  191.4160  171.7280  143.5650 C   0  0  0  0  0  1  0  0  0  0  0  0
  191.4630  172.3600  142.1870 C   0  0  0  0  0  2  0  0  0  0  0  0
  188.1900  172.7720  139.3180 C   0  0  0  0  0  2  0  0  0  0  0  0
  188.5800  173.1180  137.8960 C   0  0  0  0  0  2  0  0  0  0  0  0
  190.0810  172.9890  137.7390 C   0  0  0  0  0  1  0  0  0  0  0  0
  1  2  1  0  0  0  0
  1  4  1  1  0  0  0
  2  6  1  1  0  0  0
  4 14  1  0  0  0  0
  5 15  1  0  0  0  0
  5 19  1  1  0  0  0
  6  3  1  0  0  0  0
  7 10  1  0  0  0  0
  7 11  1  0  0  0  0
  9  3  1  0  0  0  0
 10 12  1  0  0  0  0
 11 21  1  6  0  0  0
 11  1  1  0  0  0  0
 12  5  1  0  0  0  0
 13  9  1  0  0  0  0
 15 14  1  0  0  0  0
 16  8  1  0  0  0  0
 16 11  1  0  0  0  0
 17  8  1  6  0  0  0
 17  2  1  0  0  0  0
 18 17  1  0  0  0  0
 18 13  1  0  0  0  0
 19 20  1  0  0  0  0
 22 21  1  0  0  0  0
 23 24  1  0  0  0  0
 24 26  1  0  0  0  0
 24 22  1  0  0  0  0
 25 23  2  0  0  0  0
 26 28  1  0  0  0  0
 28 27  1  0  0  0  0
 29 23  1  0  0  0  0
 30 29  1  0  0  0  0
 31 30  1  0  0  0  0
M  END
>  <MODEL>
4

>  <REMARK>
 VINA RESULT:      -6.2      2.610      6.581
  Name = 
  8 active torsions:
  status: ('A' for Active; 'I' for Inactive)
    1  A    between atoms: C_1  and  C_8
    2  A    between atoms: C_2  and  C_13
    3  A    between atoms: C_3  and  C_7
    4  A    between atoms: C_3  and  N_22
    5  A    between atoms: C_8  and  C_19
    6  A    between atoms: C_9  and  N_22
    7  A    between atoms: C_9  and  C_23
    8  A    between atoms: C_21  and  C_23
                            x       y       z     vdW  Elec       q    Type
                         _______ _______ _______ _____ _____    ______ ____

>  <TORSDO>
F 8

$$$$
=
 OpenBabel11052417413D

 31 33  0  0  1  0  0  0  0  0999 V2000
  189.0200  176.4740  145.3170 C   0  0  2  0  0  3  0  0  0  0  0  0
  190.5170  176.2580  145.5390 C   0  0  2  0  0  3  0  0  0  0  0  0
  192.4020  176.5570  147.2630 C   0  0  0  0  0  2  0  0  0  0  0  0
  188.1030  175.6900  146.2650 C   0  0  0  0  0  2  0  0  0  0  0  0
  185.9220  178.0240  145.7180 C   0  0  1  0  0  3  0  0  0  0  0  0
  190.9360  176.1690  147.0160 C   0  0  0  0  0  2  0  0  0  0  0  0
  187.1940  176.6950  143.5240 C   0  0  0  0  0  2  0  0  0  0  0  0
  190.5650  178.1070  143.7220 C   0  0  0  0  0  2  0  0  0  0  0  0
  193.4380  175.7220  146.4940 C   0  0  0  0  0  2  0  0  0  0  0  0
  186.8520  178.0540  143.7270 O   0  0  0  0  0  0  0  0  0  0  0  0
  188.6690  176.3390  143.8050 C   0  0  1  0  0  0  0  0  0  0  0  0
  187.0850  178.3470  144.9970 O   0  0  0  0  0  0  0  0  0  0  0  0
  193.1540  175.5090  144.9990 C   0  0  0  0  0  2  0  0  0  0  0  0
  187.3510  176.5840  147.0390 O   0  0  0  0  0  0  0  0  0  0  0  0
  186.0990  176.6700  146.4110 C   0  0  0  0  0  2  0  0  0  0  0  0
  189.5760  177.2370  142.9390 C   0  0  0  0  0  2  0  0  0  0  0  0
  191.3450  177.3150  144.7790 C   0  0  2  0  0  3  0  0  0  0  0  0
  192.6680  176.7550  144.2420 C   0  0  0  0  0  2  0  0  0  0  0  0
  185.6450  179.1000  146.7530 C   0  0  0  0  0  2  0  0  0  0  0  0
  184.6580  178.6650  147.6360 O   0  0  0  0  0  1  0  0  0  0  0  0
  188.9360  174.9090  143.3060 C   0  0  0  0  0  2  0  0  0  0  0  0
  189.0870  174.7840  141.7930 C   0  0  0  0  0  2  0  0  0  0  0  0
  189.5450  172.6720  140.5030 C   0  0  0  0  0  0  0  0  0  0  0  0
  189.9540  173.6590  141.4660 N   0  0  0  0  0  0  0  0  0  0  0  0
  188.4290  172.7730  139.9260 O   0  0  0  0  0  0  0  0  0  0  0  0
  191.2790  173.6050  142.0760 C   0  0  0  0  0  2  0  0  0  0  0  0
  193.6710  174.0580  141.5270 C   0  0  0  0  0  1  0  0  0  0  0  0
  192.2430  174.5420  141.3630 C   0  0  0  0  0  2  0  0  0  0  0  0
  190.4390  171.5290  140.1480 C   0  0  0  0  0  2  0  0  0  0  0  0
  191.0940  171.7830  138.8060 C   0  0  0  0  0  2  0  0  0  0  0  0
  192.5840  171.5390  138.9190 C   0  0  0  0  0  1  0  0  0  0  0  0
  1  2  1  0  0  0  0
  1  4  1  1  0  0  0
  2  6  1  1  0  0  0
  4 14  1  0  0  0  0
  5 15  1  0  0  0  0
  5 19  1  1  0  0  0
  6  3  1  0  0  0  0
  7 10  1  0  0  0  0
  7 11  1  0  0  0  0
  9  3  1  0  0  0  0
 10 12  1  0  0  0  0
 11 21  1  6  0  0  0
 11  1  1  0  0  0  0
 12  5  1  0  0  0  0
 13  9  1  0  0  0  0
 15 14  1  0  0  0  0
 16  8  1  0  0  0  0
 16 11  1  0  0  0  0
 17  8  1  6  0  0  0
 17  2  1  0  0  0  0
 18 17  1  0  0  0  0
 18 13  1  0  0  0  0
 19 20  1  0  0  0  0
 22 21  1  0  0  0  0
 23 24  1  0  0  0  0
 24 22  1  0  0  0  0
 24 26  1  0  0  0  0
 25 23  2  0  0  0  0
 28 27  1  0  0  0  0
 28 26  1  0  0  0  0
 29 23  1  0  0  0  0
 30 31  1  0  0  0  0
 30 29  1  0  0  0  0
M  END
>  <MODEL>
5

>  <REMARK>
 VINA RESULT:      -6.2      2.403      6.974
  Name = 
  8 active torsions:
  status: ('A' for Active; 'I' for Inactive)
    1  A    between atoms: C_1  and  C_8
    2  A    between atoms: C_2  and  C_13
    3  A    between atoms: C_3  and  C_7
    4  A    between atoms: C_3  and  N_22
    5  A    between atoms: C_8  and  C_19
    6  A    between atoms: C_9  and  N_22
    7  A    between atoms: C_9  and  C_23
    8  A    between atoms: C_21  and  C_23
                            x       y       z     vdW  Elec       q    Type
                         _______ _______ _______ _____ _____    ______ ____

>  <TORSDO>
F 8

$$$$
=
 OpenBabel11052417413D

 31 33  0  0  1  0  0  0  0  0999 V2000
  191.4850  175.1970  143.5470 C   0  0  2  0  0  3  0  0  0  0  0  0
  191.2030  175.6550  144.9790 C   0  0  2  0  0  3  0  0  0  0  0  0
  192.3160  176.0660  147.2600 C   0  0  0  0  0  2  0  0  0  0  0  0
  192.4670  176.0780  142.7650 C   0  0  0  0  0  2  0  0  0  0  0  0
  193.1080  173.4220  141.0220 C   0  0  1  0  0  3  0  0  0  0  0  0
  192.4350  176.1840  145.7330 C   0  0  0  0  0  2  0  0  0  0  0  0
  190.4040  174.2780  141.4070 C   0  0  0  0  0  2  0  0  0  0  0  0
  189.9000  173.4140  144.9280 C   0  0  0  0  0  2  0  0  0  0  0  0
  191.1140  176.7950  147.8810 C   0  0  0  0  0  2  0  0  0  0  0  0
  190.9880  172.9880  141.4030 O   0  0  0  0  0  0  0  0  0  0  0  0
  190.1520  174.8820  142.8040 C   0  0  1  0  0  0  0  0  0  0  0  0
  192.1650  173.0730  142.0040 O   0  0  0  0  0  0  0  0  0  0  0  0
  189.7600  176.5680  147.1910 C   0  0  0  0  0  2  0  0  0  0  0  0
  193.6040  175.3310  142.4260 O   0  0  0  0  0  0  0  0  0  0  0  0
  193.4070  174.9220  141.0980 C   0  0  0  0  0  2  0  0  0  0  0  0
  189.2740  173.9110  143.6200 C   0  0  0  0  0  2  0  0  0  0  0  0
  190.4820  174.5500  145.7780 C   0  0  2  0  0  3  0  0  0  0  0  0
  189.4700  175.1150  146.7840 C   0  0  0  0  0  2  0  0  0  0  0  0
  194.3870  172.6310  141.2360 C   0  0  0  0  0  2  0  0  0  0  0  0
  194.3790  172.0510  142.5030 O   0  0  0  0  0  1  0  0  0  0  0  0
  189.2980  176.1510  142.6480 C   0  0  0  0  0  2  0  0  0  0  0  0
  187.8310  175.9790  143.0300 C   0  0  0  0  0  2  0  0  0  0  0  0
  186.6500  177.6630  144.4800 C   0  0  0  0  0  0  0  0  0  0  0  0
  187.2030  177.2820  143.2070 N   0  0  0  0  0  0  0  0  0  0  0  0
  186.7090  176.8720  145.4600 O   0  0  0  0  0  0  0  0  0  0  0  0
  187.2230  178.2200  142.0900 C   0  0  0  0  0  2  0  0  0  0  0  0
  186.6640  177.5250  139.7600 C   0  0  0  0  0  1  0  0  0  0  0  0
  186.0990  177.9210  141.1110 C   0  0  0  0  0  2  0  0  0  0  0  0
  186.0260  179.0060  144.6750 C   0  0  0  0  0  2  0  0  0  0  0  0
  184.5170  178.8740  144.7080 C   0  0  0  0  0  2  0  0  0  0  0  0
  184.0610  178.6620  146.1360 C   0  0  0  0  0  1  0  0  0  0  0  0
  1  4  1  6  0  0  0
  1  2  1  0  0  0  0
  2  6  1  1  0  0  0
  2 17  1  0  0  0  0
  3  9  1  0  0  0  0
  5 15  1  0  0  0  0
  5 19  1  1  0  0  0
  5 12  1  0  0  0  0
  6  3  1  0  0  0  0
  7 11  1  0  0  0  0
 10  7  1  0  0  0  0
 10 12  1  0  0  0  0
 11 21  1  6  0  0  0
 11  1  1  0  0  0  0
 11 16  1  0  0  0  0
 13  9  1  0  0  0  0
 14  4  1  0  0  0  0
 15 14  1  0  0  0  0
 16  8  1  0  0  0  0
 17  8  1  6  0  0  0
 17 18  1  0  0  0  0
 18 13  1  0  0  0  0
 19 20  1  0  0  0  0
 21 22  1  0  0  0  0
 22 24  1  0  0  0  0
 23 29  1  0  0  0  0
 23 25  2  0  0  0  0
 24 23  1  0  0  0  0
 26 24  1  0  0  0  0
 27 28  1  0  0  0  0
 28 26  1  0  0  0  0
 29 30  1  0  0  0  0
 30 31  1  0  0  0  0
M  END
>  <MODEL>
6

>  <REMARK>
 VINA RESULT:      -6.1      1.238      1.963
  Name = 
  8 active torsions:
  status: ('A' for Active; 'I' for Inactive)
    1  A    between atoms: C_1  and  C_8
    2  A    between atoms: C_2  and  C_13
    3  A    between atoms: C_3  and  C_7
    4  A    between atoms: C_3  and  N_22
    5  A    between atoms: C_8  and  C_19
    6  A    between atoms: C_9  and  N_22
    7  A    between atoms: C_9  and  C_23
    8  A    between atoms: C_21  and  C_23
                            x       y       z     vdW  Elec       q    Type
                         _______ _______ _______ _____ _____    ______ ____

>  <TORSDO>
F 8

$$$$
=
 OpenBabel11052417413D

 31 33  0  0  1  0  0  0  0  0999 V2000
  191.8640  174.6280  144.8790 C   0  0  2  0  0  3  0  0  0  0  0  0
  191.0770  175.5690  145.7920 C   0  0  2  0  0  3  0  0  0  0  0  0
  191.2100  176.8700  148.0060 C   0  0  0  0  0  2  0  0  0  0  0  0
  193.1630  175.2110  144.3100 C   0  0  0  0  0  2  0  0  0  0  0  0
  194.1760  172.1400  144.0860 C   0  0  1  0  0  3  0  0  0  0  0  0
  191.9470  176.4160  146.7370 C   0  0  0  0  0  2  0  0  0  0  0  0
  191.6500  172.9120  142.9810 C   0  0  0  0  0  2  0  0  0  0  0  0
  189.6820  173.3970  146.0280 C   0  0  0  0  0  2  0  0  0  0  0  0
  189.9420  177.7040  147.7630 C   0  0  0  0  0  2  0  0  0  0  0  0
  192.0490  171.7520  143.6880 O   0  0  0  0  0  0  0  0  0  0  0  0
  190.9200  173.9780  143.8240 C   0  0  1  0  0  0  0  0  0  0  0  0
  192.8860  172.1260  144.6440 O   0  0  0  0  0  0  0  0  0  0  0  0
  188.9670  177.1530  146.7110 C   0  0  0  0  0  2  0  0  0  0  0  0
  194.2560  174.4620  144.7680 O   0  0  0  0  0  0  0  0  0  0  0  0
  194.5710  173.5750  143.7270 C   0  0  0  0  0  2  0  0  0  0  0  0
  189.6920  173.3310  144.4960 C   0  0  0  0  0  2  0  0  0  0  0  0
  189.9840  174.8020  146.5640 C   0  0  2  0  0  3  0  0  0  0  0  0
  188.7170  175.6390  146.7810 C   0  0  0  0  0  2  0  0  0  0  0  0
  195.1700  171.5660  145.0800 C   0  0  0  0  0  2  0  0  0  0  0  0
  194.8640  170.2310  145.3370 O   0  0  0  0  0  1  0  0  0  0  0  0
  190.3380  175.0430  142.8790 C   0  0  0  0  0  2  0  0  0  0  0  0
  188.8210  175.1860  142.9440 C   0  0  0  0  0  2  0  0  0  0  0  0
  187.0470  176.9450  142.6360 C   0  0  0  0  0  0  0  0  0  0  0  0
  188.4320  176.5550  142.6300 N   0  0  0  0  0  0  0  0  0  0  0  0
  186.1520  176.1030  142.9180 O   0  0  0  0  0  0  0  0  0  0  0  0
  189.4840  177.5380  142.3950 C   0  0  0  0  0  2  0  0  0  0  0  0
  191.3410  178.5790  143.6960 C   0  0  0  0  0  1  0  0  0  0  0  0
  189.8610  178.2500  143.6850 C   0  0  0  0  0  2  0  0  0  0  0  0
  186.6440  178.3520  142.3380 C   0  0  0  0  0  2  0  0  0  0  0  0
  185.3270  178.6670  143.0160 C   0  0  0  0  0  2  0  0  0  0  0  0
  185.5720  179.5970  144.1860 C   0  0  0  0  0  1  0  0  0  0  0  0
  1  4  1  6  0  0  0
  1  2  1  0  0  0  0
  2 17  1  0  0  0  0
  2  6  1  1  0  0  0
  4 14  1  0  0  0  0
  5 12  1  0  0  0  0
  5 19  1  1  0  0  0
  6  3  1  0  0  0  0
  7 10  1  0  0  0  0
  7 11  1  0  0  0  0
  9  3  1  0  0  0  0
 10 12  1  0  0  0  0
 11 21  1  6  0  0  0
 11 16  1  0  0  0  0
 11  1  1  0  0  0  0
 13 18  1  0  0  0  0
 13  9  1  0  0  0  0
 15  5  1  0  0  0  0
 15 14  1  0  0  0  0
 16  8  1  0  0  0  0
 17  8  1  6  0  0  0
 17 18  1  0  0  0  0
 19 20  1  0  0  0  0
 21 22  1  0  0  0  0
 23 25  2  0  0  0  0
 24 23  1  0  0  0  0
 24 22  1  0  0  0  0
 26 24  1  0  0  0  0
 26 28  1  0  0  0  0
 28 27  1  0  0  0  0
 29 23  1  0  0  0  0
 29 30  1  0  0  0  0
 30 31  1  0  0  0  0
M  END
>  <MODEL>
7

>  <REMARK>
 VINA RESULT:      -6.0      2.098      2.735
  Name = 
  8 active torsions:
  status: ('A' for Active; 'I' for Inactive)
    1  A    between atoms: C_1  and  C_8
    2  A    between atoms: C_2  and  C_13
    3  A    between atoms: C_3  and  C_7
    4  A    between atoms: C_3  and  N_22
    5  A    between atoms: C_8  and  C_19
    6  A    between atoms: C_9  and  N_22
    7  A    between atoms: C_9  and  C_23
    8  A    between atoms: C_21  and  C_23
                            x       y       z     vdW  Elec       q    Type
                         _______ _______ _______ _____ _____    ______ ____

>  <TORSDO>
F 8

$$$$
=
 OpenBabel11052417413D

 31 33  0  0  1  0  0  0  0  0999 V2000
  191.3470  174.3430  143.1590 C   0  0  2  0  0  3  0  0  0  0  0  0
  192.2820  174.8820  144.2430 C   0  0  2  0  0  3  0  0  0  0  0  0
  194.6690  174.6890  145.1790 C   0  0  0  0  0  2  0  0  0  0  0  0
  191.7970  174.6200  141.7190 C   0  0  0  0  0  2  0  0  0  0  0  0
  190.0750  171.9950  140.9170 C   0  0  1  0  0  3  0  0  0  0  0  0
  193.7790  174.7310  143.9270 C   0  0  0  0  0  2  0  0  0  0  0  0
  188.8850  174.0800  142.4770 C   0  0  0  0  0  2  0  0  0  0  0  0
  190.5660  173.5840  145.6900 C   0  0  0  0  0  2  0  0  0  0  0  0
  194.5670  175.9190  146.0950 C   0  0  0  0  0  2  0  0  0  0  0  0
  188.7840  172.6700  142.5630 O   0  0  0  0  0  0  0  0  0  0  0  0
  189.8710  174.7310  143.4700 C   0  0  1  0  0  0  0  0  0  0  0  0
  189.9800  172.1600  142.3100 O   0  0  0  0  0  0  0  0  0  0  0  0
  193.1440  176.3930  146.4290 C   0  0  0  0  0  2  0  0  0  0  0  0
  192.0360  173.4070  141.0580 O   0  0  0  0  0  0  0  0  0  0  0  0
  190.8770  173.1490  140.3090 C   0  0  0  0  0  2  0  0  0  0  0  0
  189.4780  174.3250  144.9050 C   0  0  0  0  0  2  0  0  0  0  0  0
  191.9300  174.2820  145.6200 C   0  0  2  0  0  3  0  0  0  0  0  0
  192.1460  175.2750  146.7690 C   0  0  0  0  0  2  0  0  0  0  0  0
  190.7550  170.6740  140.6040 C   0  0  0  0  0  2  0  0  0  0  0  0
  191.2080  170.0830  141.7820 O   0  0  0  0  0  1  0  0  0  0  0  0
  189.6830  176.2570  143.4250 C   0  0  0  0  0  2  0  0  0  0  0  0
  189.2180  176.8760  144.7400 C   0  0  0  0  0  2  0  0  0  0  0  0
  187.0940  176.8020  146.0880 C   0  0  0  0  0  0  0  0  0  0  0  0
  187.7630  176.8590  144.8150 N   0  0  0  0  0  0  0  0  0  0  0  0
  187.7640  176.7720  147.1560 O   0  0  0  0  0  0  0  0  0  0  0  0
  187.0020  176.9840  143.5770 C   0  0  0  0  0  2  0  0  0  0  0  0
  185.4040  178.6040  142.5520 C   0  0  0  0  0  1  0  0  0  0  0  0
  186.7440  178.4460  143.2440 C   0  0  0  0  0  2  0  0  0  0  0  0
  185.6030  176.8060  146.1730 C   0  0  0  0  0  2  0  0  0  0  0  0
  185.1270  178.0750  146.8500 C   0  0  0  0  0  2  0  0  0  0  0  0
  183.9760  178.6660  146.0620 C   0  0  0  0  0  1  0  0  0  0  0  0
  1  4  1  6  0  0  0
  1 11  1  0  0  0  0
  1  2  1  0  0  0  0
  2  6  1  6  0  0  0
  2 17  1  0  0  0  0
  3  9  1  0  0  0  0
  5 19  1  1  0  0  0
  5 12  1  0  0  0  0
  6  3  1  0  0  0  0
  7 10  1  0  0  0  0
  7 11  1  0  0  0  0
  9 13  1  0  0  0  0
 11 21  1  6  0  0  0
 11 16  1  0  0  0  0
 12 10  1  0  0  0  0
 13 18  1  0  0  0  0
 14  4  1  0  0  0  0
 15  5  1  0  0  0  0
 15 14  1  0  0  0  0
 16  8  1  0  0  0  0
 17  8  1  6  0  0  0
 17 18  1  0  0  0  0
 19 20  1  0  0  0  0
 21 22  1  0  0  0  0
 22 24  1  0  0  0  0
 23 29  1  0  0  0  0
 23 25  2  0  0  0  0
 24 23  1  0  0  0  0
 26 24  1  0  0  0  0
 27 28  1  0  0  0  0
 28 26  1  0  0  0  0
 29 30  1  0  0  0  0
 31 30  1  0  0  0  0
M  END
>  <MODEL>
8

>  <REMARK>
 VINA RESULT:      -6.0      1.814      2.535
  Name = 
  8 active torsions:
  status: ('A' for Active; 'I' for Inactive)
    1  A    between atoms: C_1  and  C_8
    2  A    between atoms: C_2  and  C_13
    3  A    between atoms: C_3  and  C_7
    4  A    between atoms: C_3  and  N_22
    5  A    between atoms: C_8  and  C_19
    6  A    between atoms: C_9  and  N_22
    7  A    between atoms: C_9  and  C_23
    8  A    between atoms: C_21  and  C_23
                            x       y       z     vdW  Elec       q    Type
                         _______ _______ _______ _____ _____    ______ ____

>  <TORSDO>
F 8

$$$$
=
 OpenBabel11052417413D

 31 33  0  0  1  0  0  0  0  0999 V2000
  192.9710  174.4270  144.3590 C   0  0  2  0  0  3  0  0  0  0  0  0
  191.6920  173.7920  143.8120 C   0  0  2  0  0  3  0  0  0  0  0  0
  190.6620  171.5530  143.0770 C   0  0  0  0  0  2  0  0  0  0  0  0
  193.4100  173.9190  145.7370 C   0  0  0  0  0  2  0  0  0  0  0  0
  196.4060  174.7770  144.8480 C   0  0  1  0  0  3  0  0  0  0  0  0
  191.5610  172.2840  144.0860 C   0  0  0  0  0  2  0  0  0  0  0  0
  194.2440  176.6410  144.6250 C   0  0  0  0  0  2  0  0  0  0  0  0
  192.4130  175.2370  141.7840 C   0  0  0  0  0  2  0  0  0  0  0  0
  189.2200  172.0780  142.9870 C   0  0  0  0  0  2  0  0  0  0  0  0
  195.3400  176.3680  143.7700 O   0  0  0  0  0  0  0  0  0  0  0  0
  192.9120  175.9770  144.2200 C   0  0  1  0  0  0  0  0  0  0  0  0
  195.5430  175.0590  143.7750 O   0  0  0  0  0  0  0  0  0  0  0  0
  189.0640  173.6030  142.8800 C   0  0  0  0  0  2  0  0  0  0  0  0
  194.6610  173.2950  145.6340 O   0  0  0  0  0  0  0  0  0  0  0  0
  195.5990  174.2560  146.0410 C   0  0  0  0  0  2  0  0  0  0  0  0
  192.5610  176.3960  142.7770 C   0  0  0  0  0  2  0  0  0  0  0  0
  191.5150  174.1120  142.3130 C   0  0  2  0  0  3  0  0  0  0  0  0
  190.0440  174.2930  141.9180 C   0  0  0  0  0  2  0  0  0  0  0  0
  197.4280  173.7380  144.4240 C   0  0  0  0  0  2  0  0  0  0  0  0
  197.2780  173.4510  143.0690 O   0  0  0  0  0  1  0  0  0  0  0  0
  191.7840  176.5630  145.0860 C   0  0  0  0  0  2  0  0  0  0  0  0
  190.9320  177.6190  144.3880 C   0  0  0  0  0  2  0  0  0  0  0  0
  188.7540  177.4700  143.1350 C   0  0  0  0  0  0  0  0  0  0  0  0
  189.5500  177.1670  144.2950 N   0  0  0  0  0  0  0  0  0  0  0  0
  189.2490  178.1280  142.1810 O   0  0  0  0  0  0  0  0  0  0  0  0
  189.0200  176.3300  145.3670 C   0  0  0  0  0  2  0  0  0  0  0  0
  187.0790  176.6480  146.9020 C   0  0  0  0  0  1  0  0  0  0  0  0
  188.4350  177.1830  146.4820 C   0  0  0  0  0  2  0  0  0  0  0  0
  187.3440  176.9900  143.0240 C   0  0  0  0  0  2  0  0  0  0  0  0
  186.4210  178.1590  142.7480 C   0  0  0  0  0  2  0  0  0  0  0  0
  186.1000  178.8660  144.0490 C   0  0  0  0  0  1  0  0  0  0  0  0
  1  4  1  1  0  0  0
  2  6  1  6  0  0  0
  2  1  1  0  0  0  0
  3  6  1  0  0  0  0
  5 19  1  6  0  0  0
  5 15  1  0  0  0  0
  8 16  1  0  0  0  0
  9  3  1  0  0  0  0
 10 12  1  0  0  0  0
 10  7  1  0  0  0  0
 11  1  1  0  0  0  0
 11  7  1  0  0  0  0
 11 21  1  1  0  0  0
 12  5  1  0  0  0  0
 13  9  1  0  0  0  0
 14  4  1  0  0  0  0
 14 15  1  0  0  0  0
 16 11  1  0  0  0  0
 17  8  1  1  0  0  0
 17  2  1  0  0  0  0
 18 17  1  0  0  0  0
 18 13  1  0  0  0  0
 20 19  1  0  0  0  0
 22 21  1  0  0  0  0
 23 24  1  0  0  0  0
 24 22  1  0  0  0  0
 24 26  1  0  0  0  0
 25 23  2  0  0  0  0
 26 28  1  0  0  0  0
 28 27  1  0  0  0  0
 29 23  1  0  0  0  0
 30 29  1  0  0  0  0
 30 31  1  0  0  0  0
M  END
>  <MODEL>
9

>  <REMARK>
 VINA RESULT:      -5.9      2.382      4.295
  Name = 
  8 active torsions:
  status: ('A' for Active; 'I' for Inactive)
    1  A    between atoms: C_1  and  C_8
    2  A    between atoms: C_2  and  C_13
    3  A    between atoms: C_3  and  C_7
    4  A    between atoms: C_3  and  N_22
    5  A    between atoms: C_8  and  C_19
    6  A    between atoms: C_9  and  N_22
    7  A    between atoms: C_9  and  C_23
    8  A    between atoms: C_21  and  C_23
                            x       y       z     vdW  Elec       q    Type
                         _______ _______ _______ _____ _____    ______ ____

>  <TORSDO>
F 8

$$$$
