=
 OpenBabel11052420593D

 43 49  0  0  1  0  0  0  0  0999 V2000
  187.9750  177.7320  147.4990 C   0  0  0  0  0  0  0  0  0  0  0  0
  191.7320  174.8030  145.7980 C   0  0  0  0  0  0  0  0  0  0  0  0
  190.4870  172.6890  144.4850 C   0  0  0  0  0  0  0  0  0  0  0  0
  190.1460  176.8000  146.9790 C   0  0  0  0  0  0  0  0  0  0  0  0
  187.3560  176.6740  146.8270 C   0  0  0  0  0  3  0  0  0  0  0  0
  187.2050  178.7200  148.0940 O   0  0  0  0  0  1  0  0  0  0  0  0
  189.5270  175.7240  146.2980 C   0  0  0  0  0  0  0  0  0  0  0  0
  189.3680  177.7960  147.5740 C   0  0  0  0  0  3  0  0  0  0  0  0
  188.1280  175.6740  146.2290 C   0  0  0  0  0  3  0  0  0  0  0  0
  189.7460  173.6760  145.0550 N   0  0  0  0  0  0  0  0  0  0  0  0
  190.3210  174.7250  145.7080 C   0  0  0  0  0  0  0  0  0  0  0  0
  192.3260  175.8800  146.4740 C   0  0  0  0  0  3  0  0  0  0  0  0
  192.5100  173.7930  145.2030 C   0  0  0  0  0  0  0  0  0  0  0  0
  191.8800  172.7330  144.5490 C   0  0  0  0  0  3  0  0  0  0  0  0
  191.5370  176.8710  147.0590 C   0  0  0  0  0  3  0  0  0  0  0  0
  194.0050  173.7950  145.2840 C   0  0  0  0  0  2  0  0  0  0  0  0
  194.9670  176.0980  143.6600 C   0  0  0  0  0  2  0  0  0  0  0  0
  196.4110  175.9140  143.8470 N   0  0  0  0  0  0  0  0  0  0  0  0
  196.0240  173.4520  144.0310 C   0  0  0  0  0  2  0  0  0  0  0  0
  194.2710  174.8340  143.1380 C   0  0  0  0  0  2  0  0  0  0  0  0
  194.5760  173.6520  143.9470 N   0  0  0  0  0  0  0  0  0  0  0  0
  196.7560  174.6870  144.5750 C   0  0  0  0  0  2  0  0  0  0  0  0
  196.4000  176.7570  141.4840 C   0  0  0  0  0  1  0  0  0  0  0  0
  197.1860  176.1000  142.6140 C   0  0  0  0  0  2  0  0  0  0  0  0
  189.8110  171.5730  143.7740 C   0  0  0  0  0  2  0  0  0  0  0  0
  188.7210  172.0940  142.9670 N   0  0  0  0  0  2  0  0  0  0  0  0
  189.2620  172.3640  141.6450 C   0  0  0  0  0  2  0  0  0  0  0  0
  189.1510  173.9450  139.8750 F   0  0  0  0  0  0  0  0  0  0  0  0
  188.4560  173.4620  140.9680 C   0  0  2  0  0  3  0  0  0  0  0  0
  188.2090  174.6010  141.9430 C   0  0  0  0  0  2  0  0  0  0  0  0
  188.9420  175.7930  141.5280 N   0  0  0  0  0  0  0  0  0  0  0  0
  188.7920  177.9920  142.5530 C   0  0  2  0  0  3  0  0  0  0  0  0
  187.5600  177.2840  143.1140 C   0  0  2  0  0  3  0  0  0  0  0  0
  190.0960  175.9410  142.4080 C   0  0  0  0  0  3  0  0  0  0  0  0
  188.0830  176.9640  141.7090 C   0  0  2  0  0  0  0  0  0  0  0  0
  187.4660  177.5720  140.4590 C   0  0  0  0  0  1  0  0  0  0  0  0
  190.0470  177.3150  143.0500 C   0  0  0  0  0  3  0  0  0  0  0  0
  186.4070  178.1740  143.0620 N   0  0  2  0  0  0  0  0  0  0  0  0
  183.9690  178.1690  143.2060 C   0  0  0  0  0  3  0  0  0  0  0  0
  185.2350  179.9350  144.2630 C   0  0  0  0  0  2  0  0  0  0  0  0
  184.0050  179.3190  143.7930 N   0  0  0  0  0  0  0  0  0  0  0  0
  186.3870  178.9320  144.3100 C   0  0  0  0  0  2  0  0  0  0  0  0
  185.2120  177.3310  143.0520 C   0  0  0  0  0  2  0  0  0  0  0  0
  1  8  1  0  0  0  0
  1  6  1  0  0  0  0
  2 12  1  0  0  0  0
  3 14  2  0  0  0  0
  3 10  1  0  0  0  0
  4 15  1  0  0  0  0
  4  8  2  0  0  0  0
  5  1  2  0  0  0  0
  7  4  1  0  0  0  0
  9  7  2  0  0  0  0
  9  5  1  0  0  0  0
 10 11  2  0  0  0  0
 11  2  1  0  0  0  0
 11  7  1  0  0  0  0
 12 15  2  0  0  0  0
 13 16  1  0  0  0  0
 13  2  2  0  0  0  0
 14 13  1  0  0  0  0
 17 18  1  0  0  0  0
 18 22  1  0  0  0  0
 19 22  1  0  0  0  0
 20 17  1  0  0  0  0
 20 21  1  0  0  0  0
 21 19  1  0  0  0  0
 21 16  1  0  0  0  0
 23 24  1  0  0  0  0
 24 18  1  0  0  0  0
 25  3  1  0  0  0  0
 26 25  1  0  0  0  0
 27 26  1  0  0  0  0
 29 28  1  6  0  0  0
 29 27  1  0  0  0  0
 29 30  1  0  0  0  0
 31 35  1  0  0  0  0
 31 30  1  0  0  0  0
 31 34  1  0  0  0  0
 32 37  1  1  0  0  0
 32 33  1  0  0  0  0
 33 38  1  6  0  0  0
 34 37  2  0  0  0  0
 35 36  1  6  0  0  0
 35 32  1  0  0  0  0
 35 33  1  0  0  0  0
 38 43  1  1  0  0  0
 38 42  1  0  0  0  0
 39 41  2  0  0  0  0
 40 42  1  0  0  0  0
 41 40  1  0  0  0  0
 43 39  1  0  0  0  0
M  END
>  <MODEL>
1

>  <REMARK>
 VINA RESULT:      -7.5      0.000      0.000
  Name = 
  10 active torsions:
  status: ('A' for Active; 'I' for Inactive)
    1  A    between atoms: C_1  and  C_34
    2  A    between atoms: C_1  and  N_35
    3  A    between atoms: C_2  and  N_7
    4  A    between atoms: C_2  and  C_13
    5  A    between atoms: C_3  and  N_4
    6  A    between atoms: C_3  and  C_12
    7  A    between atoms: N_7  and  C_17
    8  A    between atoms: N_11  and  C_14
    9  A    between atoms: C_12  and  C_17
   10  A    between atoms: N_19  and  C_37
                            x       y       z     vdW  Elec       q    Type
                         _______ _______ _______ _____ _____    ______ ____

>  <TORSDO>
F 10

$$$$
=
 OpenBabel11052420593D

 43 49  0  0  1  0  0  0  0  0999 V2000
  184.7700  178.2890  145.5900 C   0  0  0  0  0  0  0  0  0  0  0  0
  188.4640  175.4860  143.5670 C   0  0  0  0  0  0  0  0  0  0  0  0
  190.3260  175.1340  145.6050 C   0  0  0  0  0  0  0  0  0  0  0  0
  186.1430  176.9850  144.0840 C   0  0  0  0  0  0  0  0  0  0  0  0
  185.7040  178.0980  146.6120 C   0  0  0  0  0  3  0  0  0  0  0  0
  183.6250  179.0340  145.8270 O   0  0  0  0  0  1  0  0  0  0  0  0
  187.0950  176.7880  145.1140 C   0  0  0  0  0  0  0  0  0  0  0  0
  184.9890  177.7330  144.3280 C   0  0  0  0  0  3  0  0  0  0  0  0
  186.8610  177.3510  146.3760 C   0  0  0  0  0  3  0  0  0  0  0  0
  189.1890  175.8430  145.8290 N   0  0  0  0  0  0  0  0  0  0  0  0
  188.2560  176.0390  144.8550 C   0  0  0  0  0  0  0  0  0  0  0  0
  187.5070  175.6890  142.5620 C   0  0  0  0  0  3  0  0  0  0  0  0
  189.6320  174.7400  143.3260 C   0  0  0  0  0  0  0  0  0  0  0  0
  190.5640  174.5700  144.3510 C   0  0  0  0  0  3  0  0  0  0  0  0
  186.3550  176.4330  142.8200 C   0  0  0  0  0  3  0  0  0  0  0  0
  189.9320  174.1510  141.9840 C   0  0  0  0  0  2  0  0  0  0  0  0
  189.7840  172.6340  139.4260 C   0  0  0  0  0  2  0  0  0  0  0  0
  190.8410  171.6520  139.6880 N   0  0  0  0  0  0  0  0  0  0  0  0
  190.2910  171.7810  142.1220 C   0  0  0  0  0  2  0  0  0  0  0  0
  188.7220  172.6720  140.5330 C   0  0  0  0  0  2  0  0  0  0  0  0
  189.3080  172.8350  141.8650 N   0  0  0  0  0  0  0  0  0  0  0  0
  191.3870  171.7270  141.0480 C   0  0  0  0  0  2  0  0  0  0  0  0
  189.7580  170.2190  137.9360 C   0  0  0  0  0  1  0  0  0  0  0  0
  190.4850  170.2880  139.2760 C   0  0  0  0  0  2  0  0  0  0  0  0
  191.3070  174.9400  146.7050 C   0  0  0  0  0  2  0  0  0  0  0  0
  192.6570  175.1040  146.1930 N   0  0  0  0  0  2  0  0  0  0  0  0
  193.1160  176.4160  146.6170 C   0  0  0  0  0  2  0  0  0  0  0  0
  194.9150  177.9480  146.3730 F   0  0  0  0  0  0  0  0  0  0  0  0
  194.5610  176.6250  146.1900 C   0  0  2  0  0  3  0  0  0  0  0  0
  194.7270  176.2640  144.7230 C   0  0  0  0  0  2  0  0  0  0  0  0
  196.0840  175.7940  144.4670 N   0  0  0  0  0  0  0  0  0  0  0  0
  196.6910  173.7470  143.3040 C   0  0  2  0  0  3  0  0  0  0  0  0
  195.2130  173.5200  143.6180 C   0  0  2  0  0  3  0  0  0  0  0  0
  196.4360  176.1600  143.0990 C   0  0  0  0  0  3  0  0  0  0  0  0
  196.1040  174.3330  144.5630 C   0  0  2  0  0  0  0  0  0  0  0  0
  196.7160  173.7290  145.8180 C   0  0  0  0  0  1  0  0  0  0  0  0
  196.8430  174.9060  142.3480 C   0  0  0  0  0  3  0  0  0  0  0  0
  195.0110  172.1640  144.1130 N   0  0  2  0  0  0  0  0  0  0  0  0
  193.2840  170.4620  144.3990 C   0  0  0  0  0  3  0  0  0  0  0  0
  195.4960  169.8220  143.6660 C   0  0  0  0  0  2  0  0  0  0  0  0
  194.1570  169.5400  144.1540 N   0  0  0  0  0  0  0  0  0  0  0  0
  195.6180  171.2540  143.1450 C   0  0  0  0  0  2  0  0  0  0  0  0
  193.5710  171.9090  144.0970 C   0  0  0  0  0  2  0  0  0  0  0  0
  1  6  1  0  0  0  0
  1  5  1  0  0  0  0
  2 11  1  0  0  0  0
  3 10  1  0  0  0  0
  3 25  1  0  0  0  0
  4  8  1  0  0  0  0
  4  7  2  0  0  0  0
  7  9  1  0  0  0  0
  8  1  2  0  0  0  0
  9  5  2  0  0  0  0
 11  7  1  0  0  0  0
 11 10  2  0  0  0  0
 12 15  2  0  0  0  0
 12  2  1  0  0  0  0
 13  2  2  0  0  0  0
 13 14  1  0  0  0  0
 14  3  2  0  0  0  0
 15  4  1  0  0  0  0
 16 13  1  0  0  0  0
 17 18  1  0  0  0  0
 17 20  1  0  0  0  0
 18 22  1  0  0  0  0
 20 21  1  0  0  0  0
 21 16  1  0  0  0  0
 21 19  1  0  0  0  0
 22 19  1  0  0  0  0
 23 24  1  0  0  0  0
 24 18  1  0  0  0  0
 26 27  1  0  0  0  0
 26 25  1  0  0  0  0
 29 28  1  6  0  0  0
 29 27  1  0  0  0  0
 30 29  1  0  0  0  0
 31 35  1  0  0  0  0
 31 30  1  0  0  0  0
 32 37  1  6  0  0  0
 32 33  1  0  0  0  0
 32 35  1  0  0  0  0
 33 38  1  1  0  0  0
 33 35  1  0  0  0  0
 34 31  1  0  0  0  0
 35 36  1  1  0  0  0
 37 34  2  0  0  0  0
 38 42  1  6  0  0  0
 40 41  1  0  0  0  0
 41 39  2  0  0  0  0
 42 40  1  0  0  0  0
 43 38  1  0  0  0  0
 43 39  1  0  0  0  0
M  END
>  <MODEL>
2

>  <REMARK>
 VINA RESULT:      -7.3      2.606      7.632
  Name = 
  10 active torsions:
  status: ('A' for Active; 'I' for Inactive)
    1  A    between atoms: C_1  and  C_34
    2  A    between atoms: C_1  and  N_35
    3  A    between atoms: C_2  and  N_7
    4  A    between atoms: C_2  and  C_13
    5  A    between atoms: C_3  and  N_4
    6  A    between atoms: C_3  and  C_12
    7  A    between atoms: N_7  and  C_17
    8  A    between atoms: N_11  and  C_14
    9  A    between atoms: C_12  and  C_17
   10  A    between atoms: N_19  and  C_37
                            x       y       z     vdW  Elec       q    Type
                         _______ _______ _______ _____ _____    ______ ____

>  <TORSDO>
F 10

$$$$
=
 OpenBabel11052420593D

 43 49  0  0  1  0  0  0  0  0999 V2000
  190.3800  170.4350  139.0500 C   0  0  0  0  0  0  0  0  0  0  0  0
  188.8470  174.4800  141.6730 C   0  0  0  0  0  0  0  0  0  0  0  0
  189.5180  173.9430  144.3200 C   0  0  0  0  0  0  0  0  0  0  0  0
  189.4540  172.5740  139.6990 C   0  0  0  0  0  0  0  0  0  0  0  0
  190.7250  170.1780  140.3800 C   0  0  0  0  0  3  0  0  0  0  0  0
  190.6650  169.5010  138.0660 O   0  0  0  0  0  1  0  0  0  0  0  0
  189.7990  172.3200  141.0480 C   0  0  0  0  0  0  0  0  0  0  0  0
  189.7460  171.6320  138.7100 C   0  0  0  0  0  3  0  0  0  0  0  0
  190.4360  171.1150  141.3750 C   0  0  0  0  0  3  0  0  0  0  0  0
  189.8100  173.0460  143.3420 N   0  0  0  0  0  0  0  0  0  0  0  0
  189.4940  173.2740  142.0360 C   0  0  0  0  0  0  0  0  0  0  0  0
  188.5180  174.7140  140.3300 C   0  0  0  0  0  3  0  0  0  0  0  0
  188.5490  175.4220  142.6750 C   0  0  0  0  0  0  0  0  0  0  0  0
  188.8840  175.1450  144.0020 C   0  0  0  0  0  3  0  0  0  0  0  0
  188.8200  173.7670  139.3500 C   0  0  0  0  0  3  0  0  0  0  0  0
  187.8410  176.7040  142.3700 C   0  0  0  0  0  2  0  0  0  0  0  0
  186.3270  177.8570  144.6600 C   0  0  0  0  0  2  0  0  0  0  0  0
  185.6900  178.9800  143.9630 N   0  0  0  0  0  0  0  0  0  0  0  0
  185.6730  177.6100  141.8730 C   0  0  0  0  0  2  0  0  0  0  0  0
  186.0680  176.5090  143.9740 C   0  0  0  0  0  2  0  0  0  0  0  0
  186.4010  176.5330  142.5480 N   0  0  0  0  0  0  0  0  0  0  0  0
  185.9270  178.9810  142.5150 C   0  0  0  0  0  2  0  0  0  0  0  0
  183.9630  178.8210  145.7770 C   0  0  0  0  0  1  0  0  0  0  0  0
  184.2780  179.1640  144.3240 C   0  0  0  0  0  2  0  0  0  0  0  0
  189.8930  173.6530  145.7280 C   0  0  0  0  0  2  0  0  0  0  0  0
  189.4030  174.7100  146.5950 N   0  0  0  0  0  2  0  0  0  0  0  0
  190.5380  175.1880  147.3680 C   0  0  0  0  0  2  0  0  0  0  0  0
  189.7700  177.2840  146.5550 F   0  0  0  0  0  0  0  0  0  0  0  0
  190.9090  176.5970  146.9290 C   0  0  2  0  0  3  0  0  0  0  0  0
  191.8650  176.5390  145.7500 C   0  0  0  0  0  2  0  0  0  0  0  0
  193.1020  175.8650  146.1320 N   0  0  0  0  0  0  0  0  0  0  0  0
  194.9410  175.3040  144.6440 C   0  0  2  0  0  3  0  0  0  0  0  0
  193.8090  175.6080  143.6650 C   0  0  2  0  0  3  0  0  0  0  0  0
  194.1320  176.8830  146.3120 C   0  0  0  0  0  3  0  0  0  0  0  0
  193.5210  174.9880  145.0370 C   0  0  2  0  0  0  0  0  0  0  0  0
  193.2920  173.4950  145.2180 C   0  0  0  0  0  1  0  0  0  0  0  0
  195.3080  176.5510  145.4130 C   0  0  0  0  0  3  0  0  0  0  0  0
  193.7780  174.6030  142.6110 N   0  0  2  0  0  0  0  0  0  0  0  0
  192.8030  174.1490  140.4180 C   0  0  0  0  0  3  0  0  0  0  0  0
  195.1050  173.5600  140.8580 C   0  0  0  0  0  2  0  0  0  0  0  0
  193.8870  173.5370  140.0670 N   0  0  0  0  0  0  0  0  0  0  0  0
  195.0670  174.6540  141.9250 C   0  0  0  0  0  2  0  0  0  0  0  0
  192.7610  175.0210  141.6460 C   0  0  0  0  0  2  0  0  0  0  0  0
  1  5  1  0  0  0  0
  2 11  1  0  0  0  0
  2 13  1  0  0  0  0
  3 25  1  0  0  0  0
  4  7  1  0  0  0  0
  5  9  2  0  0  0  0
  6  1  1  0  0  0  0
  7  9  1  0  0  0  0
  7 11  2  0  0  0  0
  8  1  2  0  0  0  0
  8  4  1  0  0  0  0
 10  3  2  0  0  0  0
 11 10  1  0  0  0  0
 12  2  2  0  0  0  0
 13 14  2  0  0  0  0
 14  3  1  0  0  0  0
 15  4  2  0  0  0  0
 15 12  1  0  0  0  0
 16 21  1  0  0  0  0
 16 13  1  0  0  0  0
 18 24  1  0  0  0  0
 18 17  1  0  0  0  0
 19 22  1  0  0  0  0
 19 21  1  0  0  0  0
 20 17  1  0  0  0  0
 21 20  1  0  0  0  0
 22 18  1  0  0  0  0
 24 23  1  0  0  0  0
 25 26  1  0  0  0  0
 26 27  1  0  0  0  0
 29 28  1  6  0  0  0
 29 27  1  0  0  0  0
 30 31  1  0  0  0  0
 30 29  1  0  0  0  0
 31 34  1  0  0  0  0
 32 35  1  0  0  0  0
 32 37  1  1  0  0  0
 33 38  1  6  0  0  0
 33 32  1  0  0  0  0
 33 35  1  0  0  0  0
 35 36  1  1  0  0  0
 35 31  1  0  0  0  0
 37 34  2  0  0  0  0
 38 43  1  6  0  0  0
 39 43  1  0  0  0  0
 40 42  1  0  0  0  0
 41 39  2  0  0  0  0
 41 40  1  0  0  0  0
 42 38  1  0  0  0  0
M  END
>  <MODEL>
3

>  <REMARK>
 VINA RESULT:      -6.9      3.069      8.491
  Name = 
  10 active torsions:
  status: ('A' for Active; 'I' for Inactive)
    1  A    between atoms: C_1  and  C_34
    2  A    between atoms: C_1  and  N_35
    3  A    between atoms: C_2  and  N_7
    4  A    between atoms: C_2  and  C_13
    5  A    between atoms: C_3  and  N_4
    6  A    between atoms: C_3  and  C_12
    7  A    between atoms: N_7  and  C_17
    8  A    between atoms: N_11  and  C_14
    9  A    between atoms: C_12  and  C_17
   10  A    between atoms: N_19  and  C_37
                            x       y       z     vdW  Elec       q    Type
                         _______ _______ _______ _____ _____    ______ ____

>  <TORSDO>
F 10

$$$$
=
 OpenBabel11052420593D

 43 49  0  0  1  0  0  0  0  0999 V2000
  185.2980  178.1010  146.8050 C   0  0  0  0  0  0  0  0  0  0  0  0
  189.3810  176.2040  144.4970 C   0  0  0  0  0  0  0  0  0  0  0  0
  188.5540  175.5990  141.9100 C   0  0  0  0  0  0  0  0  0  0  0  0
  187.5270  177.3090  146.2980 C   0  0  0  0  0  0  0  0  0  0  0  0
  184.8930  177.8060  145.5000 C   0  0  0  0  0  3  0  0  0  0  0  0
  184.3930  178.6380  147.7070 O   0  0  0  0  0  1  0  0  0  0  0  0
  187.1240  177.0060  144.9750 C   0  0  0  0  0  0  0  0  0  0  0  0
  186.6130  177.8540  147.2030 C   0  0  0  0  0  3  0  0  0  0  0  0
  185.8010  177.2610  144.5880 C   0  0  0  0  0  3  0  0  0  0  0  0
  187.6840  176.1450  142.7980 N   0  0  0  0  0  0  0  0  0  0  0  0
  188.0520  176.4520  144.0740 C   0  0  0  0  0  0  0  0  0  0  0  0
  189.7600  176.5160  145.8110 C   0  0  0  0  0  3  0  0  0  0  0  0
  190.2940  175.6490  143.5830 C   0  0  0  0  0  0  0  0  0  0  0  0
  189.8720  175.3440  142.2870 C   0  0  0  0  0  3  0  0  0  0  0  0
  188.8390  177.0650  146.7040 C   0  0  0  0  0  3  0  0  0  0  0  0
  191.7050  175.3330  143.9670 C   0  0  0  0  0  2  0  0  0  0  0  0
  194.3840  175.6940  145.2150 C   0  0  0  0  0  2  0  0  0  0  0  0
  195.2170  175.3350  144.0620 N   0  0  0  0  0  0  0  0  0  0  0  0
  193.4320  176.2240  142.5570 C   0  0  0  0  0  2  0  0  0  0  0  0
  193.3670  176.7960  144.8910 C   0  0  0  0  0  2  0  0  0  0  0  0
  192.5630  176.4860  143.7060 N   0  0  0  0  0  0  0  0  0  0  0  0
  194.4490  175.1080  142.8320 C   0  0  0  0  0  2  0  0  0  0  0  0
  196.7260  176.4750  142.4130 C   0  0  0  0  0  1  0  0  0  0  0  0
  196.3690  176.2260  143.8750 C   0  0  0  0  0  2  0  0  0  0  0  0
  188.1060  175.2930  140.5260 C   0  0  0  0  0  2  0  0  0  0  0  0
  188.4940  173.9390  140.1730 N   0  0  0  0  0  2  0  0  0  0  0  0
  188.2270  173.7760  138.7530 C   0  0  0  0  0  2  0  0  0  0  0  0
  189.3760  174.2100  136.7190 F   0  0  0  0  0  0  0  0  0  0  0  0
  189.5370  173.6790  137.9850 C   0  0  2  0  0  3  0  0  0  0  0  0
  189.9620  172.2250  137.8650 C   0  0  0  0  0  2  0  0  0  0  0  0
  191.3970  172.0960  138.0990 N   0  0  0  0  0  0  0  0  0  0  0  0
  192.4400  171.0830  140.0480 C   0  0  2  0  0  3  0  0  0  0  0  0
  191.0020  171.2950  140.5190 C   0  0  2  0  0  3  0  0  0  0  0  0
  191.7940  170.7430  137.7250 C   0  0  0  0  0  3  0  0  0  0  0  0
  191.6600  172.2640  139.5300 C   0  0  2  0  0  0  0  0  0  0  0  0
  192.2590  173.5900  139.9740 C   0  0  0  0  0  1  0  0  0  0  0  0
  192.4710  170.0870  138.9140 C   0  0  0  0  0  3  0  0  0  0  0  0
  190.9960  171.8390  141.8710 N   0  0  2  0  0  0  0  0  0  0  0  0
  189.6130  171.9750  143.8790 C   0  0  0  0  0  3  0  0  0  0  0  0
  191.9930  171.6140  144.0780 C   0  0  0  0  0  2  0  0  0  0  0  0
  190.6760  171.9180  144.6110 N   0  0  0  0  0  0  0  0  0  0  0  0
  191.9120  171.0280  142.6690 C   0  0  0  0  0  2  0  0  0  0  0  0
  189.6530  171.6290  142.4130 C   0  0  0  0  0  2  0  0  0  0  0  0
  1  8  1  0  0  0  0
  1  6  1  0  0  0  0
  2 12  1  0  0  0  0
  3 14  2  0  0  0  0
  3 10  1  0  0  0  0
  4 15  1  0  0  0  0
  4  8  2  0  0  0  0
  5  1  2  0  0  0  0
  7  4  1  0  0  0  0
  9  7  2  0  0  0  0
  9  5  1  0  0  0  0
 10 11  2  0  0  0  0
 11  2  1  0  0  0  0
 11  7  1  0  0  0  0
 12 15  2  0  0  0  0
 13 16  1  0  0  0  0
 13  2  2  0  0  0  0
 14 13  1  0  0  0  0
 18 17  1  0  0  0  0
 19 22  1  0  0  0  0
 19 21  1  0  0  0  0
 20 17  1  0  0  0  0
 21 16  1  0  0  0  0
 21 20  1  0  0  0  0
 22 18  1  0  0  0  0
 23 24  1  0  0  0  0
 24 18  1  0  0  0  0
 25  3  1  0  0  0  0
 26 25  1  0  0  0  0
 27 26  1  0  0  0  0
 29 28  1  6  0  0  0
 29 27  1  0  0  0  0
 30 29  1  0  0  0  0
 30 31  1  0  0  0  0
 31 35  1  0  0  0  0
 32 37  1  6  0  0  0
 32 33  1  0  0  0  0
 33 38  1  1  0  0  0
 34 31  1  0  0  0  0
 34 37  2  0  0  0  0
 35 36  1  1  0  0  0
 35 32  1  0  0  0  0
 35 33  1  0  0  0  0
 38 43  1  1  0  0  0
 38 42  1  0  0  0  0
 39 41  2  0  0  0  0
 40 41  1  0  0  0  0
 42 40  1  0  0  0  0
 43 39  1  0  0  0  0
M  END
>  <MODEL>
4

>  <REMARK>
 VINA RESULT:      -6.9      2.461      5.215
  Name = 
  10 active torsions:
  status: ('A' for Active; 'I' for Inactive)
    1  A    between atoms: C_1  and  C_34
    2  A    between atoms: C_1  and  N_35
    3  A    between atoms: C_2  and  N_7
    4  A    between atoms: C_2  and  C_13
    5  A    between atoms: C_3  and  N_4
    6  A    between atoms: C_3  and  C_12
    7  A    between atoms: N_7  and  C_17
    8  A    between atoms: N_11  and  C_14
    9  A    between atoms: C_12  and  C_17
   10  A    between atoms: N_19  and  C_37
                            x       y       z     vdW  Elec       q    Type
                         _______ _______ _______ _____ _____    ______ ____

>  <TORSDO>
F 10

$$$$
=
 OpenBabel11052420593D

 43 49  0  0  1  0  0  0  0  0999 V2000
  184.9160  178.0120  145.8230 C   0  0  0  0  0  0  0  0  0  0  0  0
  188.7270  175.6200  143.5100 C   0  0  0  0  0  0  0  0  0  0  0  0
  190.6530  175.2190  145.4780 C   0  0  0  0  0  0  0  0  0  0  0  0
  186.3320  176.9240  144.1910 C   0  0  0  0  0  0  0  0  0  0  0  0
  185.8830  177.7960  146.8100 C   0  0  0  0  0  3  0  0  0  0  0  0
  183.7340  178.6610  146.1420 O   0  0  0  0  0  1  0  0  0  0  0  0
  187.3170  176.7030  145.1840 C   0  0  0  0  0  0  0  0  0  0  0  0
  185.1400  177.5750  144.5160 C   0  0  0  0  0  3  0  0  0  0  0  0
  187.0780  177.1440  146.4920 C   0  0  0  0  0  3  0  0  0  0  0  0
  189.4800  175.8350  145.7800 N   0  0  0  0  0  0  0  0  0  0  0  0
  188.5150  176.0510  144.8420 C   0  0  0  0  0  0  0  0  0  0  0  0
  187.7360  175.8450  142.5420 C   0  0  0  0  0  3  0  0  0  0  0  0
  189.9320  174.9710  143.1870 C   0  0  0  0  0  0  0  0  0  0  0  0
  190.8960  174.7760  144.1780 C   0  0  0  0  0  3  0  0  0  0  0  0
  186.5480  176.4920  142.8820 C   0  0  0  0  0  3  0  0  0  0  0  0
  190.2370  174.5140  141.7950 C   0  0  0  0  0  2  0  0  0  0  0  0
  188.7020  172.7210  139.9790 C   0  0  0  0  0  2  0  0  0  0  0  0
  189.7560  172.4430  138.9980 N   0  0  0  0  0  0  0  0  0  0  0  0
  191.4490  172.6860  140.8200 C   0  0  0  0  0  2  0  0  0  0  0  0
  189.1370  172.4160  141.4190 C   0  0  0  0  0  2  0  0  0  0  0  0
  190.4020  173.0630  141.7710 N   0  0  0  0  0  0  0  0  0  0  0  0
  191.0630  173.0000  139.3680 C   0  0  0  0  0  2  0  0  0  0  0  0
  189.7660  170.8260  137.0790 C   0  0  0  0  0  1  0  0  0  0  0  0
  189.8160  171.0340  138.5900 C   0  0  0  0  0  2  0  0  0  0  0  0
  191.6680  174.9970  146.5400 C   0  0  0  0  0  2  0  0  0  0  0  0
  192.6200  176.0950  146.5460 N   0  0  0  0  0  2  0  0  0  0  0  0
  193.9140  175.5380  146.1900 C   0  0  0  0  0  2  0  0  0  0  0  0
  194.0560  177.7520  145.3400 F   0  0  0  0  0  0  0  0  0  0  0  0
  194.8090  176.6260  145.6170 C   0  0  2  0  0  3  0  0  0  0  0  0
  195.4650  176.1390  144.3360 C   0  0  0  0  0  2  0  0  0  0  0  0
  195.7700  174.7150  144.4320 N   0  0  0  0  0  0  0  0  0  0  0  0
  196.4970  173.2840  142.6060 C   0  0  2  0  0  3  0  0  0  0  0  0
  195.9620  174.5100  141.8680 C   0  0  2  0  0  3  0  0  0  0  0  0
  197.2170  174.5710  144.5430 C   0  0  0  0  0  3  0  0  0  0  0  0
  195.3450  174.0560  143.1950 C   0  0  2  0  0  0  0  0  0  0  0  0
  194.0680  173.2310  143.2540 C   0  0  0  0  0  1  0  0  0  0  0  0
  197.7050  173.6630  143.4300 C   0  0  0  0  0  3  0  0  0  0  0  0
  195.1490  174.0930  140.7340 N   0  0  2  0  0  0  0  0  0  0  0  0
  194.1930  174.9270  138.6470 C   0  0  0  0  0  3  0  0  0  0  0  0
  195.1360  172.7040  138.7360 C   0  0  0  0  0  2  0  0  0  0  0  0
  194.3720  173.7670  138.1050 N   0  0  0  0  0  0  0  0  0  0  0  0
  195.9780  173.2270  139.9000 C   0  0  0  0  0  2  0  0  0  0  0  0
  194.8560  175.2920  139.9490 C   0  0  0  0  0  2  0  0  0  0  0  0
  1  6  1  0  0  0  0
  1  5  1  0  0  0  0
  2 11  1  0  0  0  0
  3 10  1  0  0  0  0
  3 25  1  0  0  0  0
  4  8  1  0  0  0  0
  4  7  2  0  0  0  0
  7  9  1  0  0  0  0
  8  1  2  0  0  0  0
  9  5  2  0  0  0  0
 11  7  1  0  0  0  0
 11 10  2  0  0  0  0
 12 15  2  0  0  0  0
 12  2  1  0  0  0  0
 13  2  2  0  0  0  0
 13 14  1  0  0  0  0
 14  3  2  0  0  0  0
 15  4  1  0  0  0  0
 16 13  1  0  0  0  0
 17 20  1  0  0  0  0
 18 22  1  0  0  0  0
 18 17  1  0  0  0  0
 19 21  1  0  0  0  0
 20 21  1  0  0  0  0
 21 16  1  0  0  0  0
 22 19  1  0  0  0  0
 23 24  1  0  0  0  0
 24 18  1  0  0  0  0
 25 26  1  0  0  0  0
 27 26  1  0  0  0  0
 29 28  1  6  0  0  0
 29 27  1  0  0  0  0
 30 31  1  0  0  0  0
 30 29  1  0  0  0  0
 31 34  1  0  0  0  0
 32 35  1  0  0  0  0
 32 37  1  1  0  0  0
 33 38  1  6  0  0  0
 33 32  1  0  0  0  0
 33 35  1  0  0  0  0
 35 36  1  6  0  0  0
 35 31  1  0  0  0  0
 37 34  2  0  0  0  0
 38 42  1  6  0  0  0
 39 43  1  0  0  0  0
 40 42  1  0  0  0  0
 41 39  2  0  0  0  0
 41 40  1  0  0  0  0
 43 38  1  0  0  0  0
M  END
>  <MODEL>
5

>  <REMARK>
 VINA RESULT:      -6.9      2.832      7.434
  Name = 
  10 active torsions:
  status: ('A' for Active; 'I' for Inactive)
    1  A    between atoms: C_1  and  C_34
    2  A    between atoms: C_1  and  N_35
    3  A    between atoms: C_2  and  N_7
    4  A    between atoms: C_2  and  C_13
    5  A    between atoms: C_3  and  N_4
    6  A    between atoms: C_3  and  C_12
    7  A    between atoms: N_7  and  C_17
    8  A    between atoms: N_11  and  C_14
    9  A    between atoms: C_12  and  C_17
   10  A    between atoms: N_19  and  C_37
                            x       y       z     vdW  Elec       q    Type
                         _______ _______ _______ _____ _____    ______ ____

>  <TORSDO>
F 10

$$$$
=
 OpenBabel11052420593D

 43 49  0  0  1  0  0  0  0  0999 V2000
  185.3030  177.9790  146.6570 C   0  0  0  0  0  0  0  0  0  0  0  0
  189.1140  175.2570  144.7420 C   0  0  0  0  0  0  0  0  0  0  0  0
  188.5990  175.0800  142.0130 C   0  0  0  0  0  0  0  0  0  0  0  0
  187.3200  176.6730  146.3790 C   0  0  0  0  0  0  0  0  0  0  0  0
  185.0580  177.8970  145.2830 C   0  0  0  0  0  3  0  0  0  0  0  0
  184.4230  178.6660  147.4780 O   0  0  0  0  0  1  0  0  0  0  0  0
  187.0780  176.5830  144.9870 C   0  0  0  0  0  0  0  0  0  0  0  0
  186.4340  177.3690  147.2040 C   0  0  0  0  0  3  0  0  0  0  0  0
  185.9400  177.2020  144.4510 C   0  0  0  0  0  3  0  0  0  0  0  0
  187.7560  175.7680  142.8270 N   0  0  0  0  0  0  0  0  0  0  0  0
  187.9750  175.8740  144.1690 C   0  0  0  0  0  0  0  0  0  0  0  0
  189.3380  175.3620  146.1230 C   0  0  0  0  0  3  0  0  0  0  0  0
  189.9990  174.5510  143.9070 C   0  0  0  0  0  0  0  0  0  0  0  0
  189.7330  174.4630  142.5400 C   0  0  0  0  0  3  0  0  0  0  0  0
  188.4470  176.0650  146.9350 C   0  0  0  0  0  3  0  0  0  0  0  0
  191.2060  173.8510  144.4470 C   0  0  0  0  0  2  0  0  0  0  0  0
  193.3750  175.3510  145.8290 C   0  0  0  0  0  2  0  0  0  0  0  0
  194.3640  174.2710  145.9280 N   0  0  0  0  0  0  0  0  0  0  0  0
  193.4560  173.3120  143.8070 C   0  0  0  0  0  2  0  0  0  0  0  0
  192.8780  175.5700  144.3940 C   0  0  0  0  0  2  0  0  0  0  0  0
  192.4070  174.3320  143.7690 N   0  0  0  0  0  0  0  0  0  0  0  0
  193.9630  173.0440  145.2310 C   0  0  0  0  0  2  0  0  0  0  0  0
  196.8030  173.6850  145.9860 C   0  0  0  0  0  1  0  0  0  0  0  0
  195.7310  174.7040  145.6110 C   0  0  0  0  0  2  0  0  0  0  0  0
  188.3220  175.0050  140.5550 C   0  0  0  0  0  2  0  0  0  0  0  0
  188.9460  173.8170  139.9980 N   0  0  0  0  0  2  0  0  0  0  0  0
  188.4390  173.6650  138.6440 C   0  0  0  0  0  2  0  0  0  0  0  0
  189.3030  173.2490  136.4700 F   0  0  0  0  0  0  0  0  0  0  0  0
  189.5470  173.9450  137.6390 C   0  0  2  0  0  3  0  0  0  0  0  0
  190.8860  173.5080  138.2080 C   0  0  0  0  0  2  0  0  0  0  0  0
  191.8890  173.4430  137.1500 N   0  0  0  0  0  0  0  0  0  0  0  0
  194.2990  173.4060  137.4680 C   0  0  2  0  0  3  0  0  0  0  0  0
  193.7960  173.8700  138.8340 C   0  0  2  0  0  3  0  0  0  0  0  0
  192.3230  172.0550  137.0250 C   0  0  0  0  0  3  0  0  0  0  0  0
  193.0490  174.2430  137.5490 C   0  0  2  0  0  0  0  0  0  0  0  0
  193.2190  175.5980  136.8790 C   0  0  0  0  0  1  0  0  0  0  0  0
  193.8290  171.9970  137.1960 C   0  0  0  0  0  3  0  0  0  0  0  0
  194.6110  174.9780  139.3150 N   0  0  2  0  0  0  0  0  0  0  0  0
  195.0680  176.2960  141.3200 C   0  0  0  0  0  3  0  0  0  0  0  0
  196.8860  175.6420  139.8680 C   0  0  0  0  0  2  0  0  0  0  0  0
  196.3070  176.3970  140.9670 N   0  0  0  0  0  0  0  0  0  0  0  0
  195.9810  174.4870  139.4390 C   0  0  0  0  0  2  0  0  0  0  0  0
  194.1480  175.2990  140.6650 C   0  0  0  0  0  2  0  0  0  0  0  0
  1  8  1  0  0  0  0
  1  6  1  0  0  0  0
  2 12  1  0  0  0  0
  3 14  2  0  0  0  0
  3 10  1  0  0  0  0
  4 15  1  0  0  0  0
  4  8  2  0  0  0  0
  5  1  2  0  0  0  0
  7  4  1  0  0  0  0
  9  7  2  0  0  0  0
  9  5  1  0  0  0  0
 10 11  2  0  0  0  0
 11  2  1  0  0  0  0
 11  7  1  0  0  0  0
 12 15  2  0  0  0  0
 13 16  1  0  0  0  0
 13  2  2  0  0  0  0
 14 13  1  0  0  0  0
 17 18  1  0  0  0  0
 19 22  1  0  0  0  0
 20 17  1  0  0  0  0
 21 19  1  0  0  0  0
 21 20  1  0  0  0  0
 21 16  1  0  0  0  0
 22 18  1  0  0  0  0
 24 18  1  0  0  0  0
 24 23  1  0  0  0  0
 25  3  1  0  0  0  0
 26 25  1  0  0  0  0
 27 26  1  0  0  0  0
 29 28  1  6  0  0  0
 29 30  1  0  0  0  0
 29 27  1  0  0  0  0
 31 35  1  0  0  0  0
 31 30  1  0  0  0  0
 32 37  1  1  0  0  0
 32 35  1  0  0  0  0
 32 33  1  0  0  0  0
 33 38  1  6  0  0  0
 34 31  1  0  0  0  0
 34 37  2  0  0  0  0
 35 36  1  6  0  0  0
 35 33  1  0  0  0  0
 38 42  1  1  0  0  0
 38 43  1  0  0  0  0
 40 41  1  0  0  0  0
 41 39  2  0  0  0  0
 42 40  1  0  0  0  0
 43 39  1  0  0  0  0
M  END
>  <MODEL>
6

>  <REMARK>
 VINA RESULT:      -6.9      3.029      5.968
  Name = 
  10 active torsions:
  status: ('A' for Active; 'I' for Inactive)
    1  A    between atoms: C_1  and  C_34
    2  A    between atoms: C_1  and  N_35
    3  A    between atoms: C_2  and  N_7
    4  A    between atoms: C_2  and  C_13
    5  A    between atoms: C_3  and  N_4
    6  A    between atoms: C_3  and  C_12
    7  A    between atoms: N_7  and  C_17
    8  A    between atoms: N_11  and  C_14
    9  A    between atoms: C_12  and  C_17
   10  A    between atoms: N_19  and  C_37
                            x       y       z     vdW  Elec       q    Type
                         _______ _______ _______ _____ _____    ______ ____

>  <TORSDO>
F 10

$$$$
=
 OpenBabel11052420593D

 43 49  0  0  1  0  0  0  0  0999 V2000
  190.5930  177.1380  147.6320 C   0  0  0  0  0  0  0  0  0  0  0  0
  192.9880  173.6010  144.9210 C   0  0  0  0  0  0  0  0  0  0  0  0
  190.9880  172.2510  143.5340 C   0  0  0  0  0  0  0  0  0  0  0  0
  192.2730  175.7160  146.6290 C   0  0  0  0  0  0  0  0  0  0  0  0
  189.5940  176.4630  146.9220 C   0  0  0  0  0  3  0  0  0  0  0  0
  190.2550  178.1780  148.4850 O   0  0  0  0  0  1  0  0  0  0  0  0
  191.2680  175.0270  145.9080 C   0  0  0  0  0  0  0  0  0  0  0  0
  191.9300  176.7650  147.4840 C   0  0  0  0  0  3  0  0  0  0  0  0
  189.9300  175.4130  146.0640 C   0  0  0  0  0  3  0  0  0  0  0  0
  190.6740  173.2850  144.3580 N   0  0  0  0  0  0  0  0  0  0  0  0
  191.6260  173.9680  145.0550 C   0  0  0  0  0  0  0  0  0  0  0  0
  193.9680  174.3000  145.6410 C   0  0  0  0  0  3  0  0  0  0  0  0
  193.3260  172.5380  144.0630 C   0  0  0  0  0  0  0  0  0  0  0  0
  192.3180  171.8620  143.3740 C   0  0  0  0  0  3  0  0  0  0  0  0
  193.6120  175.3500  146.4880 C   0  0  0  0  0  3  0  0  0  0  0  0
  194.7390  172.0770  143.8960 C   0  0  0  0  0  2  0  0  0  0  0  0
  197.3010  170.5650  144.0340 C   0  0  0  0  0  2  0  0  0  0  0  0
  197.3110  170.2760  145.4720 N   0  0  0  0  0  0  0  0  0  0  0  0
  194.8130  170.2340  145.4330 C   0  0  0  0  0  2  0  0  0  0  0  0
  196.0040  170.1130  143.3480 C   0  0  0  0  0  2  0  0  0  0  0  0
  194.8080  170.6230  144.0220 N   0  0  0  0  0  0  0  0  0  0  0  0
  196.0850  170.6910  146.1620 C   0  0  0  0  0  2  0  0  0  0  0  0
  197.5700  168.5350  147.2610 C   0  0  0  0  0  1  0  0  0  0  0  0
  197.7230  168.9020  145.7880 C   0  0  0  0  0  2  0  0  0  0  0  0
  189.9130  171.5470  142.7870 C   0  0  0  0  0  2  0  0  0  0  0  0
  190.0990  171.7420  141.3600 N   0  0  0  0  0  2  0  0  0  0  0  0
  189.8430  173.1470  141.0860 C   0  0  0  0  0  2  0  0  0  0  0  0
  187.8460  173.9570  140.0880 F   0  0  0  0  0  0  0  0  0  0  0  0
  188.3630  173.4500  141.2650 C   0  0  2  0  0  3  0  0  0  0  0  0
  188.1730  174.4720  142.3740 C   0  0  0  0  0  2  0  0  0  0  0  0
  188.4330  175.8180  141.8730 N   0  0  0  0  0  0  0  0  0  0  0  0
  188.0750  177.8890  143.0950 C   0  0  2  0  0  3  0  0  0  0  0  0
  187.2840  176.8790  143.9240 C   0  0  2  0  0  3  0  0  0  0  0  0
  189.7280  176.2480  142.3870 C   0  0  0  0  0  3  0  0  0  0  0  0
  187.4130  176.7250  142.4050 C   0  0  2  0  0  0  0  0  0  0  0  0
  186.3150  177.1690  141.4500 C   0  0  0  0  0  1  0  0  0  0  0  0
  189.5470  177.5540  143.1380 C   0  0  0  0  0  3  0  0  0  0  0  0
  185.9910  177.4410  144.2930 N   0  0  2  0  0  0  0  0  0  0  0  0
  184.4530  177.6410  146.1790 C   0  0  0  0  0  3  0  0  0  0  0  0
  184.8070  179.5250  144.7090 C   0  0  0  0  0  2  0  0  0  0  0  0
  184.1120  178.8190  145.7720 N   0  0  0  0  0  0  0  0  0  0  0  0
  186.1610  178.8880  144.3980 C   0  0  0  0  0  2  0  0  0  0  0  0
  185.6740  176.9480  145.6340 C   0  0  0  0  0  2  0  0  0  0  0  0
  1  6  1  0  0  0  0
  2 11  1  0  0  0  0
  2 12  1  0  0  0  0
  3 10  1  0  0  0  0
  4  8  2  0  0  0  0
  5  1  2  0  0  0  0
  7  9  2  0  0  0  0
  7  4  1  0  0  0  0
  8  1  1  0  0  0  0
  9  5  1  0  0  0  0
 10 11  2  0  0  0  0
 11  7  1  0  0  0  0
 12 15  2  0  0  0  0
 13  2  2  0  0  0  0
 14  3  2  0  0  0  0
 14 13  1  0  0  0  0
 15  4  1  0  0  0  0
 16 21  1  0  0  0  0
 16 13  1  0  0  0  0
 17 18  1  0  0  0  0
 18 24  1  0  0  0  0
 18 22  1  0  0  0  0
 19 22  1  0  0  0  0
 20 21  1  0  0  0  0
 20 17  1  0  0  0  0
 21 19  1  0  0  0  0
 24 23  1  0  0  0  0
 25  3  1  0  0  0  0
 26 25  1  0  0  0  0
 27 29  1  0  0  0  0
 27 26  1  0  0  0  0
 29 28  1  6  0  0  0
 29 30  1  0  0  0  0
 31 30  1  0  0  0  0
 31 34  1  0  0  0  0
 31 35  1  0  0  0  0
 32 37  1  1  0  0  0
 32 33  1  0  0  0  0
 33 38  1  6  0  0  0
 34 37  2  0  0  0  0
 35 36  1  6  0  0  0
 35 32  1  0  0  0  0
 35 33  1  0  0  0  0
 38 42  1  1  0  0  0
 38 43  1  0  0  0  0
 40 41  1  0  0  0  0
 41 39  2  0  0  0  0
 42 40  1  0  0  0  0
 43 39  1  0  0  0  0
M  END
>  <MODEL>
7

>  <REMARK>
 VINA RESULT:      -6.8      2.171      3.116
  Name = 
  10 active torsions:
  status: ('A' for Active; 'I' for Inactive)
    1  A    between atoms: C_1  and  C_34
    2  A    between atoms: C_1  and  N_35
    3  A    between atoms: C_2  and  N_7
    4  A    between atoms: C_2  and  C_13
    5  A    between atoms: C_3  and  N_4
    6  A    between atoms: C_3  and  C_12
    7  A    between atoms: N_7  and  C_17
    8  A    between atoms: N_11  and  C_14
    9  A    between atoms: C_12  and  C_17
   10  A    between atoms: N_19  and  C_37
                            x       y       z     vdW  Elec       q    Type
                         _______ _______ _______ _____ _____    ______ ____

>  <TORSDO>
F 10

$$$$
=
 OpenBabel11052420593D

 43 49  0  0  1  0  0  0  0  0999 V2000
  191.7360  176.7650  148.0810 C   0  0  0  0  0  0  0  0  0  0  0  0
  193.6840  174.5390  143.9760 C   0  0  0  0  0  0  0  0  0  0  0  0
  191.7660  172.7000  143.1510 C   0  0  0  0  0  0  0  0  0  0  0  0
  193.1750  176.1140  146.2480 C   0  0  0  0  0  0  0  0  0  0  0  0
  190.7720  175.8470  147.6530 C   0  0  0  0  0  3  0  0  0  0  0  0
  191.5030  177.5430  149.2040 O   0  0  0  0  0  1  0  0  0  0  0  0
  192.2040  175.1810  145.8100 C   0  0  0  0  0  0  0  0  0  0  0  0
  192.9360  176.8980  147.3780 C   0  0  0  0  0  3  0  0  0  0  0  0
  191.0040  175.0590  146.5230 C   0  0  0  0  0  3  0  0  0  0  0  0
  191.5420  173.4830  144.2380 N   0  0  0  0  0  0  0  0  0  0  0  0
  192.4600  174.3930  144.6730 C   0  0  0  0  0  0  0  0  0  0  0  0
  194.6310  175.4720  144.4250 C   0  0  0  0  0  3  0  0  0  0  0  0
  193.9220  173.7410  142.8430 C   0  0  0  0  0  0  0  0  0  0  0  0
  192.9580  172.8170  142.4360 C   0  0  0  0  0  3  0  0  0  0  0  0
  194.3770  176.2530  145.5530 C   0  0  0  0  0  3  0  0  0  0  0  0
  195.2040  173.8200  142.0750 C   0  0  0  0  0  2  0  0  0  0  0  0
  197.4700  175.3740  140.9290 C   0  0  0  0  0  2  0  0  0  0  0  0
  197.6890  174.5850  139.7120 N   0  0  0  0  0  0  0  0  0  0  0  0
  195.2500  174.0420  139.6840 C   0  0  0  0  0  2  0  0  0  0  0  0
  196.0170  175.8440  141.0780 C   0  0  0  0  0  2  0  0  0  0  0  0
  195.0570  174.7450  140.9540 N   0  0  0  0  0  0  0  0  0  0  0  0
  196.6870  173.5320  139.5090 C   0  0  0  0  0  2  0  0  0  0  0  0
  197.8700  174.6250  137.2100 C   0  0  0  0  0  1  0  0  0  0  0  0
  197.9220  175.4080  138.5180 C   0  0  0  0  0  2  0  0  0  0  0  0
  190.7280  171.7300  142.7110 C   0  0  0  0  0  2  0  0  0  0  0  0
  189.4410  172.3990  142.6180 N   0  0  0  0  0  2  0  0  0  0  0  0
  189.4190  173.1030  141.3470 C   0  0  0  0  0  2  0  0  0  0  0  0
  188.3430  174.8960  140.2170 F   0  0  0  0  0  0  0  0  0  0  0  0
  188.2130  174.0300  141.2870 C   0  0  2  0  0  3  0  0  0  0  0  0
  188.1140  174.8360  142.5710 C   0  0  0  0  0  2  0  0  0  0  0  0
  188.5910  176.1980  142.3530 N   0  0  0  0  0  0  0  0  0  0  0  0
  188.7080  177.9550  144.0300 C   0  0  2  0  0  3  0  0  0  0  0  0
  187.7940  176.9270  144.6950 C   0  0  2  0  0  3  0  0  0  0  0  0
  189.9740  176.2690  142.8120 C   0  0  0  0  0  3  0  0  0  0  0  0
  187.7960  177.1140  143.1740 C   0  0  2  0  0  0  0  0  0  0  0  0
  186.7450  177.9500  142.4590 C   0  0  0  0  0  1  0  0  0  0  0  0
  190.0900  177.3730  143.8460 C   0  0  0  0  0  3  0  0  0  0  0  0
  186.6560  177.5990  145.3110 N   0  0  2  0  0  0  0  0  0  0  0  0
  184.5750  177.1440  146.5040 C   0  0  0  0  0  3  0  0  0  0  0  0
  185.9810  178.9850  147.1920 C   0  0  0  0  0  2  0  0  0  0  0  0
  184.7490  178.2140  147.2090 N   0  0  0  0  0  0  0  0  0  0  0  0
  187.1290  178.2040  146.5530 C   0  0  0  0  0  2  0  0  0  0  0  0
  185.6910  176.5620  145.6780 C   0  0  0  0  0  2  0  0  0  0  0  0
  1  6  1  0  0  0  0
  2 12  1  0  0  0  0
  2 11  1  0  0  0  0
  3 10  1  0  0  0  0
  4  8  1  0  0  0  0
  5  1  1  0  0  0  0
  7  4  2  0  0  0  0
  7  9  1  0  0  0  0
  8  1  2  0  0  0  0
  9  5  2  0  0  0  0
 10 11  2  0  0  0  0
 11  7  1  0  0  0  0
 12 15  2  0  0  0  0
 13  2  2  0  0  0  0
 14 13  1  0  0  0  0
 14  3  2  0  0  0  0
 15  4  1  0  0  0  0
 16 13  1  0  0  0  0
 17 20  1  0  0  0  0
 18 17  1  0  0  0  0
 19 21  1  0  0  0  0
 21 20  1  0  0  0  0
 21 16  1  0  0  0  0
 22 19  1  0  0  0  0
 22 18  1  0  0  0  0
 23 24  1  0  0  0  0
 24 18  1  0  0  0  0
 25  3  1  0  0  0  0
 26 25  1  0  0  0  0
 27 26  1  0  0  0  0
 29 28  1  6  0  0  0
 29 27  1  0  0  0  0
 29 30  1  0  0  0  0
 31 30  1  0  0  0  0
 31 34  1  0  0  0  0
 31 35  1  0  0  0  0
 32 37  1  6  0  0  0
 32 33  1  0  0  0  0
 33 38  1  1  0  0  0
 34 37  2  0  0  0  0
 35 36  1  6  0  0  0
 35 32  1  0  0  0  0
 35 33  1  0  0  0  0
 38 43  1  1  0  0  0
 38 42  1  0  0  0  0
 39 41  2  0  0  0  0
 40 41  1  0  0  0  0
 42 40  1  0  0  0  0
 43 39  1  0  0  0  0
M  END
>  <MODEL>
8

>  <REMARK>
 VINA RESULT:      -6.8      2.176      2.946
  Name = 
  10 active torsions:
  status: ('A' for Active; 'I' for Inactive)
    1  A    between atoms: C_1  and  C_34
    2  A    between atoms: C_1  and  N_35
    3  A    between atoms: C_2  and  N_7
    4  A    between atoms: C_2  and  C_13
    5  A    between atoms: C_3  and  N_4
    6  A    between atoms: C_3  and  C_12
    7  A    between atoms: N_7  and  C_17
    8  A    between atoms: N_11  and  C_14
    9  A    between atoms: C_12  and  C_17
   10  A    between atoms: N_19  and  C_37
                            x       y       z     vdW  Elec       q    Type
                         _______ _______ _______ _____ _____    ______ ____

>  <TORSDO>
F 10

$$$$
=
 OpenBabel11052420593D

 43 49  0  0  1  0  0  0  0  0999 V2000
  185.4350  177.8550  146.9560 C   0  0  0  0  0  0  0  0  0  0  0  0
  189.8780  176.6410  144.8610 C   0  0  0  0  0  0  0  0  0  0  0  0
  189.2490  175.4950  142.4050 C   0  0  0  0  0  0  0  0  0  0  0  0
  187.7940  177.5360  146.5220 C   0  0  0  0  0  0  0  0  0  0  0  0
  185.1280  177.2890  145.7150 C   0  0  0  0  0  3  0  0  0  0  0  0
  184.4180  178.2930  147.7900 O   0  0  0  0  0  1  0  0  0  0  0  0
  187.4910  176.9600  145.2650 C   0  0  0  0  0  0  0  0  0  0  0  0
  186.7670  177.9790  147.3580 C   0  0  0  0  0  3  0  0  0  0  0  0
  186.1500  176.8440  144.8730 C   0  0  0  0  0  3  0  0  0  0  0  0
  188.2640  175.9470  143.2240 N   0  0  0  0  0  0  0  0  0  0  0  0
  188.5340  176.5120  144.4350 C   0  0  0  0  0  0  0  0  0  0  0  0
  190.1570  177.2190  146.1090 C   0  0  0  0  0  3  0  0  0  0  0  0
  190.9080  176.1860  144.0180 C   0  0  0  0  0  0  0  0  0  0  0  0
  190.5860  175.6080  142.7890 C   0  0  0  0  0  3  0  0  0  0  0  0
  189.1220  177.6620  146.9330 C   0  0  0  0  0  3  0  0  0  0  0  0
  192.3480  176.2640  144.4150 C   0  0  0  0  0  2  0  0  0  0  0  0
  195.3160  176.2920  144.1760 C   0  0  0  0  0  2  0  0  0  0  0  0
  195.6310  175.2870  145.1980 N   0  0  0  0  0  0  0  0  0  0  0  0
  193.4640  174.1550  144.6840 C   0  0  0  0  0  2  0  0  0  0  0  0
  194.3160  175.7800  143.1310 C   0  0  0  0  0  2  0  0  0  0  0  0
  193.1090  175.2160  143.7390 N   0  0  0  0  0  0  0  0  0  0  0  0
  194.4440  174.6340  145.7630 C   0  0  0  0  0  2  0  0  0  0  0  0
  197.1570  173.4250  145.9040 C   0  0  0  0  0  1  0  0  0  0  0  0
  196.6770  174.3430  144.7840 C   0  0  0  0  0  2  0  0  0  0  0  0
  188.9030  174.8980  141.0890 C   0  0  0  0  0  2  0  0  0  0  0  0
  189.4320  173.5470  141.0080 N   0  0  0  0  0  2  0  0  0  0  0  0
  188.5240  172.6890  141.7530 C   0  0  0  0  0  2  0  0  0  0  0  0
  189.0360  172.2840  144.0370 F   0  0  0  0  0  0  0  0  0  0  0  0
  189.3050  171.8500  142.7530 C   0  0  2  0  0  3  0  0  0  0  0  0
  190.7950  171.9760  142.4860 C   0  0  0  0  0  2  0  0  0  0  0  0
  191.2950  170.7770  141.8200 N   0  0  0  0  0  0  0  0  0  0  0  0
  193.4510  170.5480  140.7210 C   0  0  2  0  0  3  0  0  0  0  0  0
  193.3180  172.0630  140.8680 C   0  0  2  0  0  3  0  0  0  0  0  0
  192.1830  170.0840  142.7460 C   0  0  0  0  0  3  0  0  0  0  0  0
  192.0840  171.1790  140.6540 C   0  0  2  0  0  0  0  0  0  0  0  0
  191.4380  171.0100  139.2870 C   0  0  0  0  0  1  0  0  0  0  0  0
  193.5350  169.9030  142.0830 C   0  0  0  0  0  3  0  0  0  0  0  0
  193.7210  172.7210  139.6320 N   0  0  2  0  0  0  0  0  0  0  0  0
  194.1850  174.9280  138.6950 C   0  0  0  0  0  3  0  0  0  0  0  0
  195.5860  173.0500  138.1050 C   0  0  0  0  0  2  0  0  0  0  0  0
  195.1100  174.4150  137.9530 N   0  0  0  0  0  0  0  0  0  0  0  0
  195.1410  172.4410  139.4340 C   0  0  0  0  0  2  0  0  0  0  0  0
  193.5950  174.1620  139.8500 C   0  0  0  0  0  2  0  0  0  0  0  0
  1  8  1  0  0  0  0
  1  6  1  0  0  0  0
  2 12  1  0  0  0  0
  3 14  2  0  0  0  0
  3 10  1  0  0  0  0
  4 15  1  0  0  0  0
  4  8  2  0  0  0  0
  5  1  2  0  0  0  0
  7  4  1  0  0  0  0
  9  7  2  0  0  0  0
  9  5  1  0  0  0  0
 10 11  2  0  0  0  0
 11  2  1  0  0  0  0
 11  7  1  0  0  0  0
 12 15  2  0  0  0  0
 13 16  1  0  0  0  0
 13  2  2  0  0  0  0
 14 13  1  0  0  0  0
 17 18  1  0  0  0  0
 18 22  1  0  0  0  0
 19 22  1  0  0  0  0
 20 21  1  0  0  0  0
 20 17  1  0  0  0  0
 21 16  1  0  0  0  0
 21 19  1  0  0  0  0
 24 18  1  0  0  0  0
 24 23  1  0  0  0  0
 25  3  1  0  0  0  0
 26 25  1  0  0  0  0
 26 27  1  0  0  0  0
 27 29  1  0  0  0  0
 29 28  1  1  0  0  0
 30 29  1  0  0  0  0
 31 30  1  0  0  0  0
 31 34  1  0  0  0  0
 32 33  1  0  0  0  0
 32 37  1  1  0  0  0
 33 38  1  6  0  0  0
 35 36  1  6  0  0  0
 35 32  1  0  0  0  0
 35 33  1  0  0  0  0
 35 31  1  0  0  0  0
 37 34  2  0  0  0  0
 38 42  1  1  0  0  0
 38 43  1  0  0  0  0
 39 43  1  0  0  0  0
 40 42  1  0  0  0  0
 41 40  1  0  0  0  0
 41 39  2  0  0  0  0
M  END
>  <MODEL>
9

>  <REMARK>
 VINA RESULT:      -6.7      2.723      5.896
  Name = 
  10 active torsions:
  status: ('A' for Active; 'I' for Inactive)
    1  A    between atoms: C_1  and  C_34
    2  A    between atoms: C_1  and  N_35
    3  A    between atoms: C_2  and  N_7
    4  A    between atoms: C_2  and  C_13
    5  A    between atoms: C_3  and  N_4
    6  A    between atoms: C_3  and  C_12
    7  A    between atoms: N_7  and  C_17
    8  A    between atoms: N_11  and  C_14
    9  A    between atoms: C_12  and  C_17
   10  A    between atoms: N_19  and  C_37
                            x       y       z     vdW  Elec       q    Type
                         _______ _______ _______ _____ _____    ______ ____

>  <TORSDO>
F 10

$$$$
