=
 OpenBabel11052419223D

 32 33  0  0  1  0  0  0  0  0999 V2000
  186.1450  178.3950  147.0640 C   0  0  0  0  0  0  0  0  0  0  0  0
  185.9100  179.6060  147.3130 O   0  0  0  0  0  0  0  0  0  0  0  0
  187.2740  176.3960  145.3790 C   0  0  0  0  0  3  0  0  0  0  0  0
  187.4410  177.8440  147.3100 N   0  0  0  0  0  2  0  0  0  0  0  0
  186.0360  176.7810  145.0390 C   0  0  0  0  0  0  0  0  0  0  0  0
  184.8920  177.3580  146.3080 S   0  0  0  0  0  0  0  0  0  0  0  0
  187.7680  176.5160  146.7950 C   0  0  2  0  0  3  0  0  0  0  0  0
  185.6170  176.7950  143.6720 N   0  0  0  0  0  2  0  0  0  0  0  0
  183.7890  178.3770  142.5960 O   0  0  0  0  0  0  0  0  0  0  0  0
  185.7880  179.4270  143.5420 O   0  0  0  0  0  0  0  0  0  0  0  0
  185.2750  178.2410  142.7760 S   0  0  0  0  0  0  0  0  0  0  0  0
  186.0660  178.1940  141.1770 C   0  0  0  0  0  2  0  0  0  0  0  0
  187.3710  177.4680  141.2420 C   0  0  0  0  0  0  0  0  0  0  0  0
  187.4630  176.3380  140.7890 O   0  0  0  0  0  0  0  0  0  0  0  0
  188.5740  178.1210  141.8470 C   0  0  0  0  0  2  0  0  0  0  0  0
  189.4070  177.1440  142.5420 N   0  0  0  0  0  2  0  0  0  0  0  0
  190.6270  177.4580  143.2210 C   0  0  0  0  0  0  0  0  0  0  0  0
  192.0650  176.8390  142.7350 S   0  0  0  0  0  0  0  0  0  0  0  0
  190.6000  178.3650  144.3160 N   0  0  0  0  0  1  0  0  0  0  0  0
  189.2730  176.3270  146.8330 C   0  0  0  0  0  2  0  0  0  0  0  0
  189.6740  174.9950  146.1890 C   0  0  0  0  0  2  0  0  0  0  0  0
  191.0850  174.9480  145.7790 N   0  0  0  0  0  0  0  0  0  0  0  0
  192.6940  172.2690  143.7780 C   0  0  0  0  0  1  0  0  0  0  0  0
  191.7670  173.4460  143.9910 C   0  0  1  0  0  3  0  0  0  0  0  0
  190.4480  172.9490  144.5410 C   0  0  0  0  0  2  0  0  0  0  0  0
  191.4690  173.5730  145.4750 C   0  0  2  0  0  3  0  0  0  0  0  0
  191.9180  175.4240  146.8790 C   0  0  0  0  0  2  0  0  0  0  0  0
  192.9720  176.3860  146.3560 C   0  0  0  0  0  2  0  0  0  0  0  0
  194.3470  175.7430  146.4120 C   0  0  0  0  0  2  0  0  0  0  0  0
  194.9390  175.6200  145.0210 C   0  0  0  0  0  2  0  0  0  0  0  0
  196.5260  173.9770  145.9660 C   0  0  0  0  0  1  0  0  0  0  0  0
  195.5370  174.2390  144.8510 C   0  0  0  0  0  2  0  0  0  0  0  0
  1  4  1  0  0  0  0
  1  2  2  0  0  0  0
  3  7  1  0  0  0  0
  5  3  2  0  0  0  0
  5  6  1  0  0  0  0
  6  1  1  0  0  0  0
  7 20  1  6  0  0  0
  7  4  1  0  0  0  0
  8  5  1  0  0  0  0
  9 11  2  0  0  0  0
 11 10  2  0  0  0  0
 11  8  1  0  0  0  0
 12 13  1  0  0  0  0
 12 11  1  0  0  0  0
 13 15  1  0  0  0  0
 14 13  2  0  0  0  0
 15 16  1  0  0  0  0
 16 17  1  0  0  0  0
 17 19  1  0  0  0  0
 18 17  2  0  0  0  0
 21 20  1  0  0  0  0
 22 21  1  0  0  0  0
 22 27  1  0  0  0  0
 24 23  1  1  0  0  0
 24 25  1  0  0  0  0
 24 26  1  0  0  0  0
 25 26  1  0  0  0  0
 26 22  1  6  0  0  0
 28 29  1  0  0  0  0
 28 27  1  0  0  0  0
 30 29  1  0  0  0  0
 32 30  1  0  0  0  0
 32 31  1  0  0  0  0
M  END
>  <MODEL>
1

>  <REMARK>
 VINA RESULT:      -5.6      0.000      0.000
  Name = 
  16 active torsions:
  status: ('A' for Active; 'I' for Inactive)
    1  A    between atoms: C_1  and  N_30
    2  A    between atoms: C_2  and  C_14
    3  A    between atoms: C_2  and  S_27
    4  A    between atoms: C_5  and  C_14
    5  A    between atoms: C_5  and  N_30
    6  A    between atoms: C_6  and  N_9
    7  A    between atoms: C_6  and  C_17
    8  A    between atoms: C_7  and  C_26
    9  A    between atoms: C_7  and  C_31
   10  A    between atoms: N_9  and  C_31
   11  A    between atoms: N_9  and  C_32
   12  A    between atoms: N_16  and  C_20
   13  A    between atoms: N_16  and  S_27
   14  A    between atoms: C_17  and  C_29
   15  A    between atoms: C_18  and  C_25
   16  A    between atoms: C_18  and  C_29
                            x       y       z     vdW  Elec       q    Type
                         _______ _______ _______ _____ _____    ______ ____

>  <TORSDO>
F 16

$$$$
=
 OpenBabel11052419223D

 32 33  0  0  1  0  0  0  0  0999 V2000
  186.1120  178.2740  147.0370 C   0  0  0  0  0  0  0  0  0  0  0  0
  185.6510  179.3980  147.3680 O   0  0  0  0  0  0  0  0  0  0  0  0
  187.6390  176.6600  145.2570 C   0  0  0  0  0  3  0  0  0  0  0  0
  187.4780  177.9480  147.2980 N   0  0  0  0  0  2  0  0  0  0  0  0
  186.3630  176.8420  144.8920 C   0  0  0  0  0  0  0  0  0  0  0  0
  185.0940  177.0950  146.1490 S   0  0  0  0  0  0  0  0  0  0  0  0
  188.0600  176.7490  146.6980 C   0  0  2  0  0  3  0  0  0  0  0  0
  185.9900  176.8950  143.5120 N   0  0  0  0  0  2  0  0  0  0  0  0
  186.0140  179.5330  143.3100 O   0  0  0  0  0  0  0  0  0  0  0  0
  187.6140  178.2730  141.9510 O   0  0  0  0  0  0  0  0  0  0  0  0
  186.2150  178.2850  142.4970 S   0  0  0  0  0  0  0  0  0  0  0  0
  185.0580  178.2660  141.1390 C   0  0  0  0  0  2  0  0  0  0  0  0
  183.6470  178.2610  141.6320 C   0  0  0  0  0  0  0  0  0  0  0  0
  183.4190  178.3620  142.8270 O   0  0  0  0  0  0  0  0  0  0  0  0
  182.5050  178.1480  140.6700 C   0  0  0  0  0  2  0  0  0  0  0  0
  181.2350  178.0240  141.3770 N   0  0  0  0  0  2  0  0  0  0  0  0
  180.1070  178.8810  141.1710 C   0  0  0  0  0  0  0  0  0  0  0  0
  178.5990  178.4450  141.6450 S   0  0  0  0  0  0  0  0  0  0  0  0
  180.3040  180.1600  140.5830 N   0  0  0  0  0  1  0  0  0  0  0  0
  189.5720  176.8320  146.7900 C   0  0  0  0  0  2  0  0  0  0  0  0
  190.1930  177.0510  145.4050 C   0  0  0  0  0  2  0  0  0  0  0  0
  191.5330  176.4620  145.2690 N   0  0  0  0  0  0  0  0  0  0  0  0
  192.5020  173.8990  142.7670 C   0  0  0  0  0  1  0  0  0  0  0  0
  192.0620  175.2770  143.2110 C   0  0  1  0  0  3  0  0  0  0  0  0
  190.5570  175.2940  143.3660 C   0  0  0  0  0  2  0  0  0  0  0  0
  191.4420  175.1710  144.5940 C   0  0  2  0  0  3  0  0  0  0  0  0
  192.0980  176.2470  146.5970 C   0  0  0  0  0  2  0  0  0  0  0  0
  193.2370  175.2440  146.5230 C   0  0  0  0  0  2  0  0  0  0  0  0
  194.5550  175.9580  146.2800 C   0  0  0  0  0  2  0  0  0  0  0  0
  195.4600  175.1270  145.3910 C   0  0  0  0  0  2  0  0  0  0  0  0
  196.3150  172.8430  145.7980 C   0  0  0  0  0  1  0  0  0  0  0  0
  195.0780  173.6660  145.5130 C   0  0  0  0  0  2  0  0  0  0  0  0
  1  4  1  0  0  0  0
  1  2  2  0  0  0  0
  3  7  1  0  0  0  0
  5  3  2  0  0  0  0
  5  6  1  0  0  0  0
  6  1  1  0  0  0  0
  7 20  1  6  0  0  0
  7  4  1  0  0  0  0
  8  5  1  0  0  0  0
 10 11  2  0  0  0  0
 11  9  2  0  0  0  0
 11  8  1  0  0  0  0
 12 13  1  0  0  0  0
 12 11  1  0  0  0  0
 13 14  2  0  0  0  0
 15 16  1  0  0  0  0
 15 13  1  0  0  0  0
 17 16  1  0  0  0  0
 17 18  2  0  0  0  0
 19 17  1  0  0  0  0
 21 20  1  0  0  0  0
 22 21  1  0  0  0  0
 22 27  1  0  0  0  0
 24 23  1  6  0  0  0
 24 25  1  0  0  0  0
 24 26  1  0  0  0  0
 25 26  1  0  0  0  0
 26 22  1  1  0  0  0
 28 27  1  0  0  0  0
 29 28  1  0  0  0  0
 30 32  1  0  0  0  0
 30 29  1  0  0  0  0
 32 31  1  0  0  0  0
M  END
>  <MODEL>
2

>  <REMARK>
 VINA RESULT:      -5.4      2.564      4.402
  Name = 
  16 active torsions:
  status: ('A' for Active; 'I' for Inactive)
    1  A    between atoms: C_1  and  N_30
    2  A    between atoms: C_2  and  C_14
    3  A    between atoms: C_2  and  S_27
    4  A    between atoms: C_5  and  C_14
    5  A    between atoms: C_5  and  N_30
    6  A    between atoms: C_6  and  N_9
    7  A    between atoms: C_6  and  C_17
    8  A    between atoms: C_7  and  C_26
    9  A    between atoms: C_7  and  C_31
   10  A    between atoms: N_9  and  C_31
   11  A    between atoms: N_9  and  C_32
   12  A    between atoms: N_16  and  C_20
   13  A    between atoms: N_16  and  S_27
   14  A    between atoms: C_17  and  C_29
   15  A    between atoms: C_18  and  C_25
   16  A    between atoms: C_18  and  C_29
                            x       y       z     vdW  Elec       q    Type
                         _______ _______ _______ _____ _____    ______ ____

>  <TORSDO>
F 16

$$$$
=
 OpenBabel11052419223D

 32 33  0  0  1  0  0  0  0  0999 V2000
  186.1630  178.2530  147.1130 C   0  0  0  0  0  0  0  0  0  0  0  0
  185.7230  179.3710  147.4880 O   0  0  0  0  0  0  0  0  0  0  0  0
  187.4930  176.6480  145.1740 C   0  0  0  0  0  3  0  0  0  0  0  0
  187.5580  177.9560  147.2080 N   0  0  0  0  0  2  0  0  0  0  0  0
  186.1780  176.8010  144.9670 C   0  0  0  0  0  0  0  0  0  0  0  0
  185.0680  177.0450  146.3670 S   0  0  0  0  0  0  0  0  0  0  0  0
  188.0860  176.7610  146.5520 C   0  0  2  0  0  3  0  0  0  0  0  0
  185.6380  176.8310  143.6420 N   0  0  0  0  0  2  0  0  0  0  0  0
  183.6260  178.2920  142.7390 O   0  0  0  0  0  0  0  0  0  0  0  0
  185.5790  179.4710  143.6280 O   0  0  0  0  0  0  0  0  0  0  0  0
  185.1250  178.2790  142.8350 S   0  0  0  0  0  0  0  0  0  0  0  0
  185.8270  178.3680  141.1960 C   0  0  0  0  0  2  0  0  0  0  0  0
  187.1610  177.6960  141.1440 C   0  0  0  0  0  0  0  0  0  0  0  0
  188.1050  178.1690  141.7550 O   0  0  0  0  0  0  0  0  0  0  0  0
  187.3470  176.4360  140.3570 C   0  0  0  0  0  2  0  0  0  0  0  0
  188.1410  175.4650  141.1030 N   0  0  0  0  0  2  0  0  0  0  0  0
  188.5150  174.1740  140.6090 C   0  0  0  0  0  0  0  0  0  0  0  0
  188.6090  173.8640  139.0030 S   0  0  0  0  0  0  0  0  0  0  0  0
  188.8570  173.1490  141.5330 N   0  0  0  0  0  1  0  0  0  0  0  0
  189.5960  176.8740  146.4560 C   0  0  0  0  0  2  0  0  0  0  0  0
  190.2740  175.6070  146.9930 C   0  0  0  0  0  2  0  0  0  0  0  0
  191.3460  175.1080  146.1200 N   0  0  0  0  0  0  0  0  0  0  0  0
  194.6940  176.5040  145.3390 C   0  0  0  0  0  1  0  0  0  0  0  0
  193.7100  175.6810  146.1420 C   0  0  1  0  0  3  0  0  0  0  0  0
  193.0030  176.5770  147.1350 C   0  0  0  0  0  2  0  0  0  0  0  0
  192.3040  176.1750  145.8490 C   0  0  2  0  0  3  0  0  0  0  0  0
  190.7680  174.6770  144.8510 C   0  0  0  0  0  2  0  0  0  0  0  0
  189.7960  173.5320  145.0830 C   0  0  0  0  0  2  0  0  0  0  0  0
  190.4110  172.2180  144.6360 C   0  0  0  0  0  2  0  0  0  0  0  0
  191.6690  172.4630  143.8240 C   0  0  0  0  0  2  0  0  0  0  0  0
  194.0550  172.4470  144.4690 C   0  0  0  0  0  1  0  0  0  0  0  0
  192.7950  171.6140  144.3760 C   0  0  0  0  0  2  0  0  0  0  0  0
  1  4  1  0  0  0  0
  1  2  2  0  0  0  0
  3  7  1  0  0  0  0
  5  3  2  0  0  0  0
  5  6  1  0  0  0  0
  6  1  1  0  0  0  0
  7 20  1  6  0  0  0
  7  4  1  0  0  0  0
  8  5  1  0  0  0  0
  9 11  2  0  0  0  0
 11 10  2  0  0  0  0
 11  8  1  0  0  0  0
 12 11  1  0  0  0  0
 13 12  1  0  0  0  0
 13 14  2  0  0  0  0
 15 16  1  0  0  0  0
 15 13  1  0  0  0  0
 17 16  1  0  0  0  0
 17 19  1  0  0  0  0
 18 17  2  0  0  0  0
 20 21  1  0  0  0  0
 22 21  1  0  0  0  0
 24 23  1  6  0  0  0
 24 25  1  0  0  0  0
 26 22  1  1  0  0  0
 26 24  1  0  0  0  0
 26 25  1  0  0  0  0
 27 28  1  0  0  0  0
 27 22  1  0  0  0  0
 29 28  1  0  0  0  0
 30 32  1  0  0  0  0
 30 29  1  0  0  0  0
 32 31  1  0  0  0  0
M  END
>  <MODEL>
3

>  <REMARK>
 VINA RESULT:      -5.4      1.773      3.020
  Name = 
  16 active torsions:
  status: ('A' for Active; 'I' for Inactive)
    1  A    between atoms: C_1  and  N_30
    2  A    between atoms: C_2  and  C_14
    3  A    between atoms: C_2  and  S_27
    4  A    between atoms: C_5  and  C_14
    5  A    between atoms: C_5  and  N_30
    6  A    between atoms: C_6  and  N_9
    7  A    between atoms: C_6  and  C_17
    8  A    between atoms: C_7  and  C_26
    9  A    between atoms: C_7  and  C_31
   10  A    between atoms: N_9  and  C_31
   11  A    between atoms: N_9  and  C_32
   12  A    between atoms: N_16  and  C_20
   13  A    between atoms: N_16  and  S_27
   14  A    between atoms: C_17  and  C_29
   15  A    between atoms: C_18  and  C_25
   16  A    between atoms: C_18  and  C_29
                            x       y       z     vdW  Elec       q    Type
                         _______ _______ _______ _____ _____    ______ ____

>  <TORSDO>
F 16

$$$$
=
 OpenBabel11052419223D

 32 33  0  0  1  0  0  0  0  0999 V2000
  189.4510  174.2340  143.3030 C   0  0  0  0  0  0  0  0  0  0  0  0
  189.6870  173.7530  142.1650 O   0  0  0  0  0  0  0  0  0  0  0  0
  190.1150  176.0330  145.4090 C   0  0  0  0  0  3  0  0  0  0  0  0
  188.8200  175.5100  143.4330 N   0  0  0  0  0  2  0  0  0  0  0  0
  190.7640  174.8620  145.4480 C   0  0  0  0  0  0  0  0  0  0  0  0
  189.9840  173.3770  144.7860 S   0  0  0  0  0  0  0  0  0  0  0  0
  188.7730  176.1610  144.7420 C   0  0  2  0  0  3  0  0  0  0  0  0
  192.0970  174.7730  145.9590 N   0  0  0  0  0  2  0  0  0  0  0  0
  193.9570  176.3550  144.9400 O   0  0  0  0  0  0  0  0  0  0  0  0
  194.6210  174.0900  145.5900 O   0  0  0  0  0  0  0  0  0  0  0  0
  193.5240  174.9170  144.9820 S   0  0  0  0  0  0  0  0  0  0  0  0
  193.2110  174.3410  143.3220 C   0  0  0  0  0  2  0  0  0  0  0  0
  193.1090  175.4850  142.3650 C   0  0  0  0  0  0  0  0  0  0  0  0
  192.2070  176.2990  142.4820 O   0  0  0  0  0  0  0  0  0  0  0  0
  194.1160  175.6520  141.2700 C   0  0  0  0  0  2  0  0  0  0  0  0
  195.2200  176.5040  141.6980 N   0  0  0  0  0  2  0  0  0  0  0  0
  196.3590  176.0460  142.4340 C   0  0  0  0  0  0  0  0  0  0  0  0
  196.9120  174.5090  142.2920 S   0  0  0  0  0  0  0  0  0  0  0  0
  197.0570  176.9570  143.2740 N   0  0  0  0  0  1  0  0  0  0  0  0
  188.4270  177.6260  144.5540 C   0  0  0  0  0  2  0  0  0  0  0  0
  187.7630  177.8620  143.1920 C   0  0  0  0  0  2  0  0  0  0  0  0
  186.3090  178.0600  143.2810 N   0  0  0  0  0  0  0  0  0  0  0  0
  183.9260  178.4900  140.4690 C   0  0  0  0  0  1  0  0  0  0  0  0
  184.8570  177.6990  141.3620 C   0  0  1  0  0  3  0  0  0  0  0  0
  186.2750  177.8420  140.8550 C   0  0  0  0  0  2  0  0  0  0  0  0
  185.8140  178.6610  142.0460 C   0  0  2  0  0  3  0  0  0  0  0  0
  186.0170  178.9710  144.3830 C   0  0  0  0  0  2  0  0  0  0  0  0
  184.5690  178.8150  144.8180 C   0  0  0  0  0  2  0  0  0  0  0  0
  184.4990  178.2780  146.2370 C   0  0  0  0  0  2  0  0  0  0  0  0
  185.2190  176.9470  146.3440 C   0  0  0  0  0  2  0  0  0  0  0  0
  186.4340  178.4240  147.9100 C   0  0  0  0  0  1  0  0  0  0  0  0
  186.1720  176.9860  147.5200 C   0  0  0  0  0  2  0  0  0  0  0  0
  1  4  1  0  0  0  0
  1  6  1  0  0  0  0
  2  1  2  0  0  0  0
  3  5  2  0  0  0  0
  4  7  1  0  0  0  0
  5  8  1  0  0  0  0
  6  5  1  0  0  0  0
  7 20  1  6  0  0  0
  7  3  1  0  0  0  0
  9 11  2  0  0  0  0
 11 10  2  0  0  0  0
 11  8  1  0  0  0  0
 12 11  1  0  0  0  0
 13 14  2  0  0  0  0
 13 12  1  0  0  0  0
 15 16  1  0  0  0  0
 15 13  1  0  0  0  0
 16 17  1  0  0  0  0
 17 19  1  0  0  0  0
 18 17  2  0  0  0  0
 21 22  1  0  0  0  0
 21 20  1  0  0  0  0
 22 27  1  0  0  0  0
 24 23  1  6  0  0  0
 24 26  1  0  0  0  0
 25 24  1  0  0  0  0
 25 26  1  0  0  0  0
 26 22  1  1  0  0  0
 27 28  1  0  0  0  0
 28 29  1  0  0  0  0
 29 30  1  0  0  0  0
 30 32  1  0  0  0  0
 32 31  1  0  0  0  0
M  END
>  <MODEL>
4

>  <REMARK>
 VINA RESULT:      -5.3      3.668      7.605
  Name = 
  16 active torsions:
  status: ('A' for Active; 'I' for Inactive)
    1  A    between atoms: C_1  and  N_30
    2  A    between atoms: C_2  and  C_14
    3  A    between atoms: C_2  and  S_27
    4  A    between atoms: C_5  and  C_14
    5  A    between atoms: C_5  and  N_30
    6  A    between atoms: C_6  and  N_9
    7  A    between atoms: C_6  and  C_17
    8  A    between atoms: C_7  and  C_26
    9  A    between atoms: C_7  and  C_31
   10  A    between atoms: N_9  and  C_31
   11  A    between atoms: N_9  and  C_32
   12  A    between atoms: N_16  and  C_20
   13  A    between atoms: N_16  and  S_27
   14  A    between atoms: C_17  and  C_29
   15  A    between atoms: C_18  and  C_25
   16  A    between atoms: C_18  and  C_29
                            x       y       z     vdW  Elec       q    Type
                         _______ _______ _______ _____ _____    ______ ____

>  <TORSDO>
F 16

$$$$
=
 OpenBabel11052419223D

 32 33  0  0  1  0  0  0  0  0999 V2000
  190.6840  173.0140  144.3310 C   0  0  0  0  0  0  0  0  0  0  0  0
  190.2340  172.5450  143.2540 O   0  0  0  0  0  0  0  0  0  0  0  0
  191.3720  175.2530  145.9520 C   0  0  0  0  0  3  0  0  0  0  0  0
  189.7940  173.5290  145.3240 N   0  0  0  0  0  2  0  0  0  0  0  0
  192.3280  174.8660  145.0970 C   0  0  0  0  0  0  0  0  0  0  0  0
  192.4520  173.1350  144.6070 S   0  0  0  0  0  0  0  0  0  0  0  0
  190.3340  174.2860  146.4520 C   0  0  2  0  0  3  0  0  0  0  0  0
  193.2270  175.8150  144.5170 N   0  0  0  0  0  2  0  0  0  0  0  0
  194.6440  177.4850  146.0020 O   0  0  0  0  0  0  0  0  0  0  0  0
  195.2320  175.1090  146.0830 O   0  0  0  0  0  0  0  0  0  0  0  0
  194.7730  176.2270  145.1900 S   0  0  0  0  0  0  0  0  0  0  0  0
  195.9770  176.4740  143.8970 C   0  0  0  0  0  2  0  0  0  0  0  0
  196.7040  175.2050  143.5880 C   0  0  0  0  0  0  0  0  0  0  0  0
  197.4920  174.7420  144.3960 O   0  0  0  0  0  0  0  0  0  0  0  0
  196.4620  174.4860  142.2970 C   0  0  0  0  0  2  0  0  0  0  0  0
  195.0460  174.1750  142.1270 N   0  0  0  0  0  2  0  0  0  0  0  0
  194.2140  174.7230  141.0990 C   0  0  0  0  0  0  0  0  0  0  0  0
  192.6330  174.3120  140.9630 S   0  0  0  0  0  0  0  0  0  0  0  0
  194.7580  175.6830  140.2030 N   0  0  0  0  0  1  0  0  0  0  0  0
  189.2050  175.0440  147.1260 C   0  0  0  0  0  2  0  0  0  0  0  0
  189.0040  176.4180  146.4750 C   0  0  0  0  0  2  0  0  0  0  0  0
  187.8170  176.4830  145.6110 N   0  0  0  0  0  0  0  0  0  0  0  0
  187.5870  178.1730  142.3150 C   0  0  0  0  0  1  0  0  0  0  0  0
  188.0530  177.0930  143.2670 C   0  0  1  0  0  3  0  0  0  0  0  0
  189.2860  177.5720  144.0010 C   0  0  0  0  0  2  0  0  0  0  0  0
  187.9340  177.6100  144.6900 C   0  0  2  0  0  3  0  0  0  0  0  0
  186.6330  176.6880  146.4390 C   0  0  0  0  0  2  0  0  0  0  0  0
  186.7550  177.9910  147.2110 C   0  0  0  0  0  2  0  0  0  0  0  0
  185.4230  178.7200  147.2320 C   0  0  0  0  0  2  0  0  0  0  0  0
  184.4130  178.0180  146.3450 C   0  0  0  0  0  2  0  0  0  0  0  0
  184.7940  179.5090  144.4100 C   0  0  0  0  0  1  0  0  0  0  0  0
  183.7720  179.0290  145.4170 C   0  0  0  0  0  2  0  0  0  0  0  0
  1  6  1  0  0  0  0
  1  4  1  0  0  0  0
  2  1  2  0  0  0  0
  3  7  1  0  0  0  0
  4  7  1  0  0  0  0
  5  3  2  0  0  0  0
  6  5  1  0  0  0  0
  7 20  1  6  0  0  0
  8  5  1  0  0  0  0
  8 11  1  0  0  0  0
 11  9  2  0  0  0  0
 11 10  2  0  0  0  0
 12 11  1  0  0  0  0
 13 12  1  0  0  0  0
 13 14  2  0  0  0  0
 15 13  1  0  0  0  0
 16 15  1  0  0  0  0
 17 16  1  0  0  0  0
 18 17  2  0  0  0  0
 19 17  1  0  0  0  0
 21 20  1  0  0  0  0
 22 27  1  0  0  0  0
 22 21  1  0  0  0  0
 24 23  1  6  0  0  0
 24 25  1  0  0  0  0
 24 26  1  0  0  0  0
 25 26  1  0  0  0  0
 26 22  1  1  0  0  0
 27 28  1  0  0  0  0
 28 29  1  0  0  0  0
 30 29  1  0  0  0  0
 31 32  1  0  0  0  0
 32 30  1  0  0  0  0
M  END
>  <MODEL>
5

>  <REMARK>
 VINA RESULT:      -5.2      3.984      7.930
  Name = 
  16 active torsions:
  status: ('A' for Active; 'I' for Inactive)
    1  A    between atoms: C_1  and  N_30
    2  A    between atoms: C_2  and  C_14
    3  A    between atoms: C_2  and  S_27
    4  A    between atoms: C_5  and  C_14
    5  A    between atoms: C_5  and  N_30
    6  A    between atoms: C_6  and  N_9
    7  A    between atoms: C_6  and  C_17
    8  A    between atoms: C_7  and  C_26
    9  A    between atoms: C_7  and  C_31
   10  A    between atoms: N_9  and  C_31
   11  A    between atoms: N_9  and  C_32
   12  A    between atoms: N_16  and  C_20
   13  A    between atoms: N_16  and  S_27
   14  A    between atoms: C_17  and  C_29
   15  A    between atoms: C_18  and  C_25
   16  A    between atoms: C_18  and  C_29
                            x       y       z     vdW  Elec       q    Type
                         _______ _______ _______ _____ _____    ______ ____

>  <TORSDO>
F 16

$$$$
=
 OpenBabel11052419223D

 32 33  0  0  1  0  0  0  0  0999 V2000
  186.2980  178.2730  147.4080 C   0  0  0  0  0  0  0  0  0  0  0  0
  185.7300  179.2870  147.8910 O   0  0  0  0  0  0  0  0  0  0  0  0
  187.5990  176.9760  145.2320 C   0  0  0  0  0  3  0  0  0  0  0  0
  187.7220  178.2250  147.3000 N   0  0  0  0  0  2  0  0  0  0  0  0
  186.2620  176.9000  145.2100 C   0  0  0  0  0  0  0  0  0  0  0  0
  185.3330  176.9090  146.7560 S   0  0  0  0  0  0  0  0  0  0  0  0
  188.3500  177.1580  146.5220 C   0  0  2  0  0  3  0  0  0  0  0  0
  185.5450  176.8660  143.9730 N   0  0  0  0  0  2  0  0  0  0  0  0
  184.1030  177.9840  142.0560 O   0  0  0  0  0  0  0  0  0  0  0  0
  184.9170  179.4290  143.8570 O   0  0  0  0  0  0  0  0  0  0  0  0
  185.2570  178.2590  142.9780 S   0  0  0  0  0  0  0  0  0  0  0  0
  186.7060  178.6550  142.0150 C   0  0  0  0  0  2  0  0  0  0  0  0
  187.1140  177.5020  141.1560 C   0  0  0  0  0  0  0  0  0  0  0  0
  186.6160  177.3580  140.0520 O   0  0  0  0  0  0  0  0  0  0  0  0
  188.1440  176.5250  141.6340 C   0  0  0  0  0  2  0  0  0  0  0  0
  188.0180  175.2480  140.9390 N   0  0  0  0  0  2  0  0  0  0  0  0
  188.8080  174.0890  141.2240 C   0  0  0  0  0  0  0  0  0  0  0  0
  190.4450  174.1540  141.2620 S   0  0  0  0  0  0  0  0  0  0  0  0
  188.1580  172.8620  141.5280 N   0  0  0  0  0  1  0  0  0  0  0  0
  189.7900  177.5390  146.2320 C   0  0  0  0  0  2  0  0  0  0  0  0
  190.7470  176.4120  146.6400 C   0  0  0  0  0  2  0  0  0  0  0  0
  191.2680  175.6490  145.4970 N   0  0  0  0  0  0  0  0  0  0  0  0
  190.0800  172.2450  144.6210 C   0  0  0  0  0  1  0  0  0  0  0  0
  189.9170  173.7310  144.8530 C   0  0  1  0  0  3  0  0  0  0  0  0
  189.6940  173.9850  146.3270 C   0  0  0  0  0  2  0  0  0  0  0  0
  191.0650  174.2210  145.7190 C   0  0  2  0  0  3  0  0  0  0  0  0
  192.7010  175.8950  145.3720 C   0  0  0  0  0  2  0  0  0  0  0  0
  193.4830  174.7520  145.9990 C   0  0  0  0  0  2  0  0  0  0  0  0
  194.7250  174.4500  145.1790 C   0  0  0  0  0  2  0  0  0  0  0  0
  195.9630  174.4680  146.0540 C   0  0  0  0  0  2  0  0  0  0  0  0
  196.4300  172.5400  144.5790 C   0  0  0  0  0  1  0  0  0  0  0  0
  196.6710  173.1330  145.9500 C   0  0  0  0  0  2  0  0  0  0  0  0
  1  2  2  0  0  0  0
  3  7  1  0  0  0  0
  4  1  1  0  0  0  0
  5  3  2  0  0  0  0
  5  6  1  0  0  0  0
  6  1  1  0  0  0  0
  7 20  1  6  0  0  0
  7  4  1  0  0  0  0
  8  5  1  0  0  0  0
  9 11  2  0  0  0  0
 11 10  2  0  0  0  0
 11  8  1  0  0  0  0
 12 11  1  0  0  0  0
 13 15  1  0  0  0  0
 13 12  1  0  0  0  0
 14 13  2  0  0  0  0
 16 17  1  0  0  0  0
 16 15  1  0  0  0  0
 17 18  2  0  0  0  0
 17 19  1  0  0  0  0
 20 21  1  0  0  0  0
 22 21  1  0  0  0  0
 24 23  1  1  0  0  0
 24 26  1  0  0  0  0
 24 25  1  0  0  0  0
 26 22  1  6  0  0  0
 26 25  1  0  0  0  0
 27 22  1  0  0  0  0
 27 28  1  0  0  0  0
 29 28  1  0  0  0  0
 29 30  1  0  0  0  0
 31 32  1  0  0  0  0
 32 30  1  0  0  0  0
M  END
>  <MODEL>
6

>  <REMARK>
 VINA RESULT:      -5.2      1.596      2.074
  Name = 
  16 active torsions:
  status: ('A' for Active; 'I' for Inactive)
    1  A    between atoms: C_1  and  N_30
    2  A    between atoms: C_2  and  C_14
    3  A    between atoms: C_2  and  S_27
    4  A    between atoms: C_5  and  C_14
    5  A    between atoms: C_5  and  N_30
    6  A    between atoms: C_6  and  N_9
    7  A    between atoms: C_6  and  C_17
    8  A    between atoms: C_7  and  C_26
    9  A    between atoms: C_7  and  C_31
   10  A    between atoms: N_9  and  C_31
   11  A    between atoms: N_9  and  C_32
   12  A    between atoms: N_16  and  C_20
   13  A    between atoms: N_16  and  S_27
   14  A    between atoms: C_17  and  C_29
   15  A    between atoms: C_18  and  C_25
   16  A    between atoms: C_18  and  C_29
                            x       y       z     vdW  Elec       q    Type
                         _______ _______ _______ _____ _____    ______ ____

>  <TORSDO>
F 16

$$$$
=
 OpenBabel11052419223D

 32 33  0  0  1  0  0  0  0  0999 V2000
  189.8350  173.4970  139.8190 C   0  0  0  0  0  0  0  0  0  0  0  0
  190.0830  173.7920  138.6210 O   0  0  0  0  0  0  0  0  0  0  0  0
  189.8540  174.1800  142.5830 C   0  0  0  0  0  3  0  0  0  0  0  0
  188.6820  174.0330  140.4720 N   0  0  0  0  0  2  0  0  0  0  0  0
  190.9990  173.6520  142.1290 C   0  0  0  0  0  0  0  0  0  0  0  0
  190.9690  172.4760  140.7620 S   0  0  0  0  0  0  0  0  0  0  0  0
  188.5380  173.8810  141.9190 C   0  0  2  0  0  3  0  0  0  0  0  0
  192.2610  174.0450  142.6750 N   0  0  0  0  0  2  0  0  0  0  0  0
  193.1930  174.9260  140.3610 O   0  0  0  0  0  0  0  0  0  0  0  0
  193.2100  176.4740  142.2580 O   0  0  0  0  0  0  0  0  0  0  0  0
  193.4110  175.0440  141.8430 S   0  0  0  0  0  0  0  0  0  0  0  0
  195.0780  174.5490  142.2400 C   0  0  0  0  0  2  0  0  0  0  0  0
  195.9550  175.7390  142.4630 C   0  0  0  0  0  0  0  0  0  0  0  0
  196.5560  176.2380  141.5260 O   0  0  0  0  0  0  0  0  0  0  0  0
  196.0910  176.3380  143.8290 C   0  0  0  0  0  2  0  0  0  0  0  0
  195.7950  175.3540  144.8650 N   0  0  0  0  0  2  0  0  0  0  0  0
  194.6150  175.3600  145.6750 C   0  0  0  0  0  0  0  0  0  0  0  0
  194.0940  176.7220  146.4220 S   0  0  0  0  0  0  0  0  0  0  0  0
  193.8490  174.1680  145.7970 N   0  0  0  0  0  1  0  0  0  0  0  0
  187.4790  174.8470  142.4150 C   0  0  0  0  0  2  0  0  0  0  0  0
  187.6380  176.2210  141.7540 C   0  0  0  0  0  2  0  0  0  0  0  0
  187.8640  177.3080  142.7180 N   0  0  0  0  0  0  0  0  0  0  0  0
  185.5300  179.8420  144.0950 C   0  0  0  0  0  1  0  0  0  0  0  0
  186.2110  178.4920  144.0530 C   0  0  1  0  0  3  0  0  0  0  0  0
  185.4730  177.5900  143.0880 C   0  0  0  0  0  2  0  0  0  0  0  0
  186.7630  178.2640  142.6570 C   0  0  2  0  0  3  0  0  0  0  0  0
  189.0980  178.0060  142.3700 C   0  0  0  0  0  2  0  0  0  0  0  0
  190.1840  177.6800  143.3810 C   0  0  0  0  0  2  0  0  0  0  0  0
  189.6040  177.6340  144.7840 C   0  0  0  0  0  2  0  0  0  0  0  0
  190.1180  176.4220  145.5380 C   0  0  0  0  0  2  0  0  0  0  0  0
  187.8540  176.3720  146.5300 C   0  0  0  0  0  1  0  0  0  0  0  0
  188.9510  175.5330  145.9120 C   0  0  0  0  0  2  0  0  0  0  0  0
  1  4  1  0  0  0  0
  1  6  1  0  0  0  0
  2  1  2  0  0  0  0
  4  7  1  0  0  0  0
  5  3  2  0  0  0  0
  5  8  1  0  0  0  0
  6  5  1  0  0  0  0
  7 20  1  1  0  0  0
  7  3  1  0  0  0  0
  9 11  2  0  0  0  0
 11 12  1  0  0  0  0
 11 10  2  0  0  0  0
 11  8  1  0  0  0  0
 12 13  1  0  0  0  0
 13 15  1  0  0  0  0
 14 13  2  0  0  0  0
 15 16  1  0  0  0  0
 16 17  1  0  0  0  0
 17 19  1  0  0  0  0
 17 18  2  0  0  0  0
 21 20  1  0  0  0  0
 21 22  1  0  0  0  0
 24 23  1  6  0  0  0
 25 24  1  0  0  0  0
 26 22  1  1  0  0  0
 26 25  1  0  0  0  0
 26 24  1  0  0  0  0
 27 22  1  0  0  0  0
 27 28  1  0  0  0  0
 28 29  1  0  0  0  0
 29 30  1  0  0  0  0
 30 32  1  0  0  0  0
 32 31  1  0  0  0  0
M  END
>  <MODEL>
7

>  <REMARK>
 VINA RESULT:      -5.1      4.058      7.468
  Name = 
  16 active torsions:
  status: ('A' for Active; 'I' for Inactive)
    1  A    between atoms: C_1  and  N_30
    2  A    between atoms: C_2  and  C_14
    3  A    between atoms: C_2  and  S_27
    4  A    between atoms: C_5  and  C_14
    5  A    between atoms: C_5  and  N_30
    6  A    between atoms: C_6  and  N_9
    7  A    between atoms: C_6  and  C_17
    8  A    between atoms: C_7  and  C_26
    9  A    between atoms: C_7  and  C_31
   10  A    between atoms: N_9  and  C_31
   11  A    between atoms: N_9  and  C_32
   12  A    between atoms: N_16  and  C_20
   13  A    between atoms: N_16  and  S_27
   14  A    between atoms: C_17  and  C_29
   15  A    between atoms: C_18  and  C_25
   16  A    between atoms: C_18  and  C_29
                            x       y       z     vdW  Elec       q    Type
                         _______ _______ _______ _____ _____    ______ ____

>  <TORSDO>
F 16

$$$$
=
 OpenBabel11052419223D

 32 33  0  0  1  0  0  0  0  0999 V2000
  186.0980  178.4560  146.9610 C   0  0  0  0  0  0  0  0  0  0  0  0
  185.9300  179.6800  147.2020 O   0  0  0  0  0  0  0  0  0  0  0  0
  187.1770  176.3880  145.3280 C   0  0  0  0  0  3  0  0  0  0  0  0
  187.3420  177.8230  147.2690 N   0  0  0  0  0  2  0  0  0  0  0  0
  185.9860  176.8520  144.9290 C   0  0  0  0  0  0  0  0  0  0  0  0
  184.8200  177.5020  146.1420 S   0  0  0  0  0  0  0  0  0  0  0  0
  187.6090  176.4760  146.7670 C   0  0  2  0  0  3  0  0  0  0  0  0
  185.6360  176.8930  143.5430 N   0  0  0  0  0  2  0  0  0  0  0  0
  185.9380  179.5060  143.2610 O   0  0  0  0  0  0  0  0  0  0  0  0
  187.3930  178.0430  141.9420 O   0  0  0  0  0  0  0  0  0  0  0  0
  186.0040  178.2200  142.4870 S   0  0  0  0  0  0  0  0  0  0  0  0
  184.8490  178.2830  141.1280 C   0  0  0  0  0  2  0  0  0  0  0  0
  183.4380  178.2990  141.6210 C   0  0  0  0  0  0  0  0  0  0  0  0
  183.2080  178.4960  142.8030 O   0  0  0  0  0  0  0  0  0  0  0  0
  182.2990  178.0910  140.6720 C   0  0  0  0  0  2  0  0  0  0  0  0
  181.0380  177.9420  141.3920 N   0  0  0  0  0  2  0  0  0  0  0  0
  179.7740  178.4160  140.9160 C   0  0  0  0  0  0  0  0  0  0  0  0
  179.0830  177.8070  139.5600 S   0  0  0  0  0  0  0  0  0  0  0  0
  179.0770  179.4050  141.6630 N   0  0  0  0  0  1  0  0  0  0  0  0
  189.0950  176.1900  146.8780 C   0  0  0  0  0  2  0  0  0  0  0  0
  189.9060  177.1680  146.0200 C   0  0  0  0  0  2  0  0  0  0  0  0
  190.8450  176.5000  145.1070 N   0  0  0  0  0  0  0  0  0  0  0  0
  194.5260  176.0380  145.0710 C   0  0  0  0  0  1  0  0  0  0  0  0
  193.0930  175.5770  145.2220 C   0  0  1  0  0  3  0  0  0  0  0  0
  192.6270  175.8500  146.6350 C   0  0  0  0  0  2  0  0  0  0  0  0
  192.2180  176.7850  145.5120 C   0  0  2  0  0  3  0  0  0  0  0  0
  190.6470  177.0170  143.7570 C   0  0  0  0  0  2  0  0  0  0  0  0
  190.5320  175.8660  142.7700 C   0  0  0  0  0  2  0  0  0  0  0  0
  189.3250  175.0060  143.1000 C   0  0  0  0  0  2  0  0  0  0  0  0
  189.7060  173.5390  143.1410 C   0  0  0  0  0  2  0  0  0  0  0  0
  191.3530  172.3910  144.5850 C   0  0  0  0  0  1  0  0  0  0  0  0
  190.0430  173.1480  144.5650 C   0  0  0  0  0  2  0  0  0  0  0  0
  1  2  2  0  0  0  0
  1  4  1  0  0  0  0
  3  7  1  0  0  0  0
  5  3  2  0  0  0  0
  5  6  1  0  0  0  0
  6  1  1  0  0  0  0
  7 20  1  6  0  0  0
  7  4  1  0  0  0  0
  8  5  1  0  0  0  0
 10 11  2  0  0  0  0
 11  9  2  0  0  0  0
 11  8  1  0  0  0  0
 12 13  1  0  0  0  0
 12 11  1  0  0  0  0
 13 14  2  0  0  0  0
 15 16  1  0  0  0  0
 15 13  1  0  0  0  0
 17 16  1  0  0  0  0
 17 19  1  0  0  0  0
 18 17  2  0  0  0  0
 21 20  1  0  0  0  0
 22 21  1  0  0  0  0
 24 23  1  1  0  0  0
 24 26  1  0  0  0  0
 24 25  1  0  0  0  0
 26 22  1  6  0  0  0
 26 25  1  0  0  0  0
 27 22  1  0  0  0  0
 28 29  1  0  0  0  0
 28 27  1  0  0  0  0
 29 30  1  0  0  0  0
 30 32  1  0  0  0  0
 32 31  1  0  0  0  0
M  END
>  <MODEL>
8

>  <REMARK>
 VINA RESULT:      -5.1      2.635      5.144
  Name = 
  16 active torsions:
  status: ('A' for Active; 'I' for Inactive)
    1  A    between atoms: C_1  and  N_30
    2  A    between atoms: C_2  and  C_14
    3  A    between atoms: C_2  and  S_27
    4  A    between atoms: C_5  and  C_14
    5  A    between atoms: C_5  and  N_30
    6  A    between atoms: C_6  and  N_9
    7  A    between atoms: C_6  and  C_17
    8  A    between atoms: C_7  and  C_26
    9  A    between atoms: C_7  and  C_31
   10  A    between atoms: N_9  and  C_31
   11  A    between atoms: N_9  and  C_32
   12  A    between atoms: N_16  and  C_20
   13  A    between atoms: N_16  and  S_27
   14  A    between atoms: C_17  and  C_29
   15  A    between atoms: C_18  and  C_25
   16  A    between atoms: C_18  and  C_29
                            x       y       z     vdW  Elec       q    Type
                         _______ _______ _______ _____ _____    ______ ____

>  <TORSDO>
F 16

$$$$
=
 OpenBabel11052419223D

 32 33  0  0  1  0  0  0  0  0999 V2000
  192.4490  176.0480  146.5600 C   0  0  0  0  0  0  0  0  0  0  0  0
  192.0470  175.2940  147.4840 O   0  0  0  0  0  0  0  0  0  0  0  0
  193.2580  176.4230  143.8560 C   0  0  0  0  0  3  0  0  0  0  0  0
  191.5410  176.5100  145.5570 N   0  0  0  0  0  2  0  0  0  0  0  0
  194.2340  176.0240  144.6820 C   0  0  0  0  0  0  0  0  0  0  0  0
  194.1830  176.4840  146.4250 S   0  0  0  0  0  0  0  0  0  0  0  0
  192.0630  177.1790  144.3660 C   0  0  2  0  0  3  0  0  0  0  0  0
  195.2980  175.1880  144.2180 N   0  0  0  0  0  2  0  0  0  0  0  0
  194.7940  173.0250  142.7800 O   0  0  0  0  0  0  0  0  0  0  0  0
  196.5740  172.8880  144.4550 O   0  0  0  0  0  0  0  0  0  0  0  0
  195.2160  173.4550  144.1570 S   0  0  0  0  0  0  0  0  0  0  0  0
  194.0490  172.8370  145.3570 C   0  0  0  0  0  2  0  0  0  0  0  0
  192.8800  172.1890  144.6880 C   0  0  0  0  0  0  0  0  0  0  0  0
  192.9030  170.9930  144.4470 O   0  0  0  0  0  0  0  0  0  0  0  0
  191.6710  172.9930  144.3240 C   0  0  0  0  0  2  0  0  0  0  0  0
  190.4990  172.1370  144.1720 N   0  0  0  0  0  2  0  0  0  0  0  0
  189.8850  171.8190  142.9180 C   0  0  0  0  0  0  0  0  0  0  0  0
  188.6710  172.7310  142.3010 S   0  0  0  0  0  0  0  0  0  0  0  0
  190.3710  170.7140  142.1670 N   0  0  0  0  0  1  0  0  0  0  0  0
  190.9810  177.2130  143.3030 C   0  0  0  0  0  2  0  0  0  0  0  0
  189.6700  177.7660  143.8740 C   0  0  0  0  0  2  0  0  0  0  0  0
  188.5010  176.9300  143.5650 N   0  0  0  0  0  0  0  0  0  0  0  0
  185.1050  177.5910  142.2250 C   0  0  0  0  0  1  0  0  0  0  0  0
  186.4980  177.0020  142.1860 C   0  0  1  0  0  3  0  0  0  0  0  0
  187.4650  178.0420  141.6610 C   0  0  0  0  0  2  0  0  0  0  0  0
  187.3820  177.7710  143.1530 C   0  0  2  0  0  3  0  0  0  0  0  0
  188.1070  176.1970  144.7640 C   0  0  0  0  0  2  0  0  0  0  0  0
  187.8120  177.1670  145.8950 C   0  0  0  0  0  2  0  0  0  0  0  0
  186.4250  176.9140  146.4600 C   0  0  0  0  0  2  0  0  0  0  0  0
  185.8450  178.1850  147.0500 C   0  0  0  0  0  2  0  0  0  0  0  0
  184.0780  178.9190  145.4860 C   0  0  0  0  0  1  0  0  0  0  0  0
  184.3530  178.2190  146.7980 C   0  0  0  0  0  2  0  0  0  0  0  0
  1  2  2  0  0  0  0
  3  7  1  0  0  0  0
  3  5  2  0  0  0  0
  4  1  1  0  0  0  0
  5  6  1  0  0  0  0
  6  1  1  0  0  0  0
  7 20  1  6  0  0  0
  7  4  1  0  0  0  0
  8  5  1  0  0  0  0
  9 11  2  0  0  0  0
 11  8  1  0  0  0  0
 11 10  2  0  0  0  0
 11 12  1  0  0  0  0
 13 12  1  0  0  0  0
 14 13  2  0  0  0  0
 15 13  1  0  0  0  0
 16 15  1  0  0  0  0
 17 16  1  0  0  0  0
 18 17  2  0  0  0  0
 19 17  1  0  0  0  0
 20 21  1  0  0  0  0
 22 21  1  0  0  0  0
 22 27  1  0  0  0  0
 24 23  1  1  0  0  0
 24 26  1  0  0  0  0
 25 24  1  0  0  0  0
 25 26  1  0  0  0  0
 26 22  1  6  0  0  0
 27 28  1  0  0  0  0
 28 29  1  0  0  0  0
 29 30  1  0  0  0  0
 31 32  1  0  0  0  0
 32 30  1  0  0  0  0
M  END
>  <MODEL>
9

>  <REMARK>
 VINA RESULT:      -5.1      3.897      8.113
  Name = 
  16 active torsions:
  status: ('A' for Active; 'I' for Inactive)
    1  A    between atoms: C_1  and  N_30
    2  A    between atoms: C_2  and  C_14
    3  A    between atoms: C_2  and  S_27
    4  A    between atoms: C_5  and  C_14
    5  A    between atoms: C_5  and  N_30
    6  A    between atoms: C_6  and  N_9
    7  A    between atoms: C_6  and  C_17
    8  A    between atoms: C_7  and  C_26
    9  A    between atoms: C_7  and  C_31
   10  A    between atoms: N_9  and  C_31
   11  A    between atoms: N_9  and  C_32
   12  A    between atoms: N_16  and  C_20
   13  A    between atoms: N_16  and  S_27
   14  A    between atoms: C_17  and  C_29
   15  A    between atoms: C_18  and  C_25
   16  A    between atoms: C_18  and  C_29
                            x       y       z     vdW  Elec       q    Type
                         _______ _______ _______ _____ _____    ______ ____

>  <TORSDO>
F 16

$$$$
