=
 OpenBabel11052421293D

 32 33  0  0  1  0  0  0  0  0999 V2000
  189.2450  172.5530  142.3990 C   0  0  0  0  0  2  0  0  0  0  0  0
  192.7200  174.9580  145.9990 C   0  0  0  0  0  2  0  0  0  0  0  0
  191.6290  173.7240  144.1420 C   0  0  2  0  0  3  0  0  0  0  0  0
  189.7650  173.7670  145.9400 C   0  0  0  0  0  2  0  0  0  0  0  0
  189.1820  173.5800  143.5180 C   0  0  0  0  0  2  0  0  0  0  0  0
  190.2080  175.1950  146.2440 C   0  0  2  0  0  3  0  0  0  0  0  0
  191.5610  173.5240  141.6610 C   0  0  0  0  0  2  0  0  0  0  0  0
  190.2300  173.2500  144.5740 C   0  0  1  0  0  3  0  0  0  0  0  0
  192.1340  172.9320  142.9440 C   0  0  0  0  0  2  0  0  0  0  0  0
  190.1850  172.9650  141.2600 C   0  0  1  0  0  3  0  0  0  0  0  0
  192.6470  173.6240  145.2680 C   0  0  0  0  0  2  0  0  0  0  0  0
  191.5550  175.1500  146.9640 C   0  0  0  0  0  2  0  0  0  0  0  0
  189.4650  171.6950  139.1560 C   0  0  0  0  0  0  0  0  0  0  0  0
  190.3260  171.8900  140.2830 N   0  0  0  0  0  2  0  0  0  0  0  0
  188.5430  172.5120  138.8960 O   0  0  0  0  0  0  0  0  0  0  0  0
  189.6640  170.5130  138.2770 C   0  0  0  0  0  1  0  0  0  0  0  0
  189.2170  175.8200  147.1060 N   0  0  0  0  0  2  0  0  0  0  0  0
  189.0490  177.1950  146.6540 C   0  0  0  0  0  2  0  0  0  0  0  0
  188.8810  177.2280  145.1390 C   0  0  2  0  0  3  0  0  0  0  0  0
  190.0090  178.0250  144.4980 C   0  0  0  0  0  2  0  0  0  0  0  0
  191.8710  177.2580  143.1080 C   0  0  0  0  0  2  0  0  0  0  0  0
  190.5570  177.3200  143.2980 C   0  0  0  0  0  0  0  0  0  0  0  0
  189.6360  176.6920  142.3110 C   0  0  0  0  0  1  0  0  0  0  0  0
  187.5490  177.8660  144.7850 C   0  0  0  0  0  2  0  0  0  0  0  0
  186.4370  176.8220  144.7530 C   0  0  1  0  0  3  0  0  0  0  0  0
  185.4440  177.0230  145.9000 C   0  0  0  0  0  2  0  0  0  0  0  0
  185.1640  178.4890  146.2120 C   0  0  0  0  0  2  0  0  0  0  0  0
  183.8300  178.7950  145.9390 O   0  0  0  0  0  1  0  0  0  0  0  0
  185.7470  176.7910  143.3900 C   0  0  0  0  0  2  0  0  0  0  0  0
  186.1760  177.8790  142.5830 O   0  0  0  0  0  0  0  0  0  0  0  0
  186.2680  177.7620  141.2230 C   0  0  0  0  0  0  0  0  0  0  0  0
  186.3510  177.6570  140.0230 C   0  0  0  0  0  3  0  0  0  0  0  0
  1  5  1  0  0  0  0
  2 12  1  0  0  0  0
  3  9  1  6  0  0  0
  3  8  1  0  0  0  0
  3 11  1  0  0  0  0
  4  6  1  0  0  0  0
  6 12  1  0  0  0  0
  6 17  1  1  0  0  0
  7  9  1  0  0  0  0
  8  5  1  6  0  0  0
  8  4  1  0  0  0  0
 10 14  1  6  0  0  0
 10  7  1  0  0  0  0
 10  1  1  0  0  0  0
 11  2  1  0  0  0  0
 13 14  1  0  0  0  0
 15 13  2  0  0  0  0
 16 13  1  0  0  0  0
 18 17  1  0  0  0  0
 19 20  1  6  0  0  0
 19 18  1  0  0  0  0
 21 22  2  0  0  0  0
 22 20  1  0  0  0  0
 23 22  1  0  0  0  0
 24 19  1  0  0  0  0
 25 29  1  6  0  0  0
 25 24  1  0  0  0  0
 25 26  1  0  0  0  0
 26 27  1  0  0  0  0
 28 27  1  0  0  0  0
 30 29  1  0  0  0  0
 31 30  1  0  0  0  0
 32 31  3  0  0  0  0
M  END
>  <MODEL>
1

>  <REMARK>
 VINA RESULT:      -6.0      0.000      0.000
  Name = 
  13 active torsions:
  status: ('A' for Active; 'I' for Inactive)
    1  A    between atoms: C_5  and  C_25
    2  A    between atoms: O_6  and  C_7
    3  A    between atoms: O_6  and  C_32
    4  A    between atoms: N_10  and  C_24
    5  A    between atoms: C_11  and  C_27
    6  A    between atoms: C_11  and  C_30
    7  A    between atoms: C_11  and  C_32
    8  A    between atoms: C_14  and  N_15
    9  A    between atoms: N_15  and  C_26
   10  A    between atoms: C_16  and  C_25
   11  A    between atoms: C_16  and  C_26
   12  A    between atoms: C_16  and  C_27
   13  A    between atoms: C_18  and  C_30
                            x       y       z     vdW  Elec       q    Type
                         _______ _______ _______ _____ _____    ______ ____

>  <TORSDO>
F 13

$$$$
=
 OpenBabel11052421293D

 32 33  0  0  1  0  0  0  0  0999 V2000
  190.2380  172.9290  143.0080 C   0  0  0  0  0  2  0  0  0  0  0  0
  192.8830  176.1990  146.6310 C   0  0  0  0  0  2  0  0  0  0  0  0
  192.2090  174.5940  144.8610 C   0  0  2  0  0  3  0  0  0  0  0  0
  190.0870  174.6990  146.3440 C   0  0  0  0  0  2  0  0  0  0  0  0
  189.9120  174.0960  143.9260 C   0  0  0  0  0  2  0  0  0  0  0  0
  190.3540  176.1960  146.4730 C   0  0  2  0  0  3  0  0  0  0  0  0
  192.5500  174.0260  142.4610 C   0  0  0  0  0  2  0  0  0  0  0  0
  190.8040  174.0400  145.1590 C   0  0  1  0  0  3  0  0  0  0  0  0
  192.9620  173.6950  143.8920 C   0  0  0  0  0  2  0  0  0  0  0  0
  191.3070  173.2690  141.9640 C   0  0  1  0  0  3  0  0  0  0  0  0
  193.0410  174.7730  146.1220 C   0  0  0  0  0  2  0  0  0  0  0  0
  191.5690  176.4040  147.3760 C   0  0  0  0  0  2  0  0  0  0  0  0
  190.9880  171.5850  140.0610 C   0  0  0  0  0  0  0  0  0  0  0  0
  191.6920  172.0840  141.2030 N   0  0  0  0  0  2  0  0  0  0  0  0
  190.0000  172.2050  139.5870 O   0  0  0  0  0  0  0  0  0  0  0  0
  191.4340  170.3190  139.4200 C   0  0  0  0  0  1  0  0  0  0  0  0
  189.1900  176.8290  147.0730 N   0  0  0  0  0  2  0  0  0  0  0  0
  188.0120  176.1120  146.6030 C   0  0  0  0  0  2  0  0  0  0  0  0
  187.1450  177.0340  145.7530 C   0  0  2  0  0  3  0  0  0  0  0  0
  185.6820  176.9050  146.1540 C   0  0  0  0  0  2  0  0  0  0  0  0
  185.5620  178.9700  147.4630 C   0  0  0  0  0  2  0  0  0  0  0  0
  185.0840  178.2420  146.4590 C   0  0  0  0  0  0  0  0  0  0  0  0
  183.9490  178.7600  145.6450 C   0  0  0  0  0  1  0  0  0  0  0  0
  187.2990  176.6720  144.2850 C   0  0  0  0  0  2  0  0  0  0  0  0
  187.8830  177.8400  143.4960 C   0  0  1  0  0  3  0  0  0  0  0  0
  189.1890  177.4500  142.8000 C   0  0  0  0  0  2  0  0  0  0  0  0
  190.4320  178.0220  143.4750 C   0  0  0  0  0  2  0  0  0  0  0  0
  191.5850  177.5150  142.8730 O   0  0  0  0  0  1  0  0  0  0  0  0
  186.8570  178.4150  142.5200 C   0  0  0  0  0  2  0  0  0  0  0  0
  185.8220  177.4760  142.2640 O   0  0  0  0  0  0  0  0  0  0  0  0
  184.5210  177.8740  142.1160 C   0  0  0  0  0  0  0  0  0  0  0  0
  183.3730  178.2230  141.9870 C   0  0  0  0  0  3  0  0  0  0  0  0
  1  5  1  0  0  0  0
  2 12  1  0  0  0  0
  3  9  1  6  0  0  0
  3  8  1  0  0  0  0
  3 11  1  0  0  0  0
  4  6  1  0  0  0  0
  6 17  1  1  0  0  0
  6 12  1  0  0  0  0
  7  9  1  0  0  0  0
  8  5  1  6  0  0  0
  8  4  1  0  0  0  0
 10 14  1  1  0  0  0
 10  7  1  0  0  0  0
 10  1  1  0  0  0  0
 11  2  1  0  0  0  0
 13 14  1  0  0  0  0
 15 13  2  0  0  0  0
 16 13  1  0  0  0  0
 18 17  1  0  0  0  0
 19 24  1  6  0  0  0
 19 20  1  0  0  0  0
 19 18  1  0  0  0  0
 20 22  1  0  0  0  0
 22 21  2  0  0  0  0
 23 22  1  0  0  0  0
 25 29  1  6  0  0  0
 25 24  1  0  0  0  0
 26 27  1  0  0  0  0
 26 25  1  0  0  0  0
 28 27  1  0  0  0  0
 30 29  1  0  0  0  0
 31 30  1  0  0  0  0
 32 31  3  0  0  0  0
M  END
>  <MODEL>
2

>  <REMARK>
 VINA RESULT:      -5.9      1.635      3.404
  Name = 
  13 active torsions:
  status: ('A' for Active; 'I' for Inactive)
    1  A    between atoms: C_5  and  C_25
    2  A    between atoms: O_6  and  C_7
    3  A    between atoms: O_6  and  C_32
    4  A    between atoms: N_10  and  C_24
    5  A    between atoms: C_11  and  C_27
    6  A    between atoms: C_11  and  C_30
    7  A    between atoms: C_11  and  C_32
    8  A    between atoms: C_14  and  N_15
    9  A    between atoms: N_15  and  C_26
   10  A    between atoms: C_16  and  C_25
   11  A    between atoms: C_16  and  C_26
   12  A    between atoms: C_16  and  C_27
   13  A    between atoms: C_18  and  C_30
                            x       y       z     vdW  Elec       q    Type
                         _______ _______ _______ _____ _____    ______ ____

>  <TORSDO>
F 13

$$$$
=
 OpenBabel11052421293D

 32 33  0  0  1  0  0  0  0  0999 V2000
  190.3410  173.1160  142.0930 C   0  0  0  0  0  2  0  0  0  0  0  0
  192.7550  175.2760  146.6010 C   0  0  0  0  0  2  0  0  0  0  0  0
  192.1890  174.1720  144.4510 C   0  0  2  0  0  3  0  0  0  0  0  0
  189.9360  174.0760  145.7260 C   0  0  0  0  0  2  0  0  0  0  0  0
  189.9780  174.0590  143.2280 C   0  0  0  0  0  2  0  0  0  0  0  0
  190.2560  175.4810  146.2280 C   0  0  2  0  0  3  0  0  0  0  0  0
  192.7440  174.1500  142.0240 C   0  0  0  0  0  2  0  0  0  0  0  0
  190.7380  173.6600  144.4870 C   0  0  1  0  0  3  0  0  0  0  0  0
  192.9940  173.4710  143.3660 C   0  0  0  0  0  2  0  0  0  0  0  0
  191.5240  173.6140  141.2560 C   0  0  1  0  0  3  0  0  0  0  0  0
  192.8970  173.9980  145.7860 C   0  0  0  0  0  2  0  0  0  0  0  0
  191.3830  175.3920  147.2560 C   0  0  0  0  0  2  0  0  0  0  0  0
  191.4990  172.5900  138.9080 C   0  0  0  0  0  0  0  0  0  0  0  0
  191.9290  172.6130  140.2730 N   0  0  0  0  0  2  0  0  0  0  0  0
  190.7730  173.5080  138.4420 O   0  0  0  0  0  0  0  0  0  0  0  0
  191.9170  171.4690  138.0260 C   0  0  0  0  0  1  0  0  0  0  0  0
  189.0680  176.0370  146.8560 N   0  0  0  0  0  2  0  0  0  0  0  0
  188.8170  177.3350  146.2450 C   0  0  0  0  0  2  0  0  0  0  0  0
  187.4160  177.3670  145.6460 C   0  0  2  0  0  3  0  0  0  0  0  0
  186.3800  177.0090  146.7020 C   0  0  0  0  0  2  0  0  0  0  0  0
  184.2220  178.1510  146.5340 C   0  0  0  0  0  2  0  0  0  0  0  0
  185.4720  178.1640  146.9850 C   0  0  0  0  0  0  0  0  0  0  0  0
  185.9650  179.3340  147.7640 C   0  0  0  0  0  1  0  0  0  0  0  0
  187.3260  176.3780  144.4960 C   0  0  0  0  0  2  0  0  0  0  0  0
  186.9630  177.0870  143.1950 C   0  0  1  0  0  3  0  0  0  0  0  0
  186.6440  178.5650  143.4310 C   0  0  0  0  0  2  0  0  0  0  0  0
  185.2120  178.9430  143.0650 C   0  0  0  0  0  2  0  0  0  0  0  0
  184.4240  177.7970  142.9520 O   0  0  0  0  0  1  0  0  0  0  0  0
  188.0490  176.8920  142.1380 C   0  0  0  0  0  2  0  0  0  0  0  0
  188.9920  177.9530  142.1820 O   0  0  0  0  0  0  0  0  0  0  0  0
  190.2020  177.8030  142.8040 C   0  0  0  0  0  0  0  0  0  0  0  0
  191.2690  177.6720  143.3550 C   0  0  0  0  0  3  0  0  0  0  0  0
  1  5  1  0  0  0  0
  2 12  1  0  0  0  0
  3  9  1  6  0  0  0
  3  8  1  0  0  0  0
  3 11  1  0  0  0  0
  4  6  1  0  0  0  0
  6 17  1  1  0  0  0
  6 12  1  0  0  0  0
  7  9  1  0  0  0  0
  8  5  1  6  0  0  0
  8  4  1  0  0  0  0
 10 14  1  1  0  0  0
 10  7  1  0  0  0  0
 10  1  1  0  0  0  0
 11  2  1  0  0  0  0
 13 14  1  0  0  0  0
 15 13  2  0  0  0  0
 16 13  1  0  0  0  0
 18 17  1  0  0  0  0
 19 24  1  6  0  0  0
 19 18  1  0  0  0  0
 19 20  1  0  0  0  0
 20 22  1  0  0  0  0
 21 22  2  0  0  0  0
 22 23  1  0  0  0  0
 25 29  1  6  0  0  0
 25 26  1  0  0  0  0
 25 24  1  0  0  0  0
 27 26  1  0  0  0  0
 28 27  1  0  0  0  0
 29 30  1  0  0  0  0
 30 31  1  0  0  0  0
 31 32  3  0  0  0  0
M  END
>  <MODEL>
3

>  <REMARK>
 VINA RESULT:      -5.9      1.449      3.150
  Name = 
  13 active torsions:
  status: ('A' for Active; 'I' for Inactive)
    1  A    between atoms: C_5  and  C_25
    2  A    between atoms: O_6  and  C_7
    3  A    between atoms: O_6  and  C_32
    4  A    between atoms: N_10  and  C_24
    5  A    between atoms: C_11  and  C_27
    6  A    between atoms: C_11  and  C_30
    7  A    between atoms: C_11  and  C_32
    8  A    between atoms: C_14  and  N_15
    9  A    between atoms: N_15  and  C_26
   10  A    between atoms: C_16  and  C_25
   11  A    between atoms: C_16  and  C_26
   12  A    between atoms: C_16  and  C_27
   13  A    between atoms: C_18  and  C_30
                            x       y       z     vdW  Elec       q    Type
                         _______ _______ _______ _____ _____    ______ ____

>  <TORSDO>
F 13

$$$$
=
 OpenBabel11052421293D

 32 33  0  0  1  0  0  0  0  0999 V2000
  193.7800  175.8880  143.0350 C   0  0  0  0  0  2  0  0  0  0  0  0
  191.2350  176.2840  147.9520 C   0  0  0  0  0  2  0  0  0  0  0  0
  192.7780  175.8850  146.0500 C   0  0  2  0  0  3  0  0  0  0  0  0
  190.4770  176.0340  144.8670 C   0  0  0  0  0  2  0  0  0  0  0  0
  192.5740  176.5960  143.6310 C   0  0  0  0  0  2  0  0  0  0  0  0
  190.1460  177.1630  145.8390 C   0  0  2  0  0  3  0  0  0  0  0  0
  195.1000  176.3020  145.2560 C   0  0  0  0  0  2  0  0  0  0  0  0
  191.9780  175.7420  144.7420 C   0  0  1  0  0  3  0  0  0  0  0  0
  194.1700  175.2870  145.9110 C   0  0  0  0  0  2  0  0  0  0  0  0
  195.0980  176.2700  143.7180 C   0  0  1  0  0  3  0  0  0  0  0  0
  192.0750  175.2370  147.2320 C   0  0  0  0  0  2  0  0  0  0  0  0
  189.9230  176.5670  147.2290 C   0  0  0  0  0  2  0  0  0  0  0  0
  196.8820  175.6900  141.9750 C   0  0  0  0  0  0  0  0  0  0  0  0
  196.2030  175.4610  143.2140 N   0  0  0  0  0  2  0  0  0  0  0  0
  196.5980  176.6830  141.2550 O   0  0  0  0  0  0  0  0  0  0  0  0
  197.9400  174.7450  141.5330 C   0  0  0  0  0  1  0  0  0  0  0  0
  188.9300  177.8240  145.3930 N   0  0  0  0  0  2  0  0  0  0  0  0
  187.8600  176.8360  145.4220 C   0  0  0  0  0  2  0  0  0  0  0  0
  186.7510  177.2390  144.4560 C   0  0  2  0  0  3  0  0  0  0  0  0
  185.3930  177.1310  145.1340 C   0  0  0  0  0  2  0  0  0  0  0  0
  184.1870  178.7110  146.5620 C   0  0  0  0  0  2  0  0  0  0  0  0
  184.8170  178.4830  145.4140 C   0  0  0  0  0  0  0  0  0  0  0  0
  184.9400  179.5750  144.4080 C   0  0  0  0  0  1  0  0  0  0  0  0
  186.7790  176.3350  143.2360 C   0  0  0  0  0  2  0  0  0  0  0  0
  187.8960  176.7440  142.2810 C   0  0  1  0  0  3  0  0  0  0  0  0
  188.3010  175.5900  141.3610 C   0  0  0  0  0  2  0  0  0  0  0  0
  187.8540  174.2230  141.8690 C   0  0  0  0  0  2  0  0  0  0  0  0
  188.9400  173.5280  142.4050 O   0  0  0  0  0  1  0  0  0  0  0  0
  187.5210  178.0030  141.4990 C   0  0  0  0  0  2  0  0  0  0  0  0
  186.6260  177.6900  140.4410 O   0  0  0  0  0  0  0  0  0  0  0  0
  185.2910  177.9780  140.5320 C   0  0  0  0  0  0  0  0  0  0  0  0
  184.1120  178.2290  140.6120 C   0  0  0  0  0  3  0  0  0  0  0  0
  1  5  1  0  0  0  0
  1 10  1  0  0  0  0
  3  9  1  6  0  0  0
  3 11  1  0  0  0  0
  4  6  1  0  0  0  0
  6 17  1  6  0  0  0
  6 12  1  0  0  0  0
  7  9  1  0  0  0  0
  8  5  1  6  0  0  0
  8  4  1  0  0  0  0
  8  3  1  0  0  0  0
 10 14  1  1  0  0  0
 10  7  1  0  0  0  0
 11  2  1  0  0  0  0
 12  2  1  0  0  0  0
 13 14  1  0  0  0  0
 15 13  2  0  0  0  0
 16 13  1  0  0  0  0
 17 18  1  0  0  0  0
 19 24  1  6  0  0  0
 19 20  1  0  0  0  0
 19 18  1  0  0  0  0
 20 22  1  0  0  0  0
 22 21  2  0  0  0  0
 23 22  1  0  0  0  0
 25 26  1  6  0  0  0
 25 24  1  0  0  0  0
 26 27  1  0  0  0  0
 27 28  1  0  0  0  0
 29 25  1  0  0  0  0
 30 31  1  0  0  0  0
 30 29  1  0  0  0  0
 31 32  3  0  0  0  0
M  END
>  <MODEL>
4

>  <REMARK>
 VINA RESULT:      -5.7      3.103      5.225
  Name = 
  13 active torsions:
  status: ('A' for Active; 'I' for Inactive)
    1  A    between atoms: C_5  and  C_25
    2  A    between atoms: O_6  and  C_7
    3  A    between atoms: O_6  and  C_32
    4  A    between atoms: N_10  and  C_24
    5  A    between atoms: C_11  and  C_27
    6  A    between atoms: C_11  and  C_30
    7  A    between atoms: C_11  and  C_32
    8  A    between atoms: C_14  and  N_15
    9  A    between atoms: N_15  and  C_26
   10  A    between atoms: C_16  and  C_25
   11  A    between atoms: C_16  and  C_26
   12  A    between atoms: C_16  and  C_27
   13  A    between atoms: C_18  and  C_30
                            x       y       z     vdW  Elec       q    Type
                         _______ _______ _______ _____ _____    ______ ____

>  <TORSDO>
F 13

$$$$
=
 OpenBabel11052421293D

 32 33  0  0  1  0  0  0  0  0999 V2000
  193.6050  175.9710  142.9670 C   0  0  0  0  0  2  0  0  0  0  0  0
  191.3090  175.9280  148.0210 C   0  0  0  0  0  2  0  0  0  0  0  0
  192.7450  175.6810  146.0120 C   0  0  2  0  0  3  0  0  0  0  0  0
  190.4000  176.0390  144.9690 C   0  0  0  0  0  2  0  0  0  0  0  0
  192.4590  176.6550  143.6950 C   0  0  0  0  0  2  0  0  0  0  0  0
  190.1610  177.0690  146.0700 C   0  0  2  0  0  3  0  0  0  0  0  0
  195.0440  176.0960  145.1500 C   0  0  0  0  0  2  0  0  0  0  0  0
  191.8800  175.7080  144.7380 C   0  0  1  0  0  3  0  0  0  0  0  0
  194.1040  175.0510  145.7410 C   0  0  0  0  0  2  0  0  0  0  0  0
  194.9680  176.2300  143.6200 C   0  0  1  0  0  3  0  0  0  0  0  0
  192.0710  174.9360  147.1530 C   0  0  0  0  0  2  0  0  0  0  0  0
  189.9790  176.3360  147.3990 C   0  0  0  0  0  2  0  0  0  0  0  0
  196.6560  175.7850  141.7450 C   0  0  0  0  0  0  0  0  0  0  0  0
  196.0150  175.4400  142.9780 N   0  0  0  0  0  2  0  0  0  0  0  0
  196.3910  176.8670  141.1580 O   0  0  0  0  0  0  0  0  0  0  0  0
  197.6510  174.8550  141.1510 C   0  0  0  0  0  1  0  0  0  0  0  0
  188.9540  177.8170  145.7580 N   0  0  0  0  0  2  0  0  0  0  0  0
  188.7120  177.6790  144.3290 C   0  0  0  0  0  2  0  0  0  0  0  0
  187.2140  177.5850  144.0600 C   0  0  2  0  0  3  0  0  0  0  0  0
  186.4340  177.6970  145.3630 C   0  0  0  0  0  2  0  0  0  0  0  0
  185.6000  179.8370  144.5210 C   0  0  0  0  0  2  0  0  0  0  0  0
  185.3930  178.7680  145.2820 C   0  0  0  0  0  0  0  0  0  0  0  0
  184.1270  178.6450  146.0560 C   0  0  0  0  0  1  0  0  0  0  0  0
  186.8950  176.2570  143.3940 C   0  0  0  0  0  2  0  0  0  0  0  0
  186.6830  176.4380  141.8950 C   0  0  1  0  0  3  0  0  0  0  0  0
  186.2760  177.8740  141.5530 C   0  0  0  0  0  2  0  0  0  0  0  0
  184.7670  178.0730  141.4660 C   0  0  0  0  0  2  0  0  0  0  0  0
  184.3820  178.2750  140.1400 O   0  0  0  0  0  1  0  0  0  0  0  0
  187.9100  175.9820  141.1050 C   0  0  0  0  0  2  0  0  0  0  0  0
  188.8280  175.3020  141.9480 O   0  0  0  0  0  0  0  0  0  0  0  0
  189.7690  174.4510  141.4350 C   0  0  0  0  0  0  0  0  0  0  0  0
  190.5980  173.7000  140.9800 C   0  0  0  0  0  3  0  0  0  0  0  0
  1 10  1  0  0  0  0
  1  5  1  0  0  0  0
  3  9  1  6  0  0  0
  3 11  1  0  0  0  0
  4  6  1  0  0  0  0
  6 17  1  6  0  0  0
  6 12  1  0  0  0  0
  7  9  1  0  0  0  0
  8  5  1  6  0  0  0
  8  4  1  0  0  0  0
  8  3  1  0  0  0  0
 10 14  1  6  0  0  0
 10  7  1  0  0  0  0
 11  2  1  0  0  0  0
 12  2  1  0  0  0  0
 13 14  1  0  0  0  0
 15 13  2  0  0  0  0
 16 13  1  0  0  0  0
 18 17  1  0  0  0  0
 19 24  1  1  0  0  0
 19 18  1  0  0  0  0
 19 20  1  0  0  0  0
 21 22  2  0  0  0  0
 22 20  1  0  0  0  0
 22 23  1  0  0  0  0
 25 29  1  6  0  0  0
 25 24  1  0  0  0  0
 26 25  1  0  0  0  0
 27 26  1  0  0  0  0
 28 27  1  0  0  0  0
 29 30  1  0  0  0  0
 31 30  1  0  0  0  0
 32 31  3  0  0  0  0
M  END
>  <MODEL>
5

>  <REMARK>
 VINA RESULT:      -5.7      3.029      5.053
  Name = 
  13 active torsions:
  status: ('A' for Active; 'I' for Inactive)
    1  A    between atoms: C_5  and  C_25
    2  A    between atoms: O_6  and  C_7
    3  A    between atoms: O_6  and  C_32
    4  A    between atoms: N_10  and  C_24
    5  A    between atoms: C_11  and  C_27
    6  A    between atoms: C_11  and  C_30
    7  A    between atoms: C_11  and  C_32
    8  A    between atoms: C_14  and  N_15
    9  A    between atoms: N_15  and  C_26
   10  A    between atoms: C_16  and  C_25
   11  A    between atoms: C_16  and  C_26
   12  A    between atoms: C_16  and  C_27
   13  A    between atoms: C_18  and  C_30
                            x       y       z     vdW  Elec       q    Type
                         _______ _______ _______ _____ _____    ______ ____

>  <TORSDO>
F 13

$$$$
=
 OpenBabel11052421293D

 32 33  0  0  1  0  0  0  0  0999 V2000
  193.8470  175.8550  143.2240 C   0  0  0  0  0  2  0  0  0  0  0  0
  190.8640  176.6860  147.8320 C   0  0  0  0  0  2  0  0  0  0  0  0
  192.5780  176.1310  146.1230 C   0  0  2  0  0  3  0  0  0  0  0  0
  190.3910  176.1160  144.7330 C   0  0  0  0  0  2  0  0  0  0  0  0
  192.5850  176.5950  143.6370 C   0  0  0  0  0  2  0  0  0  0  0  0
  189.9610  177.3290  145.5530 C   0  0  2  0  0  3  0  0  0  0  0  0
  194.9570  176.5130  145.5010 C   0  0  0  0  0  2  0  0  0  0  0  0
  191.9000  175.8440  144.7710 C   0  0  1  0  0  3  0  0  0  0  0  0
  193.9830  175.5500  146.1700 C   0  0  0  0  0  2  0  0  0  0  0  0
  195.0930  176.3290  143.9800 C   0  0  1  0  0  3  0  0  0  0  0  0
  191.7770  175.5900  147.2980 C   0  0  0  0  0  2  0  0  0  0  0  0
  189.6200  176.8700  146.9700 C   0  0  0  0  0  2  0  0  0  0  0  0
  196.2550  174.0650  143.6890 C   0  0  0  0  0  0  0  0  0  0  0  0
  196.2490  175.4960  143.6600 N   0  0  0  0  0  2  0  0  0  0  0  0
  195.2030  173.4180  143.9340 O   0  0  0  0  0  0  0  0  0  0  0  0
  197.5200  173.3320  143.4210 C   0  0  0  0  0  1  0  0  0  0  0  0
  188.7830  177.9180  144.9360 N   0  0  0  0  0  2  0  0  0  0  0  0
  187.7060  176.9420  145.0310 C   0  0  0  0  0  2  0  0  0  0  0  0
  186.7730  177.0780  143.8330 C   0  0  2  0  0  3  0  0  0  0  0  0
  185.3240  177.1460  144.2950 C   0  0  0  0  0  2  0  0  0  0  0  0
  185.3650  179.5910  144.2080 C   0  0  0  0  0  2  0  0  0  0  0  0
  184.9970  178.4920  144.8590 C   0  0  0  0  0  0  0  0  0  0  0  0
  184.2670  178.6080  146.1520 C   0  0  0  0  0  1  0  0  0  0  0  0
  186.9510  175.8870  142.9070 C   0  0  0  0  0  2  0  0  0  0  0  0
  188.0310  176.1650  141.8660 C   0  0  1  0  0  3  0  0  0  0  0  0
  188.0960  175.0550  140.8140 C   0  0  0  0  0  2  0  0  0  0  0  0
  189.3140  174.1490  140.9620 C   0  0  0  0  0  2  0  0  0  0  0  0
  190.3130  174.7970  141.6900 O   0  0  0  0  0  1  0  0  0  0  0  0
  187.8500  177.5470  141.2380 C   0  0  0  0  0  2  0  0  0  0  0  0
  186.8870  177.5050  140.1950 O   0  0  0  0  0  0  0  0  0  0  0  0
  185.6120  177.9650  140.3860 C   0  0  0  0  0  0  0  0  0  0  0  0
  184.4870  178.3680  140.5560 C   0  0  0  0  0  3  0  0  0  0  0  0
  1  5  1  0  0  0  0
  1 10  1  0  0  0  0
  3  9  1  6  0  0  0
  3 11  1  0  0  0  0
  4  8  1  0  0  0  0
  4  6  1  0  0  0  0
  6 17  1  6  0  0  0
  6 12  1  0  0  0  0
  7  9  1  0  0  0  0
  8  5  1  6  0  0  0
  8  3  1  0  0  0  0
 10 14  1  1  0  0  0
 10  7  1  0  0  0  0
 11  2  1  0  0  0  0
 12  2  1  0  0  0  0
 13 15  2  0  0  0  0
 14 13  1  0  0  0  0
 16 13  1  0  0  0  0
 17 18  1  0  0  0  0
 19 24  1  6  0  0  0
 19 20  1  0  0  0  0
 19 18  1  0  0  0  0
 20 22  1  0  0  0  0
 21 22  2  0  0  0  0
 22 23  1  0  0  0  0
 25 26  1  6  0  0  0
 25 24  1  0  0  0  0
 26 27  1  0  0  0  0
 27 28  1  0  0  0  0
 29 25  1  0  0  0  0
 30 31  1  0  0  0  0
 30 29  1  0  0  0  0
 31 32  3  0  0  0  0
M  END
>  <MODEL>
6

>  <REMARK>
 VINA RESULT:      -5.6      2.958      5.301
  Name = 
  13 active torsions:
  status: ('A' for Active; 'I' for Inactive)
    1  A    between atoms: C_5  and  C_25
    2  A    between atoms: O_6  and  C_7
    3  A    between atoms: O_6  and  C_32
    4  A    between atoms: N_10  and  C_24
    5  A    between atoms: C_11  and  C_27
    6  A    between atoms: C_11  and  C_30
    7  A    between atoms: C_11  and  C_32
    8  A    between atoms: C_14  and  N_15
    9  A    between atoms: N_15  and  C_26
   10  A    between atoms: C_16  and  C_25
   11  A    between atoms: C_16  and  C_26
   12  A    between atoms: C_16  and  C_27
   13  A    between atoms: C_18  and  C_30
                            x       y       z     vdW  Elec       q    Type
                         _______ _______ _______ _____ _____    ______ ____

>  <TORSDO>
F 13

$$$$
=
 OpenBabel11052421293D

 32 33  0  0  1  0  0  0  0  0999 V2000
  188.1950  177.8740  141.9340 C   0  0  0  0  0  2  0  0  0  0  0  0
  188.8460  175.4960  146.9080 C   0  0  0  0  0  2  0  0  0  0  0  0
  188.0310  176.4060  144.7470 C   0  0  2  0  0  3  0  0  0  0  0  0
  190.1900  177.7830  145.1430 C   0  0  0  0  0  2  0  0  0  0  0  0
  189.3350  177.4090  142.8250 C   0  0  0  0  0  2  0  0  0  0  0  0
  190.8170  176.4930  145.6650 C   0  0  2  0  0  3  0  0  0  0  0  0
  186.7890  175.7960  142.6780 C   0  0  0  0  0  2  0  0  0  0  0  0
  188.9370  177.5640  144.2870 C   0  0  1  0  0  3  0  0  0  0  0  0
  186.6800  176.4530  144.0500 C   0  0  0  0  0  2  0  0  0  0  0  0
  187.2350  176.7430  141.5510 C   0  0  1  0  0  3  0  0  0  0  0  0
  187.8140  176.4040  146.2520 C   0  0  0  0  0  2  0  0  0  0  0  0
  190.2100  176.1670  147.0280 C   0  0  0  0  0  2  0  0  0  0  0  0
  185.1790  178.2530  141.3180 C   0  0  0  0  0  0  0  0  0  0  0  0
  186.0810  177.2590  140.8200 N   0  0  0  0  0  2  0  0  0  0  0  0
  185.3780  178.8090  142.4300 O   0  0  0  0  0  0  0  0  0  0  0  0
  183.9930  178.6370  140.5090 C   0  0  0  0  0  1  0  0  0  0  0  0
  192.2500  176.6910  145.8060 N   0  0  0  0  0  2  0  0  0  0  0  0
  192.8270  176.6750  144.4680 C   0  0  0  0  0  2  0  0  0  0  0  0
  192.9190  175.2420  143.9570 C   0  0  2  0  0  3  0  0  0  0  0  0
  194.3690  174.7800  143.9310 C   0  0  0  0  0  2  0  0  0  0  0  0
  193.8070  173.2430  145.7510 C   0  0  0  0  0  2  0  0  0  0  0  0
  194.7180  174.0180  145.1710 C   0  0  0  0  0  0  0  0  0  0  0  0
  196.0800  174.1280  145.7620 C   0  0  0  0  0  1  0  0  0  0  0  0
  192.3390  175.1590  142.5550 C   0  0  0  0  0  2  0  0  0  0  0  0
  191.2760  174.0680  142.4700 C   0  0  1  0  0  3  0  0  0  0  0  0
  190.2430  174.3730  141.3830 C   0  0  0  0  0  2  0  0  0  0  0  0
  189.6650  173.1230  140.7260 C   0  0  0  0  0  2  0  0  0  0  0  0
  188.5030  172.7240  141.3880 O   0  0  0  0  0  1  0  0  0  0  0  0
  191.9120  172.6900  142.2940 C   0  0  0  0  0  2  0  0  0  0  0  0
  191.5150  171.8140  143.3390 O   0  0  0  0  0  0  0  0  0  0  0  0
  190.5500  172.1730  144.2390 C   0  0  0  0  0  0  0  0  0  0  0  0
  189.6980  172.4880  145.0350 C   0  0  0  0  0  3  0  0  0  0  0  0
  1  5  1  0  0  0  0
  2 12  1  0  0  0  0
  3  9  1  6  0  0  0
  3 11  1  0  0  0  0
  4  6  1  0  0  0  0
  6 17  1  1  0  0  0
  6 12  1  0  0  0  0
  7  9  1  0  0  0  0
  8  5  1  6  0  0  0
  8  3  1  0  0  0  0
  8  4  1  0  0  0  0
 10 14  1  1  0  0  0
 10  1  1  0  0  0  0
 10  7  1  0  0  0  0
 11  2  1  0  0  0  0
 13 15  2  0  0  0  0
 14 13  1  0  0  0  0
 16 13  1  0  0  0  0
 18 17  1  0  0  0  0
 19 24  1  6  0  0  0
 19 18  1  0  0  0  0
 20 19  1  0  0  0  0
 20 22  1  0  0  0  0
 22 21  2  0  0  0  0
 22 23  1  0  0  0  0
 25 26  1  6  0  0  0
 25 24  1  0  0  0  0
 27 26  1  0  0  0  0
 27 28  1  0  0  0  0
 29 25  1  0  0  0  0
 29 30  1  0  0  0  0
 30 31  1  0  0  0  0
 31 32  3  0  0  0  0
M  END
>  <MODEL>
7

>  <REMARK>
 VINA RESULT:      -5.6      2.284      6.263
  Name = 
  13 active torsions:
  status: ('A' for Active; 'I' for Inactive)
    1  A    between atoms: C_5  and  C_25
    2  A    between atoms: O_6  and  C_7
    3  A    between atoms: O_6  and  C_32
    4  A    between atoms: N_10  and  C_24
    5  A    between atoms: C_11  and  C_27
    6  A    between atoms: C_11  and  C_30
    7  A    between atoms: C_11  and  C_32
    8  A    between atoms: C_14  and  N_15
    9  A    between atoms: N_15  and  C_26
   10  A    between atoms: C_16  and  C_25
   11  A    between atoms: C_16  and  C_26
   12  A    between atoms: C_16  and  C_27
   13  A    between atoms: C_18  and  C_30
                            x       y       z     vdW  Elec       q    Type
                         _______ _______ _______ _____ _____    ______ ____

>  <TORSDO>
F 13

$$$$
=
 OpenBabel11052421293D

 32 33  0  0  1  0  0  0  0  0999 V2000
  188.5800  177.5400  145.0820 C   0  0  0  0  0  2  0  0  0  0  0  0
  193.3560  174.9090  146.1270 C   0  0  0  0  0  2  0  0  0  0  0  0
  191.1150  175.9770  146.1880 C   0  0  2  0  0  3  0  0  0  0  0  0
  192.2210  177.1350  144.1500 C   0  0  0  0  0  2  0  0  0  0  0  0
  189.7350  176.9370  144.2980 C   0  0  0  0  0  2  0  0  0  0  0  0
  192.8170  175.7730  143.8060 C   0  0  2  0  0  3  0  0  0  0  0  0
  188.7370  175.5680  146.7970 C   0  0  0  0  0  2  0  0  0  0  0  0
  191.0210  177.0660  145.1030 C   0  0  1  0  0  3  0  0  0  0  0  0
  190.0560  176.1750  147.2610 C   0  0  0  0  0  2  0  0  0  0  0  0
  187.8560  176.5160  145.9650 C   0  0  1  0  0  3  0  0  0  0  0  0
  192.4860  175.9320  146.8450 C   0  0  0  0  0  2  0  0  0  0  0  0
  193.9160  175.4470  144.8160 C   0  0  0  0  0  2  0  0  0  0  0  0
  185.5580  177.5770  146.3570 C   0  0  0  0  0  0  0  0  0  0  0  0
  186.8540  177.1650  146.8050 N   0  0  0  0  0  2  0  0  0  0  0  0
  185.1690  177.3300  145.1850 O   0  0  0  0  0  0  0  0  0  0  0  0
  184.6570  178.3020  147.2900 C   0  0  0  0  0  1  0  0  0  0  0  0
  193.3870  175.8350  142.4700 N   0  0  0  0  0  2  0  0  0  0  0  0
  193.1990  174.5280  141.8540 C   0  0  0  0  0  2  0  0  0  0  0  0
  191.7940  174.0130  142.1420 C   0  0  2  0  0  3  0  0  0  0  0  0
  191.8310  172.5280  142.4730 C   0  0  0  0  0  2  0  0  0  0  0  0
  192.5730  171.6350  144.6280 C   0  0  0  0  0  2  0  0  0  0  0  0
  191.6470  172.2940  143.9390 C   0  0  0  0  0  0  0  0  0  0  0  0
  190.4250  172.7910  144.6310 C   0  0  0  0  0  1  0  0  0  0  0  0
  190.9060  174.2370  140.9300 C   0  0  0  0  0  2  0  0  0  0  0  0
  189.4590  173.8700  141.2400 C   0  0  1  0  0  3  0  0  0  0  0  0
  188.5860  175.1170  141.4050 C   0  0  0  0  0  2  0  0  0  0  0  0
  187.4230  174.9210  142.3730 C   0  0  0  0  0  2  0  0  0  0  0  0
  186.6630  176.0880  142.4570 O   0  0  0  0  0  1  0  0  0  0  0  0
  188.8970  172.9060  140.1960 C   0  0  0  0  0  2  0  0  0  0  0  0
  188.2610  173.6160  139.1430 O   0  0  0  0  0  0  0  0  0  0  0  0
  188.8050  173.6670  137.8890 C   0  0  0  0  0  0  0  0  0  0  0  0
  189.2840  173.7130  136.7810 C   0  0  0  0  0  3  0  0  0  0  0  0
  1 10  1  0  0  0  0
  2 11  1  0  0  0  0
  3 11  1  1  0  0  0
  3  9  1  0  0  0  0
  5  1  1  0  0  0  0
  5  8  1  0  0  0  0
  6 17  1  6  0  0  0
  6  4  1  0  0  0  0
  6 12  1  0  0  0  0
  7  9  1  0  0  0  0
  8  4  1  6  0  0  0
  8  3  1  0  0  0  0
 10  7  1  0  0  0  0
 10 14  1  1  0  0  0
 12  2  1  0  0  0  0
 13 14  1  0  0  0  0
 13 16  1  0  0  0  0
 15 13  2  0  0  0  0
 18 19  1  0  0  0  0
 18 17  1  0  0  0  0
 19 24  1  6  0  0  0
 19 20  1  0  0  0  0
 20 22  1  0  0  0  0
 22 21  2  0  0  0  0
 22 23  1  0  0  0  0
 24 25  1  0  0  0  0
 25 29  1  6  0  0  0
 25 26  1  0  0  0  0
 26 27  1  0  0  0  0
 27 28  1  0  0  0  0
 30 29  1  0  0  0  0
 31 30  1  0  0  0  0
 32 31  3  0  0  0  0
M  END
>  <MODEL>
8

>  <REMARK>
 VINA RESULT:      -5.6      2.005      6.112
  Name = 
  13 active torsions:
  status: ('A' for Active; 'I' for Inactive)
    1  A    between atoms: C_5  and  C_25
    2  A    between atoms: O_6  and  C_7
    3  A    between atoms: O_6  and  C_32
    4  A    between atoms: N_10  and  C_24
    5  A    between atoms: C_11  and  C_27
    6  A    between atoms: C_11  and  C_30
    7  A    between atoms: C_11  and  C_32
    8  A    between atoms: C_14  and  N_15
    9  A    between atoms: N_15  and  C_26
   10  A    between atoms: C_16  and  C_25
   11  A    between atoms: C_16  and  C_26
   12  A    between atoms: C_16  and  C_27
   13  A    between atoms: C_18  and  C_30
                            x       y       z     vdW  Elec       q    Type
                         _______ _______ _______ _____ _____    ______ ____

>  <TORSDO>
F 13

$$$$
=
 OpenBabel11052421293D

 32 33  0  0  1  0  0  0  0  0999 V2000
  193.2300  175.4580  142.3650 C   0  0  0  0  0  2  0  0  0  0  0  0
  189.0270  171.9180  143.1560 C   0  0  0  0  0  2  0  0  0  0  0  0
  191.2140  173.0780  142.9710 C   0  0  2  0  0  3  0  0  0  0  0  0
  189.7180  174.4700  141.3770 C   0  0  0  0  0  2  0  0  0  0  0  0
  191.7140  175.5060  142.4660 C   0  0  0  0  0  2  0  0  0  0  0  0
  188.6080  174.3040  142.4110 C   0  0  2  0  0  3  0  0  0  0  0  0
  193.2800  173.6350  144.2430 C   0  0  0  0  0  2  0  0  0  0  0  0
  191.1250  174.2080  141.9290 C   0  0  1  0  0  3  0  0  0  0  0  0
  192.6590  172.6800  143.2300 C   0  0  0  0  0  2  0  0  0  0  0  0
  193.8970  174.9040  143.6300 C   0  0  1  0  0  3  0  0  0  0  0  0
  190.4250  171.8450  142.5570 C   0  0  0  0  0  2  0  0  0  0  0  0
  188.1150  172.8580  142.3770 C   0  0  0  0  0  2  0  0  0  0  0  0
  196.2960  175.7940  143.5410 C   0  0  0  0  0  0  0  0  0  0  0  0
  195.3340  174.7400  143.4350 N   0  0  0  0  0  2  0  0  0  0  0  0
  195.9510  176.9540  143.8890 O   0  0  0  0  0  0  0  0  0  0  0  0
  197.7250  175.5160  143.2380 C   0  0  0  0  0  1  0  0  0  0  0  0
  187.5130  175.1990  142.0710 N   0  0  0  0  0  2  0  0  0  0  0  0
  188.0430  176.5560  142.0680 C   0  0  0  0  0  2  0  0  0  0  0  0
  187.5710  177.3030  143.3090 C   0  0  2  0  0  3  0  0  0  0  0  0
  187.0440  178.6810  142.9300 C   0  0  0  0  0  2  0  0  0  0  0  0
  185.3690  179.8650  144.2640 C   0  0  0  0  0  2  0  0  0  0  0  0
  185.6440  178.8780  143.4170 C   0  0  0  0  0  0  0  0  0  0  0  0
  184.5550  177.9700  142.9600 C   0  0  0  0  0  1  0  0  0  0  0  0
  188.7240  177.4560  144.2860 C   0  0  0  0  0  2  0  0  0  0  0  0
  188.5260  176.5620  145.5060 C   0  0  1  0  0  3  0  0  0  0  0  0
  189.5830  175.4570  145.5710 C   0  0  0  0  0  2  0  0  0  0  0  0
  190.9560  175.9550  146.0100 C   0  0  0  0  0  2  0  0  0  0  0  0
  191.4000  175.2330  147.1190 O   0  0  0  0  0  1  0  0  0  0  0  0
  188.4710  177.3860  146.7920 C   0  0  0  0  0  2  0  0  0  0  0  0
  187.2170  178.0420  146.9170 O   0  0  0  0  0  0  0  0  0  0  0  0
  186.0420  177.3760  146.6990 C   0  0  0  0  0  0  0  0  0  0  0  0
  185.0040  176.7890  146.5100 C   0  0  0  0  0  3  0  0  0  0  0  0
  1  5  1  0  0  0  0
  1 10  1  0  0  0  0
  3 11  1  6  0  0  0
  3  9  1  0  0  0  0
  4  6  1  0  0  0  0
  6 17  1  6  0  0  0
  8  4  1  1  0  0  0
  8  5  1  0  0  0  0
  8  3  1  0  0  0  0
  9  7  1  0  0  0  0
 10 14  1  6  0  0  0
 10  7  1  0  0  0  0
 11  2  1  0  0  0  0
 12  6  1  0  0  0  0
 12  2  1  0  0  0  0
 13 15  2  0  0  0  0
 14 13  1  0  0  0  0
 16 13  1  0  0  0  0
 18 17  1  0  0  0  0
 19 18  1  6  0  0  0
 19 24  1  0  0  0  0
 20 19  1  0  0  0  0
 20 22  1  0  0  0  0
 22 21  2  0  0  0  0
 23 22  1  0  0  0  0
 25 24  1  6  0  0  0
 25 26  1  0  0  0  0
 25 29  1  0  0  0  0
 26 27  1  0  0  0  0
 27 28  1  0  0  0  0
 29 30  1  0  0  0  0
 31 30  1  0  0  0  0
 32 31  3  0  0  0  0
M  END
>  <MODEL>
9

>  <REMARK>
 VINA RESULT:      -5.6      3.257      5.500
  Name = 
  13 active torsions:
  status: ('A' for Active; 'I' for Inactive)
    1  A    between atoms: C_5  and  C_25
    2  A    between atoms: O_6  and  C_7
    3  A    between atoms: O_6  and  C_32
    4  A    between atoms: N_10  and  C_24
    5  A    between atoms: C_11  and  C_27
    6  A    between atoms: C_11  and  C_30
    7  A    between atoms: C_11  and  C_32
    8  A    between atoms: C_14  and  N_15
    9  A    between atoms: N_15  and  C_26
   10  A    between atoms: C_16  and  C_25
   11  A    between atoms: C_16  and  C_26
   12  A    between atoms: C_16  and  C_27
   13  A    between atoms: C_18  and  C_30
                            x       y       z     vdW  Elec       q    Type
                         _______ _______ _______ _____ _____    ______ ____

>  <TORSDO>
F 13

$$$$
