=
 OpenBabel11052419093D

 32 36  0  0  1  0  0  0  0  0999 V2000
  189.2740  177.5230  143.6310 C   0  0  0  0  0  2  0  0  0  0  0  0
  189.8720  176.8770  146.3160 C   0  0  0  0  0  2  0  0  0  0  0  0
  188.2560  177.8480  144.7290 C   0  0  2  0  0  3  0  0  0  0  0  0
  187.5650  177.5500  147.0720 C   0  0  0  0  0  2  0  0  0  0  0  0
  190.6430  176.1700  145.2770 N   0  0  1  0  0  0  0  0  0  0  0  0
  186.1440  177.8140  146.6310 C   0  0  0  0  0  0  0  0  0  0  0  0
  188.4010  176.9590  145.9490 C   0  0  2  0  0  3  0  0  0  0  0  0
  186.8250  177.7430  144.2240 C   0  0  0  0  0  2  0  0  0  0  0  0
  190.0880  176.2380  143.8990 C   0  0  1  0  0  3  0  0  0  0  0  0
  185.1900  177.9380  147.6340 O   0  0  0  0  0  1  0  0  0  0  0  0
  185.8120  177.9750  145.3230 C   0  0  0  0  0  0  0  0  0  0  0  0
  189.8510  172.6220  142.5580 C   0  0  1  0  0  0  0  0  0  0  0  0
  187.2720  174.6390  142.2690 O   0  0  0  0  0  1  0  0  0  0  0  0
  189.2500  171.4360  142.9870 O   0  0  0  0  0  1  0  0  0  0  0  0
  190.8050  172.4370  141.3830 C   0  0  1  0  0  3  0  0  0  0  0  0
  188.5630  175.1680  142.2060 C   0  0  2  0  0  3  0  0  0  0  0  0
  189.4010  173.0400  141.1640 C   0  0  2  0  0  3  0  0  0  0  0  0
  189.3360  174.5660  141.0350 C   0  0  0  0  0  2  0  0  0  0  0  0
  190.1710  173.7080  143.6120 C   0  0  2  0  0  3  0  0  0  0  0  0
  190.1880  173.1290  145.0180 C   0  0  0  0  0  1  0  0  0  0  0  0
  189.2820  174.9710  143.5520 C   0  0  1  0  0  3  0  0  0  0  0  0
  193.2330  172.8020  141.7780 C   0  0  0  0  0  1  0  0  0  0  0  0
  191.9420  173.4590  141.3330 C   0  0  0  0  0  2  0  0  0  0  0  0
  194.2470  176.2950  146.5370 C   0  0  0  0  0  2  0  0  0  0  0  0
  194.3570  176.3650  144.3000 C   0  0  0  0  0  2  0  0  0  0  0  0
  192.8450  176.2560  144.0600 C   0  0  0  0  0  2  0  0  0  0  0  0
  192.0380  176.6220  145.3220 C   0  0  0  0  0  3  0  0  0  0  0  0
  194.6380  177.1080  145.4590 O   0  0  0  0  0  0  0  0  0  0  0  0
  192.7180  176.1900  146.6280 C   0  0  0  0  0  2  0  0  0  0  0  0
  184.4740  178.2710  144.8910 N   0  0  0  0  0  2  0  0  0  0  0  0
  184.0960  179.1720  143.8130 C   0  0  0  0  0  2  0  0  0  0  0  0
  183.7610  178.2120  142.3130 S   0  0  0  0  0  1  0  0  0  0  0  0
  3  1  1  6  0  0  0
  3  7  1  0  0  0  0
  5 27  1  6  0  0  0
  5  2  1  0  0  0  0
  6  4  1  0  0  0  0
  6 10  1  0  0  0  0
  7  2  1  1  0  0  0
  7  4  1  0  0  0  0
  8  3  1  0  0  0  0
  8 11  1  0  0  0  0
  9  1  1  1  0  0  0
  9  5  1  0  0  0  0
 11  6  2  0  0  0  0
 12 14  1  1  0  0  0
 12 19  1  0  0  0  0
 15 23  1  1  0  0  0
 15 12  1  0  0  0  0
 16 13  1  1  0  0  0
 16 21  1  0  0  0  0
 17 18  1  1  0  0  0
 17 15  1  0  0  0  0
 17 12  1  0  0  0  0
 18 16  1  0  0  0  0
 19 20  1  1  0  0  0
 21 19  1  0  0  0  0
 21  9  1  6  0  0  0
 23 22  1  0  0  0  0
 24 29  1  0  0  0  0
 25 28  1  0  0  0  0
 26 25  1  0  0  0  0
 26 27  1  0  0  0  0
 27 29  1  0  0  0  0
 28 24  1  0  0  0  0
 30 11  1  0  0  0  0
 31 30  1  0  0  0  0
 32 31  1  0  0  0  0
M  END
>  <MODEL>
1

>  <REMARK>
 VINA RESULT:      -7.6      0.000      0.000
  Name = 
  5 active torsions:
  status: ('A' for Active; 'I' for Inactive)
    1  A    between atoms: N_10  and  C_28
    2  A    between atoms: N_14  and  C_21
    3  A    between atoms: N_14  and  C_29
    4  A    between atoms: C_15  and  C_26
    5  A    between atoms: C_24  and  C_27
                            x       y       z     vdW  Elec       q    Type
                         _______ _______ _______ _____ _____    ______ ____

>  <TORSDO>
F 5

$$$$
=
 OpenBabel11052419093D

 32 36  0  0  1  0  0  0  0  0999 V2000
  188.3430  175.1990  144.4990 C   0  0  0  0  0  2  0  0  0  0  0  0
  188.5040  176.5610  142.0280 C   0  0  0  0  0  2  0  0  0  0  0  0
  187.4100  176.3850  144.2290 C   0  0  2  0  0  3  0  0  0  0  0  0
  186.8620  178.3100  142.7970 C   0  0  0  0  0  2  0  0  0  0  0  0
  189.6730  175.7500  142.4150 N   0  0  1  0  0  0  0  0  0  0  0  0
  186.2010  178.9470  143.9970 C   0  0  0  0  0  0  0  0  0  0  0  0
  187.9710  177.3540  143.2070 C   0  0  2  0  0  3  0  0  0  0  0  0
  187.0930  177.1570  145.5010 C   0  0  0  0  0  2  0  0  0  0  0  0
  189.7350  175.3420  143.8430 C   0  0  1  0  0  3  0  0  0  0  0  0
  185.4960  180.1230  143.7720 O   0  0  0  0  0  1  0  0  0  0  0  0
  186.2460  178.3800  145.2320 C   0  0  0  0  0  0  0  0  0  0  0  0
  193.1350  176.1820  145.4750 C   0  0  1  0  0  0  0  0  0  0  0  0
  190.3630  177.3770  146.7770 O   0  0  0  0  0  1  0  0  0  0  0  0
  193.9780  177.2960  145.5060 O   0  0  0  0  0  1  0  0  0  0  0  0
  193.7630  174.9200  146.0540 C   0  0  1  0  0  3  0  0  0  0  0  0
  190.3430  176.1260  146.1570 C   0  0  2  0  0  3  0  0  0  0  0  0
  192.7200  175.7180  146.8650 C   0  0  2  0  0  3  0  0  0  0  0  0
  191.2920  175.1590  146.8610 C   0  0  0  0  0  2  0  0  0  0  0  0
  192.1410  176.0460  144.2980 C   0  0  2  0  0  3  0  0  0  0  0  0
  192.5480  176.9200  143.1220 C   0  0  0  0  0  1  0  0  0  0  0  0
  190.6540  176.2730  144.6580 C   0  0  1  0  0  3  0  0  0  0  0  0
  194.3470  172.6030  145.3630 C   0  0  0  0  0  1  0  0  0  0  0  0
  193.2280  173.6200  145.4490 C   0  0  0  0  0  2  0  0  0  0  0  0
  190.2060  172.0890  141.4620 C   0  0  0  0  0  2  0  0  0  0  0  0
  188.4790  172.8160  140.2340 C   0  0  0  0  0  2  0  0  0  0  0  0
  188.4470  174.2330  140.8220 C   0  0  0  0  0  2  0  0  0  0  0  0
  189.7760  174.5940  141.5170 C   0  0  0  0  0  3  0  0  0  0  0  0
  189.7950  172.3310  140.1400 O   0  0  0  0  0  0  0  0  0  0  0  0
  190.4380  173.4020  142.2220 C   0  0  0  0  0  2  0  0  0  0  0  0
  185.5850  178.9500  146.3730 N   0  0  0  0  0  2  0  0  0  0  0  0
  185.6540  178.4620  147.7410 C   0  0  0  0  0  2  0  0  0  0  0  0
  187.0690  179.2210  148.5830 S   0  0  0  0  0  1  0  0  0  0  0  0
  2  5  1  0  0  0  0
  3  1  1  1  0  0  0
  3  8  1  0  0  0  0
  4  7  1  0  0  0  0
  4  6  1  0  0  0  0
  5 27  1  6  0  0  0
  5  9  1  0  0  0  0
  6 11  2  0  0  0  0
  7  2  1  6  0  0  0
  7  3  1  0  0  0  0
  9  1  1  1  0  0  0
 10  6  1  0  0  0  0
 11  8  1  0  0  0  0
 11 30  1  0  0  0  0
 12 14  1  6  0  0  0
 12 15  1  0  0  0  0
 12 17  1  0  0  0  0
 15 23  1  6  0  0  0
 15 17  1  0  0  0  0
 16 13  1  1  0  0  0
 16 18  1  0  0  0  0
 17 18  1  6  0  0  0
 19 20  1  6  0  0  0
 19 21  1  0  0  0  0
 19 12  1  0  0  0  0
 21  9  1  6  0  0  0
 21 16  1  0  0  0  0
 22 23  1  0  0  0  0
 24 29  1  0  0  0  0
 25 26  1  0  0  0  0
 26 27  1  0  0  0  0
 27 29  1  0  0  0  0
 28 25  1  0  0  0  0
 28 24  1  0  0  0  0
 30 31  1  0  0  0  0
 31 32  1  0  0  0  0
M  END
>  <MODEL>
2

>  <REMARK>
 VINA RESULT:      -7.1      2.297      5.026
  Name = 
  5 active torsions:
  status: ('A' for Active; 'I' for Inactive)
    1  A    between atoms: N_10  and  C_28
    2  A    between atoms: N_14  and  C_21
    3  A    between atoms: N_14  and  C_29
    4  A    between atoms: C_15  and  C_26
    5  A    between atoms: C_24  and  C_27
                            x       y       z     vdW  Elec       q    Type
                         _______ _______ _______ _____ _____    ______ ____

>  <TORSDO>
F 5

$$$$
=
 OpenBabel11052419093D

 32 36  0  0  1  0  0  0  0  0999 V2000
  189.8620  176.8150  143.3020 C   0  0  0  0  0  2  0  0  0  0  0  0
  190.7380  176.0680  145.8830 C   0  0  0  0  0  2  0  0  0  0  0  0
  188.9370  177.0320  144.5030 C   0  0  2  0  0  3  0  0  0  0  0  0
  188.4820  176.5820  146.8800 C   0  0  0  0  0  2  0  0  0  0  0  0
  191.4410  175.4550  144.7410 N   0  0  1  0  0  0  0  0  0  0  0  0
  187.0150  176.7930  146.5850 C   0  0  0  0  0  0  0  0  0  0  0  0
  189.2380  176.0920  145.6550 C   0  0  2  0  0  3  0  0  0  0  0  0
  187.4720  176.8770  144.1260 C   0  0  0  0  0  2  0  0  0  0  0  0
  190.7580  175.5620  143.4250 C   0  0  1  0  0  3  0  0  0  0  0  0
  186.1550  176.8180  147.6750 O   0  0  0  0  0  1  0  0  0  0  0  0
  186.5560  177.0010  145.3220 C   0  0  0  0  0  0  0  0  0  0  0  0
  190.5670  172.0120  141.9120 C   0  0  1  0  0  0  0  0  0  0  0  0
  187.8780  173.9010  141.9790 O   0  0  0  0  0  1  0  0  0  0  0  0
  190.0680  170.7760  142.3290 O   0  0  0  0  0  1  0  0  0  0  0  0
  191.4120  171.9380  140.6450 C   0  0  1  0  0  3  0  0  0  0  0  0
  189.1300  174.5000  141.8250 C   0  0  2  0  0  3  0  0  0  0  0  0
  189.9660  172.4760  140.5920 C   0  0  2  0  0  3  0  0  0  0  0  0
  189.8160  174.0010  140.5550 C   0  0  0  0  0  2  0  0  0  0  0  0
  190.9350  173.0580  142.9900 C   0  0  2  0  0  3  0  0  0  0  0  0
  191.1140  172.4100  144.3550 C   0  0  0  0  0  1  0  0  0  0  0  0
  189.9840  174.2740  143.0840 C   0  0  1  0  0  3  0  0  0  0  0  0
  193.8470  172.4090  140.8220 C   0  0  0  0  0  1  0  0  0  0  0  0
  192.4880  173.0200  140.5460 C   0  0  0  0  0  2  0  0  0  0  0  0
  195.1630  175.6300  145.5880 C   0  0  0  0  0  2  0  0  0  0  0  0
  195.0000  175.9770  143.3800 C   0  0  0  0  0  2  0  0  0  0  0  0
  193.4760  175.8130  143.3020 C   0  0  0  0  0  2  0  0  0  0  0  0
  192.8120  175.9760  144.6840 C   0  0  0  0  0  3  0  0  0  0  0  0
  195.3870  176.5890  144.5850 O   0  0  0  0  0  0  0  0  0  0  0  0
  193.6620  175.4280  145.8380 C   0  0  0  0  0  2  0  0  0  0  0  0
  185.1710  177.2480  145.0300 N   0  0  0  0  0  2  0  0  0  0  0  0
  184.4600  178.5020  145.2250 C   0  0  0  0  0  2  0  0  0  0  0  0
  185.2530  179.8040  144.2440 S   0  0  0  0  0  1  0  0  0  0  0  0
  3  1  1  6  0  0  0
  3  7  1  0  0  0  0
  5 27  1  6  0  0  0
  5  2  1  0  0  0  0
  6  4  1  0  0  0  0
  6 10  1  0  0  0  0
  7  2  1  1  0  0  0
  7  4  1  0  0  0  0
  8  3  1  0  0  0  0
  8 11  1  0  0  0  0
  9  1  1  1  0  0  0
  9  5  1  0  0  0  0
 11  6  2  0  0  0  0
 12 14  1  1  0  0  0
 12 19  1  0  0  0  0
 15 23  1  1  0  0  0
 15 12  1  0  0  0  0
 16 13  1  1  0  0  0
 16 21  1  0  0  0  0
 17 18  1  1  0  0  0
 17 15  1  0  0  0  0
 17 12  1  0  0  0  0
 18 16  1  0  0  0  0
 19 21  1  0  0  0  0
 19 20  1  1  0  0  0
 21  9  1  6  0  0  0
 23 22  1  0  0  0  0
 24 29  1  0  0  0  0
 25 28  1  0  0  0  0
 26 25  1  0  0  0  0
 26 27  1  0  0  0  0
 27 29  1  0  0  0  0
 28 24  1  0  0  0  0
 30 31  1  0  0  0  0
 30 11  1  0  0  0  0
 32 31  1  0  0  0  0
M  END
>  <MODEL>
3

>  <REMARK>
 VINA RESULT:      -7.1      1.236      1.292
  Name = 
  5 active torsions:
  status: ('A' for Active; 'I' for Inactive)
    1  A    between atoms: N_10  and  C_28
    2  A    between atoms: N_14  and  C_21
    3  A    between atoms: N_14  and  C_29
    4  A    between atoms: C_15  and  C_26
    5  A    between atoms: C_24  and  C_27
                            x       y       z     vdW  Elec       q    Type
                         _______ _______ _______ _____ _____    ______ ____

>  <TORSDO>
F 5

$$$$
=
 OpenBabel11052419093D

 32 36  0  0  1  0  0  0  0  0999 V2000
  189.4570  174.4400  144.4510 C   0  0  0  0  0  2  0  0  0  0  0  0
  189.9540  174.9390  141.7150 C   0  0  0  0  0  2  0  0  0  0  0  0
  188.5230  175.3730  143.6740 C   0  0  2  0  0  3  0  0  0  0  0  0
  188.1220  176.6650  141.6180 C   0  0  0  0  0  2  0  0  0  0  0  0
  191.0820  174.4200  142.5090 N   0  0  1  0  0  0  0  0  0  0  0  0
  187.2410  177.5860  142.4310 C   0  0  0  0  0  0  0  0  0  0  0  0
  189.1950  176.0120  142.4740 C   0  0  2  0  0  3  0  0  0  0  0  0
  187.9620  176.4780  144.5560 C   0  0  0  0  0  2  0  0  0  0  0  0
  190.9280  174.5040  143.9860 C   0  0  1  0  0  3  0  0  0  0  0  0
  186.5240  178.5470  141.7300 O   0  0  0  0  0  1  0  0  0  0  0  0
  187.1110  177.4560  143.7780 C   0  0  0  0  0  0  0  0  0  0  0  0
  194.1060  176.2810  145.2790 C   0  0  1  0  0  0  0  0  0  0  0  0
  191.1580  177.1760  146.4260 O   0  0  0  0  0  1  0  0  0  0  0  0
  194.7200  177.5160  145.0530 O   0  0  0  0  0  1  0  0  0  0  0  0
  194.9650  175.3040  146.0730 C   0  0  1  0  0  3  0  0  0  0  0  0
  191.3770  175.8440  146.0700 C   0  0  2  0  0  3  0  0  0  0  0  0
  193.7890  176.0410  146.7490 C   0  0  2  0  0  3  0  0  0  0  0  0
  192.4950  175.2350  146.9140 C   0  0  0  0  0  2  0  0  0  0  0  0
  193.1550  175.7240  144.1940 C   0  0  2  0  0  3  0  0  0  0  0  0
  193.3870  176.4010  142.8510 C   0  0  0  0  0  1  0  0  0  0  0  0
  191.6530  175.7370  144.5600 C   0  0  1  0  0  3  0  0  0  0  0  0
  195.9840  173.1410  145.3860 C   0  0  0  0  0  1  0  0  0  0  0  0
  194.6890  173.8320  145.7620 C   0  0  0  0  0  2  0  0  0  0  0  0
  192.3180  170.8230  142.8670 C   0  0  0  0  0  2  0  0  0  0  0  0
  190.4410  170.7270  141.6460 C   0  0  0  0  0  2  0  0  0  0  0  0
  190.1410  172.2320  141.6930 C   0  0  0  0  0  2  0  0  0  0  0  0
  191.3890  173.0530  142.0740 C   0  0  0  0  0  3  0  0  0  0  0  0
  191.8250  170.4840  141.5950 O   0  0  0  0  0  0  0  0  0  0  0  0
  192.3020  172.3420  143.0830 C   0  0  0  0  0  2  0  0  0  0  0  0
  186.2430  178.2930  144.5590 N   0  0  0  0  0  2  0  0  0  0  0  0
  184.8190  178.0940  144.7740 C   0  0  0  0  0  2  0  0  0  0  0  0
  184.4410  178.2910  146.5360 S   0  0  0  0  0  1  0  0  0  0  0  0
  2  7  1  0  0  0  0
  2  5  1  0  0  0  0
  3  1  1  1  0  0  0
  3  8  1  0  0  0  0
  4  6  1  0  0  0  0
  5 27  1  1  0  0  0
  5  9  1  0  0  0  0
  6 11  2  0  0  0  0
  7  4  1  6  0  0  0
  7  3  1  0  0  0  0
  9  1  1  6  0  0  0
 10  6  1  0  0  0  0
 11  8  1  0  0  0  0
 11 30  1  0  0  0  0
 12 14  1  6  0  0  0
 12 15  1  0  0  0  0
 12 17  1  0  0  0  0
 15 23  1  6  0  0  0
 15 17  1  0  0  0  0
 16 13  1  1  0  0  0
 16 18  1  0  0  0  0
 17 18  1  6  0  0  0
 19 20  1  6  0  0  0
 19 21  1  0  0  0  0
 19 12  1  0  0  0  0
 21  9  1  1  0  0  0
 21 16  1  0  0  0  0
 22 23  1  0  0  0  0
 24 29  1  0  0  0  0
 25 26  1  0  0  0  0
 26 27  1  0  0  0  0
 27 29  1  0  0  0  0
 28 25  1  0  0  0  0
 28 24  1  0  0  0  0
 30 31  1  0  0  0  0
 31 32  1  0  0  0  0
M  END
>  <MODEL>
4

>  <REMARK>
 VINA RESULT:      -6.8      2.127      5.171
  Name = 
  5 active torsions:
  status: ('A' for Active; 'I' for Inactive)
    1  A    between atoms: N_10  and  C_28
    2  A    between atoms: N_14  and  C_21
    3  A    between atoms: N_14  and  C_29
    4  A    between atoms: C_15  and  C_26
    5  A    between atoms: C_24  and  C_27
                            x       y       z     vdW  Elec       q    Type
                         _______ _______ _______ _____ _____    ______ ____

>  <TORSDO>
F 5

$$$$
=
 OpenBabel11052419093D

 32 36  0  0  1  0  0  0  0  0999 V2000
  189.6960  174.3140  144.4540 C   0  0  0  0  0  2  0  0  0  0  0  0
  189.8890  174.9090  141.6980 C   0  0  0  0  0  2  0  0  0  0  0  0
  188.7230  175.3200  143.8310 C   0  0  2  0  0  3  0  0  0  0  0  0
  188.1450  176.7170  141.8890 C   0  0  0  0  0  2  0  0  0  0  0  0
  191.0770  174.3070  142.3310 N   0  0  1  0  0  0  0  0  0  0  0  0
  187.4130  177.6390  142.8360 C   0  0  0  0  0  0  0  0  0  0  0  0
  189.2780  175.9800  142.5830 C   0  0  2  0  0  3  0  0  0  0  0  0
  188.3260  176.4090  144.8150 C   0  0  0  0  0  2  0  0  0  0  0  0
  191.1030  174.3340  143.8180 C   0  0  1  0  0  3  0  0  0  0  0  0
  186.6660  178.6600  142.2630 O   0  0  0  0  0  1  0  0  0  0  0  0
  187.4370  177.4560  144.1830 C   0  0  0  0  0  0  0  0  0  0  0  0
  194.4730  175.8630  144.9290 C   0  0  1  0  0  0  0  0  0  0  0  0
  191.6700  176.9790  146.2320 O   0  0  0  0  0  1  0  0  0  0  0  0
  195.1660  177.0470  144.6660 O   0  0  0  0  0  1  0  0  0  0  0  0
  195.2970  174.8220  145.6790 C   0  0  1  0  0  3  0  0  0  0  0  0
  191.7660  175.6340  145.8690 C   0  0  2  0  0  3  0  0  0  0  0  0
  194.2200  175.6460  146.4150 C   0  0  2  0  0  3  0  0  0  0  0  0
  192.8790  174.9420  146.6530 C   0  0  0  0  0  2  0  0  0  0  0  0
  193.4250  175.3800  143.8990 C   0  0  2  0  0  3  0  0  0  0  0  0
  193.6330  176.0380  142.5440 C   0  0  0  0  0  1  0  0  0  0  0  0
  191.9500  175.5070  144.3470 C   0  0  1  0  0  3  0  0  0  0  0  0
  196.0670  172.4570  145.6580 C   0  0  0  0  0  1  0  0  0  0  0  0
  194.8930  173.3760  145.3890 C   0  0  0  0  0  2  0  0  0  0  0  0
  190.4400  171.3120  140.0470 C   0  0  0  0  0  2  0  0  0  0  0  0
  192.6630  171.4620  140.2860 C   0  0  0  0  0  2  0  0  0  0  0  0
  192.6460  172.7190  141.1680 C   0  0  0  0  0  2  0  0  0  0  0  0
  191.2630  172.9480  141.8110 C   0  0  0  0  0  3  0  0  0  0  0  0
  191.5610  170.6340  140.5570 O   0  0  0  0  0  0  0  0  0  0  0  0
  190.0940  172.5370  140.9040 C   0  0  0  0  0  2  0  0  0  0  0  0
  186.7100  178.2960  145.0940 N   0  0  0  0  0  2  0  0  0  0  0  0
  186.2110  177.9150  146.4060 C   0  0  0  0  0  2  0  0  0  0  0  0
  184.4410  178.2910  146.5120 S   0  0  0  0  0  1  0  0  0  0  0  0
  2  5  1  0  0  0  0
  3  1  1  1  0  0  0
  3  8  1  0  0  0  0
  4  7  1  0  0  0  0
  4  6  1  0  0  0  0
  5 27  1  1  0  0  0
  5  9  1  0  0  0  0
  6 11  2  0  0  0  0
  7  2  1  6  0  0  0
  7  3  1  0  0  0  0
  9  1  1  1  0  0  0
 10  6  1  0  0  0  0
 11  8  1  0  0  0  0
 11 30  1  0  0  0  0
 12 14  1  6  0  0  0
 12 15  1  0  0  0  0
 12 17  1  0  0  0  0
 15 23  1  6  0  0  0
 15 17  1  0  0  0  0
 16 13  1  6  0  0  0
 16 18  1  0  0  0  0
 17 18  1  6  0  0  0
 19 20  1  6  0  0  0
 19 21  1  0  0  0  0
 19 12  1  0  0  0  0
 21  9  1  1  0  0  0
 21 16  1  0  0  0  0
 23 22  1  0  0  0  0
 24 28  1  0  0  0  0
 24 29  1  0  0  0  0
 25 28  1  0  0  0  0
 25 26  1  0  0  0  0
 26 27  1  0  0  0  0
 29 27  1  0  0  0  0
 30 31  1  0  0  0  0
 31 32  1  0  0  0  0
M  END
>  <MODEL>
5

>  <REMARK>
 VINA RESULT:      -6.8      2.120      5.326
  Name = 
  5 active torsions:
  status: ('A' for Active; 'I' for Inactive)
    1  A    between atoms: N_10  and  C_28
    2  A    between atoms: N_14  and  C_21
    3  A    between atoms: N_14  and  C_29
    4  A    between atoms: C_15  and  C_26
    5  A    between atoms: C_24  and  C_27
                            x       y       z     vdW  Elec       q    Type
                         _______ _______ _______ _____ _____    ______ ____

>  <TORSDO>
F 5

$$$$
=
 OpenBabel11052419093D

 32 36  0  0  1  0  0  0  0  0999 V2000
  190.3180  174.0270  144.8470 C   0  0  0  0  0  2  0  0  0  0  0  0
  190.3080  173.2550  142.1290 C   0  0  0  0  0  2  0  0  0  0  0  0
  189.2930  174.6460  143.8920 C   0  0  2  0  0  3  0  0  0  0  0  0
  188.5630  174.9820  141.5660 C   0  0  0  0  0  2  0  0  0  0  0  0
  191.5440  172.9920  142.8880 N   0  0  1  0  0  0  0  0  0  0  0  0
  187.8900  176.2580  142.0160 C   0  0  0  0  0  0  0  0  0  0  0  0
  189.7510  174.6300  142.4460 C   0  0  2  0  0  3  0  0  0  0  0  0
  188.9550  176.0790  144.2740 C   0  0  0  0  0  2  0  0  0  0  0  0
  191.6770  173.7120  144.1820 C   0  0  1  0  0  3  0  0  0  0  0  0
  187.0930  176.9090  141.0830 O   0  0  0  0  0  1  0  0  0  0  0  0
  188.0120  176.7280  143.2860 C   0  0  0  0  0  0  0  0  0  0  0  0
  195.1000  175.5020  144.2150 C   0  0  1  0  0  0  0  0  0  0  0  0
  192.3840  177.1670  145.0240 O   0  0  0  0  0  1  0  0  0  0  0  0
  195.7610  176.4060  143.3800 O   0  0  0  0  0  1  0  0  0  0  0  0
  195.9860  174.9170  145.3100 C   0  0  1  0  0  3  0  0  0  0  0  0
  192.4680  175.8070  145.3310 C   0  0  2  0  0  3  0  0  0  0  0  0
  194.9540  176.0160  145.6420 C   0  0  2  0  0  3  0  0  0  0  0  0
  193.6410  175.5390  146.2720 C   0  0  0  0  0  2  0  0  0  0  0  0
  193.9870  174.6180  143.6070 C   0  0  2  0  0  3  0  0  0  0  0  0
  194.0930  174.5560  142.0900 C   0  0  0  0  0  1  0  0  0  0  0  0
  192.5460  174.9760  144.0390 C   0  0  1  0  0  3  0  0  0  0  0  0
  196.8160  172.6720  145.9870 C   0  0  0  0  0  1  0  0  0  0  0  0
  195.5770  173.5140  145.7620 C   0  0  0  0  0  2  0  0  0  0  0  0
  192.6790  169.4630  141.9620 C   0  0  0  0  0  2  0  0  0  0  0  0
  193.0860  169.7030  144.1530 C   0  0  0  0  0  2  0  0  0  0  0  0
  192.6060  171.1580  144.2480 C   0  0  0  0  0  2  0  0  0  0  0  0
  191.7080  171.5430  143.0550 C   0  0  0  0  0  3  0  0  0  0  0  0
  192.3190  168.9720  143.2300 O   0  0  0  0  0  0  0  0  0  0  0  0
  192.1260  170.8770  141.7370 C   0  0  0  0  0  2  0  0  0  0  0  0
  187.3430  177.9150  143.7430 N   0  0  0  0  0  2  0  0  0  0  0  0
  186.1030  177.9670  144.5010 C   0  0  0  0  0  2  0  0  0  0  0  0
  185.3170  179.5820  144.2630 S   0  0  0  0  0  1  0  0  0  0  0  0
  2  7  1  0  0  0  0
  2  5  1  0  0  0  0
  3  8  1  1  0  0  0
  3  1  1  0  0  0  0
  4  6  1  0  0  0  0
  5 27  1  1  0  0  0
  5  9  1  0  0  0  0
  6 11  2  0  0  0  0
  7  4  1  6  0  0  0
  7  3  1  0  0  0  0
  9  1  1  6  0  0  0
 10  6  1  0  0  0  0
 11 30  1  0  0  0  0
 11  8  1  0  0  0  0
 12 14  1  6  0  0  0
 12 15  1  0  0  0  0
 12 17  1  0  0  0  0
 15 17  1  0  0  0  0
 15 23  1  1  0  0  0
 16 13  1  6  0  0  0
 16 18  1  0  0  0  0
 17 18  1  1  0  0  0
 19 20  1  6  0  0  0
 19 21  1  0  0  0  0
 19 12  1  0  0  0  0
 21  9  1  1  0  0  0
 21 16  1  0  0  0  0
 23 22  1  0  0  0  0
 24 28  1  0  0  0  0
 25 26  1  0  0  0  0
 27 26  1  0  0  0  0
 28 25  1  0  0  0  0
 29 24  1  0  0  0  0
 29 27  1  0  0  0  0
 30 31  1  0  0  0  0
 32 31  1  0  0  0  0
M  END
>  <MODEL>
6

>  <REMARK>
 VINA RESULT:      -6.4      2.338      5.593
  Name = 
  5 active torsions:
  status: ('A' for Active; 'I' for Inactive)
    1  A    between atoms: N_10  and  C_28
    2  A    between atoms: N_14  and  C_21
    3  A    between atoms: N_14  and  C_29
    4  A    between atoms: C_15  and  C_26
    5  A    between atoms: C_24  and  C_27
                            x       y       z     vdW  Elec       q    Type
                         _______ _______ _______ _____ _____    ______ ____

>  <TORSDO>
F 5

$$$$
=
 OpenBabel11052419093D

 32 36  0  0  1  0  0  0  0  0999 V2000
  190.2650  173.5710  142.7520 C   0  0  0  0  0  2  0  0  0  0  0  0
  192.4840  175.2750  143.1500 C   0  0  0  0  0  2  0  0  0  0  0  0
  191.3940  173.5940  141.7150 C   0  0  2  0  0  3  0  0  0  0  0  0
  193.4230  174.7090  140.8820 C   0  0  0  0  0  2  0  0  0  0  0  0
  191.2580  175.5970  143.9020 N   0  0  1  0  0  0  0  0  0  0  0  0
  193.1100  174.1430  139.5160 C   0  0  0  0  0  0  0  0  0  0  0  0
  192.1660  174.8990  141.7150 C   0  0  2  0  0  3  0  0  0  0  0  0
  190.8760  173.3400  140.3080 C   0  0  0  0  0  2  0  0  0  0  0  0
  190.0130  174.9380  143.4260 C   0  0  1  0  0  3  0  0  0  0  0  0
  194.0720  174.3190  138.5300 O   0  0  0  0  0  1  0  0  0  0  0  0
  191.9670  173.4490  139.2670 C   0  0  0  0  0  0  0  0  0  0  0  0
  187.4120  177.7500  142.9200 C   0  0  1  0  0  0  0  0  0  0  0  0
  187.7970  175.4510  140.6030 O   0  0  0  0  0  1  0  0  0  0  0  0
  187.3450  178.9220  142.1630 O   0  0  0  0  0  1  0  0  0  0  0  0
  186.2910  177.6150  143.9440 C   0  0  1  0  0  3  0  0  0  0  0  0
  187.9860  175.1080  141.9430 C   0  0  2  0  0  3  0  0  0  0  0  0
  186.2580  176.7980  142.6360 C   0  0  2  0  0  3  0  0  0  0  0  0
  186.7050  175.3350  142.7440 C   0  0  0  0  0  2  0  0  0  0  0  0
  188.8070  177.1760  143.2640 C   0  0  2  0  0  3  0  0  0  0  0  0
  189.8960  178.2250  143.1010 C   0  0  0  0  0  1  0  0  0  0  0  0
  189.1880  175.8740  142.5220 C   0  0  1  0  0  3  0  0  0  0  0  0
  185.5370  176.8530  146.1880 C   0  0  0  0  0  1  0  0  0  0  0  0
  186.6690  176.8030  145.1840 C   0  0  0  0  0  2  0  0  0  0  0  0
  192.3660  176.4170  147.4650 C   0  0  0  0  0  2  0  0  0  0  0  0
  190.4310  175.3020  147.6460 C   0  0  0  0  0  2  0  0  0  0  0  0
  190.1920  175.1450  146.1380 C   0  0  0  0  0  2  0  0  0  0  0  0
  191.4890  175.3510  145.3300 C   0  0  0  0  0  3  0  0  0  0  0  0
  191.7990  175.2280  147.9580 O   0  0  0  0  0  0  0  0  0  0  0  0
  192.4210  176.4130  145.9310 C   0  0  0  0  0  2  0  0  0  0  0  0
  191.6760  172.8660  137.9870 N   0  0  0  0  0  2  0  0  0  0  0  0
  191.2010  173.5720  136.8070 C   0  0  0  0  0  2  0  0  0  0  0  0
  189.4110  173.8280  136.9360 S   0  0  0  0  0  1  0  0  0  0  0  0
  2  5  1  0  0  0  0
  3  8  1  6  0  0  0
  3  7  1  0  0  0  0
  3  1  1  0  0  0  0
  5 27  1  1  0  0  0
  6  4  1  0  0  0  0
  7  4  1  6  0  0  0
  7  2  1  0  0  0  0
  9  1  1  6  0  0  0
  9  5  1  0  0  0  0
 10  6  1  0  0  0  0
 11  6  2  0  0  0  0
 11  8  1  0  0  0  0
 12 14  1  6  0  0  0
 12 19  1  0  0  0  0
 12 15  1  0  0  0  0
 15 23  1  1  0  0  0
 16 13  1  6  0  0  0
 16 21  1  0  0  0  0
 16 18  1  0  0  0  0
 17 18  1  1  0  0  0
 17 12  1  0  0  0  0
 17 15  1  0  0  0  0
 19 20  1  6  0  0  0
 21 19  1  0  0  0  0
 21  9  1  1  0  0  0
 23 22  1  0  0  0  0
 24 28  1  0  0  0  0
 25 28  1  0  0  0  0
 26 25  1  0  0  0  0
 27 29  1  0  0  0  0
 27 26  1  0  0  0  0
 29 24  1  0  0  0  0
 30 11  1  0  0  0  0
 31 32  1  0  0  0  0
 31 30  1  0  0  0  0
M  END
>  <MODEL>
7

>  <REMARK>
 VINA RESULT:      -6.3      3.106      6.651
  Name = 
  5 active torsions:
  status: ('A' for Active; 'I' for Inactive)
    1  A    between atoms: N_10  and  C_28
    2  A    between atoms: N_14  and  C_21
    3  A    between atoms: N_14  and  C_29
    4  A    between atoms: C_15  and  C_26
    5  A    between atoms: C_24  and  C_27
                            x       y       z     vdW  Elec       q    Type
                         _______ _______ _______ _____ _____    ______ ____

>  <TORSDO>
F 5

$$$$
=
 OpenBabel11052419093D

 32 36  0  0  1  0  0  0  0  0999 V2000
  192.4760  174.9960  141.8420 C   0  0  0  0  0  2  0  0  0  0  0  0
  191.9740  172.3640  142.7400 C   0  0  0  0  0  2  0  0  0  0  0  0
  193.6420  174.1330  142.3380 C   0  0  2  0  0  3  0  0  0  0  0  0
  194.3600  172.0840  143.4960 C   0  0  0  0  0  2  0  0  0  0  0  0
  190.8210  173.2810  142.6990 N   0  0  1  0  0  0  0  0  0  0  0  0
  195.6360  172.8040  143.8680 C   0  0  0  0  0  0  0  0  0  0  0  0
  193.2030  173.0510  143.3050 C   0  0  2  0  0  3  0  0  0  0  0  0
  194.7210  174.9690  143.0080 C   0  0  0  0  0  2  0  0  0  0  0  0
  191.1460  174.7270  142.5810 C   0  0  1  0  0  3  0  0  0  0  0  0
  196.6280  172.0460  144.4760 O   0  0  0  0  0  1  0  0  0  0  0  0
  195.8330  174.1180  143.5790 C   0  0  0  0  0  0  0  0  0  0  0  0
  189.2410  176.5040  145.4350 C   0  0  1  0  0  0  0  0  0  0  0  0
  192.3960  177.2400  144.8770 O   0  0  0  0  0  1  0  0  0  0  0  0
  189.2060  176.3990  146.8280 O   0  0  0  0  0  1  0  0  0  0  0  0
  188.1420  177.3890  144.8580 C   0  0  1  0  0  3  0  0  0  0  0  0
  191.5770  176.8860  143.8030 C   0  0  2  0  0  3  0  0  0  0  0  0
  189.5920  177.9070  144.9590 C   0  0  2  0  0  3  0  0  0  0  0  0
  190.4130  177.8660  143.6650 C   0  0  0  0  0  2  0  0  0  0  0  0
  189.7180  175.2810  144.6170 C   0  0  2  0  0  3  0  0  0  0  0  0
  189.6490  174.0020  145.4380 C   0  0  0  0  0  1  0  0  0  0  0  0
  191.1060  175.4290  143.9530 C   0  0  1  0  0  3  0  0  0  0  0  0
  186.3060  176.4350  143.4780 C   0  0  0  0  0  1  0  0  0  0  0  0
  187.7090  177.0050  143.4420 C   0  0  0  0  0  2  0  0  0  0  0  0
  188.4120  173.6920  139.7620 C   0  0  0  0  0  2  0  0  0  0  0  0
  189.7020  171.9250  139.2790 C   0  0  0  0  0  2  0  0  0  0  0  0
  190.5710  172.0080  140.5420 C   0  0  0  0  0  2  0  0  0  0  0  0
  189.8960  172.8470  141.6460 C   0  0  0  0  0  3  0  0  0  0  0  0
  188.3750  172.3040  139.5460 O   0  0  0  0  0  0  0  0  0  0  0  0
  189.0820  174.0290  141.1020 C   0  0  0  0  0  2  0  0  0  0  0  0
  197.0570  174.8060  143.8850 N   0  0  0  0  0  2  0  0  0  0  0  0
  197.6650  175.8700  143.1020 C   0  0  0  0  0  2  0  0  0  0  0  0
  197.9280  175.2960  141.4030 S   0  0  0  0  0  1  0  0  0  0  0  0
  3  1  1  1  0  0  0
  3  8  1  0  0  0  0
  3  7  1  0  0  0  0
  4  6  1  0  0  0  0
  5 27  1  6  0  0  0
  5  2  1  0  0  0  0
  6 10  1  0  0  0  0
  7  2  1  6  0  0  0
  7  4  1  0  0  0  0
  8 11  1  0  0  0  0
  9  1  1  1  0  0  0
  9  5  1  0  0  0  0
 11  6  2  0  0  0  0
 11 30  1  0  0  0  0
 12 14  1  1  0  0  0
 15 23  1  6  0  0  0
 15 17  1  0  0  0  0
 15 12  1  0  0  0  0
 16 21  1  0  0  0  0
 16 13  1  1  0  0  0
 17 18  1  6  0  0  0
 17 12  1  0  0  0  0
 18 16  1  0  0  0  0
 19 12  1  0  0  0  0
 19 20  1  1  0  0  0
 21  9  1  6  0  0  0
 21 19  1  0  0  0  0
 23 22  1  0  0  0  0
 24 29  1  0  0  0  0
 25 28  1  0  0  0  0
 25 26  1  0  0  0  0
 26 27  1  0  0  0  0
 28 24  1  0  0  0  0
 29 27  1  0  0  0  0
 31 30  1  0  0  0  0
 32 31  1  0  0  0  0
M  END
>  <MODEL>
8

>  <REMARK>
 VINA RESULT:      -6.2      3.686      7.942
  Name = 
  5 active torsions:
  status: ('A' for Active; 'I' for Inactive)
    1  A    between atoms: N_10  and  C_28
    2  A    between atoms: N_14  and  C_21
    3  A    between atoms: N_14  and  C_29
    4  A    between atoms: C_15  and  C_26
    5  A    between atoms: C_24  and  C_27
                            x       y       z     vdW  Elec       q    Type
                         _______ _______ _______ _____ _____    ______ ____

>  <TORSDO>
F 5

$$$$
=
 OpenBabel11052419093D

 32 36  0  0  1  0  0  0  0  0999 V2000
  192.6050  174.3180  146.0580 C   0  0  0  0  0  2  0  0  0  0  0  0
  192.3240  176.6930  144.5530 C   0  0  0  0  0  2  0  0  0  0  0  0
  193.8570  175.0540  145.5720 C   0  0  2  0  0  3  0  0  0  0  0  0
  194.8040  176.8040  144.1240 C   0  0  0  0  0  2  0  0  0  0  0  0
  191.1490  175.8050  144.6140 N   0  0  1  0  0  0  0  0  0  0  0  0
  196.0970  176.0220  144.1120 C   0  0  0  0  0  0  0  0  0  0  0  0
  193.6010  175.9010  144.3400 C   0  0  2  0  0  3  0  0  0  0  0  0
  194.9960  174.0940  145.2670 C   0  0  0  0  0  2  0  0  0  0  0  0
  191.4070  174.4190  145.0870 C   0  0  1  0  0  3  0  0  0  0  0  0
  197.1920  176.6310  143.5130 O   0  0  0  0  0  1  0  0  0  0  0  0
  196.2070  174.8020  144.7010 C   0  0  0  0  0  0  0  0  0  0  0  0
  190.3280  173.0930  141.6220 C   0  0  1  0  0  0  0  0  0  0  0  0
  191.6570  171.0340  143.8120 O   0  0  0  0  0  1  0  0  0  0  0  0
  190.9840  172.7320  140.4430 O   0  0  0  0  0  1  0  0  0  0  0  0
  188.8120  173.1760  141.4800 C   0  0  1  0  0  3  0  0  0  0  0  0
  190.8760  172.1000  144.2630 C   0  0  2  0  0  3  0  0  0  0  0  0
  189.4680  171.9700  142.1850 C   0  0  2  0  0  3  0  0  0  0  0  0
  189.4530  171.9960  143.7180 C   0  0  0  0  0  2  0  0  0  0  0  0
  191.0380  174.0680  142.5910 C   0  0  2  0  0  3  0  0  0  0  0  0
  192.1540  174.8300  141.8930 C   0  0  0  0  0  1  0  0  0  0  0  0
  191.5480  173.4370  143.9070 C   0  0  1  0  0  3  0  0  0  0  0  0
  187.8160  175.4460  141.6770 C   0  0  0  0  0  1  0  0  0  0  0  0
  188.1480  174.1740  142.4300 C   0  0  0  0  0  2  0  0  0  0  0  0
  187.9060  177.7370  145.2030 C   0  0  0  0  0  2  0  0  0  0  0  0
  187.9530  176.1010  146.7330 C   0  0  0  0  0  2  0  0  0  0  0  0
  189.2740  175.4770  146.2620 C   0  0  0  0  0  2  0  0  0  0  0  0
  190.0940  176.4560  145.3990 C   0  0  0  0  0  3  0  0  0  0  0  0
  187.9680  177.4990  146.5870 O   0  0  0  0  0  0  0  0  0  0  0  0
  189.2260  177.3630  144.5150 C   0  0  0  0  0  2  0  0  0  0  0  0
  197.4400  174.0650  144.7390 N   0  0  0  0  0  2  0  0  0  0  0  0
  197.7200  172.8180  144.0440 C   0  0  0  0  0  2  0  0  0  0  0  0
  197.9290  173.1460  142.2740 S   0  0  0  0  0  1  0  0  0  0  0  0
  2  5  1  0  0  0  0
  3  8  1  6  0  0  0
  3  1  1  0  0  0  0
  5  9  1  0  0  0  0
  5 27  1  1  0  0  0
  6  4  1  0  0  0  0
  6 11  2  0  0  0  0
  7  4  1  1  0  0  0
  7  2  1  0  0  0  0
  7  3  1  0  0  0  0
  9  1  1  6  0  0  0
 10  6  1  0  0  0  0
 11 30  1  0  0  0  0
 11  8  1  0  0  0  0
 12 14  1  6  0  0  0
 12 17  1  0  0  0  0
 12 19  1  0  0  0  0
 15 12  1  0  0  0  0
 15 17  1  0  0  0  0
 15 23  1  1  0  0  0
 16 13  1  6  0  0  0
 17 18  1  1  0  0  0
 18 16  1  0  0  0  0
 19 20  1  6  0  0  0
 19 21  1  0  0  0  0
 21 16  1  0  0  0  0
 21  9  1  1  0  0  0
 22 23  1  0  0  0  0
 24 28  1  0  0  0  0
 26 25  1  0  0  0  0
 27 26  1  0  0  0  0
 28 25  1  0  0  0  0
 29 24  1  0  0  0  0
 29 27  1  0  0  0  0
 31 30  1  0  0  0  0
 32 31  1  0  0  0  0
M  END
>  <MODEL>
9

>  <REMARK>
 VINA RESULT:      -6.2      3.498      7.132
  Name = 
  5 active torsions:
  status: ('A' for Active; 'I' for Inactive)
    1  A    between atoms: N_10  and  C_28
    2  A    between atoms: N_14  and  C_21
    3  A    between atoms: N_14  and  C_29
    4  A    between atoms: C_15  and  C_26
    5  A    between atoms: C_24  and  C_27
                            x       y       z     vdW  Elec       q    Type
                         _______ _______ _______ _____ _____    ______ ____

>  <TORSDO>
F 5

$$$$
