=
 OpenBabel11052420113D

 37 37  0  0  1  0  0  0  0  0999 V2000
  190.2790  176.3830  142.4950 O   0  0  0  0  0  1  0  0  0  0  0  0
  189.4710  175.5740  143.3110 C   0  0  1  0  0  0  0  0  0  0  0  0
  189.3900  177.6930  144.5140 O   0  0  0  0  0  0  0  0  0  0  0  0
  190.2100  176.8950  145.3370 C   0  0  2  0  0  3  0  0  0  0  0  0
  189.0590  176.3260  144.5930 C   0  0  2  0  0  3  0  0  0  0  0  0
  189.8110  177.0990  146.7860 C   0  0  0  0  0  2  0  0  0  0  0  0
  192.1280  176.6720  147.0160 F   0  0  0  0  0  0  0  0  0  0  0  0
  190.9440  176.7160  147.7270 C   0  0  0  0  0  0  0  0  0  0  0  0
  190.7030  175.4710  148.2770 F   0  0  0  0  0  0  0  0  0  0  0  0
  191.0610  177.6530  148.7380 F   0  0  0  0  0  0  0  0  0  0  0  0
  188.1840  175.2160  142.5340 C   0  0  2  0  0  3  0  0  0  0  0  0
  188.3750  174.0270  140.2480 C   0  0  0  0  0  0  0  0  0  0  0  0
  188.3750  175.1930  141.0790 N   0  0  0  0  0  2  0  0  0  0  0  0
  188.2880  172.8760  140.7490 O   0  0  0  0  0  0  0  0  0  0  0  0
  188.4960  174.1710  138.8400 N   0  0  0  0  0  1  0  0  0  0  0  0
  186.9500  176.0130  142.9550 C   0  0  0  0  0  2  0  0  0  0  0  0
  186.4710  176.9000  141.8230 C   0  0  0  0  0  2  0  0  0  0  0  0
  185.5490  177.9620  142.3800 C   0  0  0  0  0  2  0  0  0  0  0  0
  186.3020  178.9630  142.9960 O   0  0  0  0  0  0  0  0  0  0  0  0
  184.1120  178.8580  143.9220 C   0  0  0  0  0  1  0  0  0  0  0  0
  185.5350  179.3610  144.0920 C   0  0  1  0  0  3  0  0  0  0  0  0
  186.1420  178.7960  145.3670 C   0  0  0  0  0  2  0  0  0  0  0  0
  186.0320  176.9560  147.0490 C   0  0  0  0  0  1  0  0  0  0  0  0
  185.2920  177.6670  145.9320 C   0  0  0  0  0  2  0  0  0  0  0  0
  190.2630  174.3330  143.7480 C   0  0  0  0  0  2  0  0  0  0  0  0
  191.1770  173.7820  142.6590 C   0  0  0  0  0  2  0  0  0  0  0  0
  192.5970  173.6350  143.1880 C   0  0  0  0  0  2  0  0  0  0  0  0
  193.5370  174.3900  142.3680 N   0  0  0  0  0  0  0  0  0  0  0  0
  194.8770  176.2830  142.0660 O   0  0  0  0  0  0  0  0  0  0  0  0
  194.0730  175.6520  142.8040 C   0  0  0  0  0  0  0  0  0  0  0  0
  194.0420  173.7620  141.1570 C   0  0  0  0  0  1  0  0  0  0  0  0
  193.6850  176.2450  144.1200 C   0  0  0  0  0  2  0  0  0  0  0  0
  194.9010  176.4140  145.0250 C   0  0  1  0  0  3  0  0  0  0  0  0
  194.8700  177.7760  145.6950 C   0  0  0  0  0  1  0  0  0  0  0  0
  195.0230  175.2900  146.0560 C   0  0  0  0  0  2  0  0  0  0  0  0
  195.9400  174.1680  145.5880 C   0  0  0  0  0  2  0  0  0  0  0  0
  196.9540  174.6990  144.7950 O   0  0  0  0  0  1  0  0  0  0  0  0
  2  1  1  6  0  0  0
  2 25  1  0  0  0  0
  3  5  1  0  0  0  0
  3  4  1  0  0  0  0
  4  6  1  1  0  0  0
  5  2  1  6  0  0  0
  5  4  1  0  0  0  0
  6  8  1  0  0  0  0
  7  8  1  0  0  0  0
  8  9  1  0  0  0  0
  8 10  1  0  0  0  0
 11 16  1  6  0  0  0
 11  2  1  0  0  0  0
 12 14  2  0  0  0  0
 12 13  1  0  0  0  0
 13 11  1  0  0  0  0
 15 12  1  0  0  0  0
 17 18  1  0  0  0  0
 17 16  1  0  0  0  0
 18 19  1  0  0  0  0
 19 21  1  0  0  0  0
 21 20  1  6  0  0  0
 21 22  1  0  0  0  0
 22 24  1  0  0  0  0
 24 23  1  0  0  0  0
 26 27  1  0  0  0  0
 26 25  1  0  0  0  0
 28 30  1  0  0  0  0
 28 27  1  0  0  0  0
 29 30  2  0  0  0  0
 30 32  1  0  0  0  0
 31 28  1  0  0  0  0
 32 33  1  0  0  0  0
 33 34  1  1  0  0  0
 33 35  1  0  0  0  0
 36 35  1  0  0  0  0
 37 36  1  0  0  0  0
M  END
>  <MODEL>
1

>  <REMARK>
 VINA RESULT:      -5.7      0.000      0.000
  Name = 
  20 active torsions:
  status: ('A' for Active; 'I' for Inactive)
    1  A    between atoms: C_1  and  N_5
    2  A    between atoms: C_1  and  C_36
    3  A    between atoms: C_6  and  O_8
    4  A    between atoms: C_6  and  C_31
    5  A    between atoms: C_7  and  C_33
    6  A    between atoms: O_8  and  C_19
    7  A    between atoms: C_10  and  C_14
    8  A    between atoms: C_10  and  C_20
    9  A    between atoms: C_10  and  N_22
   10  A    between atoms: C_11  and  C_26
   11  A    between atoms: C_11  and  C_33
   12  A    between atoms: C_14  and  C_31
   13  A    between atoms: C_16  and  C_30
   14  A    between atoms: C_17  and  C_26
   15  A    between atoms: C_18  and  C_19
   16  A    between atoms: C_18  and  C_35
   17  A    between atoms: C_20  and  C_24
   18  A    between atoms: C_20  and  C_29
   19  A    between atoms: C_21  and  C_30
   20  A    between atoms: C_29  and  C_36
                            x       y       z     vdW  Elec       q    Type
                         _______ _______ _______ _____ _____    ______ ____

>  <TORSDO>
F 20

$$$$
=
 OpenBabel11052420113D

 37 37  0  0  1  0  0  0  0  0999 V2000
  188.9000  174.5310  147.3250 O   0  0  0  0  0  1  0  0  0  0  0  0
  189.7230  175.2070  146.4100 C   0  0  1  0  0  0  0  0  0  0  0  0
  191.3360  176.2640  147.9020 O   0  0  0  0  0  0  0  0  0  0  0  0
  191.8530  176.5530  146.6240 C   0  0  2  0  0  3  0  0  0  0  0  0
  191.1770  175.2660  146.9210 C   0  0  2  0  0  3  0  0  0  0  0  0
  193.3550  176.3390  146.6330 C   0  0  0  0  0  2  0  0  0  0  0  0
  194.7320  178.0310  145.7160 F   0  0  0  0  0  0  0  0  0  0  0  0
  193.9990  176.9090  145.3780 C   0  0  0  0  0  0  0  0  0  0  0  0
  193.0240  177.2670  144.4650 F   0  0  0  0  0  0  0  0  0  0  0  0
  194.8450  175.9730  144.8100 F   0  0  0  0  0  0  0  0  0  0  0  0
  189.7190  174.4320  145.0730 C   0  0  2  0  0  3  0  0  0  0  0  0
  190.7650  172.1840  144.3500 C   0  0  0  0  0  0  0  0  0  0  0  0
  190.8290  173.4800  144.9530 N   0  0  0  0  0  2  0  0  0  0  0  0
  189.6730  171.7180  143.9320 O   0  0  0  0  0  0  0  0  0  0  0  0
  191.9470  171.4030  144.2390 N   0  0  0  0  0  1  0  0  0  0  0  0
  189.5600  175.3130  143.8340 C   0  0  0  0  0  2  0  0  0  0  0  0
  188.4830  174.7660  142.9200 C   0  0  0  0  0  2  0  0  0  0  0  0
  189.1110  174.3400  141.6110 C   0  0  0  0  0  2  0  0  0  0  0  0
  190.4700  174.6590  141.6160 O   0  0  0  0  0  0  0  0  0  0  0  0
  190.6900  173.4590  139.5720 C   0  0  0  0  0  1  0  0  0  0  0  0
  191.0960  173.5560  141.0320 C   0  0  1  0  0  3  0  0  0  0  0  0
  192.6050  173.7080  141.1490 C   0  0  0  0  0  2  0  0  0  0  0  0
  193.9980  175.7240  141.6180 C   0  0  0  0  0  1  0  0  0  0  0  0
  192.9760  174.7580  142.1860 C   0  0  0  0  0  2  0  0  0  0  0  0
  189.2370  176.6550  146.2550 C   0  0  0  0  0  2  0  0  0  0  0  0
  188.0360  176.9900  147.1320 C   0  0  0  0  0  2  0  0  0  0  0  0
  186.7480  176.8740  146.3290 C   0  0  0  0  0  2  0  0  0  0  0  0
  186.2450  178.1910  145.9590 N   0  0  0  0  0  0  0  0  0  0  0  0
  185.7040  179.7480  144.2990 O   0  0  0  0  0  0  0  0  0  0  0  0
  186.1340  178.5980  144.5830 C   0  0  0  0  0  0  0  0  0  0  0  0
  185.7110  179.0380  147.0150 C   0  0  0  0  0  1  0  0  0  0  0  0
  186.5330  177.6820  143.4710 C   0  0  0  0  0  2  0  0  0  0  0  0
  186.9650  178.4700  142.2400 C   0  0  1  0  0  3  0  0  0  0  0  0
  188.4600  178.3230  142.0210 C   0  0  0  0  0  1  0  0  0  0  0  0
  186.1780  178.0750  140.9880 C   0  0  0  0  0  2  0  0  0  0  0  0
  186.9020  177.0280  140.1520 C   0  0  0  0  0  2  0  0  0  0  0  0
  186.3690  177.0150  138.8650 O   0  0  0  0  0  1  0  0  0  0  0  0
  2  1  1  1  0  0  0
  4  6  1  1  0  0  0
  4  5  1  0  0  0  0
  4  3  1  0  0  0  0
  5  2  1  6  0  0  0
  5  3  1  0  0  0  0
  8  7  1  0  0  0  0
  8  6  1  0  0  0  0
  9  8  1  0  0  0  0
 10  8  1  0  0  0  0
 11 16  1  6  0  0  0
 11  2  1  0  0  0  0
 12 13  1  0  0  0  0
 13 11  1  0  0  0  0
 14 12  2  0  0  0  0
 15 12  1  0  0  0  0
 17 16  1  0  0  0  0
 18 19  1  0  0  0  0
 18 17  1  0  0  0  0
 21 20  1  6  0  0  0
 21 22  1  0  0  0  0
 21 19  1  0  0  0  0
 22 24  1  0  0  0  0
 23 24  1  0  0  0  0
 25  2  1  0  0  0  0
 25 26  1  0  0  0  0
 27 26  1  0  0  0  0
 28 27  1  0  0  0  0
 28 31  1  0  0  0  0
 29 30  2  0  0  0  0
 30 28  1  0  0  0  0
 32 30  1  0  0  0  0
 33 34  1  6  0  0  0
 33 32  1  0  0  0  0
 35 33  1  0  0  0  0
 36 35  1  0  0  0  0
 37 36  1  0  0  0  0
M  END
>  <MODEL>
2

>  <REMARK>
 VINA RESULT:      -5.4      2.809      7.087
  Name = 
  20 active torsions:
  status: ('A' for Active; 'I' for Inactive)
    1  A    between atoms: C_1  and  N_5
    2  A    between atoms: C_1  and  C_36
    3  A    between atoms: C_6  and  O_8
    4  A    between atoms: C_6  and  C_31
    5  A    between atoms: C_7  and  C_33
    6  A    between atoms: O_8  and  C_19
    7  A    between atoms: C_10  and  C_14
    8  A    between atoms: C_10  and  C_20
    9  A    between atoms: C_10  and  N_22
   10  A    between atoms: C_11  and  C_26
   11  A    between atoms: C_11  and  C_33
   12  A    between atoms: C_14  and  C_31
   13  A    between atoms: C_16  and  C_30
   14  A    between atoms: C_17  and  C_26
   15  A    between atoms: C_18  and  C_19
   16  A    between atoms: C_18  and  C_35
   17  A    between atoms: C_20  and  C_24
   18  A    between atoms: C_20  and  C_29
   19  A    between atoms: C_21  and  C_30
   20  A    between atoms: C_29  and  C_36
                            x       y       z     vdW  Elec       q    Type
                         _______ _______ _______ _____ _____    ______ ____

>  <TORSDO>
F 20

$$$$
=
 OpenBabel11052420113D

 37 37  0  0  1  0  0  0  0  0999 V2000
  190.1720  176.3490  142.4430 O   0  0  0  0  0  1  0  0  0  0  0  0
  189.5230  175.2330  142.9940 C   0  0  1  0  0  0  0  0  0  0  0  0
  189.4080  176.8220  144.8400 O   0  0  0  0  0  0  0  0  0  0  0  0
  190.3090  175.8490  145.3180 C   0  0  2  0  0  3  0  0  0  0  0  0
  189.1470  175.4890  144.4680 C   0  0  2  0  0  3  0  0  0  0  0  0
  189.9820  175.5340  146.7650 C   0  0  0  0  0  2  0  0  0  0  0  0
  192.2470  176.1880  146.9730 F   0  0  0  0  0  0  0  0  0  0  0  0
  191.0810  176.0230  147.6960 C   0  0  0  0  0  0  0  0  0  0  0  0
  191.3010  175.0950  148.6970 F   0  0  0  0  0  0  0  0  0  0  0  0
  190.7250  177.2350  148.2590 F   0  0  0  0  0  0  0  0  0  0  0  0
  188.2170  174.9790  142.2070 C   0  0  2  0  0  3  0  0  0  0  0  0
  188.3350  173.9810  139.8270 C   0  0  0  0  0  0  0  0  0  0  0  0
  188.3920  175.0710  140.7520 N   0  0  0  0  0  2  0  0  0  0  0  0
  188.2050  172.7960  140.2310 O   0  0  0  0  0  0  0  0  0  0  0  0
  188.4490  174.2380  138.4340 N   0  0  0  0  0  1  0  0  0  0  0  0
  187.0130  175.7760  142.7080 C   0  0  0  0  0  2  0  0  0  0  0  0
  186.8030  177.0190  141.8670 C   0  0  0  0  0  2  0  0  0  0  0  0
  186.9630  178.2430  142.7410 C   0  0  0  0  0  2  0  0  0  0  0  0
  185.8210  179.0410  142.6460 O   0  0  0  0  0  0  0  0  0  0  0  0
  184.0730  179.0840  144.2610 C   0  0  0  0  0  1  0  0  0  0  0  0
  185.5280  179.3990  143.9640 C   0  0  1  0  0  3  0  0  0  0  0  0
  186.4360  178.6310  144.9120 C   0  0  0  0  0  2  0  0  0  0  0  0
  186.3620  176.8530  146.6610 C   0  0  0  0  0  1  0  0  0  0  0  0
  185.6550  178.0670  146.0900 C   0  0  0  0  0  2  0  0  0  0  0  0
  190.4700  174.0250  142.9710 C   0  0  0  0  0  2  0  0  0  0  0  0
  191.8190  174.3240  142.3270 C   0  0  0  0  0  2  0  0  0  0  0  0
  192.9350  173.6280  143.0940 C   0  0  0  0  0  2  0  0  0  0  0  0
  193.5890  174.5520  144.0130 N   0  0  0  0  0  0  0  0  0  0  0  0
  194.8310  174.9120  145.9620 O   0  0  0  0  0  0  0  0  0  0  0  0
  194.2850  174.0860  145.1830 C   0  0  0  0  0  0  0  0  0  0  0  0
  193.6510  175.9560  143.6380 C   0  0  0  0  0  1  0  0  0  0  0  0
  194.3660  172.6290  145.5060 C   0  0  0  0  0  2  0  0  0  0  0  0
  195.8120  172.1470  145.5070 C   0  0  1  0  0  3  0  0  0  0  0  0
  195.8770  170.6830  145.9080 C   0  0  0  0  0  1  0  0  0  0  0  0
  196.5100  172.3880  144.1660 C   0  0  0  0  0  2  0  0  0  0  0  0
  197.9390  172.8850  144.3350 C   0  0  0  0  0  2  0  0  0  0  0  0
  197.9360  174.0500  145.0970 O   0  0  0  0  0  1  0  0  0  0  0  0
  2  1  1  6  0  0  0
  3  4  1  0  0  0  0
  4  6  1  1  0  0  0
  5  2  1  6  0  0  0
  5  3  1  0  0  0  0
  5  4  1  0  0  0  0
  6  8  1  0  0  0  0
  7  8  1  0  0  0  0
  8 10  1  0  0  0  0
  8  9  1  0  0  0  0
 11 16  1  1  0  0  0
 11  2  1  0  0  0  0
 12 14  2  0  0  0  0
 12 13  1  0  0  0  0
 13 11  1  0  0  0  0
 15 12  1  0  0  0  0
 17 16  1  0  0  0  0
 17 18  1  0  0  0  0
 19 18  1  0  0  0  0
 19 21  1  0  0  0  0
 21 20  1  1  0  0  0
 21 22  1  0  0  0  0
 22 24  1  0  0  0  0
 24 23  1  0  0  0  0
 25  2  1  0  0  0  0
 26 25  1  0  0  0  0
 26 27  1  0  0  0  0
 27 28  1  0  0  0  0
 28 30  1  0  0  0  0
 30 32  1  0  0  0  0
 30 29  2  0  0  0  0
 31 28  1  0  0  0  0
 32 33  1  0  0  0  0
 33 34  1  6  0  0  0
 35 36  1  0  0  0  0
 35 33  1  0  0  0  0
 36 37  1  0  0  0  0
M  END
>  <MODEL>
3

>  <REMARK>
 VINA RESULT:      -5.3      1.283      2.092
  Name = 
  20 active torsions:
  status: ('A' for Active; 'I' for Inactive)
    1  A    between atoms: C_1  and  N_5
    2  A    between atoms: C_1  and  C_36
    3  A    between atoms: C_6  and  O_8
    4  A    between atoms: C_6  and  C_31
    5  A    between atoms: C_7  and  C_33
    6  A    between atoms: O_8  and  C_19
    7  A    between atoms: C_10  and  C_14
    8  A    between atoms: C_10  and  C_20
    9  A    between atoms: C_10  and  N_22
   10  A    between atoms: C_11  and  C_26
   11  A    between atoms: C_11  and  C_33
   12  A    between atoms: C_14  and  C_31
   13  A    between atoms: C_16  and  C_30
   14  A    between atoms: C_17  and  C_26
   15  A    between atoms: C_18  and  C_19
   16  A    between atoms: C_18  and  C_35
   17  A    between atoms: C_20  and  C_24
   18  A    between atoms: C_20  and  C_29
   19  A    between atoms: C_21  and  C_30
   20  A    between atoms: C_29  and  C_36
                            x       y       z     vdW  Elec       q    Type
                         _______ _______ _______ _____ _____    ______ ____

>  <TORSDO>
F 20

$$$$
=
 OpenBabel11052420113D

 37 37  0  0  1  0  0  0  0  0999 V2000
  191.3410  174.6910  146.1700 O   0  0  0  0  0  1  0  0  0  0  0  0
  190.4740  175.4570  145.3740 C   0  0  1  0  0  0  0  0  0  0  0  0
  188.8620  175.6620  147.1910 O   0  0  0  0  0  0  0  0  0  0  0  0
  188.1510  176.1650  146.0830 C   0  0  2  0  0  3  0  0  0  0  0  0
  189.6090  176.3900  146.2450 C   0  0  2  0  0  3  0  0  0  0  0  0
  187.4060  177.4200  146.4950 C   0  0  0  0  0  2  0  0  0  0  0  0
  185.3800  176.2920  146.0190 F   0  0  0  0  0  0  0  0  0  0  0  0
  185.9950  177.0930  146.9620 C   0  0  0  0  0  0  0  0  0  0  0  0
  185.2640  178.2570  147.1090 F   0  0  0  0  0  0  0  0  0  0  0  0
  186.0380  176.4180  148.1680 F   0  0  0  0  0  0  0  0  0  0  0  0
  191.3190  176.3370  144.4260 C   0  0  2  0  0  3  0  0  0  0  0  0
  193.8600  176.3130  143.9590 C   0  0  0  0  0  0  0  0  0  0  0  0
  192.7280  176.4310  144.8270 N   0  0  0  0  0  2  0  0  0  0  0  0
  193.7150  176.0230  142.7430 O   0  0  0  0  0  0  0  0  0  0  0  0
  195.1670  176.5030  144.4830 N   0  0  0  0  0  1  0  0  0  0  0  0
  190.7030  177.7000  144.1140 C   0  0  0  0  0  2  0  0  0  0  0  0
  190.0960  177.7110  142.7250 C   0  0  0  0  0  2  0  0  0  0  0  0
  188.5880  177.7280  142.8410 C   0  0  0  0  0  2  0  0  0  0  0  0
  188.0170  177.6110  141.5720 O   0  0  0  0  0  0  0  0  0  0  0  0
  186.6250  176.0810  142.7500 C   0  0  0  0  0  1  0  0  0  0  0  0
  186.6840  177.2740  141.8120 C   0  0  1  0  0  3  0  0  0  0  0  0
  185.9640  178.4630  142.4310 C   0  0  0  0  0  2  0  0  0  0  0  0
  184.2670  179.1020  144.1450 C   0  0  0  0  0  1  0  0  0  0  0  0
  184.7090  178.0260  143.1720 C   0  0  0  0  0  2  0  0  0  0  0  0
  189.5160  174.5260  144.6170 C   0  0  0  0  0  2  0  0  0  0  0  0
  189.8040  173.0460  144.8410 C   0  0  0  0  0  2  0  0  0  0  0  0
  189.5600  172.2610  143.5590 C   0  0  0  0  0  2  0  0  0  0  0  0
  190.8180  171.9570  142.8880 N   0  0  0  0  0  0  0  0  0  0  0  0
  192.2270  172.2110  141.0380 O   0  0  0  0  0  0  0  0  0  0  0  0
  191.1340  172.5020  141.5940 C   0  0  0  0  0  0  0  0  0  0  0  0
  191.8190  171.2030  143.6260 C   0  0  0  0  0  1  0  0  0  0  0  0
  190.1810  173.4070  140.8820 C   0  0  0  0  0  2  0  0  0  0  0  0
  189.7320  172.7990  139.5580 C   0  0  1  0  0  3  0  0  0  0  0  0
  188.2160  172.7220  139.5030 C   0  0  0  0  0  1  0  0  0  0  0  0
  190.2950  173.5500  138.3490 C   0  0  0  0  0  2  0  0  0  0  0  0
  190.0620  172.8050  137.0420 C   0  0  0  0  0  2  0  0  0  0  0  0
  189.3820  173.6340  136.1520 O   0  0  0  0  0  1  0  0  0  0  0  0
  2  1  1  1  0  0  0
  4  5  1  0  0  0  0
  4  6  1  1  0  0  0
  4  3  1  0  0  0  0
  5  2  1  6  0  0  0
  5  3  1  0  0  0  0
  6  8  1  0  0  0  0
  7  8  1  0  0  0  0
  8  9  1  0  0  0  0
  8 10  1  0  0  0  0
 11 16  1  1  0  0  0
 11 13  1  0  0  0  0
 11  2  1  0  0  0  0
 12 15  1  0  0  0  0
 12 13  1  0  0  0  0
 14 12  2  0  0  0  0
 17 18  1  0  0  0  0
 17 16  1  0  0  0  0
 19 21  1  0  0  0  0
 19 18  1  0  0  0  0
 21 22  1  0  0  0  0
 21 20  1  1  0  0  0
 22 24  1  0  0  0  0
 24 23  1  0  0  0  0
 25 26  1  0  0  0  0
 25  2  1  0  0  0  0
 27 26  1  0  0  0  0
 28 27  1  0  0  0  0
 28 31  1  0  0  0  0
 29 30  2  0  0  0  0
 30 28  1  0  0  0  0
 32 30  1  0  0  0  0
 33 34  1  6  0  0  0
 33 32  1  0  0  0  0
 35 33  1  0  0  0  0
 36 35  1  0  0  0  0
 37 36  1  0  0  0  0
M  END
>  <MODEL>
4

>  <REMARK>
 VINA RESULT:      -5.2      2.757      5.575
  Name = 
  20 active torsions:
  status: ('A' for Active; 'I' for Inactive)
    1  A    between atoms: C_1  and  N_5
    2  A    between atoms: C_1  and  C_36
    3  A    between atoms: C_6  and  O_8
    4  A    between atoms: C_6  and  C_31
    5  A    between atoms: C_7  and  C_33
    6  A    between atoms: O_8  and  C_19
    7  A    between atoms: C_10  and  C_14
    8  A    between atoms: C_10  and  C_20
    9  A    between atoms: C_10  and  N_22
   10  A    between atoms: C_11  and  C_26
   11  A    between atoms: C_11  and  C_33
   12  A    between atoms: C_14  and  C_31
   13  A    between atoms: C_16  and  C_30
   14  A    between atoms: C_17  and  C_26
   15  A    between atoms: C_18  and  C_19
   16  A    between atoms: C_18  and  C_35
   17  A    between atoms: C_20  and  C_24
   18  A    between atoms: C_20  and  C_29
   19  A    between atoms: C_21  and  C_30
   20  A    between atoms: C_29  and  C_36
                            x       y       z     vdW  Elec       q    Type
                         _______ _______ _______ _____ _____    ______ ____

>  <TORSDO>
F 20

$$$$
=
 OpenBabel11052420113D

 37 37  0  0  1  0  0  0  0  0999 V2000
  189.8350  177.2100  142.4490 O   0  0  0  0  0  1  0  0  0  0  0  0
  189.5490  176.0600  143.2040 C   0  0  1  0  0  0  0  0  0  0  0  0
  189.3650  177.8120  144.8900 O   0  0  0  0  0  0  0  0  0  0  0  0
  190.3610  176.9680  145.4210 C   0  0  2  0  0  3  0  0  0  0  0  0
  189.2050  176.4320  144.6610 C   0  0  2  0  0  3  0  0  0  0  0  0
  190.1120  176.7740  146.9040 C   0  0  0  0  0  2  0  0  0  0  0  0
  192.4720  176.6290  146.7920 F   0  0  0  0  0  0  0  0  0  0  0  0
  191.3980  176.4170  147.6360 C   0  0  0  0  0  0  0  0  0  0  0  0
  191.3760  175.0860  148.0100 F   0  0  0  0  0  0  0  0  0  0  0  0
  191.5430  177.2120  148.7580 F   0  0  0  0  0  0  0  0  0  0  0  0
  188.3190  175.3560  142.5880 C   0  0  2  0  0  3  0  0  0  0  0  0
  188.3420  174.3980  140.1890 C   0  0  0  0  0  0  0  0  0  0  0  0
  188.2560  175.4760  141.1260 N   0  0  0  0  0  2  0  0  0  0  0  0
  188.5710  173.2220  140.5750 O   0  0  0  0  0  0  0  0  0  0  0  0
  188.1880  174.6620  138.8010 N   0  0  0  0  0  1  0  0  0  0  0  0
  186.9920  175.6970  143.2650 C   0  0  0  0  0  2  0  0  0  0  0  0
  186.2900  176.8240  142.5360 C   0  0  0  0  0  2  0  0  0  0  0  0
  185.9750  177.9310  143.5170 C   0  0  0  0  0  2  0  0  0  0  0  0
  184.6890  177.7510  144.0310 O   0  0  0  0  0  0  0  0  0  0  0  0
  184.9370  176.6820  146.1430 C   0  0  0  0  0  1  0  0  0  0  0  0
  184.8150  178.0000  145.3990 C   0  0  1  0  0  3  0  0  0  0  0  0
  186.0470  178.8580  145.6460 C   0  0  0  0  0  2  0  0  0  0  0  0
  186.2310  179.6650  148.0000 C   0  0  0  0  0  1  0  0  0  0  0  0
  186.6450  178.5850  147.0190 C   0  0  0  0  0  2  0  0  0  0  0  0
  190.7880  175.1540  143.2470 C   0  0  0  0  0  2  0  0  0  0  0  0
  190.4550  173.6780  143.4310 C   0  0  0  0  0  2  0  0  0  0  0  0
  191.0510  173.1610  144.7330 C   0  0  0  0  0  2  0  0  0  0  0  0
  192.1660  172.2590  144.4730 N   0  0  0  0  0  0  0  0  0  0  0  0
  194.4120  171.6890  144.7930 O   0  0  0  0  0  0  0  0  0  0  0  0
  193.4670  172.4830  145.0460 C   0  0  0  0  0  0  0  0  0  0  0  0
  191.8940  171.0350  143.7370 C   0  0  0  0  0  1  0  0  0  0  0  0
  193.7290  173.6560  145.9350 C   0  0  0  0  0  2  0  0  0  0  0  0
  194.7040  174.6310  145.2840 C   0  0  1  0  0  3  0  0  0  0  0  0
  196.1220  174.3420  145.7470 C   0  0  0  0  0  1  0  0  0  0  0  0
  194.6060  174.6240  143.7560 C   0  0  0  0  0  2  0  0  0  0  0  0
  194.5720  176.0280  143.1690 C   0  0  0  0  0  2  0  0  0  0  0  0
  195.8690  176.5310  143.0980 O   0  0  0  0  0  1  0  0  0  0  0  0
  2  1  1  6  0  0  0
  2 25  1  0  0  0  0
  3  4  1  0  0  0  0
  4  6  1  1  0  0  0
  5  2  1  6  0  0  0
  5  3  1  0  0  0  0
  5  4  1  0  0  0  0
  6  8  1  0  0  0  0
  7  8  1  0  0  0  0
  8  9  1  0  0  0  0
  8 10  1  0  0  0  0
 11  2  1  0  0  0  0
 11 16  1  1  0  0  0
 12 14  2  0  0  0  0
 12 13  1  0  0  0  0
 13 11  1  0  0  0  0
 15 12  1  0  0  0  0
 17 16  1  0  0  0  0
 17 18  1  0  0  0  0
 18 19  1  0  0  0  0
 19 21  1  0  0  0  0
 21 22  1  0  0  0  0
 21 20  1  1  0  0  0
 22 24  1  0  0  0  0
 24 23  1  0  0  0  0
 25 26  1  0  0  0  0
 26 27  1  0  0  0  0
 28 27  1  0  0  0  0
 28 30  1  0  0  0  0
 29 30  2  0  0  0  0
 30 32  1  0  0  0  0
 31 28  1  0  0  0  0
 33 34  1  6  0  0  0
 33 32  1  0  0  0  0
 35 33  1  0  0  0  0
 36 35  1  0  0  0  0
 37 36  1  0  0  0  0
M  END
>  <MODEL>
5

>  <REMARK>
 VINA RESULT:      -5.2      1.458      2.145
  Name = 
  20 active torsions:
  status: ('A' for Active; 'I' for Inactive)
    1  A    between atoms: C_1  and  N_5
    2  A    between atoms: C_1  and  C_36
    3  A    between atoms: C_6  and  O_8
    4  A    between atoms: C_6  and  C_31
    5  A    between atoms: C_7  and  C_33
    6  A    between atoms: O_8  and  C_19
    7  A    between atoms: C_10  and  C_14
    8  A    between atoms: C_10  and  C_20
    9  A    between atoms: C_10  and  N_22
   10  A    between atoms: C_11  and  C_26
   11  A    between atoms: C_11  and  C_33
   12  A    between atoms: C_14  and  C_31
   13  A    between atoms: C_16  and  C_30
   14  A    between atoms: C_17  and  C_26
   15  A    between atoms: C_18  and  C_19
   16  A    between atoms: C_18  and  C_35
   17  A    between atoms: C_20  and  C_24
   18  A    between atoms: C_20  and  C_29
   19  A    between atoms: C_21  and  C_30
   20  A    between atoms: C_29  and  C_36
                            x       y       z     vdW  Elec       q    Type
                         _______ _______ _______ _____ _____    ______ ____

>  <TORSDO>
F 20

$$$$
=
 OpenBabel11052420113D

 37 37  0  0  1  0  0  0  0  0999 V2000
  191.0190  174.5210  146.1190 O   0  0  0  0  0  1  0  0  0  0  0  0
  190.3090  175.4600  145.3530 C   0  0  1  0  0  0  0  0  0  0  0  0
  188.6260  175.6450  147.1070 O   0  0  0  0  0  0  0  0  0  0  0  0
  188.0110  176.2870  146.0120 C   0  0  2  0  0  3  0  0  0  0  0  0
  189.4710  176.3860  146.2580 C   0  0  2  0  0  3  0  0  0  0  0  0
  187.3400  177.5590  146.4920 C   0  0  0  0  0  2  0  0  0  0  0  0
  185.8910  176.7450  148.1780 F   0  0  0  0  0  0  0  0  0  0  0  0
  185.9010  177.2970  146.9110 C   0  0  0  0  0  0  0  0  0  0  0  0
  185.3050  176.4130  146.0310 F   0  0  0  0  0  0  0  0  0  0  0  0
  185.1870  178.4820  146.9310 F   0  0  0  0  0  0  0  0  0  0  0  0
  191.3210  176.3370  144.5810 C   0  0  2  0  0  3  0  0  0  0  0  0
  193.8780  176.0220  144.3860 C   0  0  0  0  0  0  0  0  0  0  0  0
  192.6810  176.2700  145.1300 N   0  0  0  0  0  2  0  0  0  0  0  0
  193.8320  175.7500  143.1580 O   0  0  0  0  0  0  0  0  0  0  0  0
  195.1350  176.0630  145.0480 N   0  0  0  0  0  1  0  0  0  0  0  0
  190.8550  177.7720  144.3350 C   0  0  0  0  0  2  0  0  0  0  0  0
  190.3820  177.9450  142.9060 C   0  0  0  0  0  2  0  0  0  0  0  0
  188.8700  177.9090  142.8740 C   0  0  0  0  0  2  0  0  0  0  0  0
  188.4140  178.3880  141.6440 O   0  0  0  0  0  0  0  0  0  0  0  0
  187.3670  176.4870  140.6660 C   0  0  0  0  0  1  0  0  0  0  0  0
  187.1770  177.7690  141.4580 C   0  0  1  0  0  3  0  0  0  0  0  0
  186.5560  177.4610  142.8130 C   0  0  0  0  0  2  0  0  0  0  0  0
  185.5750  179.5420  143.7790 C   0  0  0  0  0  1  0  0  0  0  0  0
  185.2770  178.2570  143.0290 C   0  0  0  0  0  2  0  0  0  0  0  0
  189.3310  174.7300  144.4220 C   0  0  0  0  0  2  0  0  0  0  0  0
  189.9950  173.6630  143.5600 C   0  0  0  0  0  2  0  0  0  0  0  0
  190.1570  174.1640  142.1320 C   0  0  0  0  0  2  0  0  0  0  0  0
  189.7790  173.1340  141.1720 N   0  0  0  0  0  0  0  0  0  0  0  0
  190.4020  171.4140  139.7140 O   0  0  0  0  0  0  0  0  0  0  0  0
  190.7620  172.2880  140.5460 C   0  0  0  0  0  0  0  0  0  0  0  0
  188.3620  172.8760  140.9720 C   0  0  0  0  0  1  0  0  0  0  0  0
  192.2170  172.4330  140.8560 C   0  0  0  0  0  2  0  0  0  0  0  0
  192.6230  171.5330  142.0170 C   0  0  1  0  0  3  0  0  0  0  0  0
  193.1370  170.2020  141.4950 C   0  0  0  0  0  1  0  0  0  0  0  0
  193.6440  172.1980  142.9440 C   0  0  0  0  0  2  0  0  0  0  0  0
  193.1810  172.2260  144.3940 C   0  0  0  0  0  2  0  0  0  0  0  0
  193.8690  171.2550  145.1180 O   0  0  0  0  0  1  0  0  0  0  0  0
  2  1  1  1  0  0  0
  4  5  1  0  0  0  0
  4  6  1  1  0  0  0
  4  3  1  0  0  0  0
  5  2  1  6  0  0  0
  5  3  1  0  0  0  0
  6  8  1  0  0  0  0
  8 10  1  0  0  0  0
  8  7  1  0  0  0  0
  9  8  1  0  0  0  0
 11 16  1  1  0  0  0
 11 13  1  0  0  0  0
 11  2  1  0  0  0  0
 12 15  1  0  0  0  0
 12 13  1  0  0  0  0
 14 12  2  0  0  0  0
 17 16  1  0  0  0  0
 18 17  1  0  0  0  0
 19 18  1  0  0  0  0
 21 20  1  1  0  0  0
 21 19  1  0  0  0  0
 21 22  1  0  0  0  0
 22 24  1  0  0  0  0
 24 23  1  0  0  0  0
 25  2  1  0  0  0  0
 26 25  1  0  0  0  0
 27 26  1  0  0  0  0
 28 27  1  0  0  0  0
 29 30  2  0  0  0  0
 30 32  1  0  0  0  0
 30 28  1  0  0  0  0
 31 28  1  0  0  0  0
 32 33  1  0  0  0  0
 33 34  1  6  0  0  0
 33 35  1  0  0  0  0
 35 36  1  0  0  0  0
 36 37  1  0  0  0  0
M  END
>  <MODEL>
6

>  <REMARK>
 VINA RESULT:      -5.1      2.695      4.901
  Name = 
  20 active torsions:
  status: ('A' for Active; 'I' for Inactive)
    1  A    between atoms: C_1  and  N_5
    2  A    between atoms: C_1  and  C_36
    3  A    between atoms: C_6  and  O_8
    4  A    between atoms: C_6  and  C_31
    5  A    between atoms: C_7  and  C_33
    6  A    between atoms: O_8  and  C_19
    7  A    between atoms: C_10  and  C_14
    8  A    between atoms: C_10  and  C_20
    9  A    between atoms: C_10  and  N_22
   10  A    between atoms: C_11  and  C_26
   11  A    between atoms: C_11  and  C_33
   12  A    between atoms: C_14  and  C_31
   13  A    between atoms: C_16  and  C_30
   14  A    between atoms: C_17  and  C_26
   15  A    between atoms: C_18  and  C_19
   16  A    between atoms: C_18  and  C_35
   17  A    between atoms: C_20  and  C_24
   18  A    between atoms: C_20  and  C_29
   19  A    between atoms: C_21  and  C_30
   20  A    between atoms: C_29  and  C_36
                            x       y       z     vdW  Elec       q    Type
                         _______ _______ _______ _____ _____    ______ ____

>  <TORSDO>
F 20

$$$$
=
 OpenBabel11052420113D

 37 37  0  0  1  0  0  0  0  0999 V2000
  189.3030  173.7850  143.5870 O   0  0  0  0  0  1  0  0  0  0  0  0
  190.3640  174.6920  143.7410 C   0  0  1  0  0  0  0  0  0  0  0  0
  189.7050  177.0390  143.7200 O   0  0  0  0  0  0  0  0  0  0  0  0
  188.7100  176.4260  142.9310 C   0  0  2  0  0  3  0  0  0  0  0  0
  190.1210  175.9670  142.9070 C   0  0  2  0  0  3  0  0  0  0  0  0
  188.4460  177.2810  141.7070 C   0  0  0  0  0  2  0  0  0  0  0  0
  186.5960  177.6980  140.2910 F   0  0  0  0  0  0  0  0  0  0  0  0
  186.9800  177.6760  141.6180 C   0  0  0  0  0  0  0  0  0  0  0  0
  186.7940  178.9350  142.1610 F   0  0  0  0  0  0  0  0  0  0  0  0
  186.1980  176.7600  142.2970 F   0  0  0  0  0  0  0  0  0  0  0  0
  190.4520  175.1050  145.2280 C   0  0  2  0  0  3  0  0  0  0  0  0
  192.7860  176.0400  145.8200 C   0  0  0  0  0  0  0  0  0  0  0  0
  191.8080  174.9960  145.7790 N   0  0  0  0  0  2  0  0  0  0  0  0
  192.5630  177.1560  145.2830 O   0  0  0  0  0  0  0  0  0  0  0  0
  194.0350  175.8050  146.4570 N   0  0  0  0  0  1  0  0  0  0  0  0
  189.3970  174.4590  146.1250 C   0  0  0  0  0  2  0  0  0  0  0  0
  188.9540  175.4180  147.2120 C   0  0  0  0  0  2  0  0  0  0  0  0
  188.0620  176.4790  146.6050 C   0  0  0  0  0  2  0  0  0  0  0  0
  186.7550  176.3160  147.0690 O   0  0  0  0  0  0  0  0  0  0  0  0
  186.6680  178.5230  147.9550 C   0  0  0  0  0  1  0  0  0  0  0  0
  186.1580  177.5650  146.8930 C   0  0  1  0  0  3  0  0  0  0  0  0
  186.4890  178.0940  145.5060 C   0  0  0  0  0  2  0  0  0  0  0  0
  184.3490  178.8200  144.4460 C   0  0  0  0  0  1  0  0  0  0  0  0
  185.6130  179.2850  145.1440 C   0  0  0  0  0  2  0  0  0  0  0  0
  191.6630  174.0550  143.2280 C   0  0  0  0  0  2  0  0  0  0  0  0
  192.3820  174.8990  142.1810 C   0  0  0  0  0  2  0  0  0  0  0  0
  193.8510  175.0540  142.5480 C   0  0  0  0  0  2  0  0  0  0  0  0
  194.6370  173.9390  142.0320 N   0  0  0  0  0  0  0  0  0  0  0  0
  195.9280  172.0310  142.4320 O   0  0  0  0  0  0  0  0  0  0  0  0
  195.2470  172.9770  142.9100 C   0  0  0  0  0  0  0  0  0  0  0  0
  194.6650  173.7340  140.5930 C   0  0  0  0  0  1  0  0  0  0  0  0
  195.1010  173.0810  144.3950 C   0  0  0  0  0  2  0  0  0  0  0  0
  196.3360  172.5420  145.1070 C   0  0  1  0  0  3  0  0  0  0  0  0
  196.8830  173.5830  146.0690 C   0  0  0  0  0  1  0  0  0  0  0  0
  196.0670  171.2140  145.8190 C   0  0  0  0  0  2  0  0  0  0  0  0
  194.6010  170.8100  145.7630 C   0  0  0  0  0  2  0  0  0  0  0  0
  194.4750  169.6220  145.0460 O   0  0  0  0  0  1  0  0  0  0  0  0
  2  1  1  6  0  0  0
  2 11  1  0  0  0  0
  4  6  1  6  0  0  0
  4  3  1  0  0  0  0
  5  4  1  0  0  0  0
  5  3  1  0  0  0  0
  5  2  1  1  0  0  0
  7  8  1  0  0  0  0
  8  6  1  0  0  0  0
  8  9  1  0  0  0  0
  8 10  1  0  0  0  0
 11 13  1  0  0  0  0
 11 16  1  1  0  0  0
 12 15  1  0  0  0  0
 13 12  1  0  0  0  0
 14 12  2  0  0  0  0
 16 17  1  0  0  0  0
 18 19  1  0  0  0  0
 18 17  1  0  0  0  0
 21 19  1  0  0  0  0
 21 20  1  1  0  0  0
 22 21  1  0  0  0  0
 23 24  1  0  0  0  0
 24 22  1  0  0  0  0
 25  2  1  0  0  0  0
 26 27  1  0  0  0  0
 26 25  1  0  0  0  0
 28 27  1  0  0  0  0
 28 30  1  0  0  0  0
 29 30  2  0  0  0  0
 30 32  1  0  0  0  0
 31 28  1  0  0  0  0
 32 33  1  0  0  0  0
 33 35  1  0  0  0  0
 33 34  1  1  0  0  0
 36 35  1  0  0  0  0
 37 36  1  0  0  0  0
M  END
>  <MODEL>
7

>  <REMARK>
 VINA RESULT:      -5.1      3.243      4.858
  Name = 
  20 active torsions:
  status: ('A' for Active; 'I' for Inactive)
    1  A    between atoms: C_1  and  N_5
    2  A    between atoms: C_1  and  C_36
    3  A    between atoms: C_6  and  O_8
    4  A    between atoms: C_6  and  C_31
    5  A    between atoms: C_7  and  C_33
    6  A    between atoms: O_8  and  C_19
    7  A    between atoms: C_10  and  C_14
    8  A    between atoms: C_10  and  C_20
    9  A    between atoms: C_10  and  N_22
   10  A    between atoms: C_11  and  C_26
   11  A    between atoms: C_11  and  C_33
   12  A    between atoms: C_14  and  C_31
   13  A    between atoms: C_16  and  C_30
   14  A    between atoms: C_17  and  C_26
   15  A    between atoms: C_18  and  C_19
   16  A    between atoms: C_18  and  C_35
   17  A    between atoms: C_20  and  C_24
   18  A    between atoms: C_20  and  C_29
   19  A    between atoms: C_21  and  C_30
   20  A    between atoms: C_29  and  C_36
                            x       y       z     vdW  Elec       q    Type
                         _______ _______ _______ _____ _____    ______ ____

>  <TORSDO>
F 20

$$$$
=
 OpenBabel11052420113D

 37 37  0  0  1  0  0  0  0  0999 V2000
  189.1100  177.9480  142.1190 O   0  0  0  0  0  1  0  0  0  0  0  0
  188.5300  176.8510  142.7770 C   0  0  1  0  0  0  0  0  0  0  0  0
  189.5460  177.7730  144.7920 O   0  0  0  0  0  0  0  0  0  0  0  0
  189.4140  176.4050  145.1040 C   0  0  2  0  0  3  0  0  0  0  0  0
  188.4020  177.1220  144.2900 C   0  0  2  0  0  3  0  0  0  0  0  0
  188.8990  176.2640  146.5240 C   0  0  0  0  0  2  0  0  0  0  0  0
  189.6590  174.0510  146.1670 F   0  0  0  0  0  0  0  0  0  0  0  0
  189.3900  174.9720  147.1610 C   0  0  0  0  0  0  0  0  0  0  0  0
  188.4170  174.4580  147.9980 F   0  0  0  0  0  0  0  0  0  0  0  0
  190.5460  175.2060  147.8830 F   0  0  0  0  0  0  0  0  0  0  0  0
  187.1090  176.6290  142.2110 C   0  0  2  0  0  3  0  0  0  0  0  0
  187.0300  176.6960  139.6300 C   0  0  0  0  0  0  0  0  0  0  0  0
  186.8890  177.2950  140.9220 N   0  0  0  0  0  2  0  0  0  0  0  0
  187.4530  175.5160  139.5060 O   0  0  0  0  0  0  0  0  0  0  0  0
  186.7080  177.4490  138.4690 N   0  0  0  0  0  1  0  0  0  0  0  0
  185.9830  176.8930  143.2110 C   0  0  0  0  0  2  0  0  0  0  0  0
  185.3160  178.2250  142.9300 C   0  0  0  0  0  2  0  0  0  0  0  0
  185.0800  178.9480  144.2380 C   0  0  0  0  0  2  0  0  0  0  0  0
  184.0560  178.3150  144.9460 O   0  0  0  0  0  0  0  0  0  0  0  0
  184.9620  176.7920  146.5340 C   0  0  0  0  0  1  0  0  0  0  0  0
  184.5350  178.2210  146.2540 C   0  0  1  0  0  3  0  0  0  0  0  0
  185.7140  179.1660  146.4310 C   0  0  0  0  0  2  0  0  0  0  0  0
  187.2870  179.0340  148.3640 C   0  0  0  0  0  1  0  0  0  0  0  0
  185.9270  179.5170  147.8970 C   0  0  0  0  0  2  0  0  0  0  0  0
  189.4300  175.6180  142.6110 C   0  0  0  0  0  2  0  0  0  0  0  0
  188.6610  174.3450  142.2770 C   0  0  0  0  0  2  0  0  0  0  0  0
  189.2860  173.1510  142.9850 C   0  0  0  0  0  2  0  0  0  0  0  0
  190.4990  172.7170  142.3010 N   0  0  0  0  0  0  0  0  0  0  0  0
  192.8240  172.4630  142.2920 O   0  0  0  0  0  0  0  0  0  0  0  0
  191.7950  172.8390  142.9140 C   0  0  0  0  0  0  0  0  0  0  0  0
  190.3540  172.0140  141.0360 C   0  0  0  0  0  1  0  0  0  0  0  0
  191.9520  173.4190  144.2830 C   0  0  0  0  0  2  0  0  0  0  0  0
  193.2520  174.2060  144.4000 C   0  0  1  0  0  3  0  0  0  0  0  0
  192.9640  175.6970  144.4180 C   0  0  0  0  0  1  0  0  0  0  0  0
  194.0840  173.7860  145.6140 C   0  0  0  0  0  2  0  0  0  0  0  0
  194.4230  172.3020  145.6020 C   0  0  0  0  0  2  0  0  0  0  0  0
  195.2560  172.0260  144.5200 O   0  0  0  0  0  1  0  0  0  0  0  0
  2  1  1  6  0  0  0
  3  4  1  0  0  0  0
  4  6  1  1  0  0  0
  5  2  1  6  0  0  0
  5  3  1  0  0  0  0
  5  4  1  0  0  0  0
  6  8  1  0  0  0  0
  7  8  1  0  0  0  0
  8 10  1  0  0  0  0
  8  9  1  0  0  0  0
 11  2  1  0  0  0  0
 11 16  1  1  0  0  0
 12 13  1  0  0  0  0
 13 11  1  0  0  0  0
 14 12  2  0  0  0  0
 15 12  1  0  0  0  0
 17 16  1  0  0  0  0
 17 18  1  0  0  0  0
 18 19  1  0  0  0  0
 19 21  1  0  0  0  0
 21 22  1  0  0  0  0
 21 20  1  6  0  0  0
 22 24  1  0  0  0  0
 24 23  1  0  0  0  0
 25  2  1  0  0  0  0
 26 25  1  0  0  0  0
 26 27  1  0  0  0  0
 28 30  1  0  0  0  0
 28 27  1  0  0  0  0
 29 30  2  0  0  0  0
 30 32  1  0  0  0  0
 31 28  1  0  0  0  0
 32 33  1  0  0  0  0
 33 34  1  1  0  0  0
 33 35  1  0  0  0  0
 36 35  1  0  0  0  0
 37 36  1  0  0  0  0
M  END
>  <MODEL>
8

>  <REMARK>
 VINA RESULT:      -5.1      2.093      2.709
  Name = 
  20 active torsions:
  status: ('A' for Active; 'I' for Inactive)
    1  A    between atoms: C_1  and  N_5
    2  A    between atoms: C_1  and  C_36
    3  A    between atoms: C_6  and  O_8
    4  A    between atoms: C_6  and  C_31
    5  A    between atoms: C_7  and  C_33
    6  A    between atoms: O_8  and  C_19
    7  A    between atoms: C_10  and  C_14
    8  A    between atoms: C_10  and  C_20
    9  A    between atoms: C_10  and  N_22
   10  A    between atoms: C_11  and  C_26
   11  A    between atoms: C_11  and  C_33
   12  A    between atoms: C_14  and  C_31
   13  A    between atoms: C_16  and  C_30
   14  A    between atoms: C_17  and  C_26
   15  A    between atoms: C_18  and  C_19
   16  A    between atoms: C_18  and  C_35
   17  A    between atoms: C_20  and  C_24
   18  A    between atoms: C_20  and  C_29
   19  A    between atoms: C_21  and  C_30
   20  A    between atoms: C_29  and  C_36
                            x       y       z     vdW  Elec       q    Type
                         _______ _______ _______ _____ _____    ______ ____

>  <TORSDO>
F 20

$$$$
=
 OpenBabel11052420113D

 37 37  0  0  1  0  0  0  0  0999 V2000
  189.3980  174.0920  146.5250 O   0  0  0  0  0  1  0  0  0  0  0  0
  190.3150  174.8850  145.8170 C   0  0  1  0  0  0  0  0  0  0  0  0
  191.4570  176.1300  147.5750 O   0  0  0  0  0  0  0  0  0  0  0  0
  192.2240  176.4270  146.4300 C   0  0  2  0  0  3  0  0  0  0  0  0
  191.6070  175.0930  146.6340 C   0  0  2  0  0  3  0  0  0  0  0  0
  193.6970  176.3510  146.7840 C   0  0  0  0  0  2  0  0  0  0  0  0
  195.5080  175.8230  145.3540 F   0  0  0  0  0  0  0  0  0  0  0  0
  194.5660  176.7990  145.6180 C   0  0  0  0  0  0  0  0  0  0  0  0
  195.2160  177.9770  145.9370 F   0  0  0  0  0  0  0  0  0  0  0  0
  193.7880  176.9900  144.4900 F   0  0  0  0  0  0  0  0  0  0  0  0
  190.6920  174.1570  144.5070 C   0  0  2  0  0  3  0  0  0  0  0  0
  189.1730  173.5920  142.4950 C   0  0  0  0  0  0  0  0  0  0  0  0
  189.5530  173.4840  143.8710 N   0  0  0  0  0  2  0  0  0  0  0  0
  189.7770  174.3760  141.7170 O   0  0  0  0  0  0  0  0  0  0  0  0
  188.0870  172.8180  142.0060 N   0  0  0  0  0  1  0  0  0  0  0  0
  191.9220  173.2570  144.6170 C   0  0  0  0  0  2  0  0  0  0  0  0
  193.0030  173.7030  143.6540 C   0  0  0  0  0  2  0  0  0  0  0  0
  194.1410  172.7060  143.6860 C   0  0  0  0  0  2  0  0  0  0  0  0
  193.7690  171.5940  144.4440 O   0  0  0  0  0  0  0  0  0  0  0  0
  194.6260  170.0940  146.0820 C   0  0  0  0  0  1  0  0  0  0  0  0
  194.8340  171.3940  145.3260 C   0  0  1  0  0  3  0  0  0  0  0  0
  196.1370  171.3430  144.5430 C   0  0  0  0  0  2  0  0  0  0  0  0
  196.8290  173.1290  146.1430 C   0  0  0  0  0  1  0  0  0  0  0  0
  197.2900  171.9210  145.3510 C   0  0  0  0  0  2  0  0  0  0  0  0
  189.7080  176.2730  145.5670 C   0  0  0  0  0  2  0  0  0  0  0  0
  188.2930  176.4250  146.1150 C   0  0  0  0  0  2  0  0  0  0  0  0
  187.5430  177.5030  145.3470 C   0  0  0  0  0  2  0  0  0  0  0  0
  186.2530  177.7820  145.9670 N   0  0  0  0  0  0  0  0  0  0  0  0
  184.1550  178.8120  145.8750 O   0  0  0  0  0  0  0  0  0  0  0  0
  185.2560  178.5820  145.3070 C   0  0  0  0  0  0  0  0  0  0  0  0
  185.9360  177.1040  147.2140 C   0  0  0  0  0  1  0  0  0  0  0  0
  185.5030  179.1640  143.9510 C   0  0  0  0  0  2  0  0  0  0  0  0
  185.1350  178.1720  142.8540 C   0  0  1  0  0  3  0  0  0  0  0  0
  183.6670  178.3120  142.4910 C   0  0  0  0  0  1  0  0  0  0  0  0
  186.0290  178.3070  141.6190 C   0  0  0  0  0  2  0  0  0  0  0  0
  187.3070  177.4890  141.7330 C   0  0  0  0  0  2  0  0  0  0  0  0
  186.9840  176.1490  141.9300 O   0  0  0  0  0  1  0  0  0  0  0  0
  2  1  1  1  0  0  0
  4  5  1  0  0  0  0
  4  6  1  1  0  0  0
  4  3  1  0  0  0  0
  5  2  1  6  0  0  0
  5  3  1  0  0  0  0
  7  8  1  0  0  0  0
  8  9  1  0  0  0  0
  8  6  1  0  0  0  0
 10  8  1  0  0  0  0
 11 16  1  1  0  0  0
 11  2  1  0  0  0  0
 12 13  1  0  0  0  0
 13 11  1  0  0  0  0
 14 12  2  0  0  0  0
 15 12  1  0  0  0  0
 17 18  1  0  0  0  0
 17 16  1  0  0  0  0
 18 19  1  0  0  0  0
 19 21  1  0  0  0  0
 21 20  1  6  0  0  0
 22 21  1  0  0  0  0
 22 24  1  0  0  0  0
 24 23  1  0  0  0  0
 25  2  1  0  0  0  0
 25 26  1  0  0  0  0
 27 28  1  0  0  0  0
 27 26  1  0  0  0  0
 28 31  1  0  0  0  0
 30 29  2  0  0  0  0
 30 28  1  0  0  0  0
 32 30  1  0  0  0  0
 33 34  1  6  0  0  0
 33 32  1  0  0  0  0
 35 36  1  0  0  0  0
 35 33  1  0  0  0  0
 36 37  1  0  0  0  0
M  END
>  <MODEL>
9

>  <REMARK>
 VINA RESULT:      -5.0      2.631      8.164
  Name = 
  20 active torsions:
  status: ('A' for Active; 'I' for Inactive)
    1  A    between atoms: C_1  and  N_5
    2  A    between atoms: C_1  and  C_36
    3  A    between atoms: C_6  and  O_8
    4  A    between atoms: C_6  and  C_31
    5  A    between atoms: C_7  and  C_33
    6  A    between atoms: O_8  and  C_19
    7  A    between atoms: C_10  and  C_14
    8  A    between atoms: C_10  and  C_20
    9  A    between atoms: C_10  and  N_22
   10  A    between atoms: C_11  and  C_26
   11  A    between atoms: C_11  and  C_33
   12  A    between atoms: C_14  and  C_31
   13  A    between atoms: C_16  and  C_30
   14  A    between atoms: C_17  and  C_26
   15  A    between atoms: C_18  and  C_19
   16  A    between atoms: C_18  and  C_35
   17  A    between atoms: C_20  and  C_24
   18  A    between atoms: C_20  and  C_29
   19  A    between atoms: C_21  and  C_30
   20  A    between atoms: C_29  and  C_36
                            x       y       z     vdW  Elec       q    Type
                         _______ _______ _______ _____ _____    ______ ____

>  <TORSDO>
F 20

$$$$
