=
 OpenBabel11052419033D

 34 38  0  0  1  0  0  0  0  0999 V2000
  191.5420  176.1360  145.9860 C   0  0  0  0  0  0  0  0  0  0  0  0
  191.9130  173.9400  145.0240 C   0  0  0  0  0  0  0  0  0  0  0  0
  189.9080  175.3230  144.3450 C   0  0  0  0  0  0  0  0  0  0  0  0
  188.2890  174.7950  142.5910 C   0  0  0  0  0  0  0  0  0  0  0  0
  192.7910  176.0720  146.6090 C   0  0  0  0  0  3  0  0  0  0  0  0
  193.1640  173.8940  145.6490 C   0  0  0  0  0  3  0  0  0  0  0  0
  190.6750  174.0190  142.2740 C   0  0  0  0  0  2  0  0  0  0  0  0
  191.1300  175.1280  145.0720 C   0  0  0  0  0  0  0  0  0  0  0  0
  190.2680  173.7590  140.8280 C   0  0  0  0  0  2  0  0  0  0  0  0
  187.8750  174.1370  141.3030 C   0  0  0  0  0  2  0  0  0  0  0  0
  193.6150  174.9670  146.4130 C   0  0  0  0  0  3  0  0  0  0  0  0
  188.9880  176.2990  144.8280 C   0  0  0  0  0  0  0  0  0  0  0  0
  190.6840  177.1720  146.3290 C   0  0  0  0  0  3  0  0  0  0  0  0
  191.4320  172.7620  144.4700 O   0  0  0  0  0  1  0  0  0  0  0  0
  187.3930  175.6180  143.1880 N   0  0  0  0  0  0  0  0  0  0  0  0
  187.6890  176.3790  144.2710 C   0  0  0  0  0  0  0  0  0  0  0  0
  188.8940  173.1190  140.8050 C   0  0  1  0  0  3  0  0  0  0  0  0
  189.5990  174.6820  143.1110 C   0  0  0  0  0  0  0  0  0  0  0  0
  189.4090  177.2280  145.7880 C   0  0  0  0  0  3  0  0  0  0  0  0
  185.4370  179.3970  144.6780 C   0  0  0  0  0  0  0  0  0  0  0  0
  184.5720  178.9750  145.6890 C   0  0  0  0  0  3  0  0  0  0  0  0
  186.6240  177.2750  144.7940 C   0  0  0  0  0  0  0  0  0  0  0  0
  184.7210  177.7050  146.2500 C   0  0  0  0  0  3  0  0  0  0  0  0
  186.4540  178.5490  144.2300 C   0  0  0  0  0  3  0  0  0  0  0  0
  185.7370  176.8580  145.8000 C   0  0  0  0  0  3  0  0  0  0  0  0
  185.2900  180.6270  144.1290 F   0  0  0  0  0  0  0  0  0  0  0  0
  188.5590  172.6930  139.3870 C   0  0  0  0  0  2  0  0  0  0  0  0
  189.6320  173.1690  138.4240 C   0  0  0  0  0  2  0  0  0  0  0  0
  189.7070  174.4620  136.4350 O   0  0  0  0  0  0  0  0  0  0  0  0
  185.9510  176.0980  137.3020 O   0  0  0  0  0  0  0  0  0  0  0  0
  187.0740  175.6760  136.9250 C   0  0  0  0  0  0  0  0  0  0  0  0
  187.7690  174.7210  137.7360 N   0  0  0  0  0  2  0  0  0  0  0  0
  189.0510  174.1420  137.4610 C   0  0  0  0  0  0  0  0  0  0  0  0
  187.6380  176.1880  135.6420 C   0  0  0  0  0  1  0  0  0  0  0  0
  1 13  1  0  0  0  0
  1  5  2  0  0  0  0
  2  8  2  0  0  0  0
  2  6  1  0  0  0  0
  3 12  1  0  0  0  0
  3  8  1  0  0  0  0
  4 18  1  0  0  0  0
  4 15  2  0  0  0  0
  6 11  2  0  0  0  0
  7 18  1  0  0  0  0
  8  1  1  0  0  0  0
  9  7  1  0  0  0  0
 10  4  1  0  0  0  0
 11  5  1  0  0  0  0
 12 19  1  0  0  0  0
 14  2  1  0  0  0  0
 15 16  1  0  0  0  0
 16 22  1  0  0  0  0
 16 12  2  0  0  0  0
 17 27  1  6  0  0  0
 17  9  1  0  0  0  0
 17 10  1  0  0  0  0
 18  3  2  0  0  0  0
 19 13  2  0  0  0  0
 20 21  1  0  0  0  0
 21 23  2  0  0  0  0
 22 25  2  0  0  0  0
 24 20  2  0  0  0  0
 24 22  1  0  0  0  0
 25 23  1  0  0  0  0
 26 20  1  0  0  0  0
 28 27  1  0  0  0  0
 29 33  2  0  0  0  0
 31 30  2  0  0  0  0
 31 32  1  0  0  0  0
 33 32  1  0  0  0  0
 33 28  1  0  0  0  0
 34 31  1  0  0  0  0
M  END
>  <MODEL>
1

>  <REMARK>
 VINA RESULT:      -9.2      0.000      0.000
  Name = 
  4 active torsions:
  status: ('A' for Active; 'I' for Inactive)
    1  A    between atoms: C_3  and  C_13
    2  A    between atoms: C_3  and  C_29
    3  A    between atoms: C_12  and  C_28
    4  A    between atoms: C_13  and  C_33
                            x       y       z     vdW  Elec       q    Type
                         _______ _______ _______ _____ _____    ______ ____

>  <TORSDO>
F 4

$$$$
=
 OpenBabel11052419033D

 34 38  0  0  1  0  0  0  0  0999 V2000
  185.2970  177.7880  143.9990 C   0  0  0  0  0  0  0  0  0  0  0  0
  185.8290  177.3450  146.3230 C   0  0  0  0  0  0  0  0  0  0  0  0
  187.3050  176.4580  144.4700 C   0  0  0  0  0  0  0  0  0  0  0  0
  189.4440  175.3030  144.7250 C   0  0  0  0  0  0  0  0  0  0  0  0
  184.2760  178.6540  144.4000 C   0  0  0  0  0  3  0  0  0  0  0  0
  184.8090  178.2200  146.7090 C   0  0  0  0  0  3  0  0  0  0  0  0
  188.8300  177.0530  146.4450 C   0  0  0  0  0  2  0  0  0  0  0  0
  186.1830  177.2150  144.9510 C   0  0  0  0  0  0  0  0  0  0  0  0
  190.2910  176.9680  146.8730 C   0  0  0  0  0  2  0  0  0  0  0  0
  190.7180  174.9880  145.4620 C   0  0  0  0  0  2  0  0  0  0  0  0
  184.0550  178.8950  145.7530 C   0  0  0  0  0  3  0  0  0  0  0  0
  187.2780  176.0010  143.1210 C   0  0  0  0  0  0  0  0  0  0  0  0
  185.3840  177.4470  142.6560 C   0  0  0  0  0  3  0  0  0  0  0  0
  186.3870  176.5400  147.3070 O   0  0  0  0  0  1  0  0  0  0  0  0
  189.2870  174.7650  143.4920 N   0  0  0  0  0  0  0  0  0  0  0  0
  188.2560  175.0830  142.6690 C   0  0  0  0  0  0  0  0  0  0  0  0
  190.7200  175.5140  146.8920 C   0  0  1  0  0  3  0  0  0  0  0  0
  188.4940  176.2250  145.2200 C   0  0  0  0  0  0  0  0  0  0  0  0
  186.3370  176.5340  142.2310 C   0  0  0  0  0  3  0  0  0  0  0  0
  187.9630  174.6870  138.9140 C   0  0  0  0  0  0  0  0  0  0  0  0
  188.2600  173.3340  138.7430 C   0  0  0  0  0  3  0  0  0  0  0  0
  188.2330  174.4550  141.3210 C   0  0  0  0  0  0  0  0  0  0  0  0
  188.5520  172.5380  139.8530 C   0  0  0  0  0  3  0  0  0  0  0  0
  187.9560  175.2450  140.1950 C   0  0  0  0  0  3  0  0  0  0  0  0
  188.5440  173.0980  141.1340 C   0  0  0  0  0  3  0  0  0  0  0  0
  187.6860  175.4610  137.8370 F   0  0  0  0  0  0  0  0  0  0  0  0
  192.1120  175.4060  147.4880 C   0  0  0  0  0  2  0  0  0  0  0  0
  192.9300  176.6390  147.1480 C   0  0  0  0  0  2  0  0  0  0  0  0
  193.7900  176.9050  144.9510 O   0  0  0  0  0  0  0  0  0  0  0  0
  196.7250  174.0130  145.7020 O   0  0  0  0  0  0  0  0  0  0  0  0
  195.9020  174.8990  145.3560 C   0  0  0  0  0  0  0  0  0  0  0  0
  194.9060  175.3320  146.2910 N   0  0  0  0  0  2  0  0  0  0  0  0
  193.8950  176.3200  146.0620 C   0  0  0  0  0  0  0  0  0  0  0  0
  195.9990  175.4680  143.9800 C   0  0  0  0  0  1  0  0  0  0  0  0
  1  5  2  0  0  0  0
  1  8  1  0  0  0  0
  2  6  1  0  0  0  0
  2 14  1  0  0  0  0
  3  8  1  0  0  0  0
  3 18  1  0  0  0  0
  4 18  2  0  0  0  0
  4 10  1  0  0  0  0
  5 11  1  0  0  0  0
  7  9  1  0  0  0  0
  8  2  2  0  0  0  0
  9 17  1  0  0  0  0
 10 17  1  0  0  0  0
 11  6  2  0  0  0  0
 12  3  2  0  0  0  0
 13  1  1  0  0  0  0
 15  4  1  0  0  0  0
 16 12  1  0  0  0  0
 16 15  2  0  0  0  0
 17 27  1  6  0  0  0
 18  7  1  0  0  0  0
 19 13  2  0  0  0  0
 19 12  1  0  0  0  0
 20 24  1  0  0  0  0
 21 20  2  0  0  0  0
 21 23  1  0  0  0  0
 22 16  1  0  0  0  0
 23 25  2  0  0  0  0
 24 22  2  0  0  0  0
 25 22  1  0  0  0  0
 26 20  1  0  0  0  0
 28 27  1  0  0  0  0
 29 33  2  0  0  0  0
 31 30  2  0  0  0  0
 31 32  1  0  0  0  0
 33 32  1  0  0  0  0
 33 28  1  0  0  0  0
 34 31  1  0  0  0  0
M  END
>  <MODEL>
2

>  <REMARK>
 VINA RESULT:      -9.0      3.383      7.853
  Name = 
  4 active torsions:
  status: ('A' for Active; 'I' for Inactive)
    1  A    between atoms: C_3  and  C_13
    2  A    between atoms: C_3  and  C_29
    3  A    between atoms: C_12  and  C_28
    4  A    between atoms: C_13  and  C_33
                            x       y       z     vdW  Elec       q    Type
                         _______ _______ _______ _____ _____    ______ ____

>  <TORSDO>
F 4

$$$$
=
 OpenBabel11052419033D

 34 38  0  0  1  0  0  0  0  0999 V2000
  191.4590  176.1250  146.0440 C   0  0  0  0  0  0  0  0  0  0  0  0
  191.8290  173.9460  145.0450 C   0  0  0  0  0  0  0  0  0  0  0  0
  189.8300  175.3460  144.3810 C   0  0  0  0  0  0  0  0  0  0  0  0
  188.2200  174.8540  142.6090 C   0  0  0  0  0  0  0  0  0  0  0  0
  192.7040  176.0460  146.6720 C   0  0  0  0  0  3  0  0  0  0  0  0
  193.0760  173.8850  145.6750 C   0  0  0  0  0  3  0  0  0  0  0  0
  190.6050  174.0770  142.2900 C   0  0  0  0  0  2  0  0  0  0  0  0
  191.0490  175.1340  145.1100 C   0  0  0  0  0  0  0  0  0  0  0  0
  190.2050  173.8450  140.8370 C   0  0  0  0  0  2  0  0  0  0  0  0
  187.8110  174.2200  141.3070 C   0  0  0  0  0  2  0  0  0  0  0  0
  193.5260  174.9430  146.4610 C   0  0  0  0  0  3  0  0  0  0  0  0
  188.9110  176.3150  144.8760 C   0  0  0  0  0  0  0  0  0  0  0  0
  190.6020  177.1570  146.4010 C   0  0  0  0  0  3  0  0  0  0  0  0
  191.3480  172.7790  144.4670 O   0  0  0  0  0  1  0  0  0  0  0  0
  187.3230  175.6680  143.2150 N   0  0  0  0  0  0  0  0  0  0  0  0
  187.6150  176.4090  144.3130 C   0  0  0  0  0  0  0  0  0  0  0  0
  188.8300  173.2080  140.7960 C   0  0  1  0  0  3  0  0  0  0  0  0
  189.5260  174.7280  143.1330 C   0  0  0  0  0  0  0  0  0  0  0  0
  189.3290  177.2260  145.8540 C   0  0  0  0  0  3  0  0  0  0  0  0
  185.3530  179.4150  144.7480 C   0  0  0  0  0  0  0  0  0  0  0  0
  184.4960  178.9860  145.7630 C   0  0  0  0  0  3  0  0  0  0  0  0
  186.5500  177.2980  144.8480 C   0  0  0  0  0  0  0  0  0  0  0  0
  184.6540  177.7140  146.3180 C   0  0  0  0  0  3  0  0  0  0  0  0
  186.3700  178.5730  144.2890 C   0  0  0  0  0  3  0  0  0  0  0  0
  185.6720  176.8730  145.8580 C   0  0  0  0  0  3  0  0  0  0  0  0
  185.1960  180.6460  144.2040 F   0  0  0  0  0  0  0  0  0  0  0  0
  188.5010  172.8090  139.3690 C   0  0  0  0  0  2  0  0  0  0  0  0
  189.7720  172.6850  138.5480 C   0  0  0  0  0  2  0  0  0  0  0  0
  189.8380  170.9390  136.9410 O   0  0  0  0  0  0  0  0  0  0  0  0
  190.8030  168.1660  139.9270 O   0  0  0  0  0  0  0  0  0  0  0  0
  190.5270  168.8970  138.9410 C   0  0  0  0  0  0  0  0  0  0  0  0
  190.3060  170.2970  139.1510 N   0  0  0  0  0  2  0  0  0  0  0  0
  189.9800  171.2680  138.1490 C   0  0  0  0  0  0  0  0  0  0  0  0
  190.4430  168.2740  137.5880 C   0  0  0  0  0  1  0  0  0  0  0  0
  1 13  1  0  0  0  0
  1  5  2  0  0  0  0
  2  8  2  0  0  0  0
  2  6  1  0  0  0  0
  3 12  1  0  0  0  0
  3  8  1  0  0  0  0
  4 18  1  0  0  0  0
  4 15  2  0  0  0  0
  6 11  2  0  0  0  0
  7 18  1  0  0  0  0
  8  1  1  0  0  0  0
  9  7  1  0  0  0  0
 10  4  1  0  0  0  0
 11  5  1  0  0  0  0
 12 19  1  0  0  0  0
 14  2  1  0  0  0  0
 15 16  1  0  0  0  0
 16 22  1  0  0  0  0
 16 12  2  0  0  0  0
 17 27  1  6  0  0  0
 17  9  1  0  0  0  0
 17 10  1  0  0  0  0
 18  3  2  0  0  0  0
 19 13  2  0  0  0  0
 20 21  1  0  0  0  0
 21 23  2  0  0  0  0
 22 25  2  0  0  0  0
 24 20  2  0  0  0  0
 24 22  1  0  0  0  0
 25 23  1  0  0  0  0
 26 20  1  0  0  0  0
 28 27  1  0  0  0  0
 29 33  2  0  0  0  0
 31 32  1  0  0  0  0
 31 30  2  0  0  0  0
 33 28  1  0  0  0  0
 33 32  1  0  0  0  0
 34 31  1  0  0  0  0
M  END
>  <MODEL>
3

>  <REMARK>
 VINA RESULT:      -8.6      1.963      2.872
  Name = 
  4 active torsions:
  status: ('A' for Active; 'I' for Inactive)
    1  A    between atoms: C_3  and  C_13
    2  A    between atoms: C_3  and  C_29
    3  A    between atoms: C_12  and  C_28
    4  A    between atoms: C_13  and  C_33
                            x       y       z     vdW  Elec       q    Type
                         _______ _______ _______ _____ _____    ______ ____

>  <TORSDO>
F 4

$$$$
=
 OpenBabel11052419033D

 34 38  0  0  1  0  0  0  0  0999 V2000
  186.6810  177.9750  142.6050 C   0  0  0  0  0  0  0  0  0  0  0  0
  187.0200  177.7700  144.9980 C   0  0  0  0  0  0  0  0  0  0  0  0
  188.4470  176.4550  143.3760 C   0  0  0  0  0  0  0  0  0  0  0  0
  190.3800  175.0610  143.9200 C   0  0  0  0  0  0  0  0  0  0  0  0
  185.7770  179.0170  142.8240 C   0  0  0  0  0  3  0  0  0  0  0  0
  186.1190  178.8200  145.2000 C   0  0  0  0  0  3  0  0  0  0  0  0
  189.9370  177.0880  145.3660 C   0  0  0  0  0  2  0  0  0  0  0  0
  187.4240  177.4140  143.6800 C   0  0  0  0  0  0  0  0  0  0  0  0
  191.3450  176.8600  145.9040 C   0  0  0  0  0  2  0  0  0  0  0  0
  191.5540  174.6730  144.7780 C   0  0  0  0  0  2  0  0  0  0  0  0
  185.5220  179.4620  144.1180 C   0  0  0  0  0  3  0  0  0  0  0  0
  188.4260  175.8330  142.0940 C   0  0  0  0  0  0  0  0  0  0  0  0
  186.7890  177.4530  141.3230 C   0  0  0  0  0  3  0  0  0  0  0  0
  187.4020  177.0320  146.1100 O   0  0  0  0  0  1  0  0  0  0  0  0
  190.2110  174.3930  142.7540 N   0  0  0  0  0  0  0  0  0  0  0  0
  189.2830  174.7390  141.8270 C   0  0  0  0  0  0  0  0  0  0  0  0
  191.5570  175.3760  146.1310 C   0  0  1  0  0  3  0  0  0  0  0  0
  189.5490  176.1610  144.2310 C   0  0  0  0  0  0  0  0  0  0  0  0
  187.6200  176.3690  141.0810 C   0  0  0  0  0  3  0  0  0  0  0  0
  190.3410  173.2150  138.5260 C   0  0  0  0  0  0  0  0  0  0  0  0
  189.2450  172.4070  138.2170 C   0  0  0  0  0  3  0  0  0  0  0  0
  189.2400  173.9490  140.5680 C   0  0  0  0  0  0  0  0  0  0  0  0
  188.1490  172.3590  139.0810 C   0  0  0  0  0  3  0  0  0  0  0  0
  190.3410  173.9760  139.6980 C   0  0  0  0  0  3  0  0  0  0  0  0
  188.1500  173.1210  140.2530 C   0  0  0  0  0  3  0  0  0  0  0  0
  191.4080  173.2580  137.6910 F   0  0  0  0  0  0  0  0  0  0  0  0
  192.8850  175.1570  146.8320 C   0  0  0  0  0  2  0  0  0  0  0  0
  193.8290  176.3110  146.5480 C   0  0  0  0  0  2  0  0  0  0  0  0
  195.6610  174.8580  146.1360 O   0  0  0  0  0  0  0  0  0  0  0  0
  196.5350  176.8930  142.5820 O   0  0  0  0  0  0  0  0  0  0  0  0
  196.3730  176.1970  143.6160 C   0  0  0  0  0  0  0  0  0  0  0  0
  195.3010  176.5160  144.5120 N   0  0  0  0  0  2  0  0  0  0  0  0
  194.9760  175.8350  145.7300 C   0  0  0  0  0  0  0  0  0  0  0  0
  197.3060  175.0600  143.8690 C   0  0  0  0  0  1  0  0  0  0  0  0
  1  5  2  0  0  0  0
  1  8  1  0  0  0  0
  2  6  1  0  0  0  0
  2 14  1  0  0  0  0
  3  8  1  0  0  0  0
  3 18  1  0  0  0  0
  4 18  2  0  0  0  0
  4 10  1  0  0  0  0
  5 11  1  0  0  0  0
  7  9  1  0  0  0  0
  8  2  2  0  0  0  0
  9 17  1  0  0  0  0
 10 17  1  0  0  0  0
 11  6  2  0  0  0  0
 12  3  2  0  0  0  0
 13  1  1  0  0  0  0
 15  4  1  0  0  0  0
 16 12  1  0  0  0  0
 16 15  2  0  0  0  0
 17 27  1  6  0  0  0
 18  7  1  0  0  0  0
 19 13  2  0  0  0  0
 19 12  1  0  0  0  0
 20 24  1  0  0  0  0
 21 20  2  0  0  0  0
 21 23  1  0  0  0  0
 22 16  1  0  0  0  0
 23 25  2  0  0  0  0
 24 22  2  0  0  0  0
 25 22  1  0  0  0  0
 26 20  1  0  0  0  0
 28 27  1  0  0  0  0
 30 31  2  0  0  0  0
 31 34  1  0  0  0  0
 31 32  1  0  0  0  0
 32 33  1  0  0  0  0
 33 29  2  0  0  0  0
 33 28  1  0  0  0  0
M  END
>  <MODEL>
4

>  <REMARK>
 VINA RESULT:      -8.6      3.624      7.939
  Name = 
  4 active torsions:
  status: ('A' for Active; 'I' for Inactive)
    1  A    between atoms: C_3  and  C_13
    2  A    between atoms: C_3  and  C_29
    3  A    between atoms: C_12  and  C_28
    4  A    between atoms: C_13  and  C_33
                            x       y       z     vdW  Elec       q    Type
                         _______ _______ _______ _____ _____    ______ ____

>  <TORSDO>
F 4

$$$$
=
 OpenBabel11052419033D

 34 38  0  0  1  0  0  0  0  0999 V2000
  187.5810  176.7140  146.1330 C   0  0  0  0  0  0  0  0  0  0  0  0
  186.4360  176.8690  144.0000 C   0  0  0  0  0  0  0  0  0  0  0  0
  188.7160  175.7860  144.1640 C   0  0  0  0  0  0  0  0  0  0  0  0
  189.9180  174.6220  142.3810 C   0  0  0  0  0  0  0  0  0  0  0  0
  186.4390  177.1910  146.7790 C   0  0  0  0  0  3  0  0  0  0  0  0
  185.2970  177.3380  144.6630 C   0  0  0  0  0  3  0  0  0  0  0  0
  187.3910  174.5130  142.3730 C   0  0  0  0  0  2  0  0  0  0  0  0
  187.5630  176.4170  144.7420 C   0  0  0  0  0  0  0  0  0  0  0  0
  187.5650  173.3970  141.3500 C   0  0  0  0  0  2  0  0  0  0  0  0
  189.9820  173.8320  141.1030 C   0  0  0  0  0  2  0  0  0  0  0  0
  185.2870  177.4700  146.0490 C   0  0  0  0  0  3  0  0  0  0  0  0
  189.9410  175.8270  144.8910 C   0  0  0  0  0  0  0  0  0  0  0  0
  188.7560  176.5990  146.8650 C   0  0  0  0  0  3  0  0  0  0  0  0
  186.4590  176.9730  142.6160 O   0  0  0  0  0  1  0  0  0  0  0  0
  191.0800  174.8340  143.0440 N   0  0  0  0  0  0  0  0  0  0  0  0
  191.1410  175.4040  144.2730 C   0  0  0  0  0  0  0  0  0  0  0  0
  188.6490  173.7890  140.3650 C   0  0  1  0  0  3  0  0  0  0  0  0
  188.6920  175.0260  142.9590 C   0  0  0  0  0  0  0  0  0  0  0  0
  189.9280  176.2010  146.2410 C   0  0  0  0  0  3  0  0  0  0  0  0
  194.3290  176.9460  145.6160 C   0  0  0  0  0  0  0  0  0  0  0  0
  194.9730  175.8390  146.1710 C   0  0  0  0  0  3  0  0  0  0  0  0
  192.4810  175.5310  144.9070 C   0  0  0  0  0  0  0  0  0  0  0  0
  194.3740  174.5790  146.1050 C   0  0  0  0  0  3  0  0  0  0  0  0
  193.0880  176.7940  144.9930 C   0  0  0  0  0  3  0  0  0  0  0  0
  193.1320  174.4280  145.4830 C   0  0  0  0  0  3  0  0  0  0  0  0
  194.9070  178.1700  145.6840 F   0  0  0  0  0  0  0  0  0  0  0  0
  188.7040  172.7690  139.2420 C   0  0  0  0  0  2  0  0  0  0  0  0
  189.7240  173.1870  138.1990 C   0  0  0  0  0  2  0  0  0  0  0  0
  189.7600  174.5280  136.2400 O   0  0  0  0  0  0  0  0  0  0  0  0
  185.9630  176.0410  137.1520 O   0  0  0  0  0  0  0  0  0  0  0  0
  187.0970  175.6590  136.7630 C   0  0  0  0  0  0  0  0  0  0  0  0
  187.8190  174.7030  137.5500 N   0  0  0  0  0  2  0  0  0  0  0  0
  189.1150  174.1660  137.2600 C   0  0  0  0  0  0  0  0  0  0  0  0
  187.6440  176.2160  135.4920 C   0  0  0  0  0  1  0  0  0  0  0  0
  1  5  1  0  0  0  0
  1 13  1  0  0  0  0
  2  6  2  0  0  0  0
  2  8  1  0  0  0  0
  3  8  1  0  0  0  0
  3 12  1  0  0  0  0
  4 18  1  0  0  0  0
  4 15  2  0  0  0  0
  6 11  1  0  0  0  0
  7 18  1  0  0  0  0
  8  1  2  0  0  0  0
  9  7  1  0  0  0  0
 10  4  1  0  0  0  0
 11  5  2  0  0  0  0
 12 19  1  0  0  0  0
 14  2  1  0  0  0  0
 15 16  1  0  0  0  0
 16 12  2  0  0  0  0
 16 22  1  0  0  0  0
 17 27  1  6  0  0  0
 17 10  1  0  0  0  0
 17  9  1  0  0  0  0
 18  3  2  0  0  0  0
 19 13  2  0  0  0  0
 20 26  1  0  0  0  0
 20 21  1  0  0  0  0
 22 24  1  0  0  0  0
 22 25  2  0  0  0  0
 23 21  2  0  0  0  0
 24 20  2  0  0  0  0
 25 23  1  0  0  0  0
 28 27  1  0  0  0  0
 29 33  2  0  0  0  0
 31 30  2  0  0  0  0
 31 32  1  0  0  0  0
 33 32  1  0  0  0  0
 33 28  1  0  0  0  0
 34 31  1  0  0  0  0
M  END
>  <MODEL>
5

>  <REMARK>
 VINA RESULT:      -8.1      2.369      5.218
  Name = 
  4 active torsions:
  status: ('A' for Active; 'I' for Inactive)
    1  A    between atoms: C_3  and  C_13
    2  A    between atoms: C_3  and  C_29
    3  A    between atoms: C_12  and  C_28
    4  A    between atoms: C_13  and  C_33
                            x       y       z     vdW  Elec       q    Type
                         _______ _______ _______ _____ _____    ______ ____

>  <TORSDO>
F 4

$$$$
=
 OpenBabel11052419033D

 34 38  0  0  1  0  0  0  0  0999 V2000
  191.7380  173.5870  140.6370 C   0  0  0  0  0  0  0  0  0  0  0  0
  189.3960  173.8180  141.2260 C   0  0  0  0  0  0  0  0  0  0  0  0
  191.2050  174.2400  142.9420 C   0  0  0  0  0  0  0  0  0  0  0  0
  190.9020  175.0940  145.2130 C   0  0  0  0  0  0  0  0  0  0  0  0
  191.3820  173.4150  139.2970 C   0  0  0  0  0  3  0  0  0  0  0  0
  189.0570  173.6520  139.8790 C   0  0  0  0  0  3  0  0  0  0  0  0
  189.2940  175.8810  143.4260 C   0  0  0  0  0  2  0  0  0  0  0  0
  190.7610  173.9240  141.6140 C   0  0  0  0  0  0  0  0  0  0  0  0
  188.8810  176.9430  144.4390 C   0  0  0  0  0  2  0  0  0  0  0  0
  190.1620  175.8800  146.2610 C   0  0  0  0  0  2  0  0  0  0  0  0
  190.0450  173.4820  138.9140 C   0  0  0  0  0  3  0  0  0  0  0  0
  192.5210  173.8450  143.3230 C   0  0  0  0  0  0  0  0  0  0  0  0
  193.0560  173.3560  141.0060 C   0  0  0  0  0  3  0  0  0  0  0  0
  188.3680  173.7580  142.1570 O   0  0  0  0  0  1  0  0  0  0  0  0
  192.0940  174.5550  145.5620 N   0  0  0  0  0  0  0  0  0  0  0  0
  192.9230  173.9480  144.6760 C   0  0  0  0  0  0  0  0  0  0  0  0
  188.7700  176.3060  145.8100 C   0  0  1  0  0  3  0  0  0  0  0  0
  190.4570  175.0170  143.8730 C   0  0  0  0  0  0  0  0  0  0  0  0
  193.4320  173.4440  142.3380 C   0  0  0  0  0  3  0  0  0  0  0  0
  195.6360  171.5600  145.8060 C   0  0  0  0  0  0  0  0  0  0  0  0
  196.6960  172.4310  146.0680 C   0  0  0  0  0  3  0  0  0  0  0  0
  194.2260  173.4440  145.1860 C   0  0  0  0  0  0  0  0  0  0  0  0
  196.5300  173.8050  145.8830 C   0  0  0  0  0  3  0  0  0  0  0  0
  194.4100  172.0630  145.3630 C   0  0  0  0  0  3  0  0  0  0  0  0
  195.3040  174.3070  145.4390 C   0  0  0  0  0  3  0  0  0  0  0  0
  195.7970  170.2260  145.9790 F   0  0  0  0  0  0  0  0  0  0  0  0
  188.1870  177.3090  146.7880 C   0  0  0  0  0  2  0  0  0  0  0  0
  186.8170  176.8530  147.2590 C   0  0  0  0  0  2  0  0  0  0  0  0
  184.5950  177.0150  146.4410 O   0  0  0  0  0  0  0  0  0  0  0  0
  185.6460  180.3300  144.1080 O   0  0  0  0  0  0  0  0  0  0  0  0
  185.2030  179.3540  144.7660 C   0  0  0  0  0  0  0  0  0  0  0  0
  186.0930  178.6280  145.6230 N   0  0  0  0  0  2  0  0  0  0  0  0
  185.7600  177.4950  146.4350 C   0  0  0  0  0  0  0  0  0  0  0  0
  183.7630  178.9910  144.6280 C   0  0  0  0  0  1  0  0  0  0  0  0
  1 13  2  0  0  0  0
  1  8  1  0  0  0  0
  2  8  1  0  0  0  0
  2 14  1  0  0  0  0
  3 12  1  0  0  0  0
  3 18  1  0  0  0  0
  4 15  1  0  0  0  0
  4 10  1  0  0  0  0
  5  1  1  0  0  0  0
  6  2  2  0  0  0  0
  7 18  1  0  0  0  0
  7  9  1  0  0  0  0
  8  3  2  0  0  0  0
  9 17  1  0  0  0  0
 11  5  2  0  0  0  0
 11  6  1  0  0  0  0
 12 16  1  0  0  0  0
 13 19  1  0  0  0  0
 16 22  1  0  0  0  0
 16 15  2  0  0  0  0
 17 10  1  0  0  0  0
 17 27  1  1  0  0  0
 18  4  2  0  0  0  0
 19 12  2  0  0  0  0
 20 26  1  0  0  0  0
 20 21  1  0  0  0  0
 22 24  1  0  0  0  0
 22 25  2  0  0  0  0
 23 21  2  0  0  0  0
 24 20  2  0  0  0  0
 25 23  1  0  0  0  0
 27 28  1  0  0  0  0
 30 31  2  0  0  0  0
 31 32  1  0  0  0  0
 32 33  1  0  0  0  0
 33 29  2  0  0  0  0
 33 28  1  0  0  0  0
 34 31  1  0  0  0  0
M  END
>  <MODEL>
6

>  <REMARK>
 VINA RESULT:      -8.0      3.864      8.246
  Name = 
  4 active torsions:
  status: ('A' for Active; 'I' for Inactive)
    1  A    between atoms: C_3  and  C_13
    2  A    between atoms: C_3  and  C_29
    3  A    between atoms: C_12  and  C_28
    4  A    between atoms: C_13  and  C_33
                            x       y       z     vdW  Elec       q    Type
                         _______ _______ _______ _____ _____    ______ ____

>  <TORSDO>
F 4

$$$$
=
 OpenBabel11052419033D

 34 38  0  0  1  0  0  0  0  0999 V2000
  188.4080  173.6970  141.2180 C   0  0  0  0  0  0  0  0  0  0  0  0
  190.8060  173.8510  140.8890 C   0  0  0  0  0  0  0  0  0  0  0  0
  189.7120  174.8940  142.9180 C   0  0  0  0  0  0  0  0  0  0  0  0
  190.8410  175.9380  144.8180 C   0  0  0  0  0  0  0  0  0  0  0  0
  188.3170  172.8270  140.1290 C   0  0  0  0  0  3  0  0  0  0  0  0
  190.7000  172.9730  139.8070 C   0  0  0  0  0  3  0  0  0  0  0  0
  192.0110  174.0240  143.6510 C   0  0  0  0  0  2  0  0  0  0  0  0
  189.6730  174.1270  141.7050 C   0  0  0  0  0  0  0  0  0  0  0  0
  192.9330  174.0080  144.8650 C   0  0  0  0  0  2  0  0  0  0  0  0
  192.0110  176.1220  145.7460 C   0  0  0  0  0  2  0  0  0  0  0  0
  189.4660  172.4390  139.4450 C   0  0  0  0  0  3  0  0  0  0  0  0
  188.5060  175.5050  143.3660 C   0  0  0  0  0  0  0  0  0  0  0  0
  187.2330  174.1880  141.7720 C   0  0  0  0  0  3  0  0  0  0  0  0
  192.0130  174.5180  141.0560 O   0  0  0  0  0  1  0  0  0  0  0  0
  189.7060  176.6190  145.1020 N   0  0  0  0  0  0  0  0  0  0  0  0
  188.5410  176.4350  144.4330 C   0  0  0  0  0  0  0  0  0  0  0  0
  193.2770  175.4350  145.2470 C   0  0  1  0  0  3  0  0  0  0  0  0
  190.8550  174.9980  143.7620 C   0  0  0  0  0  0  0  0  0  0  0  0
  187.2840  175.1110  142.8050 C   0  0  0  0  0  3  0  0  0  0  0  0
  185.8900  179.1350  144.5930 C   0  0  0  0  0  0  0  0  0  0  0  0
  185.0810  178.6820  145.6370 C   0  0  0  0  0  3  0  0  0  0  0  0
  187.3570  177.2150  144.8820 C   0  0  0  0  0  0  0  0  0  0  0  0
  185.3990  177.4950  146.3010 C   0  0  0  0  0  3  0  0  0  0  0  0
  187.0180  178.4020  144.2150 C   0  0  0  0  0  3  0  0  0  0  0  0
  186.5270  176.7630  145.9210 C   0  0  0  0  0  3  0  0  0  0  0  0
  185.5800  180.2830  143.9450 F   0  0  0  0  0  0  0  0  0  0  0  0
  194.3330  175.4250  146.3370 C   0  0  0  0  0  2  0  0  0  0  0  0
  195.6720  174.9830  145.7720 C   0  0  0  0  0  2  0  0  0  0  0  0
  195.8820  176.8710  144.3480 O   0  0  0  0  0  0  0  0  0  0  0  0
  196.4410  174.3680  141.0380 O   0  0  0  0  0  0  0  0  0  0  0  0
  196.2950  175.2240  141.9480 C   0  0  0  0  0  0  0  0  0  0  0  0
  196.0820  174.7820  143.2940 N   0  0  0  0  0  2  0  0  0  0  0  0
  195.8930  175.6150  144.4440 C   0  0  0  0  0  0  0  0  0  0  0  0
  196.3510  176.6700  141.5870 C   0  0  0  0  0  1  0  0  0  0  0  0
  1  8  2  0  0  0  0
  1 13  1  0  0  0  0
  2 14  1  0  0  0  0
  2  8  1  0  0  0  0
  3 12  2  0  0  0  0
  3 18  1  0  0  0  0
  4 15  1  0  0  0  0
  4 10  1  0  0  0  0
  5  1  1  0  0  0  0
  6  2  2  0  0  0  0
  7 18  1  0  0  0  0
  7  9  1  0  0  0  0
  8  3  1  0  0  0  0
  9 17  1  0  0  0  0
 11  6  1  0  0  0  0
 11  5  2  0  0  0  0
 12 16  1  0  0  0  0
 13 19  2  0  0  0  0
 16 22  1  0  0  0  0
 16 15  2  0  0  0  0
 17 10  1  0  0  0  0
 17 27  1  1  0  0  0
 18  4  2  0  0  0  0
 19 12  1  0  0  0  0
 20 21  1  0  0  0  0
 21 23  2  0  0  0  0
 22 25  2  0  0  0  0
 24 20  2  0  0  0  0
 24 22  1  0  0  0  0
 25 23  1  0  0  0  0
 26 20  1  0  0  0  0
 28 27  1  0  0  0  0
 29 33  2  0  0  0  0
 30 31  2  0  0  0  0
 31 32  1  0  0  0  0
 32 33  1  0  0  0  0
 33 28  1  0  0  0  0
 34 31  1  0  0  0  0
M  END
>  <MODEL>
7

>  <REMARK>
 VINA RESULT:      -8.0      2.816      6.216
  Name = 
  4 active torsions:
  status: ('A' for Active; 'I' for Inactive)
    1  A    between atoms: C_3  and  C_13
    2  A    between atoms: C_3  and  C_29
    3  A    between atoms: C_12  and  C_28
    4  A    between atoms: C_13  and  C_33
                            x       y       z     vdW  Elec       q    Type
                         _______ _______ _______ _____ _____    ______ ____

>  <TORSDO>
F 4

$$$$
=
 OpenBabel11052419033D

 34 38  0  0  1  0  0  0  0  0999 V2000
  191.4920  172.8320  140.3410 C   0  0  0  0  0  0  0  0  0  0  0  0
  189.0760  172.7670  140.1400 C   0  0  0  0  0  0  0  0  0  0  0  0
  190.1960  174.4150  141.6970 C   0  0  0  0  0  0  0  0  0  0  0  0
  189.1130  176.2020  142.9660 C   0  0  0  0  0  0  0  0  0  0  0  0
  191.6030  171.9260  139.2840 C   0  0  0  0  0  3  0  0  0  0  0  0
  189.2040  171.8670  139.0780 C   0  0  0  0  0  3  0  0  0  0  0  0
  188.1190  175.5680  140.7290 C   0  0  0  0  0  2  0  0  0  0  0  0
  190.2300  173.3750  140.7080 C   0  0  0  0  0  0  0  0  0  0  0  0
  187.3250  176.8630  140.8530 C   0  0  0  0  0  2  0  0  0  0  0  0
  188.0200  177.2100  143.1960 C   0  0  0  0  0  2  0  0  0  0  0  0
  190.4610  171.4700  138.6310 C   0  0  0  0  0  3  0  0  0  0  0  0
  191.3420  174.5930  142.5250 C   0  0  0  0  0  0  0  0  0  0  0  0
  192.6330  173.1400  141.0700 C   0  0  0  0  0  3  0  0  0  0  0  0
  187.8090  172.9450  140.6790 O   0  0  0  0  0  1  0  0  0  0  0  0
  190.1640  176.2150  143.8210 N   0  0  0  0  0  0  0  0  0  0  0  0
  191.2760  175.4600  143.6420 C   0  0  0  0  0  0  0  0  0  0  0  0
  186.8220  177.0040  142.2760 C   0  0  1  0  0  3  0  0  0  0  0  0
  189.1330  175.3540  141.8350 C   0  0  0  0  0  0  0  0  0  0  0  0
  192.5490  173.9770  142.1730 C   0  0  0  0  0  3  0  0  0  0  0  0
  194.1640  176.9620  145.5770 C   0  0  0  0  0  0  0  0  0  0  0  0
  194.4110  175.9790  146.5370 C   0  0  0  0  0  3  0  0  0  0  0  0
  192.3760  175.6090  144.6330 C   0  0  0  0  0  0  0  0  0  0  0  0
  193.6390  174.8140  146.5560 C   0  0  0  0  0  3  0  0  0  0  0  0
  193.1490  176.7810  144.6340 C   0  0  0  0  0  3  0  0  0  0  0  0
  192.6240  174.6340  145.6130 C   0  0  0  0  0  3  0  0  0  0  0  0
  194.9080  178.0950  145.5620 F   0  0  0  0  0  0  0  0  0  0  0  0
  185.8830  178.1930  142.3640 C   0  0  0  0  0  2  0  0  0  0  0  0
  184.6070  177.8070  143.0920 C   0  0  0  0  0  2  0  0  0  0  0  0
  184.2660  179.3140  144.8940 O   0  0  0  0  0  0  0  0  0  0  0  0
  186.0900  176.6320  147.5430 O   0  0  0  0  0  0  0  0  0  0  0  0
  185.5170  177.5160  146.8550 C   0  0  0  0  0  0  0  0  0  0  0  0
  185.3300  177.2960  145.4510 N   0  0  0  0  0  2  0  0  0  0  0  0
  184.7060  178.1930  144.5240 C   0  0  0  0  0  0  0  0  0  0  0  0
  185.0520  178.7600  147.5320 C   0  0  0  0  0  1  0  0  0  0  0  0
  1  8  2  0  0  0  0
  1 13  1  0  0  0  0
  2 14  1  0  0  0  0
  2  8  1  0  0  0  0
  3 18  2  0  0  0  0
  3 12  1  0  0  0  0
  4 10  1  0  0  0  0
  4 15  2  0  0  0  0
  5  1  1  0  0  0  0
  6  2  2  0  0  0  0
  7  9  1  0  0  0  0
  7 18  1  0  0  0  0
  8  3  1  0  0  0  0
  9 17  1  0  0  0  0
 11  6  1  0  0  0  0
 11  5  2  0  0  0  0
 12 16  2  0  0  0  0
 13 19  2  0  0  0  0
 16 15  1  0  0  0  0
 16 22  1  0  0  0  0
 17 27  1  6  0  0  0
 17 10  1  0  0  0  0
 18  4  1  0  0  0  0
 19 12  1  0  0  0  0
 20 21  1  0  0  0  0
 21 23  2  0  0  0  0
 22 24  1  0  0  0  0
 22 25  2  0  0  0  0
 24 20  2  0  0  0  0
 25 23  1  0  0  0  0
 26 20  1  0  0  0  0
 27 28  1  0  0  0  0
 28 33  1  0  0  0  0
 31 34  1  0  0  0  0
 31 30  2  0  0  0  0
 32 31  1  0  0  0  0
 33 29  2  0  0  0  0
 33 32  1  0  0  0  0
M  END
>  <MODEL>
8

>  <REMARK>
 VINA RESULT:      -7.9      3.192      7.306
  Name = 
  4 active torsions:
  status: ('A' for Active; 'I' for Inactive)
    1  A    between atoms: C_3  and  C_13
    2  A    between atoms: C_3  and  C_29
    3  A    between atoms: C_12  and  C_28
    4  A    between atoms: C_13  and  C_33
                            x       y       z     vdW  Elec       q    Type
                         _______ _______ _______ _____ _____    ______ ____

>  <TORSDO>
F 4

$$$$
=
 OpenBabel11052419033D

 34 38  0  0  1  0  0  0  0  0999 V2000
  187.5590  176.6540  146.2030 C   0  0  0  0  0  0  0  0  0  0  0  0
  186.4030  176.9050  144.0860 C   0  0  0  0  0  0  0  0  0  0  0  0
  188.6850  175.8200  144.1880 C   0  0  0  0  0  0  0  0  0  0  0  0
  189.8800  174.7440  142.3470 C   0  0  0  0  0  0  0  0  0  0  0  0
  186.4190  177.0980  146.8770 C   0  0  0  0  0  3  0  0  0  0  0  0
  185.2660  177.3400  144.7750 C   0  0  0  0  0  3  0  0  0  0  0  0
  187.3540  174.6300  142.3470 C   0  0  0  0  0  2  0  0  0  0  0  0
  187.5350  176.4220  144.8010 C   0  0  0  0  0  0  0  0  0  0  0  0
  187.5240  173.5620  141.2720 C   0  0  0  0  0  2  0  0  0  0  0  0
  189.9400  174.0140  141.0330 C   0  0  0  0  0  2  0  0  0  0  0  0
  185.2630  177.4080  146.1660 C   0  0  0  0  0  3  0  0  0  0  0  0
  189.9140  175.8300  144.9100 C   0  0  0  0  0  0  0  0  0  0  0  0
  188.7370  176.5080  146.9240 C   0  0  0  0  0  3  0  0  0  0  0  0
  186.4180  177.0740  142.7080 O   0  0  0  0  0  1  0  0  0  0  0  0
  191.0450  174.9260  143.0130 N   0  0  0  0  0  0  0  0  0  0  0  0
  191.1120  175.4400  144.2670 C   0  0  0  0  0  0  0  0  0  0  0  0
  188.6030  174.0020  140.3010 C   0  0  1  0  0  3  0  0  0  0  0  0
  188.6570  175.1180  142.9490 C   0  0  0  0  0  0  0  0  0  0  0  0
  189.9070  176.1410  146.2760 C   0  0  0  0  0  3  0  0  0  0  0  0
  194.3290  176.9180  145.6110 C   0  0  0  0  0  0  0  0  0  0  0  0
  194.9540  175.7970  146.1610 C   0  0  0  0  0  3  0  0  0  0  0  0
  192.4540  175.5400  144.8990 C   0  0  0  0  0  0  0  0  0  0  0  0
  194.3320  174.5490  146.0920 C   0  0  0  0  0  3  0  0  0  0  0  0
  193.0840  176.7910  144.9890 C   0  0  0  0  0  3  0  0  0  0  0  0
  193.0860  174.4230  145.4700 C   0  0  0  0  0  3  0  0  0  0  0  0
  194.9290  178.1310  145.6820 F   0  0  0  0  0  0  0  0  0  0  0  0
  188.6540  173.0360  139.1320 C   0  0  0  0  0  2  0  0  0  0  0  0
  188.6560  173.7960  137.8170 C   0  0  0  0  0  2  0  0  0  0  0  0
  189.4570  173.4630  135.6080 O   0  0  0  0  0  0  0  0  0  0  0  0
  190.7610  169.6130  136.6120 O   0  0  0  0  0  0  0  0  0  0  0  0
  190.4250  170.7480  136.1880 C   0  0  0  0  0  0  0  0  0  0  0  0
  189.7760  171.6630  137.0810 N   0  0  0  0  0  2  0  0  0  0  0  0
  189.3240  172.9850  136.7660 C   0  0  0  0  0  0  0  0  0  0  0  0
  190.7180  171.0990  134.7680 C   0  0  0  0  0  1  0  0  0  0  0  0
  1  5  1  0  0  0  0
  1 13  1  0  0  0  0
  2  6  2  0  0  0  0
  2  8  1  0  0  0  0
  3  8  1  0  0  0  0
  3 12  1  0  0  0  0
  4 18  1  0  0  0  0
  4 15  2  0  0  0  0
  6 11  1  0  0  0  0
  7 18  1  0  0  0  0
  8  1  2  0  0  0  0
  9  7  1  0  0  0  0
 10  4  1  0  0  0  0
 11  5  2  0  0  0  0
 12 19  1  0  0  0  0
 14  2  1  0  0  0  0
 15 16  1  0  0  0  0
 16 22  1  0  0  0  0
 16 12  2  0  0  0  0
 17 27  1  6  0  0  0
 17 10  1  0  0  0  0
 17  9  1  0  0  0  0
 18  3  2  0  0  0  0
 19 13  2  0  0  0  0
 20 26  1  0  0  0  0
 20 21  1  0  0  0  0
 22 24  1  0  0  0  0
 22 25  2  0  0  0  0
 23 21  2  0  0  0  0
 24 20  2  0  0  0  0
 25 23  1  0  0  0  0
 28 27  1  0  0  0  0
 29 33  2  0  0  0  0
 31 30  2  0  0  0  0
 31 32  1  0  0  0  0
 33 32  1  0  0  0  0
 33 28  1  0  0  0  0
 34 31  1  0  0  0  0
M  END
>  <MODEL>
9

>  <REMARK>
 VINA RESULT:      -7.9      2.714      5.647
  Name = 
  4 active torsions:
  status: ('A' for Active; 'I' for Inactive)
    1  A    between atoms: C_3  and  C_13
    2  A    between atoms: C_3  and  C_29
    3  A    between atoms: C_12  and  C_28
    4  A    between atoms: C_13  and  C_33
                            x       y       z     vdW  Elec       q    Type
                         _______ _______ _______ _____ _____    ______ ____

>  <TORSDO>
F 4

$$$$
