=
 OpenBabel11052417083D

 30 32  0  0  1  0  0  0  0  0999 V2000
  187.9220  176.0130  144.6200 N   0  0  2  0  0  0  0  0  0  0  0  0
  188.9150  177.0360  145.0380 C   0  0  1  0  0  3  0  0  0  0  0  0
  188.3400  175.1570  143.5000 C   0  0  0  0  0  2  0  0  0  0  0  0
  189.6840  172.8590  145.1700 O   0  0  0  0  0  0  0  0  0  0  0  0
  190.1960  174.1470  144.9870 C   0  0  1  0  0  3  0  0  0  0  0  0
  189.9840  173.2300  142.5340 S   0  0  0  0  0  0  0  0  0  0  0  0
  189.7900  174.6550  143.6100 C   0  0  1  0  0  3  0  0  0  0  0  0
  189.8110  175.0560  146.1570 C   0  0  0  0  0  2  0  0  0  0  0  0
  191.2450  171.5350  144.1300 O   0  0  0  0  0  1  0  0  0  0  0  0
  189.9960  172.1430  143.9990 C   0  0  1  0  0  3  0  0  0  0  0  0
  190.0280  176.4650  145.8230 N   0  0  0  0  0  0  0  0  0  0  0  0
  190.0590  177.1830  147.0850 C   0  0  0  0  0  1  0  0  0  0  0  0
  186.1050  177.4070  145.5720 C   0  0  1  0  0  3  0  0  0  0  0  0
  185.0350  177.8310  142.8510 C   0  0  2  0  0  3  0  0  0  0  0  0
  184.6880  177.9350  145.3330 C   0  0  2  0  0  3  0  0  0  0  0  0
  186.1260  176.6440  146.7250 F   0  0  0  0  0  0  0  0  0  0  0  0
  184.5890  178.7200  144.0190 C   0  0  1  0  0  3  0  0  0  0  0  0
  184.2770  178.7250  146.4080 O   0  0  0  0  0  1  0  0  0  0  0  0
  186.5760  176.5580  144.3820 C   0  0  1  0  0  3  0  0  0  0  0  0
  185.3820  180.0240  144.0750 C   0  0  0  0  0  1  0  0  0  0  0  0
  186.4620  177.3240  143.0560 C   0  0  0  0  0  2  0  0  0  0  0  0
  184.9410  178.5200  141.6400 O   0  0  0  0  0  0  0  0  0  0  0  0
  186.0020  178.1410  140.9600 O   0  0  0  0  0  1  0  0  0  0  0  0
  189.4690  177.8570  143.8710 C   0  0  0  0  0  2  0  0  0  0  0  0
  190.9360  178.1760  144.0940 C   0  0  0  0  0  2  0  0  0  0  0  0
  191.7570  177.4590  143.1320 N   0  0  0  0  0  2  0  0  0  0  0  0
  192.8560  176.5950  143.4570 C   0  0  0  0  0  0  0  0  0  0  0  0
  193.3470  175.5180  142.3340 S   0  0  0  0  0  0  0  0  0  0  0  0
  193.5670  176.6090  144.7500 C   0  0  0  0  0  3  0  0  0  0  0  0
  193.5590  175.6090  145.6200 C   0  0  0  0  0  2  0  0  0  0  0  0
  1  3  1  6  0  0  0
  1  2  1  0  0  0  0
  2 24  1  6  0  0  0
  2 11  1  0  0  0  0
  5  4  1  0  0  0  0
  5  8  1  1  0  0  0
  6  7  1  0  0  0  0
  6 10  1  0  0  0  0
  7  3  1  1  0  0  0
  7  5  1  0  0  0  0
 10  9  1  1  0  0  0
 10  4  1  0  0  0  0
 11  8  1  0  0  0  0
 11 12  1  0  0  0  0
 13 16  1  1  0  0  0
 14 22  1  6  0  0  0
 14 21  1  0  0  0  0
 14 17  1  0  0  0  0
 15 13  1  0  0  0  0
 15 18  1  1  0  0  0
 17 20  1  1  0  0  0
 17 15  1  0  0  0  0
 19 21  1  6  0  0  0
 19  1  1  0  0  0  0
 19 13  1  0  0  0  0
 23 22  1  0  0  0  0
 24 25  1  0  0  0  0
 26 27  1  0  0  0  0
 26 25  1  0  0  0  0
 27 29  1  0  0  0  0
 28 27  2  0  0  0  0
 29 30  2  0  0  0  0
M  END
>  <MODEL>
1

>  <REMARK>
 VINA RESULT:      -6.9      0.000      0.000
  Name = 
  7 active torsions:
  status: ('A' for Active; 'I' for Inactive)
    1  A    between atoms: N_1  and  C_22
    2  A    between atoms: C_3  and  O_11
    3  A    between atoms: C_4  and  C_23
    4  A    between atoms: C_7  and  N_10
    5  A    between atoms: C_7  and  C_15
    6  A    between atoms: N_10  and  C_25
    7  A    between atoms: C_23  and  C_25
                            x       y       z     vdW  Elec       q    Type
                         _______ _______ _______ _____ _____    ______ ____

>  <TORSDO>
F 7

$$$$
=
 OpenBabel11052417083D

 30 32  0  0  1  0  0  0  0  0999 V2000
  189.5800  176.1430  143.6940 N   0  0  2  0  0  0  0  0  0  0  0  0
  188.3540  176.9810  143.7240 C   0  0  1  0  0  3  0  0  0  0  0  0
  189.3460  174.6910  143.6610 C   0  0  0  0  0  2  0  0  0  0  0  0
  189.2750  174.3200  140.5410 O   0  0  0  0  0  0  0  0  0  0  0  0
  188.2870  174.9340  141.3160 C   0  0  1  0  0  3  0  0  0  0  0  0
  188.4310  172.5140  142.3300 S   0  0  0  0  0  0  0  0  0  0  0  0
  188.2370  174.2650  142.6830 C   0  0  1  0  0  3  0  0  0  0  0  0
  188.4800  176.4520  141.3400 C   0  0  0  0  0  2  0  0  0  0  0  0
  188.1930  172.4810  139.6930 O   0  0  0  0  0  1  0  0  0  0  0  0
  189.0750  172.9340  140.6750 C   0  0  1  0  0  3  0  0  0  0  0  0
  187.6880  177.0660  142.4080 N   0  0  0  0  0  0  0  0  0  0  0  0
  187.5900  178.4780  142.0820 C   0  0  0  0  0  1  0  0  0  0  0  0
  190.4330  175.5430  145.9440 C   0  0  1  0  0  3  0  0  0  0  0  0
  192.9580  176.9510  145.3380 C   0  0  2  0  0  3  0  0  0  0  0  0
  191.4250  175.9350  147.0430 C   0  0  2  0  0  3  0  0  0  0  0  0
  189.1440  175.5950  146.4450 F   0  0  0  0  0  0  0  0  0  0  0  0
  192.8650  175.9750  146.5180 C   0  0  1  0  0  3  0  0  0  0  0  0
  191.3220  175.0580  148.1240 O   0  0  0  0  0  1  0  0  0  0  0  0
  190.5570  176.4870  144.7390 C   0  0  1  0  0  3  0  0  0  0  0  0
  193.3740  174.5840  146.1460 C   0  0  0  0  0  1  0  0  0  0  0  0
  192.0000  176.5550  144.2160 C   0  0  0  0  0  2  0  0  0  0  0  0
  194.2650  177.0160  144.8500 O   0  0  0  0  0  0  0  0  0  0  0  0
  194.8970  177.7990  145.7000 O   0  0  0  0  0  1  0  0  0  0  0  0
  187.3460  176.5430  144.7900 C   0  0  0  0  0  2  0  0  0  0  0  0
  185.9280  176.6570  144.2590 C   0  0  0  0  0  2  0  0  0  0  0  0
  185.1030  177.4070  145.1920 N   0  0  0  0  0  2  0  0  0  0  0  0
  185.3360  178.7620  145.6040 C   0  0  0  0  0  0  0  0  0  0  0  0
  185.2360  179.9370  144.4770 S   0  0  0  0  0  0  0  0  0  0  0  0
  185.6720  179.1630  146.9840 C   0  0  0  0  0  3  0  0  0  0  0  0
  186.2770  178.3790  147.8650 C   0  0  0  0  0  2  0  0  0  0  0  0
  1  3  1  1  0  0  0
  1  2  1  0  0  0  0
  1 19  1  0  0  0  0
  2 24  1  1  0  0  0
  4 10  1  0  0  0  0
  4  5  1  0  0  0  0
  5  8  1  1  0  0  0
  5  7  1  0  0  0  0
  6  7  1  0  0  0  0
  7  3  1  1  0  0  0
  8 11  1  0  0  0  0
 10  9  1  6  0  0  0
 10  6  1  0  0  0  0
 11  2  1  0  0  0  0
 12 11  1  0  0  0  0
 13 16  1  1  0  0  0
 13 15  1  0  0  0  0
 14 22  1  6  0  0  0
 14 17  1  0  0  0  0
 15 18  1  1  0  0  0
 17 20  1  6  0  0  0
 17 15  1  0  0  0  0
 19 21  1  6  0  0  0
 19 13  1  0  0  0  0
 21 14  1  0  0  0  0
 22 23  1  0  0  0  0
 25 24  1  0  0  0  0
 25 26  1  0  0  0  0
 26 27  1  0  0  0  0
 27 29  1  0  0  0  0
 28 27  2  0  0  0  0
 29 30  2  0  0  0  0
M  END
>  <MODEL>
2

>  <REMARK>
 VINA RESULT:      -6.1      3.271      6.333
  Name = 
  7 active torsions:
  status: ('A' for Active; 'I' for Inactive)
    1  A    between atoms: N_1  and  C_22
    2  A    between atoms: C_3  and  O_11
    3  A    between atoms: C_4  and  C_23
    4  A    between atoms: C_7  and  N_10
    5  A    between atoms: C_7  and  C_15
    6  A    between atoms: N_10  and  C_25
    7  A    between atoms: C_23  and  C_25
                            x       y       z     vdW  Elec       q    Type
                         _______ _______ _______ _____ _____    ______ ____

>  <TORSDO>
F 7

$$$$
=
 OpenBabel11052417083D

 30 32  0  0  1  0  0  0  0  0999 V2000
  192.6020  175.5220  143.9260 N   0  0  2  0  0  0  0  0  0  0  0  0
  192.4650  174.0430  143.8940 C   0  0  1  0  0  3  0  0  0  0  0  0
  193.9710  176.0190  144.1340 C   0  0  0  0  0  2  0  0  0  0  0  0
  194.8360  176.2190  141.1190 O   0  0  0  0  0  0  0  0  0  0  0  0
  194.6550  175.0360  141.8440 C   0  0  1  0  0  3  0  0  0  0  0  0
  196.5050  176.3060  143.2130 S   0  0  0  0  0  0  0  0  0  0  0  0
  195.0310  175.2810  143.2990 C   0  0  1  0  0  3  0  0  0  0  0  0
  193.2510  174.4710  141.6190 C   0  0  0  0  0  2  0  0  0  0  0  0
  197.0800  176.1830  140.6310 O   0  0  0  0  0  1  0  0  0  0  0  0
  196.1040  176.7100  141.4800 C   0  0  1  0  0  3  0  0  0  0  0  0
  192.9270  173.4540  142.6210 N   0  0  0  0  0  0  0  0  0  0  0  0
  191.8110  172.6940  142.0850 C   0  0  0  0  0  1  0  0  0  0  0  0
  190.2130  175.7960  144.5320 C   0  0  1  0  0  3  0  0  0  0  0  0
  191.0210  176.6870  147.2290 C   0  0  2  0  0  3  0  0  0  0  0  0
  189.2430  176.5220  145.4690 C   0  0  2  0  0  3  0  0  0  0  0  0
  189.9200  176.1250  143.2200 F   0  0  0  0  0  0  0  0  0  0  0  0
  189.5760  176.2600  146.9420 C   0  0  1  0  0  3  0  0  0  0  0  0
  187.9280  176.1470  145.1900 O   0  0  0  0  0  1  0  0  0  0  0  0
  191.6650  176.1830  144.8480 C   0  0  1  0  0  3  0  0  0  0  0  0
  189.3270  174.8040  147.3310 C   0  0  0  0  0  1  0  0  0  0  0  0
  192.0070  175.9470  146.3270 C   0  0  0  0  0  2  0  0  0  0  0  0
  191.3450  176.4710  148.5710 O   0  0  0  0  0  0  0  0  0  0  0  0
  191.5640  177.6740  149.0570 O   0  0  0  0  0  1  0  0  0  0  0  0
  193.1520  173.3440  145.0710 C   0  0  0  0  0  2  0  0  0  0  0  0
  193.9170  172.1240  144.5910 C   0  0  0  0  0  2  0  0  0  0  0  0
  194.6520  171.5280  145.6940 N   0  0  0  0  0  2  0  0  0  0  0  0
  196.0790  171.3920  145.7650 C   0  0  0  0  0  0  0  0  0  0  0  0
  196.6980  169.9120  146.0650 S   0  0  0  0  0  0  0  0  0  0  0  0
  197.0280  172.5100  145.5950 C   0  0  0  0  0  3  0  0  0  0  0  0
  196.8940  173.7000  146.1630 C   0  0  0  0  0  2  0  0  0  0  0  0
  1  3  1  1  0  0  0
  1 19  1  0  0  0  0
  2  1  1  0  0  0  0
  2 24  1  1  0  0  0
  4 10  1  0  0  0  0
  4  5  1  0  0  0  0
  5  8  1  1  0  0  0
  5  7  1  0  0  0  0
  6  7  1  0  0  0  0
  7  3  1  1  0  0  0
  8 11  1  0  0  0  0
 10  9  1  6  0  0  0
 10  6  1  0  0  0  0
 11  2  1  0  0  0  0
 12 11  1  0  0  0  0
 13 16  1  6  0  0  0
 13 19  1  0  0  0  0
 13 15  1  0  0  0  0
 14 22  1  1  0  0  0
 15 18  1  6  0  0  0
 15 17  1  0  0  0  0
 17 14  1  0  0  0  0
 17 20  1  6  0  0  0
 19 21  1  1  0  0  0
 21 14  1  0  0  0  0
 22 23  1  0  0  0  0
 25 24  1  0  0  0  0
 25 26  1  0  0  0  0
 26 27  1  0  0  0  0
 27 28  2  0  0  0  0
 29 27  1  0  0  0  0
 29 30  2  0  0  0  0
M  END
>  <MODEL>
3

>  <REMARK>
 VINA RESULT:      -6.0      4.094      6.481
  Name = 
  7 active torsions:
  status: ('A' for Active; 'I' for Inactive)
    1  A    between atoms: N_1  and  C_22
    2  A    between atoms: C_3  and  O_11
    3  A    between atoms: C_4  and  C_23
    4  A    between atoms: C_7  and  N_10
    5  A    between atoms: C_7  and  C_15
    6  A    between atoms: N_10  and  C_25
    7  A    between atoms: C_23  and  C_25
                            x       y       z     vdW  Elec       q    Type
                         _______ _______ _______ _____ _____    ______ ____

>  <TORSDO>
F 7

$$$$
=
 OpenBabel11052417083D

 30 32  0  0  1  0  0  0  0  0999 V2000
  188.5250  175.0820  143.0170 N   0  0  2  0  0  0  0  0  0  0  0  0
  189.6400  174.5500  143.8430 C   0  0  1  0  0  3  0  0  0  0  0  0
  188.8240  175.2340  141.5850 C   0  0  0  0  0  2  0  0  0  0  0  0
  187.8920  172.3900  140.6270 O   0  0  0  0  0  0  0  0  0  0  0  0
  189.0400  172.6680  141.3750 C   0  0  1  0  0  3  0  0  0  0  0  0
  189.3850  174.0900  139.1930 S   0  0  0  0  0  0  0  0  0  0  0  0
  189.5760  174.0370  140.9780 C   0  0  1  0  0  3  0  0  0  0  0  0
  188.7730  172.4810  142.8710 C   0  0  0  0  0  2  0  0  0  0  0  0
  188.7470  171.5760  138.6580 O   0  0  0  0  0  1  0  0  0  0  0  0
  188.2100  172.6980  139.2920 C   0  0  1  0  0  3  0  0  0  0  0  0
  189.8310  173.0950  143.6760 N   0  0  0  0  0  0  0  0  0  0  0  0
  189.7310  172.5060  144.9990 C   0  0  0  0  0  1  0  0  0  0  0  0
  186.4460  176.4270  143.1580 C   0  0  1  0  0  3  0  0  0  0  0  0
  187.5080  177.7750  145.5620 C   0  0  2  0  0  3  0  0  0  0  0  0
  185.8430  177.7300  143.6880 C   0  0  2  0  0  3  0  0  0  0  0  0
  186.3320  176.3910  141.7800 F   0  0  0  0  0  0  0  0  0  0  0  0
  186.0180  177.8610  145.2050 C   0  0  1  0  0  3  0  0  0  0  0  0
  184.4930  177.8150  143.3420 O   0  0  0  0  0  1  0  0  0  0  0  0
  187.9250  176.3130  143.5560 C   0  0  1  0  0  3  0  0  0  0  0  0
  185.1920  176.8250  145.9650 C   0  0  0  0  0  1  0  0  0  0  0  0
  188.1200  176.4640  145.0720 C   0  0  0  0  0  2  0  0  0  0  0  0
  187.6960  177.9050  146.9400 O   0  0  0  0  0  0  0  0  0  0  0  0
  188.7380  177.1460  147.2060 O   0  0  0  0  0  1  0  0  0  0  0  0
  190.9660  175.2790  143.6140 C   0  0  0  0  0  2  0  0  0  0  0  0
  191.3810  176.0330  144.8640 C   0  0  0  0  0  2  0  0  0  0  0  0
  192.0310  175.1310  145.8010 N   0  0  0  0  0  2  0  0  0  0  0  0
  193.4090  174.7330  145.7520 C   0  0  0  0  0  0  0  0  0  0  0  0
  193.7490  173.1790  145.3880 S   0  0  0  0  0  0  0  0  0  0  0  0
  194.5430  175.6370  146.0200 C   0  0  0  0  0  3  0  0  0  0  0  0
  194.4250  176.8630  146.5120 C   0  0  0  0  0  2  0  0  0  0  0  0
  1  3  1  6  0  0  0
  1 19  1  0  0  0  0
  1  2  1  0  0  0  0
  2 24  1  6  0  0  0
  4  5  1  0  0  0  0
  5  8  1  1  0  0  0
  6 10  1  0  0  0  0
  6  7  1  0  0  0  0
  7  5  1  0  0  0  0
  7  3  1  1  0  0  0
  8 11  1  0  0  0  0
 10  9  1  1  0  0  0
 10  4  1  0  0  0  0
 11  2  1  0  0  0  0
 11 12  1  0  0  0  0
 13 16  1  6  0  0  0
 13 19  1  0  0  0  0
 13 15  1  0  0  0  0
 14 22  1  1  0  0  0
 15 18  1  1  0  0  0
 15 17  1  0  0  0  0
 17 14  1  0  0  0  0
 17 20  1  1  0  0  0
 19 21  1  1  0  0  0
 21 14  1  0  0  0  0
 22 23  1  0  0  0  0
 24 25  1  0  0  0  0
 25 26  1  0  0  0  0
 27 26  1  0  0  0  0
 27 29  1  0  0  0  0
 28 27  2  0  0  0  0
 29 30  2  0  0  0  0
M  END
>  <MODEL>
4

>  <REMARK>
 VINA RESULT:      -6.0      2.831      3.774
  Name = 
  7 active torsions:
  status: ('A' for Active; 'I' for Inactive)
    1  A    between atoms: N_1  and  C_22
    2  A    between atoms: C_3  and  O_11
    3  A    between atoms: C_4  and  C_23
    4  A    between atoms: C_7  and  N_10
    5  A    between atoms: C_7  and  C_15
    6  A    between atoms: N_10  and  C_25
    7  A    between atoms: C_23  and  C_25
                            x       y       z     vdW  Elec       q    Type
                         _______ _______ _______ _____ _____    ______ ____

>  <TORSDO>
F 7

$$$$
=
 OpenBabel11052417083D

 30 32  0  0  1  0  0  0  0  0999 V2000
  190.1070  176.5070  144.9050 N   0  0  2  0  0  0  0  0  0  0  0  0
  189.8210  175.1470  145.4320 C   0  0  1  0  0  3  0  0  0  0  0  0
  189.2490  176.9400  143.7910 C   0  0  0  0  0  2  0  0  0  0  0  0
  186.9760  178.3040  145.4790 O   0  0  0  0  0  0  0  0  0  0  0  0
  187.2110  176.9290  145.3800 C   0  0  1  0  0  3  0  0  0  0  0  0
  186.7940  177.6510  142.8880 S   0  0  0  0  0  0  0  0  0  0  0  0
  187.7590  176.6150  143.9940 C   0  0  1  0  0  3  0  0  0  0  0  0
  188.0700  176.4380  146.5470 C   0  0  0  0  0  2  0  0  0  0  0  0
  184.9060  178.5420  144.5160 O   0  0  0  0  0  1  0  0  0  0  0  0
  186.2810  178.6690  144.3120 C   0  0  1  0  0  3  0  0  0  0  0  0
  188.6120  175.1040  146.2780 N   0  0  0  0  0  0  0  0  0  0  0  0
  189.0210  174.5640  147.5620 C   0  0  0  0  0  1  0  0  0  0  0  0
  192.4340  176.2150  145.7100 C   0  0  1  0  0  3  0  0  0  0  0  0
  193.4020  176.4580  142.9310 C   0  0  2  0  0  3  0  0  0  0  0  0
  193.9050  176.4910  145.3870 C   0  0  2  0  0  3  0  0  0  0  0  0
  192.0980  176.8350  146.9010 F   0  0  0  0  0  0  0  0  0  0  0  0
  194.3090  175.8960  144.0330 C   0  0  1  0  0  3  0  0  0  0  0  0
  194.7260  175.9980  146.4030 O   0  0  0  0  0  1  0  0  0  0  0  0
  191.5250  176.7310  144.5850 C   0  0  1  0  0  3  0  0  0  0  0  0
  194.2950  174.3690  144.0560 C   0  0  0  0  0  1  0  0  0  0  0  0
  191.9320  176.1610  143.2180 C   0  0  0  0  0  2  0  0  0  0  0  0
  193.7600  175.9410  141.6830 O   0  0  0  0  0  0  0  0  0  0  0  0
  194.8280  176.6270  141.3340 O   0  0  0  0  0  1  0  0  0  0  0  0
  189.7280  174.0800  144.3370 C   0  0  0  0  0  2  0  0  0  0  0  0
  190.7270  172.9670  144.5950 C   0  0  0  0  0  2  0  0  0  0  0  0
  190.6330  171.9580  143.5510 N   0  0  0  0  0  2  0  0  0  0  0  0
  190.7090  172.2120  142.1410 C   0  0  0  0  0  0  0  0  0  0  0  0
  192.1460  172.6710  141.5180 S   0  0  0  0  0  0  0  0  0  0  0  0
  189.5670  172.0950  141.2140 C   0  0  0  0  0  3  0  0  0  0  0  0
  188.5580  172.9530  141.1570 C   0  0  0  0  0  2  0  0  0  0  0  0
  1  3  1  6  0  0  0
  1  2  1  0  0  0  0
  2 24  1  6  0  0  0
  2 11  1  0  0  0  0
  5  4  1  0  0  0  0
  5  8  1  1  0  0  0
  6  7  1  0  0  0  0
  6 10  1  0  0  0  0
  7  3  1  1  0  0  0
  7  5  1  0  0  0  0
 10  9  1  1  0  0  0
 10  4  1  0  0  0  0
 11  8  1  0  0  0  0
 11 12  1  0  0  0  0
 13 16  1  1  0  0  0
 14 22  1  6  0  0  0
 14 21  1  0  0  0  0
 14 17  1  0  0  0  0
 15 13  1  0  0  0  0
 15 18  1  1  0  0  0
 17 20  1  1  0  0  0
 17 15  1  0  0  0  0
 19 21  1  6  0  0  0
 19  1  1  0  0  0  0
 19 13  1  0  0  0  0
 23 22  1  0  0  0  0
 24 25  1  0  0  0  0
 26 25  1  0  0  0  0
 27 26  1  0  0  0  0
 28 27  2  0  0  0  0
 29 27  1  0  0  0  0
 30 29  2  0  0  0  0
M  END
>  <MODEL>
5

>  <REMARK>
 VINA RESULT:      -5.9      3.052      6.497
  Name = 
  7 active torsions:
  status: ('A' for Active; 'I' for Inactive)
    1  A    between atoms: N_1  and  C_22
    2  A    between atoms: C_3  and  O_11
    3  A    between atoms: C_4  and  C_23
    4  A    between atoms: C_7  and  N_10
    5  A    between atoms: C_7  and  C_15
    6  A    between atoms: N_10  and  C_25
    7  A    between atoms: C_23  and  C_25
                            x       y       z     vdW  Elec       q    Type
                         _______ _______ _______ _____ _____    ______ ____

>  <TORSDO>
F 7

$$$$
=
 OpenBabel11052417083D

 30 32  0  0  1  0  0  0  0  0999 V2000
  190.1770  173.8500  142.7700 N   0  0  2  0  0  0  0  0  0  0  0  0
  191.6260  174.1000  142.9800 C   0  0  1  0  0  3  0  0  0  0  0  0
  189.6890  174.1000  141.4060 C   0  0  0  0  0  2  0  0  0  0  0  0
  190.1370  171.2190  140.2330 O   0  0  0  0  0  0  0  0  0  0  0  0
  191.1400  172.1420  140.5460 C   0  0  1  0  0  3  0  0  0  0  0  0
  189.6730  173.4220  138.7810 S   0  0  0  0  0  0  0  0  0  0  0  0
  190.6140  173.5510  140.3060 C   0  0  1  0  0  3  0  0  0  0  0  0
  191.6970  171.8840  141.9480 C   0  0  0  0  0  2  0  0  0  0  0  0
  190.3390  170.9940  137.9570 O   0  0  0  0  0  1  0  0  0  0  0  0
  189.6200  171.6090  138.9840 C   0  0  1  0  0  3  0  0  0  0  0  0
  192.4770  173.0290  142.4240 N   0  0  0  0  0  0  0  0  0  0  0  0
  193.2970  172.5370  143.5170 C   0  0  0  0  0  1  0  0  0  0  0  0
  189.8850  174.3680  145.1780 C   0  0  1  0  0  3  0  0  0  0  0  0
  188.0880  176.5990  144.4570 C   0  0  2  0  0  3  0  0  0  0  0  0
  188.9580  175.0250  146.2040 C   0  0  2  0  0  3  0  0  0  0  0  0
  190.0360  173.0270  145.4830 F   0  0  0  0  0  0  0  0  0  0  0  0
  188.6870  176.4960  145.8650 C   0  0  1  0  0  3  0  0  0  0  0  0
  189.4960  174.9100  147.4870 O   0  0  0  0  0  1  0  0  0  0  0  0
  189.3130  174.5130  143.7600 C   0  0  1  0  0  3  0  0  0  0  0  0
  189.9430  177.3530  146.0110 C   0  0  0  0  0  1  0  0  0  0  0  0
  189.0160  175.9790  143.4130 C   0  0  0  0  0  2  0  0  0  0  0  0
  187.8190  177.9290  144.1290 O   0  0  0  0  0  0  0  0  0  0  0  0
  186.7240  178.2210  144.7990 O   0  0  0  0  0  1  0  0  0  0  0  0
  192.0900  175.4600  142.4510 C   0  0  0  0  0  2  0  0  0  0  0  0
  192.6520  176.3050  143.5790 C   0  0  0  0  0  2  0  0  0  0  0  0
  194.1010  176.1900  143.6170 N   0  0  0  0  0  2  0  0  0  0  0  0
  194.8670  175.7010  144.7270 C   0  0  0  0  0  0  0  0  0  0  0  0
  196.2640  174.9180  144.4140 S   0  0  0  0  0  0  0  0  0  0  0  0
  194.4680  175.8500  146.1400 C   0  0  0  0  0  3  0  0  0  0  0  0
  194.1880  177.0090  146.7210 C   0  0  0  0  0  2  0  0  0  0  0  0
  1  3  1  6  0  0  0
  1  2  1  0  0  0  0
  1 19  1  0  0  0  0
  2 24  1  6  0  0  0
  4  5  1  0  0  0  0
  5  8  1  1  0  0  0
  6 10  1  0  0  0  0
  6  7  1  0  0  0  0
  7  5  1  0  0  0  0
  7  3  1  1  0  0  0
  8 11  1  0  0  0  0
 10  9  1  6  0  0  0
 10  4  1  0  0  0  0
 11  2  1  0  0  0  0
 11 12  1  0  0  0  0
 13 16  1  1  0  0  0
 13 15  1  0  0  0  0
 14 22  1  6  0  0  0
 14 17  1  0  0  0  0
 15 18  1  1  0  0  0
 17 20  1  6  0  0  0
 17 15  1  0  0  0  0
 19 21  1  6  0  0  0
 19 13  1  0  0  0  0
 21 14  1  0  0  0  0
 22 23  1  0  0  0  0
 24 25  1  0  0  0  0
 25 26  1  0  0  0  0
 26 27  1  0  0  0  0
 27 29  1  0  0  0  0
 28 27  2  0  0  0  0
 29 30  2  0  0  0  0
M  END
>  <MODEL>
6

>  <REMARK>
 VINA RESULT:      -5.9      3.063      4.435
  Name = 
  7 active torsions:
  status: ('A' for Active; 'I' for Inactive)
    1  A    between atoms: N_1  and  C_22
    2  A    between atoms: C_3  and  O_11
    3  A    between atoms: C_4  and  C_23
    4  A    between atoms: C_7  and  N_10
    5  A    between atoms: C_7  and  C_15
    6  A    between atoms: N_10  and  C_25
    7  A    between atoms: C_23  and  C_25
                            x       y       z     vdW  Elec       q    Type
                         _______ _______ _______ _____ _____    ______ ____

>  <TORSDO>
F 7

$$$$
=
 OpenBabel11052417083D

 30 32  0  0  1  0  0  0  0  0999 V2000
  188.4720  175.8170  144.0700 N   0  0  2  0  0  0  0  0  0  0  0  0
  189.2270  176.9330  143.4450 C   0  0  1  0  0  3  0  0  0  0  0  0
  188.0660  176.0410  145.4660 C   0  0  0  0  0  2  0  0  0  0  0  0
  185.2600  177.3430  144.9120 O   0  0  0  0  0  0  0  0  0  0  0  0
  186.5020  177.9450  144.6860 C   0  0  1  0  0  3  0  0  0  0  0  0
  186.5530  177.4020  147.2570 S   0  0  0  0  0  0  0  0  0  0  0  0
  187.4950  177.4450  145.7270 C   0  0  1  0  0  3  0  0  0  0  0  0
  186.9370  177.7630  143.2300 C   0  0  0  0  0  2  0  0  0  0  0  0
  184.3380  178.6670  146.5450 O   0  0  0  0  0  1  0  0  0  0  0  0
  185.0070  177.4690  146.2900 C   0  0  1  0  0  3  0  0  0  0  0  0
  188.3610  178.0670  143.0640 N   0  0  0  0  0  0  0  0  0  0  0  0
  188.5670  178.2910  141.6450 C   0  0  0  0  0  1  0  0  0  0  0  0
  189.0770  174.0240  142.4670 C   0  0  1  0  0  3  0  0  0  0  0  0
  191.1630  173.0870  144.3360 C   0  0  2  0  0  3  0  0  0  0  0  0
  189.7210  172.6420  142.3330 C   0  0  2  0  0  3  0  0  0  0  0  0
  187.7620  173.9640  142.0410 F   0  0  0  0  0  0  0  0  0  0  0  0
  191.1570  172.6310  142.8710 C   0  0  1  0  0  3  0  0  0  0  0  0
  189.6940  172.2200  141.0020 O   0  0  0  0  0  1  0  0  0  0  0  0
  189.1250  174.5060  143.9240 C   0  0  1  0  0  3  0  0  0  0  0  0
  192.0930  173.4760  142.0100 C   0  0  0  0  0  1  0  0  0  0  0  0
  190.5550  174.4800  144.4850 C   0  0  0  0  0  2  0  0  0  0  0  0
  192.4600  173.0720  144.8540 O   0  0  0  0  0  0  0  0  0  0  0  0
  192.8180  171.8060  144.8160 O   0  0  0  0  0  1  0  0  0  0  0  0
  190.3920  177.4340  144.3030 C   0  0  0  0  0  2  0  0  0  0  0  0
  191.5570  177.8540  143.4260 C   0  0  0  0  0  2  0  0  0  0  0  0
  192.4780  176.7430  143.2500 N   0  0  0  0  0  2  0  0  0  0  0  0
  193.6130  176.4640  144.0810 C   0  0  0  0  0  0  0  0  0  0  0  0
  194.8800  175.6800  143.4170 S   0  0  0  0  0  0  0  0  0  0  0  0
  193.7080  176.8330  145.5070 C   0  0  0  0  0  3  0  0  0  0  0  0
  193.4950  175.9960  146.5130 C   0  0  0  0  0  2  0  0  0  0  0  0
  1  3  1  1  0  0  0
  2  1  1  0  0  0  0
  2 24  1  1  0  0  0
  4 10  1  0  0  0  0
  5  8  1  6  0  0  0
  5  4  1  0  0  0  0
  5  7  1  0  0  0  0
  7  3  1  6  0  0  0
  7  6  1  0  0  0  0
 10  9  1  6  0  0  0
 10  6  1  0  0  0  0
 11  8  1  0  0  0  0
 11  2  1  0  0  0  0
 12 11  1  0  0  0  0
 13 16  1  1  0  0  0
 13 19  1  0  0  0  0
 14 21  1  0  0  0  0
 14 22  1  6  0  0  0
 15 18  1  6  0  0  0
 15 13  1  0  0  0  0
 15 17  1  0  0  0  0
 17 20  1  6  0  0  0
 17 14  1  0  0  0  0
 19  1  1  0  0  0  0
 19 21  1  6  0  0  0
 23 22  1  0  0  0  0
 25 24  1  0  0  0  0
 26 25  1  0  0  0  0
 26 27  1  0  0  0  0
 27 29  1  0  0  0  0
 28 27  2  0  0  0  0
 29 30  2  0  0  0  0
M  END
>  <MODEL>
7

>  <REMARK>
 VINA RESULT:      -5.9      2.303      6.011
  Name = 
  7 active torsions:
  status: ('A' for Active; 'I' for Inactive)
    1  A    between atoms: N_1  and  C_22
    2  A    between atoms: C_3  and  O_11
    3  A    between atoms: C_4  and  C_23
    4  A    between atoms: C_7  and  N_10
    5  A    between atoms: C_7  and  C_15
    6  A    between atoms: N_10  and  C_25
    7  A    between atoms: C_23  and  C_25
                            x       y       z     vdW  Elec       q    Type
                         _______ _______ _______ _____ _____    ______ ____

>  <TORSDO>
F 7

$$$$
=
 OpenBabel11052417083D

 30 32  0  0  1  0  0  0  0  0999 V2000
  188.9910  176.3000  144.1830 N   0  0  2  0  0  0  0  0  0  0  0  0
  190.0670  176.5130  145.1850 C   0  0  1  0  0  3  0  0  0  0  0  0
  189.4330  175.7370  142.8990 C   0  0  0  0  0  2  0  0  0  0  0  0
  189.0870  172.6930  143.6010 O   0  0  0  0  0  0  0  0  0  0  0  0
  190.0770  173.5430  144.1030 C   0  0  1  0  0  3  0  0  0  0  0  0
  190.4530  173.6480  141.5040 S   0  0  0  0  0  0  0  0  0  0  0  0
  190.4330  174.5760  143.0420 C   0  0  1  0  0  3  0  0  0  0  0  0
  189.6640  174.1170  145.4600 C   0  0  0  0  0  2  0  0  0  0  0  0
  190.2920  171.1580  142.3910 O   0  0  0  0  0  1  0  0  0  0  0  0
  189.5110  172.3130  142.3140 C   0  0  1  0  0  3  0  0  0  0  0  0
  190.5060  175.2580  145.8270 N   0  0  0  0  0  0  0  0  0  0  0  0
  190.3400  175.4420  147.2580 C   0  0  0  0  0  1  0  0  0  0  0  0
  187.4310  177.4120  142.6070 C   0  0  1  0  0  3  0  0  0  0  0  0
  186.3290  178.9900  144.8470 C   0  0  2  0  0  3  0  0  0  0  0  0
  186.5850  178.6650  142.3730 C   0  0  2  0  0  3  0  0  0  0  0  0
  188.3700  177.2930  141.5980 F   0  0  0  0  0  0  0  0  0  0  0  0
  185.5810  178.8920  143.5110 C   0  0  1  0  0  3  0  0  0  0  0  0
  185.9240  178.5830  141.1470 O   0  0  0  0  0  1  0  0  0  0  0  0
  188.1420  177.4830  143.9670 C   0  0  1  0  0  3  0  0  0  0  0  0
  184.5030  177.8110  143.5410 C   0  0  0  0  0  1  0  0  0  0  0  0
  187.1520  177.7320  145.1140 C   0  0  0  0  0  2  0  0  0  0  0  0
  185.4360  179.2110  145.8980 O   0  0  0  0  0  0  0  0  0  0  0  0
  185.8170  178.3710  146.8380 O   0  0  0  0  0  1  0  0  0  0  0  0
  191.2790  177.2610  144.6230 C   0  0  0  0  0  2  0  0  0  0  0  0
  192.5540  176.7910  145.2990 C   0  0  0  0  0  2  0  0  0  0  0  0
  193.4950  176.2950  144.3070 N   0  0  0  0  0  2  0  0  0  0  0  0
  194.8720  175.9780  144.5530 C   0  0  0  0  0  0  0  0  0  0  0  0
  195.9750  176.4130  143.4310 S   0  0  0  0  0  0  0  0  0  0  0  0
  195.3590  175.2700  145.7530 C   0  0  0  0  0  3  0  0  0  0  0  0
  195.7770  174.0130  145.7630 C   0  0  0  0  0  2  0  0  0  0  0  0
  1  3  1  6  0  0  0
  1  2  1  0  0  0  0
  2 24  1  6  0  0  0
  2 11  1  0  0  0  0
  4  5  1  0  0  0  0
  5  8  1  1  0  0  0
  6 10  1  0  0  0  0
  6  7  1  0  0  0  0
  7  3  1  6  0  0  0
  7  5  1  0  0  0  0
  8 11  1  0  0  0  0
 10  9  1  1  0  0  0
 10  4  1  0  0  0  0
 11 12  1  0  0  0  0
 13 16  1  6  0  0  0
 13 19  1  0  0  0  0
 14 21  1  0  0  0  0
 14 22  1  1  0  0  0
 15 18  1  6  0  0  0
 15 13  1  0  0  0  0
 15 17  1  0  0  0  0
 17 20  1  1  0  0  0
 17 14  1  0  0  0  0
 19  1  1  0  0  0  0
 19 21  1  1  0  0  0
 22 23  1  0  0  0  0
 24 25  1  0  0  0  0
 26 27  1  0  0  0  0
 26 25  1  0  0  0  0
 27 29  1  0  0  0  0
 28 27  2  0  0  0  0
 29 30  2  0  0  0  0
M  END
>  <MODEL>
8

>  <REMARK>
 VINA RESULT:      -5.8      1.827      2.770
  Name = 
  7 active torsions:
  status: ('A' for Active; 'I' for Inactive)
    1  A    between atoms: N_1  and  C_22
    2  A    between atoms: C_3  and  O_11
    3  A    between atoms: C_4  and  C_23
    4  A    between atoms: C_7  and  N_10
    5  A    between atoms: C_7  and  C_15
    6  A    between atoms: N_10  and  C_25
    7  A    between atoms: C_23  and  C_25
                            x       y       z     vdW  Elec       q    Type
                         _______ _______ _______ _____ _____    ______ ____

>  <TORSDO>
F 7

$$$$
=
 OpenBabel11052417083D

 30 32  0  0  1  0  0  0  0  0999 V2000
  188.6230  175.3630  142.1500 N   0  0  2  0  0  0  0  0  0  0  0  0
  189.7650  175.4610  143.0950 C   0  0  1  0  0  3  0  0  0  0  0  0
  187.2950  175.5570  142.7510 C   0  0  0  0  0  2  0  0  0  0  0  0
  187.0740  178.6670  142.3610 O   0  0  0  0  0  0  0  0  0  0  0  0
  187.9080  178.0120  143.2730 C   0  0  1  0  0  3  0  0  0  0  0  0
  185.5050  177.1970  143.9580 S   0  0  0  0  0  0  0  0  0  0  0  0
  187.2270  176.7320  143.7400 C   0  0  1  0  0  3  0  0  0  0  0  0
  189.3110  177.8290  142.6920 C   0  0  0  0  0  2  0  0  0  0  0  0
  185.6380  179.8310  143.7220 O   0  0  0  0  0  1  0  0  0  0  0  0
  185.7930  178.6840  142.9410 C   0  0  1  0  0  3  0  0  0  0  0  0
  190.0800  176.8550  143.4690 N   0  0  0  0  0  0  0  0  0  0  0  0
  191.4750  177.0720  143.1300 C   0  0  0  0  0  1  0  0  0  0  0  0
  188.5900  174.5000  139.8250 C   0  0  1  0  0  3  0  0  0  0  0  0
  189.7710  171.9650  140.7740 C   0  0  2  0  0  3  0  0  0  0  0  0
  188.5710  173.2290  138.9720 C   0  0  2  0  0  3  0  0  0  0  0  0
  187.4550  175.2480  139.5660 F   0  0  0  0  0  0  0  0  0  0  0  0
  189.7660  172.3200  139.2810 C   0  0  1  0  0  3  0  0  0  0  0  0
  188.5440  173.5570  137.6150 O   0  0  0  0  0  1  0  0  0  0  0  0
  188.6450  174.1490  141.3190 C   0  0  1  0  0  3  0  0  0  0  0  0
  191.0870  172.9490  138.8430 C   0  0  0  0  0  1  0  0  0  0  0  0
  189.8250  173.2200  141.6420 C   0  0  0  0  0  2  0  0  0  0  0  0
  190.8440  171.1240  141.0790 O   0  0  0  0  0  0  0  0  0  0  0  0
  190.4990  170.5430  142.2090 O   0  0  0  0  0  1  0  0  0  0  0  0
  189.5830  174.6130  144.3570 C   0  0  0  0  0  2  0  0  0  0  0  0
  189.7930  175.4570  145.6000 C   0  0  0  0  0  2  0  0  0  0  0  0
  190.8770  174.9090  146.4000 N   0  0  0  0  0  2  0  0  0  0  0  0
  192.2700  175.2050  146.2260 C   0  0  0  0  0  0  0  0  0  0  0  0
  193.1870  174.1350  145.4030 S   0  0  0  0  0  0  0  0  0  0  0  0
  192.9340  176.4120  146.7540 C   0  0  0  0  0  3  0  0  0  0  0  0
  194.1910  176.7490  146.4980 C   0  0  0  0  0  2  0  0  0  0  0  0
  1  3  1  1  0  0  0
  1  2  1  0  0  0  0
  2 11  1  0  0  0  0
  2 24  1  1  0  0  0
  4 10  1  0  0  0  0
  4  5  1  0  0  0  0
  5  8  1  6  0  0  0
  5  7  1  0  0  0  0
  7  3  1  6  0  0  0
  7  6  1  0  0  0  0
  8 11  1  0  0  0  0
 10  9  1  1  0  0  0
 10  6  1  0  0  0  0
 12 11  1  0  0  0  0
 13 16  1  1  0  0  0
 13 19  1  0  0  0  0
 14 22  1  6  0  0  0
 14 21  1  0  0  0  0
 15 18  1  6  0  0  0
 15 17  1  0  0  0  0
 15 13  1  0  0  0  0
 17 20  1  1  0  0  0
 17 14  1  0  0  0  0
 19 21  1  6  0  0  0
 19  1  1  0  0  0  0
 22 23  1  0  0  0  0
 24 25  1  0  0  0  0
 25 26  1  0  0  0  0
 27 26  1  0  0  0  0
 27 29  1  0  0  0  0
 28 27  2  0  0  0  0
 30 29  2  0  0  0  0
M  END
>  <MODEL>
9

>  <REMARK>
 VINA RESULT:      -5.7      3.219      6.304
  Name = 
  7 active torsions:
  status: ('A' for Active; 'I' for Inactive)
    1  A    between atoms: N_1  and  C_22
    2  A    between atoms: C_3  and  O_11
    3  A    between atoms: C_4  and  C_23
    4  A    between atoms: C_7  and  N_10
    5  A    between atoms: C_7  and  C_15
    6  A    between atoms: N_10  and  C_25
    7  A    between atoms: C_23  and  C_25
                            x       y       z     vdW  Elec       q    Type
                         _______ _______ _______ _____ _____    ______ ____

>  <TORSDO>
F 7

$$$$
