=
 OpenBabel11052418233D

 27 32  0  0  1  0  0  0  0  0999 V2000
  188.1060  177.7630  142.6730 C   0  0  0  0  0  2  0  0  0  0  0  0
  189.3340  177.2840  144.8370 C   0  0  1  0  0  3  0  0  0  0  0  0
  189.1060  174.9160  143.8360 C   0  0  0  0  0  2  0  0  0  0  0  0
  193.3450  176.4940  146.3260 C   0  0  0  0  0  2  0  0  0  0  0  0
  193.7090  174.3340  145.7940 C   0  0  0  0  0  2  0  0  0  0  0  0
  190.5100  177.9150  144.2390 N   0  0  0  0  0  2  0  0  0  0  0  0
  191.8370  174.6170  144.6970 O   0  0  0  0  0  0  0  0  0  0  0  0
  190.4830  173.8490  140.6510 C   0  0  0  0  0  2  0  0  0  0  0  0
  192.3270  174.0410  145.7810 O   0  0  0  0  0  0  0  0  0  0  0  0
  189.0590  173.4080  140.3170 C   0  0  0  0  0  2  0  0  0  0  0  0
  191.1370  175.7560  145.1450 C   0  0  2  0  0  0  0  0  0  0  0  0
  188.0910  177.5990  144.1260 N   0  0  0  0  0  0  0  0  0  0  0  0
  193.9700  175.6580  145.3880 O   0  0  0  0  0  0  0  0  0  0  0  0
  191.8770  176.8230  145.9770 C   0  0  2  0  0  3  0  0  0  0  0  0
  187.5140  176.5260  142.0200 C   0  0  0  0  0  2  0  0  0  0  0  0
  189.6220  175.7950  144.9980 C   0  0  1  0  0  3  0  0  0  0  0  0
  190.5820  174.2170  142.1330 C   0  0  0  0  0  2  0  0  0  0  0  0
  191.6530  177.0230  144.4800 C   0  0  2  0  0  3  0  0  0  0  0  0
  187.9950  174.2810  140.9910 C   0  0  0  0  0  2  0  0  0  0  0  0
  188.6060  175.5690  141.5450 C   0  0  2  0  0  3  0  0  0  0  0  0
  189.6750  175.3090  142.5430 N   0  0  1  0  0  0  0  0  0  0  0  0
  184.4610  178.0540  146.3020 C   0  0  0  0  0  3  0  0  0  0  0  0
  186.8610  177.7530  144.8660 C   0  0  0  0  0  0  0  0  0  0  0  0
  186.0840  178.9180  144.7290 C   0  0  0  0  0  3  0  0  0  0  0  0
  184.8920  179.0670  145.4430 C   0  0  0  0  0  3  0  0  0  0  0  0
  185.2200  176.8900  146.4470 C   0  0  0  0  0  3  0  0  0  0  0  0
  186.4120  176.7420  145.7320 C   0  0  0  0  0  3  0  0  0  0  0  0
  1 12  1  0  0  0  0
  2  6  1  6  0  0  0
  2 16  1  0  0  0  0
  7  9  1  0  0  0  0
  8 17  1  0  0  0  0
  9  5  1  0  0  0  0
 10  8  1  0  0  0  0
 10 19  1  0  0  0  0
 11  7  1  6  0  0  0
 11 14  1  0  0  0  0
 12  2  1  0  0  0  0
 12 23  1  0  0  0  0
 13  5  1  0  0  0  0
 13  4  1  0  0  0  0
 14  4  1  6  0  0  0
 15  1  1  0  0  0  0
 16  3  1  6  0  0  0
 16 11  1  0  0  0  0
 18  6  1  1  0  0  0
 18 11  1  0  0  0  0
 18 14  1  0  0  0  0
 20 19  1  1  0  0  0
 20 15  1  0  0  0  0
 20 21  1  0  0  0  0
 21 17  1  6  0  0  0
 21  3  1  0  0  0  0
 22 26  1  0  0  0  0
 23 27  1  0  0  0  0
 24 23  2  0  0  0  0
 24 25  1  0  0  0  0
 25 22  2  0  0  0  0
 27 26  2  0  0  0  0
M  END
>  <MODEL>
1

>  <REMARK>
 VINA RESULT:      -8.2      0.000      0.000
  Name = 
  1 active torsions:
  status: ('A' for Active; 'I' for Inactive)
    1  A    between atoms: C_9  and  N_15
                            x       y       z     vdW  Elec       q    Type
                         _______ _______ _______ _____ _____    ______ ____

>  <TORSDO>
F 1

$$$$
=
 OpenBabel11052418233D

 27 32  0  0  1  0  0  0  0  0999 V2000
  188.5860  176.7370  142.7960 C   0  0  0  0  0  2  0  0  0  0  0  0
  190.2010  176.9710  144.7340 C   0  0  1  0  0  3  0  0  0  0  0  0
  190.0560  174.4060  144.4880 C   0  0  0  0  0  2  0  0  0  0  0  0
  194.4650  176.8560  145.5930 C   0  0  0  0  0  2  0  0  0  0  0  0
  194.9570  174.6560  145.6190 C   0  0  0  0  0  2  0  0  0  0  0  0
  191.1890  177.4610  143.7730 N   0  0  0  0  0  2  0  0  0  0  0  0
  192.9080  174.5120  144.8630 O   0  0  0  0  0  0  0  0  0  0  0  0
  190.9840  172.5330  141.5200 C   0  0  0  0  0  2  0  0  0  0  0  0
  193.6300  174.3020  145.9500 O   0  0  0  0  0  0  0  0  0  0  0  0
  189.5770  171.9410  141.5980 C   0  0  0  0  0  2  0  0  0  0  0  0
  192.1790  175.6940  145.1030 C   0  0  2  0  0  0  0  0  0  0  0  0
  188.8300  177.0020  144.2130 N   0  0  0  0  0  0  0  0  0  0  0  0
  195.0070  175.8160  144.8210 O   0  0  0  0  0  0  0  0  0  0  0  0
  192.9330  176.9930  145.4520 C   0  0  2  0  0  3  0  0  0  0  0  0
  188.0240  175.3350  142.6340 C   0  0  0  0  0  2  0  0  0  0  0  0
  190.6650  175.6110  145.2420 C   0  0  1  0  0  3  0  0  0  0  0  0
  191.2910  173.3200  142.7960 C   0  0  0  0  0  2  0  0  0  0  0  0
  192.4420  176.7380  144.0290 C   0  0  2  0  0  3  0  0  0  0  0  0
  188.5560  172.9160  142.1940 C   0  0  0  0  0  2  0  0  0  0  0  0
  189.1150  174.3390  142.2440 C   0  0  2  0  0  3  0  0  0  0  0  0
  190.3570  174.4360  143.0530 N   0  0  1  0  0  0  0  0  0  0  0  0
  185.5980  177.8860  146.8380 C   0  0  0  0  0  3  0  0  0  0  0  0
  187.7320  177.3010  145.1010 C   0  0  0  0  0  0  0  0  0  0  0  0
  187.5700  176.5900  146.3040 C   0  0  0  0  0  3  0  0  0  0  0  0
  186.5100  176.8800  147.1650 C   0  0  0  0  0  3  0  0  0  0  0  0
  185.7470  178.6030  145.6480 C   0  0  0  0  0  3  0  0  0  0  0  0
  186.8090  178.3120  144.7870 C   0  0  0  0  0  3  0  0  0  0  0  0
  1 12  1  0  0  0  0
  2  6  1  6  0  0  0
  2 16  1  0  0  0  0
  5  9  1  0  0  0  0
  7  9  1  0  0  0  0
  8 10  1  0  0  0  0
  8 17  1  0  0  0  0
 10 19  1  0  0  0  0
 11  7  1  6  0  0  0
 11 16  1  0  0  0  0
 11 14  1  0  0  0  0
 12  2  1  0  0  0  0
 12 23  1  0  0  0  0
 13  4  1  0  0  0  0
 13  5  1  0  0  0  0
 14  4  1  6  0  0  0
 15  1  1  0  0  0  0
 16  3  1  6  0  0  0
 18  6  1  1  0  0  0
 18 11  1  0  0  0  0
 18 14  1  0  0  0  0
 20 19  1  1  0  0  0
 20 15  1  0  0  0  0
 20 21  1  0  0  0  0
 21 17  1  6  0  0  0
 21  3  1  0  0  0  0
 22 25  1  0  0  0  0
 23 24  1  0  0  0  0
 24 25  2  0  0  0  0
 26 22  2  0  0  0  0
 27 23  2  0  0  0  0
 27 26  1  0  0  0  0
M  END
>  <MODEL>
2

>  <REMARK>
 VINA RESULT:      -7.8      1.244      1.570
  Name = 
  1 active torsions:
  status: ('A' for Active; 'I' for Inactive)
    1  A    between atoms: C_9  and  N_15
                            x       y       z     vdW  Elec       q    Type
                         _______ _______ _______ _____ _____    ______ ____

>  <TORSDO>
F 1

$$$$
=
 OpenBabel11052418233D

 27 32  0  0  1  0  0  0  0  0999 V2000
  190.3530  174.2380  145.4430 C   0  0  0  0  0  2  0  0  0  0  0  0
  189.5000  176.6130  145.2180 C   0  0  1  0  0  3  0  0  0  0  0  0
  189.5560  175.8480  142.7540 C   0  0  0  0  0  2  0  0  0  0  0  0
  185.7890  178.8170  144.6660 C   0  0  0  0  0  2  0  0  0  0  0  0
  185.3400  178.5870  142.4680 C   0  0  0  0  0  2  0  0  0  0  0  0
  188.2410  176.1520  145.8040 N   0  0  0  0  0  2  0  0  0  0  0  0
  187.0050  177.1730  142.5990 O   0  0  0  0  0  0  0  0  0  0  0  0
  187.6700  173.0660  141.3830 C   0  0  0  0  0  2  0  0  0  0  0  0
  186.7010  178.3790  142.1500 O   0  0  0  0  0  0  0  0  0  0  0  0
  189.0190  172.5510  140.8820 C   0  0  0  0  0  2  0  0  0  0  0  0
  187.7700  177.3750  143.7660 C   0  0  2  0  0  0  0  0  0  0  0  0
  190.6080  175.6780  145.4340 N   0  0  0  0  0  0  0  0  0  0  0  0
  185.0170  178.0890  143.7470 O   0  0  0  0  0  0  0  0  0  0  0  0
  187.1790  178.1980  144.9280 C   0  0  2  0  0  3  0  0  0  0  0  0
  190.8280  173.6330  144.1330 C   0  0  0  0  0  2  0  0  0  0  0  0
  189.2400  176.9780  143.7600 C   0  0  1  0  0  3  0  0  0  0  0  0
  187.8180  174.4960  141.9070 C   0  0  0  0  0  2  0  0  0  0  0  0
  187.1530  176.6720  144.9650 C   0  0  2  0  0  3  0  0  0  0  0  0
  190.1810  172.9440  141.8010 C   0  0  0  0  0  2  0  0  0  0  0  0
  189.6710  173.4500  143.1520 C   0  0  2  0  0  3  0  0  0  0  0  0
  188.7810  174.6320  143.0190 N   0  0  1  0  0  0  0  0  0  0  0  0
  194.5480  177.1660  146.0510 C   0  0  0  0  0  3  0  0  0  0  0  0
  191.9440  176.1850  145.6420 C   0  0  0  0  0  0  0  0  0  0  0  0
  192.4590  176.3320  146.9430 C   0  0  0  0  0  3  0  0  0  0  0  0
  193.7520  176.8200  147.1450 C   0  0  0  0  0  3  0  0  0  0  0  0
  194.0510  177.0240  144.7530 C   0  0  0  0  0  3  0  0  0  0  0  0
  192.7580  176.5350  144.5510 C   0  0  0  0  0  3  0  0  0  0  0  0
  2 12  1  0  0  0  0
  2  6  1  6  0  0  0
  3 21  1  0  0  0  0
  5 13  1  0  0  0  0
  8 17  1  0  0  0  0
  9  5  1  0  0  0  0
  9  7  1  0  0  0  0
 10  8  1  0  0  0  0
 10 19  1  0  0  0  0
 11  7  1  6  0  0  0
 11 14  1  0  0  0  0
 11 18  1  0  0  0  0
 12  1  1  0  0  0  0
 12 23  1  0  0  0  0
 13  4  1  0  0  0  0
 14  4  1  6  0  0  0
 14 18  1  0  0  0  0
 15  1  1  0  0  0  0
 16  3  1  6  0  0  0
 16 11  1  0  0  0  0
 16  2  1  0  0  0  0
 18  6  1  1  0  0  0
 20 19  1  6  0  0  0
 20 15  1  0  0  0  0
 21 17  1  6  0  0  0
 21 20  1  0  0  0  0
 22 25  1  0  0  0  0
 23 24  1  0  0  0  0
 24 25  2  0  0  0  0
 26 22  2  0  0  0  0
 27 26  1  0  0  0  0
 27 23  2  0  0  0  0
M  END
>  <MODEL>
3

>  <REMARK>
 VINA RESULT:      -7.7      2.691      5.829
  Name = 
  1 active torsions:
  status: ('A' for Active; 'I' for Inactive)
    1  A    between atoms: C_9  and  N_15
                            x       y       z     vdW  Elec       q    Type
                         _______ _______ _______ _____ _____    ______ ____

>  <TORSDO>
F 1

$$$$
=
 OpenBabel11052418233D

 27 32  0  0  1  0  0  0  0  0999 V2000
  190.0250  175.0790  147.1540 C   0  0  0  0  0  2  0  0  0  0  0  0
  189.3430  174.2480  144.8600 C   0  0  1  0  0  3  0  0  0  0  0  0
  191.5370  175.4990  144.3260 C   0  0  0  0  0  2  0  0  0  0  0  0
  190.2310  171.0600  142.0360 C   0  0  0  0  0  2  0  0  0  0  0  0
  192.1720  171.7000  141.0830 C   0  0  0  0  0  2  0  0  0  0  0  0
  189.6910  172.9010  145.3110 N   0  0  0  0  0  2  0  0  0  0  0  0
  192.0770  173.2180  142.6570 O   0  0  0  0  0  0  0  0  0  0  0  0
  194.7970  174.6840  145.6970 C   0  0  0  0  0  2  0  0  0  0  0  0
  191.9240  173.0650  141.3530 O   0  0  0  0  0  0  0  0  0  0  0  0
  194.8470  176.1470  146.1380 C   0  0  0  0  0  2  0  0  0  0  0  0
  190.7780  173.3370  143.1890 C   0  0  2  0  0  0  0  0  0  0  0  0
  189.1830  175.1990  145.9650 N   0  0  0  0  0  0  0  0  0  0  0  0
  191.6200  170.8610  142.0710 O   0  0  0  0  0  0  0  0  0  0  0  0
  189.7510  172.2130  142.9440 C   0  0  2  0  0  3  0  0  0  0  0  0
  191.1000  176.1520  147.1210 C   0  0  0  0  0  2  0  0  0  0  0  0
  190.3480  174.6670  143.7920 C   0  0  1  0  0  3  0  0  0  0  0  0
  193.6120  174.4610  144.7560 C   0  0  0  0  0  2  0  0  0  0  0  0
  190.5190  172.2900  144.2620 C   0  0  2  0  0  3  0  0  0  0  0  0
  193.4620  176.7160  146.4590 C   0  0  0  0  0  2  0  0  0  0  0  0
  192.4220  175.6000  146.5910 C   0  0  2  0  0  3  0  0  0  0  0  0
  192.3000  174.7860  145.3550 N   0  0  1  0  0  0  0  0  0  0  0  0
  186.2500  178.2710  145.6920 C   0  0  0  0  0  3  0  0  0  0  0  0
  188.1890  176.2420  145.8750 C   0  0  0  0  0  0  0  0  0  0  0  0
  188.1520  177.1010  144.7620 C   0  0  0  0  0  3  0  0  0  0  0  0
  187.1900  178.1090  144.6720 C   0  0  0  0  0  3  0  0  0  0  0  0
  186.2720  177.4240  146.8030 C   0  0  0  0  0  3  0  0  0  0  0  0
  187.2350  176.4160  146.8920 C   0  0  0  0  0  3  0  0  0  0  0  0
  2  6  1  1  0  0  0
  2 12  1  0  0  0  0
  4 13  1  0  0  0  0
  5  9  1  0  0  0  0
  5 13  1  0  0  0  0
  8 10  1  0  0  0  0
  9  7  1  0  0  0  0
 10 19  1  0  0  0  0
 11  7  1  6  0  0  0
 11 16  1  0  0  0  0
 11 18  1  0  0  0  0
 12  1  1  0  0  0  0
 14  4  1  6  0  0  0
 14 11  1  0  0  0  0
 14 18  1  0  0  0  0
 15  1  1  0  0  0  0
 16  3  1  1  0  0  0
 16  2  1  0  0  0  0
 17 21  1  0  0  0  0
 17  8  1  0  0  0  0
 18  6  1  1  0  0  0
 20 19  1  6  0  0  0
 20 15  1  0  0  0  0
 21  3  1  6  0  0  0
 21 20  1  0  0  0  0
 22 26  1  0  0  0  0
 23 12  1  0  0  0  0
 23 27  1  0  0  0  0
 24 23  2  0  0  0  0
 25 24  1  0  0  0  0
 25 22  2  0  0  0  0
 26 27  2  0  0  0  0
M  END
>  <MODEL>
4

>  <REMARK>
 VINA RESULT:      -7.6      2.292      4.844
  Name = 
  1 active torsions:
  status: ('A' for Active; 'I' for Inactive)
    1  A    between atoms: C_9  and  N_15
                            x       y       z     vdW  Elec       q    Type
                         _______ _______ _______ _____ _____    ______ ____

>  <TORSDO>
F 1

$$$$
=
 OpenBabel11052418233D

 27 32  0  0  1  0  0  0  0  0999 V2000
  190.1510  176.8530  142.7630 C   0  0  0  0  0  2  0  0  0  0  0  0
  187.6310  176.6130  142.8530 C   0  0  1  0  0  3  0  0  0  0  0  0
  188.3070  175.8610  145.2280 C   0  0  0  0  0  2  0  0  0  0  0  0
  184.1010  178.7070  144.2970 C   0  0  0  0  0  2  0  0  0  0  0  0
  184.0880  178.2910  146.5130 C   0  0  0  0  0  2  0  0  0  0  0  0
  187.5520  178.0730  142.8480 N   0  0  0  0  0  2  0  0  0  0  0  0
  186.0580  177.4600  146.0470 O   0  0  0  0  0  0  0  0  0  0  0  0
  190.0590  177.9160  147.6530 C   0  0  0  0  0  2  0  0  0  0  0  0
  184.8250  177.0960  146.3540 O   0  0  0  0  0  0  0  0  0  0  0  0
  191.0670  176.7700  147.7210 C   0  0  0  0  0  2  0  0  0  0  0  0
  186.2050  177.2080  144.6690 C   0  0  2  0  0  0  0  0  0  0  0  0
  188.9390  176.1080  142.4250 N   0  0  0  0  0  0  0  0  0  0  0  0
  184.4350  179.2550  145.5450 O   0  0  0  0  0  0  0  0  0  0  0  0
  185.2350  177.8690  143.6680 C   0  0  2  0  0  3  0  0  0  0  0  0
  190.8730  176.1520  143.9020 C   0  0  0  0  0  2  0  0  0  0  0  0
  187.1650  176.1150  144.2180 C   0  0  1  0  0  3  0  0  0  0  0  0
  188.8220  177.4790  146.8660 C   0  0  0  0  0  2  0  0  0  0  0  0
  186.6200  178.4630  143.9150 C   0  0  2  0  0  3  0  0  0  0  0  0
  191.1970  176.0170  146.3930 C   0  0  0  0  0  2  0  0  0  0  0  0
  190.5530  176.8000  145.2480 C   0  0  2  0  0  3  0  0  0  0  0  0
  189.1090  177.0630  145.4780 N   0  0  1  0  0  0  0  0  0  0  0  0
  189.1780  172.4920  140.1920 C   0  0  0  0  0  3  0  0  0  0  0  0
  189.0220  174.8830  141.6660 C   0  0  0  0  0  0  0  0  0  0  0  0
  189.6210  173.7370  142.2190 C   0  0  0  0  0  3  0  0  0  0  0  0
  189.6990  172.5510  141.4860 C   0  0  0  0  0  3  0  0  0  0  0  0
  188.5780  173.6210  139.6300 C   0  0  0  0  0  3  0  0  0  0  0  0
  188.5000  174.8080  140.3640 C   0  0  0  0  0  3  0  0  0  0  0  0
  1 15  1  0  0  0  0
  2  6  1  1  0  0  0
  2 16  1  0  0  0  0
  4 13  1  0  0  0  0
  7  9  1  0  0  0  0
  8 10  1  0  0  0  0
  9  5  1  0  0  0  0
 11  7  1  1  0  0  0
 12  1  1  0  0  0  0
 12  2  1  0  0  0  0
 13  5  1  0  0  0  0
 14 18  1  0  0  0  0
 14  4  1  1  0  0  0
 14 11  1  0  0  0  0
 16 11  1  0  0  0  0
 16  3  1  1  0  0  0
 17  8  1  0  0  0  0
 18  6  1  6  0  0  0
 18 11  1  0  0  0  0
 19 10  1  0  0  0  0
 20 15  1  6  0  0  0
 20 21  1  0  0  0  0
 20 19  1  0  0  0  0
 21  3  1  1  0  0  0
 21 17  1  0  0  0  0
 22 25  1  0  0  0  0
 23 24  1  0  0  0  0
 23 12  1  0  0  0  0
 25 24  2  0  0  0  0
 26 22  2  0  0  0  0
 26 27  1  0  0  0  0
 27 23  2  0  0  0  0
M  END
>  <MODEL>
5

>  <REMARK>
 VINA RESULT:      -7.6      2.915      6.574
  Name = 
  1 active torsions:
  status: ('A' for Active; 'I' for Inactive)
    1  A    between atoms: C_9  and  N_15
                            x       y       z     vdW  Elec       q    Type
                         _______ _______ _______ _____ _____    ______ ____

>  <TORSDO>
F 1

$$$$
=
 OpenBabel11052418233D

 27 32  0  0  1  0  0  0  0  0999 V2000
  189.8310  174.8480  146.8500 C   0  0  0  0  0  2  0  0  0  0  0  0
  189.3070  174.5270  144.3920 C   0  0  1  0  0  3  0  0  0  0  0  0
  191.5380  175.8190  144.2810 C   0  0  0  0  0  2  0  0  0  0  0  0
  190.3750  171.9810  141.0290 C   0  0  0  0  0  2  0  0  0  0  0  0
  192.3800  172.7680  140.3640 C   0  0  0  0  0  2  0  0  0  0  0  0
  189.6160  173.1090  144.5740 N   0  0  0  0  0  2  0  0  0  0  0  0
  192.1830  173.9260  142.2110 O   0  0  0  0  0  0  0  0  0  0  0  0
  194.6910  174.6730  145.6670 C   0  0  0  0  0  2  0  0  0  0  0  0
  192.1200  174.0510  140.8960 O   0  0  0  0  0  0  0  0  0  0  0  0
  194.7170  176.0110  146.4060 C   0  0  0  0  0  2  0  0  0  0  0  0
  190.8510  173.9560  142.6680 C   0  0  2  0  0  0  0  0  0  0  0  0
  189.0740  175.2290  145.6590 N   0  0  0  0  0  0  0  0  0  0  0  0
  191.7560  171.7520  141.1150 O   0  0  0  0  0  0  0  0  0  0  0  0
  189.8380  172.9280  142.1240 C   0  0  2  0  0  3  0  0  0  0  0  0
  190.9110  175.8830  147.1140 C   0  0  0  0  0  2  0  0  0  0  0  0
  190.3860  175.1400  143.5060 C   0  0  1  0  0  3  0  0  0  0  0  0
  193.5730  174.6750  144.6230 C   0  0  0  0  0  2  0  0  0  0  0  0
  190.5120  172.7140  143.4770 C   0  0  2  0  0  3  0  0  0  0  0  0
  193.3150  176.5270  146.7460 C   0  0  0  0  0  2  0  0  0  0  0  0
  192.2640  175.4290  146.5710 C   0  0  2  0  0  3  0  0  0  0  0  0
  192.2250  174.8920  145.1860 N   0  0  1  0  0  0  0  0  0  0  0  0
  186.1890  178.3520  145.8510 C   0  0  0  0  0  3  0  0  0  0  0  0
  188.0940  176.2870  145.7220 C   0  0  0  0  0  0  0  0  0  0  0  0
  187.3100  176.4680  146.8750 C   0  0  0  0  0  3  0  0  0  0  0  0
  186.3630  177.4930  146.9380 C   0  0  0  0  0  3  0  0  0  0  0  0
  186.9620  178.1860  144.6990 C   0  0  0  0  0  3  0  0  0  0  0  0
  187.9090  177.1600  144.6370 C   0  0  0  0  0  3  0  0  0  0  0  0
  1 15  1  0  0  0  0
  2  6  1  1  0  0  0
  2 12  1  0  0  0  0
  4 13  1  0  0  0  0
  5  9  1  0  0  0  0
  5 13  1  0  0  0  0
  8 10  1  0  0  0  0
  9  7  1  0  0  0  0
 10 19  1  0  0  0  0
 11  7  1  6  0  0  0
 11 18  1  0  0  0  0
 11 16  1  0  0  0  0
 12 23  1  0  0  0  0
 12  1  1  0  0  0  0
 14  4  1  6  0  0  0
 14 11  1  0  0  0  0
 14 18  1  0  0  0  0
 16  3  1  1  0  0  0
 16  2  1  0  0  0  0
 17 21  1  0  0  0  0
 17  8  1  0  0  0  0
 18  6  1  1  0  0  0
 20 19  1  6  0  0  0
 20 15  1  0  0  0  0
 21  3  1  6  0  0  0
 21 20  1  0  0  0  0
 22 25  1  0  0  0  0
 23 24  1  0  0  0  0
 24 25  2  0  0  0  0
 26 22  2  0  0  0  0
 27 26  1  0  0  0  0
 27 23  2  0  0  0  0
M  END
>  <MODEL>
6

>  <REMARK>
 VINA RESULT:      -7.5      2.111      4.845
  Name = 
  1 active torsions:
  status: ('A' for Active; 'I' for Inactive)
    1  A    between atoms: C_9  and  N_15
                            x       y       z     vdW  Elec       q    Type
                         _______ _______ _______ _____ _____    ______ ____

>  <TORSDO>
F 1

$$$$
=
 OpenBabel11052418233D

 27 32  0  0  1  0  0  0  0  0999 V2000
  191.5060  175.8440  142.9950 C   0  0  0  0  0  2  0  0  0  0  0  0
  189.0320  175.9600  142.4650 C   0  0  1  0  0  3  0  0  0  0  0  0
  188.9950  175.3980  144.9830 C   0  0  0  0  0  2  0  0  0  0  0  0
  185.6400  178.6640  142.8070 C   0  0  0  0  0  2  0  0  0  0  0  0
  185.0340  178.5080  144.9730 C   0  0  0  0  0  2  0  0  0  0  0  0
  189.1900  177.4080  142.3280 N   0  0  0  0  0  2  0  0  0  0  0  0
  186.9000  177.3690  145.0840 O   0  0  0  0  0  0  0  0  0  0  0  0
  190.4240  177.4580  147.6080 C   0  0  0  0  0  2  0  0  0  0  0  0
  185.5880  177.2140  145.0970 O   0  0  0  0  0  0  0  0  0  0  0  0
  191.1910  176.2010  148.0150 C   0  0  0  0  0  2  0  0  0  0  0  0
  187.3290  176.9450  143.8110 C   0  0  2  0  0  0  0  0  0  0  0  0
  190.3070  175.2370  142.4200 N   0  0  0  0  0  0  0  0  0  0  0  0
  185.7510  179.2990  144.0530 O   0  0  0  0  0  0  0  0  0  0  0  0
  186.7430  177.6130  142.5510 C   0  0  2  0  0  3  0  0  0  0  0  0
  191.8150  175.1860  144.3290 C   0  0  0  0  0  2  0  0  0  0  0  0
  188.1820  175.6880  143.7010 C   0  0  1  0  0  3  0  0  0  0  0  0
  189.3570  177.1060  146.5700 C   0  0  0  0  0  2  0  0  0  0  0  0
  188.1060  178.0390  143.0930 C   0  0  2  0  0  3  0  0  0  0  0  0
  191.5120  175.2910  146.8240 C   0  0  0  0  0  2  0  0  0  0  0  0
  191.2920  176.0190  145.4970 C   0  0  2  0  0  3  0  0  0  0  0  0
  189.8950  176.5000  145.3350 N   0  0  1  0  0  0  0  0  0  0  0  0
  190.5040  171.3960  140.5980 C   0  0  0  0  0  3  0  0  0  0  0  0
  190.3710  173.9340  141.8020 C   0  0  0  0  0  0  0  0  0  0  0  0
  190.8340  173.7900  140.4820 C   0  0  0  0  0  3  0  0  0  0  0  0
  190.8980  172.5290  139.8840 C   0  0  0  0  0  3  0  0  0  0  0  0
  190.0450  171.5220  141.9110 C   0  0  0  0  0  3  0  0  0  0  0  0
  189.9800  172.7840  142.5090 C   0  0  0  0  0  3  0  0  0  0  0  0
  1 15  1  0  0  0  0
  2  6  1  1  0  0  0
  2 16  1  0  0  0  0
  4 13  1  0  0  0  0
  5  9  1  0  0  0  0
  7  9  1  0  0  0  0
  8 10  1  0  0  0  0
 11  7  1  1  0  0  0
 12  2  1  0  0  0  0
 12  1  1  0  0  0  0
 13  5  1  0  0  0  0
 14  4  1  1  0  0  0
 14 18  1  0  0  0  0
 14 11  1  0  0  0  0
 16 11  1  0  0  0  0
 16  3  1  1  0  0  0
 17  8  1  0  0  0  0
 18  6  1  6  0  0  0
 18 11  1  0  0  0  0
 19 10  1  0  0  0  0
 20 15  1  6  0  0  0
 20 19  1  0  0  0  0
 21  3  1  1  0  0  0
 21 20  1  0  0  0  0
 21 17  1  0  0  0  0
 22 26  1  0  0  0  0
 23 12  1  0  0  0  0
 23 27  1  0  0  0  0
 24 23  2  0  0  0  0
 25 24  1  0  0  0  0
 25 22  2  0  0  0  0
 26 27  2  0  0  0  0
M  END
>  <MODEL>
7

>  <REMARK>
 VINA RESULT:      -7.2      2.708      6.569
  Name = 
  1 active torsions:
  status: ('A' for Active; 'I' for Inactive)
    1  A    between atoms: C_9  and  N_15
                            x       y       z     vdW  Elec       q    Type
                         _______ _______ _______ _____ _____    ______ ____

>  <TORSDO>
F 1

$$$$
=
 OpenBabel11052418233D

 27 32  0  0  1  0  0  0  0  0999 V2000
  191.7050  173.0000  144.5740 C   0  0  0  0  0  2  0  0  0  0  0  0
  191.0920  175.3170  145.3950 C   0  0  1  0  0  3  0  0  0  0  0  0
  190.2070  175.3760  142.9710 C   0  0  0  0  0  2  0  0  0  0  0  0
  187.6840  177.5560  146.9140 C   0  0  0  0  0  2  0  0  0  0  0  0
  186.4800  178.0340  145.0690 C   0  0  0  0  0  2  0  0  0  0  0  0
  190.0720  174.6840  146.2320 N   0  0  0  0  0  2  0  0  0  0  0  0
  187.9220  176.6630  144.1570 O   0  0  0  0  0  0  0  0  0  0  0  0
  187.6710  173.1610  141.6150 C   0  0  0  0  0  2  0  0  0  0  0  0
  187.6150  177.9470  144.2320 O   0  0  0  0  0  0  0  0  0  0  0  0
  188.6980  172.8420  140.5290 C   0  0  0  0  0  2  0  0  0  0  0  0
  189.0610  176.4890  144.9690 C   0  0  2  0  0  0  0  0  0  0  0  0
  192.0970  174.3690  144.9030 N   0  0  0  0  0  0  0  0  0  0  0  0
  186.5670  177.1530  146.1660 O   0  0  0  0  0  0  0  0  0  0  0  0
  189.0030  176.8950  146.4560 C   0  0  2  0  0  3  0  0  0  0  0  0
  191.6270  172.8460  143.0650 C   0  0  0  0  0  2  0  0  0  0  0  0
  190.3850  176.1240  144.3120 C   0  0  1  0  0  3  0  0  0  0  0  0
  188.1470  174.3510  142.4510 C   0  0  0  0  0  2  0  0  0  0  0  0
  188.8240  175.4370  146.0410 C   0  0  2  0  0  3  0  0  0  0  0  0
  190.1420  172.9300  141.0360 C   0  0  0  0  0  2  0  0  0  0  0  0
  190.1900  172.9760  142.5640 C   0  0  2  0  0  3  0  0  0  0  0  0
  189.4440  174.1330  143.1230 N   0  0  1  0  0  0  0  0  0  0  0  0
  196.1440  175.6110  144.4610 C   0  0  0  0  0  3  0  0  0  0  0  0
  193.4690  174.7930  144.7540 C   0  0  0  0  0  0  0  0  0  0  0  0
  194.4540  174.3620  145.6600 C   0  0  0  0  0  3  0  0  0  0  0  0
  195.7830  174.7690  145.5150 C   0  0  0  0  0  3  0  0  0  0  0  0
  195.1780  176.0460  143.5510 C   0  0  0  0  0  3  0  0  0  0  0  0
  193.8490  175.6370  143.6970 C   0  0  0  0  0  3  0  0  0  0  0  0
  1 12  1  0  0  0  0
  2  6  1  6  0  0  0
  3 21  1  0  0  0  0
  5 13  1  0  0  0  0
  7  9  1  0  0  0  0
  8 17  1  0  0  0  0
  9  5  1  0  0  0  0
 10 19  1  0  0  0  0
 10  8  1  0  0  0  0
 11  7  1  6  0  0  0
 11 18  1  0  0  0  0
 11 14  1  0  0  0  0
 12  2  1  0  0  0  0
 13  4  1  0  0  0  0
 14  4  1  6  0  0  0
 15  1  1  0  0  0  0
 16  3  1  6  0  0  0
 16 11  1  0  0  0  0
 16  2  1  0  0  0  0
 18  6  1  1  0  0  0
 18 14  1  0  0  0  0
 20 19  1  6  0  0  0
 20 15  1  0  0  0  0
 20 21  1  0  0  0  0
 21 17  1  6  0  0  0
 22 25  1  0  0  0  0
 23 12  1  0  0  0  0
 23 24  1  0  0  0  0
 25 24  2  0  0  0  0
 26 27  1  0  0  0  0
 26 22  2  0  0  0  0
 27 23  2  0  0  0  0
M  END
>  <MODEL>
8

>  <REMARK>
 VINA RESULT:      -6.9      2.561      6.077
  Name = 
  1 active torsions:
  status: ('A' for Active; 'I' for Inactive)
    1  A    between atoms: C_9  and  N_15
                            x       y       z     vdW  Elec       q    Type
                         _______ _______ _______ _____ _____    ______ ____

>  <TORSDO>
F 1

$$$$
=
 OpenBabel11052418233D

 27 32  0  0  1  0  0  0  0  0999 V2000
  193.7690  176.1260  144.5780 C   0  0  0  0  0  2  0  0  0  0  0  0
  192.9350  174.1040  143.3000 C   0  0  1  0  0  3  0  0  0  0  0  0
  191.1410  174.3290  145.1420 C   0  0  0  0  0  2  0  0  0  0  0  0
  189.9980  173.0070  140.2830 C   0  0  0  0  0  2  0  0  0  0  0  0
  188.0520  172.9280  141.4190 C   0  0  0  0  0  2  0  0  0  0  0  0
  192.5800  175.0140  142.2120 N   0  0  0  0  0  2  0  0  0  0  0  0
  189.3010  173.7960  142.9930 O   0  0  0  0  0  0  0  0  0  0  0  0
  189.0010  177.2190  145.6360 C   0  0  0  0  0  2  0  0  0  0  0  0
  188.7080  172.6680  142.6440 O   0  0  0  0  0  0  0  0  0  0  0  0
  189.5240  177.2140  147.0720 C   0  0  0  0  0  2  0  0  0  0  0  0
  190.6740  173.6100  142.7320 C   0  0  2  0  0  0  0  0  0  0  0  0
  193.8630  174.7010  144.2660 N   0  0  0  0  0  0  0  0  0  0  0  0
  188.8330  173.7350  140.5670 O   0  0  0  0  0  0  0  0  0  0  0  0
  191.1310  173.2350  141.3080 C   0  0  2  0  0  3  0  0  0  0  0  0
  193.1150  176.3040  145.9370 C   0  0  0  0  0  2  0  0  0  0  0  0
  191.6460  173.5560  143.9020 C   0  0  1  0  0  3  0  0  0  0  0  0
  189.4290  175.9370  144.9190 C   0  0  0  0  0  2  0  0  0  0  0  0
  191.2110  174.6800  141.7930 C   0  0  2  0  0  3  0  0  0  0  0  0
  190.9590  176.6870  147.1770 C   0  0  0  0  0  2  0  0  0  0  0  0
  191.6260  176.6210  145.8020 C   0  0  2  0  0  3  0  0  0  0  0  0
  190.8920  175.7450  144.8530 N   0  0  1  0  0  0  0  0  0  0  0  0
  196.8270  172.2730  146.1200 C   0  0  0  0  0  3  0  0  0  0  0  0
  194.8680  173.8790  144.8970 C   0  0  0  0  0  0  0  0  0  0  0  0
  194.6840  172.4900  145.0180 C   0  0  0  0  0  3  0  0  0  0  0  0
  195.6570  171.6930  145.6260 C   0  0  0  0  0  3  0  0  0  0  0  0
  197.0250  173.6510  146.0060 C   0  0  0  0  0  3  0  0  0  0  0  0
  196.0520  174.4480  145.3970 C   0  0  0  0  0  3  0  0  0  0  0  0
  1 15  1  0  0  0  0
  2  6  1  6  0  0  0
  2 16  1  0  0  0  0
  2 12  1  0  0  0  0
  4 13  1  0  0  0  0
  5  9  1  0  0  0  0
  8 10  1  0  0  0  0
  9  7  1  0  0  0  0
 10 19  1  0  0  0  0
 11  7  1  1  0  0  0
 11 16  1  0  0  0  0
 12  1  1  0  0  0  0
 12 23  1  0  0  0  0
 13  5  1  0  0  0  0
 14  4  1  6  0  0  0
 14 18  1  0  0  0  0
 14 11  1  0  0  0  0
 16  3  1  1  0  0  0
 17  8  1  0  0  0  0
 18  6  1  1  0  0  0
 18 11  1  0  0  0  0
 20 15  1  1  0  0  0
 20 19  1  0  0  0  0
 21 17  1  1  0  0  0
 21  3  1  0  0  0  0
 21 20  1  0  0  0  0
 23 24  2  0  0  0  0
 23 27  1  0  0  0  0
 24 25  1  0  0  0  0
 25 22  2  0  0  0  0
 26 22  1  0  0  0  0
 27 26  2  0  0  0  0
M  END
>  <MODEL>
9

>  <REMARK>
 VINA RESULT:      -6.9      2.772      7.313
  Name = 
  1 active torsions:
  status: ('A' for Active; 'I' for Inactive)
    1  A    between atoms: C_9  and  N_15
                            x       y       z     vdW  Elec       q    Type
                         _______ _______ _______ _____ _____    ______ ____

>  <TORSDO>
F 1

$$$$
