=
 OpenBabel11052419483D

 55 59  0  0  1  0  0  0  0  0999 V2000
  188.9840  176.8220  142.0650 C   0  0  0  0  0  2  0  0  0  0  0  0
  186.2340  177.3390  141.2510 C   0  0  2  0  0  3  0  0  0  0  0  0
  186.5640  176.1020  142.1110 C   0  0  0  0  0  2  0  0  0  0  0  0
  188.3580  178.1510  141.6270 C   0  0  0  0  0  2  0  0  0  0  0  0
  188.0140  175.6470  141.9330 C   0  0  1  0  0  3  0  0  0  0  0  0
  187.3590  177.9470  140.6470 O   0  0  0  0  0  0  0  0  0  0  0  0
  185.4060  178.3530  142.0200 C   0  0  0  0  0  2  0  0  0  0  0  0
  185.1030  177.8030  143.4110 C   0  0  0  0  0  2  0  0  0  0  0  0
  185.8920  178.5670  144.4520 C   0  0  0  0  0  2  0  0  0  0  0  0
  186.3380  177.6560  145.5870 C   0  0  1  0  0  3  0  0  0  0  0  0
  185.1820  176.7540  145.9900 C   0  0  0  0  0  1  0  0  0  0  0  0
  187.4130  176.8670  145.1450 O   0  0  0  0  0  0  0  0  0  0  0  0
  187.9180  177.2500  147.5040 C   0  0  0  0  0  1  0  0  0  0  0  0
  188.3680  176.6370  146.1770 C   0  0  1  0  0  0  0  0  0  0  0  0
  188.4100  175.2600  146.3710 O   0  0  0  0  0  1  0  0  0  0  0  0
  191.5270  176.7370  147.5280 C   0  0  0  0  0  0  0  0  0  0  0  0
  192.8960  176.5090  145.3450 O   0  0  0  0  0  0  0  0  0  0  0  0
  189.7920  177.1580  145.7920 C   0  0  1  0  0  0  0  0  0  0  0  0
  190.6030  174.8960  145.2800 F   0  0  0  0  0  0  0  0  0  0  0  0
  190.5130  176.2010  144.8350 C   0  0  2  0  0  3  0  0  0  0  0  0
  191.0310  175.3530  147.9000 C   0  0  0  0  0  1  0  0  0  0  0  0
  192.8250  176.6220  146.7370 C   0  0  0  0  0  0  0  0  0  0  0  0
  191.8530  177.4020  148.8570 C   0  0  0  0  0  1  0  0  0  0  0  0
  191.8540  176.7800  144.4180 C   0  0  2  0  0  3  0  0  0  0  0  0
  189.6040  178.3170  145.0630 F   0  0  0  0  0  0  0  0  0  0  0  0
  193.9070  176.4610  147.3720 O   0  0  0  0  0  0  0  0  0  0  0  0
  190.5370  177.5790  146.9380 O   0  0  0  0  0  0  0  0  0  0  0  0
  192.2550  176.3380  143.0180 C   0  0  0  0  0  2  0  0  0  0  0  0
  193.6710  175.8220  142.9710 C   0  0  0  0  0  1  0  0  0  0  0  0
  188.2320  174.9520  140.6020 C   0  0  0  0  0  2  0  0  0  0  0  0
  188.3550  173.4540  140.7940 C   0  0  0  0  0  2  0  0  0  0  0  0
  189.5710  172.9190  140.0260 C   0  0  2  0  0  3  0  0  0  0  0  0
  191.5860  172.3100  138.1770 C   0  0  0  0  0  2  0  0  0  0  0  0
  192.0420  171.0150  135.9830 C   0  0  0  0  0  2  0  0  0  0  0  0
  190.1110  170.2610  137.3910 C   0  0  2  0  0  3  0  0  0  0  0  0
  191.4290  169.8450  136.7450 C   0  0  0  0  0  2  0  0  0  0  0  0
  192.5040  172.1160  136.9530 C   0  0  0  0  0  2  0  0  0  0  0  0
  190.1880  171.6750  137.9810 C   0  0  2  0  0  0  0  0  0  0  0  0
  189.7910  169.3320  138.3900 O   0  0  0  0  0  1  0  0  0  0  0  0
  189.0540  172.5320  137.6110 C   0  0  1  0  0  3  0  0  0  0  0  0
  189.1350  171.9590  138.9940 N   0  0  0  0  0  0  0  0  0  0  0  0
  189.3570  174.0380  137.5130 C   0  0  0  0  0  2  0  0  0  0  0  0
  189.3580  175.6010  135.7290 F   0  0  0  0  0  0  0  0  0  0  0  0
  188.5480  174.7150  136.4110 C   0  0  2  0  0  3  0  0  0  0  0  0
  187.3850  175.4760  137.0010 C   0  0  0  0  0  2  0  0  0  0  0  0
  187.0090  176.5120  136.1410 O   0  0  0  0  0  1  0  0  0  0  0  0
  190.0060  171.3510  141.8380 C   0  0  0  0  0  2  0  0  0  0  0  0
  191.2050  173.3030  141.7070 C   0  0  0  0  0  2  0  0  0  0  0  0
  191.4010  172.6530  143.0440 C   0  0  1  0  0  3  0  0  0  0  0  0
  190.4550  171.6260  143.1450 O   0  0  0  0  0  0  0  0  0  0  0  0
  190.5890  172.2920  140.8900 N   0  0  0  0  0  0  0  0  0  0  0  0
  192.8070  172.0640  143.1560 C   0  0  0  0  0  2  0  0  0  0  0  0
  193.3100  172.0490  144.5670 C   0  0  0  0  0  0  0  0  0  0  0  0
  193.1920  173.1930  145.3520 O   0  0  0  0  0  1  0  0  0  0  0  0
  193.8470  171.0180  145.0590 O   0  0  0  0  0  0  0  0  0  0  0  0
  2  7  1  1  0  0  0
  2  3  1  0  0  0  0
  4  1  1  0  0  0  0
  5 30  1  6  0  0  0
  5  1  1  0  0  0  0
  5  3  1  0  0  0  0
  6  2  1  0  0  0  0
  6  4  1  0  0  0  0
  7  8  1  0  0  0  0
  8  9  1  0  0  0  0
  9 10  1  0  0  0  0
 10 11  1  6  0  0  0
 12 10  1  0  0  0  0
 12 14  1  0  0  0  0
 14 15  1  0  0  0  0
 14 13  1  1  0  0  0
 16 21  1  0  0  0  0
 16 23  1  0  0  0  0
 17 22  1  0  0  0  0
 18 25  1  6  0  0  0
 18 14  1  0  0  0  0
 18 27  1  0  0  0  0
 20 19  1  1  0  0  0
 20 18  1  0  0  0  0
 22 26  2  0  0  0  0
 22 16  1  0  0  0  0
 24 28  1  6  0  0  0
 24 20  1  0  0  0  0
 24 17  1  0  0  0  0
 27 16  1  0  0  0  0
 29 28  1  0  0  0  0
 30 31  1  0  0  0  0
 32 31  1  1  0  0  0
 32 51  1  0  0  0  0
 34 36  1  0  0  0  0
 34 37  1  0  0  0  0
 35 38  1  0  0  0  0
 35 39  1  1  0  0  0
 36 35  1  0  0  0  0
 37 33  1  0  0  0  0
 38 33  1  1  0  0  0
 38 41  1  0  0  0  0
 40 42  1  1  0  0  0
 40 38  1  0  0  0  0
 40 41  1  0  0  0  0
 41 32  1  0  0  0  0
 44 43  1  1  0  0  0
 44 45  1  0  0  0  0
 44 42  1  0  0  0  0
 46 45  1  0  0  0  0
 47 50  1  0  0  0  0
 48 49  1  0  0  0  0
 49 50  1  0  0  0  0
 49 52  1  6  0  0  0
 51 48  1  0  0  0  0
 51 47  1  0  0  0  0
 52 53  1  0  0  0  0
 53 55  2  0  0  0  0
 53 54  1  0  0  0  0
M  END
>  <MODEL>
1

>  <REMARK>
 VINA RESULT:      -6.6      0.000      0.000
  Name = 
  18 active torsions:
  status: ('A' for Active; 'I' for Inactive)
    1  A    between atoms: C_2  and  C_28
    2  A    between atoms: C_2  and  C_44
    3  A    between atoms: C_4  and  C_40
    4  A    between atoms: C_6  and  C_20
    5  A    between atoms: C_8  and  O_22
    6  A    between atoms: C_8  and  C_35
    7  A    between atoms: C_10  and  C_32
    8  A    between atoms: C_11  and  C_38
    9  A    between atoms: C_19  and  C_40
   10  A    between atoms: C_19  and  C_45
   11  A    between atoms: C_20  and  O_22
   12  A    between atoms: C_27  and  C_54
   13  A    between atoms: C_28  and  C_33
   14  A    between atoms: C_32  and  C_39
   15  A    between atoms: C_33  and  N_49
   16  A    between atoms: C_33  and  N_52
   17  A    between atoms: C_35  and  C_51
   18  A    between atoms: C_51  and  C_54
                            x       y       z     vdW  Elec       q    Type
                         _______ _______ _______ _____ _____    ______ ____

>  <TORSDO>
F 18

$$$$
=
 OpenBabel11052419483D

 55 59  0  0  1  0  0  0  0  0999 V2000
  193.0180  173.5470  143.1180 C   0  0  0  0  0  2  0  0  0  0  0  0
  193.6540  176.2980  143.8420 C   0  0  2  0  0  3  0  0  0  0  0  0
  192.6100  176.0100  142.7440 C   0  0  0  0  0  2  0  0  0  0  0  0
  193.6390  174.0660  144.4190 C   0  0  0  0  0  2  0  0  0  0  0  0
  192.8340  174.6510  142.0770 C   0  0  1  0  0  3  0  0  0  0  0  0
  194.4650  175.1890  144.1800 O   0  0  0  0  0  0  0  0  0  0  0  0
  193.0170  176.9110  145.0760 C   0  0  0  0  0  2  0  0  0  0  0  0
  191.5080  177.0100  144.8660 C   0  0  0  0  0  2  0  0  0  0  0  0
  190.7810  176.3390  146.0100 C   0  0  0  0  0  2  0  0  0  0  0  0
  189.4030  175.8560  145.5820 C   0  0  1  0  0  3  0  0  0  0  0  0
  188.5570  175.5930  146.8180 C   0  0  0  0  0  1  0  0  0  0  0  0
  188.7900  176.8510  144.8020 O   0  0  0  0  0  0  0  0  0  0  0  0
  189.0910  177.0130  142.3830 C   0  0  0  0  0  1  0  0  0  0  0  0
  188.3490  176.3480  143.5430 C   0  0  1  0  0  0  0  0  0  0  0  0
  188.6980  175.0010  143.5170 O   0  0  0  0  0  1  0  0  0  0  0  0
  185.6540  177.6100  145.2630 C   0  0  0  0  0  0  0  0  0  0  0  0
  184.2470  178.4210  143.2500 O   0  0  0  0  0  0  0  0  0  0  0  0
  186.8030  176.4950  143.3560 C   0  0  1  0  0  0  0  0  0  0  0  0
  186.9800  178.8880  142.8320 F   0  0  0  0  0  0  0  0  0  0  0  0
  186.4440  177.6750  142.4460 C   0  0  2  0  0  3  0  0  0  0  0  0
  186.7380  178.6430  145.5050 C   0  0  0  0  0  1  0  0  0  0  0  0
  184.4410  178.2790  144.6270 C   0  0  0  0  0  0  0  0  0  0  0  0
  185.2490  177.1420  146.6530 C   0  0  0  0  0  1  0  0  0  0  0  0
  184.9430  177.7330  142.2200 C   0  0  2  0  0  3  0  0  0  0  0  0
  186.3810  175.3720  142.6690 F   0  0  0  0  0  0  0  0  0  0  0  0
  183.6240  178.8860  145.3770 O   0  0  0  0  0  0  0  0  0  0  0  0
  186.1030  176.4280  144.6020 O   0  0  0  0  0  0  0  0  0  0  0  0
  184.5940  178.3130  140.8580 C   0  0  0  0  0  2  0  0  0  0  0  0
  183.1110  178.2700  140.5870 C   0  0  0  0  0  1  0  0  0  0  0  0
  194.0230  174.6700  141.1350 C   0  0  0  0  0  2  0  0  0  0  0  0
  194.2150  173.3140  140.4860 C   0  0  0  0  0  2  0  0  0  0  0  0
  193.3950  173.2240  139.1920 C   0  0  2  0  0  3  0  0  0  0  0  0
  191.5610  173.1260  137.0760 C   0  0  0  0  0  2  0  0  0  0  0  0
  189.5940  171.7430  136.1210 C   0  0  0  0  0  2  0  0  0  0  0  0
  191.2170  170.5610  137.6210 C   0  0  2  0  0  3  0  0  0  0  0  0
  190.5760  170.5820  136.2360 C   0  0  0  0  0  2  0  0  0  0  0  0
  190.3360  173.0900  136.1400 C   0  0  0  0  0  2  0  0  0  0  0  0
  191.5560  171.9750  138.1110 C   0  0  2  0  0  0  0  0  0  0  0  0
  192.3750  169.7740  137.5640 O   0  0  0  0  0  1  0  0  0  0  0  0
  191.1130  172.2450  139.4860 C   0  0  1  0  0  3  0  0  0  0  0  0
  192.5660  172.0040  139.2050 N   0  0  0  0  0  0  0  0  0  0  0  0
  190.7460  173.7080  139.7950 C   0  0  0  0  0  2  0  0  0  0  0  0
  189.1020  172.8250  141.2590 F   0  0  0  0  0  0  0  0  0  0  0  0
  189.3310  173.8390  140.3500 C   0  0  2  0  0  3  0  0  0  0  0  0
  188.3160  173.7330  139.2380 C   0  0  0  0  0  2  0  0  0  0  0  0
  187.9090  172.4040  139.0900 O   0  0  0  0  0  1  0  0  0  0  0  0
  195.3810  172.3860  138.0590 C   0  0  0  0  0  2  0  0  0  0  0  0
  194.7550  174.5780  137.7930 C   0  0  0  0  0  2  0  0  0  0  0  0
  196.1480  174.3620  137.2810 C   0  0  1  0  0  3  0  0  0  0  0  0
  196.5490  173.0900  137.7060 O   0  0  0  0  0  0  0  0  0  0  0  0
  194.2140  173.2560  137.9670 N   0  0  0  0  0  0  0  0  0  0  0  0
  196.1770  174.4230  135.7550 C   0  0  0  0  0  2  0  0  0  0  0  0
  195.8790  175.7940  135.2300 C   0  0  0  0  0  0  0  0  0  0  0  0
  196.8530  176.7860  135.3070 O   0  0  0  0  0  1  0  0  0  0  0  0
  194.7580  176.0710  134.7230 O   0  0  0  0  0  0  0  0  0  0  0  0
  1  4  1  0  0  0  0
  2  6  1  0  0  0  0
  2  7  1  1  0  0  0
  3  2  1  0  0  0  0
  5 30  1  6  0  0  0
  5  3  1  0  0  0  0
  5  1  1  0  0  0  0
  6  4  1  0  0  0  0
  8  7  1  0  0  0  0
  8  9  1  0  0  0  0
 10  9  1  0  0  0  0
 10 11  1  1  0  0  0
 12 10  1  0  0  0  0
 14 13  1  6  0  0  0
 14 12  1  0  0  0  0
 15 14  1  0  0  0  0
 16 21  1  0  0  0  0
 16 23  1  0  0  0  0
 17 22  1  0  0  0  0
 18 25  1  6  0  0  0
 18 14  1  0  0  0  0
 18 27  1  0  0  0  0
 20 19  1  1  0  0  0
 20 18  1  0  0  0  0
 22 16  1  0  0  0  0
 22 26  2  0  0  0  0
 24 28  1  6  0  0  0
 24 20  1  0  0  0  0
 24 17  1  0  0  0  0
 27 16  1  0  0  0  0
 29 28  1  0  0  0  0
 31 30  1  0  0  0  0
 32 41  1  0  0  0  0
 32 31  1  1  0  0  0
 34 37  1  0  0  0  0
 34 36  1  0  0  0  0
 35 39  1  6  0  0  0
 35 38  1  0  0  0  0
 36 35  1  0  0  0  0
 37 33  1  0  0  0  0
 38 33  1  6  0  0  0
 38 41  1  0  0  0  0
 38 40  1  0  0  0  0
 40 42  1  6  0  0  0
 41 40  1  0  0  0  0
 42 44  1  0  0  0  0
 44 43  1  1  0  0  0
 45 44  1  0  0  0  0
 46 45  1  0  0  0  0
 48 51  1  0  0  0  0
 49 52  1  6  0  0  0
 49 50  1  0  0  0  0
 49 48  1  0  0  0  0
 50 47  1  0  0  0  0
 51 47  1  0  0  0  0
 51 32  1  0  0  0  0
 53 54  1  0  0  0  0
 53 52  1  0  0  0  0
 55 53  2  0  0  0  0
M  END
>  <MODEL>
2

>  <REMARK>
 VINA RESULT:      -6.5      3.158      6.256
  Name = 
  18 active torsions:
  status: ('A' for Active; 'I' for Inactive)
    1  A    between atoms: C_2  and  C_28
    2  A    between atoms: C_2  and  C_44
    3  A    between atoms: C_4  and  C_40
    4  A    between atoms: C_6  and  C_20
    5  A    between atoms: C_8  and  O_22
    6  A    between atoms: C_8  and  C_35
    7  A    between atoms: C_10  and  C_32
    8  A    between atoms: C_11  and  C_38
    9  A    between atoms: C_19  and  C_40
   10  A    between atoms: C_19  and  C_45
   11  A    between atoms: C_20  and  O_22
   12  A    between atoms: C_27  and  C_54
   13  A    between atoms: C_28  and  C_33
   14  A    between atoms: C_32  and  C_39
   15  A    between atoms: C_33  and  N_49
   16  A    between atoms: C_33  and  N_52
   17  A    between atoms: C_35  and  C_51
   18  A    between atoms: C_51  and  C_54
                            x       y       z     vdW  Elec       q    Type
                         _______ _______ _______ _____ _____    ______ ____

>  <TORSDO>
F 18

$$$$
=
 OpenBabel11052419483D

 55 59  0  0  1  0  0  0  0  0999 V2000
  191.5640  177.3230  144.3260 C   0  0  0  0  0  2  0  0  0  0  0  0
  190.8690  174.5710  144.9880 C   0  0  2  0  0  3  0  0  0  0  0  0
  191.8820  175.3430  145.8590 C   0  0  0  0  0  2  0  0  0  0  0  0
  190.3130  176.5370  143.9200 C   0  0  0  0  0  2  0  0  0  0  0  0
  192.5770  176.4620  145.0810 C   0  0  1  0  0  3  0  0  0  0  0  0
  190.6090  175.1660  143.7310 O   0  0  0  0  0  0  0  0  0  0  0  0
  189.5820  174.2870  145.7410 C   0  0  0  0  0  2  0  0  0  0  0  0
  189.3530  175.3860  146.7760 C   0  0  0  0  0  2  0  0  0  0  0  0
  187.9140  175.8500  146.7270 C   0  0  0  0  0  2  0  0  0  0  0  0
  187.8190  177.3670  146.8050 C   0  0  1  0  0  3  0  0  0  0  0  0
  189.1690  177.9330  147.2180 C   0  0  0  0  0  1  0  0  0  0  0  0
  187.4700  177.8700  145.5410 O   0  0  0  0  0  0  0  0  0  0  0  0
  185.1480  177.3140  146.0560 C   0  0  0  0  0  1  0  0  0  0  0  0
  186.1290  178.3510  145.5080 C   0  0  1  0  0  0  0  0  0  0  0  0
  186.0820  179.4380  146.3750 O   0  0  0  0  0  1  0  0  0  0  0  0
  187.1450  177.9150  142.2540 C   0  0  0  0  0  0  0  0  0  0  0  0
  184.8280  177.9710  141.1060 O   0  0  0  0  0  0  0  0  0  0  0  0
  185.6970  178.8030  144.0740 C   0  0  1  0  0  0  0  0  0  0  0  0
  184.7150  176.6120  143.5560 F   0  0  0  0  0  0  0  0  0  0  0  0
  184.5190  177.9790  143.5420 C   0  0  2  0  0  3  0  0  0  0  0  0
  187.3170  176.5360  142.8620 C   0  0  0  0  0  1  0  0  0  0  0  0
  186.2180  177.8310  141.0470 C   0  0  0  0  0  0  0  0  0  0  0  0
  188.5300  178.2900  141.7480 C   0  0  0  0  0  1  0  0  0  0  0  0
  184.0740  178.5020  142.1880 C   0  0  2  0  0  3  0  0  0  0  0  0
  185.2060  180.0900  144.1980 F   0  0  0  0  0  0  0  0  0  0  0  0
  186.7000  177.4590  139.9390 O   0  0  0  0  0  0  0  0  0  0  0  0
  186.8170  178.9360  143.1940 O   0  0  0  0  0  0  0  0  0  0  0  0
  182.5850  178.2930  141.9560 C   0  0  0  0  0  2  0  0  0  0  0  0
  182.2440  178.2270  140.4890 C   0  0  0  0  0  1  0  0  0  0  0  0
  193.6120  175.9220  144.1120 C   0  0  0  0  0  2  0  0  0  0  0  0
  194.6510  175.0960  144.8430 C   0  0  0  0  0  2  0  0  0  0  0  0
  195.1070  173.9210  143.9670 C   0  0  2  0  0  3  0  0  0  0  0  0
  195.6000  171.6020  142.4740 C   0  0  0  0  0  2  0  0  0  0  0  0
  196.0240  169.0600  142.7030 C   0  0  0  0  0  2  0  0  0  0  0  0
  196.5620  170.5040  144.6800 C   0  0  2  0  0  3  0  0  0  0  0  0
  197.1160  169.5010  143.6730 C   0  0  0  0  0  2  0  0  0  0  0  0
  195.6060  170.2220  141.7860 C   0  0  0  0  0  2  0  0  0  0  0  0
  195.5990  171.5000  144.0190 C   0  0  2  0  0  0  0  0  0  0  0  0
  197.6360  171.1830  145.2700 O   0  0  0  0  0  1  0  0  0  0  0  0
  194.3380  171.6760  144.7510 C   0  0  1  0  0  3  0  0  0  0  0  0
  195.3880  172.7430  144.8090 N   0  0  0  0  0  0  0  0  0  0  0  0
  193.1080  172.0210  143.8920 C   0  0  0  0  0  2  0  0  0  0  0  0
  192.7120  169.7020  144.1950 F   0  0  0  0  0  0  0  0  0  0  0  0
  192.0850  170.8890  143.8740 C   0  0  2  0  0  3  0  0  0  0  0  0
  191.4670  170.7570  142.5030 C   0  0  0  0  0  2  0  0  0  0  0  0
  190.0790  170.8990  142.5900 O   0  0  0  0  0  1  0  0  0  0  0  0
  197.1550  175.2200  143.7430 C   0  0  0  0  0  2  0  0  0  0  0  0
  195.8440  174.8320  141.9000 C   0  0  0  0  0  2  0  0  0  0  0  0
  196.8600  175.8950  141.6090 C   0  0  1  0  0  3  0  0  0  0  0  0
  197.4390  176.2560  142.8310 O   0  0  0  0  0  0  0  0  0  0  0  0
  196.2820  174.2260  143.1300 N   0  0  0  0  0  0  0  0  0  0  0  0
  197.9410  175.3660  140.6690 C   0  0  0  0  0  2  0  0  0  0  0  0
  197.3700  174.6500  139.4830 C   0  0  0  0  0  0  0  0  0  0  0  0
  197.6360  173.2950  139.3040 O   0  0  0  0  0  1  0  0  0  0  0  0
  196.6530  175.2530  138.6380 O   0  0  0  0  0  0  0  0  0  0  0  0
  1  5  1  0  0  0  0
  2  7  1  1  0  0  0
  2  3  1  0  0  0  0
  4  1  1  0  0  0  0
  5 30  1  6  0  0  0
  5  3  1  0  0  0  0
  6  4  1  0  0  0  0
  6  2  1  0  0  0  0
  7  8  1  0  0  0  0
  9  8  1  0  0  0  0
  9 10  1  0  0  0  0
 10 11  1  6  0  0  0
 12 10  1  0  0  0  0
 14 12  1  0  0  0  0
 14 13  1  1  0  0  0
 14 15  1  0  0  0  0
 16 21  1  0  0  0  0
 16 27  1  0  0  0  0
 17 24  1  0  0  0  0
 18 25  1  1  0  0  0
 18 14  1  0  0  0  0
 20 19  1  6  0  0  0
 20 18  1  0  0  0  0
 22 17  1  0  0  0  0
 22 16  1  0  0  0  0
 23 16  1  0  0  0  0
 24 28  1  6  0  0  0
 24 20  1  0  0  0  0
 26 22  2  0  0  0  0
 27 18  1  0  0  0  0
 29 28  1  0  0  0  0
 30 31  1  0  0  0  0
 32 41  1  0  0  0  0
 32 31  1  1  0  0  0
 34 36  1  0  0  0  0
 35 39  1  6  0  0  0
 36 35  1  0  0  0  0
 37 33  1  0  0  0  0
 37 34  1  0  0  0  0
 38 33  1  6  0  0  0
 38 35  1  0  0  0  0
 38 40  1  0  0  0  0
 38 41  1  0  0  0  0
 40 42  1  6  0  0  0
 40 41  1  0  0  0  0
 44 42  1  0  0  0  0
 44 43  1  6  0  0  0
 45 46  1  0  0  0  0
 45 44  1  0  0  0  0
 48 51  1  0  0  0  0
 49 52  1  6  0  0  0
 49 48  1  0  0  0  0
 49 50  1  0  0  0  0
 50 47  1  0  0  0  0
 51 47  1  0  0  0  0
 51 32  1  0  0  0  0
 53 52  1  0  0  0  0
 54 53  1  0  0  0  0
 55 53  2  0  0  0  0
M  END
>  <MODEL>
3

>  <REMARK>
 VINA RESULT:      -6.4      3.767      7.245
  Name = 
  18 active torsions:
  status: ('A' for Active; 'I' for Inactive)
    1  A    between atoms: C_2  and  C_28
    2  A    between atoms: C_2  and  C_44
    3  A    between atoms: C_4  and  C_40
    4  A    between atoms: C_6  and  C_20
    5  A    between atoms: C_8  and  O_22
    6  A    between atoms: C_8  and  C_35
    7  A    between atoms: C_10  and  C_32
    8  A    between atoms: C_11  and  C_38
    9  A    between atoms: C_19  and  C_40
   10  A    between atoms: C_19  and  C_45
   11  A    between atoms: C_20  and  O_22
   12  A    between atoms: C_27  and  C_54
   13  A    between atoms: C_28  and  C_33
   14  A    between atoms: C_32  and  C_39
   15  A    between atoms: C_33  and  N_49
   16  A    between atoms: C_33  and  N_52
   17  A    between atoms: C_35  and  C_51
   18  A    between atoms: C_51  and  C_54
                            x       y       z     vdW  Elec       q    Type
                         _______ _______ _______ _____ _____    ______ ____

>  <TORSDO>
F 18

$$$$
=
 OpenBabel11052419483D

 55 59  0  0  1  0  0  0  0  0999 V2000
  192.1640  170.8260  143.1980 C   0  0  0  0  0  2  0  0  0  0  0  0
  190.0630  172.4820  142.0430 C   0  0  2  0  0  3  0  0  0  0  0  0
  190.4030  171.1170  141.4120 C   0  0  0  0  0  2  0  0  0  0  0  0
  191.3630  171.9460  143.8690 C   0  0  0  0  0  2  0  0  0  0  0  0
  191.8410  170.6860  141.7100 C   0  0  1  0  0  3  0  0  0  0  0  0
  191.0380  172.9670  142.9450 O   0  0  0  0  0  0  0  0  0  0  0  0
  188.6810  172.4820  142.6720 C   0  0  0  0  0  2  0  0  0  0  0  0
  187.7950  173.4860  141.9390 C   0  0  0  0  0  2  0  0  0  0  0  0
  188.6100  174.2410  140.9130 C   0  0  0  0  0  2  0  0  0  0  0  0
  188.5130  175.7450  141.1280 C   0  0  1  0  0  3  0  0  0  0  0  0
  187.2940  176.2800  140.3950 C   0  0  0  0  0  1  0  0  0  0  0  0
  188.3810  176.0030  142.5020 O   0  0  0  0  0  0  0  0  0  0  0  0
  190.7780  176.4580  142.6210 C   0  0  0  0  0  1  0  0  0  0  0  0
  189.3640  176.9220  142.9710 C   0  0  1  0  0  0  0  0  0  0  0  0
  189.1520  178.1090  142.2760 O   0  0  0  0  0  1  0  0  0  0  0  0
  186.9190  177.6440  145.2770 C   0  0  0  0  0  0  0  0  0  0  0  0
  187.9090  176.3840  147.3080 O   0  0  0  0  0  0  0  0  0  0  0  0
  189.2430  177.1850  144.5090 C   0  0  1  0  0  0  0  0  0  0  0  0
  188.3100  174.9520  144.9310 F   0  0  0  0  0  0  0  0  0  0  0  0
  189.2560  175.8820  145.3170 C   0  0  2  0  0  3  0  0  0  0  0  0
  186.2610  176.6130  144.3800 C   0  0  0  0  0  1  0  0  0  0  0  0
  186.9000  177.1550  146.7200 C   0  0  0  0  0  0  0  0  0  0  0  0
  186.0160  178.8650  145.1910 C   0  0  0  0  0  1  0  0  0  0  0  0
  189.2220  176.1810  146.8050 C   0  0  2  0  0  3  0  0  0  0  0  0
  190.3940  177.8510  144.8870 F   0  0  0  0  0  0  0  0  0  0  0  0
  185.8450  177.3130  147.3990 O   0  0  0  0  0  0  0  0  0  0  0  0
  188.1880  178.1020  144.8150 O   0  0  0  0  0  0  0  0  0  0  0  0
  189.9470  175.1170  147.6170 C   0  0  0  0  0  2  0  0  0  0  0  0
  191.3980  175.4640  147.8380 C   0  0  0  0  0  1  0  0  0  0  0  0
  192.8490  171.4710  140.8920 C   0  0  0  0  0  2  0  0  0  0  0  0
  194.2400  170.8930  141.0570 C   0  0  0  0  0  2  0  0  0  0  0  0
  195.2700  172.0210  141.2010 C   0  0  2  0  0  3  0  0  0  0  0  0
  197.0190  173.9830  142.1750 C   0  0  0  0  0  2  0  0  0  0  0  0
  197.0820  176.3670  143.1780 C   0  0  0  0  0  2  0  0  0  0  0  0
  195.0970  175.7550  141.7750 C   0  0  2  0  0  3  0  0  0  0  0  0
  196.2630  176.7260  141.9420 C   0  0  0  0  0  2  0  0  0  0  0  0
  197.8160  175.0310  142.9780 C   0  0  0  0  0  2  0  0  0  0  0  0
  195.5080  174.3130  142.0970 C   0  0  2  0  0  0  0  0  0  0  0  0
  194.6280  175.8460  140.4580 O   0  0  0  0  0  1  0  0  0  0  0  0
  194.5730  173.6180  142.9930 C   0  0  1  0  0  3  0  0  0  0  0  0
  194.5890  173.2870  141.5310 N   0  0  0  0  0  0  0  0  0  0  0  0
  195.1930  172.5480  143.9090 C   0  0  0  0  0  2  0  0  0  0  0  0
  195.0750  174.3750  145.4160 F   0  0  0  0  0  0  0  0  0  0  0  0
  195.2710  173.0100  145.3600 C   0  0  2  0  0  3  0  0  0  0  0  0
  196.6260  172.6900  145.9440 C   0  0  0  0  0  2  0  0  0  0  0  0
  197.2750  173.8700  146.3150 O   0  0  0  0  0  1  0  0  0  0  0  0
  195.3670  172.7390  138.8760 C   0  0  0  0  0  2  0  0  0  0  0  0
  196.5960  170.9270  139.5620 C   0  0  0  0  0  2  0  0  0  0  0  0
  196.5520  170.9970  138.0650 C   0  0  1  0  0  3  0  0  0  0  0  0
  195.5890  171.9540  137.7260 O   0  0  0  0  0  0  0  0  0  0  0  0
  196.1160  172.2080  140.0080 N   0  0  0  0  0  0  0  0  0  0  0  0
  197.9090  171.4180  137.5040 C   0  0  0  0  0  2  0  0  0  0  0  0
  197.7980  172.0460  136.1480 C   0  0  0  0  0  0  0  0  0  0  0  0
  197.9400  173.4250  136.0160 O   0  0  0  0  0  1  0  0  0  0  0  0
  197.5730  171.3490  135.1200 O   0  0  0  0  0  0  0  0  0  0  0  0
  1  4  1  0  0  0  0
  2  7  1  1  0  0  0
  2  6  1  0  0  0  0
  3  5  1  0  0  0  0
  3  2  1  0  0  0  0
  5 30  1  6  0  0  0
  5  1  1  0  0  0  0
  6  4  1  0  0  0  0
  8  7  1  0  0  0  0
  9 10  1  0  0  0  0
  9  8  1  0  0  0  0
 10 11  1  6  0  0  0
 10 12  1  0  0  0  0
 12 14  1  0  0  0  0
 14 13  1  6  0  0  0
 14 18  1  0  0  0  0
 15 14  1  0  0  0  0
 16 22  1  0  0  0  0
 18 27  1  0  0  0  0
 18 25  1  1  0  0  0
 18 20  1  0  0  0  0
 20 19  1  6  0  0  0
 20 24  1  0  0  0  0
 21 16  1  0  0  0  0
 22 17  1  0  0  0  0
 22 26  2  0  0  0  0
 23 16  1  0  0  0  0
 24 17  1  0  0  0  0
 24 28  1  1  0  0  0
 27 16  1  0  0  0  0
 28 29  1  0  0  0  0
 30 31  1  0  0  0  0
 32 31  1  6  0  0  0
 32 41  1  0  0  0  0
 33 37  1  0  0  0  0
 35 39  1  6  0  0  0
 35 36  1  0  0  0  0
 35 38  1  0  0  0  0
 36 34  1  0  0  0  0
 37 34  1  0  0  0  0
 38 33  1  1  0  0  0
 38 40  1  0  0  0  0
 40 42  1  1  0  0  0
 41 38  1  0  0  0  0
 41 40  1  0  0  0  0
 42 44  1  0  0  0  0
 44 43  1  6  0  0  0
 44 45  1  0  0  0  0
 45 46  1  0  0  0  0
 47 51  1  0  0  0  0
 48 51  1  0  0  0  0
 49 52  1  1  0  0  0
 49 48  1  0  0  0  0
 50 49  1  0  0  0  0
 50 47  1  0  0  0  0
 51 32  1  0  0  0  0
 53 52  1  0  0  0  0
 54 53  1  0  0  0  0
 55 53  2  0  0  0  0
M  END
>  <MODEL>
4

>  <REMARK>
 VINA RESULT:      -6.3      3.352      7.254
  Name = 
  18 active torsions:
  status: ('A' for Active; 'I' for Inactive)
    1  A    between atoms: C_2  and  C_28
    2  A    between atoms: C_2  and  C_44
    3  A    between atoms: C_4  and  C_40
    4  A    between atoms: C_6  and  C_20
    5  A    between atoms: C_8  and  O_22
    6  A    between atoms: C_8  and  C_35
    7  A    between atoms: C_10  and  C_32
    8  A    between atoms: C_11  and  C_38
    9  A    between atoms: C_19  and  C_40
   10  A    between atoms: C_19  and  C_45
   11  A    between atoms: C_20  and  O_22
   12  A    between atoms: C_27  and  C_54
   13  A    between atoms: C_28  and  C_33
   14  A    between atoms: C_32  and  C_39
   15  A    between atoms: C_33  and  N_49
   16  A    between atoms: C_33  and  N_52
   17  A    between atoms: C_35  and  C_51
   18  A    between atoms: C_51  and  C_54
                            x       y       z     vdW  Elec       q    Type
                         _______ _______ _______ _____ _____    ______ ____

>  <TORSDO>
F 18

$$$$
=
 OpenBabel11052419483D

 55 59  0  0  1  0  0  0  0  0999 V2000
  192.0390  171.6670  142.8760 C   0  0  0  0  0  2  0  0  0  0  0  0
  190.5340  173.8220  144.1350 C   0  0  2  0  0  3  0  0  0  0  0  0
  189.9300  173.0530  142.9430 C   0  0  0  0  0  2  0  0  0  0  0  0
  192.2080  172.2440  144.2860 C   0  0  0  0  0  2  0  0  0  0  0  0
  191.0080  172.4360  142.0490 C   0  0  1  0  0  3  0  0  0  0  0  0
  191.9240  173.6300  144.3090 O   0  0  0  0  0  0  0  0  0  0  0  0
  189.7750  173.5490  145.4220 C   0  0  0  0  0  2  0  0  0  0  0  0
  190.1950  174.5680  146.4780 C   0  0  0  0  0  2  0  0  0  0  0  0
  188.9800  175.0600  147.2330 C   0  0  0  0  0  2  0  0  0  0  0  0
  188.5960  176.4690  146.8040 C   0  0  1  0  0  3  0  0  0  0  0  0
  189.8240  177.1790  146.2550 C   0  0  0  0  0  1  0  0  0  0  0  0
  187.6150  176.3920  145.8020 O   0  0  0  0  0  0  0  0  0  0  0  0
  185.2900  176.7650  146.4490 C   0  0  0  0  0  1  0  0  0  0  0  0
  186.6030  177.3810  145.9650 C   0  0  1  0  0  0  0  0  0  0  0  0
  187.0430  178.2250  146.9800 O   0  0  0  0  0  1  0  0  0  0  0  0
  187.9070  177.6150  142.7940 C   0  0  0  0  0  0  0  0  0  0  0  0
  185.7380  178.2130  141.5190 O   0  0  0  0  0  0  0  0  0  0  0  0
  186.3680  178.2080  144.6590 C   0  0  1  0  0  0  0  0  0  0  0  0
  185.2440  176.3330  143.5390 F   0  0  0  0  0  0  0  0  0  0  0  0
  185.1790  177.6780  143.8490 C   0  0  2  0  0  3  0  0  0  0  0  0
  187.8850  176.1210  143.0530 C   0  0  0  0  0  1  0  0  0  0  0  0
  187.1070  177.9290  141.5350 C   0  0  0  0  0  0  0  0  0  0  0  0
  189.3670  177.9360  142.5060 C   0  0  0  0  0  1  0  0  0  0  0  0
  184.9290  178.5560  142.6350 C   0  0  2  0  0  3  0  0  0  0  0  0
  185.9900  179.4770  145.0580 F   0  0  0  0  0  0  0  0  0  0  0  0
  187.6650  177.7780  140.4110 O   0  0  0  0  0  0  0  0  0  0  0  0
  187.5810  178.4160  143.9290 O   0  0  0  0  0  0  0  0  0  0  0  0
  183.4590  178.5820  142.2430 C   0  0  0  0  0  2  0  0  0  0  0  0
  183.2610  178.3240  140.7710 C   0  0  0  0  0  1  0  0  0  0  0  0
  191.7080  173.4790  141.2000 C   0  0  0  0  0  2  0  0  0  0  0  0
  193.1670  173.1210  141.0030 C   0  0  0  0  0  2  0  0  0  0  0  0
  193.9720  174.3670  140.6100 C   0  0  2  0  0  3  0  0  0  0  0  0
  194.5770  175.2300  138.0140 C   0  0  0  0  0  2  0  0  0  0  0  0
  196.3830  175.0840  136.1670 C   0  0  0  0  0  2  0  0  0  0  0  0
  197.1140  174.6910  138.5310 C   0  0  2  0  0  3  0  0  0  0  0  0
  197.3190  175.5410  137.2810 C   0  0  0  0  0  2  0  0  0  0  0  0
  194.9190  175.3980  136.5200 C   0  0  0  0  0  2  0  0  0  0  0  0
  195.6300  174.3900  138.7770 C   0  0  2  0  0  0  0  0  0  0  0  0
  197.6620  175.3710  139.6270 O   0  0  0  0  0  1  0  0  0  0  0  0
  195.3530  172.9750  139.0610 C   0  0  1  0  0  3  0  0  0  0  0  0
  195.3260  173.9770  140.1750 N   0  0  0  0  0  0  0  0  0  0  0  0
  193.9720  172.4610  138.6150 C   0  0  0  0  0  2  0  0  0  0  0  0
  194.3440  171.8910  136.3430 F   0  0  0  0  0  0  0  0  0  0  0  0
  194.0820  171.3430  137.5830 C   0  0  2  0  0  3  0  0  0  0  0  0
  192.7900  170.5650  137.5070 C   0  0  0  0  0  2  0  0  0  0  0  0
  192.6240  169.8050  138.6680 O   0  0  0  0  0  1  0  0  0  0  0  0
  194.9700  176.4650  141.3390 C   0  0  0  0  0  2  0  0  0  0  0  0
  194.6450  174.7720  142.8520 C   0  0  0  0  0  2  0  0  0  0  0  0
  195.5440  175.8250  143.4270 C   0  0  1  0  0  3  0  0  0  0  0  0
  195.9000  176.6790  142.3760 O   0  0  0  0  0  0  0  0  0  0  0  0
  194.0650  175.3750  141.6820 N   0  0  0  0  0  0  0  0  0  0  0  0
  194.8170  176.6240  144.5080 C   0  0  0  0  0  2  0  0  0  0  0  0
  194.8950  175.9690  145.8530 C   0  0  0  0  0  0  0  0  0  0  0  0
  194.0760  176.4200  146.8850 O   0  0  0  0  0  1  0  0  0  0  0  0
  195.6930  175.0160  146.0720 O   0  0  0  0  0  0  0  0  0  0  0  0
  1  4  1  0  0  0  0
  2  6  1  0  0  0  0
  2  7  1  1  0  0  0
  3  2  1  0  0  0  0
  4  6  1  0  0  0  0
  5 30  1  1  0  0  0
  5  1  1  0  0  0  0
  5  3  1  0  0  0  0
  7  8  1  0  0  0  0
  8  9  1  0  0  0  0
 10 11  1  6  0  0  0
 10  9  1  0  0  0  0
 12 14  1  0  0  0  0
 12 10  1  0  0  0  0
 14 13  1  1  0  0  0
 14 15  1  0  0  0  0
 16 21  1  0  0  0  0
 16 27  1  0  0  0  0
 17 22  1  0  0  0  0
 17 24  1  0  0  0  0
 18 25  1  1  0  0  0
 18 14  1  0  0  0  0
 20 19  1  6  0  0  0
 20 18  1  0  0  0  0
 22 16  1  0  0  0  0
 23 16  1  0  0  0  0
 24 28  1  6  0  0  0
 24 20  1  0  0  0  0
 26 22  2  0  0  0  0
 27 18  1  0  0  0  0
 29 28  1  0  0  0  0
 31 30  1  0  0  0  0
 32 31  1  1  0  0  0
 32 51  1  0  0  0  0
 34 37  1  0  0  0  0
 34 36  1  0  0  0  0
 35 38  1  0  0  0  0
 35 39  1  1  0  0  0
 36 35  1  0  0  0  0
 37 33  1  0  0  0  0
 38 33  1  6  0  0  0
 38 40  1  0  0  0  0
 38 41  1  0  0  0  0
 40 42  1  6  0  0  0
 40 41  1  0  0  0  0
 41 32  1  0  0  0  0
 44 43  1  6  0  0  0
 44 42  1  0  0  0  0
 45 44  1  0  0  0  0
 45 46  1  0  0  0  0
 47 51  1  0  0  0  0
 47 50  1  0  0  0  0
 48 49  1  0  0  0  0
 49 52  1  1  0  0  0
 50 49  1  0  0  0  0
 51 48  1  0  0  0  0
 52 53  1  0  0  0  0
 53 55  2  0  0  0  0
 53 54  1  0  0  0  0
M  END
>  <MODEL>
5

>  <REMARK>
 VINA RESULT:      -6.2      2.934      6.179
  Name = 
  18 active torsions:
  status: ('A' for Active; 'I' for Inactive)
    1  A    between atoms: C_2  and  C_28
    2  A    between atoms: C_2  and  C_44
    3  A    between atoms: C_4  and  C_40
    4  A    between atoms: C_6  and  C_20
    5  A    between atoms: C_8  and  O_22
    6  A    between atoms: C_8  and  C_35
    7  A    between atoms: C_10  and  C_32
    8  A    between atoms: C_11  and  C_38
    9  A    between atoms: C_19  and  C_40
   10  A    between atoms: C_19  and  C_45
   11  A    between atoms: C_20  and  O_22
   12  A    between atoms: C_27  and  C_54
   13  A    between atoms: C_28  and  C_33
   14  A    between atoms: C_32  and  C_39
   15  A    between atoms: C_33  and  N_49
   16  A    between atoms: C_33  and  N_52
   17  A    between atoms: C_35  and  C_51
   18  A    between atoms: C_51  and  C_54
                            x       y       z     vdW  Elec       q    Type
                         _______ _______ _______ _____ _____    ______ ____

>  <TORSDO>
F 18

$$$$
=
 OpenBabel11052419483D

 55 59  0  0  1  0  0  0  0  0999 V2000
  189.0060  173.1250  141.0830 C   0  0  0  0  0  2  0  0  0  0  0  0
  190.8790  172.0380  143.0340 C   0  0  2  0  0  3  0  0  0  0  0  0
  191.2940  173.2290  142.1460 C   0  0  0  0  0  2  0  0  0  0  0  0
  188.6980  172.2960  142.3340 C   0  0  0  0  0  2  0  0  0  0  0  0
  190.5080  173.2720  140.8340 C   0  0  1  0  0  3  0  0  0  0  0  0
  189.7230  171.3550  142.5900 O   0  0  0  0  0  0  0  0  0  0  0  0
  190.7550  172.4410  144.4930 C   0  0  0  0  0  2  0  0  0  0  0  0
  191.8900  173.3980  144.8480 C   0  0  0  0  0  2  0  0  0  0  0  0
  191.4940  174.2550  146.0300 C   0  0  0  0  0  2  0  0  0  0  0  0
  190.0800  174.7960  145.8700 C   0  0  1  0  0  3  0  0  0  0  0  0
  189.3640  174.7330  147.2100 C   0  0  0  0  0  1  0  0  0  0  0  0
  190.1460  176.1320  145.4400 O   0  0  0  0  0  0  0  0  0  0  0  0
  190.5010  176.4920  143.0500 C   0  0  0  0  0  1  0  0  0  0  0  0
  189.4940  176.3240  144.1880 C   0  0  1  0  0  0  0  0  0  0  0  0
  188.7940  175.1500  143.9280 O   0  0  0  0  0  1  0  0  0  0  0  0
  186.8590  177.5400  142.3460 C   0  0  0  0  0  0  0  0  0  0  0  0
  185.4670  178.5580  144.2740 O   0  0  0  0  0  0  0  0  0  0  0  0
  188.5000  177.5320  144.2180 C   0  0  1  0  0  0  0  0  0  0  0  0
  186.6540  176.1390  145.0460 F   0  0  0  0  0  0  0  0  0  0  0  0
  187.3600  177.3130  145.2200 C   0  0  2  0  0  3  0  0  0  0  0  0
  186.6180  176.0420  142.3540 C   0  0  0  0  0  1  0  0  0  0  0  0
  185.6420  178.2570  142.9190 C   0  0  0  0  0  0  0  0  0  0  0  0
  186.9610  177.9070  140.8730 C   0  0  0  0  0  1  0  0  0  0  0  0
  186.4670  178.5400  145.2830 C   0  0  2  0  0  3  0  0  0  0  0  0
  189.2070  178.6120  144.7130 F   0  0  0  0  0  0  0  0  0  0  0  0
  184.6500  178.4640  142.1630 O   0  0  0  0  0  0  0  0  0  0  0  0
  188.1100  177.9390  142.9030 O   0  0  0  0  0  0  0  0  0  0  0  0
  185.8420  178.7200  146.6590 C   0  0  0  0  0  2  0  0  0  0  0  0
  186.1810  177.5810  147.5880 C   0  0  0  0  0  1  0  0  0  0  0  0
  190.9710  172.2050  139.8600 C   0  0  0  0  0  2  0  0  0  0  0  0
  192.4810  172.2210  139.7250 C   0  0  0  0  0  2  0  0  0  0  0  0
  192.9250  173.4090  138.8620 C   0  0  2  0  0  3  0  0  0  0  0  0
  193.3350  175.5360  137.0840 C   0  0  0  0  0  2  0  0  0  0  0  0
  193.6800  176.0850  134.5790 C   0  0  0  0  0  2  0  0  0  0  0  0
  194.2750  173.7750  135.3490 C   0  0  2  0  0  3  0  0  0  0  0  0
  194.7910  175.0450  134.6780 C   0  0  0  0  0  2  0  0  0  0  0  0
  193.2940  176.6050  135.9740 C   0  0  0  0  0  2  0  0  0  0  0  0
  193.3410  174.0930  136.5240 C   0  0  2  0  0  0  0  0  0  0  0  0
  195.3740  173.0250  135.7880 O   0  0  0  0  0  1  0  0  0  0  0  0
  192.0900  173.3220  136.5080 C   0  0  1  0  0  3  0  0  0  0  0  0
  193.1740  172.9630  137.4780 N   0  0  0  0  0  0  0  0  0  0  0  0
  190.8660  174.0200  137.1290 C   0  0  0  0  0  2  0  0  0  0  0  0
  188.7530  172.9900  137.4480 F   0  0  0  0  0  0  0  0  0  0  0  0
  189.5590  173.5660  136.4860 C   0  0  2  0  0  3  0  0  0  0  0  0
  189.8290  172.5470  135.4050 C   0  0  0  0  0  2  0  0  0  0  0  0
  189.2700  171.3160  135.7610 O   0  0  0  0  0  1  0  0  0  0  0  0
  195.2340  173.2010  139.6070 C   0  0  0  0  0  2  0  0  0  0  0  0
  193.8170  174.6520  140.6800 C   0  0  0  0  0  2  0  0  0  0  0  0
  195.0670  174.4480  141.4820 C   0  0  1  0  0  3  0  0  0  0  0  0
  195.7540  173.3730  140.9050 O   0  0  0  0  0  0  0  0  0  0  0  0
  194.1150  174.1080  139.3810 N   0  0  0  0  0  0  0  0  0  0  0  0
  195.9460  175.6960  141.4380 C   0  0  0  0  0  2  0  0  0  0  0  0
  196.2510  176.2300  142.8050 C   0  0  0  0  0  0  0  0  0  0  0  0
  195.5390  175.7540  143.9030 O   0  0  0  0  0  1  0  0  0  0  0  0
  197.1390  177.1090  142.9810 O   0  0  0  0  0  0  0  0  0  0  0  0
  1  4  1  0  0  0  0
  2  7  1  1  0  0  0
  3  2  1  0  0  0  0
  4  6  1  0  0  0  0
  5 30  1  6  0  0  0
  5  1  1  0  0  0  0
  5  3  1  0  0  0  0
  6  2  1  0  0  0  0
  7  8  1  0  0  0  0
  8  9  1  0  0  0  0
 10  9  1  0  0  0  0
 10 11  1  1  0  0  0
 12 10  1  0  0  0  0
 14 13  1  6  0  0  0
 14 18  1  0  0  0  0
 14 12  1  0  0  0  0
 15 14  1  0  0  0  0
 16 21  1  0  0  0  0
 16 27  1  0  0  0  0
 16 22  1  0  0  0  0
 17 24  1  0  0  0  0
 18 25  1  1  0  0  0
 18 20  1  0  0  0  0
 20 19  1  6  0  0  0
 20 24  1  0  0  0  0
 22 17  1  0  0  0  0
 23 16  1  0  0  0  0
 24 28  1  1  0  0  0
 26 22  2  0  0  0  0
 27 18  1  0  0  0  0
 28 29  1  0  0  0  0
 31 30  1  0  0  0  0
 32 51  1  0  0  0  0
 32 31  1  1  0  0  0
 34 36  1  0  0  0  0
 34 37  1  0  0  0  0
 35 39  1  1  0  0  0
 35 38  1  0  0  0  0
 36 35  1  0  0  0  0
 37 33  1  0  0  0  0
 38 33  1  1  0  0  0
 38 41  1  0  0  0  0
 40 38  1  0  0  0  0
 40 42  1  1  0  0  0
 40 41  1  0  0  0  0
 41 32  1  0  0  0  0
 44 42  1  0  0  0  0
 44 43  1  1  0  0  0
 45 46  1  0  0  0  0
 45 44  1  0  0  0  0
 47 50  1  0  0  0  0
 48 49  1  0  0  0  0
 49 52  1  6  0  0  0
 50 49  1  0  0  0  0
 51 47  1  0  0  0  0
 51 48  1  0  0  0  0
 52 53  1  0  0  0  0
 53 55  2  0  0  0  0
 53 54  1  0  0  0  0
M  END
>  <MODEL>
6

>  <REMARK>
 VINA RESULT:      -6.2      2.744      5.624
  Name = 
  18 active torsions:
  status: ('A' for Active; 'I' for Inactive)
    1  A    between atoms: C_2  and  C_28
    2  A    between atoms: C_2  and  C_44
    3  A    between atoms: C_4  and  C_40
    4  A    between atoms: C_6  and  C_20
    5  A    between atoms: C_8  and  O_22
    6  A    between atoms: C_8  and  C_35
    7  A    between atoms: C_10  and  C_32
    8  A    between atoms: C_11  and  C_38
    9  A    between atoms: C_19  and  C_40
   10  A    between atoms: C_19  and  C_45
   11  A    between atoms: C_20  and  O_22
   12  A    between atoms: C_27  and  C_54
   13  A    between atoms: C_28  and  C_33
   14  A    between atoms: C_32  and  C_39
   15  A    between atoms: C_33  and  N_49
   16  A    between atoms: C_33  and  N_52
   17  A    between atoms: C_35  and  C_51
   18  A    between atoms: C_51  and  C_54
                            x       y       z     vdW  Elec       q    Type
                         _______ _______ _______ _____ _____    ______ ____

>  <TORSDO>
F 18

$$$$
=
 OpenBabel11052419483D

 55 59  0  0  1  0  0  0  0  0999 V2000
  192.1030  171.4070  142.9760 C   0  0  0  0  0  2  0  0  0  0  0  0
  190.5360  173.6040  144.0760 C   0  0  2  0  0  3  0  0  0  0  0  0
  189.9080  172.6540  143.0370 C   0  0  0  0  0  2  0  0  0  0  0  0
  192.3270  172.1680  144.2870 C   0  0  0  0  0  2  0  0  0  0  0  0
  190.9640  171.9980  142.1440 C   0  0  1  0  0  3  0  0  0  0  0  0
  191.9460  173.5250  144.1630 O   0  0  0  0  0  0  0  0  0  0  0  0
  189.8900  173.4490  145.4420 C   0  0  0  0  0  2  0  0  0  0  0  0
  190.2260  174.6680  146.2970 C   0  0  0  0  0  2  0  0  0  0  0  0
  189.0780  174.9730  147.2340 C   0  0  0  0  0  2  0  0  0  0  0  0
  188.5120  176.3640  146.9810 C   0  0  1  0  0  3  0  0  0  0  0  0
  189.6320  177.2870  146.5280 C   0  0  0  0  0  1  0  0  0  0  0  0
  187.5370  176.2850  145.9730 O   0  0  0  0  0  0  0  0  0  0  0  0
  185.1890  176.6620  146.5280 C   0  0  0  0  0  1  0  0  0  0  0  0
  186.5280  177.2790  146.1250 C   0  0  1  0  0  0  0  0  0  0  0  0
  186.9300  178.0840  147.1870 O   0  0  0  0  0  1  0  0  0  0  0  0
  187.9630  177.5930  143.0180 C   0  0  0  0  0  0  0  0  0  0  0  0
  185.8570  178.2710  141.6780 O   0  0  0  0  0  0  0  0  0  0  0  0
  186.3600  178.1530  144.8390 C   0  0  1  0  0  0  0  0  0  0  0  0
  185.2500  176.3360  143.6140 F   0  0  0  0  0  0  0  0  0  0  0  0
  185.1950  177.6710  143.9650 C   0  0  2  0  0  3  0  0  0  0  0  0
  187.9040  176.0910  143.2260 C   0  0  0  0  0  1  0  0  0  0  0  0
  187.2200  177.9620  141.7400 C   0  0  0  0  0  0  0  0  0  0  0  0
  189.4380  177.8960  142.7990 C   0  0  0  0  0  1  0  0  0  0  0  0
  185.0100  178.5930  142.7730 C   0  0  2  0  0  3  0  0  0  0  0  0
  185.9880  179.4150  145.2640 F   0  0  0  0  0  0  0  0  0  0  0  0
  187.8190  177.8370  140.6340 O   0  0  0  0  0  0  0  0  0  0  0  0
  187.6050  178.3610  144.1650 O   0  0  0  0  0  0  0  0  0  0  0  0
  183.5580  178.6590  142.3240 C   0  0  0  0  0  2  0  0  0  0  0  0
  183.3640  178.0810  140.9450 C   0  0  0  0  0  1  0  0  0  0  0  0
  191.5260  172.9680  141.1220 C   0  0  0  0  0  2  0  0  0  0  0  0
  192.8440  172.4630  140.5710 C   0  0  0  0  0  2  0  0  0  0  0  0
  193.3990  173.4500  139.5350 C   0  0  2  0  0  3  0  0  0  0  0  0
  193.6620  175.2490  137.4030 C   0  0  0  0  0  2  0  0  0  0  0  0
  193.8280  175.3710  134.8240 C   0  0  0  0  0  2  0  0  0  0  0  0
  194.5000  173.2220  135.9250 C   0  0  2  0  0  3  0  0  0  0  0  0
  194.9540  174.3610  135.0170 C   0  0  0  0  0  2  0  0  0  0  0  0
  193.5320  176.1170  136.1350 C   0  0  0  0  0  2  0  0  0  0  0  0
  193.6450  173.7320  137.0920 C   0  0  2  0  0  0  0  0  0  0  0  0
  195.6350  172.5550  136.4060 O   0  0  0  0  0  1  0  0  0  0  0  0
  192.4050  172.9710  137.2930 C   0  0  1  0  0  3  0  0  0  0  0  0
  193.5570  172.7780  138.2320 N   0  0  0  0  0  0  0  0  0  0  0  0
  191.2190  173.7630  137.8730 C   0  0  0  0  0  2  0  0  0  0  0  0
  188.9500  174.1750  137.3200 F   0  0  0  0  0  0  0  0  0  0  0  0
  189.8760  173.1630  137.4690 C   0  0  2  0  0  3  0  0  0  0  0  0
  189.3840  172.2080  138.5300 C   0  0  0  0  0  2  0  0  0  0  0  0
  188.1290  172.6150  138.9930 O   0  0  0  0  0  1  0  0  0  0  0  0
  195.8210  173.2180  139.6400 C   0  0  0  0  0  2  0  0  0  0  0  0
  194.6980  174.2360  141.3620 C   0  0  0  0  0  2  0  0  0  0  0  0
  196.1070  173.9190  141.7670 C   0  0  1  0  0  3  0  0  0  0  0  0
  196.6390  173.0820  140.7790 O   0  0  0  0  0  0  0  0  0  0  0  0
  194.6760  174.0710  139.9330 N   0  0  0  0  0  0  0  0  0  0  0  0
  196.9430  175.1940  141.8590 C   0  0  0  0  0  2  0  0  0  0  0  0
  196.9500  175.7750  143.2400 C   0  0  0  0  0  0  0  0  0  0  0  0
  196.8170  177.1520  143.4070 O   0  0  0  0  0  0  0  0  0  0  0  0
  197.0800  175.0420  144.2580 O   0  0  0  0  0  1  0  0  0  0  0  0
  1  4  1  0  0  0  0
  2  6  1  0  0  0  0
  2  7  1  1  0  0  0
  3  2  1  0  0  0  0
  5 30  1  6  0  0  0
  5  1  1  0  0  0  0
  5  3  1  0  0  0  0
  6  4  1  0  0  0  0
  7  8  1  0  0  0  0
  8  9  1  0  0  0  0
 10 11  1  6  0  0  0
 10  9  1  0  0  0  0
 12 14  1  0  0  0  0
 12 10  1  0  0  0  0
 14 13  1  1  0  0  0
 14 15  1  0  0  0  0
 16 21  1  0  0  0  0
 16 27  1  0  0  0  0
 17 22  1  0  0  0  0
 17 24  1  0  0  0  0
 18 25  1  1  0  0  0
 18 14  1  0  0  0  0
 20 19  1  6  0  0  0
 20 18  1  0  0  0  0
 22 16  1  0  0  0  0
 23 16  1  0  0  0  0
 24 28  1  6  0  0  0
 24 20  1  0  0  0  0
 26 22  2  0  0  0  0
 27 18  1  0  0  0  0
 29 28  1  0  0  0  0
 31 30  1  0  0  0  0
 32 51  1  0  0  0  0
 32 31  1  1  0  0  0
 34 36  1  0  0  0  0
 34 37  1  0  0  0  0
 35 39  1  1  0  0  0
 35 38  1  0  0  0  0
 36 35  1  0  0  0  0
 37 33  1  0  0  0  0
 38 40  1  0  0  0  0
 38 33  1  1  0  0  0
 38 41  1  0  0  0  0
 40 42  1  1  0  0  0
 40 41  1  0  0  0  0
 41 32  1  0  0  0  0
 44 43  1  1  0  0  0
 44 42  1  0  0  0  0
 44 45  1  0  0  0  0
 45 46  1  0  0  0  0
 47 51  1  0  0  0  0
 47 50  1  0  0  0  0
 48 49  1  0  0  0  0
 49 52  1  6  0  0  0
 50 49  1  0  0  0  0
 51 48  1  0  0  0  0
 52 53  1  0  0  0  0
 53 54  2  0  0  0  0
 53 55  1  0  0  0  0
M  END
>  <MODEL>
7

>  <REMARK>
 VINA RESULT:      -6.1      2.772      5.541
  Name = 
  18 active torsions:
  status: ('A' for Active; 'I' for Inactive)
    1  A    between atoms: C_2  and  C_28
    2  A    between atoms: C_2  and  C_44
    3  A    between atoms: C_4  and  C_40
    4  A    between atoms: C_6  and  C_20
    5  A    between atoms: C_8  and  O_22
    6  A    between atoms: C_8  and  C_35
    7  A    between atoms: C_10  and  C_32
    8  A    between atoms: C_11  and  C_38
    9  A    between atoms: C_19  and  C_40
   10  A    between atoms: C_19  and  C_45
   11  A    between atoms: C_20  and  O_22
   12  A    between atoms: C_27  and  C_54
   13  A    between atoms: C_28  and  C_33
   14  A    between atoms: C_32  and  C_39
   15  A    between atoms: C_33  and  N_49
   16  A    between atoms: C_33  and  N_52
   17  A    between atoms: C_35  and  C_51
   18  A    between atoms: C_51  and  C_54
                            x       y       z     vdW  Elec       q    Type
                         _______ _______ _______ _____ _____    ______ ____

>  <TORSDO>
F 18

$$$$
=
 OpenBabel11052419483D

 55 59  0  0  1  0  0  0  0  0999 V2000
  193.9010  171.9770  144.1970 C   0  0  0  0  0  2  0  0  0  0  0  0
  195.4460  174.3560  144.8680 C   0  0  2  0  0  3  0  0  0  0  0  0
  194.3220  174.4370  143.8140 C   0  0  0  0  0  2  0  0  0  0  0  0
  194.7120  172.2550  145.4670 C   0  0  0  0  0  2  0  0  0  0  0  0
  194.0530  173.0840  143.1520 C   0  0  1  0  0  3  0  0  0  0  0  0
  195.8550  173.0400  145.1840 O   0  0  0  0  0  0  0  0  0  0  0  0
  195.1000  175.1420  146.1200 C   0  0  0  0  0  2  0  0  0  0  0  0
  193.7470  175.8220  145.9280 C   0  0  0  0  0  2  0  0  0  0  0  0
  192.6490  174.9650  146.5180 C   0  0  0  0  0  2  0  0  0  0  0  0
  191.2880  175.6300  146.3690 C   0  0  1  0  0  3  0  0  0  0  0  0
  190.9860  176.4420  147.6190 C   0  0  0  0  0  1  0  0  0  0  0  0
  191.3150  176.4840  145.2540 O   0  0  0  0  0  0  0  0  0  0  0  0
  190.9760  175.8990  142.9070 C   0  0  0  0  0  1  0  0  0  0  0  0
  190.3400  176.1230  144.2790 C   0  0  1  0  0  0  0  0  0  0  0  0
  189.8220  174.8960  144.6810 O   0  0  0  0  0  1  0  0  0  0  0  0
  187.5340  176.6950  142.3790 C   0  0  0  0  0  0  0  0  0  0  0  0
  186.0380  177.7670  144.1970 O   0  0  0  0  0  0  0  0  0  0  0  0
  189.1860  177.1740  144.1790 C   0  0  1  0  0  0  0  0  0  0  0  0
  187.5680  175.6660  145.2490 F   0  0  0  0  0  0  0  0  0  0  0  0
  188.1020  176.9400  145.2390 C   0  0  2  0  0  3  0  0  0  0  0  0
  187.5090  175.1940  142.5970 C   0  0  0  0  0  1  0  0  0  0  0  0
  186.2360  177.3090  142.8900 C   0  0  0  0  0  0  0  0  0  0  0  0
  187.5620  176.8660  140.8670 C   0  0  0  0  0  1  0  0  0  0  0  0
  187.0450  178.0270  145.1660 C   0  0  2  0  0  3  0  0  0  0  0  0
  189.7390  178.4000  144.5000 F   0  0  0  0  0  0  0  0  0  0  0  0
  185.2140  177.2700  142.1460 O   0  0  0  0  0  0  0  0  0  0  0  0
  188.7230  177.3370  142.8350 O   0  0  0  0  0  0  0  0  0  0  0  0
  186.4200  178.3070  146.5240 C   0  0  0  0  0  2  0  0  0  0  0  0
  185.4250  177.2450  146.9200 C   0  0  0  0  0  1  0  0  0  0  0  0
  195.1420  172.7090  142.1650 C   0  0  0  0  0  2  0  0  0  0  0  0
  194.5730  171.8840  141.0270 C   0  0  0  0  0  2  0  0  0  0  0  0
  193.8790  172.7950  140.0060 C   0  0  2  0  0  3  0  0  0  0  0  0
  191.1740  173.4010  139.5900 C   0  0  0  0  0  2  0  0  0  0  0  0
  189.0830  172.6630  138.2570 C   0  0  0  0  0  2  0  0  0  0  0  0
  191.3260  172.0640  137.3130 C   0  0  2  0  0  3  0  0  0  0  0  0
  190.0120  172.7950  137.0540 C   0  0  0  0  0  2  0  0  0  0  0  0
  189.6380  173.4400  139.4630 C   0  0  0  0  0  2  0  0  0  0  0  0
  191.8140  172.2660  138.7540 C   0  0  2  0  0  0  0  0  0  0  0  0
  192.2840  172.5330  136.4040 O   0  0  0  0  0  1  0  0  0  0  0  0
  192.2180  171.0210  139.4200 C   0  0  1  0  0  3  0  0  0  0  0  0
  193.2640  171.9820  138.9400 N   0  0  0  0  0  0  0  0  0  0  0  0
  192.0210  170.9840  140.9470 C   0  0  0  0  0  2  0  0  0  0  0  0
  190.0630  170.8050  142.2740 F   0  0  0  0  0  0  0  0  0  0  0  0
  190.8290  170.1220  141.3500 C   0  0  2  0  0  3  0  0  0  0  0  0
  191.2980  168.8280  141.9700 C   0  0  0  0  0  2  0  0  0  0  0  0
  192.6020  168.9760  142.4510 O   0  0  0  0  0  1  0  0  0  0  0  0
  194.0950  175.0780  139.1870 C   0  0  0  0  0  2  0  0  0  0  0  0
  195.1710  173.3690  138.0980 C   0  0  0  0  0  2  0  0  0  0  0  0
  195.1770  174.6130  137.2600 C   0  0  1  0  0  3  0  0  0  0  0  0
  194.2950  175.5170  137.8630 O   0  0  0  0  0  0  0  0  0  0  0  0
  194.7710  173.8060  139.4090 N   0  0  0  0  0  0  0  0  0  0  0  0
  196.5770  175.2220  137.2090 C   0  0  0  0  0  2  0  0  0  0  0  0
  196.8580  175.9010  135.9040 C   0  0  0  0  0  0  0  0  0  0  0  0
  195.9330  176.8030  135.3840 O   0  0  0  0  0  1  0  0  0  0  0  0
  197.9180  175.6680  135.2600 O   0  0  0  0  0  0  0  0  0  0  0  0
  1  4  1  0  0  0  0
  2  6  1  0  0  0  0
  2  7  1  1  0  0  0
  3  2  1  0  0  0  0
  5 30  1  6  0  0  0
  5  3  1  0  0  0  0
  5  1  1  0  0  0  0
  6  4  1  0  0  0  0
  8  7  1  0  0  0  0
  8  9  1  0  0  0  0
 10  9  1  0  0  0  0
 10 11  1  1  0  0  0
 12 10  1  0  0  0  0
 14 13  1  6  0  0  0
 14 15  1  0  0  0  0
 14 12  1  0  0  0  0
 16 21  1  0  0  0  0
 16 27  1  0  0  0  0
 16 22  1  0  0  0  0
 17 24  1  0  0  0  0
 18 14  1  0  0  0  0
 18 25  1  1  0  0  0
 18 20  1  0  0  0  0
 20 19  1  6  0  0  0
 22 17  1  0  0  0  0
 23 16  1  0  0  0  0
 24 20  1  0  0  0  0
 24 28  1  1  0  0  0
 26 22  2  0  0  0  0
 27 18  1  0  0  0  0
 28 29  1  0  0  0  0
 31 30  1  0  0  0  0
 32 31  1  1  0  0  0
 34 37  1  0  0  0  0
 35 39  1  6  0  0  0
 35 38  1  0  0  0  0
 36 35  1  0  0  0  0
 36 34  1  0  0  0  0
 37 33  1  0  0  0  0
 38 41  1  0  0  0  0
 38 40  1  0  0  0  0
 38 33  1  1  0  0  0
 40 42  1  1  0  0  0
 41 40  1  0  0  0  0
 41 32  1  0  0  0  0
 42 44  1  0  0  0  0
 44 45  1  0  0  0  0
 44 43  1  1  0  0  0
 45 46  1  0  0  0  0
 47 51  1  0  0  0  0
 48 51  1  0  0  0  0
 49 52  1  1  0  0  0
 49 50  1  0  0  0  0
 49 48  1  0  0  0  0
 50 47  1  0  0  0  0
 51 32  1  0  0  0  0
 53 52  1  0  0  0  0
 54 53  1  0  0  0  0
 55 53  2  0  0  0  0
M  END
>  <MODEL>
8

>  <REMARK>
 VINA RESULT:      -5.9      3.261      6.934
  Name = 
  18 active torsions:
  status: ('A' for Active; 'I' for Inactive)
    1  A    between atoms: C_2  and  C_28
    2  A    between atoms: C_2  and  C_44
    3  A    between atoms: C_4  and  C_40
    4  A    between atoms: C_6  and  C_20
    5  A    between atoms: C_8  and  O_22
    6  A    between atoms: C_8  and  C_35
    7  A    between atoms: C_10  and  C_32
    8  A    between atoms: C_11  and  C_38
    9  A    between atoms: C_19  and  C_40
   10  A    between atoms: C_19  and  C_45
   11  A    between atoms: C_20  and  O_22
   12  A    between atoms: C_27  and  C_54
   13  A    between atoms: C_28  and  C_33
   14  A    between atoms: C_32  and  C_39
   15  A    between atoms: C_33  and  N_49
   16  A    between atoms: C_33  and  N_52
   17  A    between atoms: C_35  and  C_51
   18  A    between atoms: C_51  and  C_54
                            x       y       z     vdW  Elec       q    Type
                         _______ _______ _______ _____ _____    ______ ____

>  <TORSDO>
F 18

$$$$
=
 OpenBabel11052419483D

 55 59  0  0  1  0  0  0  0  0999 V2000
  189.6810  173.5330  143.6350 C   0  0  0  0  0  2  0  0  0  0  0  0
  190.3470  173.3250  140.8050 C   0  0  2  0  0  3  0  0  0  0  0  0
  190.6840  174.6130  141.5840 C   0  0  0  0  0  2  0  0  0  0  0  0
  189.8640  172.2650  142.7940 C   0  0  0  0  0  2  0  0  0  0  0  0
  189.7690  174.8090  142.7960 C   0  0  1  0  0  3  0  0  0  0  0  0
  189.4330  172.4680  141.4620 O   0  0  0  0  0  0  0  0  0  0  0  0
  191.6010  172.5780  140.3870 C   0  0  0  0  0  2  0  0  0  0  0  0
  192.6320  173.5770  139.8700 C   0  0  0  0  0  2  0  0  0  0  0  0
  194.0080  173.2110  140.3810 C   0  0  0  0  0  2  0  0  0  0  0  0
  194.9850  174.3680  140.2170 C   0  0  1  0  0  3  0  0  0  0  0  0
  194.5220  175.2560  139.0720 C   0  0  0  0  0  1  0  0  0  0  0  0
  195.0130  175.1160  141.4050 O   0  0  0  0  0  0  0  0  0  0  0  0
  197.3770  174.6700  140.9790 C   0  0  0  0  0  1  0  0  0  0  0  0
  196.3430  175.4390  141.8020 C   0  0  1  0  0  0  0  0  0  0  0  0
  196.5220  176.7870  141.5050 O   0  0  0  0  0  1  0  0  0  0  0  0
  195.0160  176.4640  144.8030 C   0  0  0  0  0  0  0  0  0  0  0  0
  195.3810  174.2910  146.1570 O   0  0  0  0  0  0  0  0  0  0  0  0
  196.5780  175.2020  143.3300 C   0  0  1  0  0  0  0  0  0  0  0  0
  194.6230  173.7270  143.5180 F   0  0  0  0  0  0  0  0  0  0  0  0
  195.9650  173.8810  143.8080 C   0  0  2  0  0  3  0  0  0  0  0  0
  193.7920  176.2560  143.9320 C   0  0  0  0  0  1  0  0  0  0  0  0
  194.9060  175.6030  146.0550 C   0  0  0  0  0  0  0  0  0  0  0  0
  194.9400  177.9210  145.2350 C   0  0  0  0  0  1  0  0  0  0  0  0
  196.2860  173.6450  145.2730 C   0  0  2  0  0  3  0  0  0  0  0  0
  197.9410  175.0450  143.5000 F   0  0  0  0  0  0  0  0  0  0  0  0
  194.2100  176.0270  147.0220 O   0  0  0  0  0  0  0  0  0  0  0  0
  196.2580  176.3590  144.1090 O   0  0  0  0  0  0  0  0  0  0  0  0
  196.3920  172.1640  145.6030 C   0  0  0  0  0  2  0  0  0  0  0  0
  197.4710  171.4810  144.8020 C   0  0  0  0  0  1  0  0  0  0  0  0
  188.3770  175.2530  142.3910 C   0  0  0  0  0  2  0  0  0  0  0  0
  188.3000  176.7630  142.3000 C   0  0  0  0  0  2  0  0  0  0  0  0
  187.0390  177.2740  143.0100 C   0  0  2  0  0  3  0  0  0  0  0  0
  186.3120  178.9580  145.1290 C   0  0  0  0  0  2  0  0  0  0  0  0
  185.8730  178.9830  147.6790 C   0  0  0  0  0  2  0  0  0  0  0  0
  185.6240  176.7940  146.4840 C   0  0  2  0  0  3  0  0  0  0  0  0
  184.9250  177.8330  147.3560 C   0  0  0  0  0  2  0  0  0  0  0  0
  186.1910  179.8000  146.4150 C   0  0  0  0  0  2  0  0  0  0  0  0
  186.5120  177.4500  145.4190 C   0  0  2  0  0  0  0  0  0  0  0  0
  184.6490  175.9900  145.8790 O   0  0  0  0  0  1  0  0  0  0  0  0
  187.8610  176.8740  145.3370 C   0  0  1  0  0  3  0  0  0  0  0  0
  186.8470  176.5500  144.2810 N   0  0  0  0  0  0  0  0  0  0  0  0
  188.9750  177.8390  144.8930 C   0  0  0  0  0  2  0  0  0  0  0  0
  191.1530  176.9010  144.8690 F   0  0  0  0  0  0  0  0  0  0  0  0
  190.2730  177.6090  145.6620 C   0  0  2  0  0  3  0  0  0  0  0  0
  190.0080  176.8170  146.9200 C   0  0  0  0  0  2  0  0  0  0  0  0
  190.3470  175.4760  146.7180 O   0  0  0  0  0  1  0  0  0  0  0  0
  186.0510  177.5420  140.8010 C   0  0  0  0  0  2  0  0  0  0  0  0
  184.8500  178.1310  142.6660 C   0  0  0  0  0  2  0  0  0  0  0  0
  184.1950  178.6650  141.4270 C   0  0  1  0  0  3  0  0  0  0  0  0
  185.1030  178.4940  140.3760 O   0  0  0  0  0  0  0  0  0  0  0  0
  185.8160  177.1750  142.1920 N   0  0  0  0  0  0  0  0  0  0  0  0
  182.9100  177.8960  141.1220 C   0  0  0  0  0  2  0  0  0  0  0  0
  181.6800  178.7050  141.3960 C   0  0  0  0  0  0  0  0  0  0  0  0
  181.3800  179.0790  142.7030 O   0  0  0  0  0  1  0  0  0  0  0  0
  180.9040  179.0520  140.4630 O   0  0  0  0  0  0  0  0  0  0  0  0
  2  7  1  1  0  0  0
  2  6  1  0  0  0  0
  2  3  1  0  0  0  0
  3  5  1  0  0  0  0
  4  1  1  0  0  0  0
  5 30  1  6  0  0  0
  5  1  1  0  0  0  0
  6  4  1  0  0  0  0
  8  9  1  0  0  0  0
  8  7  1  0  0  0  0
 10 11  1  6  0  0  0
 10  9  1  0  0  0  0
 10 12  1  0  0  0  0
 12 14  1  0  0  0  0
 14 13  1  6  0  0  0
 14 18  1  0  0  0  0
 15 14  1  0  0  0  0
 16 23  1  0  0  0  0
 16 22  1  0  0  0  0
 18 25  1  1  0  0  0
 18 20  1  0  0  0  0
 18 27  1  0  0  0  0
 20 19  1  1  0  0  0
 20 24  1  0  0  0  0
 21 16  1  0  0  0  0
 22 17  1  0  0  0  0
 22 26  2  0  0  0  0
 24 28  1  6  0  0  0
 24 17  1  0  0  0  0
 27 16  1  0  0  0  0
 29 28  1  0  0  0  0
 31 30  1  0  0  0  0
 32 31  1  6  0  0  0
 32 41  1  0  0  0  0
 33 37  1  0  0  0  0
 35 39  1  6  0  0  0
 35 36  1  0  0  0  0
 36 34  1  0  0  0  0
 37 34  1  0  0  0  0
 38 33  1  6  0  0  0
 38 35  1  0  0  0  0
 40 42  1  6  0  0  0
 40 38  1  0  0  0  0
 41 40  1  0  0  0  0
 41 38  1  0  0  0  0
 42 44  1  0  0  0  0
 44 43  1  6  0  0  0
 44 45  1  0  0  0  0
 46 45  1  0  0  0  0
 47 51  1  0  0  0  0
 49 52  1  6  0  0  0
 49 48  1  0  0  0  0
 50 47  1  0  0  0  0
 50 49  1  0  0  0  0
 51 48  1  0  0  0  0
 51 32  1  0  0  0  0
 52 53  1  0  0  0  0
 53 54  1  0  0  0  0
 55 53  2  0  0  0  0
M  END
>  <MODEL>
9

>  <REMARK>
 VINA RESULT:      -5.9      3.209      8.946
  Name = 
  18 active torsions:
  status: ('A' for Active; 'I' for Inactive)
    1  A    between atoms: C_2  and  C_28
    2  A    between atoms: C_2  and  C_44
    3  A    between atoms: C_4  and  C_40
    4  A    between atoms: C_6  and  C_20
    5  A    between atoms: C_8  and  O_22
    6  A    between atoms: C_8  and  C_35
    7  A    between atoms: C_10  and  C_32
    8  A    between atoms: C_11  and  C_38
    9  A    between atoms: C_19  and  C_40
   10  A    between atoms: C_19  and  C_45
   11  A    between atoms: C_20  and  O_22
   12  A    between atoms: C_27  and  C_54
   13  A    between atoms: C_28  and  C_33
   14  A    between atoms: C_32  and  C_39
   15  A    between atoms: C_33  and  N_49
   16  A    between atoms: C_33  and  N_52
   17  A    between atoms: C_35  and  C_51
   18  A    between atoms: C_51  and  C_54
                            x       y       z     vdW  Elec       q    Type
                         _______ _______ _______ _____ _____    ______ ____

>  <TORSDO>
F 18

$$$$
