=
 OpenBabel11052419543D

 37 43  0  0  1  0  0  0  0  0999 V2000
  192.8010  173.7780  144.0940 O   0  0  0  0  0  0  0  0  0  0  0  0
  191.2830  172.7360  139.4320 C   0  0  0  0  0  2  0  0  0  0  0  0
  188.2100  177.5070  147.2630 O   0  0  0  0  0  0  0  0  0  0  0  0
  188.7270  177.1860  142.9640 C   0  0  1  0  0  3  0  0  0  0  0  0
  194.5310  172.7250  142.7710 C   0  0  0  0  0  1  0  0  0  0  0  0
  189.9570  172.6810  140.2070 C   0  0  2  0  0  0  0  0  0  0  0  0
  190.0670  171.5450  141.2350 C   0  0  0  0  0  2  0  0  0  0  0  0
  188.7950  172.3780  139.2430 C   0  0  0  0  0  2  0  0  0  0  0  0
  188.5050  176.9750  144.4730 C   0  0  1  0  0  3  0  0  0  0  0  0
  190.3410  173.6300  142.3620 C   0  0  1  0  0  3  0  0  0  0  0  0
  193.8110  176.4460  145.3870 S   0  0  0  0  0  0  0  0  0  0  0  0
  189.7940  177.2070  145.3000 C   0  0  2  0  0  3  0  0  0  0  0  0
  190.0830  174.5460  143.5530 C   0  0  0  0  0  2  0  0  0  0  0  0
  187.8160  173.7750  137.6080 O   0  0  0  0  0  0  0  0  0  0  0  0
  187.3770  177.8500  145.0240 C   0  0  0  0  0  2  0  0  0  0  0  0
  193.0420  172.8370  143.0750 C   0  0  1  0  0  3  0  0  0  0  0  0
  190.1390  173.4710  137.3210 C   0  0  0  0  0  2  0  0  0  0  0  0
  188.8410  173.2730  138.0390 C   0  0  0  0  0  0  0  0  0  0  0  0
  191.0740  176.3670  145.0270 C   0  0  2  0  0  3  0  0  0  0  0  0
  192.2430  177.3330  145.2120 C   0  0  0  0  0  2  0  0  0  0  0  0
  188.3620  175.7220  141.0120 C   0  0  0  0  0  2  0  0  0  0  0  0
  193.7440  175.9590  143.6440 C   0  0  0  0  0  2  0  0  0  0  0  0
  187.7230  176.2840  142.2630 C   0  0  2  0  0  3  0  0  0  0  0  0
  189.5030  177.2590  146.7910 C   0  0  0  0  0  0  0  0  0  0  0  0
  192.3940  171.4680  143.3630 C   0  0  2  0  0  3  0  0  0  0  0  0
  189.9940  172.1940  142.6070 C   0  0  2  0  0  3  0  0  0  0  0  0
  187.5650  177.7800  142.1790 C   0  0  0  0  0  2  0  0  0  0  0  0
  191.1830  175.6100  143.6780 C   0  0  1  0  0  3  0  0  0  0  0  0
  187.0600  177.3940  146.4340 C   0  0  0  0  0  2  0  0  0  0  0  0
  189.7680  173.9910  141.0070 C   0  0  2  0  0  3  0  0  0  0  0  0
  190.4410  177.1590  147.6250 O   0  0  0  0  0  0  0  0  0  0  0  0
  190.8900  171.5430  143.6690 C   0  0  0  0  0  2  0  0  0  0  0  0
  191.2420  173.7910  138.3260 C   0  0  0  0  0  2  0  0  0  0  0  0
  192.5880  174.9930  143.4170 C   0  0  2  0  0  3  0  0  0  0  0  0
  188.4110  174.3290  141.1200 O   0  0  0  0  0  0  0  0  0  0  0  0
  193.0680  170.7630  144.5350 C   0  0  0  0  0  2  0  0  0  0  0  0
  193.0660  169.2610  144.3180 C   0  0  0  0  0  1  0  0  0  0  0  0
  2  6  1  0  0  0  0
  4 27  1  1  0  0  0
  4  9  1  0  0  0  0
  6  8  1  6  0  0  0
  6 30  1  0  0  0  0
  6  7  1  0  0  0  0
  9 15  1  1  0  0  0
  9 12  1  0  0  0  0
 10 26  1  0  0  0  0
 10 13  1  1  0  0  0
 12 24  1  1  0  0  0
 14 18  2  0  0  0  0
 15 29  1  0  0  0  0
 16  5  1  1  0  0  0
 16 25  1  0  0  0  0
 16  1  1  0  0  0  0
 17 18  1  0  0  0  0
 17 33  1  0  0  0  0
 18  8  1  0  0  0  0
 19 20  1  6  0  0  0
 19 12  1  0  0  0  0
 20 11  1  0  0  0  0
 21 35  1  0  0  0  0
 22 11  1  0  0  0  0
 23 21  1  6  0  0  0
 23  4  1  0  0  0  0
 24  3  1  0  0  0  0
 24 31  2  0  0  0  0
 25 32  1  0  0  0  0
 25 36  1  1  0  0  0
 26  7  1  6  0  0  0
 26 32  1  0  0  0  0
 27 23  1  0  0  0  0
 28 13  1  1  0  0  0
 28 19  1  0  0  0  0
 29  3  1  0  0  0  0
 30 35  1  1  0  0  0
 30 10  1  0  0  0  0
 33  2  1  0  0  0  0
 34 22  1  1  0  0  0
 34 28  1  0  0  0  0
 34  1  1  0  0  0  0
 37 36  1  0  0  0  0
M  END
>  <MODEL>
1

>  <REMARK>
 VINA RESULT:      -8.1      0.000      0.000
  Name = 
  1 active torsions:
  status: ('A' for Active; 'I' for Inactive)
    1  A    between atoms: C_11  and  C_26
                            x       y       z     vdW  Elec       q    Type
                         _______ _______ _______ _____ _____    ______ ____

>  <TORSDO>
F 1

$$$$
=
 OpenBabel11052419543D

 37 43  0  0  1  0  0  0  0  0999 V2000
  194.2320  173.6020  143.5950 O   0  0  0  0  0  0  0  0  0  0  0  0
  191.0600  176.5720  146.0940 C   0  0  0  0  0  2  0  0  0  0  0  0
  191.2940  171.1770  138.0720 O   0  0  0  0  0  0  0  0  0  0  0  0
  189.2660  172.6120  141.6320 C   0  0  1  0  0  3  0  0  0  0  0  0
  195.0860  174.2530  145.7630 C   0  0  0  0  0  1  0  0  0  0  0  0
  190.6990  176.8940  144.6350 C   0  0  2  0  0  0  0  0  0  0  0  0
  191.9410  177.5070  143.9730 C   0  0  0  0  0  2  0  0  0  0  0  0
  189.5480  177.9160  144.5900 C   0  0  0  0  0  2  0  0  0  0  0  0
  190.1150  172.4030  140.3650 C   0  0  1  0  0  3  0  0  0  0  0  0
  191.7280  175.2420  143.2550 C   0  0  1  0  0  3  0  0  0  0  0  0
  194.2890  170.4920  143.2270 S   0  0  0  0  0  0  0  0  0  0  0  0
  191.3020  171.4370  140.5980 C   0  0  2  0  0  3  0  0  0  0  0  0
  191.8010  174.1750  142.1700 C   0  0  0  0  0  2  0  0  0  0  0  0
  187.2650  177.6100  145.1200 O   0  0  0  0  0  0  0  0  0  0  0  0
  189.2810  171.9150  139.1780 C   0  0  0  0  0  2  0  0  0  0  0  0
  194.2610  174.6430  144.5430 C   0  0  1  0  0  3  0  0  0  0  0  0
  188.7260  177.0530  146.8880 C   0  0  0  0  0  2  0  0  0  0  0  0
  188.4220  177.5070  145.4940 C   0  0  0  0  0  0  0  0  0  0  0  0
  192.3780  171.7470  141.6780 C   0  0  2  0  0  3  0  0  0  0  0  0
  192.7440  170.3960  142.2890 C   0  0  0  0  0  2  0  0  0  0  0  0
  188.6270  174.6380  142.8880 C   0  0  0  0  0  2  0  0  0  0  0  0
  193.4710  171.4910  144.4960 C   0  0  0  0  0  2  0  0  0  0  0  0
  188.6710  174.0060  141.5130 C   0  0  2  0  0  3  0  0  0  0  0  0
  191.9640  171.0340  139.2910 C   0  0  0  0  0  0  0  0  0  0  0  0
  194.7070  175.9890  143.9350 C   0  0  2  0  0  3  0  0  0  0  0  0
  192.3730  176.5410  142.8830 C   0  0  2  0  0  3  0  0  0  0  0  0
  187.7690  172.8020  141.4290 C   0  0  0  0  0  2  0  0  0  0  0  0
  192.0380  172.7850  142.7780 C   0  0  1  0  0  3  0  0  0  0  0  0
  190.1340  171.9880  137.9280 C   0  0  0  0  0  2  0  0  0  0  0  0
  190.3880  175.5830  143.8760 C   0  0  2  0  0  3  0  0  0  0  0  0
  193.1000  170.4880  139.2950 O   0  0  0  0  0  0  0  0  0  0  0  0
  193.8920  176.4160  142.7050 C   0  0  0  0  0  2  0  0  0  0  0  0
  189.8560  176.0270  146.8620 C   0  0  0  0  0  2  0  0  0  0  0  0
  193.0890  172.8500  143.9250 C   0  0  2  0  0  3  0  0  0  0  0  0
  189.4220  175.7870  142.8790 O   0  0  0  0  0  0  0  0  0  0  0  0
  196.1760  175.9630  143.5290 C   0  0  0  0  0  2  0  0  0  0  0  0
  196.3320  176.4160  142.0900 C   0  0  0  0  0  1  0  0  0  0  0  0
  1 34  1  0  0  0  0
  1 16  1  0  0  0  0
  2 33  1  0  0  0  0
  3 24  1  0  0  0  0
  4 27  1  6  0  0  0
  6  7  1  6  0  0  0
  6  2  1  0  0  0  0
  8  6  1  0  0  0  0
  8 18  1  0  0  0  0
  9 15  1  6  0  0  0
  9 12  1  0  0  0  0
  9  4  1  0  0  0  0
 10 13  1  6  0  0  0
 10 30  1  0  0  0  0
 11 22  1  0  0  0  0
 12 24  1  6  0  0  0
 12 19  1  0  0  0  0
 14 18  2  0  0  0  0
 16  5  1  1  0  0  0
 18 17  1  0  0  0  0
 19 20  1  1  0  0  0
 19 28  1  0  0  0  0
 20 11  1  0  0  0  0
 23 27  1  1  0  0  0
 23  4  1  0  0  0  0
 23 21  1  0  0  0  0
 24 31  2  0  0  0  0
 25 36  1  6  0  0  0
 25 16  1  0  0  0  0
 26 32  1  1  0  0  0
 26 10  1  0  0  0  0
 26  7  1  0  0  0  0
 28 13  1  6  0  0  0
 28 34  1  0  0  0  0
 29  3  1  0  0  0  0
 29 15  1  0  0  0  0
 30 35  1  6  0  0  0
 30  6  1  0  0  0  0
 32 25  1  0  0  0  0
 33 17  1  0  0  0  0
 34 22  1  6  0  0  0
 35 21  1  0  0  0  0
 37 36  1  0  0  0  0
M  END
>  <MODEL>
2

>  <REMARK>
 VINA RESULT:      -8.0      2.200      6.652
  Name = 
  1 active torsions:
  status: ('A' for Active; 'I' for Inactive)
    1  A    between atoms: C_11  and  C_26
                            x       y       z     vdW  Elec       q    Type
                         _______ _______ _______ _____ _____    ______ ____

>  <TORSDO>
F 1

$$$$
=
 OpenBabel11052419543D

 37 43  0  0  1  0  0  0  0  0999 V2000
  192.6460  173.0500  140.3340 O   0  0  0  0  0  0  0  0  0  0  0  0
  188.9800  175.8990  142.2240 C   0  0  0  0  0  2  0  0  0  0  0  0
  197.5050  172.1840  144.8780 O   0  0  0  0  0  0  0  0  0  0  0  0
  194.6450  175.4490  144.7770 C   0  0  1  0  0  3  0  0  0  0  0  0
  191.0160  173.6900  138.6650 C   0  0  0  0  0  1  0  0  0  0  0  0
  189.3980  175.0780  143.4550 C   0  0  2  0  0  0  0  0  0  0  0  0
  189.1200  173.6000  143.1450 C   0  0  0  0  0  2  0  0  0  0  0  0
  188.5660  175.5030  144.6790 C   0  0  0  0  0  2  0  0  0  0  0  0
  195.3920  174.1040  144.8250 C   0  0  1  0  0  3  0  0  0  0  0  0
  191.4620  174.0000  142.9360 C   0  0  1  0  0  3  0  0  0  0  0  0
  195.5570  173.7680  139.4280 S   0  0  0  0  0  0  0  0  0  0  0  0
  196.0850  173.7610  143.4830 C   0  0  2  0  0  3  0  0  0  0  0  0
  192.9120  173.5780  143.1480 C   0  0  0  0  0  2  0  0  0  0  0  0
  188.6780  177.5010  145.9350 O   0  0  0  0  0  0  0  0  0  0  0  0
  196.4150  174.0450  145.9620 C   0  0  0  0  0  2  0  0  0  0  0  0
  191.2810  173.3200  140.1180 C   0  0  1  0  0  3  0  0  0  0  0  0
  188.2760  177.8530  143.6360 C   0  0  0  0  0  2  0  0  0  0  0  0
  188.5470  176.9950  144.8330 C   0  0  0  0  0  0  0  0  0  0  0  0
  195.2590  173.6420  142.1700 C   0  0  2  0  0  3  0  0  0  0  0  0
  196.1460  174.2310  141.0750 C   0  0  0  0  0  2  0  0  0  0  0  0
  192.2940  176.0600  145.2130 C   0  0  0  0  0  2  0  0  0  0  0  0
  194.1110  174.8400  139.6310 C   0  0  0  0  0  2  0  0  0  0  0  0
  193.4960  175.3270  145.7660 C   0  0  2  0  0  3  0  0  0  0  0  0
  197.0300  172.5790  143.6240 C   0  0  0  0  0  0  0  0  0  0  0  0
  190.3640  172.1840  140.6150 C   0  0  2  0  0  3  0  0  0  0  0  0
  190.4670  172.8990  143.1330 C   0  0  2  0  0  3  0  0  0  0  0  0
  194.6340  176.2710  146.0590 C   0  0  0  0  0  2  0  0  0  0  0  0
  193.8400  174.2650  142.1350 C   0  0  1  0  0  3  0  0  0  0  0  0
  196.9060  172.6170  146.0940 C   0  0  0  0  0  2  0  0  0  0  0  0
  190.9240  175.2100  143.6720 C   0  0  2  0  0  3  0  0  0  0  0  0
  197.4620  171.9850  142.6010 O   0  0  0  0  0  0  0  0  0  0  0  0
  190.6000  171.7900  142.0810 C   0  0  0  0  0  2  0  0  0  0  0  0
  189.1470  177.3990  142.4670 C   0  0  0  0  0  2  0  0  0  0  0  0
  193.1990  174.2860  140.7170 C   0  0  2  0  0  3  0  0  0  0  0  0
  191.2540  175.1440  145.0340 O   0  0  0  0  0  0  0  0  0  0  0  0
  190.5180  170.9260  139.7680 C   0  0  0  0  0  2  0  0  0  0  0  0
  191.0960  169.7980  140.6010 C   0  0  0  0  0  1  0  0  0  0  0  0
  1 34  1  0  0  0  0
  2 33  1  0  0  0  0
  3 29  1  0  0  0  0
  4  9  1  0  0  0  0
  4 23  1  0  0  0  0
  4 27  1  1  0  0  0
  6  2  1  6  0  0  0
  6 30  1  0  0  0  0
  6  8  1  0  0  0  0
  7  6  1  0  0  0  0
  8 18  1  0  0  0  0
  9 15  1  1  0  0  0
 10 26  1  0  0  0  0
 10 13  1  1  0  0  0
 10 30  1  0  0  0  0
 11 22  1  0  0  0  0
 11 20  1  0  0  0  0
 12 24  1  1  0  0  0
 12  9  1  0  0  0  0
 15 29  1  0  0  0  0
 16  5  1  6  0  0  0
 16  1  1  0  0  0  0
 16 25  1  0  0  0  0
 17 18  1  0  0  0  0
 18 14  2  0  0  0  0
 19 20  1  6  0  0  0
 19 12  1  0  0  0  0
 23 21  1  6  0  0  0
 23 27  1  0  0  0  0
 24  3  1  0  0  0  0
 25 36  1  6  0  0  0
 25 32  1  0  0  0  0
 26 32  1  6  0  0  0
 26  7  1  0  0  0  0
 28 19  1  0  0  0  0
 28 13  1  1  0  0  0
 30 35  1  1  0  0  0
 31 24  2  0  0  0  0
 33 17  1  0  0  0  0
 34 22  1  6  0  0  0
 34 28  1  0  0  0  0
 35 21  1  0  0  0  0
 36 37  1  0  0  0  0
M  END
>  <MODEL>
3

>  <REMARK>
 VINA RESULT:      -7.9      2.540      6.320
  Name = 
  1 active torsions:
  status: ('A' for Active; 'I' for Inactive)
    1  A    between atoms: C_11  and  C_26
                            x       y       z     vdW  Elec       q    Type
                         _______ _______ _______ _____ _____    ______ ____

>  <TORSDO>
F 1

$$$$
=
 OpenBabel11052419543D

 37 43  0  0  1  0  0  0  0  0999 V2000
  194.5050  173.5020  144.4820 O   0  0  0  0  0  0  0  0  0  0  0  0
  193.1420  171.2150  140.2350 C   0  0  0  0  0  2  0  0  0  0  0  0
  189.2360  176.5890  147.2630 O   0  0  0  0  0  0  0  0  0  0  0  0
  189.6740  175.5440  143.0720 C   0  0  1  0  0  3  0  0  0  0  0  0
  196.3980  172.6480  143.2420 C   0  0  0  0  0  1  0  0  0  0  0  0
  191.8980  171.0020  141.1120 C   0  0  2  0  0  0  0  0  0  0  0  0
  192.3210  170.1550  142.3210 C   0  0  0  0  0  2  0  0  0  0  0  0
  190.8170  170.2450  140.3200 C   0  0  0  0  0  2  0  0  0  0  0  0
  189.5620  175.5940  144.6060 C   0  0  1  0  0  3  0  0  0  0  0  0
  192.1040  172.4280  143.0140 C   0  0  1  0  0  3  0  0  0  0  0  0
  194.8600  176.5380  145.1680 S   0  0  0  0  0  0  0  0  0  0  0  0
  190.7790  176.2860  145.2680 C   0  0  2  0  0  3  0  0  0  0  0  0
  191.6660  173.4760  144.0300 C   0  0  0  0  0  2  0  0  0  0  0  0
  189.4670  171.0110  138.5380 O   0  0  0  0  0  0  0  0  0  0  0  0
  188.2700  176.2670  145.0750 C   0  0  0  0  0  2  0  0  0  0  0  0
  194.9400  172.4610  143.6400 C   0  0  1  0  0  3  0  0  0  0  0  0
  191.7820  171.2170  138.1240 C   0  0  0  0  0  2  0  0  0  0  0  0
  190.5980  170.8640  138.9700 C   0  0  0  0  0  0  0  0  0  0  0  0
  192.2190  175.7390  145.0530 C   0  0  2  0  0  3  0  0  0  0  0  0
  193.1150  176.9720  144.9590 C   0  0  0  0  0  2  0  0  0  0  0  0
  189.6220  173.6730  141.4630 C   0  0  0  0  0  2  0  0  0  0  0  0
  194.8590  175.7090  143.5580 C   0  0  0  0  0  2  0  0  0  0  0  0
  188.9050  174.3070  142.6350 C   0  0  2  0  0  3  0  0  0  0  0  0
  190.5340  176.5660  146.7420 C   0  0  0  0  0  0  0  0  0  0  0  0
  194.6630  171.0630  144.2300 C   0  0  2  0  0  3  0  0  0  0  0  0
  192.1350  171.0300  143.5490 C   0  0  2  0  0  3  0  0  0  0  0  0
  188.3760  175.6750  142.2870 C   0  0  0  0  0  2  0  0  0  0  0  0
  192.4690  174.7740  143.8640 C   0  0  1  0  0  3  0  0  0  0  0  0
  188.1240  176.0410  146.5660 C   0  0  0  0  0  2  0  0  0  0  0  0
  191.4150  172.3630  141.6660 C   0  0  2  0  0  3  0  0  0  0  0  0
  191.4950  176.8620  147.5010 O   0  0  0  0  0  0  0  0  0  0  0  0
  193.2000  170.8390  144.6380 C   0  0  0  0  0  2  0  0  0  0  0  0
  192.8030  171.9850  138.9590 C   0  0  0  0  0  2  0  0  0  0  0  0
  193.9740  174.4700  143.6100 C   0  0  2  0  0  3  0  0  0  0  0  0
  190.0210  172.3840  141.8250 O   0  0  0  0  0  0  0  0  0  0  0  0
  195.5300  170.7890  145.4540 C   0  0  0  0  0  2  0  0  0  0  0  0
  194.9160  169.6880  146.2980 C   0  0  0  0  0  1  0  0  0  0  0  0
  4 27  1  6  0  0  0
  4  9  1  0  0  0  0
  6  2  1  6  0  0  0
  6 30  1  0  0  0  0
  6  7  1  0  0  0  0
  8  6  1  0  0  0  0
  9 15  1  6  0  0  0
  9 12  1  0  0  0  0
 10 26  1  0  0  0  0
 10 13  1  1  0  0  0
 12 24  1  1  0  0  0
 14 18  2  0  0  0  0
 15 29  1  0  0  0  0
 16  5  1  1  0  0  0
 16 25  1  0  0  0  0
 16  1  1  0  0  0  0
 17 33  1  0  0  0  0
 17 18  1  0  0  0  0
 18  8  1  0  0  0  0
 19 20  1  6  0  0  0
 19 12  1  0  0  0  0
 20 11  1  0  0  0  0
 21 35  1  0  0  0  0
 22 11  1  0  0  0  0
 23 21  1  6  0  0  0
 23  4  1  0  0  0  0
 24  3  1  0  0  0  0
 24 31  2  0  0  0  0
 25 32  1  0  0  0  0
 25 36  1  1  0  0  0
 26  7  1  6  0  0  0
 26 32  1  0  0  0  0
 27 23  1  0  0  0  0
 28 13  1  1  0  0  0
 28 19  1  0  0  0  0
 29  3  1  0  0  0  0
 30 35  1  1  0  0  0
 30 10  1  0  0  0  0
 33  2  1  0  0  0  0
 34 22  1  1  0  0  0
 34 28  1  0  0  0  0
 34  1  1  0  0  0  0
 36 37  1  0  0  0  0
M  END
>  <MODEL>
4

>  <REMARK>
 VINA RESULT:      -7.5      1.666      2.203
  Name = 
  1 active torsions:
  status: ('A' for Active; 'I' for Inactive)
    1  A    between atoms: C_11  and  C_26
                            x       y       z     vdW  Elec       q    Type
                         _______ _______ _______ _____ _____    ______ ____

>  <TORSDO>
F 1

$$$$
=
 OpenBabel11052419543D

 37 43  0  0  1  0  0  0  0  0999 V2000
  192.0750  173.6930  140.4250 O   0  0  0  0  0  0  0  0  0  0  0  0
  196.1610  172.6170  143.1210 C   0  0  0  0  0  2  0  0  0  0  0  0
  187.8450  177.4730  144.0070 O   0  0  0  0  0  0  0  0  0  0  0  0
  190.8890  174.8190  145.6030 C   0  0  1  0  0  3  0  0  0  0  0  0
  193.4980  172.0650  139.3400 C   0  0  0  0  0  1  0  0  0  0  0  0
  195.8600  174.0540  143.5770 C   0  0  2  0  0  0  0  0  0  0  0  0
  195.9870  174.9670  142.3500 C   0  0  0  0  0  2  0  0  0  0  0  0
  196.8830  174.4940  144.6410 C   0  0  0  0  0  2  0  0  0  0  0  0
  190.0620  175.9010  144.8840 C   0  0  1  0  0  3  0  0  0  0  0  0
  193.6730  174.6130  142.8070 C   0  0  1  0  0  3  0  0  0  0  0  0
  189.1250  172.6660  140.6510 S   0  0  0  0  0  0  0  0  0  0  0  0
  189.1660  175.3180  143.7640 C   0  0  2  0  0  3  0  0  0  0  0  0
  192.2410  175.1240  142.9130 C   0  0  0  0  0  2  0  0  0  0  0  0
  197.0890  173.7910  146.8880 O   0  0  0  0  0  0  0  0  0  0  0  0
  189.2050  176.7200  145.8530 C   0  0  0  0  0  2  0  0  0  0  0  0
  193.4120  173.2980  140.2300 C   0  0  1  0  0  3  0  0  0  0  0  0
  197.1910  172.0190  145.3320 C   0  0  0  0  0  2  0  0  0  0  0  0
  197.0300  173.4570  145.7160 C   0  0  0  0  0  0  0  0  0  0  0  0
  189.7910  174.5280  142.5790 C   0  0  2  0  0  3  0  0  0  0  0  0
  188.8040  173.4020  142.2730 C   0  0  0  0  0  2  0  0  0  0  0  0
  193.3140  174.5520  145.9660 C   0  0  0  0  0  2  0  0  0  0  0  0
  190.6560  171.9290  141.2750 C   0  0  0  0  0  2  0  0  0  0  0  0
  192.1520  175.5120  146.0910 C   0  0  2  0  0  3  0  0  0  0  0  0
  188.1690  176.3430  143.2500 C   0  0  0  0  0  0  0  0  0  0  0  0
  194.3060  174.4500  139.7300 C   0  0  2  0  0  3  0  0  0  0  0  0
  194.6050  175.5410  142.0920 C   0  0  2  0  0  3  0  0  0  0  0  0
  191.1360  175.0240  147.0920 C   0  0  0  0  0  2  0  0  0  0  0  0
  191.2320  173.9790  142.7390 C   0  0  1  0  0  3  0  0  0  0  0  0
  188.6380  177.9100  145.1060 C   0  0  0  0  0  2  0  0  0  0  0  0
  194.3930  174.1490  144.0560 C   0  0  2  0  0  3  0  0  0  0  0  0
  187.5570  176.1470  142.1660 O   0  0  0  0  0  0  0  0  0  0  0  0
  194.2490  175.7090  140.6090 C   0  0  0  0  0  2  0  0  0  0  0  0
  196.1370  171.6390  144.2960 C   0  0  0  0  0  2  0  0  0  0  0  0
  191.6690  173.0210  141.5930 C   0  0  2  0  0  3  0  0  0  0  0  0
  194.2520  175.0950  145.0840 O   0  0  0  0  0  0  0  0  0  0  0  0
  193.9470  174.8640  138.3080 C   0  0  0  0  0  2  0  0  0  0  0  0
  195.1920  174.9160  137.4430 C   0  0  0  0  0  1  0  0  0  0  0  0
  1 34  1  0  0  0  0
  2  6  1  0  0  0  0
  2 33  1  0  0  0  0
  3 29  1  0  0  0  0
  4 23  1  0  0  0  0
  4 27  1  1  0  0  0
  6  7  1  6  0  0  0
  6 30  1  0  0  0  0
  6  8  1  0  0  0  0
  8 18  1  0  0  0  0
  9  4  1  0  0  0  0
  9 15  1  1  0  0  0
 10 13  1  1  0  0  0
 10 30  1  0  0  0  0
 11 22  1  0  0  0  0
 11 20  1  0  0  0  0
 12 24  1  6  0  0  0
 12  9  1  0  0  0  0
 16  5  1  6  0  0  0
 16  1  1  0  0  0  0
 17 18  1  0  0  0  0
 18 14  2  0  0  0  0
 19 20  1  1  0  0  0
 19 28  1  0  0  0  0
 19 12  1  0  0  0  0
 23 21  1  1  0  0  0
 23 27  1  0  0  0  0
 24  3  1  0  0  0  0
 25 36  1  6  0  0  0
 25 16  1  0  0  0  0
 25 32  1  0  0  0  0
 26 32  1  6  0  0  0
 26  7  1  0  0  0  0
 26 10  1  0  0  0  0
 28 13  1  6  0  0  0
 29 15  1  0  0  0  0
 30 35  1  1  0  0  0
 31 24  2  0  0  0  0
 33 17  1  0  0  0  0
 34 22  1  6  0  0  0
 34 28  1  0  0  0  0
 35 21  1  0  0  0  0
 37 36  1  0  0  0  0
M  END
>  <MODEL>
5

>  <REMARK>
 VINA RESULT:      -7.5      2.760      6.287
  Name = 
  1 active torsions:
  status: ('A' for Active; 'I' for Inactive)
    1  A    between atoms: C_11  and  C_26
                            x       y       z     vdW  Elec       q    Type
                         _______ _______ _______ _____ _____    ______ ____

>  <TORSDO>
F 1

$$$$
=
 OpenBabel11052419543D

 37 43  0  0  1  0  0  0  0  0999 V2000
  193.9390  173.7010  143.5860 O   0  0  0  0  0  0  0  0  0  0  0  0
  192.0090  172.6120  139.0900 C   0  0  0  0  0  2  0  0  0  0  0  0
  189.2250  176.3320  147.5710 O   0  0  0  0  0  0  0  0  0  0  0  0
  189.1950  176.3210  143.2290 C   0  0  1  0  0  3  0  0  0  0  0  0
  195.6330  173.0610  141.9820 C   0  0  0  0  0  1  0  0  0  0  0  0
  190.8350  172.2680  140.0200 C   0  0  2  0  0  0  0  0  0  0  0  0
  191.2910  171.1270  140.9410 C   0  0  0  0  0  2  0  0  0  0  0  0
  189.6270  171.7960  139.1910 C   0  0  0  0  0  2  0  0  0  0  0  0
  189.2250  176.0000  144.7350 C   0  0  1  0  0  3  0  0  0  0  0  0
  191.3320  173.1690  142.1720 C   0  0  1  0  0  3  0  0  0  0  0  0
  194.6130  176.4480  144.9310 S   0  0  0  0  0  0  0  0  0  0  0  0
  190.5510  176.4330  145.4070 C   0  0  2  0  0  3  0  0  0  0  0  0
  191.0790  173.9620  143.4500 C   0  0  0  0  0  2  0  0  0  0  0  0
  188.1930  173.0570  137.7980 O   0  0  0  0  0  0  0  0  0  0  0  0
  188.0430  176.6160  145.4870 C   0  0  0  0  0  2  0  0  0  0  0  0
  194.2050  172.8730  142.4790 C   0  0  1  0  0  3  0  0  0  0  0  0
  190.4700  173.2150  137.1990 C   0  0  0  0  0  2  0  0  0  0  0  0
  189.3420  172.7390  138.0590 C   0  0  0  0  0  0  0  0  0  0  0  0
  191.9140  175.8670  144.9140 C   0  0  2  0  0  3  0  0  0  0  0  0
  192.9010  177.0270  145.0200 C   0  0  0  0  0  2  0  0  0  0  0  0
  188.8380  174.9080  141.2380 C   0  0  0  0  0  2  0  0  0  0  0  0
  194.3960  176.0410  143.1800 C   0  0  0  0  0  2  0  0  0  0  0  0
  188.2860  175.2780  142.5970 C   0  0  2  0  0  3  0  0  0  0  0  0
  190.4640  176.3580  146.9230 C   0  0  0  0  0  0  0  0  0  0  0  0
  193.8630  171.3930  142.7470 C   0  0  2  0  0  3  0  0  0  0  0  0
  191.2910  171.6840  142.3540 C   0  0  2  0  0  3  0  0  0  0  0  0
  187.8470  176.7190  142.6430 C   0  0  0  0  0  2  0  0  0  0  0  0
  191.9720  175.2090  143.5110 C   0  0  1  0  0  3  0  0  0  0  0  0
  188.0120  176.0410  146.8880 C   0  0  0  0  0  2  0  0  0  0  0  0
  190.5220  173.4790  140.9300 C   0  0  2  0  0  3  0  0  0  0  0  0
  191.5110  176.3990  147.6230 O   0  0  0  0  0  0  0  0  0  0  0  0
  192.4280  171.1660  143.2450 C   0  0  0  0  0  2  0  0  0  0  0  0
  191.6240  173.6910  138.0770 C   0  0  0  0  0  2  0  0  0  0  0  0
  193.4170  174.8840  143.0310 C   0  0  2  0  0  3  0  0  0  0  0  0
  189.1550  173.5470  141.2390 O   0  0  0  0  0  0  0  0  0  0  0  0
  194.8100  170.7750  143.7700 C   0  0  0  0  0  2  0  0  0  0  0  0
  194.0790  170.5160  145.0740 C   0  0  0  0  0  1  0  0  0  0  0  0
  4 27  1  1  0  0  0
  4  9  1  0  0  0  0
  6  2  1  6  0  0  0
  6 30  1  0  0  0  0
  6  7  1  0  0  0  0
  8  6  1  0  0  0  0
  9 12  1  0  0  0  0
  9 15  1  1  0  0  0
 10 26  1  0  0  0  0
 10 13  1  1  0  0  0
 11 20  1  0  0  0  0
 12 24  1  1  0  0  0
 14 18  2  0  0  0  0
 15 29  1  0  0  0  0
 16  5  1  1  0  0  0
 16 25  1  0  0  0  0
 16  1  1  0  0  0  0
 17 18  1  0  0  0  0
 17 33  1  0  0  0  0
 18  8  1  0  0  0  0
 19 20  1  6  0  0  0
 19 12  1  0  0  0  0
 21 35  1  0  0  0  0
 22 11  1  0  0  0  0
 23 21  1  6  0  0  0
 23 27  1  0  0  0  0
 23  4  1  0  0  0  0
 24  3  1  0  0  0  0
 24 31  2  0  0  0  0
 25 32  1  0  0  0  0
 25 36  1  1  0  0  0
 26  7  1  6  0  0  0
 26 32  1  0  0  0  0
 28 13  1  1  0  0  0
 28 19  1  0  0  0  0
 29  3  1  0  0  0  0
 30 35  1  1  0  0  0
 30 10  1  0  0  0  0
 33  2  1  0  0  0  0
 34 22  1  1  0  0  0
 34 28  1  0  0  0  0
 34  1  1  0  0  0  0
 36 37  1  0  0  0  0
M  END
>  <MODEL>
6

>  <REMARK>
 VINA RESULT:      -7.5      1.083      1.200
  Name = 
  1 active torsions:
  status: ('A' for Active; 'I' for Inactive)
    1  A    between atoms: C_11  and  C_26
                            x       y       z     vdW  Elec       q    Type
                         _______ _______ _______ _____ _____    ______ ____

>  <TORSDO>
F 1

$$$$
=
 OpenBabel11052419543D

 37 43  0  0  1  0  0  0  0  0999 V2000
  195.5700  172.7410  144.7190 O   0  0  0  0  0  0  0  0  0  0  0  0
  194.0710  169.4320  141.2660 C   0  0  0  0  0  2  0  0  0  0  0  0
  190.2830  175.9310  147.3430 O   0  0  0  0  0  0  0  0  0  0  0  0
  190.4370  173.9900  143.4620 C   0  0  1  0  0  3  0  0  0  0  0  0
  197.4200  171.7870  143.4870 C   0  0  0  0  0  1  0  0  0  0  0  0
  192.9450  169.3230  142.3070 C   0  0  2  0  0  0  0  0  0  0  0  0
  193.5690  168.8160  143.6150 C   0  0  0  0  0  2  0  0  0  0  0  0
  191.8830  168.3150  141.8300 C   0  0  0  0  0  2  0  0  0  0  0  0
  190.4640  174.3830  144.9510 C   0  0  1  0  0  3  0  0  0  0  0  0
  193.1730  171.1600  143.8110 C   0  0  1  0  0  3  0  0  0  0  0  0
  195.6580  175.8720  144.6750 S   0  0  0  0  0  0  0  0  0  0  0  0
  191.6560  175.3090  145.2990 C   0  0  2  0  0  3  0  0  0  0  0  0
  192.7210  172.3740  144.6160 C   0  0  0  0  0  2  0  0  0  0  0  0
  190.2970  168.5340  140.0920 O   0  0  0  0  0  0  0  0  0  0  0  0
  189.1570  175.0340  145.4070 C   0  0  0  0  0  2  0  0  0  0  0  0
  196.0340  171.5750  144.0820 C   0  0  1  0  0  3  0  0  0  0  0  0
  192.5270  168.8340  139.3780 C   0  0  0  0  0  2  0  0  0  0  0  0
  191.4730  168.5860  140.4120 C   0  0  0  0  0  0  0  0  0  0  0  0
  193.1200  174.8490  145.0440 C   0  0  2  0  0  3  0  0  0  0  0  0
  193.8650  176.0990  144.5790 C   0  0  0  0  0  2  0  0  0  0  0  0
  190.4360  171.8020  142.3220 C   0  0  0  0  0  2  0  0  0  0  0  0
  195.5950  174.6980  143.2980 C   0  0  0  0  0  2  0  0  0  0  0  0
  189.7680  172.6260  143.4010 C   0  0  2  0  0  3  0  0  0  0  0  0
  191.5200  175.8990  146.6930 C   0  0  0  0  0  0  0  0  0  0  0  0
  195.9670  170.3320  144.9930 C   0  0  2  0  0  3  0  0  0  0  0  0
  193.4040  169.9310  144.6330 C   0  0  2  0  0  3  0  0  0  0  0  0
  189.0640  173.8270  142.8240 C   0  0  0  0  0  2  0  0  0  0  0  0
  193.3600  173.6620  144.0770 C   0  0  1  0  0  3  0  0  0  0  0  0
  189.1760  175.1460  146.9170 C   0  0  0  0  0  2  0  0  0  0  0  0
  192.3720  170.7300  142.6000 C   0  0  2  0  0  3  0  0  0  0  0  0
  192.5100  176.4410  147.2530 O   0  0  0  0  0  0  0  0  0  0  0  0
  194.5810  170.0850  145.6070 C   0  0  0  0  0  2  0  0  0  0  0  0
  193.5320  169.8560  139.9000 C   0  0  0  0  0  2  0  0  0  0  0  0
  194.8580  173.4350  143.7230 C   0  0  2  0  0  3  0  0  0  0  0  0
  191.0050  170.6690  142.9100 O   0  0  0  0  0  0  0  0  0  0  0  0
  196.9690  170.4210  146.1390 C   0  0  0  0  0  2  0  0  0  0  0  0
  196.7460  169.2880  147.1220 C   0  0  0  0  0  1  0  0  0  0  0  0
  4 27  1  6  0  0  0
  4  9  1  0  0  0  0
  6  2  1  6  0  0  0
  6 30  1  0  0  0  0
  6  7  1  0  0  0  0
  8  6  1  0  0  0  0
  9 12  1  0  0  0  0
  9 15  1  6  0  0  0
 10 13  1  1  0  0  0
 10 26  1  0  0  0  0
 12 24  1  1  0  0  0
 14 18  2  0  0  0  0
 15 29  1  0  0  0  0
 16  5  1  1  0  0  0
 16  1  1  0  0  0  0
 16 25  1  0  0  0  0
 17 33  1  0  0  0  0
 17 18  1  0  0  0  0
 18  8  1  0  0  0  0
 19 20  1  6  0  0  0
 19 12  1  0  0  0  0
 20 11  1  0  0  0  0
 21 35  1  0  0  0  0
 22 11  1  0  0  0  0
 23 21  1  6  0  0  0
 23  4  1  0  0  0  0
 24 31  2  0  0  0  0
 24  3  1  0  0  0  0
 25 32  1  0  0  0  0
 25 36  1  1  0  0  0
 26  7  1  6  0  0  0
 26 32  1  0  0  0  0
 27 23  1  0  0  0  0
 28 13  1  1  0  0  0
 28 19  1  0  0  0  0
 29  3  1  0  0  0  0
 30 35  1  1  0  0  0
 30 10  1  0  0  0  0
 33  2  1  0  0  0  0
 34 22  1  1  0  0  0
 34 28  1  0  0  0  0
 34  1  1  0  0  0  0
 36 37  1  0  0  0  0
M  END
>  <MODEL>
7

>  <REMARK>
 VINA RESULT:      -7.2      2.811      4.020
  Name = 
  1 active torsions:
  status: ('A' for Active; 'I' for Inactive)
    1  A    between atoms: C_11  and  C_26
                            x       y       z     vdW  Elec       q    Type
                         _______ _______ _______ _____ _____    ______ ____

>  <TORSDO>
F 1

$$$$
=
 OpenBabel11052419543D

 37 43  0  0  1  0  0  0  0  0999 V2000
  194.7830  172.7120  140.7120 O   0  0  0  0  0  0  0  0  0  0  0  0
  193.8960  174.8380  145.1640 C   0  0  0  0  0  2  0  0  0  0  0  0
  189.3740  173.2050  136.7740 O   0  0  0  0  0  0  0  0  0  0  0  0
  189.4050  173.3470  141.1130 C   0  0  1  0  0  3  0  0  0  0  0  0
  196.5520  172.2910  142.3080 C   0  0  0  0  0  1  0  0  0  0  0  0
  193.1300  175.7750  144.2170 C   0  0  2  0  0  0  0  0  0  0  0  0
  194.1530  176.4150  143.2680 C   0  0  0  0  0  2  0  0  0  0  0  0
  192.4300  176.8840  145.0250 C   0  0  0  0  0  2  0  0  0  0  0  0
  189.5990  173.5500  139.5990 C   0  0  1  0  0  3  0  0  0  0  0  0
  192.9870  174.6970  142.0940 C   0  0  1  0  0  3  0  0  0  0  0  0
  193.7210  170.0500  139.4500 S   0  0  0  0  0  0  0  0  0  0  0  0
  190.4190  172.4100  138.9480 C   0  0  2  0  0  3  0  0  0  0  0  0
  192.3050  174.1650  140.8380 C   0  0  0  0  0  2  0  0  0  0  0  0
  190.5470  176.7280  146.4440 O   0  0  0  0  0  0  0  0  0  0  0  0
  188.2700  173.7160  138.8580 C   0  0  0  0  0  2  0  0  0  0  0  0
  195.4930  173.2600  141.7970 C   0  0  1  0  0  3  0  0  0  0  0  0
  192.3150  175.2920  147.0620 C   0  0  0  0  0  2  0  0  0  0  0  0
  191.6630  176.3120  146.1810 C   0  0  0  0  0  0  0  0  0  0  0  0
  191.8620  172.0920  139.4330 C   0  0  2  0  0  3  0  0  0  0  0  0
  191.9900  170.5710  139.3660 C   0  0  0  0  0  2  0  0  0  0  0  0
  189.9570  174.7570  143.0610 C   0  0  0  0  0  2  0  0  0  0  0  0
  193.8010  170.5540  141.1870 C   0  0  0  0  0  2  0  0  0  0  0  0
  189.2780  174.7400  141.7100 C   0  0  2  0  0  3  0  0  0  0  0  0
  190.3740  172.4810  137.4300 C   0  0  0  0  0  0  0  0  0  0  0  0
  196.0720  174.6550  141.4860 C   0  0  2  0  0  3  0  0  0  0  0  0
  193.8140  175.9240  141.8710 C   0  0  2  0  0  3  0  0  0  0  0  0
  188.0830  173.8210  141.7020 C   0  0  0  0  0  2  0  0  0  0  0  0
  192.3080  172.6300  140.8170 C   0  0  1  0  0  3  0  0  0  0  0  0
  188.5630  174.1650  137.4410 C   0  0  0  0  0  2  0  0  0  0  0  0
  192.1620  174.9480  143.3390 C   0  0  2  0  0  3  0  0  0  0  0  0
  191.1940  171.8210  136.7380 O   0  0  0  0  0  0  0  0  0  0  0  0
  195.0300  175.6610  140.9730 C   0  0  0  0  0  2  0  0  0  0  0  0
  192.9680  174.2110  146.2040 C   0  0  0  0  0  2  0  0  0  0  0  0
  193.6770  172.0680  141.2970 C   0  0  2  0  0  3  0  0  0  0  0  0
  191.0060  175.6790  143.0250 O   0  0  0  0  0  0  0  0  0  0  0  0
  197.1900  174.5820  140.4520 C   0  0  0  0  0  2  0  0  0  0  0  0
  196.7760  175.2910  139.1770 C   0  0  0  0  0  1  0  0  0  0  0  0
  1 34  1  0  0  0  0
  1 16  1  0  0  0  0
  2 33  1  0  0  0  0
  3 24  1  0  0  0  0
  3 29  1  0  0  0  0
  4 27  1  6  0  0  0
  4 23  1  0  0  0  0
  6  7  1  6  0  0  0
  6  8  1  0  0  0  0
  6  2  1  0  0  0  0
  8 18  1  0  0  0  0
  9 15  1  6  0  0  0
  9  4  1  0  0  0  0
 10 13  1  6  0  0  0
 10 30  1  0  0  0  0
 11 22  1  0  0  0  0
 12 24  1  6  0  0  0
 12 19  1  0  0  0  0
 12  9  1  0  0  0  0
 16  5  1  6  0  0  0
 18 14  2  0  0  0  0
 18 17  1  0  0  0  0
 19 20  1  1  0  0  0
 19 28  1  0  0  0  0
 20 11  1  0  0  0  0
 23 27  1  1  0  0  0
 23 21  1  0  0  0  0
 25 36  1  6  0  0  0
 25 16  1  0  0  0  0
 26 32  1  6  0  0  0
 26 10  1  0  0  0  0
 26  7  1  0  0  0  0
 28 13  1  6  0  0  0
 28 34  1  0  0  0  0
 29 15  1  0  0  0  0
 30 35  1  6  0  0  0
 30  6  1  0  0  0  0
 31 24  2  0  0  0  0
 32 25  1  0  0  0  0
 33 17  1  0  0  0  0
 34 22  1  6  0  0  0
 35 21  1  0  0  0  0
 37 36  1  0  0  0  0
M  END
>  <MODEL>
8

>  <REMARK>
 VINA RESULT:      -6.9      2.699      6.963
  Name = 
  1 active torsions:
  status: ('A' for Active; 'I' for Inactive)
    1  A    between atoms: C_11  and  C_26
                            x       y       z     vdW  Elec       q    Type
                         _______ _______ _______ _____ _____    ______ ____

>  <TORSDO>
F 1

$$$$
=
 OpenBabel11052419543D

 37 43  0  0  1  0  0  0  0  0999 V2000
  193.3640  172.9830  139.0550 O   0  0  0  0  0  0  0  0  0  0  0  0
  196.7400  172.7550  142.7520 C   0  0  0  0  0  2  0  0  0  0  0  0
  187.7530  175.9720  141.2000 O   0  0  0  0  0  0  0  0  0  0  0  0
  190.7020  173.9740  143.6830 C   0  0  1  0  0  3  0  0  0  0  0  0
  195.2830  171.6300  138.4730 C   0  0  0  0  0  1  0  0  0  0  0  0
  196.0820  174.1180  143.0190 C   0  0  2  0  0  0  0  0  0  0  0  0
  196.3580  175.0130  141.8020 C   0  0  0  0  0  2  0  0  0  0  0  0
  196.7010  174.7660  144.2720 C   0  0  0  0  0  2  0  0  0  0  0  0
  189.9100  174.8650  142.7080 C   0  0  1  0  0  3  0  0  0  0  0  0
  194.1040  174.2380  141.6910 C   0  0  1  0  0  3  0  0  0  0  0  0
  190.6850  171.4220  138.6080 S   0  0  0  0  0  0  0  0  0  0  0  0
  189.4520  174.0990  141.4430 C   0  0  2  0  0  3  0  0  0  0  0  0
  192.6260  174.4720  141.4010 C   0  0  0  0  0  2  0  0  0  0  0  0
  196.4410  174.1620  146.5420 O   0  0  0  0  0  0  0  0  0  0  0  0
  188.7020  175.5280  143.3740 C   0  0  0  0  0  2  0  0  0  0  0  0
  194.7540  172.8430  139.2280 C   0  0  1  0  0  3  0  0  0  0  0  0
  197.2540  172.4090  145.1860 C   0  0  0  0  0  2  0  0  0  0  0  0
  196.7470  173.7980  145.4180 C   0  0  0  0  0  0  0  0  0  0  0  0
  190.4910  173.4170  140.5080 C   0  0  2  0  0  3  0  0  0  0  0  0
  189.8320  172.1190  140.0440 C   0  0  0  0  0  2  0  0  0  0  0  0
  192.9600  174.1770  144.6580 C   0  0  0  0  0  2  0  0  0  0  0  0
  192.1100  171.0010  139.6440 C   0  0  0  0  0  2  0  0  0  0  0  0
  191.6530  174.9030  144.4220 C   0  0  2  0  0  3  0  0  0  0  0  0
  188.4560  174.9070  140.6270 C   0  0  0  0  0  0  0  0  0  0  0  0
  195.5280  174.1330  138.8880 C   0  0  2  0  0  3  0  0  0  0  0  0
  195.0090  175.3110  141.1690 C   0  0  2  0  0  3  0  0  0  0  0  0
  190.5170  174.2530  145.1690 C   0  0  0  0  0  2  0  0  0  0  0  0
  191.9160  173.1540  141.0600 C   0  0  1  0  0  3  0  0  0  0  0  0
  188.1450  176.5720  142.4290 C   0  0  0  0  0  2  0  0  0  0  0  0
  194.5480  173.9460  143.1090 C   0  0  2  0  0  3  0  0  0  0  0  0
  188.1890  174.5760  139.4410 O   0  0  0  0  0  0  0  0  0  0  0  0
  195.0240  175.3760  139.6360 C   0  0  0  0  0  2  0  0  0  0  0  0
  196.5870  171.8150  143.9490 C   0  0  0  0  0  2  0  0  0  0  0  0
  192.7960  172.2710  140.1280 C   0  0  2  0  0  3  0  0  0  0  0  0
  193.9820  174.8690  144.0020 O   0  0  0  0  0  0  0  0  0  0  0  0
  195.4800  174.4420  137.3960 C   0  0  0  0  0  2  0  0  0  0  0  0
  196.6720  175.2900  136.9950 C   0  0  0  0  0  1  0  0  0  0  0  0
  1 16  1  0  0  0  0
  1 34  1  0  0  0  0
  2  6  1  0  0  0  0
  2 33  1  0  0  0  0
  3 29  1  0  0  0  0
  4 23  1  0  0  0  0
  4 27  1  1  0  0  0
  6  7  1  6  0  0  0
  6 30  1  0  0  0  0
  6  8  1  0  0  0  0
  8 18  1  0  0  0  0
  9 15  1  1  0  0  0
  9  4  1  0  0  0  0
 10 13  1  1  0  0  0
 10 30  1  0  0  0  0
 11 22  1  0  0  0  0
 11 20  1  0  0  0  0
 12 24  1  6  0  0  0
 12  9  1  0  0  0  0
 16  5  1  6  0  0  0
 17 18  1  0  0  0  0
 18 14  2  0  0  0  0
 19 20  1  1  0  0  0
 19 28  1  0  0  0  0
 19 12  1  0  0  0  0
 23 21  1  1  0  0  0
 23 27  1  0  0  0  0
 24  3  1  0  0  0  0
 25 36  1  6  0  0  0
 25 16  1  0  0  0  0
 25 32  1  0  0  0  0
 26 32  1  6  0  0  0
 26 10  1  0  0  0  0
 26  7  1  0  0  0  0
 28 13  1  6  0  0  0
 29 15  1  0  0  0  0
 30 35  1  1  0  0  0
 31 24  2  0  0  0  0
 33 17  1  0  0  0  0
 34 22  1  6  0  0  0
 34 28  1  0  0  0  0
 35 21  1  0  0  0  0
 37 36  1  0  0  0  0
M  END
>  <MODEL>
9

>  <REMARK>
 VINA RESULT:      -6.7      3.106      6.796
  Name = 
  1 active torsions:
  status: ('A' for Active; 'I' for Inactive)
    1  A    between atoms: C_11  and  C_26
                            x       y       z     vdW  Elec       q    Type
                         _______ _______ _______ _____ _____    ______ ____

>  <TORSDO>
F 1

$$$$
