=
 OpenBabel11052417543D

 31 34  0  0  1  0  0  0  0  0999 V2000
  185.8510  178.1170  141.1480 C   0  0  0  0  0  0  0  0  0  0  0  0
  187.4750  176.7150  144.2050 C   0  0  0  0  0  0  0  0  0  0  0  0
  186.7870  177.4840  145.3270 C   0  0  1  0  0  3  0  0  0  0  0  0
  184.4590  177.5100  146.3520 C   0  0  0  0  0  3  0  0  0  0  0  0
  187.1330  176.9500  142.8550 C   0  0  0  0  0  0  0  0  0  0  0  0
  186.4850  177.3700  140.1530 C   0  0  0  0  0  3  0  0  0  0  0  0
  185.3140  177.1500  145.3760 C   0  0  0  0  0  3  0  0  0  0  0  0
  189.1020  175.0650  143.4450 C   0  0  0  0  0  0  0  0  0  0  0  0
  184.9190  179.0410  140.8120 F   0  0  0  0  0  0  0  0  0  0  0  0
  188.8740  176.8770  146.6810 C   0  0  0  0  0  2  0  0  0  0  0  0
  184.8190  178.2250  147.6310 C   0  0  0  0  0  2  0  0  0  0  0  0
  188.7220  175.2900  142.1600 N   0  0  0  0  0  0  0  0  0  0  0  0
  188.5010  175.7860  144.4940 C   0  0  0  0  0  0  0  0  0  0  0  0
  186.1730  177.9080  142.4920 C   0  0  0  0  0  3  0  0  0  0  0  0
  185.9150  179.2660  147.4390 C   0  0  0  0  0  2  0  0  0  0  0  0
  187.7770  176.2080  141.8400 C   0  0  0  0  0  0  0  0  0  0  0  0
  187.4460  176.4180  140.4970 C   0  0  0  0  0  3  0  0  0  0  0  0
  188.9490  175.5710  145.9110 C   0  0  0  0  0  2  0  0  0  0  0  0
  187.4250  177.3320  146.7220 C   0  0  1  0  0  3  0  0  0  0  0  0
  187.3060  178.6300  147.5210 C   0  0  0  0  0  2  0  0  0  0  0  0
  190.1410  174.0220  143.7130 C   0  0  0  0  0  2  0  0  0  0  0  0
  191.3920  173.9820  141.7220 O   0  0  0  0  0  0  0  0  0  0  0  0
  191.3670  174.2910  142.9030 C   0  0  0  0  0  0  0  0  0  0  0  0
  193.7870  174.8080  142.6590 C   0  0  0  0  0  1  0  0  0  0  0  0
  192.5680  174.9010  143.5610 C   0  0  1  0  0  3  0  0  0  0  0  0
  191.7680  177.2040  143.0430 O   0  0  0  0  0  1  0  0  0  0  0  0
  192.3070  176.3200  143.9720 C   0  0  0  0  0  0  0  0  0  0  0  0
  192.5550  176.7730  145.2060 C   0  0  0  0  0  3  0  0  0  0  0  0
  193.1130  176.0020  146.3320 C   0  0  0  0  0  0  0  0  0  0  0  0
  192.1830  175.2740  147.2330 C   0  0  0  0  0  1  0  0  0  0  0  0
  194.3530  175.9450  146.5500 O   0  0  0  0  0  0  0  0  0  0  0  0
  1 14  1  0  0  0  0
  2 13  2  0  0  0  0
  2  3  1  0  0  0  0
  3  7  1  1  0  0  0
  3 19  1  0  0  0  0
  4 11  1  0  0  0  0
  5  2  1  0  0  0  0
  6 17  1  0  0  0  0
  6  1  2  0  0  0  0
  7  4  2  0  0  0  0
  8 21  1  0  0  0  0
  8 13  1  0  0  0  0
  9  1  1  0  0  0  0
 12  8  2  0  0  0  0
 13 18  1  0  0  0  0
 14  5  2  0  0  0  0
 15 20  1  0  0  0  0
 15 11  1  0  0  0  0
 16 12  1  0  0  0  0
 16  5  1  0  0  0  0
 17 16  2  0  0  0  0
 18 10  1  0  0  0  0
 19 10  1  6  0  0  0
 19 20  1  0  0  0  0
 22 23  2  0  0  0  0
 23 25  1  0  0  0  0
 23 21  1  0  0  0  0
 25 24  1  6  0  0  0
 25 27  1  0  0  0  0
 26 27  1  0  0  0  0
 27 28  2  0  0  0  0
 28 29  1  0  0  0  0
 29 31  2  0  0  0  0
 29 30  1  0  0  0  0
M  END
>  <MODEL>
1

>  <REMARK>
 VINA RESULT:      -8.1      0.000      0.000
  Name = 
  5 active torsions:
  status: ('A' for Active; 'I' for Inactive)
    1  A    between atoms: C_1  and  C_24
    2  A    between atoms: C_9  and  C_22
    3  A    between atoms: C_9  and  C_23
    4  A    between atoms: C_15  and  C_23
    5  A    between atoms: C_19  and  C_22
                            x       y       z     vdW  Elec       q    Type
                         _______ _______ _______ _____ _____    ______ ____

>  <TORSDO>
F 5

$$$$
=
 OpenBabel11052417543D

 31 34  0  0  1  0  0  0  0  0999 V2000
  186.3150  177.7180  141.2770 C   0  0  0  0  0  0  0  0  0  0  0  0
  187.5750  176.4710  144.5640 C   0  0  0  0  0  0  0  0  0  0  0  0
  186.8370  177.3590  145.5590 C   0  0  1  0  0  3  0  0  0  0  0  0
  184.4320  177.5860  146.3580 C   0  0  0  0  0  3  0  0  0  0  0  0
  187.3690  176.6200  143.1750 C   0  0  0  0  0  0  0  0  0  0  0  0
  186.9900  176.8650  140.4000 C   0  0  0  0  0  3  0  0  0  0  0  0
  185.3480  177.1080  145.4940 C   0  0  0  0  0  3  0  0  0  0  0  0
  189.1630  174.6850  144.0790 C   0  0  0  0  0  0  0  0  0  0  0  0
  185.4740  178.6600  140.7900 F   0  0  0  0  0  0  0  0  0  0  0  0
  188.7550  176.7500  147.1410 C   0  0  0  0  0  2  0  0  0  0  0  0
  184.7180  178.3760  147.6110 C   0  0  0  0  0  2  0  0  0  0  0  0
  188.9130  174.8300  142.7520 N   0  0  0  0  0  0  0  0  0  0  0  0
  188.5150  175.5150  145.0130 C   0  0  0  0  0  0  0  0  0  0  0  0
  186.5030  177.5960  142.6560 C   0  0  0  0  0  3  0  0  0  0  0  0
  185.8860  179.3410  147.4480 C   0  0  0  0  0  2  0  0  0  0  0  0
  188.0560  175.7690  142.2790 C   0  0  0  0  0  0  0  0  0  0  0  0
  187.8590  175.8930  140.9000 C   0  0  0  0  0  3  0  0  0  0  0  0
  188.8210  175.3870  146.4770 C   0  0  0  0  0  2  0  0  0  0  0  0
  187.3380  177.2820  147.0150 C   0  0  1  0  0  3  0  0  0  0  0  0
  187.2250  178.6420  147.7040 C   0  0  0  0  0  2  0  0  0  0  0  0
  190.1110  173.6140  144.5160 C   0  0  0  0  0  2  0  0  0  0  0  0
  192.2100  173.4500  143.4670 O   0  0  0  0  0  0  0  0  0  0  0  0
  191.5230  174.0430  144.2850 C   0  0  0  0  0  0  0  0  0  0  0  0
  192.7170  174.6610  146.3760 C   0  0  0  0  0  1  0  0  0  0  0  0
  192.0930  175.1720  145.0890 C   0  0  1  0  0  3  0  0  0  0  0  0
  194.4120  175.5700  144.2660 O   0  0  0  0  0  1  0  0  0  0  0  0
  193.0800  175.9700  144.2890 C   0  0  0  0  0  0  0  0  0  0  0  0
  192.7310  177.0480  143.5790 C   0  0  0  0  0  3  0  0  0  0  0  0
  191.3800  177.6280  143.4630 C   0  0  0  0  0  0  0  0  0  0  0  0
  190.7930  178.3170  144.6410 C   0  0  0  0  0  1  0  0  0  0  0  0
  190.7130  177.5560  142.3970 O   0  0  0  0  0  0  0  0  0  0  0  0
  1 14  1  0  0  0  0
  2 13  2  0  0  0  0
  2  3  1  0  0  0  0
  3  7  1  1  0  0  0
  3 19  1  0  0  0  0
  4 11  1  0  0  0  0
  5  2  1  0  0  0  0
  6 17  1  0  0  0  0
  6  1  2  0  0  0  0
  7  4  2  0  0  0  0
  8 21  1  0  0  0  0
  8 13  1  0  0  0  0
  9  1  1  0  0  0  0
 12  8  2  0  0  0  0
 13 18  1  0  0  0  0
 14  5  2  0  0  0  0
 15 11  1  0  0  0  0
 15 20  1  0  0  0  0
 16 12  1  0  0  0  0
 16  5  1  0  0  0  0
 17 16  2  0  0  0  0
 18 10  1  0  0  0  0
 19 10  1  6  0  0  0
 19 20  1  0  0  0  0
 22 23  2  0  0  0  0
 23 21  1  0  0  0  0
 23 25  1  0  0  0  0
 25 24  1  1  0  0  0
 26 27  1  0  0  0  0
 27 25  1  0  0  0  0
 28 27  2  0  0  0  0
 29 28  1  0  0  0  0
 29 30  1  0  0  0  0
 31 29  2  0  0  0  0
M  END
>  <MODEL>
2

>  <REMARK>
 VINA RESULT:      -8.0      1.040      1.880
  Name = 
  5 active torsions:
  status: ('A' for Active; 'I' for Inactive)
    1  A    between atoms: C_1  and  C_24
    2  A    between atoms: C_9  and  C_22
    3  A    between atoms: C_9  and  C_23
    4  A    between atoms: C_15  and  C_23
    5  A    between atoms: C_19  and  C_22
                            x       y       z     vdW  Elec       q    Type
                         _______ _______ _______ _____ _____    ______ ____

>  <TORSDO>
F 5

$$$$
=
 OpenBabel11052417543D

 31 34  0  0  1  0  0  0  0  0999 V2000
  190.5160  172.5590  141.5510 C   0  0  0  0  0  0  0  0  0  0  0  0
  190.2260  175.7570  143.4580 C   0  0  0  0  0  0  0  0  0  0  0  0
  191.4670  175.7280  144.3430 C   0  0  1  0  0  3  0  0  0  0  0  0
  193.9730  175.9620  143.9700 C   0  0  0  0  0  3  0  0  0  0  0  0
  189.9590  174.7040  142.5570 C   0  0  0  0  0  0  0  0  0  0  0  0
  189.3830  172.6390  140.7380 C   0  0  0  0  0  3  0  0  0  0  0  0
  192.7220  175.7870  143.5030 C   0  0  0  0  0  3  0  0  0  0  0  0
  188.1730  176.8400  142.7100 C   0  0  0  0  0  0  0  0  0  0  0  0
  191.3400  171.4880  141.4610 F   0  0  0  0  0  0  0  0  0  0  0  0
  190.1440  177.3470  145.8200 C   0  0  0  0  0  2  0  0  0  0  0  0
  194.3570  176.2350  145.4030 C   0  0  0  0  0  2  0  0  0  0  0  0
  187.9670  175.8280  141.8280 N   0  0  0  0  0  0  0  0  0  0  0  0
  189.2970  176.8180  143.5580 C   0  0  0  0  0  0  0  0  0  0  0  0
  190.8030  173.5850  142.4560 C   0  0  0  0  0  3  0  0  0  0  0  0
  193.4910  175.4780  146.4020 C   0  0  0  0  0  2  0  0  0  0  0  0
  188.8090  174.7700  141.7380 C   0  0  0  0  0  0  0  0  0  0  0  0
  188.5310  173.7410  140.8310 C   0  0  0  0  0  3  0  0  0  0  0  0
  189.5050  177.9130  144.5640 C   0  0  0  0  0  2  0  0  0  0  0  0
  191.5100  176.7900  145.4590 C   0  0  1  0  0  3  0  0  0  0  0  0
  192.1990  176.2410  146.7090 C   0  0  0  0  0  2  0  0  0  0  0  0
  187.2030  177.9790  142.7340 C   0  0  0  0  0  2  0  0  0  0  0  0
  185.6350  176.7300  143.9640 O   0  0  0  0  0  0  0  0  0  0  0  0
  186.2160  177.7970  143.8400 C   0  0  0  0  0  0  0  0  0  0  0  0
  185.5840  180.1980  143.9770 C   0  0  0  0  0  1  0  0  0  0  0  0
  185.9210  178.9420  144.7620 C   0  0  1  0  0  3  0  0  0  0  0  0
  183.5020  178.7930  145.3480 O   0  0  0  0  0  1  0  0  0  0  0  0
  184.8260  178.5980  145.7290 C   0  0  0  0  0  0  0  0  0  0  0  0
  185.0670  178.0930  146.9440 C   0  0  0  0  0  3  0  0  0  0  0  0
  186.3870  177.8040  147.5330 C   0  0  0  0  0  0  0  0  0  0  0  0
  187.0000  176.4710  147.2980 C   0  0  0  0  0  1  0  0  0  0  0  0
  187.0070  178.6530  148.2270 O   0  0  0  0  0  0  0  0  0  0  0  0
  1 14  1  0  0  0  0
  2 13  2  0  0  0  0
  2  3  1  0  0  0  0
  3  7  1  6  0  0  0
  3 19  1  0  0  0  0
  4 11  1  0  0  0  0
  5  2  1  0  0  0  0
  6 17  1  0  0  0  0
  6  1  2  0  0  0  0
  7  4  2  0  0  0  0
  8 21  1  0  0  0  0
  8 13  1  0  0  0  0
  9  1  1  0  0  0  0
 11 15  1  0  0  0  0
 12  8  2  0  0  0  0
 13 18  1  0  0  0  0
 14  5  2  0  0  0  0
 15 20  1  0  0  0  0
 16 12  1  0  0  0  0
 16  5  1  0  0  0  0
 17 16  2  0  0  0  0
 18 10  1  0  0  0  0
 19 10  1  1  0  0  0
 19 20  1  0  0  0  0
 21 23  1  0  0  0  0
 23 22  2  0  0  0  0
 23 25  1  0  0  0  0
 25 24  1  6  0  0  0
 25 27  1  0  0  0  0
 26 27  1  0  0  0  0
 27 28  2  0  0  0  0
 28 29  1  0  0  0  0
 29 31  2  0  0  0  0
 30 29  1  0  0  0  0
M  END
>  <MODEL>
3

>  <REMARK>
 VINA RESULT:      -7.9      3.306      6.464
  Name = 
  5 active torsions:
  status: ('A' for Active; 'I' for Inactive)
    1  A    between atoms: C_1  and  C_24
    2  A    between atoms: C_9  and  C_22
    3  A    between atoms: C_9  and  C_23
    4  A    between atoms: C_15  and  C_23
    5  A    between atoms: C_19  and  C_22
                            x       y       z     vdW  Elec       q    Type
                         _______ _______ _______ _____ _____    ______ ____

>  <TORSDO>
F 5

$$$$
=
 OpenBabel11052417543D

 31 34  0  0  1  0  0  0  0  0999 V2000
  186.0950  177.9290  141.2230 C   0  0  0  0  0  0  0  0  0  0  0  0
  187.5870  176.6750  144.4090 C   0  0  0  0  0  0  0  0  0  0  0  0
  186.8370  177.4790  145.4640 C   0  0  1  0  0  3  0  0  0  0  0  0
  184.4610  177.5150  146.3750 C   0  0  0  0  0  3  0  0  0  0  0  0
  187.3070  176.8500  143.0360 C   0  0  0  0  0  0  0  0  0  0  0  0
  186.7850  177.1520  140.2900 C   0  0  0  0  0  3  0  0  0  0  0  0
  185.3660  177.1280  145.4560 C   0  0  0  0  0  3  0  0  0  0  0  0
  189.2680  175.0180  143.7950 C   0  0  0  0  0  0  0  0  0  0  0  0
  185.1710  178.8260  140.8050 F   0  0  0  0  0  0  0  0  0  0  0  0
  188.8620  176.9560  146.9400 C   0  0  0  0  0  2  0  0  0  0  0  0
  184.7510  178.2860  147.6390 C   0  0  0  0  0  2  0  0  0  0  0  0
  188.9480  175.1850  142.4860 N   0  0  0  0  0  0  0  0  0  0  0  0
  188.6080  175.7720  144.7840 C   0  0  0  0  0  0  0  0  0  0  0  0
  186.3550  177.7800  142.5880 C   0  0  0  0  0  3  0  0  0  0  0  0
  185.8430  179.3330  147.4570 C   0  0  0  0  0  2  0  0  0  0  0  0
  188.0080  176.0760  142.0830 C   0  0  0  0  0  0  0  0  0  0  0  0
  187.7400  176.2270  140.7190 C   0  0  0  0  0  3  0  0  0  0  0  0
  188.9900  175.6210  146.2290 C   0  0  0  0  0  2  0  0  0  0  0  0
  187.4080  177.3930  146.8930 C   0  0  1  0  0  3  0  0  0  0  0  0
  187.2350  178.7210  147.6320 C   0  0  0  0  0  2  0  0  0  0  0  0
  190.3040  174.0010  144.1550 C   0  0  0  0  0  2  0  0  0  0  0  0
  191.7250  173.4900  142.3520 O   0  0  0  0  0  0  0  0  0  0  0  0
  191.5330  174.1980  143.3290 C   0  0  0  0  0  0  0  0  0  0  0  0
  192.0910  176.6200  143.2970 C   0  0  0  0  0  1  0  0  0  0  0  0
  192.5370  175.2350  143.7330 C   0  0  1  0  0  3  0  0  0  0  0  0
  192.2070  176.1410  146.0320 O   0  0  0  0  0  1  0  0  0  0  0  0
  192.8050  175.1930  145.2090 C   0  0  0  0  0  0  0  0  0  0  0  0
  193.5870  174.2670  145.7740 C   0  0  0  0  0  3  0  0  0  0  0  0
  194.3030  173.1770  145.0860 C   0  0  0  0  0  0  0  0  0  0  0  0
  193.7100  171.8150  145.0930 C   0  0  0  0  0  1  0  0  0  0  0  0
  195.3990  173.3680  144.4960 O   0  0  0  0  0  0  0  0  0  0  0  0
  1 14  1  0  0  0  0
  2 13  2  0  0  0  0
  2  3  1  0  0  0  0
  3  7  1  1  0  0  0
  3 19  1  0  0  0  0
  4 11  1  0  0  0  0
  5  2  1  0  0  0  0
  6 17  1  0  0  0  0
  6  1  2  0  0  0  0
  7  4  2  0  0  0  0
  8 21  1  0  0  0  0
  8 13  1  0  0  0  0
  9  1  1  0  0  0  0
 12  8  2  0  0  0  0
 13 18  1  0  0  0  0
 14  5  2  0  0  0  0
 15 20  1  0  0  0  0
 15 11  1  0  0  0  0
 16 12  1  0  0  0  0
 16  5  1  0  0  0  0
 17 16  2  0  0  0  0
 18 10  1  0  0  0  0
 19 10  1  6  0  0  0
 19 20  1  0  0  0  0
 22 23  2  0  0  0  0
 23 25  1  0  0  0  0
 23 21  1  0  0  0  0
 25 24  1  1  0  0  0
 25 27  1  0  0  0  0
 27 28  2  0  0  0  0
 27 26  1  0  0  0  0
 29 30  1  0  0  0  0
 29 28  1  0  0  0  0
 31 29  2  0  0  0  0
M  END
>  <MODEL>
4

>  <REMARK>
 VINA RESULT:      -7.6      1.236      1.526
  Name = 
  5 active torsions:
  status: ('A' for Active; 'I' for Inactive)
    1  A    between atoms: C_1  and  C_24
    2  A    between atoms: C_9  and  C_22
    3  A    between atoms: C_9  and  C_23
    4  A    between atoms: C_15  and  C_23
    5  A    between atoms: C_19  and  C_22
                            x       y       z     vdW  Elec       q    Type
                         _______ _______ _______ _____ _____    ______ ____

>  <TORSDO>
F 5

$$$$
=
 OpenBabel11052417543D

 31 34  0  0  1  0  0  0  0  0999 V2000
  190.1370  173.6140  140.5520 C   0  0  0  0  0  0  0  0  0  0  0  0
  191.0190  175.4670  143.6720 C   0  0  0  0  0  0  0  0  0  0  0  0
  192.4710  175.0610  143.8970 C   0  0  1  0  0  3  0  0  0  0  0  0
  194.6940  175.5490  142.7590 C   0  0  0  0  0  3  0  0  0  0  0  0
  190.2980  174.9750  142.5630 C   0  0  0  0  0  0  0  0  0  0  0  0
  188.8170  174.0340  140.3670 C   0  0  0  0  0  3  0  0  0  0  0  0
  193.3480  175.5720  142.7770 C   0  0  0  0  0  3  0  0  0  0  0  0
  189.0240  176.6930  144.3530 C   0  0  0  0  0  0  0  0  0  0  0  0
  190.7050  172.7570  139.6700 F   0  0  0  0  0  0  0  0  0  0  0  0
  192.0090  175.7030  146.3330 C   0  0  0  0  0  2  0  0  0  0  0  0
  195.5910  175.1050  143.8880 C   0  0  0  0  0  2  0  0  0  0  0  0
  188.3720  176.2300  143.2550 N   0  0  0  0  0  0  0  0  0  0  0  0
  190.3560  176.3060  144.5960 C   0  0  0  0  0  0  0  0  0  0  0  0
  190.8730  174.0820  141.6430 C   0  0  0  0  0  3  0  0  0  0  0  0
  195.0240  173.9230  144.6650 C   0  0  0  0  0  2  0  0  0  0  0  0
  188.9590  175.3840  142.3720 C   0  0  0  0  0  0  0  0  0  0  0  0
  188.2290  174.9160  141.2750 C   0  0  0  0  0  3  0  0  0  0  0  0
  191.0660  176.7810  145.8310 C   0  0  0  0  0  2  0  0  0  0  0  0
  193.0620  175.4470  145.2680 C   0  0  1  0  0  3  0  0  0  0  0  0
  194.0520  174.3880  145.7540 C   0  0  0  0  0  2  0  0  0  0  0  0
  188.3080  177.6360  145.2670 C   0  0  0  0  0  2  0  0  0  0  0  0
  187.4420  176.0430  146.7660 O   0  0  0  0  0  0  0  0  0  0  0  0
  187.1920  176.9330  145.9670 C   0  0  0  0  0  0  0  0  0  0  0  0
  184.8190  176.7170  146.6780 C   0  0  0  0  0  1  0  0  0  0  0  0
  185.7730  177.3010  145.6510 C   0  0  1  0  0  3  0  0  0  0  0  0
  185.7980  179.5760  146.6710 O   0  0  0  0  0  1  0  0  0  0  0  0
  185.6050  178.7890  145.5410 C   0  0  0  0  0  0  0  0  0  0  0  0
  185.2910  179.3970  144.3920 C   0  0  0  0  0  3  0  0  0  0  0  0
  185.0550  178.7510  143.0880 C   0  0  0  0  0  0  0  0  0  0  0  0
  186.1750  178.6660  142.1170 C   0  0  0  0  0  1  0  0  0  0  0  0
  183.9320  178.2720  142.7760 O   0  0  0  0  0  0  0  0  0  0  0  0
  1 14  1  0  0  0  0
  2  3  1  0  0  0  0
  2 13  2  0  0  0  0
  3  7  1  6  0  0  0
  3 19  1  0  0  0  0
  4  7  2  0  0  0  0
  4 11  1  0  0  0  0
  5  2  1  0  0  0  0
  6  1  2  0  0  0  0
  6 17  1  0  0  0  0
  8 13  1  0  0  0  0
  8 21  1  0  0  0  0
  9  1  1  0  0  0  0
 11 15  1  0  0  0  0
 12  8  2  0  0  0  0
 13 18  1  0  0  0  0
 14  5  2  0  0  0  0
 15 20  1  0  0  0  0
 16  5  1  0  0  0  0
 16 12  1  0  0  0  0
 17 16  2  0  0  0  0
 18 10  1  0  0  0  0
 19 20  1  1  0  0  0
 19 10  1  0  0  0  0
 21 23  1  0  0  0  0
 23 22  2  0  0  0  0
 25 23  1  0  0  0  0
 25 24  1  1  0  0  0
 27 25  1  0  0  0  0
 27 26  1  0  0  0  0
 28 27  2  0  0  0  0
 29 28  1  0  0  0  0
 30 29  1  0  0  0  0
 31 29  2  0  0  0  0
M  END
>  <MODEL>
5

>  <REMARK>
 VINA RESULT:      -7.5      3.085      7.036
  Name = 
  5 active torsions:
  status: ('A' for Active; 'I' for Inactive)
    1  A    between atoms: C_1  and  C_24
    2  A    between atoms: C_9  and  C_22
    3  A    between atoms: C_9  and  C_23
    4  A    between atoms: C_15  and  C_23
    5  A    between atoms: C_19  and  C_22
                            x       y       z     vdW  Elec       q    Type
                         _______ _______ _______ _____ _____    ______ ____

>  <TORSDO>
F 5

$$$$
=
 OpenBabel11052417543D

 31 34  0  0  1  0  0  0  0  0999 V2000
  194.1840  174.6560  145.5520 C   0  0  0  0  0  0  0  0  0  0  0  0
  190.8450  174.9950  143.9150 C   0  0  0  0  0  0  0  0  0  0  0  0
  190.8740  173.8840  142.8710 C   0  0  1  0  0  3  0  0  0  0  0  0
  190.7990  171.3410  142.9190 C   0  0  0  0  0  3  0  0  0  0  0  0
  191.9460  175.2070  144.7730 C   0  0  0  0  0  0  0  0  0  0  0  0
  194.1040  175.6670  146.5140 C   0  0  0  0  0  3  0  0  0  0  0  0
  190.9420  172.5290  143.5370 C   0  0  0  0  0  3  0  0  0  0  0  0
  189.7130  176.8630  145.0000 C   0  0  0  0  0  0  0  0  0  0  0  0
  195.3000  173.8940  145.4620 F   0  0  0  0  0  0  0  0  0  0  0  0
  189.0850  175.2870  141.6940 C   0  0  0  0  0  2  0  0  0  0  0  0
  190.4430  171.1310  141.4680 C   0  0  0  0  0  2  0  0  0  0  0  0
  190.7750  177.0140  145.8340 N   0  0  0  0  0  0  0  0  0  0  0  0
  189.7320  175.8620  144.0100 C   0  0  0  0  0  0  0  0  0  0  0  0
  193.1110  174.4270  144.6870 C   0  0  0  0  0  3  0  0  0  0  0  0
  191.0790  172.1650  140.5470 C   0  0  0  0  0  2  0  0  0  0  0  0
  191.8800  176.2340  145.7420 C   0  0  0  0  0  0  0  0  0  0  0  0
  192.9550  176.4540  146.6080 C   0  0  0  0  0  3  0  0  0  0  0  0
  188.5790  175.7200  143.0590 C   0  0  0  0  0  2  0  0  0  0  0  0
  189.7370  173.9210  141.8310 C   0  0  1  0  0  3  0  0  0  0  0  0
  190.2290  173.4360  140.4670 C   0  0  0  0  0  2  0  0  0  0  0  0
  188.5270  177.7550  145.1810 C   0  0  0  0  0  2  0  0  0  0  0  0
  187.7600  176.2620  146.8290 O   0  0  0  0  0  0  0  0  0  0  0  0
  187.4550  177.0470  145.9440 C   0  0  0  0  0  0  0  0  0  0  0  0
  185.0970  176.5060  146.5160 C   0  0  0  0  0  1  0  0  0  0  0  0
  186.0180  177.2790  145.5870 C   0  0  1  0  0  3  0  0  0  0  0  0
  185.5780  179.4110  146.8010 O   0  0  0  0  0  1  0  0  0  0  0  0
  185.6820  178.7410  145.5870 C   0  0  0  0  0  0  0  0  0  0  0  0
  185.4930  179.4380  144.4610 C   0  0  0  0  0  3  0  0  0  0  0  0
  185.5670  178.9230  143.0810 C   0  0  0  0  0  0  0  0  0  0  0  0
  184.3760  178.2490  142.5030 C   0  0  0  0  0  1  0  0  0  0  0  0
  186.6090  179.0380  142.3830 O   0  0  0  0  0  0  0  0  0  0  0  0
  1  6  1  0  0  0  0
  2 13  2  0  0  0  0
  2  5  1  0  0  0  0
  3  7  1  1  0  0  0
  3  2  1  0  0  0  0
  4  7  2  0  0  0  0
  5 16  2  0  0  0  0
  6 17  2  0  0  0  0
  8 21  1  0  0  0  0
  8 12  2  0  0  0  0
  9  1  1  0  0  0  0
 10 19  1  0  0  0  0
 10 18  1  0  0  0  0
 11  4  1  0  0  0  0
 13  8  1  0  0  0  0
 14  5  1  0  0  0  0
 14  1  2  0  0  0  0
 15 11  1  0  0  0  0
 16 12  1  0  0  0  0
 16 17  1  0  0  0  0
 18 13  1  0  0  0  0
 19 20  1  6  0  0  0
 19  3  1  0  0  0  0
 20 15  1  0  0  0  0
 21 23  1  0  0  0  0
 23 22  2  0  0  0  0
 25 27  1  0  0  0  0
 25 23  1  0  0  0  0
 25 24  1  1  0  0  0
 27 26  1  0  0  0  0
 28 27  2  0  0  0  0
 29 28  1  0  0  0  0
 30 29  1  0  0  0  0
 31 29  2  0  0  0  0
M  END
>  <MODEL>
6

>  <REMARK>
 VINA RESULT:      -7.4      3.503      7.720
  Name = 
  5 active torsions:
  status: ('A' for Active; 'I' for Inactive)
    1  A    between atoms: C_1  and  C_24
    2  A    between atoms: C_9  and  C_22
    3  A    between atoms: C_9  and  C_23
    4  A    between atoms: C_15  and  C_23
    5  A    between atoms: C_19  and  C_22
                            x       y       z     vdW  Elec       q    Type
                         _______ _______ _______ _____ _____    ______ ____

>  <TORSDO>
F 5

$$$$
=
 OpenBabel11052417543D

 31 34  0  0  1  0  0  0  0  0999 V2000
  185.9680  178.0710  141.2400 C   0  0  0  0  0  0  0  0  0  0  0  0
  187.5340  176.7220  144.3500 C   0  0  0  0  0  0  0  0  0  0  0  0
  186.8240  177.5080  145.4450 C   0  0  1  0  0  3  0  0  0  0  0  0
  184.4760  177.5490  146.4250 C   0  0  0  0  0  3  0  0  0  0  0  0
  187.2180  176.9340  142.9900 C   0  0  0  0  0  0  0  0  0  0  0  0
  186.6210  177.3090  140.2690 C   0  0  0  0  0  3  0  0  0  0  0  0
  185.3500  177.1740  145.4720 C   0  0  0  0  0  3  0  0  0  0  0  0
  189.1770  175.0610  143.6480 C   0  0  0  0  0  0  0  0  0  0  0  0
  185.0420  178.9880  140.8700 F   0  0  0  0  0  0  0  0  0  0  0  0
  188.8850  176.9260  146.8490 C   0  0  0  0  0  2  0  0  0  0  0  0
  184.8110  178.2850  147.6990 C   0  0  0  0  0  2  0  0  0  0  0  0
  188.8220  175.2640  142.3530 N   0  0  0  0  0  0  0  0  0  0  0  0
  188.5550  175.7990  144.6740 C   0  0  0  0  0  0  0  0  0  0  0  0
  186.2640  177.8850  142.5930 C   0  0  0  0  0  3  0  0  0  0  0  0
  185.9100  179.3240  147.5110 C   0  0  0  0  0  2  0  0  0  0  0  0
  187.8820  176.1760  141.9990 C   0  0  0  0  0  0  0  0  0  0  0  0
  187.5770  176.3630  140.6470 C   0  0  0  0  0  3  0  0  0  0  0  0
  188.9760  175.6080  146.1020 C   0  0  0  0  0  2  0  0  0  0  0  0
  187.4350  177.3810  146.8550 C   0  0  1  0  0  3  0  0  0  0  0  0
  187.3000  178.6920  147.6300 C   0  0  0  0  0  2  0  0  0  0  0  0
  190.2110  174.0240  143.9530 C   0  0  0  0  0  2  0  0  0  0  0  0
  188.8530  172.1560  143.5090 O   0  0  0  0  0  0  0  0  0  0  0  0
  189.8900  172.7470  143.2490 C   0  0  0  0  0  0  0  0  0  0  0  0
  190.8330  170.6660  142.2690 C   0  0  0  0  0  1  0  0  0  0  0  0
  190.8640  172.1850  142.2580 C   0  0  1  0  0  3  0  0  0  0  0  0
  189.4940  172.2870  140.1780 O   0  0  0  0  0  1  0  0  0  0  0  0
  190.6140  172.7210  140.8780 C   0  0  0  0  0  0  0  0  0  0  0  0
  191.4180  173.6170  140.2950 C   0  0  0  0  0  3  0  0  0  0  0  0
  192.6420  174.2070  140.8660 C   0  0  0  0  0  0  0  0  0  0  0  0
  193.9590  173.6430  140.4750 C   0  0  0  0  0  1  0  0  0  0  0  0
  192.6010  175.1730  141.6750 O   0  0  0  0  0  0  0  0  0  0  0  0
  1 14  1  0  0  0  0
  2 13  2  0  0  0  0
  2  3  1  0  0  0  0
  3  7  1  1  0  0  0
  3 19  1  0  0  0  0
  4 11  1  0  0  0  0
  5  2  1  0  0  0  0
  6 17  1  0  0  0  0
  6  1  2  0  0  0  0
  7  4  2  0  0  0  0
  8 21  1  0  0  0  0
  8 13  1  0  0  0  0
  9  1  1  0  0  0  0
 12  8  2  0  0  0  0
 13 18  1  0  0  0  0
 14  5  2  0  0  0  0
 15 20  1  0  0  0  0
 15 11  1  0  0  0  0
 16 12  1  0  0  0  0
 16  5  1  0  0  0  0
 17 16  2  0  0  0  0
 18 10  1  0  0  0  0
 19 10  1  6  0  0  0
 19 20  1  0  0  0  0
 23 22  2  0  0  0  0
 23 21  1  0  0  0  0
 25 24  1  6  0  0  0
 25 23  1  0  0  0  0
 26 27  1  0  0  0  0
 27 25  1  0  0  0  0
 28 29  1  0  0  0  0
 28 27  2  0  0  0  0
 29 31  2  0  0  0  0
 30 29  1  0  0  0  0
M  END
>  <MODEL>
7

>  <REMARK>
 VINA RESULT:      -7.3      1.838      2.934
  Name = 
  5 active torsions:
  status: ('A' for Active; 'I' for Inactive)
    1  A    between atoms: C_1  and  C_24
    2  A    between atoms: C_9  and  C_22
    3  A    between atoms: C_9  and  C_23
    4  A    between atoms: C_15  and  C_23
    5  A    between atoms: C_19  and  C_22
                            x       y       z     vdW  Elec       q    Type
                         _______ _______ _______ _____ _____    ______ ____

>  <TORSDO>
F 5

$$$$
=
 OpenBabel11052417543D

 31 34  0  0  1  0  0  0  0  0999 V2000
  193.3650  175.8730  144.3180 C   0  0  0  0  0  0  0  0  0  0  0  0
  190.1660  175.1130  142.5480 C   0  0  0  0  0  0  0  0  0  0  0  0
  190.4230  173.7200  141.9860 C   0  0  1  0  0  3  0  0  0  0  0  0
  190.6550  171.3800  142.9590 C   0  0  0  0  0  3  0  0  0  0  0  0
  191.1530  175.7760  143.3090 C   0  0  0  0  0  0  0  0  0  0  0  0
  193.0790  177.1370  144.8390 C   0  0  0  0  0  3  0  0  0  0  0  0
  190.5970  172.7170  143.1040 C   0  0  0  0  0  3  0  0  0  0  0  0
  188.7240  177.0590  142.8310 C   0  0  0  0  0  0  0  0  0  0  0  0
  194.5700  175.3000  144.5550 F   0  0  0  0  0  0  0  0  0  0  0  0
  188.5850  174.3310  140.3110 C   0  0  0  0  0  2  0  0  0  0  0  0
  190.4550  170.6150  141.6730 C   0  0  0  0  0  2  0  0  0  0  0  0
  189.6820  177.6520  143.5900 N   0  0  0  0  0  0  0  0  0  0  0  0
  188.9520  175.7850  142.2770 C   0  0  0  0  0  0  0  0  0  0  0  0
  192.4080  175.1960  143.5580 C   0  0  0  0  0  3  0  0  0  0  0  0
  191.0390  171.3320  140.4620 C   0  0  0  0  0  2  0  0  0  0  0  0
  190.8780  177.0600  143.8310 C   0  0  0  0  0  0  0  0  0  0  0  0
  191.8380  177.7300  144.5960 C   0  0  0  0  0  3  0  0  0  0  0  0
  187.9130  175.1450  141.4020 C   0  0  0  0  0  2  0  0  0  0  0  0
  189.3850  173.2160  140.9630 C   0  0  1  0  0  3  0  0  0  0  0  0
  190.0500  172.3520  139.8900 C   0  0  0  0  0  2  0  0  0  0  0  0
  187.4260  177.7740  142.6280 C   0  0  0  0  0  2  0  0  0  0  0  0
  185.6540  176.4960  143.4990 O   0  0  0  0  0  0  0  0  0  0  0  0
  186.4530  177.3980  143.6970 C   0  0  0  0  0  0  0  0  0  0  0  0
  185.5710  179.3990  144.8800 C   0  0  0  0  0  1  0  0  0  0  0  0
  186.4440  178.1600  144.9880 C   0  0  1  0  0  3  0  0  0  0  0  0
  184.6580  177.2060  146.4420 O   0  0  0  0  0  1  0  0  0  0  0  0
  186.0110  177.2930  146.1340 C   0  0  0  0  0  0  0  0  0  0  0  0
  186.8740  176.5800  146.8660 C   0  0  0  0  0  3  0  0  0  0  0  0
  188.3380  176.5250  146.6990 C   0  0  0  0  0  0  0  0  0  0  0  0
  188.9610  175.2520  146.2550 C   0  0  0  0  0  1  0  0  0  0  0  0
  189.0710  177.5250  146.9210 O   0  0  0  0  0  0  0  0  0  0  0  0
  1  9  1  0  0  0  0
  1  6  1  0  0  0  0
  2  5  1  0  0  0  0
  3  2  1  0  0  0  0
  3  7  1  1  0  0  0
  4  7  2  0  0  0  0
  5 14  1  0  0  0  0
  5 16  2  0  0  0  0
  8 12  2  0  0  0  0
 10 19  1  0  0  0  0
 10 18  1  0  0  0  0
 11  4  1  0  0  0  0
 12 16  1  0  0  0  0
 13  2  2  0  0  0  0
 13  8  1  0  0  0  0
 14  1  2  0  0  0  0
 15 11  1  0  0  0  0
 16 17  1  0  0  0  0
 17  6  2  0  0  0  0
 18 13  1  0  0  0  0
 19 20  1  6  0  0  0
 19  3  1  0  0  0  0
 20 15  1  0  0  0  0
 21  8  1  0  0  0  0
 21 23  1  0  0  0  0
 22 23  2  0  0  0  0
 23 25  1  0  0  0  0
 25 24  1  6  0  0  0
 25 27  1  0  0  0  0
 27 26  1  0  0  0  0
 27 28  2  0  0  0  0
 29 28  1  0  0  0  0
 29 31  2  0  0  0  0
 30 29  1  0  0  0  0
M  END
>  <MODEL>
8

>  <REMARK>
 VINA RESULT:      -7.3      3.365      7.017
  Name = 
  5 active torsions:
  status: ('A' for Active; 'I' for Inactive)
    1  A    between atoms: C_1  and  C_24
    2  A    between atoms: C_9  and  C_22
    3  A    between atoms: C_9  and  C_23
    4  A    between atoms: C_15  and  C_23
    5  A    between atoms: C_19  and  C_22
                            x       y       z     vdW  Elec       q    Type
                         _______ _______ _______ _____ _____    ______ ____

>  <TORSDO>
F 5

$$$$
=
 OpenBabel11052417543D

 31 34  0  0  1  0  0  0  0  0999 V2000
  185.9440  178.4650  145.2750 C   0  0  0  0  0  0  0  0  0  0  0  0
  188.7340  176.2840  144.0910 C   0  0  0  0  0  0  0  0  0  0  0  0
  189.6570  176.2400  145.3030 C   0  0  1  0  0  3  0  0  0  0  0  0
  189.5690  175.1870  147.6180 C   0  0  0  0  0  3  0  0  0  0  0  0
  187.5290  177.0180  144.1280 C   0  0  0  0  0  0  0  0  0  0  0  0
  185.1140  178.4560  144.1510 C   0  0  0  0  0  3  0  0  0  0  0  0
  188.9760  175.5530  146.4660 C   0  0  0  0  0  3  0  0  0  0  0  0
  188.2130  175.6560  141.7930 C   0  0  0  0  0  0  0  0  0  0  0  0
  185.5830  179.1640  146.3770 F   0  0  0  0  0  0  0  0  0  0  0  0
  191.4640  175.6390  143.5920 C   0  0  0  0  0  2  0  0  0  0  0  0
  191.0400  175.2950  147.9350 C   0  0  0  0  0  2  0  0  0  0  0  0
  187.0430  176.3420  141.8760 N   0  0  0  0  0  0  0  0  0  0  0  0
  189.0930  175.6270  142.8910 C   0  0  0  0  0  0  0  0  0  0  0  0
  187.1450  177.7510  145.2640 C   0  0  0  0  0  3  0  0  0  0  0  0
  191.6800  176.5500  147.3550 C   0  0  0  0  0  2  0  0  0  0  0  0
  186.6880  177.0240  142.9930 C   0  0  0  0  0  0  0  0  0  0  0  0
  185.4850  177.7380  143.0130 C   0  0  0  0  0  3  0  0  0  0  0  0
  190.4060  174.9060  142.7870 C   0  0  0  0  0  2  0  0  0  0  0  0
  191.0510  175.6320  145.0540 C   0  0  1  0  0  3  0  0  0  0  0  0
  192.1130  176.3330  145.9020 C   0  0  0  0  0  2  0  0  0  0  0  0
  188.5210  174.9170  140.5290 C   0  0  0  0  0  2  0  0  0  0  0  0
  187.5460  173.0640  141.6020 O   0  0  0  0  0  0  0  0  0  0  0  0
  188.2910  173.4530  140.7160 C   0  0  0  0  0  0  0  0  0  0  0  0
  188.6000  172.6450  138.3840 C   0  0  0  0  0  1  0  0  0  0  0  0
  189.0110  172.4740  139.8370 C   0  0  1  0  0  3  0  0  0  0  0  0
  191.1970  173.4850  139.1940 O   0  0  0  0  0  1  0  0  0  0  0  0
  190.4990  172.5870  139.9940 C   0  0  0  0  0  0  0  0  0  0  0  0
  191.1870  171.8690  140.8890 C   0  0  0  0  0  3  0  0  0  0  0  0
  190.6400  170.8760  141.8320 C   0  0  0  0  0  0  0  0  0  0  0  0
  190.7960  169.4320  141.5220 C   0  0  0  0  0  1  0  0  0  0  0  0
  190.0440  171.2180  142.8880 O   0  0  0  0  0  0  0  0  0  0  0  0
  1  9  1  0  0  0  0
  2  5  1  0  0  0  0
  2  3  1  0  0  0  0
  3  7  1  1  0  0  0
  4 11  1  0  0  0  0
  5 14  2  0  0  0  0
  6  1  2  0  0  0  0
  7  4  2  0  0  0  0
  8 12  2  0  0  0  0
  8 13  1  0  0  0  0
 12 16  1  0  0  0  0
 13  2  2  0  0  0  0
 14  1  1  0  0  0  0
 15 11  1  0  0  0  0
 16 17  2  0  0  0  0
 16  5  1  0  0  0  0
 17  6  1  0  0  0  0
 18 13  1  0  0  0  0
 18 10  1  0  0  0  0
 19 10  1  6  0  0  0
 19  3  1  0  0  0  0
 19 20  1  0  0  0  0
 20 15  1  0  0  0  0
 21 23  1  0  0  0  0
 21  8  1  0  0  0  0
 23 22  2  0  0  0  0
 25 24  1  6  0  0  0
 25 27  1  0  0  0  0
 25 23  1  0  0  0  0
 26 27  1  0  0  0  0
 27 28  2  0  0  0  0
 28 29  1  0  0  0  0
 29 31  2  0  0  0  0
 30 29  1  0  0  0  0
M  END
>  <MODEL>
9

>  <REMARK>
 VINA RESULT:      -7.1      2.565      4.894
  Name = 
  5 active torsions:
  status: ('A' for Active; 'I' for Inactive)
    1  A    between atoms: C_1  and  C_24
    2  A    between atoms: C_9  and  C_22
    3  A    between atoms: C_9  and  C_23
    4  A    between atoms: C_15  and  C_23
    5  A    between atoms: C_19  and  C_22
                            x       y       z     vdW  Elec       q    Type
                         _______ _______ _______ _____ _____    ______ ____

>  <TORSDO>
F 5

$$$$
