=
 OpenBabel11052417443D

 31 35  0  0  1  0  0  0  0  0999 V2000
  188.4890  175.3160  141.6740 C   0  0  0  0  0  0  0  0  0  0  0  0
  188.5910  176.3390  145.3140 C   0  0  0  0  0  0  0  0  0  0  0  0
  187.3600  176.9920  145.5930 C   0  0  0  0  0  0  0  0  0  0  0  0
  185.0060  177.4120  145.1140 C   0  0  0  0  0  3  0  0  0  0  0  0
  188.7560  175.3570  144.1530 C   0  0  1  0  0  3  0  0  0  0  0  0
  189.6600  174.3720  141.5200 C   0  0  0  0  0  2  0  0  0  0  0  0
  186.2030  176.7490  144.8320 C   0  0  0  0  0  3  0  0  0  0  0  0
  190.8890  175.7570  146.0550 N   0  0  0  0  0  0  0  0  0  0  0  0
  187.8190  175.7410  140.5340 O   0  0  0  0  0  1  0  0  0  0  0  0
  188.3770  178.1240  147.4970 C   0  0  0  0  0  3  0  0  0  0  0  0
  183.7850  178.9730  146.4350 F   0  0  0  0  0  0  0  0  0  0  0  0
  190.9120  174.6110  145.1570 C   0  0  0  0  0  2  0  0  0  0  0  0
  189.6740  176.5190  146.2170 C   0  0  0  0  0  0  0  0  0  0  0  0
  188.1180  175.8080  142.8640 C   0  0  0  0  0  3  0  0  0  0  0  0
  184.9450  178.3300  146.1630 C   0  0  0  0  0  0  0  0  0  0  0  0
  190.2200  175.0040  143.8710 C   0  0  1  0  0  3  0  0  0  0  0  0
  190.2460  173.8780  142.8500 C   0  0  0  0  0  2  0  0  0  0  0  0
  189.5600  177.4270  147.2770 C   0  0  0  0  0  3  0  0  0  0  0  0
  187.2750  177.9050  146.6740 C   0  0  0  0  0  0  0  0  0  0  0  0
  186.0760  178.5710  146.9460 C   0  0  0  0  0  3  0  0  0  0  0  0
  192.1440  176.1940  146.6550 C   0  0  0  0  0  2  0  0  0  0  0  0
  196.3470  176.0430  142.5350 C   0  0  2  0  0  3  0  0  0  0  0  0
  194.3330  175.4540  145.6380 N   0  0  0  0  0  2  0  0  0  0  0  0
  197.6050  174.5970  144.1190 C   0  0  0  0  0  3  0  0  0  0  0  0
  193.0420  177.1630  144.6770 O   0  0  0  0  0  0  0  0  0  0  0  0
  196.4030  177.2240  141.8200 F   0  0  0  0  0  0  0  0  0  0  0  0
  193.1940  176.3220  145.6030 C   0  0  0  0  0  0  0  0  0  0  0  0
  195.3390  176.1500  143.5940 N   0  0  0  0  0  0  0  0  0  0  0  0
  196.5060  174.4760  144.8680 C   0  0  0  0  0  3  0  0  0  0  0  0
  195.3730  175.3950  144.6560 C   0  0  0  0  0  0  0  0  0  0  0  0
  197.7220  175.7180  143.1240 C   0  0  0  0  0  2  0  0  0  0  0  0
  1 14  2  0  0  0  0
  2  3  2  0  0  0  0
  2 13  1  0  0  0  0
  3 19  1  0  0  0  0
  4 15  1  0  0  0  0
  5 14  1  6  0  0  0
  5  2  1  0  0  0  0
  6  1  1  0  0  0  0
  6 17  1  0  0  0  0
  7  4  2  0  0  0  0
  7  3  1  0  0  0  0
  8 13  1  0  0  0  0
  8 21  1  0  0  0  0
  9  1  1  0  0  0  0
 12  8  1  0  0  0  0
 13 18  2  0  0  0  0
 15 11  1  0  0  0  0
 15 20  2  0  0  0  0
 16 17  1  6  0  0  0
 16  5  1  0  0  0  0
 16 12  1  0  0  0  0
 18 10  1  0  0  0  0
 19 20  1  0  0  0  0
 19 10  2  0  0  0  0
 22 26  1  1  0  0  0
 22 31  1  0  0  0  0
 22 28  1  0  0  0  0
 24 29  2  0  0  0  0
 25 27  2  0  0  0  0
 27 23  1  0  0  0  0
 27 21  1  0  0  0  0
 28 30  2  0  0  0  0
 30 29  1  0  0  0  0
 30 23  1  0  0  0  0
 31 24  1  0  0  0  0
M  END
>  <MODEL>
1

>  <REMARK>
 VINA RESULT:      -8.8      0.000      0.000
  Name = 
  2 active torsions:
  status: ('A' for Active; 'I' for Inactive)
    1  A    between atoms: C_9  and  C_23
    2  A    between atoms: N_15  and  C_23
                            x       y       z     vdW  Elec       q    Type
                         _______ _______ _______ _____ _____    ______ ____

>  <TORSDO>
F 2

$$$$
=
 OpenBabel11052417443D

 31 35  0  0  1  0  0  0  0  0999 V2000
  191.0780  175.4210  146.8020 C   0  0  0  0  0  0  0  0  0  0  0  0
  188.2380  176.5420  144.5700 C   0  0  0  0  0  0  0  0  0  0  0  0
  187.2320  177.0770  145.4210 C   0  0  0  0  0  0  0  0  0  0  0  0
  186.5280  178.0930  147.5230 C   0  0  0  0  0  3  0  0  0  0  0  0
  189.7060  176.4470  144.9910 C   0  0  1  0  0  3  0  0  0  0  0  0
  192.2200  175.1580  145.8470 C   0  0  0  0  0  2  0  0  0  0  0  0
  187.5330  177.5840  146.6970 C   0  0  0  0  0  3  0  0  0  0  0  0
  188.9010  175.7860  142.2990 N   0  0  0  0  0  0  0  0  0  0  0  0
  191.2150  175.0350  148.1290 O   0  0  0  0  0  1  0  0  0  0  0  0
  185.5530  176.6960  143.6960 C   0  0  0  0  0  3  0  0  0  0  0  0
  184.2290  178.5970  147.8870 F   0  0  0  0  0  0  0  0  0  0  0  0
  190.3060  176.0090  142.6110 C   0  0  0  0  0  2  0  0  0  0  0  0
  187.8840  176.1890  143.2390 C   0  0  0  0  0  0  0  0  0  0  0  0
  189.9160  175.9520  146.3990 C   0  0  0  0  0  3  0  0  0  0  0  0
  185.2030  178.1050  147.0860 C   0  0  0  0  0  0  0  0  0  0  0  0
  190.5450  175.5840  144.0440 C   0  0  1  0  0  3  0  0  0  0  0  0
  192.0050  175.7320  144.4400 C   0  0  0  0  0  2  0  0  0  0  0  0
  186.5450  176.2460  142.8310 C   0  0  0  0  0  3  0  0  0  0  0  0
  185.8860  177.1230  144.9790 C   0  0  0  0  0  0  0  0  0  0  0  0
  184.8830  177.6270  145.8130 C   0  0  0  0  0  3  0  0  0  0  0  0
  188.5700  175.0230  141.1020 C   0  0  0  0  0  2  0  0  0  0  0  0
  191.2130  169.7720  141.4200 C   0  0  2  0  0  3  0  0  0  0  0  0
  190.1020  173.1770  140.3200 N   0  0  0  0  0  2  0  0  0  0  0  0
  192.1710  170.3150  139.1910 C   0  0  0  0  0  3  0  0  0  0  0  0
  188.6610  172.8900  142.1500 O   0  0  0  0  0  0  0  0  0  0  0  0
  190.4420  168.8540  142.1080 F   0  0  0  0  0  0  0  0  0  0  0  0
  189.0900  173.6310  141.2260 C   0  0  0  0  0  0  0  0  0  0  0  0
  190.4880  171.0410  141.3030 N   0  0  0  0  0  0  0  0  0  0  0  0
  191.7510  171.5740  139.3250 C   0  0  0  0  0  3  0  0  0  0  0  0
  190.7610  171.9070  140.3670 C   0  0  0  0  0  0  0  0  0  0  0  0
  191.5770  169.2240  140.0380 C   0  0  0  0  0  2  0  0  0  0  0  0
  1  9  1  0  0  0  0
  2  5  1  0  0  0  0
  2  3  1  0  0  0  0
  3  7  1  0  0  0  0
  5 14  1  1  0  0  0
  6  1  1  0  0  0  0
  7  4  2  0  0  0  0
  8 12  1  0  0  0  0
  8 13  1  0  0  0  0
 10 19  1  0  0  0  0
 13  2  2  0  0  0  0
 14  1  2  0  0  0  0
 15  4  1  0  0  0  0
 15 11  1  0  0  0  0
 16 12  1  6  0  0  0
 16 17  1  0  0  0  0
 16  5  1  0  0  0  0
 17  6  1  0  0  0  0
 18 13  1  0  0  0  0
 18 10  2  0  0  0  0
 19  3  2  0  0  0  0
 19 20  1  0  0  0  0
 20 15  2  0  0  0  0
 21 27  1  0  0  0  0
 21  8  1  0  0  0  0
 22 26  1  6  0  0  0
 23 30  1  0  0  0  0
 23 27  1  0  0  0  0
 24 29  2  0  0  0  0
 24 31  1  0  0  0  0
 27 25  2  0  0  0  0
 28 22  1  0  0  0  0
 29 30  1  0  0  0  0
 30 28  2  0  0  0  0
 31 22  1  0  0  0  0
M  END
>  <MODEL>
2

>  <REMARK>
 VINA RESULT:      -8.7      3.523      5.577
  Name = 
  2 active torsions:
  status: ('A' for Active; 'I' for Inactive)
    1  A    between atoms: C_9  and  C_23
    2  A    between atoms: N_15  and  C_23
                            x       y       z     vdW  Elec       q    Type
                         _______ _______ _______ _____ _____    ______ ____

>  <TORSDO>
F 2

$$$$
=
 OpenBabel11052417443D

 31 35  0  0  1  0  0  0  0  0999 V2000
  184.7780  178.5280  146.1810 C   0  0  0  0  0  0  0  0  0  0  0  0
  187.6320  177.0250  144.2060 C   0  0  0  0  0  0  0  0  0  0  0  0
  187.2800  177.1270  142.8320 C   0  0  0  0  0  0  0  0  0  0  0  0
  186.0290  178.1690  141.0180 C   0  0  0  0  0  3  0  0  0  0  0  0
  187.0240  177.9300  145.2800 C   0  0  1  0  0  3  0  0  0  0  0  0
  185.3310  178.6750  147.5800 C   0  0  0  0  0  2  0  0  0  0  0  0
  186.3710  178.0940  142.3700 C   0  0  0  0  0  3  0  0  0  0  0  0
  189.1590  176.1010  145.9330 N   0  0  0  0  0  0  0  0  0  0  0  0
  183.4220  178.7450  145.9730 O   0  0  0  0  0  1  0  0  0  0  0  0
  188.8240  175.3200  142.2910 C   0  0  0  0  0  3  0  0  0  0  0  0
  186.2590  177.3500  138.7930 F   0  0  0  0  0  0  0  0  0  0  0  0
  188.8050  177.1740  146.8520 C   0  0  0  0  0  2  0  0  0  0  0  0
  188.6690  176.1260  144.5760 C   0  0  0  0  0  0  0  0  0  0  0  0
  185.5360  178.1320  145.1500 C   0  0  0  0  0  3  0  0  0  0  0  0
  186.5920  177.2780  140.1030 C   0  0  0  0  0  0  0  0  0  0  0  0
  187.3250  177.4540  146.7040 C   0  0  1  0  0  3  0  0  0  0  0  0
  186.8560  178.5300  147.6700 C   0  0  0  0  0  2  0  0  0  0  0  0
  189.2300  175.2700  143.6200 C   0  0  0  0  0  3  0  0  0  0  0  0
  187.8670  176.2480  141.8880 C   0  0  0  0  0  0  0  0  0  0  0  0
  187.5140  176.3230  140.5360 C   0  0  0  0  0  3  0  0  0  0  0  0
  189.8810  174.9490  146.4590 C   0  0  0  0  0  2  0  0  0  0  0  0
  195.5000  174.7850  144.7080 C   0  0  2  0  0  3  0  0  0  0  0  0
  192.1060  173.8530  145.9910 N   0  0  0  0  0  2  0  0  0  0  0  0
  195.4760  172.4080  145.4380 C   0  0  0  0  0  3  0  0  0  0  0  0
  191.8280  176.1800  145.8650 O   0  0  0  0  0  0  0  0  0  0  0  0
  196.1280  176.0020  144.8950 F   0  0  0  0  0  0  0  0  0  0  0  0
  191.3260  175.0490  146.1020 C   0  0  0  0  0  0  0  0  0  0  0  0
  194.1280  174.8500  145.2220 N   0  0  0  0  0  0  0  0  0  0  0  0
  194.1480  172.4670  145.5590 C   0  0  0  0  0  3  0  0  0  0  0  0
  193.4730  173.7790  145.5720 C   0  0  0  0  0  0  0  0  0  0  0  0
  196.2900  173.6730  145.4020 C   0  0  0  0  0  2  0  0  0  0  0  0
  1  6  1  0  0  0  0
  2 13  1  0  0  0  0
  2  5  1  0  0  0  0
  3  2  2  0  0  0  0
  4  7  2  0  0  0  0
  5 14  1  6  0  0  0
  5 16  1  0  0  0  0
  6 17  1  0  0  0  0
  7  3  1  0  0  0  0
  8 21  1  0  0  0  0
  8 12  1  0  0  0  0
  9  1  1  0  0  0  0
 10 18  1  0  0  0  0
 11 15  1  0  0  0  0
 13  8  1  0  0  0  0
 14  1  2  0  0  0  0
 15 20  2  0  0  0  0
 15  4  1  0  0  0  0
 16 12  1  6  0  0  0
 16 17  1  0  0  0  0
 18 13  2  0  0  0  0
 19 10  2  0  0  0  0
 19  3  1  0  0  0  0
 20 19  1  0  0  0  0
 22 26  1  1  0  0  0
 22 28  1  0  0  0  0
 22 31  1  0  0  0  0
 23 27  1  0  0  0  0
 24 29  2  0  0  0  0
 25 27  2  0  0  0  0
 27 21  1  0  0  0  0
 28 30  2  0  0  0  0
 29 30  1  0  0  0  0
 30 23  1  0  0  0  0
 31 24  1  0  0  0  0
M  END
>  <MODEL>
3

>  <REMARK>
 VINA RESULT:      -8.6      2.682      4.625
  Name = 
  2 active torsions:
  status: ('A' for Active; 'I' for Inactive)
    1  A    between atoms: C_9  and  C_23
    2  A    between atoms: N_15  and  C_23
                            x       y       z     vdW  Elec       q    Type
                         _______ _______ _______ _____ _____    ______ ____

>  <TORSDO>
F 2

$$$$
=
 OpenBabel11052417443D

 31 35  0  0  1  0  0  0  0  0999 V2000
  186.3660  178.4900  147.3490 C   0  0  0  0  0  0  0  0  0  0  0  0
  187.0150  176.8050  144.0260 C   0  0  0  0  0  0  0  0  0  0  0  0
  188.1920  176.0240  144.1830 C   0  0  0  0  0  0  0  0  0  0  0  0
  189.7810  174.8090  145.5770 C   0  0  0  0  0  3  0  0  0  0  0  0
  186.1440  177.2280  145.2110 C   0  0  1  0  0  3  0  0  0  0  0  0
  184.9640  179.0420  147.2190 C   0  0  0  0  0  2  0  0  0  0  0  0
  188.6130  175.5630  145.4430 C   0  0  0  0  0  3  0  0  0  0  0  0
  185.3030  177.7630  142.5020 N   0  0  0  0  0  0  0  0  0  0  0  0
  187.1280  178.8570  148.4500 O   0  0  0  0  0  1  0  0  0  0  0  0
  188.5490  176.0550  141.7720 C   0  0  0  0  0  3  0  0  0  0  0  0
  191.6810  173.7700  144.5850 F   0  0  0  0  0  0  0  0  0  0  0  0
  184.3520  177.8660  143.6000 C   0  0  0  0  0  2  0  0  0  0  0  0
  186.5710  177.1050  142.7090 C   0  0  0  0  0  0  0  0  0  0  0  0
  186.9200  177.7150  146.4070 C   0  0  0  0  0  3  0  0  0  0  0  0
  190.5480  174.5010  144.4530 C   0  0  0  0  0  0  0  0  0  0  0  0
  185.1060  178.2910  144.8410 C   0  0  1  0  0  3  0  0  0  0  0  0
  184.1760  178.4760  146.0290 C   0  0  0  0  0  2  0  0  0  0  0  0
  187.3570  176.7500  141.6060 C   0  0  0  0  0  3  0  0  0  0  0  0
  188.9660  175.6780  143.0470 C   0  0  0  0  0  0  0  0  0  0  0  0
  190.1380  174.9290  143.1890 C   0  0  0  0  0  3  0  0  0  0  0  0
  185.0060  178.4640  141.2590 C   0  0  0  0  0  2  0  0  0  0  0  0
  179.3270  177.9190  139.8070 C   0  0  2  0  0  3  0  0  0  0  0  0
  182.5160  178.6570  141.6270 N   0  0  0  0  0  2  0  0  0  0  0  0
  178.8410  178.7100  142.1140 C   0  0  0  0  0  3  0  0  0  0  0  0
  183.4040  177.5440  139.7610 O   0  0  0  0  0  0  0  0  0  0  0  0
  179.1240  176.8780  138.9200 F   0  0  0  0  0  0  0  0  0  0  0  0
  183.6060  178.1740  140.8340 C   0  0  0  0  0  0  0  0  0  0  0  0
  180.7390  177.9730  140.1960 N   0  0  0  0  0  0  0  0  0  0  0  0
  180.1240  179.0470  142.2600 C   0  0  0  0  0  3  0  0  0  0  0  0
  181.1270  178.5370  141.3050 C   0  0  0  0  0  0  0  0  0  0  0  0
  178.4300  177.7460  141.0350 C   0  0  0  0  0  2  0  0  0  0  0  0
  1  9  1  0  0  0  0
  2  3  1  0  0  0  0
  2  5  1  0  0  0  0
  3  7  1  0  0  0  0
  5 14  1  1  0  0  0
  6  1  1  0  0  0  0
  7  4  2  0  0  0  0
  8 13  1  0  0  0  0
  8 12  1  0  0  0  0
 10 19  1  0  0  0  0
 13  2  2  0  0  0  0
 14  1  2  0  0  0  0
 15 11  1  0  0  0  0
 15  4  1  0  0  0  0
 16 12  1  6  0  0  0
 16  5  1  0  0  0  0
 16 17  1  0  0  0  0
 17  6  1  0  0  0  0
 18 10  2  0  0  0  0
 18 13  1  0  0  0  0
 19 20  1  0  0  0  0
 19  3  2  0  0  0  0
 20 15  2  0  0  0  0
 21  8  1  0  0  0  0
 22 26  1  6  0  0  0
 22 28  1  0  0  0  0
 22 31  1  0  0  0  0
 24 29  2  0  0  0  0
 25 27  2  0  0  0  0
 27 21  1  0  0  0  0
 27 23  1  0  0  0  0
 28 30  2  0  0  0  0
 30 23  1  0  0  0  0
 30 29  1  0  0  0  0
 31 24  1  0  0  0  0
M  END
>  <MODEL>
4

>  <REMARK>
 VINA RESULT:      -8.6      5.017     10.442
  Name = 
  2 active torsions:
  status: ('A' for Active; 'I' for Inactive)
    1  A    between atoms: C_9  and  C_23
    2  A    between atoms: N_15  and  C_23
                            x       y       z     vdW  Elec       q    Type
                         _______ _______ _______ _____ _____    ______ ____

>  <TORSDO>
F 2

$$$$
=
 OpenBabel11052417443D

 31 35  0  0  1  0  0  0  0  0999 V2000
  188.6620  174.1940  140.3320 C   0  0  0  0  0  0  0  0  0  0  0  0
  188.4580  175.6790  143.8050 C   0  0  0  0  0  0  0  0  0  0  0  0
  187.3520  176.5720  143.8060 C   0  0  0  0  0  0  0  0  0  0  0  0
  185.2160  177.3310  142.9080 C   0  0  0  0  0  3  0  0  0  0  0  0
  188.5870  174.5310  142.8010 C   0  0  1  0  0  3  0  0  0  0  0  0
  189.6350  173.0450  140.4760 C   0  0  0  0  0  2  0  0  0  0  0  0
  186.2870  176.4340  142.8990 C   0  0  0  0  0  3  0  0  0  0  0  0
  190.4730  174.8090  144.9680 N   0  0  0  0  0  0  0  0  0  0  0  0
  188.2530  174.5670  139.0590 O   0  0  0  0  0  1  0  0  0  0  0  0
  188.2980  177.7590  145.7130 C   0  0  0  0  0  3  0  0  0  0  0  0
  184.1540  179.2520  143.8330 F   0  0  0  0  0  0  0  0  0  0  0  0
  190.3950  173.5620  144.2190 C   0  0  0  0  0  2  0  0  0  0  0  0
  189.4200  175.7880  144.8460 C   0  0  0  0  0  0  0  0  0  0  0  0
  188.2340  174.9040  141.3850 C   0  0  0  0  0  3  0  0  0  0  0  0
  185.1920  178.3820  143.8260 C   0  0  0  0  0  0  0  0  0  0  0  0
  189.9780  173.8890  142.8020 C   0  0  1  0  0  3  0  0  0  0  0  0
  189.9230  172.6450  141.9290 C   0  0  0  0  0  2  0  0  0  0  0  0
  189.3410  176.8410  145.7660 C   0  0  0  0  0  3  0  0  0  0  0  0
  187.2990  177.6260  144.7520 C   0  0  0  0  0  0  0  0  0  0  0  0
  186.2280  178.5260  144.7500 C   0  0  0  0  0  3  0  0  0  0  0  0
  191.6930  175.0950  145.7120 C   0  0  0  0  0  2  0  0  0  0  0  0
  196.1820  176.1070  142.0400 C   0  0  2  0  0  3  0  0  0  0  0  0
  194.0850  174.9460  144.9180 N   0  0  0  0  0  2  0  0  0  0  0  0
  197.5980  174.9650  143.7350 C   0  0  0  0  0  3  0  0  0  0  0  0
  192.5120  176.3160  143.8420 O   0  0  0  0  0  0  0  0  0  0  0  0
  196.0150  177.2880  141.3420 F   0  0  0  0  0  0  0  0  0  0  0  0
  192.7760  175.5090  144.7730 C   0  0  0  0  0  0  0  0  0  0  0  0
  195.0810  175.9310  142.9920 N   0  0  0  0  0  0  0  0  0  0  0  0
  196.4970  174.5550  144.3670 C   0  0  0  0  0  3  0  0  0  0  0  0
  195.1970  175.1750  144.0470 C   0  0  0  0  0  0  0  0  0  0  0  0
  197.5320  176.1110  142.7630 C   0  0  0  0  0  2  0  0  0  0  0  0
  1  6  1  0  0  0  0
  1 14  2  0  0  0  0
  2  3  2  0  0  0  0
  2 13  1  0  0  0  0
  3 19  1  0  0  0  0
  4 15  1  0  0  0  0
  5 14  1  6  0  0  0
  5 16  1  0  0  0  0
  5  2  1  0  0  0  0
  6 17  1  0  0  0  0
  7  4  2  0  0  0  0
  7  3  1  0  0  0  0
  8 21  1  0  0  0  0
  9  1  1  0  0  0  0
 10 18  1  0  0  0  0
 12  8  1  0  0  0  0
 13  8  1  0  0  0  0
 13 18  2  0  0  0  0
 15 11  1  0  0  0  0
 15 20  2  0  0  0  0
 16 17  1  6  0  0  0
 16 12  1  0  0  0  0
 19 10  2  0  0  0  0
 20 19  1  0  0  0  0
 22 26  1  1  0  0  0
 22 31  1  0  0  0  0
 22 28  1  0  0  0  0
 24 29  2  0  0  0  0
 25 27  2  0  0  0  0
 27 23  1  0  0  0  0
 27 21  1  0  0  0  0
 28 30  2  0  0  0  0
 30 29  1  0  0  0  0
 30 23  1  0  0  0  0
 31 24  1  0  0  0  0
M  END
>  <MODEL>
5

>  <REMARK>
 VINA RESULT:      -8.6      1.311      1.586
  Name = 
  2 active torsions:
  status: ('A' for Active; 'I' for Inactive)
    1  A    between atoms: C_9  and  C_23
    2  A    between atoms: N_15  and  C_23
                            x       y       z     vdW  Elec       q    Type
                         _______ _______ _______ _____ _____    ______ ____

>  <TORSDO>
F 2

$$$$
=
 OpenBabel11052417443D

 31 35  0  0  1  0  0  0  0  0999 V2000
  185.8430  177.8350  140.9540 C   0  0  0  0  0  0  0  0  0  0  0  0
  187.6070  177.1540  144.2300 C   0  0  0  0  0  0  0  0  0  0  0  0
  186.7050  177.5200  145.2670 C   0  0  0  0  0  0  0  0  0  0  0  0
  184.4470  177.9240  146.0920 C   0  0  0  0  0  3  0  0  0  0  0  0
  187.1370  176.8010  142.8180 C   0  0  1  0  0  3  0  0  0  0  0  0
  186.7060  177.1500  139.9180 C   0  0  0  0  0  2  0  0  0  0  0  0
  185.3150  177.5480  145.0640 C   0  0  0  0  0  3  0  0  0  0  0  0
  189.9060  176.4870  143.5670 N   0  0  0  0  0  0  0  0  0  0  0  0
  184.8160  178.6650  140.5250 O   0  0  0  0  0  1  0  0  0  0  0  0
  188.5710  177.7720  146.8160 C   0  0  0  0  0  3  0  0  0  0  0  0
  184.1140  178.6430  148.3380 F   0  0  0  0  0  0  0  0  0  0  0  0
  189.3980  175.8590  142.3560 C   0  0  0  0  0  2  0  0  0  0  0  0
  188.9840  177.0020  144.5500 C   0  0  0  0  0  0  0  0  0  0  0  0
  186.0780  177.7220  142.2690 C   0  0  0  0  0  3  0  0  0  0  0  0
  184.9560  178.2780  147.3420 C   0  0  0  0  0  0  0  0  0  0  0  0
  188.2840  176.7230  141.8070 C   0  0  1  0  0  3  0  0  0  0  0  0
  187.7290  176.1680  140.5050 C   0  0  0  0  0  2  0  0  0  0  0  0
  189.4480  177.3380  145.8290 C   0  0  0  0  0  3  0  0  0  0  0  0
  187.2060  177.8530  146.5510 C   0  0  0  0  0  0  0  0  0  0  0  0
  186.3320  178.2360  147.5740 C   0  0  0  0  0  3  0  0  0  0  0  0
  191.3420  176.7100  143.6820 C   0  0  0  0  0  2  0  0  0  0  0  0
  194.3090  172.0710  145.7630 C   0  0  2  0  0  3  0  0  0  0  0  0
  193.3600  175.5010  144.5950 N   0  0  0  0  0  2  0  0  0  0  0  0
  196.2970  173.5640  145.7640 C   0  0  0  0  0  3  0  0  0  0  0  0
  191.3970  174.3560  144.0130 O   0  0  0  0  0  0  0  0  0  0  0  0
  193.8090  170.8810  145.2680 F   0  0  0  0  0  0  0  0  0  0  0  0
  192.0230  175.4470  144.0860 C   0  0  0  0  0  0  0  0  0  0  0  0
  193.5900  173.2000  145.1650 N   0  0  0  0  0  0  0  0  0  0  0  0
  195.5000  174.6120  145.5460 C   0  0  0  0  0  3  0  0  0  0  0  0
  194.1100  174.3930  145.1040 C   0  0  0  0  0  0  0  0  0  0  0  0
  195.8100  172.1700  145.4800 C   0  0  0  0  0  2  0  0  0  0  0  0
  1 14  2  0  0  0  0
  2 13  2  0  0  0  0
  2  3  1  0  0  0  0
  3 19  1  0  0  0  0
  4 15  2  0  0  0  0
  5 14  1  6  0  0  0
  5  2  1  0  0  0  0
  6 17  1  0  0  0  0
  6  1  1  0  0  0  0
  7  3  2  0  0  0  0
  7  4  1  0  0  0  0
  8 21  1  0  0  0  0
  8 13  1  0  0  0  0
  9  1  1  0  0  0  0
 12  8  1  0  0  0  0
 13 18  1  0  0  0  0
 15 20  1  0  0  0  0
 15 11  1  0  0  0  0
 16 17  1  6  0  0  0
 16 12  1  0  0  0  0
 16  5  1  0  0  0  0
 18 10  2  0  0  0  0
 19 10  1  0  0  0  0
 19 20  2  0  0  0  0
 21 27  1  0  0  0  0
 22 26  1  6  0  0  0
 23 30  1  0  0  0  0
 25 27  2  0  0  0  0
 27 23  1  0  0  0  0
 28 22  1  0  0  0  0
 29 24  2  0  0  0  0
 30 28  2  0  0  0  0
 30 29  1  0  0  0  0
 31 22  1  0  0  0  0
 31 24  1  0  0  0  0
M  END
>  <MODEL>
6

>  <REMARK>
 VINA RESULT:      -8.5      2.435      3.077
  Name = 
  2 active torsions:
  status: ('A' for Active; 'I' for Inactive)
    1  A    between atoms: C_9  and  C_23
    2  A    between atoms: N_15  and  C_23
                            x       y       z     vdW  Elec       q    Type
                         _______ _______ _______ _____ _____    ______ ____

>  <TORSDO>
F 2

$$$$
=
 OpenBabel11052417443D

 31 35  0  0  1  0  0  0  0  0999 V2000
  190.5810  176.1360  147.0370 C   0  0  0  0  0  0  0  0  0  0  0  0
  192.0540  174.7730  143.8320 C   0  0  0  0  0  0  0  0  0  0  0  0
  193.3330  175.3760  143.6780 C   0  0  0  0  0  0  0  0  0  0  0  0
  195.3040  176.4740  144.6020 C   0  0  0  0  0  3  0  0  0  0  0  0
  191.3590  174.6540  145.1900 C   0  0  1  0  0  3  0  0  0  0  0  0
  189.3890  175.2450  147.3060 C   0  0  0  0  0  2  0  0  0  0  0  0
  194.0550  175.8730  144.7760 C   0  0  0  0  0  3  0  0  0  0  0  0
  190.2300  173.4060  142.8450 N   0  0  0  0  0  0  0  0  0  0  0  0
  190.7500  177.2770  147.8100 O   0  0  0  0  0  1  0  0  0  0  0  0
  193.2680  174.9290  141.2820 C   0  0  0  0  0  3  0  0  0  0  0  0
  197.0640  177.1700  143.1550 F   0  0  0  0  0  0  0  0  0  0  0  0
  189.7620  173.0330  144.1730 C   0  0  0  0  0  2  0  0  0  0  0  0
  191.4530  174.1580  142.7000 C   0  0  0  0  0  0  0  0  0  0  0  0
  191.4410  175.8970  146.0380 C   0  0  0  0  0  3  0  0  0  0  0  0
  195.8530  176.5870  143.3240 C   0  0  0  0  0  0  0  0  0  0  0  0
  189.8890  174.2410  145.0750 C   0  0  1  0  0  3  0  0  0  0  0  0
  189.3690  173.9560  146.4750 C   0  0  0  0  0  2  0  0  0  0  0  0
  192.0550  174.2680  141.4390 C   0  0  0  0  0  3  0  0  0  0  0  0
  193.9170  175.4700  142.3900 C   0  0  0  0  0  0  0  0  0  0  0  0
  195.1640  176.0800  142.2200 C   0  0  0  0  0  3  0  0  0  0  0  0
  189.3660  173.1340  141.7040 C   0  0  0  0  0  2  0  0  0  0  0  0
  186.1340  178.0280  141.1950 C   0  0  2  0  0  3  0  0  0  0  0  0
  187.7420  174.9000  142.4850 N   0  0  0  0  0  2  0  0  0  0  0  0
  185.2280  177.4530  143.4380 C   0  0  0  0  0  3  0  0  0  0  0  0
  188.4950  174.8150  140.2640 O   0  0  0  0  0  0  0  0  0  0  0  0
  185.7830  178.2730  139.8810 F   0  0  0  0  0  0  0  0  0  0  0  0
  188.5060  174.3180  141.4230 C   0  0  0  0  0  0  0  0  0  0  0  0
  186.8740  176.7660  141.2850 N   0  0  0  0  0  0  0  0  0  0  0  0
  186.1760  176.5240  143.5750 C   0  0  0  0  0  3  0  0  0  0  0  0
  186.9430  176.0850  142.3940 C   0  0  0  0  0  0  0  0  0  0  0  0
  184.8820  177.9880  142.0760 C   0  0  0  0  0  2  0  0  0  0  0  0
  1  6  1  0  0  0  0
  1  9  1  0  0  0  0
  2  5  1  0  0  0  0
  3  2  1  0  0  0  0
  3  7  1  0  0  0  0
  4  7  2  0  0  0  0
  5 14  1  6  0  0  0
  8 12  1  0  0  0  0
 10 18  2  0  0  0  0
 10 19  1  0  0  0  0
 11 15  1  0  0  0  0
 13  8  1  0  0  0  0
 13  2  2  0  0  0  0
 14  1  2  0  0  0  0
 15  4  1  0  0  0  0
 16 12  1  6  0  0  0
 16  5  1  0  0  0  0
 16 17  1  0  0  0  0
 17  6  1  0  0  0  0
 18 13  1  0  0  0  0
 19  3  2  0  0  0  0
 20 19  1  0  0  0  0
 20 15  2  0  0  0  0
 21  8  1  0  0  0  0
 22 26  1  6  0  0  0
 22 28  1  0  0  0  0
 22 31  1  0  0  0  0
 24 29  2  0  0  0  0
 25 27  2  0  0  0  0
 27 21  1  0  0  0  0
 27 23  1  0  0  0  0
 28 30  2  0  0  0  0
 30 23  1  0  0  0  0
 30 29  1  0  0  0  0
 31 24  1  0  0  0  0
M  END
>  <MODEL>
7

>  <REMARK>
 VINA RESULT:      -8.4      2.800      8.196
  Name = 
  2 active torsions:
  status: ('A' for Active; 'I' for Inactive)
    1  A    between atoms: C_9  and  C_23
    2  A    between atoms: N_15  and  C_23
                            x       y       z     vdW  Elec       q    Type
                         _______ _______ _______ _____ _____    ______ ____

>  <TORSDO>
F 2

$$$$
=
 OpenBabel11052417443D

 31 35  0  0  1  0  0  0  0  0999 V2000
  191.3710  176.5210  147.3480 C   0  0  0  0  0  0  0  0  0  0  0  0
  188.5490  176.8680  144.8530 C   0  0  0  0  0  0  0  0  0  0  0  0
  187.4170  177.3360  145.5750 C   0  0  0  0  0  0  0  0  0  0  0  0
  186.4220  178.4830  147.4830 C   0  0  0  0  0  3  0  0  0  0  0  0
  189.9820  177.0680  145.3510 C   0  0  1  0  0  3  0  0  0  0  0  0
  192.6020  176.3280  146.4910 C   0  0  0  0  0  2  0  0  0  0  0  0
  187.5480  178.0440  146.7820 C   0  0  0  0  0  3  0  0  0  0  0  0
  189.4740  175.9460  142.7410 N   0  0  0  0  0  0  0  0  0  0  0  0
  191.4760  176.3360  148.7190 O   0  0  0  0  0  1  0  0  0  0  0  0
  185.9380  176.4670  143.8430 C   0  0  0  0  0  3  0  0  0  0  0  0
  184.0530  178.6470  147.6680 F   0  0  0  0  0  0  0  0  0  0  0  0
  190.8030  176.4340  143.0840 C   0  0  0  0  0  2  0  0  0  0  0  0
  188.3450  176.2940  143.5690 C   0  0  0  0  0  0  0  0  0  0  0  0
  190.1700  176.7990  146.8210 C   0  0  0  0  0  3  0  0  0  0  0  0
  185.1440  178.2220  146.9870 C   0  0  0  0  0  0  0  0  0  0  0  0
  191.0070  176.2400  144.5710 C   0  0  1  0  0  3  0  0  0  0  0  0
  192.3960  176.6740  145.0110 C   0  0  0  0  0  2  0  0  0  0  0  0
  187.0440  176.0790  143.0950 C   0  0  0  0  0  3  0  0  0  0  0  0
  186.1130  177.1040  145.0690 C   0  0  0  0  0  0  0  0  0  0  0  0
  184.9900  177.5390  145.7790 C   0  0  0  0  0  3  0  0  0  0  0  0
  189.3480  174.9920  141.6460 C   0  0  0  0  0  2  0  0  0  0  0  0
  193.6170  170.9420  141.8170 C   0  0  2  0  0  3  0  0  0  0  0  0
  190.7090  173.1390  142.6850 N   0  0  0  0  0  2  0  0  0  0  0  0
  192.9050  170.5430  144.1650 C   0  0  0  0  0  3  0  0  0  0  0  0
  191.3290  174.1310  140.6510 O   0  0  0  0  0  0  0  0  0  0  0  0
  194.6910  171.2990  141.0240 F   0  0  0  0  0  0  0  0  0  0  0  0
  190.5290  174.0830  141.6240 C   0  0  0  0  0  0  0  0  0  0  0  0
  192.6120  172.0090  141.8020 N   0  0  0  0  0  0  0  0  0  0  0  0
  191.8120  171.2790  143.9500 C   0  0  0  0  0  3  0  0  0  0  0  0
  191.7380  172.1450  142.7590 C   0  0  0  0  0  0  0  0  0  0  0  0
  194.0890  170.6590  143.2450 C   0  0  0  0  0  2  0  0  0  0  0  0
  1  9  1  0  0  0  0
  2  5  1  0  0  0  0
  2  3  1  0  0  0  0
  3  7  1  0  0  0  0
  5 14  1  1  0  0  0
  6  1  1  0  0  0  0
  7  4  2  0  0  0  0
  8 12  1  0  0  0  0
  8 13  1  0  0  0  0
 10 19  1  0  0  0  0
 13  2  2  0  0  0  0
 14  1  2  0  0  0  0
 15  4  1  0  0  0  0
 15 11  1  0  0  0  0
 16 12  1  6  0  0  0
 16 17  1  0  0  0  0
 16  5  1  0  0  0  0
 17  6  1  0  0  0  0
 18 13  1  0  0  0  0
 18 10  2  0  0  0  0
 19  3  2  0  0  0  0
 19 20  1  0  0  0  0
 20 15  2  0  0  0  0
 21  8  1  0  0  0  0
 22 26  1  6  0  0  0
 22 31  1  0  0  0  0
 23 30  1  0  0  0  0
 25 27  2  0  0  0  0
 27 21  1  0  0  0  0
 27 23  1  0  0  0  0
 28 22  1  0  0  0  0
 28 30  2  0  0  0  0
 29 24  2  0  0  0  0
 30 29  1  0  0  0  0
 31 24  1  0  0  0  0
M  END
>  <MODEL>
8

>  <REMARK>
 VINA RESULT:      -8.1      2.983      4.638
  Name = 
  2 active torsions:
  status: ('A' for Active; 'I' for Inactive)
    1  A    between atoms: C_9  and  C_23
    2  A    between atoms: N_15  and  C_23
                            x       y       z     vdW  Elec       q    Type
                         _______ _______ _______ _____ _____    ______ ____

>  <TORSDO>
F 2

$$$$
=
 OpenBabel11052417443D

 31 35  0  0  1  0  0  0  0  0999 V2000
  188.8200  174.1240  140.5110 C   0  0  0  0  0  0  0  0  0  0  0  0
  188.3510  175.6000  143.9620 C   0  0  0  0  0  0  0  0  0  0  0  0
  187.2760  176.5260  143.8710 C   0  0  0  0  0  0  0  0  0  0  0  0
  185.2530  177.3530  142.7920 C   0  0  0  0  0  3  0  0  0  0  0  0
  188.5350  174.4530  142.9660 C   0  0  1  0  0  3  0  0  0  0  0  0
  189.7420  172.9470  140.7330 C   0  0  0  0  0  2  0  0  0  0  0  0
  186.2930  176.4240  142.8720 C   0  0  0  0  0  3  0  0  0  0  0  0
  190.2270  174.6640  145.2940 N   0  0  0  0  0  0  0  0  0  0  0  0
  188.5380  174.5150  139.2090 O   0  0  0  0  0  1  0  0  0  0  0  0
  188.0830  177.6760  145.8630 C   0  0  0  0  0  3  0  0  0  0  0  0
  184.1690  179.3010  143.6320 F   0  0  0  0  0  0  0  0  0  0  0  0
  190.1790  173.4240  144.5320 C   0  0  0  0  0  2  0  0  0  0  0  0
  189.2190  175.6760  145.0850 C   0  0  0  0  0  0  0  0  0  0  0  0
  188.3210  174.8430  141.5260 C   0  0  0  0  0  3  0  0  0  0  0  0
  185.1780  178.4010  143.7110 C   0  0  0  0  0  0  0  0  0  0  0  0
  189.9000  173.7690  143.0860 C   0  0  1  0  0  3  0  0  0  0  0  0
  189.8870  172.5320  142.2030 C   0  0  0  0  0  2  0  0  0  0  0  0
  189.0890  176.7260  146.0030 C   0  0  0  0  0  3  0  0  0  0  0  0
  187.1700  177.5780  144.8160 C   0  0  0  0  0  0  0  0  0  0  0  0
  186.1310  178.5090  144.7250 C   0  0  0  0  0  3  0  0  0  0  0  0
  191.3840  174.9100  146.1450 C   0  0  0  0  0  2  0  0  0  0  0  0
  196.3050  173.7430  143.1330 C   0  0  2  0  0  3  0  0  0  0  0  0
  193.6280  173.8240  145.7510 N   0  0  0  0  0  2  0  0  0  0  0  0
  197.0130  172.4430  145.1310 C   0  0  0  0  0  3  0  0  0  0  0  0
  192.7910  175.4800  144.3140 O   0  0  0  0  0  0  0  0  0  0  0  0
  196.6570  174.7910  142.3040 F   0  0  0  0  0  0  0  0  0  0  0  0
  192.6380  174.7790  145.3500 C   0  0  0  0  0  0  0  0  0  0  0  0
  195.1190  174.1040  143.9150 N   0  0  0  0  0  0  0  0  0  0  0  0
  195.7750  172.5410  145.6230 C   0  0  0  0  0  3  0  0  0  0  0  0
  194.8350  173.5190  145.0450 C   0  0  0  0  0  0  0  0  0  0  0  0
  197.4750  173.3840  144.0530 C   0  0  0  0  0  2  0  0  0  0  0  0
  1  6  1  0  0  0  0
  1 14  2  0  0  0  0
  2 13  1  0  0  0  0
  3  2  2  0  0  0  0
  3 19  1  0  0  0  0
  4  7  2  0  0  0  0
  4 15  1  0  0  0  0
  5 14  1  6  0  0  0
  5 16  1  0  0  0  0
  5  2  1  0  0  0  0
  6 17  1  0  0  0  0
  7  3  1  0  0  0  0
  8 21  1  0  0  0  0
  9  1  1  0  0  0  0
 10 18  1  0  0  0  0
 11 15  1  0  0  0  0
 12  8  1  0  0  0  0
 13  8  1  0  0  0  0
 13 18  2  0  0  0  0
 15 20  2  0  0  0  0
 16 17  1  6  0  0  0
 16 12  1  0  0  0  0
 19 10  2  0  0  0  0
 20 19  1  0  0  0  0
 22 26  1  1  0  0  0
 22 28  1  0  0  0  0
 22 31  1  0  0  0  0
 24 29  2  0  0  0  0
 25 27  2  0  0  0  0
 27 23  1  0  0  0  0
 27 21  1  0  0  0  0
 28 30  2  0  0  0  0
 30 29  1  0  0  0  0
 30 23  1  0  0  0  0
 31 24  1  0  0  0  0
M  END
>  <MODEL>
9

>  <REMARK>
 VINA RESULT:      -8.1      1.655      1.947
  Name = 
  2 active torsions:
  status: ('A' for Active; 'I' for Inactive)
    1  A    between atoms: C_9  and  C_23
    2  A    between atoms: N_15  and  C_23
                            x       y       z     vdW  Elec       q    Type
                         _______ _______ _______ _____ _____    ______ ____

>  <TORSDO>
F 2

$$$$
