=
 OpenBabel11052418223D

 27 30  0  0  1  0  0  0  0  0999 V2000
  188.2570  175.6540  146.7080 C   0  0  0  0  0  2  0  0  0  0  0  0
  189.4170  174.5880  144.6520 C   0  0  0  0  0  0  0  0  0  0  0  0
  188.3290  176.5680  143.7050 N   0  0  0  0  0  2  0  0  0  0  0  0
  189.2950  172.5260  141.0140 C   0  0  0  0  0  3  0  0  0  0  0  0
  188.7390  172.4130  138.6720 O   0  0  0  0  0  1  0  0  0  0  0  0
  189.9090  173.2880  144.5140 C   0  0  0  0  0  3  0  0  0  0  0  0
  188.2850  175.1270  141.1240 C   0  0  0  0  0  3  0  0  0  0  0  0
  185.6030  177.5690  144.3400 C   0  0  0  0  0  2  0  0  0  0  0  0
  188.2620  174.4180  139.9210 C   0  0  0  0  0  3  0  0  0  0  0  0
  185.0800  178.4010  145.5050 C   0  0  0  0  0  2  0  0  0  0  0  0
  188.8520  175.2390  143.5310 C   0  0  0  0  0  0  0  0  0  0  0  0
  189.5570  175.2230  146.0110 C   0  0  1  0  0  3  0  0  0  0  0  0
  188.7650  173.1170  139.8660 C   0  0  0  0  0  0  0  0  0  0  0  0
  189.3220  173.2320  142.2220 C   0  0  0  0  0  0  0  0  0  0  0  0
  187.9480  177.0500  146.4480 N   0  0  0  0  0  2  0  0  0  0  0  0
  188.8080  174.5500  142.2920 C   0  0  0  0  0  0  0  0  0  0  0  0
  186.6620  178.3210  143.5480 C   0  0  0  0  0  2  0  0  0  0  0  0
  189.8510  172.6450  143.3230 N   0  0  0  0  0  0  0  0  0  0  0  0
  186.1410  178.6580  146.5740 C   0  0  0  0  0  2  0  0  0  0  0  0
  186.7080  177.3630  147.1350 C   0  0  0  0  0  2  0  0  0  0  0  0
  187.5060  177.3260  142.7740 C   0  0  0  0  0  2  0  0  0  0  0  0
  193.6740  176.5730  146.5840 C   0  0  0  0  0  2  0  0  0  0  0  0
  190.8080  176.0940  146.1960 C   0  0  0  0  0  3  0  0  0  0  0  0
  191.8140  175.8610  145.0670 C   0  0  0  0  0  2  0  0  0  0  0  0
  193.0130  176.7910  145.2260 C   0  0  0  0  0  2  0  0  0  0  0  0
  192.6700  176.8340  147.7030 C   0  0  0  0  0  2  0  0  0  0  0  0
  191.4710  175.9030  147.5620 C   0  0  0  0  0  2  0  0  0  0  0  0
  2 12  1  0  0  0  0
  4 14  1  0  0  0  0
  5 13  1  0  0  0  0
  6  2  1  0  0  0  0
  7 16  1  0  0  0  0
  8 10  1  0  0  0  0
  9  7  2  0  0  0  0
 10 19  1  0  0  0  0
 11  3  1  0  0  0  0
 11  2  2  0  0  0  0
 12 23  1  6  0  0  0
 12  1  1  0  0  0  0
 13  9  1  0  0  0  0
 13  4  2  0  0  0  0
 14 16  2  0  0  0  0
 14 18  1  0  0  0  0
 15  1  1  0  0  0  0
 15 20  1  0  0  0  0
 16 11  1  0  0  0  0
 17  8  1  0  0  0  0
 18  6  2  0  0  0  0
 19 20  1  0  0  0  0
 21 17  1  0  0  0  0
 21  3  1  0  0  0  0
 22 26  1  0  0  0  0
 23 27  1  0  0  0  0
 24 25  1  0  0  0  0
 24 23  1  0  0  0  0
 25 22  1  0  0  0  0
 27 26  1  0  0  0  0
M  END
>  <MODEL>
1

>  <REMARK>
 VINA RESULT:      -8.1      0.000      0.000
  Name = 
  1 active torsions:
  status: ('A' for Active; 'I' for Inactive)
    1  A    between atoms: C_9  and  C_15
                            x       y       z     vdW  Elec       q    Type
                         _______ _______ _______ _____ _____    ______ ____

>  <TORSDO>
F 1

$$$$
=
 OpenBabel11052418223D

 27 30  0  0  1  0  0  0  0  0999 V2000
  189.6410  177.6830  145.1340 C   0  0  0  0  0  2  0  0  0  0  0  0
  188.2430  176.7620  143.1560 C   0  0  0  0  0  0  0  0  0  0  0  0
  189.1370  174.7300  144.1930 N   0  0  0  0  0  2  0  0  0  0  0  0
  187.9310  174.9540  139.3970 C   0  0  0  0  0  3  0  0  0  0  0  0
  188.1670  173.0410  137.9500 O   0  0  0  0  0  1  0  0  0  0  0  0
  187.7740  177.4490  142.0350 C   0  0  0  0  0  3  0  0  0  0  0  0
  188.8720  173.4410  141.5460 C   0  0  0  0  0  3  0  0  0  0  0  0
  191.8940  174.3320  145.2300 C   0  0  0  0  0  2  0  0  0  0  0  0
  188.7520  172.8600  140.2820 C   0  0  0  0  0  3  0  0  0  0  0  0
  192.5470  174.7410  146.5450 C   0  0  0  0  0  2  0  0  0  0  0  0
  188.6330  175.4080  143.0290 C   0  0  0  0  0  0  0  0  0  0  0  0
  188.2710  177.5250  144.4550 C   0  0  1  0  0  3  0  0  0  0  0  0
  188.2840  173.6170  139.2070 C   0  0  0  0  0  0  0  0  0  0  0  0
  188.0480  175.5400  140.6620 C   0  0  0  0  0  0  0  0  0  0  0  0
  189.8720  176.6400  146.1190 N   0  0  0  0  0  2  0  0  0  0  0  0
  188.5290  174.7850  141.7590 C   0  0  0  0  0  0  0  0  0  0  0  0
  190.7170  173.3960  145.4580 C   0  0  0  0  0  2  0  0  0  0  0  0
  187.6900  176.8370  140.8290 N   0  0  0  0  0  0  0  0  0  0  0  0
  191.6330  175.6010  147.4180 C   0  0  0  0  0  2  0  0  0  0  0  0
  191.1840  176.8640  146.6990 C   0  0  0  0  0  2  0  0  0  0  0  0
  189.8040  173.4370  144.2470 C   0  0  0  0  0  2  0  0  0  0  0  0
  184.9420  178.2300  147.1980 C   0  0  0  0  0  2  0  0  0  0  0  0
  187.0330  177.3420  145.3440 C   0  0  0  0  0  3  0  0  0  0  0  0
  185.8830  178.2370  144.8780 C   0  0  0  0  0  2  0  0  0  0  0  0
  184.6380  177.9840  145.7240 C   0  0  0  0  0  2  0  0  0  0  0  0
  186.0720  177.3120  147.6600 C   0  0  0  0  0  2  0  0  0  0  0  0
  187.3260  177.5630  146.8290 C   0  0  0  0  0  2  0  0  0  0  0  0
  1 15  1  0  0  0  0
  2 12  1  0  0  0  0
  3 21  1  0  0  0  0
  4 14  1  0  0  0  0
  5 13  1  0  0  0  0
  6  2  2  0  0  0  0
  7 16  1  0  0  0  0
  8 17  1  0  0  0  0
  8 10  1  0  0  0  0
  9  7  2  0  0  0  0
 10 19  1  0  0  0  0
 11  2  1  0  0  0  0
 11  3  1  0  0  0  0
 12  1  1  0  0  0  0
 12 23  1  1  0  0  0
 13  4  2  0  0  0  0
 13  9  1  0  0  0  0
 14 18  2  0  0  0  0
 14 16  1  0  0  0  0
 15 20  1  0  0  0  0
 16 11  2  0  0  0  0
 18  6  1  0  0  0  0
 20 19  1  0  0  0  0
 21 17  1  0  0  0  0
 22 26  1  0  0  0  0
 23 27  1  0  0  0  0
 24 23  1  0  0  0  0
 24 25  1  0  0  0  0
 25 22  1  0  0  0  0
 27 26  1  0  0  0  0
M  END
>  <MODEL>
2

>  <REMARK>
 VINA RESULT:      -7.9      1.404      4.874
  Name = 
  1 active torsions:
  status: ('A' for Active; 'I' for Inactive)
    1  A    between atoms: C_9  and  C_15
                            x       y       z     vdW  Elec       q    Type
                         _______ _______ _______ _____ _____    ______ ____

>  <TORSDO>
F 1

$$$$
=
 OpenBabel11052418223D

 27 30  0  0  1  0  0  0  0  0999 V2000
  189.4030  174.6620  146.3060 C   0  0  0  0  0  2  0  0  0  0  0  0
  190.3430  173.9420  144.0020 C   0  0  0  0  0  0  0  0  0  0  0  0
  188.9270  175.8610  143.4440 N   0  0  0  0  0  2  0  0  0  0  0  0
  189.8840  172.2380  140.2100 C   0  0  0  0  0  3  0  0  0  0  0  0
  188.9960  172.2850  137.9700 O   0  0  0  0  0  1  0  0  0  0  0  0
  190.9390  172.7280  143.6530 C   0  0  0  0  0  3  0  0  0  0  0  0
  188.6410  174.6790  140.7500 C   0  0  0  0  0  3  0  0  0  0  0  0
  186.2410  176.4690  144.5610 C   0  0  0  0  0  2  0  0  0  0  0  0
  188.5100  174.0910  139.4900 C   0  0  0  0  0  3  0  0  0  0  0  0
  185.8160  177.1180  145.8730 C   0  0  0  0  0  2  0  0  0  0  0  0
  189.5510  174.6260  143.0510 C   0  0  0  0  0  0  0  0  0  0  0  0
  190.6210  174.4570  145.3910 C   0  0  1  0  0  3  0  0  0  0  0  0
  189.1290  172.8700  139.2210 C   0  0  0  0  0  0  0  0  0  0  0  0
  190.0210  172.8230  141.4730 C   0  0  0  0  0  0  0  0  0  0  0  0
  188.9170  176.0300  146.2490 N   0  0  0  0  0  2  0  0  0  0  0  0
  189.3910  174.0580  141.7610 C   0  0  0  0  0  0  0  0  0  0  0  0
  187.0840  177.4130  143.7180 C   0  0  0  0  0  2  0  0  0  0  0  0
  190.7670  172.1990  142.4170 N   0  0  0  0  0  0  0  0  0  0  0  0
  186.9950  177.3950  146.8060 C   0  0  0  0  0  2  0  0  0  0  0  0
  187.7700  176.1280  147.1340 C   0  0  0  0  0  2  0  0  0  0  0  0
  187.9000  176.6030  142.7280 C   0  0  0  0  0  2  0  0  0  0  0  0
  194.5910  176.2120  145.8960 C   0  0  0  0  0  2  0  0  0  0  0  0
  191.7890  175.4460  145.4960 C   0  0  0  0  0  3  0  0  0  0  0  0
  192.8520  175.1590  144.4340 C   0  0  0  0  0  2  0  0  0  0  0  0
  193.9660  176.2000  144.5040 C   0  0  0  0  0  2  0  0  0  0  0  0
  193.5280  176.5270  146.9450 C   0  0  0  0  0  2  0  0  0  0  0  0
  192.4130  175.4870  146.8930 C   0  0  0  0  0  2  0  0  0  0  0  0
  2 12  1  0  0  0  0
  4 14  1  0  0  0  0
  5 13  1  0  0  0  0
  6  2  1  0  0  0  0
  7 16  1  0  0  0  0
  8 10  1  0  0  0  0
  9  7  2  0  0  0  0
 10 19  1  0  0  0  0
 11  3  1  0  0  0  0
 11  2  2  0  0  0  0
 12 23  1  6  0  0  0
 12  1  1  0  0  0  0
 13  9  1  0  0  0  0
 13  4  2  0  0  0  0
 14 16  2  0  0  0  0
 14 18  1  0  0  0  0
 15  1  1  0  0  0  0
 15 20  1  0  0  0  0
 16 11  1  0  0  0  0
 17  8  1  0  0  0  0
 18  6  2  0  0  0  0
 19 20  1  0  0  0  0
 21  3  1  0  0  0  0
 21 17  1  0  0  0  0
 22 26  1  0  0  0  0
 23 27  1  0  0  0  0
 24 25  1  0  0  0  0
 24 23  1  0  0  0  0
 25 22  1  0  0  0  0
 27 26  1  0  0  0  0
M  END
>  <MODEL>
3

>  <REMARK>
 VINA RESULT:      -7.7      1.051      1.219
  Name = 
  1 active torsions:
  status: ('A' for Active; 'I' for Inactive)
    1  A    between atoms: C_9  and  C_15
                            x       y       z     vdW  Elec       q    Type
                         _______ _______ _______ _____ _____    ______ ____

>  <TORSDO>
F 1

$$$$
=
 OpenBabel11052418223D

 27 30  0  0  1  0  0  0  0  0999 V2000
  187.1170  178.9400  143.4010 C   0  0  0  0  0  2  0  0  0  0  0  0
  189.4030  177.7220  143.4150 C   0  0  0  0  0  0  0  0  0  0  0  0
  188.1840  176.6250  145.2340 N   0  0  0  0  0  2  0  0  0  0  0  0
  193.1250  176.9010  145.1370 C   0  0  0  0  0  3  0  0  0  0  0  0
  194.4740  175.9270  146.8820 O   0  0  0  0  0  1  0  0  0  0  0  0
  190.6030  178.1290  142.8270 C   0  0  0  0  0  3  0  0  0  0  0  0
  190.8170  176.0050  146.4260 C   0  0  0  0  0  3  0  0  0  0  0  0
  186.4530  177.9430  147.2580 C   0  0  0  0  0  2  0  0  0  0  0  0
  192.0720  175.7390  146.9760 C   0  0  0  0  0  3  0  0  0  0  0  0
  185.0080  178.4230  147.1920 C   0  0  0  0  0  2  0  0  0  0  0  0
  189.4340  177.0100  144.6360 C   0  0  0  0  0  0  0  0  0  0  0  0
  188.1380  178.0550  142.6680 C   0  0  1  0  0  3  0  0  0  0  0  0
  193.2270  176.1890  146.3330 C   0  0  0  0  0  0  0  0  0  0  0  0
  191.8700  177.1680  144.5810 C   0  0  0  0  0  0  0  0  0  0  0  0
  186.1150  178.1420  144.0880 N   0  0  0  0  0  2  0  0  0  0  0  0
  190.6910  176.7240  145.2280 C   0  0  0  0  0  0  0  0  0  0  0  0
  186.5550  176.4450  147.0200 C   0  0  0  0  0  2  0  0  0  0  0  0
  191.7930  177.8520  143.4130 N   0  0  0  0  0  0  0  0  0  0  0  0
  184.4020  178.2910  145.7950 C   0  0  0  0  0  2  0  0  0  0  0  0
  185.2040  179.0570  144.7530 C   0  0  0  0  0  2  0  0  0  0  0  0
  187.9650  176.1050  146.5760 C   0  0  0  0  0  2  0  0  0  0  0  0
  187.7170  175.1390  139.4390 C   0  0  0  0  0  2  0  0  0  0  0  0
  187.6130  176.9430  141.7490 C   0  0  0  0  0  3  0  0  0  0  0  0
  188.5830  175.7610  141.7050 C   0  0  0  0  0  2  0  0  0  0  0  0
  188.0080  174.6350  140.8500 C   0  0  0  0  0  2  0  0  0  0  0  0
  186.7280  176.3000  139.4920 C   0  0  0  0  0  2  0  0  0  0  0  0
  187.2950  177.4370  140.3360 C   0  0  0  0  0  2  0  0  0  0  0  0
  1 15  1  0  0  0  0
  2 11  1  0  0  0  0
  3 21  1  0  0  0  0
  4 13  2  0  0  0  0
  6 18  1  0  0  0  0
  6  2  2  0  0  0  0
  7  9  2  0  0  0  0
 10  8  1  0  0  0  0
 11 16  2  0  0  0  0
 11  3  1  0  0  0  0
 12 23  1  1  0  0  0
 12  1  1  0  0  0  0
 12  2  1  0  0  0  0
 13  5  1  0  0  0  0
 13  9  1  0  0  0  0
 14  4  1  0  0  0  0
 14 16  1  0  0  0  0
 15 20  1  0  0  0  0
 16  7  1  0  0  0  0
 17  8  1  0  0  0  0
 18 14  2  0  0  0  0
 19 10  1  0  0  0  0
 20 19  1  0  0  0  0
 21 17  1  0  0  0  0
 22 26  1  0  0  0  0
 22 25  1  0  0  0  0
 24 23  1  0  0  0  0
 25 24  1  0  0  0  0
 26 27  1  0  0  0  0
 27 23  1  0  0  0  0
M  END
>  <MODEL>
4

>  <REMARK>
 VINA RESULT:      -7.4      2.675      5.882
  Name = 
  1 active torsions:
  status: ('A' for Active; 'I' for Inactive)
    1  A    between atoms: C_9  and  C_15
                            x       y       z     vdW  Elec       q    Type
                         _______ _______ _______ _____ _____    ______ ____

>  <TORSDO>
F 1

$$$$
=
 OpenBabel11052418223D

 27 30  0  0  1  0  0  0  0  0999 V2000
  187.4810  177.4730  141.3690 C   0  0  0  0  0  2  0  0  0  0  0  0
  189.3340  176.5160  142.9060 C   0  0  0  0  0  0  0  0  0  0  0  0
  187.3610  176.5200  144.3580 N   0  0  0  0  0  2  0  0  0  0  0  0
  191.9690  176.8450  146.1360 C   0  0  0  0  0  3  0  0  0  0  0  0
  192.3960  176.9880  148.5040 O   0  0  0  0  0  1  0  0  0  0  0  0
  190.7180  176.5820  142.7350 C   0  0  0  0  0  3  0  0  0  0  0  0
  189.2270  176.7060  146.6430 C   0  0  0  0  0  3  0  0  0  0  0  0
  185.3120  178.6640  144.5610 C   0  0  0  0  0  2  0  0  0  0  0  0
  190.1300  176.8110  147.7030 C   0  0  0  0  0  3  0  0  0  0  0  0
  184.1060  178.9930  143.6900 C   0  0  0  0  0  2  0  0  0  0  0  0
  188.7910  176.5650  144.2110 C   0  0  0  0  0  0  0  0  0  0  0  0
  188.5050  176.3630  141.6570 C   0  0  1  0  0  3  0  0  0  0  0  0
  191.5010  176.8820  147.4510 C   0  0  0  0  0  0  0  0  0  0  0  0
  191.0700  176.7390  145.0710 C   0  0  0  0  0  0  0  0  0  0  0  0
  186.1670  177.1340  141.8900 N   0  0  0  0  0  2  0  0  0  0  0  0
  189.6770  176.6740  145.3140 C   0  0  0  0  0  0  0  0  0  0  0  0
  185.2020  177.2720  145.1650 C   0  0  0  0  0  2  0  0  0  0  0  0
  191.5460  176.6940  143.8020 N   0  0  0  0  0  0  0  0  0  0  0  0
  184.0230  178.1190  142.4380 C   0  0  0  0  0  2  0  0  0  0  0  0
  185.2730  178.2360  141.5800 C   0  0  0  0  0  2  0  0  0  0  0  0
  186.5840  176.7890  145.5600 C   0  0  0  0  0  2  0  0  0  0  0  0
  188.7140  172.1330  140.5790 C   0  0  0  0  0  2  0  0  0  0  0  0
  188.1380  174.9180  141.2920 C   0  0  0  0  0  3  0  0  0  0  0  0
  188.6940  173.9320  142.3200 C   0  0  0  0  0  2  0  0  0  0  0  0
  188.2530  172.5100  141.9840 C   0  0  0  0  0  2  0  0  0  0  0  0
  188.1310  173.1060  139.5580 C   0  0  0  0  0  2  0  0  0  0  0  0
  188.5730  174.5310  139.8770 C   0  0  0  0  0  2  0  0  0  0  0  0
  1 12  1  0  0  0  0
  1 15  1  0  0  0  0
  2 11  1  0  0  0  0
  3 21  1  0  0  0  0
  4 13  2  0  0  0  0
  6  2  2  0  0  0  0
  6 18  1  0  0  0  0
  7  9  2  0  0  0  0
  8 17  1  0  0  0  0
 10  8  1  0  0  0  0
 11  3  1  0  0  0  0
 11 16  2  0  0  0  0
 12 23  1  1  0  0  0
 12  2  1  0  0  0  0
 13  9  1  0  0  0  0
 13  5  1  0  0  0  0
 14 16  1  0  0  0  0
 14  4  1  0  0  0  0
 16  7  1  0  0  0  0
 17 21  1  0  0  0  0
 18 14  2  0  0  0  0
 19 10  1  0  0  0  0
 20 15  1  0  0  0  0
 20 19  1  0  0  0  0
 22 25  1  0  0  0  0
 23 24  1  0  0  0  0
 25 24  1  0  0  0  0
 26 27  1  0  0  0  0
 26 22  1  0  0  0  0
 27 23  1  0  0  0  0
M  END
>  <MODEL>
5

>  <REMARK>
 VINA RESULT:      -6.9      2.740      5.956
  Name = 
  1 active torsions:
  status: ('A' for Active; 'I' for Inactive)
    1  A    between atoms: C_9  and  C_15
                            x       y       z     vdW  Elec       q    Type
                         _______ _______ _______ _____ _____    ______ ____

>  <TORSDO>
F 1

$$$$
=
 OpenBabel11052418223D

 27 30  0  0  1  0  0  0  0  0999 V2000
  191.7750  177.5020  144.4280 C   0  0  0  0  0  2  0  0  0  0  0  0
  189.9680  176.1230  143.1850 C   0  0  0  0  0  0  0  0  0  0  0  0
  191.4220  174.3960  144.1360 N   0  0  0  0  0  2  0  0  0  0  0  0
  188.7410  173.6520  140.0420 C   0  0  0  0  0  3  0  0  0  0  0  0
  188.7750  171.5380  138.8830 O   0  0  0  0  0  1  0  0  0  0  0  0
  189.0760  176.5550  142.2020 C   0  0  0  0  0  3  0  0  0  0  0  0
  190.5180  172.6350  141.9400 C   0  0  0  0  0  3  0  0  0  0  0  0
  194.3930  174.4330  144.2320 C   0  0  0  0  0  2  0  0  0  0  0  0
  190.0880  171.8300  140.8840 C   0  0  0  0  0  3  0  0  0  0  0  0
  195.3630  175.1270  145.1800 C   0  0  0  0  0  2  0  0  0  0  0  0
  190.4850  174.8080  143.1250 C   0  0  0  0  0  0  0  0  0  0  0  0
  190.2970  177.1060  144.2790 C   0  0  1  0  0  3  0  0  0  0  0  0
  189.2010  172.3380  139.9340 C   0  0  0  0  0  0  0  0  0  0  0  0
  189.1680  174.4620  141.0990 C   0  0  0  0  0  0  0  0  0  0  0  0
  192.4510  176.6770  145.4150 N   0  0  0  0  0  2  0  0  0  0  0  0
  190.0730  173.9610  142.0650 C   0  0  0  0  0  0  0  0  0  0  0  0
  193.4940  173.4540  144.9710 C   0  0  0  0  0  2  0  0  0  0  0  0
  188.7010  175.7320  141.1930 N   0  0  0  0  0  0  0  0  0  0  0  0
  194.6610  176.0460  146.1790 C   0  0  0  0  0  2  0  0  0  0  0  0
  193.8340  177.1160  145.4840 C   0  0  0  0  0  2  0  0  0  0  0  0
  192.2480  173.1980  144.1440 C   0  0  0  0  0  2  0  0  0  0  0  0
  187.0680  176.1990  147.0810 C   0  0  0  0  0  2  0  0  0  0  0  0
  189.4430  176.9780  145.5470 C   0  0  0  0  0  3  0  0  0  0  0  0
  189.1470  175.5110  145.8660 C   0  0  0  0  0  2  0  0  0  0  0  0
  188.3650  175.4000  147.1720 C   0  0  0  0  0  2  0  0  0  0  0  0
  187.3760  177.6650  146.7900 C   0  0  0  0  0  2  0  0  0  0  0  0
  188.1490  177.7920  145.4810 C   0  0  0  0  0  2  0  0  0  0  0  0
  1 15  1  0  0  0  0
  2 12  1  0  0  0  0
  3 21  1  0  0  0  0
  4 14  1  0  0  0  0
  5 13  1  0  0  0  0
  6  2  2  0  0  0  0
  7 16  1  0  0  0  0
  8 17  1  0  0  0  0
  8 10  1  0  0  0  0
  9  7  2  0  0  0  0
 10 19  1  0  0  0  0
 11  2  1  0  0  0  0
 11  3  1  0  0  0  0
 12  1  1  0  0  0  0
 12 23  1  1  0  0  0
 13  4  2  0  0  0  0
 13  9  1  0  0  0  0
 14 18  2  0  0  0  0
 14 16  1  0  0  0  0
 15 20  1  0  0  0  0
 16 11  2  0  0  0  0
 18  6  1  0  0  0  0
 20 19  1  0  0  0  0
 21 17  1  0  0  0  0
 22 25  1  0  0  0  0
 23 24  1  0  0  0  0
 24 25  1  0  0  0  0
 26 22  1  0  0  0  0
 27 23  1  0  0  0  0
 27 26  1  0  0  0  0
M  END
>  <MODEL>
6

>  <REMARK>
 VINA RESULT:      -6.8      1.952      5.154
  Name = 
  1 active torsions:
  status: ('A' for Active; 'I' for Inactive)
    1  A    between atoms: C_9  and  C_15
                            x       y       z     vdW  Elec       q    Type
                         _______ _______ _______ _____ _____    ______ ____

>  <TORSDO>
F 1

$$$$
=
 OpenBabel11052418223D

 27 30  0  0  1  0  0  0  0  0999 V2000
  192.8350  174.8550  141.7940 C   0  0  0  0  0  2  0  0  0  0  0  0
  191.0010  176.3620  142.8310 C   0  0  0  0  0  0  0  0  0  0  0  0
  190.0270  174.1200  142.9910 N   0  0  0  0  0  2  0  0  0  0  0  0
  187.2500  178.2090  142.7080 C   0  0  0  0  0  3  0  0  0  0  0  0
  184.8430  178.0990  142.7500 O   0  0  0  0  0  1  0  0  0  0  0  0
  190.8550  177.7470  142.7190 C   0  0  0  0  0  3  0  0  0  0  0  0
  187.3770  175.4300  142.9510 C   0  0  0  0  0  3  0  0  0  0  0  0
  190.1240  171.9910  140.9200 C   0  0  0  0  0  2  0  0  0  0  0  0
  186.1380  176.0730  142.9130 C   0  0  0  0  0  3  0  0  0  0  0  0
  191.2150  170.9940  140.5480 C   0  0  0  0  0  2  0  0  0  0  0  0
  189.8490  175.5450  142.9020 C   0  0  0  0  0  0  0  0  0  0  0  0
  192.4110  175.8350  142.9000 C   0  0  1  0  0  3  0  0  0  0  0  0
  186.0740  177.4610  142.7900 C   0  0  0  0  0  0  0  0  0  0  0  0
  188.4940  177.5700  142.7460 C   0  0  0  0  0  0  0  0  0  0  0  0
  192.6460  173.4730  142.2040 N   0  0  0  0  0  2  0  0  0  0  0  0
  188.5720  176.1610  142.8630 C   0  0  0  0  0  0  0  0  0  0  0  0
  189.6660  171.8080  142.3580 C   0  0  0  0  0  2  0  0  0  0  0  0
  189.6260  178.3150  142.6760 N   0  0  0  0  0  0  0  0  0  0  0  0
  192.5150  171.2230  141.3170 C   0  0  0  0  0  2  0  0  0  0  0  0
  193.0640  172.6250  141.1010 C   0  0  0  0  0  2  0  0  0  0  0  0
  189.0120  173.0890  142.8400 C   0  0  0  0  0  2  0  0  0  0  0  0
  194.1490  176.4550  146.8610 C   0  0  0  0  0  2  0  0  0  0  0  0
  192.9560  175.6160  144.3170 C   0  0  0  0  0  3  0  0  0  0  0  0
  192.1570  176.4200  145.3450 C   0  0  0  0  0  2  0  0  0  0  0  0
  192.6620  176.1290  146.7550 C   0  0  0  0  0  2  0  0  0  0  0  0
  194.9400  175.6290  145.8510 C   0  0  0  0  0  2  0  0  0  0  0  0
  194.4510  175.9180  144.4360 C   0  0  0  0  0  2  0  0  0  0  0  0
  1 15  1  0  0  0  0
  1 12  1  0  0  0  0
  2 12  1  0  0  0  0
  2 11  1  0  0  0  0
  4 14  1  0  0  0  0
  4 13  2  0  0  0  0
  5 13  1  0  0  0  0
  6  2  2  0  0  0  0
  8 17  1  0  0  0  0
  9  7  2  0  0  0  0
 10  8  1  0  0  0  0
 10 19  1  0  0  0  0
 11  3  1  0  0  0  0
 12 23  1  1  0  0  0
 13  9  1  0  0  0  0
 14 16  1  0  0  0  0
 16 11  2  0  0  0  0
 16  7  1  0  0  0  0
 17 21  1  0  0  0  0
 18  6  1  0  0  0  0
 18 14  2  0  0  0  0
 20 19  1  0  0  0  0
 20 15  1  0  0  0  0
 21  3  1  0  0  0  0
 23 27  1  0  0  0  0
 23 24  1  0  0  0  0
 24 25  1  0  0  0  0
 25 22  1  0  0  0  0
 26 22  1  0  0  0  0
 27 26  1  0  0  0  0
M  END
>  <MODEL>
7

>  <REMARK>
 VINA RESULT:      -6.7      2.742      5.747
  Name = 
  1 active torsions:
  status: ('A' for Active; 'I' for Inactive)
    1  A    between atoms: C_9  and  C_15
                            x       y       z     vdW  Elec       q    Type
                         _______ _______ _______ _____ _____    ______ ____

>  <TORSDO>
F 1

$$$$
=
 OpenBabel11052418223D

 27 30  0  0  1  0  0  0  0  0999 V2000
  189.9910  176.8610  143.0700 C   0  0  0  0  0  2  0  0  0  0  0  0
  192.1630  175.4660  142.8490 C   0  0  0  0  0  0  0  0  0  0  0  0
  191.4600  175.0290  145.1550 N   0  0  0  0  0  2  0  0  0  0  0  0
  196.1920  174.7660  143.7270 C   0  0  0  0  0  3  0  0  0  0  0  0
  197.9410  174.1670  145.2730 O   0  0  0  0  0  1  0  0  0  0  0  0
  193.1660  175.5760  141.8840 C   0  0  0  0  0  3  0  0  0  0  0  0
  194.3020  174.4890  145.7630 C   0  0  0  0  0  3  0  0  0  0  0  0
  190.3810  177.0130  147.0880 C   0  0  0  0  0  2  0  0  0  0  0  0
  195.6530  174.2560  146.0270 C   0  0  0  0  0  3  0  0  0  0  0  0
  188.9860  177.6010  147.2570 C   0  0  0  0  0  2  0  0  0  0  0  0
  192.5090  175.1100  144.1740 C   0  0  0  0  0  0  0  0  0  0  0  0
  190.7500  175.7120  142.3870 C   0  0  1  0  0  3  0  0  0  0  0  0
  196.5990  174.3960  145.0100 C   0  0  0  0  0  0  0  0  0  0  0  0
  194.8400  175.0000  143.4560 C   0  0  0  0  0  0  0  0  0  0  0  0
  189.1950  176.3830  144.1890 N   0  0  0  0  0  2  0  0  0  0  0  0
  193.8720  174.8690  144.4820 C   0  0  0  0  0  0  0  0  0  0  0  0
  190.3770  175.5030  147.2720 C   0  0  0  0  0  2  0  0  0  0  0  0
  194.4640  175.3480  142.2010 N   0  0  0  0  0  0  0  0  0  0  0  0
  188.0190  177.1590  146.1590 C   0  0  0  0  0  2  0  0  0  0  0  0
  188.5240  177.5310  144.7730 C   0  0  0  0  0  2  0  0  0  0  0  0
  191.6030  174.9150  146.5990 C   0  0  0  0  0  2  0  0  0  0  0  0
  188.9080  172.4690  140.1100 C   0  0  0  0  0  2  0  0  0  0  0  0
  189.9670  174.4530  141.9910 C   0  0  0  0  0  3  0  0  0  0  0  0
  190.8800  173.4240  141.3200 C   0  0  0  0  0  2  0  0  0  0  0  0
  190.1010  172.1500  141.0050 C   0  0  0  0  0  2  0  0  0  0  0  0
  187.9890  173.4740  140.7990 C   0  0  0  0  0  2  0  0  0  0  0  0
  188.7530  174.7570  141.1100 C   0  0  0  0  0  2  0  0  0  0  0  0
  1 15  1  0  0  0  0
  2 11  1  0  0  0  0
  3 21  1  0  0  0  0
  4 13  2  0  0  0  0
  6 18  1  0  0  0  0
  6  2  2  0  0  0  0
  7  9  2  0  0  0  0
  8 10  1  0  0  0  0
  8 17  1  0  0  0  0
 11 16  2  0  0  0  0
 11  3  1  0  0  0  0
 12 23  1  1  0  0  0
 12  2  1  0  0  0  0
 12  1  1  0  0  0  0
 13  5  1  0  0  0  0
 13  9  1  0  0  0  0
 14  4  1  0  0  0  0
 14 16  1  0  0  0  0
 15 20  1  0  0  0  0
 16  7  1  0  0  0  0
 18 14  2  0  0  0  0
 19 10  1  0  0  0  0
 20 19  1  0  0  0  0
 21 17  1  0  0  0  0
 22 26  1  0  0  0  0
 22 25  1  0  0  0  0
 24 23  1  0  0  0  0
 25 24  1  0  0  0  0
 26 27  1  0  0  0  0
 27 23  1  0  0  0  0
M  END
>  <MODEL>
8

>  <REMARK>
 VINA RESULT:      -6.5      3.275      6.290
  Name = 
  1 active torsions:
  status: ('A' for Active; 'I' for Inactive)
    1  A    between atoms: C_9  and  C_15
                            x       y       z     vdW  Elec       q    Type
                         _______ _______ _______ _____ _____    ______ ____

>  <TORSDO>
F 1

$$$$
=
 OpenBabel11052418223D

 27 30  0  0  1  0  0  0  0  0999 V2000
  188.2500  173.2390  141.7210 C   0  0  0  0  0  2  0  0  0  0  0  0
  189.7960  174.4850  143.3860 C   0  0  0  0  0  0  0  0  0  0  0  0
  191.1380  174.4100  141.3380 N   0  0  0  0  0  2  0  0  0  0  0  0
  193.1760  174.6620  145.8420 C   0  0  0  0  0  3  0  0  0  0  0  0
  195.5670  174.7480  146.1380 O   0  0  0  0  0  1  0  0  0  0  0  0
  189.7030  174.5350  144.7780 C   0  0  0  0  0  3  0  0  0  0  0  0
  193.5250  174.5820  143.0740 C   0  0  0  0  0  3  0  0  0  0  0  0
  191.4140  172.1070  139.4800 C   0  0  0  0  0  2  0  0  0  0  0  0
  194.6360  174.6470  143.9160 C   0  0  0  0  0  3  0  0  0  0  0  0
  190.5120  171.5980  138.3620 C   0  0  0  0  0  2  0  0  0  0  0  0
  191.0700  174.4890  142.7730 C   0  0  0  0  0  0  0  0  0  0  0  0
  188.4970  174.4590  142.6230 C   0  0  1  0  0  3  0  0  0  0  0  0
  194.4630  174.6850  145.3010 C   0  0  0  0  0  0  0  0  0  0  0  0
  192.0600  174.5980  145.0030 C   0  0  0  0  0  0  0  0  0  0  0  0
  188.6710  173.4920  140.3530 N   0  0  0  0  0  2  0  0  0  0  0  0
  192.2230  174.5510  143.5970 C   0  0  0  0  0  0  0  0  0  0  0  0
  191.8910  173.5250  139.2100 C   0  0  0  0  0  2  0  0  0  0  0  0
  190.8180  174.5870  145.5470 N   0  0  0  0  0  0  0  0  0  0  0  0
  189.1880  172.3570  138.2770 C   0  0  0  0  0  2  0  0  0  0  0  0
  188.4090  172.2910  139.5810 C   0  0  0  0  0  2  0  0  0  0  0  0
  192.3160  174.1660  140.5180 C   0  0  0  0  0  2  0  0  0  0  0  0
  187.0740  178.5900  142.5180 C   0  0  0  0  0  2  0  0  0  0  0  0
  187.9920  175.8290  142.1510 C   0  0  0  0  0  3  0  0  0  0  0  0
  188.9590  176.9430  142.5580 C   0  0  0  0  0  2  0  0  0  0  0  0
  188.4810  178.2860  142.0130 C   0  0  0  0  0  2  0  0  0  0  0  0
  186.1120  177.4870  142.0830 C   0  0  0  0  0  2  0  0  0  0  0  0
  186.5730  176.1410  142.6300 C   0  0  0  0  0  2  0  0  0  0  0  0
  1 12  1  0  0  0  0
  2  6  1  0  0  0  0
  3 11  1  0  0  0  0
  6 18  2  0  0  0  0
  7 16  2  0  0  0  0
  7  9  1  0  0  0  0
  9 13  2  0  0  0  0
 10  8  1  0  0  0  0
 11  2  2  0  0  0  0
 11 16  1  0  0  0  0
 12 23  1  6  0  0  0
 12  2  1  0  0  0  0
 13  4  1  0  0  0  0
 13  5  1  0  0  0  0
 14 18  1  0  0  0  0
 14  4  2  0  0  0  0
 15  1  1  0  0  0  0
 16 14  1  0  0  0  0
 17  8  1  0  0  0  0
 17 21  1  0  0  0  0
 19 10  1  0  0  0  0
 19 20  1  0  0  0  0
 20 15  1  0  0  0  0
 21  3  1  0  0  0  0
 23 24  1  0  0  0  0
 23 27  1  0  0  0  0
 25 22  1  0  0  0  0
 25 24  1  0  0  0  0
 26 22  1  0  0  0  0
 26 27  1  0  0  0  0
M  END
>  <MODEL>
9

>  <REMARK>
 VINA RESULT:      -6.5      3.110      6.807
  Name = 
  1 active torsions:
  status: ('A' for Active; 'I' for Inactive)
    1  A    between atoms: C_9  and  C_15
                            x       y       z     vdW  Elec       q    Type
                         _______ _______ _______ _____ _____    ______ ____

>  <TORSDO>
F 1

$$$$
