=
 OpenBabel11052419083D

 32 34  0  0  1  0  0  0  0  0999 V2000
  188.3460  176.5600  146.2140 N   0  0  0  0  0  0  0  0  0  0  0  0
  190.0610  177.8970  144.4490 C   0  0  0  0  0  2  0  0  0  0  0  0
  187.7960  176.5550  144.8600 C   0  0  2  0  0  3  0  0  0  0  0  0
  191.0460  175.9950  143.2780 C   0  0  0  0  0  2  0  0  0  0  0  0
  189.6260  175.6240  143.6760 C   0  0  1  0  0  0  0  0  0  0  0  0
  189.3810  175.4950  146.3360 C   0  0  1  0  0  3  0  0  0  0  0  0
  190.6710  173.6030  145.0170 C   0  0  0  0  0  1  0  0  0  0  0  0
  189.6660  174.7480  144.9830 C   0  0  2  0  0  3  0  0  0  0  0  0
  188.9540  177.0020  143.9080 C   0  0  2  0  0  0  0  0  0  0  0  0
  191.3650  177.3350  143.9180 C   0  0  0  0  0  2  0  0  0  0  0  0
  187.6610  177.8350  144.1350 C   0  0  1  0  0  3  0  0  0  0  0  0
  190.6550  176.0750  146.9820 C   0  0  2  0  0  3  0  0  0  0  0  0
  191.2240  175.1680  147.8780 O   0  0  0  0  0  1  0  0  0  0  0  0
  190.3870  177.3930  147.7050 C   0  0  0  0  0  2  0  0  0  0  0  0
  191.2890  177.5670  148.7570 O   0  0  0  0  0  1  0  0  0  0  0  0
  185.9160  176.6200  143.0430 C   0  0  0  0  0  1  0  0  0  0  0  0
  186.7310  177.8240  142.9800 N   0  0  0  0  0  0  0  0  0  0  0  0
  185.8320  178.9700  142.8670 C   0  0  0  0  0  2  0  0  0  0  0  0
  185.6380  179.6200  144.2270 C   0  0  0  0  0  2  0  0  0  0  0  0
  184.2570  179.3000  144.7740 C   0  0  0  0  0  2  0  0  0  0  0  0
  183.3940  179.0180  143.7150 O   0  0  0  0  0  1  0  0  0  0  0  0
  187.2580  176.1900  147.1070 C   0  0  0  0  0  2  0  0  0  0  0  0
  186.1860  177.2630  147.0830 C   0  0  0  0  0  2  0  0  0  0  0  0
  186.6790  178.4840  147.8350 C   0  0  0  0  0  1  0  0  0  0  0  0
  188.9990  174.8530  142.5120 C   0  0  0  0  0  2  0  0  0  0  0  0
  189.9640  174.5000  141.5620 O   0  0  0  0  0  0  0  0  0  0  0  0
  189.6380  173.1960  141.1780 C   0  0  1  0  0  3  0  0  0  0  0  0
  190.2020  173.5750  138.8770 O   0  0  0  0  0  0  0  0  0  0  0  0
  188.1180  172.6170  139.2460 N   0  0  0  0  0  1  0  0  0  0  0  0
  189.3540  173.1510  139.7080 C   0  0  0  0  0  0  0  0  0  0  0  0
  190.7650  172.2770  141.5340 C   0  0  0  0  0  3  0  0  0  0  0  0
  190.5780  170.9620  141.6130 C   0  0  0  0  0  2  0  0  0  0  0  0
  1  6  1  0  0  0  0
  1 22  1  0  0  0  0
  3  1  1  1  0  0  0
  4  5  1  0  0  0  0
  4 10  1  0  0  0  0
  5 25  1  6  0  0  0
  5  9  1  0  0  0  0
  5  8  1  0  0  0  0
  6 12  1  6  0  0  0
  8  7  1  1  0  0  0
  8  6  1  0  0  0  0
  9 11  1  0  0  0  0
  9  2  1  1  0  0  0
  9  3  1  0  0  0  0
 10  2  1  0  0  0  0
 11 17  1  6  0  0  0
 11  3  1  0  0  0  0
 12 14  1  0  0  0  0
 12 13  1  1  0  0  0
 14 15  1  0  0  0  0
 17 16  1  0  0  0  0
 18 17  1  0  0  0  0
 18 19  1  0  0  0  0
 19 20  1  0  0  0  0
 21 20  1  0  0  0  0
 23 22  1  0  0  0  0
 23 24  1  0  0  0  0
 26 25  1  0  0  0  0
 27 31  1  6  0  0  0
 27 26  1  0  0  0  0
 28 30  2  0  0  0  0
 29 30  1  0  0  0  0
 30 27  1  0  0  0  0
 31 32  2  0  0  0  0
M  END
>  <MODEL>
1

>  <REMARK>
 VINA RESULT:      -6.0      0.000      0.000
  Name = 
  13 active torsions:
  status: ('A' for Active; 'I' for Inactive)
    1  A    between atoms: C_1  and  C_4
    2  A    between atoms: C_1  and  C_27
    3  A    between atoms: C_2  and  N_5
    4  A    between atoms: C_2  and  C_14
    5  A    between atoms: O_3  and  C_19
    6  A    between atoms: O_3  and  C_22
    7  A    between atoms: C_6  and  C_13
    8  A    between atoms: C_6  and  C_18
    9  A    between atoms: C_12  and  C_22
   10  A    between atoms: C_15  and  C_19
   11  A    between atoms: C_19  and  C_26
   12  A    between atoms: N_24  and  C_27
   13  A    between atoms: N_24  and  C_32
                            x       y       z     vdW  Elec       q    Type
                         _______ _______ _______ _____ _____    ______ ____

>  <TORSDO>
F 13

$$$$
=
 OpenBabel11052419083D

 32 34  0  0  1  0  0  0  0  0999 V2000
  188.2000  177.1420  146.0830 N   0  0  0  0  0  0  0  0  0  0  0  0
  190.1870  177.8060  144.2240 C   0  0  0  0  0  2  0  0  0  0  0  0
  187.6730  177.0750  144.7210 C   0  0  2  0  0  3  0  0  0  0  0  0
  190.7230  175.5890  143.3520 C   0  0  0  0  0  2  0  0  0  0  0  0
  189.2520  175.6040  143.7410 C   0  0  1  0  0  0  0  0  0  0  0  0
  188.9640  175.8990  146.3840 C   0  0  1  0  0  3  0  0  0  0  0  0
  189.8010  173.6030  145.3750 C   0  0  0  0  0  1  0  0  0  0  0  0
  189.0830  174.9290  145.1530 C   0  0  2  0  0  3  0  0  0  0  0  0
  188.9090  177.1170  143.7630 C   0  0  2  0  0  0  0  0  0  0  0  0
  191.3330  176.8980  143.8220 C   0  0  0  0  0  2  0  0  0  0  0  0
  187.8380  178.2410  143.8290 C   0  0  1  0  0  3  0  0  0  0  0  0
  190.3320  176.2610  146.9960 C   0  0  2  0  0  3  0  0  0  0  0  0
  190.7520  175.2880  147.9050 O   0  0  0  0  0  1  0  0  0  0  0  0
  190.3120  177.6210  147.6900 C   0  0  0  0  0  2  0  0  0  0  0  0
  191.2040  177.6350  148.7650 O   0  0  0  0  0  1  0  0  0  0  0  0
  187.7090  177.9550  141.4590 C   0  0  0  0  0  1  0  0  0  0  0  0
  186.9390  178.2800  142.6510 N   0  0  0  0  0  0  0  0  0  0  0  0
  185.7820  177.3880  142.6950 C   0  0  0  0  0  2  0  0  0  0  0  0
  184.5020  178.1960  142.8250 C   0  0  0  0  0  2  0  0  0  0  0  0
  183.6650  178.0690  141.5640 C   0  0  0  0  0  2  0  0  0  0  0  0
  184.3500  178.6450  140.4940 O   0  0  0  0  0  1  0  0  0  0  0  0
  187.0490  177.1510  146.9750 C   0  0  0  0  0  2  0  0  0  0  0  0
  185.8150  176.6860  146.2250 C   0  0  0  0  0  2  0  0  0  0  0  0
  184.6550  177.6100  146.5420 C   0  0  0  0  0  1  0  0  0  0  0  0
  188.4750  174.8410  142.6660 C   0  0  0  0  0  2  0  0  0  0  0  0
  189.3290  174.3760  141.6590 O   0  0  0  0  0  0  0  0  0  0  0  0
  188.7210  173.2160  141.1730 C   0  0  1  0  0  3  0  0  0  0  0  0
  188.5890  172.1160  139.0450 O   0  0  0  0  0  0  0  0  0  0  0  0
  190.3830  173.5690  139.3040 N   0  0  0  0  0  1  0  0  0  0  0  0
  189.2100  172.9230  139.7870 C   0  0  0  0  0  0  0  0  0  0  0  0
  189.0170  172.0760  142.0960 C   0  0  0  0  0  3  0  0  0  0  0  0
  190.2560  171.6100  142.2350 C   0  0  0  0  0  2  0  0  0  0  0  0
  1  6  1  0  0  0  0
  1 22  1  0  0  0  0
  3  1  1  1  0  0  0
  4  5  1  0  0  0  0
  4 10  1  0  0  0  0
  5 25  1  6  0  0  0
  5  9  1  0  0  0  0
  5  8  1  0  0  0  0
  6 12  1  6  0  0  0
  8  7  1  1  0  0  0
  8  6  1  0  0  0  0
  9 11  1  0  0  0  0
  9  2  1  1  0  0  0
  9  3  1  0  0  0  0
 10  2  1  0  0  0  0
 11 17  1  6  0  0  0
 11  3  1  0  0  0  0
 12 14  1  0  0  0  0
 12 13  1  1  0  0  0
 14 15  1  0  0  0  0
 16 17  1  0  0  0  0
 17 18  1  0  0  0  0
 18 19  1  0  0  0  0
 20 19  1  0  0  0  0
 21 20  1  0  0  0  0
 23 24  1  0  0  0  0
 23 22  1  0  0  0  0
 26 25  1  0  0  0  0
 27 26  1  0  0  0  0
 27 31  1  1  0  0  0
 28 30  2  0  0  0  0
 29 30  1  0  0  0  0
 30 27  1  0  0  0  0
 31 32  2  0  0  0  0
M  END
>  <MODEL>
2

>  <REMARK>
 VINA RESULT:      -5.9      1.287      1.464
  Name = 
  13 active torsions:
  status: ('A' for Active; 'I' for Inactive)
    1  A    between atoms: C_1  and  C_4
    2  A    between atoms: C_1  and  C_27
    3  A    between atoms: C_2  and  N_5
    4  A    between atoms: C_2  and  C_14
    5  A    between atoms: O_3  and  C_19
    6  A    between atoms: O_3  and  C_22
    7  A    between atoms: C_6  and  C_13
    8  A    between atoms: C_6  and  C_18
    9  A    between atoms: C_12  and  C_22
   10  A    between atoms: C_15  and  C_19
   11  A    between atoms: C_19  and  C_26
   12  A    between atoms: N_24  and  C_27
   13  A    between atoms: N_24  and  C_32
                            x       y       z     vdW  Elec       q    Type
                         _______ _______ _______ _____ _____    ______ ____

>  <TORSDO>
F 13

$$$$
=
 OpenBabel11052419083D

 32 34  0  0  1  0  0  0  0  0999 V2000
  191.6800  176.0380  144.0590 N   0  0  0  0  0  0  0  0  0  0  0  0
  189.9140  174.0760  144.9980 C   0  0  0  0  0  2  0  0  0  0  0  0
  190.3480  176.2280  143.4870 C   0  0  2  0  0  3  0  0  0  0  0  0
  188.6200  175.3880  146.6000 C   0  0  0  0  0  2  0  0  0  0  0  0
  189.0540  176.3110  145.4710 C   0  0  1  0  0  0  0  0  0  0  0  0
  191.7130  176.5990  145.4400 C   0  0  1  0  0  3  0  0  0  0  0  0
  190.2600  177.7750  147.3090 C   0  0  0  0  0  1  0  0  0  0  0  0
  190.3170  177.1310  145.9290 C   0  0  2  0  0  3  0  0  0  0  0  0
  189.3750  175.3270  144.3150 C   0  0  2  0  0  0  0  0  0  0  0  0
  189.3090  174.0520  146.3880 C   0  0  0  0  0  2  0  0  0  0  0  0
  189.6880  175.0920  142.8110 C   0  0  1  0  0  3  0  0  0  0  0  0
  192.3360  175.5720  146.4060 C   0  0  2  0  0  3  0  0  0  0  0  0
  191.8110  175.7080  147.6930 O   0  0  0  0  0  1  0  0  0  0  0  0
  193.8570  175.6890  146.4710 C   0  0  0  0  0  2  0  0  0  0  0  0
  194.2390  177.0180  146.6700 O   0  0  0  0  0  1  0  0  0  0  0  0
  187.3520  174.8080  142.3860 C   0  0  0  0  0  1  0  0  0  0  0  0
  188.5690  175.4460  141.9040 N   0  0  0  0  0  0  0  0  0  0  0  0
  188.2970  176.8730  141.7470 C   0  0  0  0  0  2  0  0  0  0  0  0
  186.8000  177.1130  141.6470 C   0  0  0  0  0  2  0  0  0  0  0  0
  186.4500  177.7100  140.2950 C   0  0  0  0  0  2  0  0  0  0  0  0
  185.1430  178.1980  140.3280 O   0  0  0  0  0  1  0  0  0  0  0  0
  192.5950  176.8390  143.2600 C   0  0  0  0  0  2  0  0  0  0  0  0
  193.8300  176.0250  142.9220 C   0  0  0  0  0  2  0  0  0  0  0  0
  193.4480  174.5640  142.7870 C   0  0  0  0  0  1  0  0  0  0  0  0
  187.8810  177.2370  145.1460 C   0  0  0  0  0  2  0  0  0  0  0  0
  186.6560  176.6190  145.4220 O   0  0  0  0  0  0  0  0  0  0  0  0
  185.7790  177.6650  145.7200 C   0  0  1  0  0  3  0  0  0  0  0  0
  185.9440  177.1100  148.0480 O   0  0  0  0  0  0  0  0  0  0  0  0
  185.8890  179.3830  147.5680 N   0  0  0  0  0  1  0  0  0  0  0  0
  185.8730  178.0150  147.1740 C   0  0  0  0  0  0  0  0  0  0  0  0
  186.1080  178.8470  144.8620 C   0  0  0  0  0  3  0  0  0  0  0  0
  185.1740  179.4370  144.1200 C   0  0  0  0  0  2  0  0  0  0  0  0
  1  6  1  0  0  0  0
  2 10  1  0  0  0  0
  3  1  1  1  0  0  0
  3  9  1  0  0  0  0
  5 25  1  6  0  0  0
  5  8  1  0  0  0  0
  5  4  1  0  0  0  0
  6  8  1  0  0  0  0
  6 12  1  1  0  0  0
  8  7  1  1  0  0  0
  9  2  1  1  0  0  0
  9  5  1  0  0  0  0
 10  4  1  0  0  0  0
 11 17  1  6  0  0  0
 11  3  1  0  0  0  0
 11  9  1  0  0  0  0
 12 14  1  0  0  0  0
 12 13  1  1  0  0  0
 14 15  1  0  0  0  0
 17 16  1  0  0  0  0
 18 17  1  0  0  0  0
 19 18  1  0  0  0  0
 20 21  1  0  0  0  0
 20 19  1  0  0  0  0
 22  1  1  0  0  0  0
 23 22  1  0  0  0  0
 24 23  1  0  0  0  0
 25 26  1  0  0  0  0
 26 27  1  0  0  0  0
 27 31  1  6  0  0  0
 27 30  1  0  0  0  0
 30 29  1  0  0  0  0
 30 28  2  0  0  0  0
 32 31  2  0  0  0  0
M  END
>  <MODEL>
3

>  <REMARK>
 VINA RESULT:      -5.9      2.615      5.785
  Name = 
  13 active torsions:
  status: ('A' for Active; 'I' for Inactive)
    1  A    between atoms: C_1  and  C_4
    2  A    between atoms: C_1  and  C_27
    3  A    between atoms: C_2  and  N_5
    4  A    between atoms: C_2  and  C_14
    5  A    between atoms: O_3  and  C_19
    6  A    between atoms: O_3  and  C_22
    7  A    between atoms: C_6  and  C_13
    8  A    between atoms: C_6  and  C_18
    9  A    between atoms: C_12  and  C_22
   10  A    between atoms: C_15  and  C_19
   11  A    between atoms: C_19  and  C_26
   12  A    between atoms: N_24  and  C_27
   13  A    between atoms: N_24  and  C_32
                            x       y       z     vdW  Elec       q    Type
                         _______ _______ _______ _____ _____    ______ ____

>  <TORSDO>
F 13

$$$$
=
 OpenBabel11052419083D

 32 34  0  0  1  0  0  0  0  0999 V2000
  191.2590  176.0900  144.3300 N   0  0  0  0  0  0  0  0  0  0  0  0
  189.8580  174.0650  145.6650 C   0  0  0  0  0  2  0  0  0  0  0  0
  189.9140  175.9440  143.7770 C   0  0  2  0  0  3  0  0  0  0  0  0
  188.3600  175.4120  147.0450 C   0  0  0  0  0  2  0  0  0  0  0  0
  188.6280  176.1710  145.7540 C   0  0  1  0  0  0  0  0  0  0  0  0
  191.1980  176.8920  145.5840 C   0  0  1  0  0  3  0  0  0  0  0  0
  189.5670  178.1300  147.2560 C   0  0  0  0  0  1  0  0  0  0  0  0
  189.7320  177.2620  146.0140 C   0  0  2  0  0  3  0  0  0  0  0  0
  189.1100  175.0590  144.7860 C   0  0  2  0  0  0  0  0  0  0  0  0
  189.2680  174.1950  147.0560 C   0  0  0  0  0  2  0  0  0  0  0  0
  189.4580  174.6080  143.3400 C   0  0  1  0  0  3  0  0  0  0  0  0
  191.9890  176.1810  146.6990 C   0  0  2  0  0  3  0  0  0  0  0  0
  191.7570  176.7770  147.9410 O   0  0  0  0  0  1  0  0  0  0  0  0
  193.4900  176.1660  146.4230 C   0  0  0  0  0  2  0  0  0  0  0  0
  194.1100  177.2670  147.0200 O   0  0  0  0  0  1  0  0  0  0  0  0
  188.2740  175.8410  141.6670 C   0  0  0  0  0  1  0  0  0  0  0  0
  188.2940  174.5950  142.4210 N   0  0  0  0  0  0  0  0  0  0  0  0
  188.2410  173.4910  141.4650 C   0  0  0  0  0  2  0  0  0  0  0  0
  189.3800  172.5190  141.7250 C   0  0  0  0  0  2  0  0  0  0  0  0
  190.2380  172.3650  140.4810 C   0  0  0  0  0  2  0  0  0  0  0  0
  191.0410  173.4950  140.3300 O   0  0  0  0  0  1  0  0  0  0  0  0
  192.0220  176.8730  143.3690 C   0  0  0  0  0  2  0  0  0  0  0  0
  192.7830  175.9460  142.4400 C   0  0  0  0  0  2  0  0  0  0  0  0
  193.1570  174.6800  143.1860 C   0  0  0  0  0  1  0  0  0  0  0  0
  187.3120  176.8110  145.3050 C   0  0  0  0  0  2  0  0  0  0  0  0
  187.5300  178.0750  144.7450 O   0  0  0  0  0  0  0  0  0  0  0  0
  186.2580  178.6380  144.6110 C   0  0  1  0  0  3  0  0  0  0  0  0
  186.5030  178.8440  142.2330 O   0  0  0  0  0  0  0  0  0  0  0  0
  184.4920  177.9270  142.9510 N   0  0  0  0  0  1  0  0  0  0  0  0
  185.7770  178.4860  143.2000 C   0  0  0  0  0  0  0  0  0  0  0  0
  185.3190  177.9750  145.5700 C   0  0  0  0  0  3  0  0  0  0  0  0
  184.6100  178.6910  146.4400 C   0  0  0  0  0  2  0  0  0  0  0  0
  1  6  1  0  0  0  0
  2 10  1  0  0  0  0
  3  1  1  1  0  0  0
  3  9  1  0  0  0  0
  4 10  1  0  0  0  0
  5 25  1  6  0  0  0
  5  8  1  0  0  0  0
  5  4  1  0  0  0  0
  6  8  1  0  0  0  0
  6 12  1  1  0  0  0
  8  7  1  1  0  0  0
  9  2  1  1  0  0  0
  9  5  1  0  0  0  0
 11 17  1  6  0  0  0
 11  3  1  0  0  0  0
 11  9  1  0  0  0  0
 12 13  1  1  0  0  0
 14 12  1  0  0  0  0
 14 15  1  0  0  0  0
 16 17  1  0  0  0  0
 18 19  1  0  0  0  0
 18 17  1  0  0  0  0
 20 19  1  0  0  0  0
 21 20  1  0  0  0  0
 22  1  1  0  0  0  0
 23 24  1  0  0  0  0
 23 22  1  0  0  0  0
 26 25  1  0  0  0  0
 27 26  1  0  0  0  0
 27 31  1  1  0  0  0
 28 30  2  0  0  0  0
 29 30  1  0  0  0  0
 30 27  1  0  0  0  0
 31 32  2  0  0  0  0
M  END
>  <MODEL>
4

>  <REMARK>
 VINA RESULT:      -5.8      2.004      5.974
  Name = 
  13 active torsions:
  status: ('A' for Active; 'I' for Inactive)
    1  A    between atoms: C_1  and  C_4
    2  A    between atoms: C_1  and  C_27
    3  A    between atoms: C_2  and  N_5
    4  A    between atoms: C_2  and  C_14
    5  A    between atoms: O_3  and  C_19
    6  A    between atoms: O_3  and  C_22
    7  A    between atoms: C_6  and  C_13
    8  A    between atoms: C_6  and  C_18
    9  A    between atoms: C_12  and  C_22
   10  A    between atoms: C_15  and  C_19
   11  A    between atoms: C_19  and  C_26
   12  A    between atoms: N_24  and  C_27
   13  A    between atoms: N_24  and  C_32
                            x       y       z     vdW  Elec       q    Type
                         _______ _______ _______ _____ _____    ______ ____

>  <TORSDO>
F 13

$$$$
=
 OpenBabel11052419083D

 32 34  0  0  1  0  0  0  0  0999 V2000
  191.5020  175.8250  144.1720 N   0  0  0  0  0  0  0  0  0  0  0  0
  189.9220  173.9220  145.4860 C   0  0  0  0  0  2  0  0  0  0  0  0
  190.1720  175.7560  143.5700 C   0  0  2  0  0  3  0  0  0  0  0  0
  188.4650  175.3890  146.7840 C   0  0  0  0  0  2  0  0  0  0  0  0
  188.8300  176.1040  145.4920 C   0  0  1  0  0  0  0  0  0  0  0  0
  191.4460  176.6540  145.4090 C   0  0  1  0  0  3  0  0  0  0  0  0
  189.8380  178.0270  146.9950 C   0  0  0  0  0  1  0  0  0  0  0  0
  189.9920  177.1270  145.7750 C   0  0  2  0  0  3  0  0  0  0  0  0
  189.2750  174.9450  144.5620 C   0  0  2  0  0  0  0  0  0  0  0  0
  189.2900  174.1170  146.8510 C   0  0  0  0  0  2  0  0  0  0  0  0
  189.6460  174.4440  143.1380 C   0  0  1  0  0  3  0  0  0  0  0  0
  192.1470  175.9160  146.5660 C   0  0  2  0  0  3  0  0  0  0  0  0
  192.7840  176.8130  147.4250 O   0  0  0  0  0  1  0  0  0  0  0  0
  193.1640  174.8930  146.0660 C   0  0  0  0  0  2  0  0  0  0  0  0
  194.4650  175.3730  146.2320 O   0  0  0  0  0  1  0  0  0  0  0  0
  188.4690  175.8120  141.5700 C   0  0  0  0  0  1  0  0  0  0  0  0
  188.5190  174.4890  142.1760 N   0  0  0  0  0  0  0  0  0  0  0  0
  188.5540  173.5020  141.0980 C   0  0  0  0  0  2  0  0  0  0  0  0
  188.4990  174.1980  139.7480 C   0  0  0  0  0  2  0  0  0  0  0  0
  188.2470  173.1870  138.6430 C   0  0  0  0  0  2  0  0  0  0  0  0
  188.9980  173.5330  137.5190 O   0  0  0  0  0  1  0  0  0  0  0  0
  192.3490  176.5380  143.2280 C   0  0  0  0  0  2  0  0  0  0  0  0
  193.1450  175.5460  142.4010 C   0  0  0  0  0  2  0  0  0  0  0  0
  194.6260  175.7400  142.6690 C   0  0  0  0  0  1  0  0  0  0  0  0
  187.5770  176.8190  144.9820 C   0  0  0  0  0  2  0  0  0  0  0  0
  186.5480  176.7740  145.9300 O   0  0  0  0  0  0  0  0  0  0  0  0
  185.5990  177.6960  145.4800 C   0  0  1  0  0  3  0  0  0  0  0  0
  183.7770  178.5290  146.8020 O   0  0  0  0  0  0  0  0  0  0  0  0
  185.8990  179.0730  147.5760 N   0  0  0  0  0  1  0  0  0  0  0  0
  185.0250  178.4490  146.6420 C   0  0  0  0  0  0  0  0  0  0  0  0
  186.2390  178.6300  144.5010 C   0  0  0  0  0  3  0  0  0  0  0  0
  185.5440  179.6170  143.9400 C   0  0  0  0  0  2  0  0  0  0  0  0
  1  6  1  0  0  0  0
  2 10  1  0  0  0  0
  3  1  1  1  0  0  0
  3  9  1  0  0  0  0
  4 10  1  0  0  0  0
  5 25  1  6  0  0  0
  5  8  1  0  0  0  0
  5  4  1  0  0  0  0
  6  8  1  0  0  0  0
  6 12  1  1  0  0  0
  8  7  1  1  0  0  0
  9  2  1  1  0  0  0
  9  5  1  0  0  0  0
 11 17  1  6  0  0  0
 11  3  1  0  0  0  0
 11  9  1  0  0  0  0
 12 13  1  1  0  0  0
 14 15  1  0  0  0  0
 14 12  1  0  0  0  0
 16 17  1  0  0  0  0
 18 17  1  0  0  0  0
 19 18  1  0  0  0  0
 20 19  1  0  0  0  0
 21 20  1  0  0  0  0
 22  1  1  0  0  0  0
 23 24  1  0  0  0  0
 23 22  1  0  0  0  0
 25 26  1  0  0  0  0
 27 31  1  6  0  0  0
 27 26  1  0  0  0  0
 27 30  1  0  0  0  0
 30 28  2  0  0  0  0
 30 29  1  0  0  0  0
 32 31  2  0  0  0  0
M  END
>  <MODEL>
5

>  <REMARK>
 VINA RESULT:      -5.7      2.181      6.454
  Name = 
  13 active torsions:
  status: ('A' for Active; 'I' for Inactive)
    1  A    between atoms: C_1  and  C_4
    2  A    between atoms: C_1  and  C_27
    3  A    between atoms: C_2  and  N_5
    4  A    between atoms: C_2  and  C_14
    5  A    between atoms: O_3  and  C_19
    6  A    between atoms: O_3  and  C_22
    7  A    between atoms: C_6  and  C_13
    8  A    between atoms: C_6  and  C_18
    9  A    between atoms: C_12  and  C_22
   10  A    between atoms: C_15  and  C_19
   11  A    between atoms: C_19  and  C_26
   12  A    between atoms: N_24  and  C_27
   13  A    between atoms: N_24  and  C_32
                            x       y       z     vdW  Elec       q    Type
                         _______ _______ _______ _____ _____    ______ ____

>  <TORSDO>
F 13

$$$$
=
 OpenBabel11052419083D

 32 34  0  0  1  0  0  0  0  0999 V2000
  189.8290  174.3460  143.5020 N   0  0  0  0  0  0  0  0  0  0  0  0
  190.5850  177.0000  143.0270 C   0  0  0  0  0  2  0  0  0  0  0  0
  189.8560  175.1040  144.7510 C   0  0  2  0  0  3  0  0  0  0  0  0
  188.4230  178.1130  143.2430 C   0  0  0  0  0  2  0  0  0  0  0  0
  188.4310  176.9070  144.1700 C   0  0  1  0  0  0  0  0  0  0  0  0
  188.5590  174.6280  142.7750 C   0  0  1  0  0  3  0  0  0  0  0  0
  186.3220  176.0360  142.8400 C   0  0  0  0  0  1  0  0  0  0  0  0
  187.6690  175.7160  143.4790 C   0  0  2  0  0  3  0  0  0  0  0  0
  189.9440  176.6140  144.3530 C   0  0  2  0  0  0  0  0  0  0  0  0
  189.6900  178.0570  142.4090 C   0  0  0  0  0  2  0  0  0  0  0  0
  191.0750  175.8600  145.1060 C   0  0  1  0  0  3  0  0  0  0  0  0
  188.8630  174.9640  141.3020 C   0  0  2  0  0  3  0  0  0  0  0  0
  187.8430  175.7320  140.7380 O   0  0  0  0  0  1  0  0  0  0  0  0
  189.0720  173.7100  140.4560 C   0  0  0  0  0  2  0  0  0  0  0  0
  190.3140  173.7510  139.8160 O   0  0  0  0  0  1  0  0  0  0  0  0
  190.4500  175.2930  147.3430 C   0  0  0  0  0  1  0  0  0  0  0  0
  191.2020  176.2420  146.5340 N   0  0  0  0  0  0  0  0  0  0  0  0
  192.5620  176.3050  147.0630 C   0  0  0  0  0  2  0  0  0  0  0  0
  193.5640  175.9330  145.9830 C   0  0  0  0  0  2  0  0  0  0  0  0
  194.5720  177.0510  145.7880 C   0  0  0  0  0  2  0  0  0  0  0  0
  195.3230  176.8030  144.6390 O   0  0  0  0  0  1  0  0  0  0  0  0
  189.7950  172.9380  143.8710 C   0  0  0  0  0  2  0  0  0  0  0  0
  190.9350  172.2020  143.1920 C   0  0  0  0  0  2  0  0  0  0  0  0
  191.9260  171.7340  144.2400 C   0  0  0  0  0  1  0  0  0  0  0  0
  187.7490  177.3160  145.4770 C   0  0  0  0  0  2  0  0  0  0  0  0
  186.7900  178.3110  145.2570 O   0  0  0  0  0  0  0  0  0  0  0  0
  185.6750  177.9120  145.9990 C   0  0  1  0  0  3  0  0  0  0  0  0
  185.8170  177.5410  148.3650 O   0  0  0  0  0  0  0  0  0  0  0  0
  185.9400  179.7630  147.6960 N   0  0  0  0  0  1  0  0  0  0  0  0
  185.8110  178.3730  147.4180 C   0  0  0  0  0  0  0  0  0  0  0  0
  184.4360  178.4710  145.3710 C   0  0  0  0  0  3  0  0  0  0  0  0
  184.5090  179.3420  144.3670 C   0  0  0  0  0  2  0  0  0  0  0  0
  1 22  1  0  0  0  0
  3  1  1  6  0  0  0
  3 11  1  0  0  0  0
  4  5  1  0  0  0  0
  5  9  1  0  0  0  0
  5 25  1  1  0  0  0
  6 12  1  6  0  0  0
  6  8  1  0  0  0  0
  6  1  1  0  0  0  0
  8  7  1  6  0  0  0
  8  5  1  0  0  0  0
  9  2  1  6  0  0  0
  9  3  1  0  0  0  0
  9 11  1  0  0  0  0
 10  2  1  0  0  0  0
 10  4  1  0  0  0  0
 11 17  1  1  0  0  0
 12 13  1  6  0  0  0
 14 12  1  0  0  0  0
 15 14  1  0  0  0  0
 17 18  1  0  0  0  0
 17 16  1  0  0  0  0
 19 18  1  0  0  0  0
 20 19  1  0  0  0  0
 21 20  1  0  0  0  0
 23 22  1  0  0  0  0
 23 24  1  0  0  0  0
 26 25  1  0  0  0  0
 26 27  1  0  0  0  0
 27 31  1  6  0  0  0
 27 30  1  0  0  0  0
 30 29  1  0  0  0  0
 30 28  2  0  0  0  0
 32 31  2  0  0  0  0
M  END
>  <MODEL>
6

>  <REMARK>
 VINA RESULT:      -5.4      2.400      7.318
  Name = 
  13 active torsions:
  status: ('A' for Active; 'I' for Inactive)
    1  A    between atoms: C_1  and  C_4
    2  A    between atoms: C_1  and  C_27
    3  A    between atoms: C_2  and  N_5
    4  A    between atoms: C_2  and  C_14
    5  A    between atoms: O_3  and  C_19
    6  A    between atoms: O_3  and  C_22
    7  A    between atoms: C_6  and  C_13
    8  A    between atoms: C_6  and  C_18
    9  A    between atoms: C_12  and  C_22
   10  A    between atoms: C_15  and  C_19
   11  A    between atoms: C_19  and  C_26
   12  A    between atoms: N_24  and  C_27
   13  A    between atoms: N_24  and  C_32
                            x       y       z     vdW  Elec       q    Type
                         _______ _______ _______ _____ _____    ______ ____

>  <TORSDO>
F 13

$$$$
=
 OpenBabel11052419083D

 32 34  0  0  1  0  0  0  0  0999 V2000
  191.5290  176.5450  146.6260 N   0  0  0  0  0  0  0  0  0  0  0  0
  191.7560  177.4110  143.9720 C   0  0  0  0  0  2  0  0  0  0  0  0
  190.2340  176.4830  145.9510 C   0  0  2  0  0  3  0  0  0  0  0  0
  191.6520  175.2690  142.8060 C   0  0  0  0  0  2  0  0  0  0  0  0
  190.8110  175.1630  144.0690 C   0  0  1  0  0  0  0  0  0  0  0  0
  192.3420  175.3520  146.2550 C   0  0  1  0  0  3  0  0  0  0  0  0
  192.3740  173.1570  144.7830 C   0  0  0  0  0  1  0  0  0  0  0  0
  191.6450  174.4330  145.1870 C   0  0  2  0  0  3  0  0  0  0  0  0
  190.5190  176.6450  144.4220 C   0  0  2  0  0  0  0  0  0  0  0  0
  192.3760  176.6030  142.8490 C   0  0  0  0  0  2  0  0  0  0  0  0
  189.7250  177.6860  145.2610 C   0  0  1  0  0  3  0  0  0  0  0  0
  193.7580  175.7940  145.8340 C   0  0  2  0  0  3  0  0  0  0  0  0
  194.6860  174.7700  146.0340 O   0  0  0  0  0  1  0  0  0  0  0  0
  194.2190  177.0420  146.5830 C   0  0  0  0  0  2  0  0  0  0  0  0
  194.9060  177.9030  145.7240 O   0  0  0  0  0  1  0  0  0  0  0  0
  188.0700  177.7080  143.5350 C   0  0  0  0  0  1  0  0  0  0  0  0
  188.2690  177.6970  144.9770 N   0  0  0  0  0  0  0  0  0  0  0  0
  187.5000  176.5830  145.5280 C   0  0  0  0  0  2  0  0  0  0  0  0
  186.7010  177.0450  146.7360 C   0  0  0  0  0  2  0  0  0  0  0  0
  185.7940  178.2030  146.3600 C   0  0  0  0  0  2  0  0  0  0  0  0
  185.8880  179.1990  147.3310 O   0  0  0  0  0  1  0  0  0  0  0  0
  191.2610  176.4420  148.0530 C   0  0  0  0  0  2  0  0  0  0  0  0
  190.8200  177.7890  148.5920 C   0  0  0  0  0  2  0  0  0  0  0  0
  191.5330  178.0650  149.9020 C   0  0  0  0  0  1  0  0  0  0  0  0
  189.5430  174.3810  143.7250 C   0  0  0  0  0  2  0  0  0  0  0  0
  189.1340  174.6330  142.4100 O   0  0  0  0  0  0  0  0  0  0  0  0
  188.6420  173.4130  141.9400 C   0  0  1  0  0  3  0  0  0  0  0  0
  190.0510  173.7090  140.0210 O   0  0  0  0  0  0  0  0  0  0  0  0
  188.0650  172.5670  139.6320 N   0  0  0  0  0  1  0  0  0  0  0  0
  188.9730  173.2510  140.4880 C   0  0  0  0  0  0  0  0  0  0  0  0
  189.2270  172.2980  142.7500 C   0  0  0  0  0  3  0  0  0  0  0  0
  190.0040  171.3760  142.1870 C   0  0  0  0  0  2  0  0  0  0  0  0
  1 22  1  0  0  0  0
  3  1  1  1  0  0  0
  4 10  1  0  0  0  0
  4  5  1  0  0  0  0
  5 25  1  6  0  0  0
  5  9  1  0  0  0  0
  5  8  1  0  0  0  0
  6 12  1  6  0  0  0
  6  1  1  0  0  0  0
  8  7  1  6  0  0  0
  8  6  1  0  0  0  0
  9  2  1  1  0  0  0
  9 11  1  0  0  0  0
  9  3  1  0  0  0  0
 10  2  1  0  0  0  0
 11 17  1  6  0  0  0
 11  3  1  0  0  0  0
 12 13  1  1  0  0  0
 12 14  1  0  0  0  0
 15 14  1  0  0  0  0
 16 17  1  0  0  0  0
 17 18  1  0  0  0  0
 18 19  1  0  0  0  0
 20 19  1  0  0  0  0
 20 21  1  0  0  0  0
 22 23  1  0  0  0  0
 23 24  1  0  0  0  0
 26 25  1  0  0  0  0
 27 26  1  0  0  0  0
 27 31  1  1  0  0  0
 28 30  2  0  0  0  0
 29 30  1  0  0  0  0
 30 27  1  0  0  0  0
 32 31  2  0  0  0  0
M  END
>  <MODEL>
7

>  <REMARK>
 VINA RESULT:      -5.4      2.063      2.874
  Name = 
  13 active torsions:
  status: ('A' for Active; 'I' for Inactive)
    1  A    between atoms: C_1  and  C_4
    2  A    between atoms: C_1  and  C_27
    3  A    between atoms: C_2  and  N_5
    4  A    between atoms: C_2  and  C_14
    5  A    between atoms: O_3  and  C_19
    6  A    between atoms: O_3  and  C_22
    7  A    between atoms: C_6  and  C_13
    8  A    between atoms: C_6  and  C_18
    9  A    between atoms: C_12  and  C_22
   10  A    between atoms: C_15  and  C_19
   11  A    between atoms: C_19  and  C_26
   12  A    between atoms: N_24  and  C_27
   13  A    between atoms: N_24  and  C_32
                            x       y       z     vdW  Elec       q    Type
                         _______ _______ _______ _____ _____    ______ ____

>  <TORSDO>
F 13

$$$$
=
 OpenBabel11052419083D

 32 34  0  0  1  0  0  0  0  0999 V2000
  192.4240  174.9640  143.2630 N   0  0  0  0  0  0  0  0  0  0  0  0
  190.5590  173.6960  144.9240 C   0  0  0  0  0  2  0  0  0  0  0  0
  191.2230  174.6100  142.5110 C   0  0  2  0  0  3  0  0  0  0  0  0
  188.9530  175.5090  145.2350 C   0  0  0  0  0  2  0  0  0  0  0  0
  189.5730  175.6550  143.8530 C   0  0  1  0  0  0  0  0  0  0  0  0
  192.1810  176.2180  144.0290 C   0  0  1  0  0  3  0  0  0  0  0  0
  190.3720  178.0550  144.6100 C   0  0  0  0  0  1  0  0  0  0  0  0
  190.7060  176.7460  143.9060 C   0  0  2  0  0  3  0  0  0  0  0  0
  190.1300  174.2360  143.5660 C   0  0  2  0  0  0  0  0  0  0  0  0
  189.7000  174.4010  145.9560 C   0  0  0  0  0  2  0  0  0  0  0  0
  190.7300  173.2170  142.5560 C   0  0  1  0  0  3  0  0  0  0  0  0
  192.6320  176.0340  145.4920 C   0  0  2  0  0  3  0  0  0  0  0  0
  193.2940  177.1700  145.9630 O   0  0  0  0  0  1  0  0  0  0  0  0
  193.5380  174.8170  145.6680 C   0  0  0  0  0  2  0  0  0  0  0  0
  194.8160  175.2120  146.0700 O   0  0  0  0  0  1  0  0  0  0  0  0
  188.4650  172.6610  142.0330 C   0  0  0  0  0  1  0  0  0  0  0  0
  189.7970  172.8300  141.4710 N   0  0  0  0  0  0  0  0  0  0  0  0
  189.6960  173.7600  140.3480 C   0  0  0  0  0  2  0  0  0  0  0  0
  188.2590  173.8390  139.8600 C   0  0  0  0  0  2  0  0  0  0  0  0
  188.2160  173.8510  138.3420 C   0  0  0  0  0  2  0  0  0  0  0  0
  187.5440  174.9920  137.9060 O   0  0  0  0  0  1  0  0  0  0  0  0
  193.4560  175.2660  142.2820 C   0  0  0  0  0  2  0  0  0  0  0  0
  194.3800  174.0730  142.1240 C   0  0  0  0  0  2  0  0  0  0  0  0
  194.2970  173.5570  140.7000 C   0  0  0  0  0  1  0  0  0  0  0  0
  188.4620  176.0580  142.8810 C   0  0  0  0  0  2  0  0  0  0  0  0
  187.2070  176.0100  143.5000 O   0  0  0  0  0  0  0  0  0  0  0  0
  186.3760  176.7960  142.6980 C   0  0  1  0  0  3  0  0  0  0  0  0
  186.6510  178.6400  144.2080 O   0  0  0  0  0  0  0  0  0  0  0  0
  184.4980  178.3360  143.3910 N   0  0  0  0  0  1  0  0  0  0  0  0
  185.8700  177.9710  143.4790 C   0  0  0  0  0  0  0  0  0  0  0  0
  187.1340  177.2450  141.4880 C   0  0  0  0  0  3  0  0  0  0  0  0
  186.5010  177.5660  140.3610 C   0  0  0  0  0  2  0  0  0  0  0  0
  1  6  1  0  0  0  0
  2 10  1  0  0  0  0
  3 11  1  0  0  0  0
  3  1  1  1  0  0  0
  3  9  1  0  0  0  0
  4 10  1  0  0  0  0
  5 25  1  6  0  0  0
  5  8  1  0  0  0  0
  5  4  1  0  0  0  0
  6 12  1  1  0  0  0
  8  6  1  0  0  0  0
  8  7  1  1  0  0  0
  9  5  1  0  0  0  0
  9  2  1  1  0  0  0
 11 17  1  6  0  0  0
 11  9  1  0  0  0  0
 12 14  1  0  0  0  0
 12 13  1  6  0  0  0
 14 15  1  0  0  0  0
 17 16  1  0  0  0  0
 18 17  1  0  0  0  0
 19 18  1  0  0  0  0
 20 19  1  0  0  0  0
 21 20  1  0  0  0  0
 22  1  1  0  0  0  0
 23 22  1  0  0  0  0
 24 23  1  0  0  0  0
 25 26  1  0  0  0  0
 27 31  1  6  0  0  0
 27 30  1  0  0  0  0
 27 26  1  0  0  0  0
 29 30  1  0  0  0  0
 30 28  2  0  0  0  0
 32 31  2  0  0  0  0
M  END
>  <MODEL>
8

>  <REMARK>
 VINA RESULT:      -5.1      2.468      6.065
  Name = 
  13 active torsions:
  status: ('A' for Active; 'I' for Inactive)
    1  A    between atoms: C_1  and  C_4
    2  A    between atoms: C_1  and  C_27
    3  A    between atoms: C_2  and  N_5
    4  A    between atoms: C_2  and  C_14
    5  A    between atoms: O_3  and  C_19
    6  A    between atoms: O_3  and  C_22
    7  A    between atoms: C_6  and  C_13
    8  A    between atoms: C_6  and  C_18
    9  A    between atoms: C_12  and  C_22
   10  A    between atoms: C_15  and  C_19
   11  A    between atoms: C_19  and  C_26
   12  A    between atoms: N_24  and  C_27
   13  A    between atoms: N_24  and  C_32
                            x       y       z     vdW  Elec       q    Type
                         _______ _______ _______ _____ _____    ______ ____

>  <TORSDO>
F 13

$$$$
=
 OpenBabel11052419083D

 32 34  0  0  1  0  0  0  0  0999 V2000
  191.5250  176.3610  145.3510 N   0  0  0  0  0  0  0  0  0  0  0  0
  192.6800  176.7790  142.8330 C   0  0  0  0  0  2  0  0  0  0  0  0
  190.5790  176.0260  144.2890 C   0  0  2  0  0  3  0  0  0  0  0  0
  193.1250  174.4710  142.1720 C   0  0  0  0  0  2  0  0  0  0  0  0
  191.8810  174.4830  143.0480 C   0  0  1  0  0  0  0  0  0  0  0  0
  192.4770  175.2310  145.5460 C   0  0  1  0  0  3  0  0  0  0  0  0
  193.1640  172.8360  144.6640 C   0  0  0  0  0  1  0  0  0  0  0  0
  192.2740  174.0630  144.5130 C   0  0  2  0  0  3  0  0  0  0  0  0
  191.4040  175.9570  142.9620 C   0  0  2  0  0  0  0  0  0  0  0  0
  193.7120  175.8710  142.1950 C   0  0  0  0  0  2  0  0  0  0  0  0
  190.3040  177.0210  143.2320 C   0  0  1  0  0  3  0  0  0  0  0  0
  193.9230  175.7630  145.5740 C   0  0  2  0  0  3  0  0  0  0  0  0
  194.8010  174.8110  146.0950 O   0  0  0  0  0  1  0  0  0  0  0  0
  194.0470  177.0540  146.3800 C   0  0  0  0  0  2  0  0  0  0  0  0
  194.9610  177.9220  145.7770 O   0  0  0  0  0  1  0  0  0  0  0  0
  188.1510  175.9810  143.2390 C   0  0  0  0  0  1  0  0  0  0  0  0
  189.0590  176.8050  142.4540 N   0  0  0  0  0  0  0  0  0  0  0  0
  188.3380  178.0090  142.0490 C   0  0  0  0  0  2  0  0  0  0  0  0
  187.1950  178.2850  143.0130 C   0  0  0  0  0  2  0  0  0  0  0  0
  185.9380  178.6610  142.2480 C   0  0  0  0  0  2  0  0  0  0  0  0
  185.0200  177.6140  142.3230 O   0  0  0  0  0  1  0  0  0  0  0  0
  190.7520  176.4730  146.5790 C   0  0  0  0  0  2  0  0  0  0  0  0
  190.6390  175.1120  147.2400 C   0  0  0  0  0  2  0  0  0  0  0  0
  189.1850  174.6790  147.2550 C   0  0  0  0  0  1  0  0  0  0  0  0
  190.8730  173.5040  142.4430 C   0  0  0  0  0  2  0  0  0  0  0  0
  190.7560  173.6870  141.0600 O   0  0  0  0  0  0  0  0  0  0  0  0
  189.3930  173.5450  140.7880 C   0  0  1  0  0  3  0  0  0  0  0  0
  189.8160  171.9080  139.0850 O   0  0  0  0  0  0  0  0  0  0  0  0
  188.3130  173.5820  138.5050 N   0  0  0  0  0  1  0  0  0  0  0  0
  189.2020  172.9560  139.4230 C   0  0  0  0  0  0  0  0  0  0  0  0
  188.7650  172.6820  141.8370 C   0  0  0  0  0  3  0  0  0  0  0  0
  187.4450  172.6670  142.0120 C   0  0  0  0  0  2  0  0  0  0  0  0
  1  6  1  0  0  0  0
  1 22  1  0  0  0  0
  3  1  1  1  0  0  0
  4 10  1  0  0  0  0
  4  5  1  0  0  0  0
  5 25  1  6  0  0  0
  5  8  1  0  0  0  0
  6 12  1  6  0  0  0
  8  7  1  6  0  0  0
  8  6  1  0  0  0  0
  9  2  1  1  0  0  0
  9  5  1  0  0  0  0
  9 11  1  0  0  0  0
  9  3  1  0  0  0  0
 10  2  1  0  0  0  0
 11 17  1  6  0  0  0
 11  3  1  0  0  0  0
 12 13  1  1  0  0  0
 12 14  1  0  0  0  0
 15 14  1  0  0  0  0
 17 16  1  0  0  0  0
 18 17  1  0  0  0  0
 18 19  1  0  0  0  0
 20 21  1  0  0  0  0
 20 19  1  0  0  0  0
 22 23  1  0  0  0  0
 23 24  1  0  0  0  0
 26 25  1  0  0  0  0
 27 26  1  0  0  0  0
 27 31  1  1  0  0  0
 28 30  2  0  0  0  0
 29 30  1  0  0  0  0
 30 27  1  0  0  0  0
 31 32  2  0  0  0  0
M  END
>  <MODEL>
9

>  <REMARK>
 VINA RESULT:      -4.9      2.273      3.021
  Name = 
  13 active torsions:
  status: ('A' for Active; 'I' for Inactive)
    1  A    between atoms: C_1  and  C_4
    2  A    between atoms: C_1  and  C_27
    3  A    between atoms: C_2  and  N_5
    4  A    between atoms: C_2  and  C_14
    5  A    between atoms: O_3  and  C_19
    6  A    between atoms: O_3  and  C_22
    7  A    between atoms: C_6  and  C_13
    8  A    between atoms: C_6  and  C_18
    9  A    between atoms: C_12  and  C_22
   10  A    between atoms: C_15  and  C_19
   11  A    between atoms: C_19  and  C_26
   12  A    between atoms: N_24  and  C_27
   13  A    between atoms: N_24  and  C_32
                            x       y       z     vdW  Elec       q    Type
                         _______ _______ _______ _____ _____    ______ ____

>  <TORSDO>
F 13

$$$$
