=
 OpenBabel11052418253D

 27 31  0  0  1  0  0  0  0  0999 V2000
  187.3060  176.2100  142.7450 N   0  0  0  0  0  2  0  0  0  0  0  0
  188.7450  176.1000  144.7270 C   0  0  0  0  0  0  0  0  0  0  0  0
  189.4190  173.8780  143.5040 C   0  0  0  0  0  2  0  0  0  0  0  0
  192.7340  176.4630  146.3150 C   0  0  0  0  0  2  0  0  0  0  0  0
  194.9260  175.4760  146.2580 N   0  0  0  0  0  2  0  0  0  0  0  0
  189.1530  177.1540  145.5560 C   0  0  0  0  0  3  0  0  0  0  0  0
  192.0420  174.1370  144.6160 C   0  0  0  0  0  2  0  0  0  0  0  0
  188.6890  172.3030  140.7960 C   0  0  0  0  0  2  0  0  0  0  0  0
  193.4440  174.7230  144.5300 C   0  0  0  0  0  2  0  0  0  0  0  0
  188.2790  173.1750  139.7070 N   0  0  0  0  0  2  0  0  0  0  0  0
  191.0160  175.2040  144.8990 C   0  0  0  0  0  0  0  0  0  0  0  0
  187.3160  176.0970  144.1990 C   0  0  1  0  0  3  0  0  0  0  0  0
  193.7350  175.4740  145.7880 C   0  0  0  0  0  0  0  0  0  0  0  0
  191.3510  176.2880  145.7390 C   0  0  0  0  0  0  0  0  0  0  0  0
  187.8330  175.1350  141.9780 C   0  0  0  0  0  0  0  0  0  0  0  0
  189.7030  175.0950  144.3830 C   0  0  0  0  0  0  0  0  0  0  0  0
  187.8030  172.5420  142.0080 C   0  0  0  0  0  2  0  0  0  0  0  0
  190.4170  177.2230  146.0370 N   0  0  0  0  0  0  0  0  0  0  0  0
  189.0030  174.4240  139.8730 C   0  0  0  0  0  2  0  0  0  0  0  0
  188.2290  175.3810  140.7250 C   0  0  0  0  0  3  0  0  0  0  0  0
  188.1100  173.8590  142.7240 C   0  0  1  0  0  3  0  0  0  0  0  0
  184.6510  179.0010  145.9280 C   0  0  0  0  0  3  0  0  0  0  0  0
  186.3920  177.1040  144.8240 C   0  0  0  0  0  0  0  0  0  0  0  0
  186.3060  178.3860  144.2710 C   0  0  0  0  0  3  0  0  0  0  0  0
  185.4380  179.3330  144.8230 C   0  0  0  0  0  3  0  0  0  0  0  0
  184.7280  177.7190  146.4820 C   0  0  0  0  0  3  0  0  0  0  0  0
  185.5950  176.7710  145.9300 C   0  0  0  0  0  3  0  0  0  0  0  0
  1 12  1  0  0  0  0
  2  6  1  0  0  0  0
  3 16  1  0  0  0  0
  6 18  2  0  0  0  0
  7 11  1  0  0  0  0
  8 17  1  0  0  0  0
  9  7  1  0  0  0  0
  9 13  1  0  0  0  0
 10 19  1  0  0  0  0
 10  8  1  0  0  0  0
 11 14  2  0  0  0  0
 12  2  1  0  0  0  0
 12 23  1  1  0  0  0
 13  5  2  0  0  0  0
 13  4  1  0  0  0  0
 14 18  1  0  0  0  0
 14  4  1  0  0  0  0
 15 21  1  0  0  0  0
 15  1  1  0  0  0  0
 16  2  2  0  0  0  0
 16 11  1  0  0  0  0
 19 20  1  0  0  0  0
 20 15  2  0  0  0  0
 21 17  1  6  0  0  0
 21  3  1  0  0  0  0
 22 26  1  0  0  0  0
 23 27  1  0  0  0  0
 24 25  1  0  0  0  0
 24 23  2  0  0  0  0
 25 22  2  0  0  0  0
 27 26  2  0  0  0  0
M  END
>  <MODEL>
1

>  <REMARK>
 VINA RESULT:      -8.1      0.000      0.000
  Name = 
  1 active torsions:
  status: ('A' for Active; 'I' for Inactive)
    1  A    between atoms: C_9  and  C_15
                            x       y       z     vdW  Elec       q    Type
                         _______ _______ _______ _____ _____    ______ ____

>  <TORSDO>
F 1

$$$$
=
 OpenBabel11052418253D

 27 31  0  0  1  0  0  0  0  0999 V2000
  189.1900  176.3850  145.7420 N   0  0  0  0  0  2  0  0  0  0  0  0
  188.5740  175.9010  143.4190 C   0  0  0  0  0  0  0  0  0  0  0  0
  191.1940  175.9040  143.2460 C   0  0  0  0  0  2  0  0  0  0  0  0
  188.3480  172.9530  140.2850 C   0  0  0  0  0  2  0  0  0  0  0  0
  189.6840  171.5410  138.8700 N   0  0  0  0  0  2  0  0  0  0  0  0
  187.3670  175.3770  142.9370 C   0  0  0  0  0  3  0  0  0  0  0  0
  190.9920  173.9790  141.1390 C   0  0  0  0  0  2  0  0  0  0  0  0
  193.7340  176.2930  145.1790 C   0  0  0  0  0  2  0  0  0  0  0  0
  190.8690  172.5250  140.7080 C   0  0  0  0  0  2  0  0  0  0  0  0
  193.4880  175.8850  146.5530 N   0  0  0  0  0  2  0  0  0  0  0  0
  189.7340  174.4610  141.8160 C   0  0  0  0  0  0  0  0  0  0  0  0
  188.5300  176.9160  144.5540 C   0  0  1  0  0  3  0  0  0  0  0  0
  189.6620  172.3760  139.8410 C   0  0  0  0  0  0  0  0  0  0  0  0
  188.4800  173.9880  141.3740 C   0  0  0  0  0  0  0  0  0  0  0  0
  190.5930  176.1600  145.6950 C   0  0  0  0  0  0  0  0  0  0  0  0
  189.7970  175.4290  142.8460 C   0  0  0  0  0  0  0  0  0  0  0  0
  192.7080  177.3330  144.7600 C   0  0  0  0  0  2  0  0  0  0  0  0
  187.3440  174.4550  141.9460 N   0  0  0  0  0  0  0  0  0  0  0  0
  192.5350  174.7900  146.5030 C   0  0  0  0  0  2  0  0  0  0  0  0
  191.1300  175.3000  146.5670 C   0  0  0  0  0  3  0  0  0  0  0  0
  191.3190  176.7400  144.5120 C   0  0  1  0  0  3  0  0  0  0  0  0
  184.6410  178.4480  145.5790 C   0  0  0  0  0  3  0  0  0  0  0  0
  187.1670  177.4530  144.8900 C   0  0  0  0  0  0  0  0  0  0  0  0
  186.4170  176.8320  145.8940 C   0  0  0  0  0  3  0  0  0  0  0  0
  185.1550  177.3270  146.2370 C   0  0  0  0  0  3  0  0  0  0  0  0
  185.3890  179.0760  144.5790 C   0  0  0  0  0  3  0  0  0  0  0  0
  186.6500  178.5820  144.2360 C   0  0  0  0  0  3  0  0  0  0  0  0
  2 12  1  0  0  0  0
  4 14  1  0  0  0  0
  5 13  2  0  0  0  0
  6  2  1  0  0  0  0
  7 11  1  0  0  0  0
  8 10  1  0  0  0  0
  9  7  1  0  0  0  0
 11 16  1  0  0  0  0
 12 23  1  1  0  0  0
 12  1  1  0  0  0  0
 13  4  1  0  0  0  0
 13  9  1  0  0  0  0
 14 11  2  0  0  0  0
 14 18  1  0  0  0  0
 15  1  1  0  0  0  0
 15 20  2  0  0  0  0
 16  3  1  0  0  0  0
 16  2  2  0  0  0  0
 17  8  1  0  0  0  0
 18  6  2  0  0  0  0
 19 10  1  0  0  0  0
 19 20  1  0  0  0  0
 21  3  1  6  0  0  0
 21 17  1  0  0  0  0
 21 15  1  0  0  0  0
 22 25  1  0  0  0  0
 23 24  1  0  0  0  0
 24 25  2  0  0  0  0
 26 22  2  0  0  0  0
 27 26  1  0  0  0  0
 27 23  2  0  0  0  0
M  END
>  <MODEL>
2

>  <REMARK>
 VINA RESULT:      -8.0      1.425      5.268
  Name = 
  1 active torsions:
  status: ('A' for Active; 'I' for Inactive)
    1  A    between atoms: C_9  and  C_15
                            x       y       z     vdW  Elec       q    Type
                         _______ _______ _______ _____ _____    ______ ____

>  <TORSDO>
F 1

$$$$
=
 OpenBabel11052418253D

 27 31  0  0  1  0  0  0  0  0999 V2000
  192.5270  175.1490  145.6190 N   0  0  0  0  0  2  0  0  0  0  0  0
  192.1220  173.3330  144.0240 C   0  0  0  0  0  0  0  0  0  0  0  0
  189.6710  173.8710  144.7930 C   0  0  0  0  0  2  0  0  0  0  0  0
  190.6760  172.2130  140.1230 C   0  0  0  0  0  2  0  0  0  0  0  0
  188.7010  172.1220  138.7550 N   0  0  0  0  0  2  0  0  0  0  0  0
  192.9570  172.8920  142.9880 C   0  0  0  0  0  3  0  0  0  0  0  0
  188.7520  173.0760  142.2030 C   0  0  0  0  0  2  0  0  0  0  0  0
  188.1580  175.9180  146.7600 C   0  0  0  0  0  2  0  0  0  0  0  0
  188.4770  173.4330  140.7490 C   0  0  0  0  0  2  0  0  0  0  0  0
  188.8480  177.1880  146.9210 N   0  0  0  0  0  2  0  0  0  0  0  0
  190.2310  173.0580  142.4950 C   0  0  0  0  0  0  0  0  0  0  0  0
  192.7530  173.7340  145.3510 C   0  0  1  0  0  3  0  0  0  0  0  0
  189.2210  172.4850  139.8670 C   0  0  0  0  0  0  0  0  0  0  0  0
  191.1310  172.6110  141.5040 C   0  0  0  0  0  0  0  0  0  0  0  0
  191.1980  175.5910  145.8590 C   0  0  0  0  0  0  0  0  0  0  0  0
  190.7160  173.4230  143.7730 C   0  0  0  0  0  0  0  0  0  0  0  0
  189.0900  174.7760  147.1330 C   0  0  0  0  0  2  0  0  0  0  0  0
  192.4560  172.5450  141.7790 N   0  0  0  0  0  0  0  0  0  0  0  0
  189.5300  177.4590  145.6670 C   0  0  0  0  0  2  0  0  0  0  0  0
  190.9120  176.8850  145.6750 C   0  0  0  0  0  3  0  0  0  0  0  0
  190.1700  174.5150  146.0800 C   0  0  1  0  0  3  0  0  0  0  0  0
  196.9170  172.7680  145.8550 C   0  0  0  0  0  3  0  0  0  0  0  0
  194.2050  173.3800  145.5120 C   0  0  0  0  0  0  0  0  0  0  0  0
  195.1520  174.4050  145.5900 C   0  0  0  0  0  3  0  0  0  0  0  0
  196.5060  174.1000  145.7590 C   0  0  0  0  0  3  0  0  0  0  0  0
  195.9730  171.7390  145.7840 C   0  0  0  0  0  3  0  0  0  0  0  0
  194.6190  172.0430  145.6150 C   0  0  0  0  0  3  0  0  0  0  0  0
  1 15  1  0  0  0  0
  2 12  1  0  0  0  0
  4 14  1  0  0  0  0
  5 13  2  0  0  0  0
  6  2  2  0  0  0  0
  7 11  1  0  0  0  0
  8 10  1  0  0  0  0
  8 17  1  0  0  0  0
  9  7  1  0  0  0  0
 11 16  2  0  0  0  0
 12 23  1  6  0  0  0
 12  1  1  0  0  0  0
 13  4  1  0  0  0  0
 13  9  1  0  0  0  0
 14 18  2  0  0  0  0
 14 11  1  0  0  0  0
 15 21  1  0  0  0  0
 16  2  1  0  0  0  0
 16  3  1  0  0  0  0
 18  6  1  0  0  0  0
 19 20  1  0  0  0  0
 19 10  1  0  0  0  0
 20 15  2  0  0  0  0
 21  3  1  6  0  0  0
 21 17  1  0  0  0  0
 23 24  2  0  0  0  0
 23 27  1  0  0  0  0
 24 25  1  0  0  0  0
 25 22  2  0  0  0  0
 26 22  1  0  0  0  0
 27 26  2  0  0  0  0
M  END
>  <MODEL>
3

>  <REMARK>
 VINA RESULT:      -7.5      2.438      7.606
  Name = 
  1 active torsions:
  status: ('A' for Active; 'I' for Inactive)
    1  A    between atoms: C_9  and  C_15
                            x       y       z     vdW  Elec       q    Type
                         _______ _______ _______ _____ _____    ______ ____

>  <TORSDO>
F 1

$$$$
=
 OpenBabel11052418253D

 27 31  0  0  1  0  0  0  0  0999 V2000
  190.8170  174.1530  143.8060 N   0  0  0  0  0  2  0  0  0  0  0  0
  189.9720  176.1790  144.8960 C   0  0  0  0  0  0  0  0  0  0  0  0
  188.3380  176.0010  142.8490 C   0  0  0  0  0  2  0  0  0  0  0  0
  186.8470  177.9680  147.2620 C   0  0  0  0  0  2  0  0  0  0  0  0
  184.5160  178.5590  147.2430 N   0  0  0  0  0  2  0  0  0  0  0  0
  190.1440  176.5790  146.2290 C   0  0  0  0  0  3  0  0  0  0  0  0
  186.3070  177.2310  144.4440 C   0  0  0  0  0  2  0  0  0  0  0  0
  187.8160  174.0470  140.3480 C   0  0  0  0  0  2  0  0  0  0  0  0
  185.1910  177.0930  145.4700 C   0  0  0  0  0  2  0  0  0  0  0  0
  188.1920  172.6650  140.6000 N   0  0  0  0  0  2  0  0  0  0  0  0
  187.6560  176.9550  145.0580 C   0  0  0  0  0  0  0  0  0  0  0  0
  191.1420  175.5270  144.1700 C   0  0  1  0  0  3  0  0  0  0  0  0
  185.4840  177.9880  146.6300 C   0  0  0  0  0  0  0  0  0  0  0  0
  187.9080  177.3440  146.3920 C   0  0  0  0  0  0  0  0  0  0  0  0
  189.8000  173.9300  142.8390 C   0  0  0  0  0  0  0  0  0  0  0  0
  188.6900  176.3680  144.2900 C   0  0  0  0  0  0  0  0  0  0  0  0
  189.0090  174.9570  140.5930 C   0  0  0  0  0  2  0  0  0  0  0  0
  189.1340  177.1420  146.9320 N   0  0  0  0  0  0  0  0  0  0  0  0
  187.9700  172.4200  142.0150 C   0  0  0  0  0  2  0  0  0  0  0  0
  189.1970  172.7360  142.8110 C   0  0  0  0  0  3  0  0  0  0  0  0
  189.3300  175.1390  142.0780 C   0  0  1  0  0  3  0  0  0  0  0  0
  194.9470  175.6740  146.1760 C   0  0  0  0  0  3  0  0  0  0  0  0
  192.4650  175.5990  144.8800 C   0  0  0  0  0  0  0  0  0  0  0  0
  192.9760  174.4470  145.4870 C   0  0  0  0  0  3  0  0  0  0  0  0
  194.2140  174.4850  146.1350 C   0  0  0  0  0  3  0  0  0  0  0  0
  194.4430  176.8270  145.5660 C   0  0  0  0  0  3  0  0  0  0  0  0
  193.2060  176.7900  144.9170 C   0  0  0  0  0  3  0  0  0  0  0  0
  1 12  1  0  0  0  0
  2  6  1  0  0  0  0
  3 16  1  0  0  0  0
  6 18  2  0  0  0  0
  7 11  1  0  0  0  0
  7  9  1  0  0  0  0
  8 17  1  0  0  0  0
  8 10  1  0  0  0  0
  9 13  1  0  0  0  0
 10 19  1  0  0  0  0
 11 14  2  0  0  0  0
 12 23  1  1  0  0  0
 12  2  1  0  0  0  0
 13  5  2  0  0  0  0
 13  4  1  0  0  0  0
 14 18  1  0  0  0  0
 14  4  1  0  0  0  0
 15  1  1  0  0  0  0
 16  2  2  0  0  0  0
 16 11  1  0  0  0  0
 19 20  1  0  0  0  0
 20 15  2  0  0  0  0
 21 17  1  6  0  0  0
 21 15  1  0  0  0  0
 21  3  1  0  0  0  0
 23 27  2  0  0  0  0
 23 24  1  0  0  0  0
 24 25  2  0  0  0  0
 25 22  1  0  0  0  0
 26 22  2  0  0  0  0
 27 26  1  0  0  0  0
M  END
>  <MODEL>
4

>  <REMARK>
 VINA RESULT:      -7.3      1.780      5.915
  Name = 
  1 active torsions:
  status: ('A' for Active; 'I' for Inactive)
    1  A    between atoms: C_9  and  C_15
                            x       y       z     vdW  Elec       q    Type
                         _______ _______ _______ _____ _____    ______ ____

>  <TORSDO>
F 1

$$$$
=
 OpenBabel11052418253D

 27 31  0  0  1  0  0  0  0  0999 V2000
  190.0050  177.0440  143.5070 N   0  0  0  0  0  2  0  0  0  0  0  0
  190.3970  174.6810  142.9880 C   0  0  0  0  0  0  0  0  0  0  0  0
  187.8450  174.8970  142.4100 C   0  0  0  0  0  2  0  0  0  0  0  0
  190.8600  171.6870  139.9250 C   0  0  0  0  0  2  0  0  0  0  0  0
  189.6990  170.5520  138.1510 N   0  0  0  0  0  2  0  0  0  0  0  0
  191.6160  174.0500  142.7020 C   0  0  0  0  0  3  0  0  0  0  0  0
  188.1910  172.8750  140.4160 C   0  0  0  0  0  2  0  0  0  0  0  0
  185.5650  177.1660  142.3880 C   0  0  0  0  0  2  0  0  0  0  0  0
  188.5810  172.4970  138.9950 C   0  0  0  0  0  2  0  0  0  0  0  0
  186.0790  178.5060  142.1510 N   0  0  0  0  0  2  0  0  0  0  0  0
  189.3870  173.3350  141.2110 C   0  0  0  0  0  0  0  0  0  0  0  0
  190.3630  175.7490  144.0740 C   0  0  1  0  0  3  0  0  0  0  0  0
  189.6630  171.4690  139.0440 C   0  0  0  0  0  0  0  0  0  0  0  0
  190.6450  172.7350  140.9880 C   0  0  0  0  0  0  0  0  0  0  0  0
  188.6960  177.2170  142.9800 C   0  0  0  0  0  0  0  0  0  0  0  0
  189.2460  174.3180  142.2190 C   0  0  0  0  0  0  0  0  0  0  0  0
  186.2650  176.5520  143.5900 C   0  0  0  0  0  2  0  0  0  0  0  0
  191.7120  173.1100  141.7330 N   0  0  0  0  0  0  0  0  0  0  0  0
  187.2390  178.3660  141.2880 C   0  0  0  0  0  2  0  0  0  0  0  0
  188.4890  178.1970  142.0940 C   0  0  0  0  0  3  0  0  0  0  0  0
  187.7050  176.1290  143.2950 C   0  0  1  0  0  3  0  0  0  0  0  0
  193.9100  176.1160  146.4840 C   0  0  0  0  0  3  0  0  0  0  0  0
  191.6020  175.8540  144.9180 C   0  0  0  0  0  0  0  0  0  0  0  0
  192.6240  176.7230  144.5230 C   0  0  0  0  0  3  0  0  0  0  0  0
  193.7770  176.8520  145.3040 C   0  0  0  0  0  3  0  0  0  0  0  0
  192.8870  175.2510  146.8870 C   0  0  0  0  0  3  0  0  0  0  0  0
  191.7340  175.1210  146.1070 C   0  0  0  0  0  3  0  0  0  0  0  0
  1 12  1  0  0  0  0
  2 12  1  0  0  0  0
  4 14  1  0  0  0  0
  5 13  2  0  0  0  0
  6  2  1  0  0  0  0
  7 11  1  0  0  0  0
  8 17  1  0  0  0  0
  9 13  1  0  0  0  0
  9  7  1  0  0  0  0
 10  8  1  0  0  0  0
 11 16  1  0  0  0  0
 12 23  1  6  0  0  0
 13  4  1  0  0  0  0
 14 11  2  0  0  0  0
 14 18  1  0  0  0  0
 15 21  1  0  0  0  0
 15  1  1  0  0  0  0
 16  3  1  0  0  0  0
 16  2  2  0  0  0  0
 18  6  2  0  0  0  0
 19 20  1  0  0  0  0
 19 10  1  0  0  0  0
 20 15  2  0  0  0  0
 21  3  1  6  0  0  0
 21 17  1  0  0  0  0
 22 26  1  0  0  0  0
 23 27  1  0  0  0  0
 24 23  2  0  0  0  0
 24 25  1  0  0  0  0
 25 22  2  0  0  0  0
 27 26  2  0  0  0  0
M  END
>  <MODEL>
5

>  <REMARK>
 VINA RESULT:      -7.2      2.301      6.091
  Name = 
  1 active torsions:
  status: ('A' for Active; 'I' for Inactive)
    1  A    between atoms: C_9  and  C_15
                            x       y       z     vdW  Elec       q    Type
                         _______ _______ _______ _____ _____    ______ ____

>  <TORSDO>
F 1

$$$$
=
 OpenBabel11052418253D

 27 31  0  0  1  0  0  0  0  0999 V2000
  188.3830  175.4920  142.8830 N   0  0  0  0  0  2  0  0  0  0  0  0
  190.3500  175.7300  144.3270 C   0  0  0  0  0  0  0  0  0  0  0  0
  190.9750  173.5550  142.9950 C   0  0  0  0  0  2  0  0  0  0  0  0
  194.5180  176.7850  144.6010 C   0  0  0  0  0  2  0  0  0  0  0  0
  196.7210  176.1330  143.8890 N   0  0  0  0  0  2  0  0  0  0  0  0
  190.8140  176.8860  144.9700 C   0  0  0  0  0  3  0  0  0  0  0  0
  193.7330  174.2740  143.2400 C   0  0  0  0  0  2  0  0  0  0  0  0
  189.7280  171.7120  140.6730 C   0  0  0  0  0  2  0  0  0  0  0  0
  194.9290  175.0550  142.7160 C   0  0  0  0  0  2  0  0  0  0  0  0
  188.8730  172.4390  139.7480 N   0  0  0  0  0  2  0  0  0  0  0  0
  192.6810  175.1940  143.8070 C   0  0  0  0  0  0  0  0  0  0  0  0
  188.8490  175.4790  144.2650 C   0  0  1  0  0  3  0  0  0  0  0  0
  195.4600  175.9230  143.8090 C   0  0  0  0  0  0  0  0  0  0  0  0
  193.0740  176.3690  144.4830 C   0  0  0  0  0  0  0  0  0  0  0  0
  188.8210  174.4590  142.0100 C   0  0  0  0  0  0  0  0  0  0  0  0
  191.3100  174.8570  143.7220 C   0  0  0  0  0  0  0  0  0  0  0  0
  189.2220  171.8980  142.0950 C   0  0  0  0  0  2  0  0  0  0  0  0
  192.1350  177.1740  145.0360 N   0  0  0  0  0  0  0  0  0  0  0  0
  189.4010  173.7900  139.6600 C   0  0  0  0  0  2  0  0  0  0  0  0
  188.7760  174.6770  140.6910 C   0  0  0  0  0  3  0  0  0  0  0  0
  189.5130  173.2910  142.6580 C   0  0  1  0  0  3  0  0  0  0  0  0
  186.3900  178.0540  146.6830 C   0  0  0  0  0  3  0  0  0  0  0  0
  188.0060  176.3780  145.1260 C   0  0  0  0  0  0  0  0  0  0  0  0
  187.3570  177.4700  144.5400 C   0  0  0  0  0  3  0  0  0  0  0  0
  186.5520  178.3080  145.3180 C   0  0  0  0  0  3  0  0  0  0  0  0
  187.0320  176.9600  147.2710 C   0  0  0  0  0  3  0  0  0  0  0  0
  187.8370  176.1220  146.4950 C   0  0  0  0  0  3  0  0  0  0  0  0
  1 12  1  0  0  0  0
  2  6  1  0  0  0  0
  3 16  1  0  0  0  0
  6 18  2  0  0  0  0
  7 11  1  0  0  0  0
  8 17  1  0  0  0  0
  9  7  1  0  0  0  0
  9 13  1  0  0  0  0
 10  8  1  0  0  0  0
 11 14  2  0  0  0  0
 12  2  1  0  0  0  0
 12 23  1  1  0  0  0
 13  5  2  0  0  0  0
 13  4  1  0  0  0  0
 14  4  1  0  0  0  0
 14 18  1  0  0  0  0
 15 21  1  0  0  0  0
 15  1  1  0  0  0  0
 16 11  1  0  0  0  0
 16  2  2  0  0  0  0
 19 10  1  0  0  0  0
 19 20  1  0  0  0  0
 20 15  2  0  0  0  0
 21 17  1  6  0  0  0
 21  3  1  0  0  0  0
 22 26  1  0  0  0  0
 23 27  1  0  0  0  0
 24 23  2  0  0  0  0
 24 25  1  0  0  0  0
 25 22  2  0  0  0  0
 27 26  2  0  0  0  0
M  END
>  <MODEL>
6

>  <REMARK>
 VINA RESULT:      -7.2      1.555      1.888
  Name = 
  1 active torsions:
  status: ('A' for Active; 'I' for Inactive)
    1  A    between atoms: C_9  and  C_15
                            x       y       z     vdW  Elec       q    Type
                         _______ _______ _______ _____ _____    ______ ____

>  <TORSDO>
F 1

$$$$
=
 OpenBabel11052418253D

 27 31  0  0  1  0  0  0  0  0999 V2000
  191.0030  175.1380  142.3780 N   0  0  0  0  0  2  0  0  0  0  0  0
  188.5980  175.2070  142.8470 C   0  0  0  0  0  0  0  0  0  0  0  0
  189.5800  175.4190  145.2730 C   0  0  0  0  0  2  0  0  0  0  0  0
  185.2110  177.6150  143.9850 C   0  0  0  0  0  2  0  0  0  0  0  0
  184.2910  178.9140  145.7870 N   0  0  0  0  0  2  0  0  0  0  0  0
  187.5570  175.5390  141.9700 C   0  0  0  0  0  3  0  0  0  0  0  0
  187.2920  176.9770  145.9940 C   0  0  0  0  0  2  0  0  0  0  0  0
  192.4590  175.5610  146.7000 C   0  0  0  0  0  2  0  0  0  0  0  0
  186.6020  178.3320  146.0520 C   0  0  0  0  0  2  0  0  0  0  0  0
  193.4950  176.1470  145.8650 N   0  0  0  0  0  2  0  0  0  0  0  0
  187.4300  176.4890  144.5740 C   0  0  0  0  0  0  0  0  0  0  0  0
  189.7610  174.3750  142.3210 C   0  0  1  0  0  3  0  0  0  0  0  0
  185.2860  178.2370  145.3510 C   0  0  0  0  0  0  0  0  0  0  0  0
  186.4130  176.7730  143.6380 C   0  0  0  0  0  0  0  0  0  0  0  0
  191.5300  175.4810  143.6530 C   0  0  0  0  0  0  0  0  0  0  0  0
  188.5380  175.6980  144.1900 C   0  0  0  0  0  0  0  0  0  0  0  0
  191.8270  174.3800  145.9820 C   0  0  0  0  0  2  0  0  0  0  0  0
  186.5090  176.2950  142.3740 N   0  0  0  0  0  0  0  0  0  0  0  0
  192.8450  177.1310  145.0150 C   0  0  0  0  0  2  0  0  0  0  0  0
  192.3820  176.5090  143.7350 C   0  0  0  0  0  3  0  0  0  0  0  0
  190.9020  174.7980  144.8380 C   0  0  1  0  0  3  0  0  0  0  0  0
  189.2500  172.6210  138.4240 C   0  0  0  0  0  3  0  0  0  0  0  0
  189.5610  173.7720  140.9590 C   0  0  0  0  0  0  0  0  0  0  0  0
  190.6050  173.8260  140.0300 C   0  0  0  0  0  3  0  0  0  0  0  0
  190.4490  173.2530  138.7640 C   0  0  0  0  0  3  0  0  0  0  0  0
  188.2060  172.5590  139.3520 C   0  0  0  0  0  3  0  0  0  0  0  0
  188.3610  173.1310  140.6180 C   0  0  0  0  0  3  0  0  0  0  0  0
  1 15  1  0  0  0  0
  2 16  1  0  0  0  0
  4 13  1  0  0  0  0
  6 18  1  0  0  0  0
  6  2  2  0  0  0  0
  7  9  1  0  0  0  0
 10  8  1  0  0  0  0
 11  7  1  0  0  0  0
 12 23  1  6  0  0  0
 12  1  1  0  0  0  0
 12  2  1  0  0  0  0
 13  5  2  0  0  0  0
 13  9  1  0  0  0  0
 14  4  1  0  0  0  0
 14 11  1  0  0  0  0
 15 20  2  0  0  0  0
 15 21  1  0  0  0  0
 16 11  2  0  0  0  0
 16  3  1  0  0  0  0
 17  8  1  0  0  0  0
 18 14  2  0  0  0  0
 19 10  1  0  0  0  0
 20 19  1  0  0  0  0
 21  3  1  1  0  0  0
 21 17  1  0  0  0  0
 22 25  2  0  0  0  0
 22 26  1  0  0  0  0
 24 23  2  0  0  0  0
 25 24  1  0  0  0  0
 26 27  2  0  0  0  0
 27 23  1  0  0  0  0
M  END
>  <MODEL>
7

>  <REMARK>
 VINA RESULT:      -7.1      1.820      6.712
  Name = 
  1 active torsions:
  status: ('A' for Active; 'I' for Inactive)
    1  A    between atoms: C_9  and  C_15
                            x       y       z     vdW  Elec       q    Type
                         _______ _______ _______ _____ _____    ______ ____

>  <TORSDO>
F 1

$$$$
=
 OpenBabel11052418253D

 27 31  0  0  1  0  0  0  0  0999 V2000
  192.0540  174.6830  142.5040 N   0  0  0  0  0  2  0  0  0  0  0  0
  189.6100  174.5760  142.6590 C   0  0  0  0  0  0  0  0  0  0  0  0
  190.2350  175.2000  145.1310 C   0  0  0  0  0  2  0  0  0  0  0  0
  185.9170  176.7670  143.0150 C   0  0  0  0  0  2  0  0  0  0  0  0
  184.6600  178.1940  144.4860 N   0  0  0  0  0  2  0  0  0  0  0  0
  188.6740  174.6860  141.6210 C   0  0  0  0  0  3  0  0  0  0  0  0
  187.7520  176.6060  145.3360 C   0  0  0  0  0  2  0  0  0  0  0  0
  192.8720  175.8120  146.8670 C   0  0  0  0  0  2  0  0  0  0  0  0
  186.9530  177.8820  145.1130 C   0  0  0  0  0  2  0  0  0  0  0  0
  193.9610  176.3830  146.0900 N   0  0  0  0  0  2  0  0  0  0  0  0
  188.1200  175.9530  144.0280 C   0  0  0  0  0  0  0  0  0  0  0  0
  190.8970  173.8010  142.4040 C   0  0  1  0  0  3  0  0  0  0  0  0
  185.7560  177.5670  144.2770 C   0  0  0  0  0  0  0  0  0  0  0  0
  187.2190  176.0090  142.9430 C   0  0  0  0  0  0  0  0  0  0  0  0
  192.3740  175.2420  143.7720 C   0  0  0  0  0  0  0  0  0  0  0  0
  189.3300  175.2300  143.9000 C   0  0  0  0  0  0  0  0  0  0  0  0
  192.4410  174.4900  146.2530 C   0  0  0  0  0  2  0  0  0  0  0  0
  187.5230  175.3810  141.7810 N   0  0  0  0  0  0  0  0  0  0  0  0
  193.3550  177.1770  145.0350 C   0  0  0  0  0  2  0  0  0  0  0  0
  193.1220  176.3500  143.8100 C   0  0  0  0  0  3  0  0  0  0  0  0
  191.6490  174.6620  144.9550 C   0  0  1  0  0  3  0  0  0  0  0  0
  191.0630  171.5470  138.7410 C   0  0  0  0  0  3  0  0  0  0  0  0
  190.9330  173.0080  141.1280 C   0  0  0  0  0  0  0  0  0  0  0  0
  191.5410  173.5620  139.9970 C   0  0  0  0  0  3  0  0  0  0  0  0
  191.6040  172.8340  138.8050 C   0  0  0  0  0  3  0  0  0  0  0  0
  190.4600  170.9860  139.8710 C   0  0  0  0  0  3  0  0  0  0  0  0
  190.3960  171.7130  141.0630 C   0  0  0  0  0  3  0  0  0  0  0  0
  1 15  1  0  0  0  0
  2 16  1  0  0  0  0
  4 13  1  0  0  0  0
  6 18  1  0  0  0  0
  6  2  2  0  0  0  0
  9  7  1  0  0  0  0
 10  8  1  0  0  0  0
 11  7  1  0  0  0  0
 12 23  1  6  0  0  0
 12  1  1  0  0  0  0
 12  2  1  0  0  0  0
 13  5  2  0  0  0  0
 13  9  1  0  0  0  0
 14  4  1  0  0  0  0
 14 11  1  0  0  0  0
 15 20  2  0  0  0  0
 15 21  1  0  0  0  0
 16 11  2  0  0  0  0
 16  3  1  0  0  0  0
 17  8  1  0  0  0  0
 18 14  2  0  0  0  0
 19 10  1  0  0  0  0
 20 19  1  0  0  0  0
 21  3  1  1  0  0  0
 21 17  1  0  0  0  0
 22 25  2  0  0  0  0
 22 26  1  0  0  0  0
 24 23  2  0  0  0  0
 25 24  1  0  0  0  0
 26 27  2  0  0  0  0
 27 23  1  0  0  0  0
M  END
>  <MODEL>
8

>  <REMARK>
 VINA RESULT:      -6.9      2.017      7.119
  Name = 
  1 active torsions:
  status: ('A' for Active; 'I' for Inactive)
    1  A    between atoms: C_9  and  C_15
                            x       y       z     vdW  Elec       q    Type
                         _______ _______ _______ _____ _____    ______ ____

>  <TORSDO>
F 1

$$$$
=
 OpenBabel11052418253D

 27 31  0  0  1  0  0  0  0  0999 V2000
  189.2990  174.7800  142.5790 N   0  0  0  0  0  2  0  0  0  0  0  0
  191.2550  175.1950  143.9960 C   0  0  0  0  0  0  0  0  0  0  0  0
  191.9600  172.9550  142.8240 C   0  0  0  0  0  2  0  0  0  0  0  0
  195.3810  176.4220  144.1820 C   0  0  0  0  0  2  0  0  0  0  0  0
  197.6060  175.8030  143.5120 N   0  0  0  0  0  2  0  0  0  0  0  0
  191.6750  176.4110  144.5530 C   0  0  0  0  0  3  0  0  0  0  0  0
  194.6900  173.7920  143.0080 C   0  0  0  0  0  2  0  0  0  0  0  0
  190.7830  170.9030  140.6440 C   0  0  0  0  0  2  0  0  0  0  0  0
  195.8560  174.5770  142.4250 C   0  0  0  0  0  2  0  0  0  0  0  0
  189.9010  171.5300  139.6710 N   0  0  0  0  0  2  0  0  0  0  0  0
  193.6040  174.7100  143.5100 C   0  0  0  0  0  0  0  0  0  0  0  0
  189.7640  174.8840  143.9570 C   0  0  1  0  0  3  0  0  0  0  0  0
  196.3540  175.5410  143.4510 C   0  0  0  0  0  0  0  0  0  0  0  0
  193.9530  175.9450  144.0980 C   0  0  0  0  0  0  0  0  0  0  0  0
  189.7740  173.7040  141.7810 C   0  0  0  0  0  0  0  0  0  0  0  0
  192.2460  174.3170  143.4540 C   0  0  0  0  0  0  0  0  0  0  0  0
  190.2700  171.1730  142.0500 C   0  0  0  0  0  2  0  0  0  0  0  0
  192.9850  176.7520  144.5950 N   0  0  0  0  0  0  0  0  0  0  0  0
  190.3790  172.8890  139.4840 C   0  0  0  0  0  2  0  0  0  0  0  0
  189.7210  173.8240  140.4510 C   0  0  0  0  0  3  0  0  0  0  0  0
  190.5100  172.6120  142.5100 C   0  0  1  0  0  3  0  0  0  0  0  0
  187.3030  177.5390  146.2850 C   0  0  0  0  0  3  0  0  0  0  0  0
  188.8890  175.8110  144.7530 C   0  0  0  0  0  0  0  0  0  0  0  0
  188.7240  175.5840  146.1240 C   0  0  0  0  0  3  0  0  0  0  0  0
  187.9310  176.4450  146.8880 C   0  0  0  0  0  3  0  0  0  0  0  0
  187.4690  177.7740  144.9170 C   0  0  0  0  0  3  0  0  0  0  0  0
  188.2620  176.9140  144.1520 C   0  0  0  0  0  3  0  0  0  0  0  0
  1 12  1  0  0  0  0
  2  6  1  0  0  0  0
  3 16  1  0  0  0  0
  6 18  2  0  0  0  0
  7 11  1  0  0  0  0
  8 17  1  0  0  0  0
  9  7  1  0  0  0  0
  9 13  1  0  0  0  0
 10  8  1  0  0  0  0
 11 14  2  0  0  0  0
 12  2  1  0  0  0  0
 12 23  1  6  0  0  0
 13  5  2  0  0  0  0
 13  4  1  0  0  0  0
 14  4  1  0  0  0  0
 14 18  1  0  0  0  0
 15 21  1  0  0  0  0
 15  1  1  0  0  0  0
 16 11  1  0  0  0  0
 16  2  2  0  0  0  0
 19 10  1  0  0  0  0
 19 20  1  0  0  0  0
 20 15  2  0  0  0  0
 21 17  1  6  0  0  0
 21  3  1  0  0  0  0
 22 25  1  0  0  0  0
 23 24  1  0  0  0  0
 24 25  2  0  0  0  0
 26 22  2  0  0  0  0
 27 23  2  0  0  0  0
 27 26  1  0  0  0  0
M  END
>  <MODEL>
9

>  <REMARK>
 VINA RESULT:      -6.8      2.054      3.021
  Name = 
  1 active torsions:
  status: ('A' for Active; 'I' for Inactive)
    1  A    between atoms: C_9  and  C_15
                            x       y       z     vdW  Elec       q    Type
                         _______ _______ _______ _____ _____    ______ ____

>  <TORSDO>
F 1

$$$$
