=
 OpenBabel11052418103D

 28 31  0  0  1  0  0  0  0  0999 V2000
  187.5180  176.3290  147.0310 C   0  0  0  0  0  2  0  0  0  0  0  0
  191.4840  177.2660  142.8810 C   0  0  0  0  0  1  0  0  0  0  0  0
  187.0020  177.9590  144.3550 C   0  0  2  0  0  3  0  0  0  0  0  0
  188.2720  177.3650  144.8200 C   0  0  0  0  0  0  0  0  0  0  0  0
  185.3060  177.0600  146.0140 C   0  0  2  0  0  3  0  0  0  0  0  0
  188.5670  176.7010  146.0200 C   0  0  0  0  0  0  0  0  0  0  0  0
  188.5540  178.1770  142.6910 C   0  0  0  0  0  2  0  0  0  0  0  0
  185.8520  176.9880  144.5810 C   0  0  0  0  0  2  0  0  0  0  0  0
  189.8780  176.2370  146.2010 C   0  0  0  0  0  3  0  0  0  0  0  0
  187.1620  178.2430  142.9750 O   0  0  0  0  0  0  0  0  0  0  0  0
  190.5200  177.0990  144.0080 C   0  0  0  0  0  0  0  0  0  0  0  0
  184.0480  178.3140  146.1120 Cl  0  0  0  0  0  0  0  0  0  0  0  0
  186.3640  177.3260  147.0920 C   0  0  0  0  0  2  0  0  0  0  0  0
  189.2000  177.5390  143.8550 C   0  0  0  0  0  0  0  0  0  0  0  0
  190.8740  176.4500  145.2220 C   0  0  0  0  0  0  0  0  0  0  0  0
  192.5850  174.5570  145.4850 C   0  0  2  0  0  3  0  0  0  0  0  0
  192.2070  175.9640  145.4640 N   0  0  0  0  0  0  0  0  0  0  0  0
  194.2800  175.9650  146.3790 C   0  0  0  0  0  3  0  0  0  0  0  0
  193.2480  176.7220  146.0580 C   0  0  0  0  0  3  0  0  0  0  0  0
  194.0240  174.5420  146.0040 C   0  0  0  0  0  2  0  0  0  0  0  0
  192.4300  173.9000  144.1050 C   0  0  2  0  0  3  0  0  0  0  0  0
  191.7380  172.6920  144.1990 O   0  0  0  0  0  1  0  0  0  0  0  0
  193.7220  173.7590  143.2870 C   0  0  0  0  0  2  0  0  0  0  0  0
  194.7830  175.7510  142.1710 C   0  0  0  0  0  0  0  0  0  0  0  0
  193.0630  174.3990  140.9650 C   0  0  0  0  0  1  0  0  0  0  0  0
  193.8000  174.7060  142.1810 N   0  0  0  0  0  0  0  0  0  0  0  0
  195.7230  175.8450  143.1910 O   0  0  0  0  0  1  0  0  0  0  0  0
  194.8130  176.5870  141.2290 O   0  0  0  0  0  0  0  0  0  0  0  0
  1 13  1  0  0  0  0
  2 11  1  0  0  0  0
  3  8  1  6  0  0  0
  3  4  1  0  0  0  0
  4  6  1  0  0  0  0
  5 12  1  6  0  0  0
  5 13  1  0  0  0  0
  6  9  2  0  0  0  0
  6  1  1  0  0  0  0
  7 10  1  0  0  0  0
  7 14  1  0  0  0  0
  8  5  1  0  0  0  0
 10  3  1  0  0  0  0
 11 15  2  0  0  0  0
 14 11  1  0  0  0  0
 14  4  2  0  0  0  0
 15 17  1  0  0  0  0
 15  9  1  0  0  0  0
 16 21  1  6  0  0  0
 16 20  1  0  0  0  0
 17 16  1  0  0  0  0
 17 19  1  0  0  0  0
 19 18  2  0  0  0  0
 20 18  1  0  0  0  0
 21 22  1  1  0  0  0
 23 21  1  0  0  0  0
 24 26  1  0  0  0  0
 24 27  1  0  0  0  0
 25 26  1  0  0  0  0
 26 23  1  0  0  0  0
 28 24  2  0  0  0  0
M  END
>  <MODEL>
1

>  <REMARK>
 VINA RESULT:      -7.4      0.000      0.000
  Name = 
  4 active torsions:
  status: ('A' for Active; 'I' for Inactive)
    1  A    between atoms: C_1  and  C_2
    2  A    between atoms: C_2  and  C_3
    3  A    between atoms: C_3  and  N_11
    4  A    between atoms: N_16  and  C_27
                            x       y       z     vdW  Elec       q    Type
                         _______ _______ _______ _____ _____    ______ ____

>  <TORSDO>
F 4

$$$$
=
 OpenBabel11052418103D

 28 31  0  0  1  0  0  0  0  0999 V2000
  188.0520  174.4400  141.7430 C   0  0  0  0  0  2  0  0  0  0  0  0
  189.4480  177.4960  146.4900 C   0  0  0  0  0  1  0  0  0  0  0  0
  191.0140  174.9920  142.7450 C   0  0  2  0  0  3  0  0  0  0  0  0
  189.7540  175.5000  143.3260 C   0  0  0  0  0  0  0  0  0  0  0  0
  190.2140  173.3210  141.0110 C   0  0  2  0  0  3  0  0  0  0  0  0
  188.4330  175.3430  142.8820 C   0  0  0  0  0  0  0  0  0  0  0  0
  191.5040  176.0780  144.6960 C   0  0  0  0  0  2  0  0  0  0  0  0
  190.8720  173.5200  142.3840 C   0  0  0  0  0  2  0  0  0  0  0  0
  187.4170  175.9460  143.6370 C   0  0  0  0  0  3  0  0  0  0  0  0
  192.0230  175.1790  143.7240 O   0  0  0  0  0  0  0  0  0  0  0  0
  189.0640  176.8070  145.2220 C   0  0  0  0  0  0  0  0  0  0  0  0
  191.4610  173.3410  139.7430 Cl  0  0  0  0  0  0  0  0  0  0  0  0
  189.1280  174.3460  140.6650 C   0  0  0  0  0  2  0  0  0  0  0  0
  190.0520  176.1830  144.4510 C   0  0  0  0  0  0  0  0  0  0  0  0
  187.7130  176.7040  144.7930 C   0  0  0  0  0  0  0  0  0  0  0  0
  186.2760  178.7230  145.4560 C   0  0  2  0  0  3  0  0  0  0  0  0
  186.6330  177.3120  145.5260 N   0  0  0  0  0  0  0  0  0  0  0  0
  185.2220  177.6080  147.2730 C   0  0  0  0  0  3  0  0  0  0  0  0
  186.0050  176.7400  146.6610 C   0  0  0  0  0  3  0  0  0  0  0  0
  185.2420  178.9230  146.5660 C   0  0  0  0  0  2  0  0  0  0  0  0
  185.7590  179.1160  144.0650 C   0  0  2  0  0  3  0  0  0  0  0  0
  185.5230  180.4890  143.9870 O   0  0  0  0  0  1  0  0  0  0  0  0
  184.5680  178.2990  143.5430 C   0  0  0  0  0  2  0  0  0  0  0  0
  183.3730  178.1600  141.3310 C   0  0  0  0  0  0  0  0  0  0  0  0
  185.8690  178.2160  141.4130 C   0  0  0  0  0  1  0  0  0  0  0  0
  184.5870  178.1290  142.0950 N   0  0  0  0  0  0  0  0  0  0  0  0
  182.1560  178.4140  141.9520 O   0  0  0  0  0  1  0  0  0  0  0  0
  183.4000  177.9710  140.0850 O   0  0  0  0  0  0  0  0  0  0  0  0
  1  6  1  0  0  0  0
  3  8  1  1  0  0  0
  3  4  1  0  0  0  0
  3 10  1  0  0  0  0
  4 14  1  0  0  0  0
  5 12  1  6  0  0  0
  5  8  1  0  0  0  0
  6  4  2  0  0  0  0
  6  9  1  0  0  0  0
  9 15  2  0  0  0  0
 10  7  1  0  0  0  0
 11  2  1  0  0  0  0
 13  5  1  0  0  0  0
 13  1  1  0  0  0  0
 14  7  1  0  0  0  0
 14 11  2  0  0  0  0
 15 11  1  0  0  0  0
 15 17  1  0  0  0  0
 16 21  1  6  0  0  0
 16 17  1  0  0  0  0
 16 20  1  0  0  0  0
 17 19  1  0  0  0  0
 19 18  2  0  0  0  0
 20 18  1  0  0  0  0
 21 22  1  1  0  0  0
 23 21  1  0  0  0  0
 24 27  1  0  0  0  0
 24 26  1  0  0  0  0
 25 26  1  0  0  0  0
 26 23  1  0  0  0  0
 28 24  2  0  0  0  0
M  END
>  <MODEL>
2

>  <REMARK>
 VINA RESULT:      -7.2      3.797      7.760
  Name = 
  4 active torsions:
  status: ('A' for Active; 'I' for Inactive)
    1  A    between atoms: C_1  and  C_2
    2  A    between atoms: C_2  and  C_3
    3  A    between atoms: C_3  and  N_11
    4  A    between atoms: N_16  and  C_27
                            x       y       z     vdW  Elec       q    Type
                         _______ _______ _______ _____ _____    ______ ____

>  <TORSDO>
F 4

$$$$
=
 OpenBabel11052418103D

 28 31  0  0  1  0  0  0  0  0999 V2000
  187.3110  176.4500  146.9440 C   0  0  0  0  0  2  0  0  0  0  0  0
  191.3410  177.1690  142.8120 C   0  0  0  0  0  1  0  0  0  0  0  0
  186.8940  178.0990  144.2620 C   0  0  2  0  0  3  0  0  0  0  0  0
  188.1290  177.4400  144.7350 C   0  0  0  0  0  0  0  0  0  0  0  0
  185.1450  177.2940  145.9150 C   0  0  2  0  0  3  0  0  0  0  0  0
  188.3830  176.7640  145.9370 C   0  0  0  0  0  0  0  0  0  0  0  0
  188.4630  178.2310  142.6050 C   0  0  0  0  0  2  0  0  0  0  0  0
  185.6940  177.1890  144.4850 C   0  0  0  0  0  2  0  0  0  0  0  0
  189.6670  176.2340  146.1270 C   0  0  0  0  0  3  0  0  0  0  0  0
  187.0760  178.3700  142.8820 O   0  0  0  0  0  0  0  0  0  0  0  0
  190.3630  177.0560  143.9350 C   0  0  0  0  0  0  0  0  0  0  0  0
  183.9530  178.6110  146.0030 Cl  0  0  0  0  0  0  0  0  0  0  0  0
  186.2100  177.5060  146.9970 C   0  0  0  0  0  2  0  0  0  0  0  0
  189.0700  177.5640  143.7740 C   0  0  0  0  0  0  0  0  0  0  0  0
  190.6770  176.3920  145.1520 C   0  0  0  0  0  0  0  0  0  0  0  0
  192.2450  174.4330  145.6890 C   0  0  2  0  0  3  0  0  0  0  0  0
  191.9820  175.8370  145.4010 N   0  0  0  0  0  0  0  0  0  0  0  0
  194.1180  175.8220  146.1580 C   0  0  0  0  0  3  0  0  0  0  0  0
  193.1280  176.5950  145.7560 C   0  0  0  0  0  3  0  0  0  0  0  0
  193.7170  174.3840  146.1050 C   0  0  0  0  0  2  0  0  0  0  0  0
  191.9220  173.5310  144.4890 C   0  0  2  0  0  3  0  0  0  0  0  0
  192.3270  174.1240  143.2930 O   0  0  0  0  0  1  0  0  0  0  0  0
  190.4770  173.0160  144.4140 C   0  0  0  0  0  2  0  0  0  0  0  0
  190.1940  171.8820  142.1840 C   0  0  0  0  0  0  0  0  0  0  0  0
  188.9440  173.9830  142.6960 C   0  0  0  0  0  1  0  0  0  0  0  0
  189.9510  172.9970  143.0540 N   0  0  0  0  0  0  0  0  0  0  0  0
  190.8880  170.7680  142.6430 O   0  0  0  0  0  1  0  0  0  0  0  0
  189.7680  171.8960  140.9980 O   0  0  0  0  0  0  0  0  0  0  0  0
  1 13  1  0  0  0  0
  2 11  1  0  0  0  0
  3  8  1  6  0  0  0
  3  4  1  0  0  0  0
  4  6  1  0  0  0  0
  5 12  1  6  0  0  0
  5 13  1  0  0  0  0
  6  9  2  0  0  0  0
  6  1  1  0  0  0  0
  7 10  1  0  0  0  0
  7 14  1  0  0  0  0
  8  5  1  0  0  0  0
 10  3  1  0  0  0  0
 11 15  2  0  0  0  0
 14 11  1  0  0  0  0
 14  4  2  0  0  0  0
 15 17  1  0  0  0  0
 15  9  1  0  0  0  0
 16 21  1  6  0  0  0
 16 20  1  0  0  0  0
 17 16  1  0  0  0  0
 17 19  1  0  0  0  0
 19 18  2  0  0  0  0
 20 18  1  0  0  0  0
 21 22  1  6  0  0  0
 23 21  1  0  0  0  0
 24 27  1  0  0  0  0
 24 26  1  0  0  0  0
 25 26  1  0  0  0  0
 26 23  1  0  0  0  0
 28 24  2  0  0  0  0
M  END
>  <MODEL>
3

>  <REMARK>
 VINA RESULT:      -7.1      1.733      2.599
  Name = 
  4 active torsions:
  status: ('A' for Active; 'I' for Inactive)
    1  A    between atoms: C_1  and  C_2
    2  A    between atoms: C_2  and  C_3
    3  A    between atoms: C_3  and  N_11
    4  A    between atoms: N_16  and  C_27
                            x       y       z     vdW  Elec       q    Type
                         _______ _______ _______ _____ _____    ______ ____

>  <TORSDO>
F 4

$$$$
=
 OpenBabel11052418103D

 28 31  0  0  1  0  0  0  0  0999 V2000
  186.6780  176.9310  142.4180 C   0  0  0  0  0  2  0  0  0  0  0  0
  189.7260  175.2390  147.0740 C   0  0  0  0  0  1  0  0  0  0  0  0
  186.0370  177.7650  145.4150 C   0  0  2  0  0  3  0  0  0  0  0  0
  187.0890  176.8440  144.9390 C   0  0  0  0  0  0  0  0  0  0  0  0
  185.1340  178.7650  143.2640 C   0  0  2  0  0  3  0  0  0  0  0  0
  187.3660  176.3900  143.6410 C   0  0  0  0  0  0  0  0  0  0  0  0
  187.3510  177.1890  147.1940 C   0  0  0  0  0  2  0  0  0  0  0  0
  185.9770  179.0000  144.5260 C   0  0  0  0  0  2  0  0  0  0  0  0
  188.4380  175.5010  143.4770 C   0  0  0  0  0  3  0  0  0  0  0  0
  186.3710  178.1160  146.7480 O   0  0  0  0  0  0  0  0  0  0  0  0
  188.9020  175.5710  145.8740 C   0  0  0  0  0  0  0  0  0  0  0  0
  183.4280  179.1340  143.6090 Cl  0  0  0  0  0  0  0  0  0  0  0  0
  185.2340  177.3510  142.6790 C   0  0  0  0  0  2  0  0  0  0  0  0
  187.8330  176.4650  146.0000 C   0  0  0  0  0  0  0  0  0  0  0  0
  189.2000  175.0590  144.5820 C   0  0  0  0  0  0  0  0  0  0  0  0
  191.4160  174.3860  143.4800 C   0  0  2  0  0  3  0  0  0  0  0  0
  190.2820  174.1360  144.3600 N   0  0  0  0  0  0  0  0  0  0  0  0
  191.2640  172.1060  144.1400 C   0  0  0  0  0  3  0  0  0  0  0  0
  190.2380  172.7510  144.6620 C   0  0  0  0  0  3  0  0  0  0  0  0
  192.1550  173.0480  143.3990 C   0  0  0  0  0  2  0  0  0  0  0  0
  192.2970  175.5360  143.9900 C   0  0  2  0  0  3  0  0  0  0  0  0
  192.2890  176.6070  143.0950 O   0  0  0  0  0  1  0  0  0  0  0  0
  193.7220  175.1470  144.4070 C   0  0  0  0  0  2  0  0  0  0  0  0
  194.5250  177.1210  145.7480 C   0  0  0  0  0  0  0  0  0  0  0  0
  195.7350  176.4310  143.6740 C   0  0  0  0  0  1  0  0  0  0  0  0
  194.6000  176.3000  144.5740 N   0  0  0  0  0  0  0  0  0  0  0  0
  193.6530  176.7970  146.7810 O   0  0  0  0  0  1  0  0  0  0  0  0
  195.2610  178.1380  145.8610 O   0  0  0  0  0  0  0  0  0  0  0  0
  1 13  1  0  0  0  0
  1  6  1  0  0  0  0
  3  8  1  6  0  0  0
  3 10  1  0  0  0  0
  4  3  1  0  0  0  0
  4 14  1  0  0  0  0
  5 12  1  1  0  0  0
  5  8  1  0  0  0  0
  6  4  2  0  0  0  0
  9  6  1  0  0  0  0
  9 15  2  0  0  0  0
 10  7  1  0  0  0  0
 11 14  2  0  0  0  0
 11  2  1  0  0  0  0
 13  5  1  0  0  0  0
 14  7  1  0  0  0  0
 15 11  1  0  0  0  0
 16 21  1  1  0  0  0
 16 17  1  0  0  0  0
 17 15  1  0  0  0  0
 17 19  1  0  0  0  0
 18 19  2  0  0  0  0
 20 16  1  0  0  0  0
 20 18  1  0  0  0  0
 21 22  1  6  0  0  0
 21 23  1  0  0  0  0
 23 26  1  0  0  0  0
 24 28  2  0  0  0  0
 24 27  1  0  0  0  0
 25 26  1  0  0  0  0
 26 24  1  0  0  0  0
M  END
>  <MODEL>
4

>  <REMARK>
 VINA RESULT:      -7.1      2.228      3.579
  Name = 
  4 active torsions:
  status: ('A' for Active; 'I' for Inactive)
    1  A    between atoms: C_1  and  C_2
    2  A    between atoms: C_2  and  C_3
    3  A    between atoms: C_3  and  N_11
    4  A    between atoms: N_16  and  C_27
                            x       y       z     vdW  Elec       q    Type
                         _______ _______ _______ _____ _____    ______ ____

>  <TORSDO>
F 4

$$$$
=
 OpenBabel11052418103D

 28 31  0  0  1  0  0  0  0  0999 V2000
  187.6450  178.2720  142.9940 C   0  0  0  0  0  2  0  0  0  0  0  0
  189.5120  175.2130  147.5740 C   0  0  0  0  0  1  0  0  0  0  0  0
  185.8700  177.4970  145.5110 C   0  0  2  0  0  3  0  0  0  0  0  0
  187.2690  177.1080  145.2380 C   0  0  0  0  0  0  0  0  0  0  0  0
  185.3780  179.1910  143.6870 C   0  0  2  0  0  3  0  0  0  0  0  0
  188.0690  177.3650  144.1150 C   0  0  0  0  0  0  0  0  0  0  0  0
  186.6920  176.4160  147.3490 C   0  0  0  0  0  2  0  0  0  0  0  0
  185.6570  178.9680  145.1800 C   0  0  0  0  0  2  0  0  0  0  0  0
  189.3790  176.8640  144.1220 C   0  0  0  0  0  3  0  0  0  0  0  0
  185.6360  177.2480  146.8870 O   0  0  0  0  0  0  0  0  0  0  0  0
  189.0330  175.9040  146.3410 C   0  0  0  0  0  0  0  0  0  0  0  0
  183.6330  179.0410  143.3770 Cl  0  0  0  0  0  0  0  0  0  0  0  0
  186.1390  178.2520  142.7440 C   0  0  0  0  0  2  0  0  0  0  0  0
  187.7350  176.4270  146.3050 C   0  0  0  0  0  0  0  0  0  0  0  0
  189.8700  176.1100  145.2110 C   0  0  0  0  0  0  0  0  0  0  0  0
  191.5780  174.1980  145.1030 C   0  0  2  0  0  3  0  0  0  0  0  0
  191.2190  175.6090  145.1630 N   0  0  0  0  0  0  0  0  0  0  0  0
  193.4400  175.5870  145.6130 C   0  0  0  0  0  3  0  0  0  0  0  0
  192.3710  176.3550  145.5210 C   0  0  0  0  0  3  0  0  0  0  0  0
  193.0950  174.1680  145.3020 C   0  0  0  0  0  2  0  0  0  0  0  0
  191.1250  173.5460  143.7880 C   0  0  2  0  0  3  0  0  0  0  0  0
  191.3670  174.3870  142.7020 O   0  0  0  0  0  1  0  0  0  0  0  0
  189.6910  172.9950  143.7790 C   0  0  0  0  0  2  0  0  0  0  0  0
  188.3800  173.1620  141.6360 C   0  0  0  0  0  0  0  0  0  0  0  0
  190.0690  171.3470  141.9420 C   0  0  0  0  0  1  0  0  0  0  0  0
  189.2990  172.4560  142.4820 N   0  0  0  0  0  0  0  0  0  0  0  0
  187.8910  174.4080  142.0120 O   0  0  0  0  0  1  0  0  0  0  0  0
  188.0180  172.6660  140.5360 O   0  0  0  0  0  0  0  0  0  0  0  0
  1  6  1  0  0  0  0
  3  8  1  1  0  0  0
  3 10  1  0  0  0  0
  4  3  1  0  0  0  0
  4 14  1  0  0  0  0
  5 12  1  1  0  0  0
  5  8  1  0  0  0  0
  6  9  1  0  0  0  0
  6  4  2  0  0  0  0
  9 15  2  0  0  0  0
 10  7  1  0  0  0  0
 11  2  1  0  0  0  0
 13  1  1  0  0  0  0
 13  5  1  0  0  0  0
 14 11  2  0  0  0  0
 14  7  1  0  0  0  0
 15 11  1  0  0  0  0
 16 21  1  6  0  0  0
 16 17  1  0  0  0  0
 16 20  1  0  0  0  0
 17 15  1  0  0  0  0
 17 19  1  0  0  0  0
 19 18  2  0  0  0  0
 20 18  1  0  0  0  0
 21 22  1  6  0  0  0
 23 21  1  0  0  0  0
 24 27  1  0  0  0  0
 24 26  1  0  0  0  0
 25 26  1  0  0  0  0
 26 23  1  0  0  0  0
 28 24  2  0  0  0  0
M  END
>  <MODEL>
5

>  <REMARK>
 VINA RESULT:      -7.0      2.525      3.885
  Name = 
  4 active torsions:
  status: ('A' for Active; 'I' for Inactive)
    1  A    between atoms: C_1  and  C_2
    2  A    between atoms: C_2  and  C_3
    3  A    between atoms: C_3  and  N_11
    4  A    between atoms: N_16  and  C_27
                            x       y       z     vdW  Elec       q    Type
                         _______ _______ _______ _____ _____    ______ ____

>  <TORSDO>
F 4

$$$$
=
 OpenBabel11052418103D

 28 31  0  0  1  0  0  0  0  0999 V2000
  186.8460  177.0090  142.4720 C   0  0  0  0  0  2  0  0  0  0  0  0
  189.5380  175.1490  147.2800 C   0  0  0  0  0  1  0  0  0  0  0  0
  185.9140  177.6430  145.4400 C   0  0  2  0  0  3  0  0  0  0  0  0
  187.0380  176.7870  145.0100 C   0  0  0  0  0  0  0  0  0  0  0  0
  185.1630  178.7360  143.2770 C   0  0  2  0  0  3  0  0  0  0  0  0
  187.4450  176.4210  143.7190 C   0  0  0  0  0  0  0  0  0  0  0  0
  187.0880  177.0070  147.2950 C   0  0  0  0  0  2  0  0  0  0  0  0
  185.8830  178.9250  144.6200 C   0  0  0  0  0  2  0  0  0  0  0  0
  188.5610  175.5800  143.6030 C   0  0  0  0  0  3  0  0  0  0  0  0
  186.1150  177.9250  146.8160 O   0  0  0  0  0  0  0  0  0  0  0  0
  188.8100  175.5240  146.0320 C   0  0  0  0  0  0  0  0  0  0  0  0
  183.4210  179.0260  143.4870 Cl  0  0  0  0  0  0  0  0  0  0  0  0
  185.3700  177.3640  142.6250 C   0  0  0  0  0  2  0  0  0  0  0  0
  187.7000  176.3720  146.1110 C   0  0  0  0  0  0  0  0  0  0  0  0
  189.2400  175.0990  144.7450 C   0  0  0  0  0  0  0  0  0  0  0  0
  191.6270  174.6170  143.9380 C   0  0  2  0  0  3  0  0  0  0  0  0
  190.3730  174.2290  144.5700 N   0  0  0  0  0  0  0  0  0  0  0  0
  191.4410  172.2620  144.2130 C   0  0  0  0  0  3  0  0  0  0  0  0
  190.3240  172.8130  144.6480 C   0  0  0  0  0  3  0  0  0  0  0  0
  192.4110  173.3130  143.7810 C   0  0  0  0  0  2  0  0  0  0  0  0
  192.3750  175.6810  144.7550 C   0  0  2  0  0  3  0  0  0  0  0  0
  192.4220  176.8970  144.0710 O   0  0  0  0  0  1  0  0  0  0  0  0
  193.7570  175.2650  145.2810 C   0  0  0  0  0  2  0  0  0  0  0  0
  195.5830  176.1810  143.8090 C   0  0  0  0  0  0  0  0  0  0  0  0
  194.8100  177.4680  145.8060 C   0  0  0  0  0  1  0  0  0  0  0  0
  194.7920  176.2550  145.0030 N   0  0  0  0  0  0  0  0  0  0  0  0
  195.3370  175.1940  142.8610 O   0  0  0  0  0  0  0  0  0  0  0  0
  196.5010  177.0180  143.6010 O   0  0  0  0  0  1  0  0  0  0  0  0
  1 13  1  0  0  0  0
  1  6  1  0  0  0  0
  3  8  1  6  0  0  0
  3 10  1  0  0  0  0
  4  3  1  0  0  0  0
  4 14  1  0  0  0  0
  5 12  1  1  0  0  0
  5  8  1  0  0  0  0
  6  4  2  0  0  0  0
  9  6  1  0  0  0  0
  9 15  2  0  0  0  0
 10  7  1  0  0  0  0
 11 14  2  0  0  0  0
 11  2  1  0  0  0  0
 13  5  1  0  0  0  0
 14  7  1  0  0  0  0
 15 11  1  0  0  0  0
 16 17  1  0  0  0  0
 16 21  1  1  0  0  0
 17 19  1  0  0  0  0
 17 15  1  0  0  0  0
 18 19  2  0  0  0  0
 20 16  1  0  0  0  0
 20 18  1  0  0  0  0
 21 22  1  6  0  0  0
 21 23  1  0  0  0  0
 24 26  1  0  0  0  0
 26 23  1  0  0  0  0
 26 25  1  0  0  0  0
 27 24  2  0  0  0  0
 28 24  1  0  0  0  0
M  END
>  <MODEL>
6

>  <REMARK>
 VINA RESULT:      -7.0      2.102      3.462
  Name = 
  4 active torsions:
  status: ('A' for Active; 'I' for Inactive)
    1  A    between atoms: C_1  and  C_2
    2  A    between atoms: C_2  and  C_3
    3  A    between atoms: C_3  and  N_11
    4  A    between atoms: N_16  and  C_27
                            x       y       z     vdW  Elec       q    Type
                         _______ _______ _______ _____ _____    ______ ____

>  <TORSDO>
F 4

$$$$
=
 OpenBabel11052418103D

 28 31  0  0  1  0  0  0  0  0999 V2000
  187.7660  177.4960  141.9450 C   0  0  0  0  0  2  0  0  0  0  0  0
  187.0360  177.1420  147.7040 C   0  0  0  0  0  1  0  0  0  0  0  0
  184.9920  177.8400  143.4530 C   0  0  2  0  0  3  0  0  0  0  0  0
  186.3040  177.4990  144.0410 C   0  0  0  0  0  0  0  0  0  0  0  0
  185.5730  178.4220  141.0520 C   0  0  2  0  0  3  0  0  0  0  0  0
  187.5360  177.2670  143.4130 C   0  0  0  0  0  0  0  0  0  0  0  0
  184.7840  177.8340  145.7290 C   0  0  0  0  0  2  0  0  0  0  0  0
  185.1490  178.9550  142.4280 C   0  0  0  0  0  2  0  0  0  0  0  0
  188.6320  176.9520  144.2290 C   0  0  0  0  0  3  0  0  0  0  0  0
  184.1560  178.2490  144.5230 O   0  0  0  0  0  0  0  0  0  0  0  0
  187.2350  177.1240  146.2250 C   0  0  0  0  0  0  0  0  0  0  0  0
  184.1290  177.9840  140.1100 Cl  0  0  0  0  0  0  0  0  0  0  0  0
  186.5280  177.2240  141.0950 C   0  0  0  0  0  2  0  0  0  0  0  0
  186.1660  177.4460  145.3820 C   0  0  0  0  0  0  0  0  0  0  0  0
  188.4970  176.8480  145.6320 C   0  0  0  0  0  0  0  0  0  0  0  0
  190.0590  175.1510  146.7540 C   0  0  2  0  0  3  0  0  0  0  0  0
  189.6520  176.5090  146.4220 N   0  0  0  0  0  0  0  0  0  0  0  0
  191.2000  176.7830  148.0540 C   0  0  0  0  0  3  0  0  0  0  0  0
  190.3400  177.4100  147.2740 C   0  0  0  0  0  3  0  0  0  0  0  0
  191.1800  175.3150  147.7830 C   0  0  0  0  0  2  0  0  0  0  0  0
  190.4870  174.3590  145.5100 C   0  0  2  0  0  3  0  0  0  0  0  0
  189.7530  173.1780  145.3890 O   0  0  0  0  0  1  0  0  0  0  0  0
  191.9960  174.1140  145.3640 C   0  0  0  0  0  2  0  0  0  0  0  0
  193.0110  175.9650  143.9920 C   0  0  0  0  0  0  0  0  0  0  0  0
  192.8440  173.6530  143.0610 C   0  0  0  0  0  1  0  0  0  0  0  0
  192.5340  174.6170  144.1050 N   0  0  0  0  0  0  0  0  0  0  0  0
  193.0240  176.8040  145.1000 O   0  0  0  0  0  1  0  0  0  0  0  0
  193.4350  176.3990  142.8880 O   0  0  0  0  0  0  0  0  0  0  0  0
  1  6  1  0  0  0  0
  3  8  1  6  0  0  0
  3  4  1  0  0  0  0
  3 10  1  0  0  0  0
  4 14  1  0  0  0  0
  5 12  1  1  0  0  0
  5 13  1  0  0  0  0
  5  8  1  0  0  0  0
  6  4  2  0  0  0  0
  6  9  1  0  0  0  0
  9 15  2  0  0  0  0
 10  7  1  0  0  0  0
 11  2  1  0  0  0  0
 13  1  1  0  0  0  0
 14  7  1  0  0  0  0
 14 11  2  0  0  0  0
 15 11  1  0  0  0  0
 15 17  1  0  0  0  0
 16 21  1  6  0  0  0
 16 20  1  0  0  0  0
 17 16  1  0  0  0  0
 17 19  1  0  0  0  0
 19 18  2  0  0  0  0
 20 18  1  0  0  0  0
 21 22  1  1  0  0  0
 23 21  1  0  0  0  0
 24 26  1  0  0  0  0
 24 27  1  0  0  0  0
 25 26  1  0  0  0  0
 26 23  1  0  0  0  0
 28 24  2  0  0  0  0
M  END
>  <MODEL>
7

>  <REMARK>
 VINA RESULT:      -7.0      2.277      3.652
  Name = 
  4 active torsions:
  status: ('A' for Active; 'I' for Inactive)
    1  A    between atoms: C_1  and  C_2
    2  A    between atoms: C_2  and  C_3
    3  A    between atoms: C_3  and  N_11
    4  A    between atoms: N_16  and  C_27
                            x       y       z     vdW  Elec       q    Type
                         _______ _______ _______ _____ _____    ______ ____

>  <TORSDO>
F 4

$$$$
=
 OpenBabel11052418103D

 28 31  0  0  1  0  0  0  0  0999 V2000
  188.1660  176.2310  146.7560 C   0  0  0  0  0  2  0  0  0  0  0  0
  188.2220  175.1540  141.0410 C   0  0  0  0  0  1  0  0  0  0  0  0
  186.0700  177.3820  144.6660 C   0  0  2  0  0  3  0  0  0  0  0  0
  187.2590  176.5510  144.3880 C   0  0  0  0  0  0  0  0  0  0  0  0
  185.9290  177.3530  147.2000 C   0  0  2  0  0  3  0  0  0  0  0  0
  188.2490  176.0790  145.2630 C   0  0  0  0  0  0  0  0  0  0  0  0
  186.0520  176.8140  142.4530 C   0  0  0  0  0  2  0  0  0  0  0  0
  185.3260  176.8470  145.8820 C   0  0  0  0  0  2  0  0  0  0  0  0
  189.2820  175.3040  144.7170 C   0  0  0  0  0  3  0  0  0  0  0  0
  185.2530  177.3310  143.5080 O   0  0  0  0  0  0  0  0  0  0  0  0
  188.2940  175.4970  142.4920 C   0  0  0  0  0  0  0  0  0  0  0  0
  185.1860  178.9100  147.6380 Cl  0  0  0  0  0  0  0  0  0  0  0  0
  187.4540  177.5090  147.1900 C   0  0  0  0  0  2  0  0  0  0  0  0
  187.2730  176.2590  143.0710 C   0  0  0  0  0  0  0  0  0  0  0  0
  189.3380  175.0240  143.3330 C   0  0  0  0  0  0  0  0  0  0  0  0
  191.6100  174.7750  142.1680 C   0  0  2  0  0  3  0  0  0  0  0  0
  190.4270  174.2330  142.8230 N   0  0  0  0  0  0  0  0  0  0  0  0
  191.4090  172.4230  141.8760 C   0  0  0  0  0  3  0  0  0  0  0  0
  190.3580  172.8410  142.5560 C   0  0  0  0  0  3  0  0  0  0  0  0
  192.3450  173.5550  141.6080 C   0  0  0  0  0  2  0  0  0  0  0  0
  192.4660  175.6120  143.1300 C   0  0  2  0  0  3  0  0  0  0  0  0
  193.3690  176.4130  142.4300 O   0  0  0  0  0  1  0  0  0  0  0  0
  193.1490  174.8310  144.2620 C   0  0  0  0  0  2  0  0  0  0  0  0
  193.4520  176.4110  146.1990 C   0  0  0  0  0  0  0  0  0  0  0  0
  195.4400  175.5190  144.9780 C   0  0  0  0  0  1  0  0  0  0  0  0
  193.9990  175.6710  145.0980 N   0  0  0  0  0  0  0  0  0  0  0  0
  192.1060  176.2950  146.5270 O   0  0  0  0  0  0  0  0  0  0  0  0
  194.1900  177.1650  146.8880 O   0  0  0  0  0  1  0  0  0  0  0  0
  1 13  1  0  0  0  0
  2 11  1  0  0  0  0
  3  8  1  1  0  0  0
  4  3  1  0  0  0  0
  4  6  1  0  0  0  0
  5 12  1  6  0  0  0
  6  1  1  0  0  0  0
  7 14  1  0  0  0  0
  7 10  1  0  0  0  0
  8  5  1  0  0  0  0
  9  6  2  0  0  0  0
 10  3  1  0  0  0  0
 11 14  1  0  0  0  0
 11 15  2  0  0  0  0
 13  5  1  0  0  0  0
 14  4  2  0  0  0  0
 15  9  1  0  0  0  0
 16 17  1  0  0  0  0
 16 21  1  1  0  0  0
 17 15  1  0  0  0  0
 18 19  2  0  0  0  0
 19 17  1  0  0  0  0
 20 18  1  0  0  0  0
 20 16  1  0  0  0  0
 21 22  1  6  0  0  0
 21 23  1  0  0  0  0
 23 26  1  0  0  0  0
 24 27  2  0  0  0  0
 24 28  1  0  0  0  0
 25 26  1  0  0  0  0
 26 24  1  0  0  0  0
M  END
>  <MODEL>
8

>  <REMARK>
 VINA RESULT:      -7.0      2.206      3.441
  Name = 
  4 active torsions:
  status: ('A' for Active; 'I' for Inactive)
    1  A    between atoms: C_1  and  C_2
    2  A    between atoms: C_2  and  C_3
    3  A    between atoms: C_3  and  N_11
    4  A    between atoms: N_16  and  C_27
                            x       y       z     vdW  Elec       q    Type
                         _______ _______ _______ _____ _____    ______ ____

>  <TORSDO>
F 4

$$$$
=
 OpenBabel11052418103D

 28 31  0  0  1  0  0  0  0  0999 V2000
  188.9420  177.8160  142.4300 C   0  0  0  0  0  2  0  0  0  0  0  0
  190.4590  175.5850  147.5820 C   0  0  0  0  0  1  0  0  0  0  0  0
  186.9250  177.1520  144.7900 C   0  0  2  0  0  3  0  0  0  0  0  0
  188.3800  176.9010  144.7480 C   0  0  0  0  0  0  0  0  0  0  0  0
  186.5210  178.5400  142.7040 C   0  0  2  0  0  3  0  0  0  0  0  0
  189.2980  177.1100  143.7080 C   0  0  0  0  0  0  0  0  0  0  0  0
  187.5890  176.4100  146.8470 C   0  0  0  0  0  2  0  0  0  0  0  0
  186.6130  178.5360  144.2370 C   0  0  0  0  0  2  0  0  0  0  0  0
  190.6370  176.7720  143.9460 C   0  0  0  0  0  3  0  0  0  0  0  0
  186.5290  177.0480  146.1480 O   0  0  0  0  0  0  0  0  0  0  0  0
  190.0870  176.0580  146.2160 C   0  0  0  0  0  0  0  0  0  0  0  0
  184.8590  178.1470  142.2040 Cl  0  0  0  0  0  0  0  0  0  0  0  0
  187.4960  177.5880  142.0000 C   0  0  0  0  0  2  0  0  0  0  0  0
  188.7610  176.4150  145.9480 C   0  0  0  0  0  0  0  0  0  0  0  0
  191.0480  176.2210  145.1810 C   0  0  0  0  0  0  0  0  0  0  0  0
  192.9370  174.5260  145.5540 C   0  0  2  0  0  3  0  0  0  0  0  0
  192.4340  175.8810  145.3690 N   0  0  0  0  0  0  0  0  0  0  0  0
  194.5630  176.1790  146.0850 C   0  0  0  0  0  3  0  0  0  0  0  0
  193.4450  176.7980  145.7550 C   0  0  0  0  0  3  0  0  0  0  0  0
  194.4080  174.7010  145.9390 C   0  0  0  0  0  2  0  0  0  0  0  0
  192.7360  173.6620  144.3010 C   0  0  2  0  0  3  0  0  0  0  0  0
  192.3840  172.3560  144.6430 O   0  0  0  0  0  1  0  0  0  0  0  0
  193.8800  173.6990  143.2770 C   0  0  0  0  0  2  0  0  0  0  0  0
  194.7270  175.7650  142.1140 C   0  0  0  0  0  0  0  0  0  0  0  0
  192.6750  174.6040  141.2860 C   0  0  0  0  0  1  0  0  0  0  0  0
  193.7210  174.7560  142.2860 N   0  0  0  0  0  0  0  0  0  0  0  0
  195.9040  175.7200  142.8510 O   0  0  0  0  0  1  0  0  0  0  0  0
  194.5580  176.6960  141.2810 O   0  0  0  0  0  0  0  0  0  0  0  0
  1  6  1  0  0  0  0
  3  8  1  1  0  0  0
  3 10  1  0  0  0  0
  4  3  1  0  0  0  0
  4 14  1  0  0  0  0
  5 12  1  1  0  0  0
  5  8  1  0  0  0  0
  6  9  1  0  0  0  0
  6  4  2  0  0  0  0
  9 15  2  0  0  0  0
 10  7  1  0  0  0  0
 11  2  1  0  0  0  0
 13  1  1  0  0  0  0
 13  5  1  0  0  0  0
 14 11  2  0  0  0  0
 14  7  1  0  0  0  0
 15 17  1  0  0  0  0
 15 11  1  0  0  0  0
 16 21  1  6  0  0  0
 16 20  1  0  0  0  0
 17 16  1  0  0  0  0
 17 19  1  0  0  0  0
 19 18  2  0  0  0  0
 20 18  1  0  0  0  0
 21 22  1  1  0  0  0
 23 21  1  0  0  0  0
 24 26  1  0  0  0  0
 24 27  1  0  0  0  0
 25 26  1  0  0  0  0
 26 23  1  0  0  0  0
 28 24  2  0  0  0  0
M  END
>  <MODEL>
9

>  <REMARK>
 VINA RESULT:      -7.0      1.220      2.485
  Name = 
  4 active torsions:
  status: ('A' for Active; 'I' for Inactive)
    1  A    between atoms: C_1  and  C_2
    2  A    between atoms: C_2  and  C_3
    3  A    between atoms: C_3  and  N_11
    4  A    between atoms: N_16  and  C_27
                            x       y       z     vdW  Elec       q    Type
                         _______ _______ _______ _____ _____    ______ ____

>  <TORSDO>
F 4

$$$$
