=
 OpenBabel11052421063D

 43 47  0  0  1  0  0  0  0  0999 V2000
  192.4880  174.2340  145.2920 N   0  0  0  0  0  2  0  0  0  0  0  0
  185.4530  177.8640  146.0570 C   0  0  0  0  0  0  0  0  0  0  0  0
  192.4730  173.6690  143.0300 O   0  0  0  0  0  0  0  0  0  0  0  0
  188.4670  175.1980  143.0040 C   0  0  0  0  0  0  0  0  0  0  0  0
  191.8480  174.1360  144.0200 C   0  0  0  0  0  0  0  0  0  0  0  0
  186.5170  176.9000  144.0220 C   0  0  0  0  0  0  0  0  0  0  0  0
  186.5530  177.5980  146.7770 C   0  0  0  0  0  3  0  0  0  0  0  0
  184.1860  178.2060  146.7600 C   0  0  0  0  0  1  0  0  0  0  0  0
  187.6710  176.6230  144.7880 C   0  0  0  0  0  0  0  0  0  0  0  0
  185.4780  177.8480  144.5480 C   0  0  0  0  0  2  0  0  0  0  0  0
  187.8740  177.2890  146.1180 C   0  0  0  0  0  2  0  0  0  0  0  0
  189.8650  175.3940  144.8180 N   0  0  0  0  0  2  0  0  0  0  0  0
  188.6300  175.7680  144.2440 C   0  0  0  0  0  0  0  0  0  0  0  0
  187.3390  175.4600  142.2260 C   0  0  0  0  0  3  0  0  0  0  0  0
  189.6480  174.3380  142.6920 C   0  0  1  0  0  3  0  0  0  0  0  0
  190.4880  174.5590  143.8790 N   0  0  0  0  0  0  0  0  0  0  0  0
  186.3590  176.3240  142.7460 C   0  0  0  0  0  3  0  0  0  0  0  0
  189.1950  172.8850  142.6370 C   0  0  0  0  0  2  0  0  0  0  0  0
  189.6910  172.2140  141.3690 C   0  0  0  0  0  2  0  0  0  0  0  0
  190.6760  173.8050  138.1310 O   0  0  0  0  0  0  0  0  0  0  0  0
  188.2720  173.7990  138.1790 C   0  0  0  0  0  2  0  0  0  0  0  0
  189.5340  173.4620  137.3850 C   0  0  1  0  0  3  0  0  0  0  0  0
  190.7500  172.8980  139.2040 C   0  0  0  0  0  2  0  0  0  0  0  0
  189.6210  173.1790  140.1990 C   0  0  1  0  0  3  0  0  0  0  0  0
  189.5300  174.2350  136.0820 C   0  0  0  0  0  1  0  0  0  0  0  0
  188.2810  173.0090  139.4860 C   0  0  0  0  0  2  0  0  0  0  0  0
  193.8460  173.7630  145.5070 C   0  0  0  0  0  2  0  0  0  0  0  0
  194.7860  174.9500  145.7600 C   0  0  2  0  0  3  0  0  0  0  0  0
  194.1870  176.2040  145.5100 O   0  0  0  0  0  0  0  0  0  0  0  0
  194.3890  177.0370  146.6210 C   0  0  0  0  0  1  0  0  0  0  0  0
  196.2130  174.8280  145.1810 C   0  0  1  0  0  3  0  0  0  0  0  0
  197.0130  173.7720  145.9400 C   0  0  0  0  0  2  0  0  0  0  0  0
  196.8240  171.2900  145.8080 C   0  0  0  0  0  1  0  0  0  0  0  0
  197.2610  172.5450  145.0780 C   0  0  0  0  0  2  0  0  0  0  0  0
  196.2040  174.5120  143.6870 C   0  0  0  0  0  2  0  0  0  0  0  0
  196.8930  175.6070  142.8860 C   0  0  2  0  0  3  0  0  0  0  0  0
  196.8490  176.8000  143.6100 O   0  0  0  0  0  1  0  0  0  0  0  0
  196.1940  175.7840  141.5420 C   0  0  2  0  0  3  0  0  0  0  0  0
  196.6820  174.5800  139.4770 O   0  0  0  0  0  0  0  0  0  0  0  0
  194.4500  175.1750  140.2200 C   0  0  0  0  0  2  0  0  0  0  0  0
  195.4190  175.0220  139.0340 C   0  0  0  0  0  2  0  0  0  0  0  0
  195.0990  174.9000  141.4410 O   0  0  0  0  0  0  0  0  0  0  0  0
  197.1800  175.5440  140.3790 C   0  0  0  0  0  2  0  0  0  0  0  0
  1 27  1  0  0  0  0
  2  8  1  0  0  0  0
  2  7  2  0  0  0  0
  3  5  2  0  0  0  0
  4 13  1  0  0  0  0
  5  1  1  0  0  0  0
  6 10  1  0  0  0  0
  6  9  1  0  0  0  0
  9 11  1  0  0  0  0
 10  2  1  0  0  0  0
 11  7  1  0  0  0  0
 13  9  2  0  0  0  0
 13 12  1  0  0  0  0
 14 17  1  0  0  0  0
 14  4  2  0  0  0  0
 15 18  1  1  0  0  0
 15  4  1  0  0  0  0
 15 16  1  0  0  0  0
 16  5  1  0  0  0  0
 16 12  1  0  0  0  0
 17  6  2  0  0  0  0
 19 18  1  0  0  0  0
 20 23  1  0  0  0  0
 21 26  1  0  0  0  0
 22 25  1  6  0  0  0
 22 20  1  0  0  0  0
 22 21  1  0  0  0  0
 23 24  1  0  0  0  0
 24 19  1  1  0  0  0
 26 24  1  0  0  0  0
 28 27  1  6  0  0  0
 29 28  1  0  0  0  0
 29 30  1  0  0  0  0
 31 35  1  6  0  0  0
 31 28  1  0  0  0  0
 31 32  1  0  0  0  0
 34 33  1  0  0  0  0
 34 32  1  0  0  0  0
 36 37  1  1  0  0  0
 36 35  1  0  0  0  0
 38 36  1  1  0  0  0
 39 43  1  0  0  0  0
 40 42  1  0  0  0  0
 41 39  1  0  0  0  0
 41 40  1  0  0  0  0
 42 38  1  0  0  0  0
 43 38  1  0  0  0  0
M  END
>  <MODEL>
1

>  <REMARK>
 VINA RESULT:      -7.6      0.000      0.000
  Name = 
  12 active torsions:
  status: ('A' for Active; 'I' for Inactive)
    1  A    between atoms: C_1  and  C_28
    2  A    between atoms: C_1  and  C_34
    3  A    between atoms: N_2  and  C_6
    4  A    between atoms: C_3  and  C_4
    5  A    between atoms: C_3  and  C_6
    6  A    between atoms: C_3  and  O_12
    7  A    between atoms: C_4  and  C_15
    8  A    between atoms: C_4  and  C_22
    9  A    between atoms: C_11  and  C_14
   10  A    between atoms: C_14  and  C_22
   11  A    between atoms: C_15  and  C_42
   12  A    between atoms: C_28  and  C_35
                            x       y       z     vdW  Elec       q    Type
                         _______ _______ _______ _____ _____    ______ ____

>  <TORSDO>
F 12

$$$$
=
 OpenBabel11052421063D

 43 47  0  0  1  0  0  0  0  0999 V2000
  191.1440  172.3150  144.1340 N   0  0  0  0  0  2  0  0  0  0  0  0
  185.9120  177.8860  146.3370 C   0  0  0  0  0  0  0  0  0  0  0  0
  191.5490  172.9120  141.9170 O   0  0  0  0  0  0  0  0  0  0  0  0
  188.5060  175.8770  142.4960 C   0  0  0  0  0  0  0  0  0  0  0  0
  190.8830  173.1000  142.9710 C   0  0  0  0  0  0  0  0  0  0  0  0
  187.0810  177.5940  144.1570 C   0  0  0  0  0  0  0  0  0  0  0  0
  186.6080  176.8660  146.8640 C   0  0  0  0  0  3  0  0  0  0  0  0
  184.7060  178.3910  147.0490 C   0  0  0  0  0  1  0  0  0  0  0  0
  187.8080  176.5210  144.7200 C   0  0  0  0  0  0  0  0  0  0  0  0
  186.3400  178.5480  145.0510 C   0  0  0  0  0  2  0  0  0  0  0  0
  187.8610  176.3430  146.2100 C   0  0  0  0  0  2  0  0  0  0  0  0
  189.3320  174.5880  144.2100 N   0  0  0  0  0  2  0  0  0  0  0  0
  188.5140  175.6830  143.8570 C   0  0  0  0  0  0  0  0  0  0  0  0
  187.8000  176.9320  141.9170 C   0  0  0  0  0  3  0  0  0  0  0  0
  189.3460  174.8320  141.8390 C   0  0  1  0  0  3  0  0  0  0  0  0
  189.8520  174.0920  143.0050 N   0  0  0  0  0  0  0  0  0  0  0  0
  187.0850  177.7980  142.7630 C   0  0  0  0  0  3  0  0  0  0  0  0
  188.4440  173.9330  141.0030 C   0  0  0  0  0  2  0  0  0  0  0  0
  188.5820  174.2570  139.5260 C   0  0  0  0  0  2  0  0  0  0  0  0
  190.3150  170.9930  138.9560 O   0  0  0  0  0  0  0  0  0  0  0  0
  189.7750  171.8620  136.7800 C   0  0  0  0  0  2  0  0  0  0  0  0
  189.7180  170.6620  137.7250 C   0  0  1  0  0  3  0  0  0  0  0  0
  189.4590  171.9110  139.5900 C   0  0  0  0  0  2  0  0  0  0  0  0
  189.4930  173.2500  138.8480 C   0  0  1  0  0  3  0  0  0  0  0  0
  190.4550  169.4950  137.1030 C   0  0  0  0  0  1  0  0  0  0  0  0
  189.0220  173.0300  137.4130 C   0  0  0  0  0  2  0  0  0  0  0  0
  192.1360  171.2530  144.1380 C   0  0  0  0  0  2  0  0  0  0  0  0
  193.5500  171.8460  144.0730 C   0  0  2  0  0  3  0  0  0  0  0  0
  194.4270  171.1150  143.2430 O   0  0  0  0  0  0  0  0  0  0  0  0
  193.7140  170.0750  142.6270 C   0  0  0  0  0  1  0  0  0  0  0  0
  194.1840  172.2540  145.4210 C   0  0  1  0  0  3  0  0  0  0  0  0
  195.3440  171.3260  145.7740 C   0  0  0  0  0  2  0  0  0  0  0  0
  197.6290  171.6600  144.8330 C   0  0  0  0  0  1  0  0  0  0  0  0
  196.6470  172.0990  145.9030 C   0  0  0  0  0  2  0  0  0  0  0  0
  194.6510  173.7080  145.4230 C   0  0  0  0  0  2  0  0  0  0  0  0
  194.4410  174.3580  144.0630 C   0  0  2  0  0  3  0  0  0  0  0  0
  195.6820  174.5590  143.4560 O   0  0  0  0  0  1  0  0  0  0  0  0
  193.7200  175.6920  144.2320 C   0  0  2  0  0  3  0  0  0  0  0  0
  192.0690  176.6560  142.7160 O   0  0  0  0  0  0  0  0  0  0  0  0
  191.9450  176.7850  145.1360 C   0  0  0  0  0  2  0  0  0  0  0  0
  191.7140  177.4960  143.7900 C   0  0  0  0  0  2  0  0  0  0  0  0
  192.5140  175.5090  144.9420 O   0  0  0  0  0  0  0  0  0  0  0  0
  193.4350  176.3340  142.8570 C   0  0  0  0  0  2  0  0  0  0  0  0
  1 27  1  0  0  0  0
  2  7  2  0  0  0  0
  2  8  1  0  0  0  0
  3  5  2  0  0  0  0
  4 13  1  0  0  0  0
  5 16  1  0  0  0  0
  5  1  1  0  0  0  0
  6  9  1  0  0  0  0
  6 10  1  0  0  0  0
  9 11  1  0  0  0  0
 10  2  1  0  0  0  0
 11  7  1  0  0  0  0
 13 12  1  0  0  0  0
 13  9  2  0  0  0  0
 14  4  2  0  0  0  0
 14 17  1  0  0  0  0
 15 18  1  6  0  0  0
 15  4  1  0  0  0  0
 15 16  1  0  0  0  0
 16 12  1  0  0  0  0
 17  6  2  0  0  0  0
 19 18  1  0  0  0  0
 20 23  1  0  0  0  0
 21 26  1  0  0  0  0
 21 22  1  0  0  0  0
 22 25  1  6  0  0  0
 22 20  1  0  0  0  0
 24 19  1  1  0  0  0
 24 23  1  0  0  0  0
 26 24  1  0  0  0  0
 28 27  1  1  0  0  0
 28 31  1  0  0  0  0
 29 28  1  0  0  0  0
 30 29  1  0  0  0  0
 31 35  1  6  0  0  0
 31 32  1  0  0  0  0
 32 34  1  0  0  0  0
 33 34  1  0  0  0  0
 36 37  1  1  0  0  0
 36 35  1  0  0  0  0
 38 36  1  6  0  0  0
 38 42  1  0  0  0  0
 39 43  1  0  0  0  0
 39 41  1  0  0  0  0
 41 40  1  0  0  0  0
 42 40  1  0  0  0  0
 43 38  1  0  0  0  0
M  END
>  <MODEL>
2

>  <REMARK>
 VINA RESULT:      -7.4      2.017      3.157
  Name = 
  12 active torsions:
  status: ('A' for Active; 'I' for Inactive)
    1  A    between atoms: C_1  and  C_28
    2  A    between atoms: C_1  and  C_34
    3  A    between atoms: N_2  and  C_6
    4  A    between atoms: C_3  and  C_4
    5  A    between atoms: C_3  and  C_6
    6  A    between atoms: C_3  and  O_12
    7  A    between atoms: C_4  and  C_15
    8  A    between atoms: C_4  and  C_22
    9  A    between atoms: C_11  and  C_14
   10  A    between atoms: C_14  and  C_22
   11  A    between atoms: C_15  and  C_42
   12  A    between atoms: C_28  and  C_35
                            x       y       z     vdW  Elec       q    Type
                         _______ _______ _______ _____ _____    ______ ____

>  <TORSDO>
F 12

$$$$
=
 OpenBabel11052421063D

 43 47  0  0  1  0  0  0  0  0999 V2000
  191.6690  174.3670  141.5720 N   0  0  0  0  0  2  0  0  0  0  0  0
  185.1290  177.8900  144.4150 C   0  0  0  0  0  0  0  0  0  0  0  0
  192.6480  173.5620  143.5290 O   0  0  0  0  0  0  0  0  0  0  0  0
  189.4890  175.6160  145.5740 C   0  0  0  0  0  0  0  0  0  0  0  0
  191.7390  174.2520  142.9930 C   0  0  0  0  0  0  0  0  0  0  0  0
  186.9000  176.6320  145.6340 C   0  0  0  0  0  0  0  0  0  0  0  0
  185.7070  177.5950  143.2400 C   0  0  0  0  0  3  0  0  0  0  0  0
  184.0940  178.9590  144.4710 C   0  0  0  0  0  1  0  0  0  0  0  0
  187.5020  176.3280  144.3930 C   0  0  0  0  0  0  0  0  0  0  0  0
  185.4890  177.1450  145.6770 C   0  0  0  0  0  2  0  0  0  0  0  0
  186.7290  176.4930  143.1160 C   0  0  0  0  0  2  0  0  0  0  0  0
  189.5650  175.4080  143.2860 N   0  0  0  0  0  2  0  0  0  0  0  0
  188.8000  175.8160  144.4010 C   0  0  0  0  0  0  0  0  0  0  0  0
  188.9140  175.9050  146.8130 C   0  0  0  0  0  3  0  0  0  0  0  0
  190.8420  175.0630  145.2690 C   0  0  1  0  0  3  0  0  0  0  0  0
  190.7780  174.9330  143.8050 N   0  0  0  0  0  0  0  0  0  0  0  0
  187.6040  176.4150  146.8350 C   0  0  0  0  0  3  0  0  0  0  0  0
  191.8920  176.0970  145.6550 C   0  0  0  0  0  2  0  0  0  0  0  0
  192.9220  175.4920  146.5940 C   0  0  0  0  0  2  0  0  0  0  0  0
  196.3690  174.6900  145.3880 O   0  0  0  0  0  0  0  0  0  0  0  0
  195.6200  176.5730  144.0940 C   0  0  0  0  0  2  0  0  0  0  0  0
  196.2390  175.1760  144.0740 C   0  0  1  0  0  3  0  0  0  0  0  0
  195.0690  174.4320  145.8580 C   0  0  0  0  0  2  0  0  0  0  0  0
  194.3240  175.7520  146.0770 C   0  0  1  0  0  3  0  0  0  0  0  0
  197.6040  175.2390  143.4210 C   0  0  0  0  0  1  0  0  0  0  0  0
  194.2420  176.4980  144.7470 C   0  0  0  0  0  2  0  0  0  0  0  0
  192.6530  173.7470  140.7010 C   0  0  0  0  0  2  0  0  0  0  0  0
  191.9560  173.0360  139.5320 C   0  0  2  0  0  3  0  0  0  0  0  0
  191.7310  173.8750  138.4190 O   0  0  0  0  0  0  0  0  0  0  0  0
  192.9630  174.3680  137.9620 C   0  0  0  0  0  1  0  0  0  0  0  0
  190.7360  172.1610  139.8940 C   0  0  1  0  0  3  0  0  0  0  0  0
  189.6720  172.2440  138.8030 C   0  0  0  0  0  2  0  0  0  0  0  0
  188.4770  174.0590  140.0240 C   0  0  0  0  0  1  0  0  0  0  0  0
  188.3370  172.6980  139.3690 C   0  0  0  0  0  2  0  0  0  0  0  0
  191.1240  170.7050  140.1440 C   0  0  0  0  0  2  0  0  0  0  0  0
  190.7060  170.2520  141.5350 C   0  0  2  0  0  3  0  0  0  0  0  0
  190.0900  171.3170  142.1970 O   0  0  0  0  0  1  0  0  0  0  0  0
  191.9290  169.7870  142.3190 C   0  0  2  0  0  3  0  0  0  0  0  0
  194.1520  170.7940  142.2790 O   0  0  0  0  0  0  0  0  0  0  0  0
  193.0860  169.9070  144.2710 C   0  0  0  0  0  2  0  0  0  0  0  0
  194.3900  170.0820  143.4720 C   0  0  0  0  0  2  0  0  0  0  0  0
  191.9870  170.4420  143.5670 O   0  0  0  0  0  0  0  0  0  0  0  0
  193.2220  170.0540  141.5180 C   0  0  0  0  0  2  0  0  0  0  0  0
  1  5  1  0  0  0  0
  2  8  1  0  0  0  0
  2 10  1  0  0  0  0
  4 14  1  0  0  0  0
  5  3  2  0  0  0  0
  5 16  1  0  0  0  0
  6 10  1  0  0  0  0
  6 17  1  0  0  0  0
  7  2  2  0  0  0  0
  9 13  1  0  0  0  0
  9  6  2  0  0  0  0
 11  7  1  0  0  0  0
 11  9  1  0  0  0  0
 12 16  1  0  0  0  0
 12 13  1  0  0  0  0
 13  4  2  0  0  0  0
 14 17  2  0  0  0  0
 15  4  1  0  0  0  0
 15 18  1  6  0  0  0
 16 15  1  0  0  0  0
 18 19  1  0  0  0  0
 20 23  1  0  0  0  0
 21 26  1  0  0  0  0
 22 25  1  1  0  0  0
 22 21  1  0  0  0  0
 22 20  1  0  0  0  0
 23 24  1  0  0  0  0
 24 19  1  6  0  0  0
 26 24  1  0  0  0  0
 27  1  1  0  0  0  0
 28 31  1  0  0  0  0
 28 27  1  1  0  0  0
 29 28  1  0  0  0  0
 30 29  1  0  0  0  0
 31 32  1  6  0  0  0
 31 35  1  0  0  0  0
 32 34  1  0  0  0  0
 34 33  1  0  0  0  0
 35 36  1  0  0  0  0
 36 37  1  1  0  0  0
 38 36  1  6  0  0  0
 38 42  1  0  0  0  0
 39 41  1  0  0  0  0
 41 40  1  0  0  0  0
 42 40  1  0  0  0  0
 43 39  1  0  0  0  0
 43 38  1  0  0  0  0
M  END
>  <MODEL>
3

>  <REMARK>
 VINA RESULT:      -7.3      2.055      6.577
  Name = 
  12 active torsions:
  status: ('A' for Active; 'I' for Inactive)
    1  A    between atoms: C_1  and  C_28
    2  A    between atoms: C_1  and  C_34
    3  A    between atoms: N_2  and  C_6
    4  A    between atoms: C_3  and  C_4
    5  A    between atoms: C_3  and  C_6
    6  A    between atoms: C_3  and  O_12
    7  A    between atoms: C_4  and  C_15
    8  A    between atoms: C_4  and  C_22
    9  A    between atoms: C_11  and  C_14
   10  A    between atoms: C_14  and  C_22
   11  A    between atoms: C_15  and  C_42
   12  A    between atoms: C_28  and  C_35
                            x       y       z     vdW  Elec       q    Type
                         _______ _______ _______ _____ _____    ______ ____

>  <TORSDO>
F 12

$$$$
=
 OpenBabel11052421063D

 43 47  0  0  1  0  0  0  0  0999 V2000
  193.4360  175.2040  142.9920 N   0  0  0  0  0  2  0  0  0  0  0  0
  186.6660  177.5150  146.4690 C   0  0  0  0  0  0  0  0  0  0  0  0
  192.6660  174.4870  140.9110 O   0  0  0  0  0  0  0  0  0  0  0  0
  188.7410  175.2430  142.4620 C   0  0  0  0  0  0  0  0  0  0  0  0
  192.3900  174.8990  142.0700 C   0  0  0  0  0  0  0  0  0  0  0  0
  187.0350  176.6230  144.1730 C   0  0  0  0  0  0  0  0  0  0  0  0
  187.9880  177.5090  146.7000 C   0  0  0  0  0  3  0  0  0  0  0  0
  185.7260  177.6650  147.6130 C   0  0  0  0  0  1  0  0  0  0  0  0
  188.4250  176.6190  144.4260 C   0  0  0  0  0  0  0  0  0  0  0  0
  186.1130  177.3970  145.0700 C   0  0  0  0  0  2  0  0  0  0  0  0
  188.9880  177.4030  145.5760 C   0  0  0  0  0  2  0  0  0  0  0  0
  190.6590  175.8220  143.5880 N   0  0  0  0  0  2  0  0  0  0  0  0
  189.2510  175.9190  143.5440 C   0  0  0  0  0  0  0  0  0  0  0  0
  187.3720  175.2360  142.1880 C   0  0  0  0  0  3  0  0  0  0  0  0
  189.8560  174.5960  141.7080 C   0  0  1  0  0  3  0  0  0  0  0  0
  191.0260  175.0520  142.4740 N   0  0  0  0  0  0  0  0  0  0  0  0
  186.5170  175.9380  143.0560 C   0  0  0  0  0  3  0  0  0  0  0  0
  189.7130  173.0840  141.8240 C   0  0  0  0  0  2  0  0  0  0  0  0
  189.6800  172.4400  140.4490 C   0  0  0  0  0  2  0  0  0  0  0  0
  190.5980  174.2140  137.2880 O   0  0  0  0  0  0  0  0  0  0  0  0
  188.2110  174.4090  137.5060 C   0  0  0  0  0  2  0  0  0  0  0  0
  189.3840  174.0360  136.6000 C   0  0  1  0  0  3  0  0  0  0  0  0
  190.6570  173.2150  138.2770 C   0  0  0  0  0  2  0  0  0  0  0  0
  189.6230  173.5040  139.3690 C   0  0  1  0  0  3  0  0  0  0  0  0
  189.3680  174.9160  135.3670 C   0  0  0  0  0  1  0  0  0  0  0  0
  188.2320  173.5120  138.7410 C   0  0  0  0  0  2  0  0  0  0  0  0
  194.8370  175.0090  142.6560 C   0  0  0  0  0  2  0  0  0  0  0  0
  195.7310  175.7740  143.6420 C   0  0  2  0  0  3  0  0  0  0  0  0
  196.7510  176.5180  143.0130 O   0  0  0  0  0  0  0  0  0  0  0  0
  196.3730  176.7820  141.6870 C   0  0  0  0  0  1  0  0  0  0  0  0
  196.2230  174.9830  144.8750 C   0  0  1  0  0  3  0  0  0  0  0  0
  195.1830  175.0250  145.9920 C   0  0  0  0  0  2  0  0  0  0  0  0
  193.1460  176.3540  146.5410 C   0  0  0  0  0  1  0  0  0  0  0  0
  194.6120  176.4240  146.1600 C   0  0  0  0  0  2  0  0  0  0  0  0
  196.5700  173.5360  144.5310 C   0  0  0  0  0  2  0  0  0  0  0  0
  195.8990  172.5630  145.4900 C   0  0  2  0  0  3  0  0  0  0  0  0
  196.8810  171.9060  146.2350 O   0  0  0  0  0  1  0  0  0  0  0  0
  195.0730  171.5490  144.7070 C   0  0  2  0  0  3  0  0  0  0  0  0
  192.8710  171.9180  143.7190 O   0  0  0  0  0  0  0  0  0  0  0  0
  194.6390  170.6210  142.6780 C   0  0  0  0  0  2  0  0  0  0  0  0
  193.1310  170.7660  142.9490 C   0  0  0  0  0  2  0  0  0  0  0  0
  195.3690  171.6360  143.3300 O   0  0  0  0  0  0  0  0  0  0  0  0
  193.5640  171.7790  144.9410 C   0  0  0  0  0  2  0  0  0  0  0  0
  2  7  2  0  0  0  0
  2  8  1  0  0  0  0
  3  5  2  0  0  0  0
  4 13  1  0  0  0  0
  5 16  1  0  0  0  0
  5  1  1  0  0  0  0
  6  9  1  0  0  0  0
  6 10  1  0  0  0  0
  9 11  1  0  0  0  0
 10  2  1  0  0  0  0
 11  7  1  0  0  0  0
 13 12  1  0  0  0  0
 13  9  2  0  0  0  0
 14  4  2  0  0  0  0
 14 17  1  0  0  0  0
 15 18  1  1  0  0  0
 15  4  1  0  0  0  0
 15 16  1  0  0  0  0
 16 12  1  0  0  0  0
 17  6  2  0  0  0  0
 19 18  1  0  0  0  0
 20 23  1  0  0  0  0
 21 26  1  0  0  0  0
 22 25  1  6  0  0  0
 22 20  1  0  0  0  0
 22 21  1  0  0  0  0
 23 24  1  0  0  0  0
 24 19  1  1  0  0  0
 26 24  1  0  0  0  0
 27  1  1  0  0  0  0
 28 27  1  6  0  0  0
 28 31  1  0  0  0  0
 29 28  1  0  0  0  0
 30 29  1  0  0  0  0
 31 35  1  6  0  0  0
 31 32  1  0  0  0  0
 32 34  1  0  0  0  0
 34 33  1  0  0  0  0
 35 36  1  0  0  0  0
 36 37  1  6  0  0  0
 38 43  1  0  0  0  0
 38 36  1  1  0  0  0
 39 43  1  0  0  0  0
 40 41  1  0  0  0  0
 40 42  1  0  0  0  0
 41 39  1  0  0  0  0
 42 38  1  0  0  0  0
M  END
>  <MODEL>
4

>  <REMARK>
 VINA RESULT:      -7.3      1.737      3.109
  Name = 
  12 active torsions:
  status: ('A' for Active; 'I' for Inactive)
    1  A    between atoms: C_1  and  C_28
    2  A    between atoms: C_1  and  C_34
    3  A    between atoms: N_2  and  C_6
    4  A    between atoms: C_3  and  C_4
    5  A    between atoms: C_3  and  C_6
    6  A    between atoms: C_3  and  O_12
    7  A    between atoms: C_4  and  C_15
    8  A    between atoms: C_4  and  C_22
    9  A    between atoms: C_11  and  C_14
   10  A    between atoms: C_14  and  C_22
   11  A    between atoms: C_15  and  C_42
   12  A    between atoms: C_28  and  C_35
                            x       y       z     vdW  Elec       q    Type
                         _______ _______ _______ _____ _____    ______ ____

>  <TORSDO>
F 12

$$$$
=
 OpenBabel11052421063D

 43 47  0  0  1  0  0  0  0  0999 V2000
  191.8610  174.1270  143.8910 N   0  0  0  0  0  2  0  0  0  0  0  0
  185.6680  178.4000  146.4670 C   0  0  0  0  0  0  0  0  0  0  0  0
  191.9040  174.6910  141.6290 O   0  0  0  0  0  0  0  0  0  0  0  0
  188.3030  176.8750  142.4360 C   0  0  0  0  0  0  0  0  0  0  0  0
  191.3120  174.7680  142.7400 C   0  0  0  0  0  0  0  0  0  0  0  0
  186.6660  178.2850  144.1880 C   0  0  0  0  0  0  0  0  0  0  0  0
  186.6340  177.6020  146.9470 C   0  0  0  0  0  3  0  0  0  0  0  0
  184.4460  178.6390  147.2840 C   0  0  0  0  0  1  0  0  0  0  0  0
  187.6790  177.4450  144.7020 C   0  0  0  0  0  0  0  0  0  0  0  0
  185.8030  179.0790  145.1270 C   0  0  0  0  0  2  0  0  0  0  0  0
  187.9110  177.3590  146.1830 C   0  0  0  0  0  2  0  0  0  0  0  0
  189.5710  175.9050  144.0900 N   0  0  0  0  0  2  0  0  0  0  0  0
  188.4830  176.7560  143.7940 C   0  0  0  0  0  0  0  0  0  0  0  0
  187.3130  177.7020  141.9040 C   0  0  0  0  0  3  0  0  0  0  0  0
  189.3060  176.0270  141.7250 C   0  0  1  0  0  3  0  0  0  0  0  0
  190.0810  175.4880  142.8520 N   0  0  0  0  0  0  0  0  0  0  0  0
  186.4920  178.4140  142.7960 C   0  0  0  0  0  3  0  0  0  0  0  0
  188.5740  174.9000  141.0080 C   0  0  0  0  0  2  0  0  0  0  0  0
  188.2240  173.7850  141.9780 C   0  0  0  0  0  2  0  0  0  0  0  0
  190.0850  171.4300  139.7490 O   0  0  0  0  0  0  0  0  0  0  0  0
  190.4220  170.6440  141.9960 C   0  0  0  0  0  2  0  0  0  0  0  0
  191.0720  171.0250  140.6660 C   0  0  1  0  0  3  0  0  0  0  0  0
  189.5900  172.6660  140.2020 C   0  0  0  0  0  2  0  0  0  0  0  0
  188.7740  172.4610  141.4810 C   0  0  1  0  0  3  0  0  0  0  0  0
  191.8190  169.8300  140.1110 C   0  0  0  0  0  1  0  0  0  0  0  0
  189.6790  171.8570  142.5520 C   0  0  0  0  0  2  0  0  0  0  0  0
  193.0760  173.3310  143.8220 C   0  0  0  0  0  2  0  0  0  0  0  0
  194.1990  174.0070  144.6210 C   0  0  2  0  0  3  0  0  0  0  0  0
  194.5750  173.2890  145.7770 O   0  0  0  0  0  0  0  0  0  0  0  0
  194.2920  171.9290  145.5820 C   0  0  0  0  0  1  0  0  0  0  0  0
  194.0470  175.5240  144.8660 C   0  0  1  0  0  3  0  0  0  0  0  0
  194.2100  175.8490  146.3490 C   0  0  0  0  0  2  0  0  0  0  0  0
  191.8920  175.4270  147.1620 C   0  0  0  0  0  1  0  0  0  0  0  0
  192.9510  176.4840  146.9150 C   0  0  0  0  0  2  0  0  0  0  0  0
  195.0310  176.3440  144.0340 C   0  0  0  0  0  2  0  0  0  0  0  0
  196.0220  175.4480  143.3060 C   0  0  2  0  0  3  0  0  0  0  0  0
  197.2990  175.6580  143.8300 O   0  0  0  0  0  1  0  0  0  0  0  0
  196.0110  175.7670  141.8150 C   0  0  2  0  0  3  0  0  0  0  0  0
  197.4690  174.8050  140.1100 O   0  0  0  0  0  0  0  0  0  0  0  0
  195.1140  175.2900  139.7830 C   0  0  0  0  0  2  0  0  0  0  0  0
  196.5280  175.2800  139.1750 C   0  0  0  0  0  2  0  0  0  0  0  0
  195.1420  174.8880  141.1340 O   0  0  0  0  0  0  0  0  0  0  0  0
  197.4350  175.6680  141.2270 C   0  0  0  0  0  2  0  0  0  0  0  0
  2  7  2  0  0  0  0
  2  8  1  0  0  0  0
  3  5  2  0  0  0  0
  4 13  1  0  0  0  0
  5 16  1  0  0  0  0
  5  1  1  0  0  0  0
  6  9  1  0  0  0  0
  6 10  1  0  0  0  0
  9 11  1  0  0  0  0
 10  2  1  0  0  0  0
 11  7  1  0  0  0  0
 13 12  1  0  0  0  0
 13  9  2  0  0  0  0
 14  4  2  0  0  0  0
 14 17  1  0  0  0  0
 15 18  1  1  0  0  0
 15  4  1  0  0  0  0
 15 16  1  0  0  0  0
 16 12  1  0  0  0  0
 17  6  2  0  0  0  0
 18 19  1  0  0  0  0
 20 23  1  0  0  0  0
 20 22  1  0  0  0  0
 21 26  1  0  0  0  0
 22 25  1  6  0  0  0
 22 21  1  0  0  0  0
 23 24  1  0  0  0  0
 24 19  1  1  0  0  0
 24 26  1  0  0  0  0
 27  1  1  0  0  0  0
 28 27  1  1  0  0  0
 28 31  1  0  0  0  0
 28 29  1  0  0  0  0
 30 29  1  0  0  0  0
 31 35  1  6  0  0  0
 31 32  1  0  0  0  0
 32 34  1  0  0  0  0
 34 33  1  0  0  0  0
 36 37  1  1  0  0  0
 36 35  1  0  0  0  0
 38 36  1  1  0  0  0
 39 43  1  0  0  0  0
 40 42  1  0  0  0  0
 41 40  1  0  0  0  0
 41 39  1  0  0  0  0
 42 38  1  0  0  0  0
 43 38  1  0  0  0  0
M  END
>  <MODEL>
5

>  <REMARK>
 VINA RESULT:      -7.2      1.742      2.702
  Name = 
  12 active torsions:
  status: ('A' for Active; 'I' for Inactive)
    1  A    between atoms: C_1  and  C_28
    2  A    between atoms: C_1  and  C_34
    3  A    between atoms: N_2  and  C_6
    4  A    between atoms: C_3  and  C_4
    5  A    between atoms: C_3  and  C_6
    6  A    between atoms: C_3  and  O_12
    7  A    between atoms: C_4  and  C_15
    8  A    between atoms: C_4  and  C_22
    9  A    between atoms: C_11  and  C_14
   10  A    between atoms: C_14  and  C_22
   11  A    between atoms: C_15  and  C_42
   12  A    between atoms: C_28  and  C_35
                            x       y       z     vdW  Elec       q    Type
                         _______ _______ _______ _____ _____    ______ ____

>  <TORSDO>
F 12

$$$$
=
 OpenBabel11052421063D

 43 47  0  0  1  0  0  0  0  0999 V2000
  190.5970  173.7250  141.4920 N   0  0  0  0  0  2  0  0  0  0  0  0
  184.8170  178.2310  144.5810 C   0  0  0  0  0  0  0  0  0  0  0  0
  191.6830  172.9820  143.4160 O   0  0  0  0  0  0  0  0  0  0  0  0
  189.0000  175.5660  145.5400 C   0  0  0  0  0  0  0  0  0  0  0  0
  190.8030  173.7260  142.9040 C   0  0  0  0  0  0  0  0  0  0  0  0
  186.5580  176.8830  145.7450 C   0  0  0  0  0  0  0  0  0  0  0  0
  185.2320  177.7690  143.3920 C   0  0  0  0  0  3  0  0  0  0  0  0
  183.9160  179.4150  144.6300 C   0  0  0  0  0  1  0  0  0  0  0  0
  186.9890  176.4020  144.4880 C   0  0  0  0  0  0  0  0  0  0  0  0
  185.2240  177.5610  145.8710 C   0  0  0  0  0  2  0  0  0  0  0  0
  186.1090  176.5470  143.2810 C   0  0  0  0  0  2  0  0  0  0  0  0
  188.8110  175.1530  143.2870 N   0  0  0  0  0  2  0  0  0  0  0  0
  188.2170  175.7430  144.4240 C   0  0  0  0  0  0  0  0  0  0  0  0
  188.5940  176.0280  146.7930 C   0  0  0  0  0  3  0  0  0  0  0  0
  190.2450  174.8330  145.1640 C   0  0  1  0  0  3  0  0  0  0  0  0
  190.0140  174.5840  143.7320 N   0  0  0  0  0  0  0  0  0  0  0  0
  187.3570  176.6890  146.8890 C   0  0  0  0  0  3  0  0  0  0  0  0
  191.4370  175.7640  145.3450 C   0  0  0  0  0  2  0  0  0  0  0  0
  192.3290  175.2810  146.4750 C   0  0  0  0  0  2  0  0  0  0  0  0
  195.6990  174.4560  145.0800 O   0  0  0  0  0  0  0  0  0  0  0  0
  195.3380  176.7930  144.6410 C   0  0  0  0  0  2  0  0  0  0  0  0
  195.7420  175.4340  144.0690 C   0  0  1  0  0  3  0  0  0  0  0  0
  194.3430  174.2550  145.3960 C   0  0  0  0  0  2  0  0  0  0  0  0
  193.7900  175.4860  146.1180 C   0  0  1  0  0  3  0  0  0  0  0  0
  197.1460  175.5200  143.5080 C   0  0  0  0  0  1  0  0  0  0  0  0
  193.9190  176.6970  145.1970 C   0  0  0  0  0  2  0  0  0  0  0  0
  191.4100  172.9190  140.5960 C   0  0  0  0  0  2  0  0  0  0  0  0
  190.5800  171.7640  140.0180 C   0  0  2  0  0  3  0  0  0  0  0  0
  191.2280  170.5130  140.0990 O   0  0  0  0  0  0  0  0  0  0  0  0
  191.0080  169.9660  141.3720 C   0  0  0  0  0  1  0  0  0  0  0  0
  189.9140  172.0200  138.6490 C   0  0  1  0  0  3  0  0  0  0  0  0
  189.7940  170.7200  137.8580 C   0  0  0  0  0  2  0  0  0  0  0  0
  191.0240  170.7270  135.6890 C   0  0  0  0  0  1  0  0  0  0  0  0
  189.6920  170.9900  136.3650 C   0  0  0  0  0  2  0  0  0  0  0  0
  188.5450  172.6820  138.7880 C   0  0  0  0  0  2  0  0  0  0  0  0
  188.6280  174.1820  138.5450 C   0  0  2  0  0  3  0  0  0  0  0  0
  187.8770  174.8450  139.5180 O   0  0  0  0  0  1  0  0  0  0  0  0
  188.0920  174.5130  137.1560 C   0  0  2  0  0  3  0  0  0  0  0  0
  187.4080  176.7120  136.3470 O   0  0  0  0  0  0  0  0  0  0  0  0
  188.6000  175.0710  135.0130 C   0  0  0  0  0  2  0  0  0  0  0  0
  187.5140  176.1620  135.0540 C   0  0  0  0  0  2  0  0  0  0  0  0
  189.1520  174.8610  136.2930 O   0  0  0  0  0  0  0  0  0  0  0  0
  187.0660  175.6650  137.2300 C   0  0  0  0  0  2  0  0  0  0  0  0
  1  5  1  0  0  0  0
  2  8  1  0  0  0  0
  2 10  1  0  0  0  0
  4 14  1  0  0  0  0
  5  3  2  0  0  0  0
  5 16  1  0  0  0  0
  6 10  1  0  0  0  0
  6 17  1  0  0  0  0
  7  2  2  0  0  0  0
  9  6  2  0  0  0  0
 11  7  1  0  0  0  0
 11  9  1  0  0  0  0
 12 16  1  0  0  0  0
 12 13  1  0  0  0  0
 13  9  1  0  0  0  0
 13  4  2  0  0  0  0
 14 17  2  0  0  0  0
 15 18  1  6  0  0  0
 15  4  1  0  0  0  0
 16 15  1  0  0  0  0
 18 19  1  0  0  0  0
 20 23  1  0  0  0  0
 21 26  1  0  0  0  0
 22 25  1  1  0  0  0
 22 21  1  0  0  0  0
 22 20  1  0  0  0  0
 23 24  1  0  0  0  0
 24 19  1  6  0  0  0
 26 24  1  0  0  0  0
 27  1  1  0  0  0  0
 28 29  1  0  0  0  0
 28 27  1  6  0  0  0
 29 30  1  0  0  0  0
 31 32  1  1  0  0  0
 31 35  1  0  0  0  0
 31 28  1  0  0  0  0
 33 34  1  0  0  0  0
 34 32  1  0  0  0  0
 36 35  1  0  0  0  0
 36 37  1  1  0  0  0
 38 43  1  0  0  0  0
 38 36  1  1  0  0  0
 39 43  1  0  0  0  0
 40 41  1  0  0  0  0
 40 42  1  0  0  0  0
 41 39  1  0  0  0  0
 42 38  1  0  0  0  0
M  END
>  <MODEL>
6

>  <REMARK>
 VINA RESULT:      -7.0      2.201      7.260
  Name = 
  12 active torsions:
  status: ('A' for Active; 'I' for Inactive)
    1  A    between atoms: C_1  and  C_28
    2  A    between atoms: C_1  and  C_34
    3  A    between atoms: N_2  and  C_6
    4  A    between atoms: C_3  and  C_4
    5  A    between atoms: C_3  and  C_6
    6  A    between atoms: C_3  and  O_12
    7  A    between atoms: C_4  and  C_15
    8  A    between atoms: C_4  and  C_22
    9  A    between atoms: C_11  and  C_14
   10  A    between atoms: C_14  and  C_22
   11  A    between atoms: C_15  and  C_42
   12  A    between atoms: C_28  and  C_35
                            x       y       z     vdW  Elec       q    Type
                         _______ _______ _______ _____ _____    ______ ____

>  <TORSDO>
F 12

$$$$
=
 OpenBabel11052421063D

 43 47  0  0  1  0  0  0  0  0999 V2000
  190.4040  174.1560  140.9340 N   0  0  0  0  0  2  0  0  0  0  0  0
  185.2070  178.0330  145.5400 C   0  0  0  0  0  0  0  0  0  0  0  0
  192.2060  173.8920  142.3900 O   0  0  0  0  0  0  0  0  0  0  0  0
  189.9240  176.2720  145.1320 C   0  0  0  0  0  0  0  0  0  0  0  0
  191.0710  174.3960  142.1730 C   0  0  0  0  0  0  0  0  0  0  0  0
  187.4790  177.1780  146.1000 C   0  0  0  0  0  0  0  0  0  0  0  0
  185.2820  177.4790  144.3210 C   0  0  0  0  0  3  0  0  0  0  0  0
  184.1510  179.0440  145.8190 C   0  0  0  0  0  1  0  0  0  0  0  0
  187.5490  176.5990  144.8130 C   0  0  0  0  0  0  0  0  0  0  0  0
  186.1550  177.6340  146.6450 C   0  0  0  0  0  2  0  0  0  0  0  0
  186.3030  176.4180  143.9950 C   0  0  0  0  0  2  0  0  0  0  0  0
  189.0750  175.5110  143.1360 N   0  0  0  0  0  2  0  0  0  0  0  0
  188.7920  176.1520  144.3620 C   0  0  0  0  0  0  0  0  0  0  0  0
  189.8790  176.8350  146.4080 C   0  0  0  0  0  3  0  0  0  0  0  0
  191.0920  175.7100  144.3900 C   0  0  1  0  0  3  0  0  0  0  0  0
  190.4480  175.2210  143.1610 N   0  0  0  0  0  0  0  0  0  0  0  0
  188.6390  177.2880  146.8910 C   0  0  0  0  0  3  0  0  0  0  0  0
  192.0540  176.8440  144.0590 C   0  0  0  0  0  2  0  0  0  0  0  0
  193.2280  176.8510  145.0220 C   0  0  0  0  0  2  0  0  0  0  0  0
  195.8100  174.6390  143.4650 O   0  0  0  0  0  0  0  0  0  0  0  0
  195.9330  174.2580  145.8360 C   0  0  0  0  0  2  0  0  0  0  0  0
  196.7010  174.5750  144.5530 C   0  0  1  0  0  3  0  0  0  0  0  0
  195.0340  175.7990  143.6410 C   0  0  0  0  0  2  0  0  0  0  0  0
  194.0810  175.6110  144.8250 C   0  0  1  0  0  3  0  0  0  0  0  0
  197.7300  173.4930  144.3010 C   0  0  0  0  0  1  0  0  0  0  0  0
  194.9040  175.3590  146.0850 C   0  0  0  0  0  2  0  0  0  0  0  0
  191.0160  173.3770  139.8700 C   0  0  0  0  0  2  0  0  0  0  0  0
  190.0060  172.3710  139.3000 C   0  0  2  0  0  3  0  0  0  0  0  0
  188.6660  172.8050  139.3980 O   0  0  0  0  0  0  0  0  0  0  0  0
  188.3290  173.5160  138.2360 C   0  0  0  0  0  1  0  0  0  0  0  0
  190.2020  170.8960  139.7130 C   0  0  1  0  0  3  0  0  0  0  0  0
  190.2310  169.9920  138.4820 C   0  0  0  0  0  2  0  0  0  0  0  0
  191.5800  170.0440  136.3860 C   0  0  0  0  0  1  0  0  0  0  0  0
  190.5560  170.7830  137.2250 C   0  0  0  0  0  2  0  0  0  0  0  0
  191.4650  170.6930  140.5470 C   0  0  0  0  0  2  0  0  0  0  0  0
  191.1290  170.2040  141.9490 C   0  0  2  0  0  3  0  0  0  0  0  0
  190.1850  171.0610  142.5180 O   0  0  0  0  0  1  0  0  0  0  0  0
  192.3910  170.1760  142.8040 C   0  0  2  0  0  3  0  0  0  0  0  0
  194.4040  171.5160  142.4730 O   0  0  0  0  0  0  0  0  0  0  0  0
  193.4530  170.9870  144.6420 C   0  0  0  0  0  2  0  0  0  0  0  0
  194.7290  171.1820  143.8030 C   0  0  0  0  0  2  0  0  0  0  0  0
  192.2980  171.1240  143.8440 O   0  0  0  0  0  0  0  0  0  0  0  0
  193.6400  170.4550  141.9400 C   0  0  0  0  0  2  0  0  0  0  0  0
  1  5  1  0  0  0  0
  2  8  1  0  0  0  0
  2 10  1  0  0  0  0
  4 14  1  0  0  0  0
  5  3  2  0  0  0  0
  5 16  1  0  0  0  0
  6 10  1  0  0  0  0
  6 17  1  0  0  0  0
  7  2  2  0  0  0  0
  9  6  2  0  0  0  0
 11  7  1  0  0  0  0
 11  9  1  0  0  0  0
 12 16  1  0  0  0  0
 12 13  1  0  0  0  0
 13  9  1  0  0  0  0
 13  4  2  0  0  0  0
 14 17  2  0  0  0  0
 15 18  1  6  0  0  0
 15  4  1  0  0  0  0
 16 15  1  0  0  0  0
 18 19  1  0  0  0  0
 20 23  1  0  0  0  0
 20 22  1  0  0  0  0
 21 26  1  0  0  0  0
 22 25  1  6  0  0  0
 22 21  1  0  0  0  0
 23 24  1  0  0  0  0
 24 19  1  1  0  0  0
 24 26  1  0  0  0  0
 27  1  1  0  0  0  0
 28 29  1  0  0  0  0
 28 31  1  0  0  0  0
 28 27  1  1  0  0  0
 30 29  1  0  0  0  0
 31 32  1  6  0  0  0
 31 35  1  0  0  0  0
 33 34  1  0  0  0  0
 34 32  1  0  0  0  0
 35 36  1  0  0  0  0
 36 37  1  1  0  0  0
 38 36  1  6  0  0  0
 38 42  1  0  0  0  0
 39 41  1  0  0  0  0
 41 40  1  0  0  0  0
 42 40  1  0  0  0  0
 43 39  1  0  0  0  0
 43 38  1  0  0  0  0
M  END
>  <MODEL>
7

>  <REMARK>
 VINA RESULT:      -7.0      2.115      6.709
  Name = 
  12 active torsions:
  status: ('A' for Active; 'I' for Inactive)
    1  A    between atoms: C_1  and  C_28
    2  A    between atoms: C_1  and  C_34
    3  A    between atoms: N_2  and  C_6
    4  A    between atoms: C_3  and  C_4
    5  A    between atoms: C_3  and  C_6
    6  A    between atoms: C_3  and  O_12
    7  A    between atoms: C_4  and  C_15
    8  A    between atoms: C_4  and  C_22
    9  A    between atoms: C_11  and  C_14
   10  A    between atoms: C_14  and  C_22
   11  A    between atoms: C_15  and  C_42
   12  A    between atoms: C_28  and  C_35
                            x       y       z     vdW  Elec       q    Type
                         _______ _______ _______ _____ _____    ______ ____

>  <TORSDO>
F 12

$$$$
=
 OpenBabel11052421063D

 43 47  0  0  1  0  0  0  0  0999 V2000
  190.6130  174.4480  144.9920 N   0  0  0  0  0  2  0  0  0  0  0  0
  191.0150  171.8110  137.4990 C   0  0  0  0  0  0  0  0  0  0  0  0
  188.6060  175.6320  144.9580 O   0  0  0  0  0  0  0  0  0  0  0  0
  188.5400  174.7730  140.7580 C   0  0  0  0  0  0  0  0  0  0  0  0
  189.4840  174.9980  144.3140 C   0  0  0  0  0  0  0  0  0  0  0  0
  189.2310  173.1520  138.6060 C   0  0  0  0  0  0  0  0  0  0  0  0
  191.6720  171.6970  138.6630 C   0  0  0  0  0  3  0  0  0  0  0  0
  191.7130  171.4690  136.2300 C   0  0  0  0  0  1  0  0  0  0  0  0
  189.9310  173.0280  139.8260 C   0  0  0  0  0  0  0  0  0  0  0  0
  189.5730  172.2540  137.4510 C   0  0  0  0  0  2  0  0  0  0  0  0
  191.0020  171.9870  139.9820 C   0  0  0  0  0  2  0  0  0  0  0  0
  190.0900  173.8650  142.1930 N   0  0  0  0  0  2  0  0  0  0  0  0
  189.5550  173.8540  140.8860 C   0  0  0  0  0  0  0  0  0  0  0  0
  187.8300  174.9110  139.5640 C   0  0  0  0  0  3  0  0  0  0  0  0
  188.3660  175.5050  142.0480 C   0  0  1  0  0  3  0  0  0  0  0  0
  189.3620  174.8350  142.8980 N   0  0  0  0  0  0  0  0  0  0  0  0
  188.1830  174.0850  138.4820 C   0  0  0  0  0  3  0  0  0  0  0  0
  188.7560  176.9630  141.8400 C   0  0  0  0  0  2  0  0  0  0  0  0
  187.5230  177.8230  141.6240 C   0  0  0  0  0  2  0  0  0  0  0  0
  186.1430  178.0490  145.0920 O   0  0  0  0  0  0  0  0  0  0  0  0
  184.2730  178.2980  143.6010 C   0  0  0  0  0  2  0  0  0  0  0  0
  185.0250  178.8550  144.8100 C   0  0  1  0  0  3  0  0  0  0  0  0
  187.0650  178.2510  144.0500 C   0  0  0  0  0  2  0  0  0  0  0  0
  186.5350  177.6220  142.7580 C   0  0  1  0  0  3  0  0  0  0  0  0
  184.1020  178.8780  146.0100 C   0  0  0  0  0  1  0  0  0  0  0  0
  185.2090  178.2870  142.3950 C   0  0  0  0  0  2  0  0  0  0  0  0
  190.8210  174.6350  146.4180 C   0  0  0  0  0  2  0  0  0  0  0  0
  192.1330  175.3910  146.6700 C   0  0  2  0  0  3  0  0  0  0  0  0
  191.9680  176.5580  147.4470 O   0  0  0  0  0  0  0  0  0  0  0  0
  190.6070  176.7160  147.7510 C   0  0  0  0  0  1  0  0  0  0  0  0
  193.0490  175.5980  145.4440 C   0  0  1  0  0  3  0  0  0  0  0  0
  193.0370  177.0600  145.0030 C   0  0  0  0  0  2  0  0  0  0  0  0
  191.1570  178.2950  143.9260 C   0  0  0  0  0  1  0  0  0  0  0  0
  192.2320  177.2430  143.7260 C   0  0  0  0  0  2  0  0  0  0  0  0
  194.4810  175.1380  145.7090 C   0  0  0  0  0  2  0  0  0  0  0  0
  194.9320  174.1110  144.6810 C   0  0  2  0  0  3  0  0  0  0  0  0
  195.6570  173.1070  145.3250 O   0  0  0  0  0  1  0  0  0  0  0  0
  195.7990  174.7840  143.6220 C   0  0  2  0  0  3  0  0  0  0  0  0
  195.0410  176.3060  141.8710 O   0  0  0  0  0  0  0  0  0  0  0  0
  197.1170  176.5600  143.1020 C   0  0  0  0  0  2  0  0  0  0  0  0
  196.3930  176.6850  141.7490 C   0  0  0  0  0  2  0  0  0  0  0  0
  196.2580  176.0340  144.0890 O   0  0  0  0  0  0  0  0  0  0  0  0
  195.0110  174.9640  142.3070 C   0  0  0  0  0  2  0  0  0  0  0  0
  1 27  1  0  0  0  0
  2  7  2  0  0  0  0
  4 13  1  0  0  0  0
  4 15  1  0  0  0  0
  5  3  2  0  0  0  0
  5  1  1  0  0  0  0
  6  9  1  0  0  0  0
  7 11  1  0  0  0  0
  8  2  1  0  0  0  0
  9 11  1  0  0  0  0
  9 13  2  0  0  0  0
 10  2  1  0  0  0  0
 10  6  1  0  0  0  0
 12 16  1  0  0  0  0
 13 12  1  0  0  0  0
 14  4  2  0  0  0  0
 15 18  1  6  0  0  0
 15 16  1  0  0  0  0
 16  5  1  0  0  0  0
 17  6  2  0  0  0  0
 17 14  1  0  0  0  0
 19 18  1  0  0  0  0
 21 22  1  0  0  0  0
 22 20  1  0  0  0  0
 22 25  1  1  0  0  0
 23 20  1  0  0  0  0
 24 19  1  6  0  0  0
 24 23  1  0  0  0  0
 26 24  1  0  0  0  0
 26 21  1  0  0  0  0
 28 27  1  6  0  0  0
 28 29  1  0  0  0  0
 29 30  1  0  0  0  0
 31 32  1  1  0  0  0
 31 35  1  0  0  0  0
 31 28  1  0  0  0  0
 34 33  1  0  0  0  0
 34 32  1  0  0  0  0
 36 37  1  1  0  0  0
 36 35  1  0  0  0  0
 38 42  1  0  0  0  0
 38 36  1  1  0  0  0
 39 43  1  0  0  0  0
 40 42  1  0  0  0  0
 41 39  1  0  0  0  0
 41 40  1  0  0  0  0
 43 38  1  0  0  0  0
M  END
>  <MODEL>
8

>  <REMARK>
 VINA RESULT:      -7.0      2.334      6.420
  Name = 
  12 active torsions:
  status: ('A' for Active; 'I' for Inactive)
    1  A    between atoms: C_1  and  C_28
    2  A    between atoms: C_1  and  C_34
    3  A    between atoms: N_2  and  C_6
    4  A    between atoms: C_3  and  C_4
    5  A    between atoms: C_3  and  C_6
    6  A    between atoms: C_3  and  O_12
    7  A    between atoms: C_4  and  C_15
    8  A    between atoms: C_4  and  C_22
    9  A    between atoms: C_11  and  C_14
   10  A    between atoms: C_14  and  C_22
   11  A    between atoms: C_15  and  C_42
   12  A    between atoms: C_28  and  C_35
                            x       y       z     vdW  Elec       q    Type
                         _______ _______ _______ _____ _____    ______ ____

>  <TORSDO>
F 12

$$$$
=
 OpenBabel11052421063D

 43 47  0  0  1  0  0  0  0  0999 V2000
  192.7620  173.3700  142.4390 N   0  0  0  0  0  2  0  0  0  0  0  0
  186.5960  178.2220  143.7440 C   0  0  0  0  0  0  0  0  0  0  0  0
  192.9810  172.3330  144.5160 O   0  0  0  0  0  0  0  0  0  0  0  0
  189.8950  175.0090  145.8200 C   0  0  0  0  0  0  0  0  0  0  0  0
  192.4180  173.2180  143.8160 C   0  0  0  0  0  0  0  0  0  0  0  0
  187.6620  176.5780  145.2820 C   0  0  0  0  0  0  0  0  0  0  0  0
  187.3950  177.8250  142.7410 C   0  0  0  0  0  3  0  0  0  0  0  0
  185.8350  179.4950  143.6100 C   0  0  0  0  0  1  0  0  0  0  0  0
  188.5000  176.1680  144.2200 C   0  0  0  0  0  0  0  0  0  0  0  0
  186.4340  177.3940  144.9950 C   0  0  0  0  0  2  0  0  0  0  0  0
  188.1550  176.5240  142.8030 C   0  0  0  0  0  2  0  0  0  0  0  0
  190.5420  174.8280  143.6210 N   0  0  0  0  0  2  0  0  0  0  0  0
  189.6080  175.3780  144.5270 C   0  0  0  0  0  0  0  0  0  0  0  0
  189.0810  175.3980  146.8840 C   0  0  0  0  0  3  0  0  0  0  0  0
  191.1310  174.1710  145.8360 C   0  0  1  0  0  3  0  0  0  0  0  0
  191.4410  174.0840  144.4000 N   0  0  0  0  0  0  0  0  0  0  0  0
  187.9530  176.1880  146.6040 C   0  0  0  0  0  3  0  0  0  0  0  0
  192.2320  174.9360  146.5600 C   0  0  0  0  0  2  0  0  0  0  0  0
  192.6060  176.1930  145.7950 C   0  0  0  0  0  2  0  0  0  0  0  0
  196.1170  174.9160  145.6480 O   0  0  0  0  0  0  0  0  0  0  0  0
  195.7820  176.2090  143.6480 C   0  0  0  0  0  2  0  0  0  0  0  0
  196.2610  174.8870  144.2490 C   0  0  1  0  0  3  0  0  0  0  0  0
  194.7370  174.8820  145.9180 C   0  0  0  0  0  2  0  0  0  0  0  0
  194.0950  176.2090  145.5020 C   0  0  1  0  0  3  0  0  0  0  0  0
  197.7170  174.6700  143.8940 C   0  0  0  0  0  1  0  0  0  0  0  0
  194.3110  176.4140  144.0050 C   0  0  0  0  0  2  0  0  0  0  0  0
  193.7910  172.5600  141.8090 C   0  0  0  0  0  2  0  0  0  0  0  0
  193.7200  172.7030  140.2830 C   0  0  2  0  0  3  0  0  0  0  0  0
  194.9080  172.3150  139.6270 O   0  0  0  0  0  0  0  0  0  0  0  0
  195.8110  171.8130  140.5760 C   0  0  0  0  0  1  0  0  0  0  0  0
  193.1300  174.0260  139.7470 C   0  0  1  0  0  3  0  0  0  0  0  0
  194.2270  174.8970  139.1380 C   0  0  0  0  0  2  0  0  0  0  0  0
  196.4530  175.5410  140.0590 C   0  0  0  0  0  1  0  0  0  0  0  0
  194.9510  175.6980  140.2080 C   0  0  0  0  0  2  0  0  0  0  0  0
  192.0170  173.7910  138.7280 C   0  0  0  0  0  2  0  0  0  0  0  0
  191.4620  172.3780  138.8320 C   0  0  2  0  0  3  0  0  0  0  0  0
  191.3550  171.8340  137.5500 O   0  0  0  0  0  1  0  0  0  0  0  0
  190.0920  172.4060  139.5020 C   0  0  2  0  0  3  0  0  0  0  0  0
  189.6370  172.2040  141.8920 O   0  0  0  0  0  0  0  0  0  0  0  0
  188.4450  173.6940  140.3920 C   0  0  0  0  0  2  0  0  0  0  0  0
  188.3670  172.7390  141.5970 C   0  0  0  0  0  2  0  0  0  0  0  0
  189.7500  173.7280  139.8580 O   0  0  0  0  0  0  0  0  0  0  0  0
  190.0790  171.4990  140.7510 C   0  0  0  0  0  2  0  0  0  0  0  0
  1  5  1  0  0  0  0
  2 10  1  0  0  0  0
  4 15  1  0  0  0  0
  4 14  1  0  0  0  0
  5 16  1  0  0  0  0
  5  3  2  0  0  0  0
  6 17  1  0  0  0  0
  7 11  1  0  0  0  0
  7  2  2  0  0  0  0
  8  2  1  0  0  0  0
  9 13  1  0  0  0  0
  9  6  2  0  0  0  0
 10  6  1  0  0  0  0
 11  9  1  0  0  0  0
 12 16  1  0  0  0  0
 12 13  1  0  0  0  0
 13  4  2  0  0  0  0
 15 18  1  1  0  0  0
 16 15  1  0  0  0  0
 17 14  2  0  0  0  0
 19 18  1  0  0  0  0
 20 23  1  0  0  0  0
 21 26  1  0  0  0  0
 21 22  1  0  0  0  0
 22 25  1  1  0  0  0
 22 20  1  0  0  0  0
 24 19  1  6  0  0  0
 24 23  1  0  0  0  0
 26 24  1  0  0  0  0
 27  1  1  0  0  0  0
 28 27  1  1  0  0  0
 29 28  1  0  0  0  0
 29 30  1  0  0  0  0
 31 35  1  6  0  0  0
 31 28  1  0  0  0  0
 32 31  1  0  0  0  0
 32 34  1  0  0  0  0
 33 34  1  0  0  0  0
 35 36  1  0  0  0  0
 36 37  1  6  0  0  0
 38 36  1  1  0  0  0
 38 42  1  0  0  0  0
 38 43  1  0  0  0  0
 40 41  1  0  0  0  0
 41 39  1  0  0  0  0
 42 40  1  0  0  0  0
 43 39  1  0  0  0  0
M  END
>  <MODEL>
9

>  <REMARK>
 VINA RESULT:      -6.9      1.839      6.214
  Name = 
  12 active torsions:
  status: ('A' for Active; 'I' for Inactive)
    1  A    between atoms: C_1  and  C_28
    2  A    between atoms: C_1  and  C_34
    3  A    between atoms: N_2  and  C_6
    4  A    between atoms: C_3  and  C_4
    5  A    between atoms: C_3  and  C_6
    6  A    between atoms: C_3  and  O_12
    7  A    between atoms: C_4  and  C_15
    8  A    between atoms: C_4  and  C_22
    9  A    between atoms: C_11  and  C_14
   10  A    between atoms: C_14  and  C_22
   11  A    between atoms: C_15  and  C_42
   12  A    between atoms: C_28  and  C_35
                            x       y       z     vdW  Elec       q    Type
                         _______ _______ _______ _____ _____    ______ ____

>  <TORSDO>
F 12

$$$$
