=
 OpenBabel11052419473D

 55 60  0  0  1  0  0  0  0  0999 V2000
  188.7680  173.3910  140.3320 C   0  0  0  0  0  3  0  0  0  0  0  0
  190.1680  171.5750  141.8930 C   0  0  0  0  0  0  0  0  0  0  0  0
  189.3980  172.5630  142.5110 C   0  0  0  0  0  3  0  0  0  0  0  0
  189.5530  172.3930  139.7500 C   0  0  0  0  0  3  0  0  0  0  0  0
  188.6910  173.4820  141.7230 C   0  0  0  0  0  0  0  0  0  0  0  0
  190.2360  171.5160  140.5350 N   0  0  0  0  0  0  0  0  0  0  0  0
  190.9380  170.6030  142.7160 C   0  0  0  0  0  2  0  0  0  0  0  0
  191.7820  171.3390  143.7380 C   0  0  0  0  0  2  0  0  0  0  0  0
  193.9730  172.1090  143.4720 C   0  0  1  0  0  3  0  0  0  0  0  0
  193.1610  170.8950  143.6390 N   0  0  0  0  0  0  0  0  0  0  0  0
  193.8750  171.4800  144.7830 C   0  0  0  0  0  2  0  0  0  0  0  0
  195.3040  171.7430  142.8310 C   0  0  0  0  0  2  0  0  0  0  0  0
  195.7460  170.7220  140.7170 O   0  0  0  0  0  1  0  0  0  0  0  0
  195.3190  171.9170  141.3050 C   0  0  0  0  0  0  0  0  0  0  0  0
  194.0090  172.1590  140.8820 O   0  0  0  0  0  1  0  0  0  0  0  0
  196.4620  173.2720  138.5440 C   0  0  2  0  0  0  0  0  0  0  0  0
  196.2470  173.0820  140.8350 C   0  0  1  0  0  0  0  0  0  0  0  0
  194.0550  174.5100  140.8760 C   0  0  0  0  0  1  0  0  0  0  0  0
  195.5310  174.4330  140.4670 C   0  0  2  0  0  0  0  0  0  0  0  0
  195.7160  172.3810  137.7930 F   0  0  0  0  0  0  0  0  0  0  0  0
  195.6130  174.3860  139.0010 C   0  0  0  0  0  0  0  0  0  0  0  0
  197.6190  173.7940  137.7120 C   0  0  0  0  0  1  0  0  0  0  0  0
  197.1820  173.3010  141.8380 F   0  0  0  0  0  0  0  0  0  0  0  0
  195.0590  175.1770  138.2500 O   0  0  0  0  0  0  0  0  0  0  0  0
  196.9650  172.6270  139.6930 O   0  0  0  0  0  0  0  0  0  0  0  0
  197.2820  176.0460  140.3470 O   0  0  0  0  0  0  0  0  0  0  0  0
  196.3000  175.6550  140.9630 C   0  0  0  0  0  0  0  0  0  0  0  0
  195.8640  176.4250  142.1760 C   0  0  0  0  0  2  0  0  0  0  0  0
  197.0540  176.7530  143.0540 C   0  0  0  0  0  1  0  0  0  0  0  0
  187.9080  174.4880  142.2950 O   0  0  0  0  0  0  0  0  0  0  0  0
  188.3750  175.8200  142.4620 C   0  0  0  0  0  2  0  0  0  0  0  0
  184.7140  177.9990  145.1650 C   0  0  0  0  0  2  0  0  0  0  0  0
  190.9450  175.9220  143.8590 C   0  0  0  0  0  2  0  0  0  0  0  0
  185.1890  178.5440  147.5430 C   0  0  0  0  0  2  0  0  0  0  0  0
  186.8870  177.2290  146.2270 C   0  0  0  0  0  0  0  0  0  0  0  0
  186.3790  177.5900  147.5970 C   0  0  0  0  0  2  0  0  0  0  0  0
  184.1460  177.9980  146.5810 C   0  0  0  0  0  2  0  0  0  0  0  0
  186.0690  177.3360  145.0830 C   0  0  0  0  0  0  0  0  0  0  0  0
  188.6580  176.2790  144.9390 C   0  0  0  0  0  0  0  0  0  0  0  0
  190.5810  175.1430  146.1160 C   0  0  0  0  0  2  0  0  0  0  0  0
  188.1290  176.6940  146.1210 N   0  0  0  0  0  0  0  0  0  0  0  0
  192.0540  174.9520  145.8060 C   0  0  1  0  0  3  0  0  0  0  0  0
  186.5740  176.9030  143.8420 C   0  0  0  0  0  0  0  0  0  0  0  0
  192.2250  175.2550  144.3200 C   0  0  0  0  0  2  0  0  0  0  0  0
  187.8760  176.3680  143.7640 C   0  0  0  0  0  0  0  0  0  0  0  0
  189.9900  175.7330  144.9330 N   0  0  0  0  0  0  0  0  0  0  0  0
  192.8690  175.9290  146.6420 C   0  0  0  0  0  2  0  0  0  0  0  0
  194.2680  176.0300  146.1320 C   0  0  0  0  0  0  0  0  0  0  0  0
  194.9730  174.9600  145.9720 N   0  0  0  0  0  1  0  0  0  0  0  0
  194.7650  177.2790  145.6700 N   0  0  0  0  0  2  0  0  0  0  0  0
  185.7130  176.9900  142.6110 C   0  0  0  0  0  2  0  0  0  0  0  0
  186.8840  179.0310  142.2510 O   0  0  0  0  0  0  0  0  0  0  0  0
  185.9290  178.2850  141.9040 C   0  0  0  0  0  0  0  0  0  0  0  0
  185.0810  178.6490  140.8580 O   0  0  0  0  0  0  0  0  0  0  0  0
  183.7410  178.1850  140.7860 C   0  0  0  0  0  1  0  0  0  0  0  0
  1  5  1  0  0  0  0
  2  3  1  0  0  0  0
  2  7  1  0  0  0  0
  4  1  2  0  0  0  0
  4  6  1  0  0  0  0
  5 30  1  0  0  0  0
  5  3  2  0  0  0  0
  6  2  2  0  0  0  0
  7  8  1  0  0  0  0
  9 12  1  6  0  0  0
  9 10  1  0  0  0  0
  9 11  1  0  0  0  0
 10  8  1  0  0  0  0
 10 11  1  0  0  0  0
 13 14  1  0  0  0  0
 14 12  1  0  0  0  0
 15 14  1  0  0  0  0
 16 22  1  6  0  0  0
 16 21  1  0  0  0  0
 16 25  1  0  0  0  0
 17 14  1  0  0  0  0
 17 23  1  1  0  0  0
 19 17  1  0  0  0  0
 19 18  1  1  0  0  0
 19 27  1  0  0  0  0
 20 16  1  0  0  0  0
 21 19  1  0  0  0  0
 24 21  2  0  0  0  0
 25 17  1  0  0  0  0
 26 27  2  0  0  0  0
 27 28  1  0  0  0  0
 28 29  1  0  0  0  0
 30 31  1  0  0  0  0
 31 45  1  0  0  0  0
 32 37  1  0  0  0  0
 33 44  1  0  0  0  0
 33 46  1  0  0  0  0
 34 36  1  0  0  0  0
 35 36  1  0  0  0  0
 37 34  1  0  0  0  0
 38 32  1  0  0  0  0
 38 35  2  0  0  0  0
 39 41  2  0  0  0  0
 41 35  1  0  0  0  0
 42 40  1  0  0  0  0
 42 47  1  1  0  0  0
 43 38  1  0  0  0  0
 44 42  1  0  0  0  0
 45 43  2  0  0  0  0
 45 39  1  0  0  0  0
 46 39  1  0  0  0  0
 46 40  1  0  0  0  0
 48 47  1  0  0  0  0
 49 48  1  0  0  0  0
 50 48  2  0  0  0  0
 51 43  1  0  0  0  0
 53 52  2  0  0  0  0
 53 51  1  0  0  0  0
 54 53  1  0  0  0  0
 55 54  1  0  0  0  0
M  END
>  <MODEL>
1

>  <REMARK>
 VINA RESULT:      -7.4      0.000      0.000
  Name = 
  16 active torsions:
  status: ('A' for Active; 'I' for Inactive)
    1  A    between atoms: O_2  and  C_28
    2  A    between atoms: O_2  and  C_44
    3  A    between atoms: O_4  and  C_40
    4  A    between atoms: C_6  and  C_20
    5  A    between atoms: C_8  and  C_22
    6  A    between atoms: C_10  and  C_32
    7  A    between atoms: C_11  and  C_38
    8  A    between atoms: C_14  and  C_38
    9  A    between atoms: C_19  and  C_40
   10  A    between atoms: C_19  and  C_45
   11  A    between atoms: C_20  and  C_22
   12  A    between atoms: C_27  and  C_54
   13  A    between atoms: C_28  and  C_49
   14  A    between atoms: C_32  and  C_39
   15  A    between atoms: N_35  and  C_51
   16  A    between atoms: C_51  and  C_54
                            x       y       z     vdW  Elec       q    Type
                         _______ _______ _______ _____ _____    ______ ____

>  <TORSDO>
F 16

$$$$
=
 OpenBabel11052419473D

 55 60  0  0  1  0  0  0  0  0999 V2000
  189.0160  172.6830  143.0920 C   0  0  0  0  0  3  0  0  0  0  0  0
  190.1450  172.4090  140.5720 C   0  0  0  0  0  0  0  0  0  0  0  0
  189.2810  173.4770  140.8270 C   0  0  0  0  0  3  0  0  0  0  0  0
  189.8810  171.6260  142.7990 C   0  0  0  0  0  3  0  0  0  0  0  0
  188.7080  173.6150  142.1000 C   0  0  0  0  0  0  0  0  0  0  0  0
  190.4180  171.5080  141.5550 N   0  0  0  0  0  0  0  0  0  0  0  0
  190.7460  172.2390  139.2220 C   0  0  0  0  0  2  0  0  0  0  0  0
  191.7340  171.0880  139.2330 C   0  0  0  0  0  2  0  0  0  0  0  0
  194.0330  171.5010  139.1250 C   0  0  1  0  0  3  0  0  0  0  0  0
  192.8180  171.3710  138.3070 N   0  0  0  0  0  0  0  0  0  0  0  0
  193.7670  170.2540  138.4170 C   0  0  0  0  0  2  0  0  0  0  0  0
  195.0730  172.3070  138.3600 C   0  0  0  0  0  2  0  0  0  0  0  0
  196.3740  174.3070  138.2440 O   0  0  0  0  0  1  0  0  0  0  0  0
  195.3880  173.6660  139.0020 C   0  0  0  0  0  0  0  0  0  0  0  0
  194.2330  174.4510  138.9530 O   0  0  0  0  0  1  0  0  0  0  0  0
  196.8650  175.4480  141.3290 C   0  0  2  0  0  0  0  0  0  0  0  0
  195.8770  173.5410  140.4800 C   0  0  1  0  0  0  0  0  0  0  0  0
  193.4690  174.3670  141.0820 C   0  0  0  0  0  1  0  0  0  0  0  0
  194.8850  174.0600  141.5850 C   0  0  2  0  0  0  0  0  0  0  0  0
  196.8900  176.5410  140.4810 F   0  0  0  0  0  0  0  0  0  0  0  0
  195.5380  175.3220  141.9560 C   0  0  0  0  0  0  0  0  0  0  0  0
  197.9410  175.6010  142.3890 C   0  0  0  0  0  1  0  0  0  0  0  0
  196.1800  172.2060  140.7080 F   0  0  0  0  0  0  0  0  0  0  0  0
  195.0510  176.1600  142.7030 O   0  0  0  0  0  0  0  0  0  0  0  0
  197.0970  174.2670  140.5950 O   0  0  0  0  0  0  0  0  0  0  0  0
  195.8360  173.0400  143.5180 O   0  0  0  0  0  0  0  0  0  0  0  0
  194.8450  173.1480  142.8090 C   0  0  0  0  0  0  0  0  0  0  0  0
  193.6030  172.3990  143.1970 C   0  0  0  0  0  2  0  0  0  0  0  0
  193.6570  172.0000  144.6570 C   0  0  0  0  0  1  0  0  0  0  0  0
  187.8380  174.6650  142.4010 O   0  0  0  0  0  0  0  0  0  0  0  0
  188.2830  176.0040  142.5770 C   0  0  0  0  0  2  0  0  0  0  0  0
  184.6100  178.0390  145.3730 C   0  0  0  0  0  2  0  0  0  0  0  0
  190.8790  176.1880  143.9170 C   0  0  0  0  0  2  0  0  0  0  0  0
  185.1200  178.5890  147.7440 C   0  0  0  0  0  2  0  0  0  0  0  0
  186.8320  177.3400  146.3820 C   0  0  0  0  0  0  0  0  0  0  0  0
  186.3420  177.6760  147.7650 C   0  0  0  0  0  2  0  0  0  0  0  0
  184.0740  178.0120  146.8010 C   0  0  0  0  0  2  0  0  0  0  0  0
  185.9850  177.4240  145.2570 C   0  0  0  0  0  0  0  0  0  0  0  0
  188.6050  176.4590  145.0490 C   0  0  0  0  0  0  0  0  0  0  0  0
  190.5930  175.3850  146.1780 C   0  0  0  0  0  2  0  0  0  0  0  0
  188.0890  176.8500  146.2450 N   0  0  0  0  0  0  0  0  0  0  0  0
  192.0640  175.2480  145.8330 C   0  0  1  0  0  3  0  0  0  0  0  0
  186.4770  177.0160  144.0030 C   0  0  0  0  0  0  0  0  0  0  0  0
  192.1920  175.5640  144.3460 C   0  0  0  0  0  2  0  0  0  0  0  0
  187.7950  176.5270  143.8930 C   0  0  0  0  0  0  0  0  0  0  0  0
  189.9550  175.9600  145.0110 N   0  0  0  0  0  0  0  0  0  0  0  0
  192.8640  176.2480  146.6570 C   0  0  0  0  0  2  0  0  0  0  0  0
  194.2980  176.2510  146.2460 C   0  0  0  0  0  0  0  0  0  0  0  0
  194.9460  175.1380  146.1620 N   0  0  0  0  0  1  0  0  0  0  0  0
  194.9020  177.4560  145.7930 N   0  0  0  0  0  2  0  0  0  0  0  0
  185.5860  177.0790  142.7920 C   0  0  0  0  0  2  0  0  0  0  0  0
  186.3450  179.3260  142.5860 O   0  0  0  0  0  0  0  0  0  0  0  0
  185.8410  178.3240  142.0120 C   0  0  0  0  0  0  0  0  0  0  0  0
  185.5340  178.3590  140.6510 O   0  0  0  0  0  0  0  0  0  0  0  0
  184.1960  178.2730  140.1840 C   0  0  0  0  0  1  0  0  0  0  0  0
  2  3  2  0  0  0  0
  2  6  1  0  0  0  0
  3  5  1  0  0  0  0
  4  1  1  0  0  0  0
  5 30  1  0  0  0  0
  5  1  2  0  0  0  0
  6  4  2  0  0  0  0
  7  8  1  0  0  0  0
  7  2  1  0  0  0  0
  9 12  1  6  0  0  0
 10 11  1  0  0  0  0
 10  9  1  0  0  0  0
 10  8  1  0  0  0  0
 11  9  1  0  0  0  0
 12 14  1  0  0  0  0
 13 14  1  0  0  0  0
 14 17  1  0  0  0  0
 15 14  1  0  0  0  0
 16 21  1  0  0  0  0
 16 22  1  1  0  0  0
 17 25  1  0  0  0  0
 17 23  1  1  0  0  0
 17 19  1  0  0  0  0
 19 18  1  6  0  0  0
 19 21  1  0  0  0  0
 19 27  1  0  0  0  0
 20 16  1  0  0  0  0
 21 24  2  0  0  0  0
 25 16  1  0  0  0  0
 27 28  1  0  0  0  0
 27 26  2  0  0  0  0
 28 29  1  0  0  0  0
 30 31  1  0  0  0  0
 31 45  1  0  0  0  0
 32 37  1  0  0  0  0
 33 44  1  0  0  0  0
 33 46  1  0  0  0  0
 34 36  1  0  0  0  0
 35 36  1  0  0  0  0
 37 34  1  0  0  0  0
 38 32  1  0  0  0  0
 38 35  2  0  0  0  0
 39 41  2  0  0  0  0
 41 35  1  0  0  0  0
 42 40  1  0  0  0  0
 42 47  1  1  0  0  0
 43 38  1  0  0  0  0
 44 42  1  0  0  0  0
 45 43  2  0  0  0  0
 45 39  1  0  0  0  0
 46 39  1  0  0  0  0
 46 40  1  0  0  0  0
 48 47  1  0  0  0  0
 49 48  1  0  0  0  0
 50 48  2  0  0  0  0
 51 43  1  0  0  0  0
 53 52  2  0  0  0  0
 53 51  1  0  0  0  0
 54 53  1  0  0  0  0
 55 54  1  0  0  0  0
M  END
>  <MODEL>
2

>  <REMARK>
 VINA RESULT:      -7.4      1.382      2.719
  Name = 
  16 active torsions:
  status: ('A' for Active; 'I' for Inactive)
    1  A    between atoms: O_2  and  C_28
    2  A    between atoms: O_2  and  C_44
    3  A    between atoms: O_4  and  C_40
    4  A    between atoms: C_6  and  C_20
    5  A    between atoms: C_8  and  C_22
    6  A    between atoms: C_10  and  C_32
    7  A    between atoms: C_11  and  C_38
    8  A    between atoms: C_14  and  C_38
    9  A    between atoms: C_19  and  C_40
   10  A    between atoms: C_19  and  C_45
   11  A    between atoms: C_20  and  C_22
   12  A    between atoms: C_27  and  C_54
   13  A    between atoms: C_28  and  C_49
   14  A    between atoms: C_32  and  C_39
   15  A    between atoms: N_35  and  C_51
   16  A    between atoms: C_51  and  C_54
                            x       y       z     vdW  Elec       q    Type
                         _______ _______ _______ _____ _____    ______ ____

>  <TORSDO>
F 16

$$$$
=
 OpenBabel11052419473D

 55 60  0  0  1  0  0  0  0  0999 V2000
  190.4020  174.8930  146.3220 C   0  0  0  0  0  3  0  0  0  0  0  0
  192.9170  176.0620  146.4150 C   0  0  0  0  0  0  0  0  0  0  0  0
  192.3900  175.6580  145.1850 C   0  0  0  0  0  3  0  0  0  0  0  0
  190.9630  175.3050  147.5330 C   0  0  0  0  0  3  0  0  0  0  0  0
  191.1200  175.0660  145.1370 C   0  0  0  0  0  0  0  0  0  0  0  0
  192.2000  175.8700  147.5560 N   0  0  0  0  0  0  0  0  0  0  0  0
  194.2700  176.6750  146.4840 C   0  0  0  0  0  2  0  0  0  0  0  0
  194.7340  177.0730  145.0960 C   0  0  0  0  0  2  0  0  0  0  0  0
  195.3500  175.9070  143.1650 C   0  0  1  0  0  3  0  0  0  0  0  0
  195.6640  176.0770  144.5910 N   0  0  0  0  0  0  0  0  0  0  0  0
  196.4760  176.7430  143.5630 C   0  0  0  0  0  2  0  0  0  0  0  0
  195.8630  174.5550  142.6920 C   0  0  0  0  0  2  0  0  0  0  0  0
  193.5860  174.3160  142.0120 O   0  0  0  0  0  1  0  0  0  0  0  0
  194.7460  173.5830  142.2850 C   0  0  0  0  0  0  0  0  0  0  0  0
  195.1350  172.9390  141.1080 O   0  0  0  0  0  1  0  0  0  0  0  0
  193.5520  170.5410  142.5880 C   0  0  2  0  0  0  0  0  0  0  0  0
  194.4340  172.5200  143.3870 C   0  0  1  0  0  0  0  0  0  0  0  0
  196.8960  171.7370  142.9750 C   0  0  0  0  0  1  0  0  0  0  0  0
  195.5490  171.4400  143.6450 C   0  0  2  0  0  0  0  0  0  0  0  0
  193.4270  170.4490  141.2130 F   0  0  0  0  0  0  0  0  0  0  0  0
  194.9430  170.2730  142.9910 C   0  0  0  0  0  0  0  0  0  0  0  0
  192.6070  169.5550  143.2520 C   0  0  0  0  0  1  0  0  0  0  0  0
  194.1600  173.2050  144.5630 F   0  0  0  0  0  0  0  0  0  0  0  0
  195.5140  169.2050  142.8130 O   0  0  0  0  0  0  0  0  0  0  0  0
  193.2360  171.8480  143.0120 O   0  0  0  0  0  0  0  0  0  0  0  0
  194.8700  170.5060  145.7300 O   0  0  0  0  0  0  0  0  0  0  0  0
  195.7310  171.1330  145.1290 C   0  0  0  0  0  0  0  0  0  0  0  0
  196.9660  171.5480  145.8760 C   0  0  0  0  0  2  0  0  0  0  0  0
  196.9060  173.0210  146.2260 C   0  0  0  0  0  1  0  0  0  0  0  0
  190.5530  174.6460  143.9320 O   0  0  0  0  0  0  0  0  0  0  0  0
  189.2380  174.1120  143.8490 C   0  0  0  0  0  2  0  0  0  0  0  0
  185.9140  177.7770  142.8620 C   0  0  0  0  0  2  0  0  0  0  0  0
  189.6210  172.3600  141.5360 C   0  0  0  0  0  2  0  0  0  0  0  0
  185.2340  178.1260  140.4960 C   0  0  0  0  0  2  0  0  0  0  0  0
  187.0750  176.4860  141.0110 C   0  0  0  0  0  0  0  0  0  0  0  0
  186.4430  177.3630  139.9630 C   0  0  0  0  0  2  0  0  0  0  0  0
  185.6090  178.8240  141.7950 C   0  0  0  0  0  2  0  0  0  0  0  0
  186.9000  176.7350  142.3870 C   0  0  0  0  0  0  0  0  0  0  0  0
  188.5810  174.6920  141.4710 C   0  0  0  0  0  0  0  0  0  0  0  0
  190.0180  173.7670  139.6120 C   0  0  0  0  0  2  0  0  0  0  0  0
  187.9120  175.4990  140.6040 N   0  0  0  0  0  0  0  0  0  0  0  0
  190.6060  172.4020  139.3020 C   0  0  1  0  0  3  0  0  0  0  0  0
  187.5860  175.9320  143.3170 C   0  0  0  0  0  0  0  0  0  0  0  0
  190.5290  171.5950  140.5950 C   0  0  0  0  0  2  0  0  0  0  0  0
  188.4360  174.9020  142.8610 C   0  0  0  0  0  0  0  0  0  0  0  0
  189.4390  173.6680  140.9370 N   0  0  0  0  0  0  0  0  0  0  0  0
  189.7740  171.7380  138.2140 C   0  0  0  0  0  2  0  0  0  0  0  0
  190.6470  171.1920  137.1330 C   0  0  0  0  0  0  0  0  0  0  0  0
  190.1190  170.7440  136.0450 N   0  0  0  0  0  2  0  0  0  0  0  0
  192.0600  171.3160  137.2340 N   0  0  0  0  0  1  0  0  0  0  0  0
  187.4290  176.1910  144.7910 C   0  0  0  0  0  2  0  0  0  0  0  0
  189.1450  177.8260  144.5750 O   0  0  0  0  0  0  0  0  0  0  0  0
  188.1000  177.4650  145.1790 C   0  0  0  0  0  0  0  0  0  0  0  0
  187.5520  178.2500  146.1940 O   0  0  0  0  0  0  0  0  0  0  0  0
  186.5900  177.7340  147.1010 C   0  0  0  0  0  1  0  0  0  0  0  0
  1  4  1  0  0  0  0
  2  7  1  0  0  0  0
  2  6  1  0  0  0  0
  3  2  2  0  0  0  0
  4  6  2  0  0  0  0
  5  3  1  0  0  0  0
  5  1  2  0  0  0  0
  8  7  1  0  0  0  0
  9 12  1  6  0  0  0
  9 11  1  0  0  0  0
  9 10  1  0  0  0  0
 10  8  1  0  0  0  0
 11 10  1  0  0  0  0
 13 14  1  0  0  0  0
 14 12  1  0  0  0  0
 14 17  1  0  0  0  0
 15 14  1  0  0  0  0
 16 21  1  0  0  0  0
 16 25  1  0  0  0  0
 16 22  1  1  0  0  0
 17 19  1  0  0  0  0
 17 23  1  1  0  0  0
 19 18  1  6  0  0  0
 19 27  1  0  0  0  0
 20 16  1  0  0  0  0
 21 19  1  0  0  0  0
 24 21  2  0  0  0  0
 25 17  1  0  0  0  0
 27 26  2  0  0  0  0
 27 28  1  0  0  0  0
 28 29  1  0  0  0  0
 30  5  1  0  0  0  0
 31 30  1  0  0  0  0
 34 37  1  0  0  0  0
 35 38  1  0  0  0  0
 36 34  1  0  0  0  0
 36 35  1  0  0  0  0
 37 32  1  0  0  0  0
 38 32  1  0  0  0  0
 38 43  2  0  0  0  0
 39 45  2  0  0  0  0
 40 46  1  0  0  0  0
 41 35  2  0  0  0  0
 41 39  1  0  0  0  0
 42 47  1  6  0  0  0
 42 40  1  0  0  0  0
 42 44  1  0  0  0  0
 43 51  1  0  0  0  0
 44 33  1  0  0  0  0
 45 43  1  0  0  0  0
 45 31  1  0  0  0  0
 46 39  1  0  0  0  0
 46 33  1  0  0  0  0
 48 50  1  0  0  0  0
 48 47  1  0  0  0  0
 49 48  2  0  0  0  0
 51 53  1  0  0  0  0
 52 53  2  0  0  0  0
 53 54  1  0  0  0  0
 54 55  1  0  0  0  0
M  END
>  <MODEL>
3

>  <REMARK>
 VINA RESULT:      -7.2      2.480      5.995
  Name = 
  16 active torsions:
  status: ('A' for Active; 'I' for Inactive)
    1  A    between atoms: O_2  and  C_28
    2  A    between atoms: O_2  and  C_44
    3  A    between atoms: O_4  and  C_40
    4  A    between atoms: C_6  and  C_20
    5  A    between atoms: C_8  and  C_22
    6  A    between atoms: C_10  and  C_32
    7  A    between atoms: C_11  and  C_38
    8  A    between atoms: C_14  and  C_38
    9  A    between atoms: C_19  and  C_40
   10  A    between atoms: C_19  and  C_45
   11  A    between atoms: C_20  and  C_22
   12  A    between atoms: C_27  and  C_54
   13  A    between atoms: C_28  and  C_49
   14  A    between atoms: C_32  and  C_39
   15  A    between atoms: N_35  and  C_51
   16  A    between atoms: C_51  and  C_54
                            x       y       z     vdW  Elec       q    Type
                         _______ _______ _______ _____ _____    ______ ____

>  <TORSDO>
F 16

$$$$
=
 OpenBabel11052419473D

 55 60  0  0  1  0  0  0  0  0999 V2000
  189.1520  172.3710  142.6710 C   0  0  0  0  0  3  0  0  0  0  0  0
  190.5520  172.5880  140.2860 C   0  0  0  0  0  0  0  0  0  0  0  0
  189.6290  173.5770  140.6350 C   0  0  0  0  0  3  0  0  0  0  0  0
  190.0790  171.3990  142.2870 C   0  0  0  0  0  3  0  0  0  0  0  0
  188.9200  173.4680  141.8400 C   0  0  0  0  0  0  0  0  0  0  0  0
  190.7500  171.5220  141.1100 N   0  0  0  0  0  0  0  0  0  0  0  0
  191.2990  172.6800  139.0030 C   0  0  0  0  0  2  0  0  0  0  0  0
  192.7790  172.4600  139.2440 C   0  0  0  0  0  2  0  0  0  0  0  0
  194.5650  172.8330  140.7070 C   0  0  1  0  0  3  0  0  0  0  0  0
  193.2260  173.3130  140.3320 N   0  0  0  0  0  0  0  0  0  0  0  0
  194.4300  174.0080  139.8540 C   0  0  0  0  0  2  0  0  0  0  0  0
  194.8780  173.2730  142.1300 C   0  0  0  0  0  2  0  0  0  0  0  0
  197.1900  172.9080  141.6550 O   0  0  0  0  0  1  0  0  0  0  0  0
  196.2220  172.7460  142.6520 C   0  0  0  0  0  0  0  0  0  0  0  0
  196.6010  173.5250  143.7480 O   0  0  0  0  0  1  0  0  0  0  0  0
  196.9230  170.8120  145.2100 C   0  0  2  0  0  0  0  0  0  0  0  0
  196.1640  171.2420  143.0720 C   0  0  1  0  0  0  0  0  0  0  0  0
  193.7560  171.8280  143.9080 C   0  0  0  0  0  1  0  0  0  0  0  0
  194.8890  170.7960  143.8780 C   0  0  2  0  0  0  0  0  0  0  0  0
  197.3110  171.9190  145.9440 F   0  0  0  0  0  0  0  0  0  0  0  0
  195.4570  170.6790  145.2280 C   0  0  0  0  0  0  0  0  0  0  0  0
  197.5780  169.5680  145.7820 C   0  0  0  0  0  1  0  0  0  0  0  0
  196.2810  170.4810  141.9160 F   0  0  0  0  0  0  0  0  0  0  0  0
  194.8000  170.4800  146.2400 O   0  0  0  0  0  0  0  0  0  0  0  0
  197.3160  170.9700  143.8640 O   0  0  0  0  0  0  0  0  0  0  0  0
  194.8340  168.4140  143.9470 O   0  0  0  0  0  0  0  0  0  0  0  0
  194.3720  169.4280  143.4410 C   0  0  0  0  0  0  0  0  0  0  0  0
  193.2750  169.2840  142.4260 C   0  0  0  0  0  2  0  0  0  0  0  0
  192.2400  168.2840  142.8990 C   0  0  0  0  0  1  0  0  0  0  0  0
  187.9870  174.4300  142.2300 O   0  0  0  0  0  0  0  0  0  0  0  0
  188.2400  175.8260  142.1340 C   0  0  0  0  0  2  0  0  0  0  0  0
  185.2790  177.9520  145.6220 C   0  0  0  0  0  2  0  0  0  0  0  0
  191.0730  176.2910  142.7040 C   0  0  0  0  0  2  0  0  0  0  0  0
  186.3470  178.7790  147.7090 C   0  0  0  0  0  2  0  0  0  0  0  0
  187.7360  177.4850  146.0540 C   0  0  0  0  0  0  0  0  0  0  0  0
  187.6010  177.9410  147.4820 C   0  0  0  0  0  2  0  0  0  0  0  0
  185.1400  178.0490  147.1390 C   0  0  0  0  0  2  0  0  0  0  0  0
  186.6200  177.4020  145.1960 C   0  0  0  0  0  0  0  0  0  0  0  0
  189.1620  176.5610  144.3780 C   0  0  0  0  0  0  0  0  0  0  0  0
  191.4550  175.7220  145.0210 C   0  0  0  0  0  2  0  0  0  0  0  0
  188.9480  177.0500  145.6290 N   0  0  0  0  0  0  0  0  0  0  0  0
  192.7910  175.6260  144.3070 C   0  0  1  0  0  3  0  0  0  0  0  0
  186.7960  176.8890  143.8980 C   0  0  0  0  0  0  0  0  0  0  0  0
  192.4970  175.7870  142.8180 C   0  0  0  0  0  2  0  0  0  0  0  0
  188.0740  176.4610  143.4810 C   0  0  0  0  0  0  0  0  0  0  0  0
  190.4890  176.1330  144.0220 N   0  0  0  0  0  0  0  0  0  0  0  0
  193.6950  176.7500  144.7920 C   0  0  0  0  0  2  0  0  0  0  0  0
  194.3080  176.4110  146.1100 C   0  0  0  0  0  0  0  0  0  0  0  0
  194.0020  177.1010  147.1570 N   0  0  0  0  0  1  0  0  0  0  0  0
  195.0960  175.2360  146.2430 N   0  0  0  0  0  2  0  0  0  0  0  0
  185.6170  176.7740  142.9710 C   0  0  0  0  0  2  0  0  0  0  0  0
  185.9030  179.0530  142.3490 O   0  0  0  0  0  0  0  0  0  0  0  0
  185.6150  177.8850  141.9760 C   0  0  0  0  0  0  0  0  0  0  0  0
  185.3100  177.6140  140.6410 O   0  0  0  0  0  0  0  0  0  0  0  0
  186.3220  177.4950  139.6530 C   0  0  0  0  0  1  0  0  0  0  0  0
  2  3  2  0  0  0  0
  2  6  1  0  0  0  0
  3  5  1  0  0  0  0
  4  1  1  0  0  0  0
  5 30  1  0  0  0  0
  5  1  2  0  0  0  0
  6  4  2  0  0  0  0
  7  8  1  0  0  0  0
  7  2  1  0  0  0  0
  8 10  1  0  0  0  0
  9 12  1  1  0  0  0
 10  9  1  0  0  0  0
 11 10  1  0  0  0  0
 11  9  1  0  0  0  0
 12 14  1  0  0  0  0
 13 14  1  0  0  0  0
 14 17  1  0  0  0  0
 14 15  1  0  0  0  0
 16 21  1  0  0  0  0
 16 22  1  1  0  0  0
 16 20  1  0  0  0  0
 17 23  1  6  0  0  0
 17 25  1  0  0  0  0
 17 19  1  0  0  0  0
 19 18  1  6  0  0  0
 19 21  1  0  0  0  0
 21 24  2  0  0  0  0
 25 16  1  0  0  0  0
 27 19  1  0  0  0  0
 27 26  2  0  0  0  0
 28 29  1  0  0  0  0
 28 27  1  0  0  0  0
 31 30  1  0  0  0  0
 31 45  1  0  0  0  0
 32 37  1  0  0  0  0
 33 44  1  0  0  0  0
 33 46  1  0  0  0  0
 35 36  1  0  0  0  0
 36 34  1  0  0  0  0
 37 34  1  0  0  0  0
 38 32  1  0  0  0  0
 38 35  2  0  0  0  0
 39 41  2  0  0  0  0
 41 35  1  0  0  0  0
 42 47  1  1  0  0  0
 42 40  1  0  0  0  0
 43 38  1  0  0  0  0
 44 42  1  0  0  0  0
 45 43  2  0  0  0  0
 45 39  1  0  0  0  0
 46 39  1  0  0  0  0
 46 40  1  0  0  0  0
 47 48  1  0  0  0  0
 48 50  2  0  0  0  0
 48 49  1  0  0  0  0
 51 43  1  0  0  0  0
 53 52  2  0  0  0  0
 53 51  1  0  0  0  0
 54 53  1  0  0  0  0
 55 54  1  0  0  0  0
M  END
>  <MODEL>
4

>  <REMARK>
 VINA RESULT:      -7.1      2.035      4.038
  Name = 
  16 active torsions:
  status: ('A' for Active; 'I' for Inactive)
    1  A    between atoms: O_2  and  C_28
    2  A    between atoms: O_2  and  C_44
    3  A    between atoms: O_4  and  C_40
    4  A    between atoms: C_6  and  C_20
    5  A    between atoms: C_8  and  C_22
    6  A    between atoms: C_10  and  C_32
    7  A    between atoms: C_11  and  C_38
    8  A    between atoms: C_14  and  C_38
    9  A    between atoms: C_19  and  C_40
   10  A    between atoms: C_19  and  C_45
   11  A    between atoms: C_20  and  C_22
   12  A    between atoms: C_27  and  C_54
   13  A    between atoms: C_28  and  C_49
   14  A    between atoms: C_32  and  C_39
   15  A    between atoms: N_35  and  C_51
   16  A    between atoms: C_51  and  C_54
                            x       y       z     vdW  Elec       q    Type
                         _______ _______ _______ _____ _____    ______ ____

>  <TORSDO>
F 16

$$$$
=
 OpenBabel11052419473D

 55 60  0  0  1  0  0  0  0  0999 V2000
  187.1640  176.8330  139.6450 C   0  0  0  0  0  3  0  0  0  0  0  0
  188.0010  174.4100  138.5840 C   0  0  0  0  0  0  0  0  0  0  0  0
  188.3750  174.7580  139.8850 C   0  0  0  0  0  3  0  0  0  0  0  0
  186.8140  176.4530  138.3470 C   0  0  0  0  0  3  0  0  0  0  0  0
  187.9530  175.9830  140.4210 C   0  0  0  0  0  0  0  0  0  0  0  0
  187.2410  175.2630  137.8450 N   0  0  0  0  0  0  0  0  0  0  0  0
  188.4560  173.1220  137.9950 C   0  0  0  0  0  2  0  0  0  0  0  0
  189.1100  172.2630  139.0600 C   0  0  0  0  0  2  0  0  0  0  0  0
  191.1820  171.6880  139.9760 C   0  0  1  0  0  3  0  0  0  0  0  0
  190.5070  172.0520  138.7220 N   0  0  0  0  0  0  0  0  0  0  0  0
  190.8060  170.6460  139.0290 C   0  0  0  0  0  2  0  0  0  0  0  0
  192.6720  171.9760  139.8500 C   0  0  0  0  0  2  0  0  0  0  0  0
  192.0550  173.7440  141.3330 O   0  0  0  0  0  1  0  0  0  0  0  0
  193.1640  173.0850  140.7920 C   0  0  0  0  0  0  0  0  0  0  0  0
  193.8630  172.4860  141.8430 O   0  0  0  0  0  1  0  0  0  0  0  0
  195.4020  175.3790  141.4990 C   0  0  2  0  0  0  0  0  0  0  0  0
  194.0820  174.1270  140.0770 C   0  0  1  0  0  0  0  0  0  0  0  0
  195.8140  172.1670  139.9900 C   0  0  0  0  0  1  0  0  0  0  0  0
  195.5570  173.6650  139.7820 C   0  0  2  0  0  0  0  0  0  0  0  0
  195.3040  175.0650  142.8430 F   0  0  0  0  0  0  0  0  0  0  0  0
  196.2820  174.4160  140.8150 C   0  0  0  0  0  0  0  0  0  0  0  0
  195.9370  176.7910  141.3440 C   0  0  0  0  0  1  0  0  0  0  0  0
  193.4570  174.4910  138.8920 F   0  0  0  0  0  0  0  0  0  0  0  0
  197.4700  174.2740  141.0690 O   0  0  0  0  0  0  0  0  0  0  0  0
  194.1310  175.2920  140.8930 O   0  0  0  0  0  0  0  0  0  0  0  0
  196.3670  175.2860  138.2330 O   0  0  0  0  0  0  0  0  0  0  0  0
  196.0470  174.1180  138.4080 C   0  0  0  0  0  0  0  0  0  0  0  0
  196.1860  173.1580  137.2620 C   0  0  0  0  0  2  0  0  0  0  0  0
  196.7530  173.8610  136.0460 C   0  0  0  0  0  1  0  0  0  0  0  0
  188.3020  176.3750  141.7160 O   0  0  0  0  0  0  0  0  0  0  0  0
  188.2120  175.4990  142.8320 C   0  0  0  0  0  2  0  0  0  0  0  0
  184.8520  178.2070  145.4460 C   0  0  0  0  0  2  0  0  0  0  0  0
  190.9110  175.7950  143.9250 C   0  0  0  0  0  2  0  0  0  0  0  0
  185.5680  179.1610  147.6270 C   0  0  0  0  0  2  0  0  0  0  0  0
  187.1190  177.5940  146.4080 C   0  0  0  0  0  0  0  0  0  0  0  0
  186.7540  178.2070  147.7340 C   0  0  0  0  0  2  0  0  0  0  0  0
  184.4300  178.4740  146.8880 C   0  0  0  0  0  2  0  0  0  0  0  0
  186.1890  177.5110  145.3510 C   0  0  0  0  0  0  0  0  0  0  0  0
  188.7460  176.3900  145.1440 C   0  0  0  0  0  0  0  0  0  0  0  0
  190.7750  175.4430  146.3120 C   0  0  0  0  0  2  0  0  0  0  0  0
  188.3420  177.0230  146.2780 N   0  0  0  0  0  0  0  0  0  0  0  0
  192.2090  175.1680  145.8960 C   0  0  1  0  0  3  0  0  0  0  0  0
  186.5640  176.8520  144.1660 C   0  0  0  0  0  0  0  0  0  0  0  0
  192.2290  175.1940  144.3700 C   0  0  0  0  0  2  0  0  0  0  0  0
  187.8500  176.2830  144.0570 C   0  0  0  0  0  0  0  0  0  0  0  0
  190.0690  175.8230  145.1050 N   0  0  0  0  0  0  0  0  0  0  0  0
  193.1080  176.2610  146.4560 C   0  0  0  0  0  2  0  0  0  0  0  0
  194.4820  176.1690  145.8790 C   0  0  0  0  0  0  0  0  0  0  0  0
  194.9850  177.1810  145.2550 N   0  0  0  0  0  2  0  0  0  0  0  0
  195.2920  175.0350  146.1570 N   0  0  0  0  0  1  0  0  0  0  0  0
  185.5830  176.7340  143.0310 C   0  0  0  0  0  2  0  0  0  0  0  0
  186.3060  178.8800  142.2980 O   0  0  0  0  0  0  0  0  0  0  0  0
  185.3530  178.0610  142.3900 C   0  0  0  0  0  0  0  0  0  0  0  0
  184.0900  178.3740  141.8860 O   0  0  0  0  0  0  0  0  0  0  0  0
  183.7830  178.2440  140.5060 C   0  0  0  0  0  1  0  0  0  0  0  0
  1  5  1  0  0  0  0
  2  3  1  0  0  0  0
  3  5  2  0  0  0  0
  4  1  2  0  0  0  0
  5 30  1  0  0  0  0
  6  4  1  0  0  0  0
  6  2  2  0  0  0  0
  7  2  1  0  0  0  0
  7  8  1  0  0  0  0
  9 12  1  6  0  0  0
 10 11  1  0  0  0  0
 10  8  1  0  0  0  0
 10  9  1  0  0  0  0
 11  9  1  0  0  0  0
 12 14  1  0  0  0  0
 14 13  1  0  0  0  0
 14 15  1  0  0  0  0
 16 22  1  6  0  0  0
 16 20  1  0  0  0  0
 17 23  1  6  0  0  0
 17 14  1  0  0  0  0
 17 25  1  0  0  0  0
 19 18  1  1  0  0  0
 19 17  1  0  0  0  0
 19 21  1  0  0  0  0
 21 24  2  0  0  0  0
 21 16  1  0  0  0  0
 25 16  1  0  0  0  0
 26 27  2  0  0  0  0
 27 19  1  0  0  0  0
 28 27  1  0  0  0  0
 29 28  1  0  0  0  0
 30 31  1  0  0  0  0
 31 45  1  0  0  0  0
 32 37  1  0  0  0  0
 33 44  1  0  0  0  0
 33 46  1  0  0  0  0
 34 36  1  0  0  0  0
 35 36  1  0  0  0  0
 37 34  1  0  0  0  0
 38 32  1  0  0  0  0
 38 35  2  0  0  0  0
 39 41  2  0  0  0  0
 41 35  1  0  0  0  0
 42 40  1  0  0  0  0
 42 47  1  1  0  0  0
 43 38  1  0  0  0  0
 44 42  1  0  0  0  0
 45 43  2  0  0  0  0
 45 39  1  0  0  0  0
 46 39  1  0  0  0  0
 46 40  1  0  0  0  0
 48 50  1  0  0  0  0
 48 47  1  0  0  0  0
 49 48  2  0  0  0  0
 51 43  1  0  0  0  0
 52 53  2  0  0  0  0
 53 51  1  0  0  0  0
 54 53  1  0  0  0  0
 55 54  1  0  0  0  0
M  END
>  <MODEL>
5

>  <REMARK>
 VINA RESULT:      -7.0      1.785      3.303
  Name = 
  16 active torsions:
  status: ('A' for Active; 'I' for Inactive)
    1  A    between atoms: O_2  and  C_28
    2  A    between atoms: O_2  and  C_44
    3  A    between atoms: O_4  and  C_40
    4  A    between atoms: C_6  and  C_20
    5  A    between atoms: C_8  and  C_22
    6  A    between atoms: C_10  and  C_32
    7  A    between atoms: C_11  and  C_38
    8  A    between atoms: C_14  and  C_38
    9  A    between atoms: C_19  and  C_40
   10  A    between atoms: C_19  and  C_45
   11  A    between atoms: C_20  and  C_22
   12  A    between atoms: C_27  and  C_54
   13  A    between atoms: C_28  and  C_49
   14  A    between atoms: C_32  and  C_39
   15  A    between atoms: N_35  and  C_51
   16  A    between atoms: C_51  and  C_54
                            x       y       z     vdW  Elec       q    Type
                         _______ _______ _______ _____ _____    ______ ____

>  <TORSDO>
F 16

$$$$
=
 OpenBabel11052419473D

 55 60  0  0  1  0  0  0  0  0999 V2000
  187.0630  176.4340  139.4240 C   0  0  0  0  0  3  0  0  0  0  0  0
  188.1980  174.1840  138.2640 C   0  0  0  0  0  0  0  0  0  0  0  0
  188.3790  174.4200  139.6290 C   0  0  0  0  0  3  0  0  0  0  0  0
  186.9080  176.1680  138.0610 C   0  0  0  0  0  3  0  0  0  0  0  0
  187.8070  175.5580  140.2160 C   0  0  0  0  0  0  0  0  0  0  0  0
  187.4790  175.0620  137.5120 N   0  0  0  0  0  0  0  0  0  0  0  0
  188.8140  172.9910  137.6240 C   0  0  0  0  0  2  0  0  0  0  0  0
  189.2700  172.0070  138.6840 C   0  0  0  0  0  2  0  0  0  0  0  0
  191.0230  170.6310  139.3910 C   0  0  1  0  0  3  0  0  0  0  0  0
  190.4490  171.3000  138.2140 N   0  0  0  0  0  0  0  0  0  0  0  0
  190.2060  169.8700  138.4540 C   0  0  0  0  0  2  0  0  0  0  0  0
  192.4950  170.3360  139.1380 C   0  0  0  0  0  2  0  0  0  0  0  0
  192.6760  171.6190  141.1450 O   0  0  0  0  0  1  0  0  0  0  0  0
  193.4390  171.0320  140.1290 C   0  0  0  0  0  0  0  0  0  0  0  0
  194.2530  170.0580  140.7130 O   0  0  0  0  0  1  0  0  0  0  0  0
  193.1940  174.0410  138.8410 C   0  0  2  0  0  0  0  0  0  0  0  0
  194.3280  172.1260  139.4570 C   0  0  1  0  0  0  0  0  0  0  0  0
  194.6940  172.9770  141.9030 C   0  0  0  0  0  1  0  0  0  0  0  0
  194.8790  173.2530  140.4060 C   0  0  2  0  0  0  0  0  0  0  0  0
  191.8490  174.0740  139.1650 F   0  0  0  0  0  0  0  0  0  0  0  0
  194.0090  174.3720  140.0220 C   0  0  0  0  0  0  0  0  0  0  0  0
  193.4690  175.0190  137.7130 C   0  0  0  0  0  1  0  0  0  0  0  0
  195.3850  171.4780  138.8310 F   0  0  0  0  0  0  0  0  0  0  0  0
  193.9740  175.4510  140.5970 O   0  0  0  0  0  0  0  0  0  0  0  0
  193.5550  172.7400  138.4310 O   0  0  0  0  0  0  0  0  0  0  0  0
  196.5880  174.2310  139.0640 O   0  0  0  0  0  0  0  0  0  0  0  0
  196.3270  173.6240  140.0930 C   0  0  0  0  0  0  0  0  0  0  0  0
  197.4480  173.2970  141.0360 C   0  0  0  0  0  2  0  0  0  0  0  0
  197.9380  171.8810  140.8100 C   0  0  0  0  0  1  0  0  0  0  0  0
  187.9610  175.8370  141.5760 O   0  0  0  0  0  0  0  0  0  0  0  0
  188.5530  177.0400  142.0490 C   0  0  0  0  0  2  0  0  0  0  0  0
  185.5680  179.2980  145.4320 C   0  0  0  0  0  2  0  0  0  0  0  0
  190.9040  175.8470  143.3200 C   0  0  0  0  0  2  0  0  0  0  0  0
  186.0020  178.8640  147.8420 C   0  0  0  0  0  2  0  0  0  0  0  0
  187.2950  177.5660  146.1130 C   0  0  0  0  0  0  0  0  0  0  0  0
  186.8200  177.6120  147.5400 C   0  0  0  0  0  2  0  0  0  0  0  0
  184.9190  179.0260  146.7860 C   0  0  0  0  0  2  0  0  0  0  0  0
  186.6460  178.2940  145.0940 C   0  0  0  0  0  0  0  0  0  0  0  0
  188.7700  176.5600  144.5290 C   0  0  0  0  0  0  0  0  0  0  0  0
  190.1350  174.5470  145.2060 C   0  0  0  0  0  2  0  0  0  0  0  0
  188.3080  176.7220  145.7980 N   0  0  0  0  0  0  0  0  0  0  0  0
  191.4930  173.9990  144.8030 C   0  0  1  0  0  3  0  0  0  0  0  0
  187.0840  178.1440  143.7650 C   0  0  0  0  0  0  0  0  0  0  0  0
  191.8670  174.6910  143.4950 C   0  0  0  0  0  2  0  0  0  0  0  0
  188.1520  177.2700  143.4740 C   0  0  0  0  0  0  0  0  0  0  0  0
  189.8570  175.6440  144.3010 N   0  0  0  0  0  0  0  0  0  0  0  0
  192.5060  174.3350  145.8880 C   0  0  0  0  0  2  0  0  0  0  0  0
  193.8550  173.7970  145.5430 C   0  0  0  0  0  0  0  0  0  0  0  0
  194.0460  172.5220  145.4940 N   0  0  0  0  0  1  0  0  0  0  0  0
  194.8810  174.6820  145.1120 N   0  0  0  0  0  2  0  0  0  0  0  0
  186.3950  178.8960  142.6590 C   0  0  0  0  0  2  0  0  0  0  0  0
  184.7350  177.1980  142.8200 O   0  0  0  0  0  0  0  0  0  0  0  0
  185.2480  178.1110  142.1190 C   0  0  0  0  0  0  0  0  0  0  0  0
  184.7480  178.4060  140.8500 O   0  0  0  0  0  0  0  0  0  0  0  0
  183.3650  178.2910  140.5470 C   0  0  0  0  0  1  0  0  0  0  0  0
  1  5  1  0  0  0  0
  2  3  1  0  0  0  0
  3  5  2  0  0  0  0
  4  1  2  0  0  0  0
  5 30  1  0  0  0  0
  6  4  1  0  0  0  0
  6  2  2  0  0  0  0
  7  2  1  0  0  0  0
  7  8  1  0  0  0  0
  9 12  1  6  0  0  0
 10 11  1  0  0  0  0
 10  8  1  0  0  0  0
 10  9  1  0  0  0  0
 11  9  1  0  0  0  0
 12 14  1  0  0  0  0
 14 15  1  0  0  0  0
 14 13  1  0  0  0  0
 16 22  1  6  0  0  0
 16 20  1  0  0  0  0
 16 21  1  0  0  0  0
 17 23  1  6  0  0  0
 17 14  1  0  0  0  0
 17 19  1  0  0  0  0
 19 18  1  1  0  0  0
 21 19  1  0  0  0  0
 21 24  2  0  0  0  0
 25 16  1  0  0  0  0
 25 17  1  0  0  0  0
 26 27  2  0  0  0  0
 27 19  1  0  0  0  0
 27 28  1  0  0  0  0
 29 28  1  0  0  0  0
 30 31  1  0  0  0  0
 31 45  1  0  0  0  0
 32 37  1  0  0  0  0
 33 44  1  0  0  0  0
 33 46  1  0  0  0  0
 35 36  1  0  0  0  0
 36 34  1  0  0  0  0
 37 34  1  0  0  0  0
 38 32  1  0  0  0  0
 38 35  2  0  0  0  0
 39 41  2  0  0  0  0
 41 35  1  0  0  0  0
 42 40  1  0  0  0  0
 42 47  1  1  0  0  0
 43 38  1  0  0  0  0
 44 42  1  0  0  0  0
 45 43  2  0  0  0  0
 45 39  1  0  0  0  0
 46 39  1  0  0  0  0
 46 40  1  0  0  0  0
 48 47  1  0  0  0  0
 49 48  1  0  0  0  0
 50 48  2  0  0  0  0
 51 43  1  0  0  0  0
 53 51  1  0  0  0  0
 53 52  2  0  0  0  0
 54 53  1  0  0  0  0
 55 54  1  0  0  0  0
M  END
>  <MODEL>
6

>  <REMARK>
 VINA RESULT:      -6.9      2.018      3.173
  Name = 
  16 active torsions:
  status: ('A' for Active; 'I' for Inactive)
    1  A    between atoms: O_2  and  C_28
    2  A    between atoms: O_2  and  C_44
    3  A    between atoms: O_4  and  C_40
    4  A    between atoms: C_6  and  C_20
    5  A    between atoms: C_8  and  C_22
    6  A    between atoms: C_10  and  C_32
    7  A    between atoms: C_11  and  C_38
    8  A    between atoms: C_14  and  C_38
    9  A    between atoms: C_19  and  C_40
   10  A    between atoms: C_19  and  C_45
   11  A    between atoms: C_20  and  C_22
   12  A    between atoms: C_27  and  C_54
   13  A    between atoms: C_28  and  C_49
   14  A    between atoms: C_32  and  C_39
   15  A    between atoms: N_35  and  C_51
   16  A    between atoms: C_51  and  C_54
                            x       y       z     vdW  Elec       q    Type
                         _______ _______ _______ _____ _____    ______ ____

>  <TORSDO>
F 16

$$$$
=
 OpenBabel11052419473D

 55 60  0  0  1  0  0  0  0  0999 V2000
  190.0950  171.5640  142.5780 C   0  0  0  0  0  3  0  0  0  0  0  0
  190.7690  171.3300  139.8970 C   0  0  0  0  0  0  0  0  0  0  0  0
  190.0290  172.4340  140.3260 C   0  0  0  0  0  3  0  0  0  0  0  0
  190.8310  170.4730  142.1110 C   0  0  0  0  0  3  0  0  0  0  0  0
  189.6860  172.5530  141.6810 C   0  0  0  0  0  0  0  0  0  0  0  0
  191.1450  170.3750  140.7910 N   0  0  0  0  0  0  0  0  0  0  0  0
  191.1250  171.1800  138.4600 C   0  0  0  0  0  2  0  0  0  0  0  0
  192.5900  171.5100  138.2490 C   0  0  0  0  0  2  0  0  0  0  0  0
  193.9860  173.1710  139.1190 C   0  0  1  0  0  3  0  0  0  0  0  0
  192.7780  172.9490  138.3110 N   0  0  0  0  0  0  0  0  0  0  0  0
  194.0670  173.2340  137.6650 C   0  0  0  0  0  2  0  0  0  0  0  0
  193.9610  174.5830  139.6870 C   0  0  0  0  0  2  0  0  0  0  0  0
  195.7010  173.6260  141.0160 O   0  0  0  0  0  1  0  0  0  0  0  0
  195.0120  174.8210  140.7820 C   0  0  0  0  0  0  0  0  0  0  0  0
  195.9310  175.7600  140.3080 O   0  0  0  0  0  1  0  0  0  0  0  0
  193.4130  173.6770  143.4100 C   0  0  2  0  0  0  0  0  0  0  0  0
  194.3890  175.3270  142.1230 C   0  0  1  0  0  0  0  0  0  0  0  0
  196.7680  174.8670  143.1100 C   0  0  0  0  0  1  0  0  0  0  0  0
  195.3010  175.2090  143.3990 C   0  0  2  0  0  0  0  0  0  0  0  0
  193.5090  172.3900  142.9130 F   0  0  0  0  0  0  0  0  0  0  0  0
  194.6720  174.0630  144.0690 C   0  0  0  0  0  0  0  0  0  0  0  0
  192.2540  173.7590  144.3880 C   0  0  0  0  0  1  0  0  0  0  0  0
  194.0110  176.6490  141.9340 F   0  0  0  0  0  0  0  0  0  0  0  0
  195.1260  173.5050  145.0580 O   0  0  0  0  0  0  0  0  0  0  0  0
  193.1960  174.5840  142.3520 O   0  0  0  0  0  0  0  0  0  0  0  0
  196.1590  177.1680  144.4520 O   0  0  0  0  0  0  0  0  0  0  0  0
  195.1930  176.4310  144.3080 C   0  0  0  0  0  0  0  0  0  0  0  0
  193.9140  176.7820  145.0110 C   0  0  0  0  0  2  0  0  0  0  0  0
  194.1020  176.7330  146.5140 C   0  0  0  0  0  1  0  0  0  0  0  0
  188.9460  173.6370  142.1570 O   0  0  0  0  0  0  0  0  0  0  0  0
  189.2480  174.9820  141.8100 C   0  0  0  0  0  2  0  0  0  0  0  0
  186.5670  177.4170  145.3230 C   0  0  0  0  0  2  0  0  0  0  0  0
  187.8020  174.8320  139.2690 C   0  0  0  0  0  2  0  0  0  0  0  0
  184.5470  178.6670  144.5880 C   0  0  0  0  0  2  0  0  0  0  0  0
  186.0580  177.6510  142.8470 C   0  0  0  0  0  0  0  0  0  0  0  0
  185.0040  178.6870  143.1320 C   0  0  0  0  0  2  0  0  0  0  0  0
  185.7640  178.7020  145.5000 C   0  0  0  0  0  2  0  0  0  0  0  0
  186.8630  177.1140  143.8720 C   0  0  0  0  0  0  0  0  0  0  0  0
  187.2650  176.4330  141.1870 C   0  0  0  0  0  0  0  0  0  0  0  0
  187.0000  177.0520  138.7530 C   0  0  0  0  0  2  0  0  0  0  0  0
  186.2950  177.3120  141.5550 N   0  0  0  0  0  0  0  0  0  0  0  0
  187.0690  176.2820  137.4470 C   0  0  1  0  0  3  0  0  0  0  0  0
  187.8880  176.2120  143.5310 C   0  0  0  0  0  0  0  0  0  0  0  0
  187.7660  174.9610  137.7600 C   0  0  0  0  0  2  0  0  0  0  0  0
  188.0970  175.8670  142.1790 C   0  0  0  0  0  0  0  0  0  0  0  0
  187.4290  176.1340  139.7880 N   0  0  0  0  0  0  0  0  0  0  0  0
  185.6560  176.0280  136.9430 C   0  0  0  0  0  2  0  0  0  0  0  0
  185.5890  176.1450  135.4570 C   0  0  0  0  0  0  0  0  0  0  0  0
  184.5710  175.6720  134.8200 N   0  0  0  0  0  1  0  0  0  0  0  0
  186.5620  176.9150  134.7630 N   0  0  0  0  0  2  0  0  0  0  0  0
  188.7720  175.6400  144.6060 C   0  0  0  0  0  2  0  0  0  0  0  0
  190.5280  176.3900  146.0270 O   0  0  0  0  0  0  0  0  0  0  0  0
  189.8080  176.6290  145.0210 C   0  0  0  0  0  0  0  0  0  0  0  0
  189.9790  177.7990  144.2810 O   0  0  0  0  0  0  0  0  0  0  0  0
  191.0430  177.9490  143.3530 C   0  0  0  0  0  1  0  0  0  0  0  0
  2  3  2  0  0  0  0
  2  6  1  0  0  0  0
  3  5  1  0  0  0  0
  4  1  1  0  0  0  0
  5 30  1  0  0  0  0
  5  1  2  0  0  0  0
  6  4  2  0  0  0  0
  7  2  1  0  0  0  0
  8 10  1  0  0  0  0
  8  7  1  0  0  0  0
  9 12  1  1  0  0  0
 10  9  1  0  0  0  0
 11 10  1  0  0  0  0
 11  9  1  0  0  0  0
 12 14  1  0  0  0  0
 14 13  1  0  0  0  0
 14 17  1  0  0  0  0
 15 14  1  0  0  0  0
 16 21  1  0  0  0  0
 16 22  1  1  0  0  0
 17 23  1  6  0  0  0
 17 25  1  0  0  0  0
 17 19  1  0  0  0  0
 19 18  1  6  0  0  0
 19 21  1  0  0  0  0
 19 27  1  0  0  0  0
 20 16  1  0  0  0  0
 21 24  2  0  0  0  0
 25 16  1  0  0  0  0
 27 26  2  0  0  0  0
 27 28  1  0  0  0  0
 28 29  1  0  0  0  0
 31 30  1  0  0  0  0
 31 45  1  0  0  0  0
 32 37  1  0  0  0  0
 33 46  1  0  0  0  0
 34 37  1  0  0  0  0
 35 36  1  0  0  0  0
 35 38  1  0  0  0  0
 36 34  1  0  0  0  0
 38 32  1  0  0  0  0
 39 41  1  0  0  0  0
 39 45  2  0  0  0  0
 40 46  1  0  0  0  0
 41 35  2  0  0  0  0
 42 47  1  1  0  0  0
 42 44  1  0  0  0  0
 42 40  1  0  0  0  0
 43 38  2  0  0  0  0
 43 51  1  0  0  0  0
 44 33  1  0  0  0  0
 45 43  1  0  0  0  0
 46 39  1  0  0  0  0
 48 47  1  0  0  0  0
 49 48  1  0  0  0  0
 50 48  2  0  0  0  0
 51 53  1  0  0  0  0
 53 52  2  0  0  0  0
 54 53  1  0  0  0  0
 55 54  1  0  0  0  0
M  END
>  <MODEL>
7

>  <REMARK>
 VINA RESULT:      -6.7      3.146      5.923
  Name = 
  16 active torsions:
  status: ('A' for Active; 'I' for Inactive)
    1  A    between atoms: O_2  and  C_28
    2  A    between atoms: O_2  and  C_44
    3  A    between atoms: O_4  and  C_40
    4  A    between atoms: C_6  and  C_20
    5  A    between atoms: C_8  and  C_22
    6  A    between atoms: C_10  and  C_32
    7  A    between atoms: C_11  and  C_38
    8  A    between atoms: C_14  and  C_38
    9  A    between atoms: C_19  and  C_40
   10  A    between atoms: C_19  and  C_45
   11  A    between atoms: C_20  and  C_22
   12  A    between atoms: C_27  and  C_54
   13  A    between atoms: C_28  and  C_49
   14  A    between atoms: C_32  and  C_39
   15  A    between atoms: N_35  and  C_51
   16  A    between atoms: C_51  and  C_54
                            x       y       z     vdW  Elec       q    Type
                         _______ _______ _______ _____ _____    ______ ____

>  <TORSDO>
F 16

$$$$
=
 OpenBabel11052419473D

 55 60  0  0  1  0  0  0  0  0999 V2000
  196.7760  176.3210  142.2290 C   0  0  0  0  0  3  0  0  0  0  0  0
  195.8800  174.6050  144.2160 C   0  0  0  0  0  0  0  0  0  0  0  0
  196.1540  174.1000  142.9430 C   0  0  0  0  0  3  0  0  0  0  0  0
  196.4880  176.7910  143.5120 C   0  0  0  0  0  3  0  0  0  0  0  0
  196.6060  174.9670  141.9370 C   0  0  0  0  0  0  0  0  0  0  0  0
  196.0430  175.9330  144.4700 N   0  0  0  0  0  0  0  0  0  0  0  0
  195.3830  173.7020  145.2880 C   0  0  0  0  0  2  0  0  0  0  0  0
  193.8720  173.5930  145.2190 C   0  0  0  0  0  2  0  0  0  0  0  0
  191.9900  174.8300  145.8470 C   0  0  1  0  0  3  0  0  0  0  0  0
  193.2910  174.9240  145.1690 N   0  0  0  0  0  0  0  0  0  0  0  0
  193.1410  175.3700  146.5620 C   0  0  0  0  0  2  0  0  0  0  0  0
  191.0970  175.9730  145.3860 C   0  0  0  0  0  2  0  0  0  0  0  0
  189.9780  175.3570  147.4040 O   0  0  0  0  0  1  0  0  0  0  0  0
  189.8910  176.2170  146.3040 C   0  0  0  0  0  0  0  0  0  0  0  0
  189.9610  177.5290  146.7790 O   0  0  0  0  0  1  0  0  0  0  0  0
  186.7780  177.2510  146.4210 C   0  0  2  0  0  0  0  0  0  0  0  0
  188.5230  175.9920  145.5840 C   0  0  1  0  0  0  0  0  0  0  0  0
  189.3230  177.9170  144.0040 C   0  0  0  0  0  1  0  0  0  0  0  0
  188.1660  177.0100  144.4390 C   0  0  2  0  0  0  0  0  0  0  0  0
  187.1030  178.1260  147.4430 F   0  0  0  0  0  0  0  0  0  0  0  0
  187.1540  177.8290  145.1190 C   0  0  0  0  0  0  0  0  0  0  0  0
  185.2900  176.9540  146.4610 C   0  0  0  0  0  1  0  0  0  0  0  0
  188.5240  174.6980  145.0800 F   0  0  0  0  0  0  0  0  0  0  0  0
  186.6700  178.8550  144.6600 O   0  0  0  0  0  0  0  0  0  0  0  0
  187.5000  176.0490  146.5720 O   0  0  0  0  0  0  0  0  0  0  0  0
  186.3610  175.9440  143.3040 O   0  0  0  0  0  0  0  0  0  0  0  0
  187.5200  176.3300  143.2340 C   0  0  0  0  0  0  0  0  0  0  0  0
  188.2570  176.1530  141.9380 C   0  0  0  0  0  2  0  0  0  0  0  0
  187.4370  176.6890  140.7820 C   0  0  0  0  0  1  0  0  0  0  0  0
  196.8920  174.5090  140.6490 O   0  0  0  0  0  0  0  0  0  0  0  0
  196.0690  174.8080  139.5290 C   0  0  0  0  0  2  0  0  0  0  0  0
  196.7270  171.1170  136.1520 C   0  0  0  0  0  2  0  0  0  0  0  0
  193.3480  174.8020  140.6080 C   0  0  0  0  0  2  0  0  0  0  0  0
  194.9770  169.3590  135.9930 C   0  0  0  0  0  2  0  0  0  0  0  0
  194.8230  171.0750  137.8310 C   0  0  0  0  0  0  0  0  0  0  0  0
  194.4040  169.7060  137.3650 C   0  0  0  0  0  2  0  0  0  0  0  0
  196.4750  169.6210  135.9890 C   0  0  0  0  0  2  0  0  0  0  0  0
  195.9760  171.7080  137.3230 C   0  0  0  0  0  0  0  0  0  0  0  0
  194.4550  172.8600  139.3710 C   0  0  0  0  0  0  0  0  0  0  0  0
  192.8340  172.5400  141.2810 C   0  0  0  0  0  2  0  0  0  0  0  0
  194.1220  171.6550  138.8360 N   0  0  0  0  0  0  0  0  0  0  0  0
  191.9170  173.4620  142.0630 C   0  0  1  0  0  3  0  0  0  0  0  0
  196.3630  172.9500  137.8600 C   0  0  0  0  0  0  0  0  0  0  0  0
  192.3920  174.8850  141.7800 C   0  0  0  0  0  2  0  0  0  0  0  0
  195.6020  173.5340  138.8940 C   0  0  0  0  0  0  0  0  0  0  0  0
  193.6390  173.3930  140.4310 N   0  0  0  0  0  0  0  0  0  0  0  0
  190.4880  173.2750  141.5740 C   0  0  0  0  0  2  0  0  0  0  0  0
  189.6340  172.6710  142.6390 C   0  0  0  0  0  0  0  0  0  0  0  0
  188.3930  172.4120  142.3980 N   0  0  0  0  0  2  0  0  0  0  0  0
  190.2240  172.2320  143.8560 N   0  0  0  0  0  1  0  0  0  0  0  0
  197.6000  173.6360  137.3470 C   0  0  0  0  0  2  0  0  0  0  0  0
  197.4160  175.9000  136.6360 O   0  0  0  0  0  0  0  0  0  0  0  0
  197.2480  174.6840  136.3480 C   0  0  0  0  0  0  0  0  0  0  0  0
  196.7530  174.3070  135.0990 O   0  0  0  0  0  0  0  0  0  0  0  0
  195.3730  174.4050  134.7820 C   0  0  0  0  0  1  0  0  0  0  0  0
  1  4  1  0  0  0  0
  2  6  1  0  0  0  0
  2  7  1  0  0  0  0
  3  2  2  0  0  0  0
  4  6  2  0  0  0  0
  5  1  2  0  0  0  0
  5  3  1  0  0  0  0
  8  7  1  0  0  0  0
  9 12  1  6  0  0  0
  9 11  1  0  0  0  0
 10  8  1  0  0  0  0
 10  9  1  0  0  0  0
 10 11  1  0  0  0  0
 12 14  1  0  0  0  0
 14 15  1  0  0  0  0
 14 13  1  0  0  0  0
 16 22  1  1  0  0  0
 16 25  1  0  0  0  0
 16 20  1  0  0  0  0
 17 23  1  6  0  0  0
 17 14  1  0  0  0  0
 17 25  1  0  0  0  0
 19 18  1  6  0  0  0
 19 21  1  0  0  0  0
 19 17  1  0  0  0  0
 21 16  1  0  0  0  0
 24 21  2  0  0  0  0
 27 26  2  0  0  0  0
 27 19  1  0  0  0  0
 28 27  1  0  0  0  0
 29 28  1  0  0  0  0
 30  5  1  0  0  0  0
 31 30  1  0  0  0  0
 32 38  1  0  0  0  0
 33 44  1  0  0  0  0
 34 36  1  0  0  0  0
 35 41  1  0  0  0  0
 36 35  1  0  0  0  0
 37 34  1  0  0  0  0
 37 32  1  0  0  0  0
 38 35  2  0  0  0  0
 38 43  1  0  0  0  0
 39 46  1  0  0  0  0
 40 42  1  0  0  0  0
 41 39  2  0  0  0  0
 42 47  1  6  0  0  0
 43 45  2  0  0  0  0
 44 42  1  0  0  0  0
 45 39  1  0  0  0  0
 45 31  1  0  0  0  0
 46 33  1  0  0  0  0
 46 40  1  0  0  0  0
 47 48  1  0  0  0  0
 48 50  1  0  0  0  0
 49 48  2  0  0  0  0
 51 43  1  0  0  0  0
 53 52  2  0  0  0  0
 53 51  1  0  0  0  0
 54 53  1  0  0  0  0
 55 54  1  0  0  0  0
M  END
>  <MODEL>
8

>  <REMARK>
 VINA RESULT:      -6.6      3.292     10.213
  Name = 
  16 active torsions:
  status: ('A' for Active; 'I' for Inactive)
    1  A    between atoms: O_2  and  C_28
    2  A    between atoms: O_2  and  C_44
    3  A    between atoms: O_4  and  C_40
    4  A    between atoms: C_6  and  C_20
    5  A    between atoms: C_8  and  C_22
    6  A    between atoms: C_10  and  C_32
    7  A    between atoms: C_11  and  C_38
    8  A    between atoms: C_14  and  C_38
    9  A    between atoms: C_19  and  C_40
   10  A    between atoms: C_19  and  C_45
   11  A    between atoms: C_20  and  C_22
   12  A    between atoms: C_27  and  C_54
   13  A    between atoms: C_28  and  C_49
   14  A    between atoms: C_32  and  C_39
   15  A    between atoms: N_35  and  C_51
   16  A    between atoms: C_51  and  C_54
                            x       y       z     vdW  Elec       q    Type
                         _______ _______ _______ _____ _____    ______ ____

>  <TORSDO>
F 16

$$$$
=
 OpenBabel11052419473D

 55 60  0  0  1  0  0  0  0  0999 V2000
  193.2920  175.0790  146.2930 C   0  0  0  0  0  3  0  0  0  0  0  0
  194.8360  175.9770  144.1700 C   0  0  0  0  0  0  0  0  0  0  0  0
  193.5550  176.5020  144.3590 C   0  0  0  0  0  3  0  0  0  0  0  0
  194.5760  174.5750  146.0690 C   0  0  0  0  0  3  0  0  0  0  0  0
  192.7730  176.0470  145.4310 C   0  0  0  0  0  0  0  0  0  0  0  0
  195.3130  175.0250  145.0190 N   0  0  0  0  0  0  0  0  0  0  0  0
  195.6710  176.4360  143.0270 C   0  0  0  0  0  2  0  0  0  0  0  0
  194.8760  176.3620  141.7380 C   0  0  0  0  0  2  0  0  0  0  0  0
  194.6660  174.9060  139.9210 C   0  0  1  0  0  3  0  0  0  0  0  0
  194.6450  174.9700  141.3900 N   0  0  0  0  0  0  0  0  0  0  0  0
  195.8470  174.5100  140.6790 C   0  0  0  0  0  2  0  0  0  0  0  0
  193.9190  173.6620  139.4600 C   0  0  0  0  0  2  0  0  0  0  0  0
  192.9410  174.9280  137.6860 O   0  0  0  0  0  1  0  0  0  0  0  0
  193.5350  173.6950  137.9730 C   0  0  0  0  0  0  0  0  0  0  0  0
  194.7060  173.5960  137.2170 O   0  0  0  0  0  1  0  0  0  0  0  0
  190.3550  172.9080  138.1800 C   0  0  2  0  0  0  0  0  0  0  0  0
  192.5530  172.5470  137.5730 C   0  0  1  0  0  0  0  0  0  0  0  0
  192.2910  173.8870  135.3420 C   0  0  0  0  0  1  0  0  0  0  0  0
  191.7790  172.7370  136.2170 C   0  0  2  0  0  0  0  0  0  0  0  0
  190.0910  174.1210  138.7920 F   0  0  0  0  0  0  0  0  0  0  0  0
  190.4440  173.0840  136.7210 C   0  0  0  0  0  0  0  0  0  0  0  0
  189.2630  171.9140  138.5300 C   0  0  0  0  0  1  0  0  0  0  0  0
  193.2840  171.3670  137.5380 F   0  0  0  0  0  0  0  0  0  0  0  0
  189.5150  173.4590  136.0190 O   0  0  0  0  0  0  0  0  0  0  0  0
  191.5990  172.4100  138.6210 O   0  0  0  0  0  0  0  0  0  0  0  0
  192.5050  171.2040  134.5420 O   0  0  0  0  0  0  0  0  0  0  0  0
  191.6810  171.4410  135.4150 C   0  0  0  0  0  0  0  0  0  0  0  0
  190.6160  170.4200  135.6900 C   0  0  0  0  0  2  0  0  0  0  0  0
  191.1900  169.2480  136.4610 C   0  0  0  0  0  1  0  0  0  0  0  0
  191.4870  176.5410  145.6600 O   0  0  0  0  0  0  0  0  0  0  0  0
  190.3660  175.6910  145.8670 C   0  0  0  0  0  2  0  0  0  0  0  0
  186.5720  178.3540  143.8740 C   0  0  0  0  0  2  0  0  0  0  0  0
  190.6430  173.0820  144.5690 C   0  0  0  0  0  2  0  0  0  0  0  0
  185.5680  177.5400  141.7500 C   0  0  0  0  0  2  0  0  0  0  0  0
  187.6240  176.3960  142.6490 C   0  0  0  0  0  0  0  0  0  0  0  0
  186.7750  176.6620  141.4340 C   0  0  0  0  0  2  0  0  0  0  0  0
  186.0250  178.7740  142.5130 C   0  0  0  0  0  2  0  0  0  0  0  0
  187.5970  177.2480  143.7710 C   0  0  0  0  0  0  0  0  0  0  0  0
  189.3590  175.0780  143.6230 C   0  0  0  0  0  0  0  0  0  0  0  0
  190.6430  173.4500  142.1810 C   0  0  0  0  0  2  0  0  0  0  0  0
  188.5040  175.3650  142.6050 N   0  0  0  0  0  0  0  0  0  0  0  0
  191.3300  172.1210  142.4320 C   0  0  1  0  0  3  0  0  0  0  0  0
  188.4750  176.9930  144.8410 C   0  0  0  0  0  0  0  0  0  0  0  0
  191.5030  172.0020  143.9440 C   0  0  0  0  0  2  0  0  0  0  0  0
  189.3670  175.9030  144.7700 C   0  0  0  0  0  0  0  0  0  0  0  0
  190.2490  173.9550  143.4800 N   0  0  0  0  0  0  0  0  0  0  0  0
  190.4450  170.9970  141.9110 C   0  0  0  0  0  2  0  0  0  0  0  0
  191.2650  169.8190  141.5010 C   0  0  0  0  0  0  0  0  0  0  0  0
  191.4130  169.5440  140.2490 N   0  0  0  0  0  2  0  0  0  0  0  0
  192.0100  169.1010  142.4760 N   0  0  0  0  0  1  0  0  0  0  0  0
  188.4770  177.9000  146.0420 C   0  0  0  0  0  2  0  0  0  0  0  0
  187.0730  176.3320  147.1520 O   0  0  0  0  0  0  0  0  0  0  0  0
  187.3720  177.5440  146.9760 C   0  0  0  0  0  0  0  0  0  0  0  0
  186.6920  178.5550  147.6570 O   0  0  0  0  0  0  0  0  0  0  0  0
  185.3910  178.9720  147.2700 C   0  0  0  0  0  1  0  0  0  0  0  0
  2  3  2  0  0  0  0
  2  6  1  0  0  0  0
  3  5  1  0  0  0  0
  4  1  1  0  0  0  0
  5 30  1  0  0  0  0
  5  1  2  0  0  0  0
  6  4  2  0  0  0  0
  7  2  1  0  0  0  0
  8  7  1  0  0  0  0
  9 12  1  1  0  0  0
  9 11  1  0  0  0  0
  9 10  1  0  0  0  0
 10  8  1  0  0  0  0
 11 10  1  0  0  0  0
 13 14  1  0  0  0  0
 14 12  1  0  0  0  0
 15 14  1  0  0  0  0
 16 22  1  1  0  0  0
 16 25  1  0  0  0  0
 16 20  1  0  0  0  0
 17 23  1  6  0  0  0
 17 14  1  0  0  0  0
 17 25  1  0  0  0  0
 19 18  1  6  0  0  0
 19 21  1  0  0  0  0
 19 17  1  0  0  0  0
 21 16  1  0  0  0  0
 24 21  2  0  0  0  0
 26 27  2  0  0  0  0
 27 28  1  0  0  0  0
 27 19  1  0  0  0  0
 28 29  1  0  0  0  0
 30 31  1  0  0  0  0
 34 37  1  0  0  0  0
 35 38  1  0  0  0  0
 36 34  1  0  0  0  0
 36 35  1  0  0  0  0
 37 32  1  0  0  0  0
 38 32  1  0  0  0  0
 38 43  2  0  0  0  0
 39 45  2  0  0  0  0
 40 42  1  0  0  0  0
 40 46  1  0  0  0  0
 41 35  2  0  0  0  0
 41 39  1  0  0  0  0
 42 47  1  1  0  0  0
 42 44  1  0  0  0  0
 43 51  1  0  0  0  0
 44 33  1  0  0  0  0
 45 43  1  0  0  0  0
 45 31  1  0  0  0  0
 46 39  1  0  0  0  0
 46 33  1  0  0  0  0
 48 47  1  0  0  0  0
 48 50  1  0  0  0  0
 49 48  2  0  0  0  0
 51 53  1  0  0  0  0
 53 52  2  0  0  0  0
 53 54  1  0  0  0  0
 55 54  1  0  0  0  0
M  END
>  <MODEL>
9

>  <REMARK>
 VINA RESULT:      -6.5      2.901      6.088
  Name = 
  16 active torsions:
  status: ('A' for Active; 'I' for Inactive)
    1  A    between atoms: O_2  and  C_28
    2  A    between atoms: O_2  and  C_44
    3  A    between atoms: O_4  and  C_40
    4  A    between atoms: C_6  and  C_20
    5  A    between atoms: C_8  and  C_22
    6  A    between atoms: C_10  and  C_32
    7  A    between atoms: C_11  and  C_38
    8  A    between atoms: C_14  and  C_38
    9  A    between atoms: C_19  and  C_40
   10  A    between atoms: C_19  and  C_45
   11  A    between atoms: C_20  and  C_22
   12  A    between atoms: C_27  and  C_54
   13  A    between atoms: C_28  and  C_49
   14  A    between atoms: C_32  and  C_39
   15  A    between atoms: N_35  and  C_51
   16  A    between atoms: C_51  and  C_54
                            x       y       z     vdW  Elec       q    Type
                         _______ _______ _______ _____ _____    ______ ____

>  <TORSDO>
F 16

$$$$
