=
 OpenBabel11052417393D

 25 24  0  0  1  0  0  0  0  0999 V2000
  190.1250  175.4930  144.2500 C   0  0  1  0  0  3  0  0  0  0  0  0
  191.3420  173.8990  142.9320 O   0  0  0  0  0  0  0  0  0  0  0  0
  190.4260  174.1020  143.7760 C   0  0  0  0  0  0  0  0  0  0  0  0
  189.6560  173.0420  144.2570 O   0  0  0  0  0  0  0  0  0  0  0  0
  189.1550  172.0300  143.3980 C   0  0  0  0  0  1  0  0  0  0  0  0
  191.1990  176.0450  145.2090 C   0  0  1  0  0  3  0  0  0  0  0  0
  191.6640  175.0160  146.2440 C   0  0  0  0  0  2  0  0  0  0  0  0
  191.2790  175.4670  147.6390 C   0  0  0  0  0  1  0  0  0  0  0  0
  192.2770  176.6750  144.5410 O   0  0  0  0  0  0  0  0  0  0  0  0
  193.4120  175.8460  144.6140 C   0  0  0  0  0  2  0  0  0  0  0  0
  194.6430  177.5080  146.0510 C   0  0  0  0  0  1  0  0  0  0  0  0
  194.5920  176.6480  144.8830 N   0  0  0  0  0  0  0  0  0  0  0  0
  196.6820  176.4310  143.3420 C   0  0  0  0  0  3  0  0  0  0  0  0
  195.7140  176.5320  144.0550 C   0  0  0  0  0  0  0  0  0  0  0  0
  189.8360  176.4250  143.0710 C   0  0  0  0  0  2  0  0  0  0  0  0
  188.4660  175.8280  142.0240 S   0  0  0  0  0  0  0  0  0  0  0  0
  187.2050  176.4790  143.1550 C   0  0  0  0  0  2  0  0  0  0  0  0
  187.3790  177.9780  143.3100 C   0  0  0  0  0  2  0  0  0  0  0  0
  186.1490  178.7120  142.8070 C   0  0  0  0  0  2  0  0  0  0  0  0
  185.4800  179.8020  144.0980 S   0  0  0  0  0  0  0  0  0  0  0  0
  184.2350  178.5800  144.5960 C   0  0  0  0  0  2  0  0  0  0  0  0
  184.1800  178.5030  146.1070 C   0  0  0  0  0  2  0  0  0  0  0  0
  185.5830  178.3570  146.6540 C   0  0  0  0  0  2  0  0  0  0  0  0
  185.9370  176.8870  146.7510 C   0  0  0  0  0  2  0  0  0  0  0  0
  187.4390  176.7360  146.8520 C   0  0  0  0  0  1  0  0  0  0  0  0
  1 15  1  6  0  0  0
  1  6  1  0  0  0  0
  2  3  2  0  0  0  0
  3  1  1  0  0  0  0
  3  4  1  0  0  0  0
  5  4  1  0  0  0  0
  6  7  1  6  0  0  0
  7  8  1  0  0  0  0
  9 10  1  0  0  0  0
  9  6  1  0  0  0  0
 10 12  1  0  0  0  0
 12 11  1  0  0  0  0
 13 14  3  0  0  0  0
 14 12  1  0  0  0  0
 16 15  1  0  0  0  0
 16 17  1  0  0  0  0
 17 18  1  0  0  0  0
 19 18  1  0  0  0  0
 19 20  1  0  0  0  0
 20 21  1  0  0  0  0
 21 22  1  0  0  0  0
 22 23  1  0  0  0  0
 23 24  1  0  0  0  0
 24 25  1  0  0  0  0
M  END
>  <MODEL>
1

>  <REMARK>
 VINA RESULT:      -4.5      0.000      0.000
  Name = 
  18 active torsions:
  status: ('A' for Active; 'I' for Inactive)
    1  A    between atoms: C_1  and  C_3
    2  A    between atoms: C_1  and  C_18
    3  A    between atoms: C_1  and  C_24
    4  A    between atoms: C_2  and  C_7
    5  A    between atoms: C_2  and  C_25
    6  A    between atoms: C_3  and  S_16
    7  A    between atoms: O_4  and  C_18
    8  A    between atoms: O_4  and  C_19
    9  A    between atoms: S_6  and  C_15
   10  A    between atoms: S_6  and  C_21
   11  A    between atoms: N_10  and  C_11
   12  A    between atoms: N_10  and  C_19
   13  A    between atoms: O_13  and  C_24
   14  A    between atoms: C_15  and  C_20
   15  A    between atoms: S_16  and  C_23
   16  A    between atoms: C_17  and  C_18
   17  A    between atoms: C_20  and  C_23
   18  A    between atoms: C_21  and  C_25
                            x       y       z     vdW  Elec       q    Type
                         _______ _______ _______ _____ _____    ______ ____

>  <TORSDO>
F 18

$$$$
=
 OpenBabel11052417393D

 25 24  0  0  1  0  0  0  0  0999 V2000
  187.3900  176.8950  143.1820 C   0  0  1  0  0  3  0  0  0  0  0  0
  186.4210  179.0900  143.2000 O   0  0  0  0  0  0  0  0  0  0  0  0
  186.2400  177.8490  143.0590 C   0  0  0  0  0  0  0  0  0  0  0  0
  184.9620  177.3420  142.8220 O   0  0  0  0  0  0  0  0  0  0  0  0
  183.9230  178.1470  142.2890 C   0  0  0  0  0  1  0  0  0  0  0  0
  187.8840  176.7360  144.6340 C   0  0  1  0  0  3  0  0  0  0  0  0
  189.0720  177.6450  144.9660 C   0  0  0  0  0  2  0  0  0  0  0  0
  190.0520  177.6690  143.8100 C   0  0  0  0  0  1  0  0  0  0  0  0
  186.8450  176.8220  145.5930 O   0  0  0  0  0  0  0  0  0  0  0  0
  187.3370  177.4560  146.7490 C   0  0  0  0  0  2  0  0  0  0  0  0
  186.6750  179.2640  148.3730 C   0  0  0  0  0  1  0  0  0  0  0  0
  186.3590  178.4100  147.2420 N   0  0  0  0  0  0  0  0  0  0  0  0
  184.0870  178.6920  146.0000 C   0  0  0  0  0  3  0  0  0  0  0  0
  185.1390  178.5620  146.5750 C   0  0  0  0  0  0  0  0  0  0  0  0
  187.0730  175.5590  142.5060 C   0  0  0  0  0  2  0  0  0  0  0  0
  188.1840  175.2030  141.1020 S   0  0  0  0  0  0  0  0  0  0  0  0
  189.3040  174.2130  142.1320 C   0  0  0  0  0  2  0  0  0  0  0  0
  190.7420  174.6190  141.8620 C   0  0  0  0  0  2  0  0  0  0  0  0
  191.6860  173.8760  142.7910 C   0  0  0  0  0  2  0  0  0  0  0  0
  193.2740  174.7500  142.9210 S   0  0  0  0  0  0  0  0  0  0  0  0
  193.1710  174.8330  144.7300 C   0  0  0  0  0  2  0  0  0  0  0  0
  193.2800  176.2750  145.1770 C   0  0  0  0  0  2  0  0  0  0  0  0
  193.0900  176.3530  146.6760 C   0  0  0  0  0  2  0  0  0  0  0  0
  192.1620  175.2440  147.1250 C   0  0  0  0  0  2  0  0  0  0  0  0
  190.8680  175.8430  147.6310 C   0  0  0  0  0  1  0  0  0  0  0  0
  1 15  1  1  0  0  0
  1  6  1  0  0  0  0
  3  1  1  0  0  0  0
  3  2  2  0  0  0  0
  4  3  1  0  0  0  0
  5  4  1  0  0  0  0
  6  7  1  1  0  0  0
  6  9  1  0  0  0  0
  8  7  1  0  0  0  0
  9 10  1  0  0  0  0
 10 12  1  0  0  0  0
 12 11  1  0  0  0  0
 13 14  3  0  0  0  0
 14 12  1  0  0  0  0
 16 17  1  0  0  0  0
 16 15  1  0  0  0  0
 18 17  1  0  0  0  0
 18 19  1  0  0  0  0
 19 20  1  0  0  0  0
 20 21  1  0  0  0  0
 21 22  1  0  0  0  0
 22 23  1  0  0  0  0
 23 24  1  0  0  0  0
 24 25  1  0  0  0  0
M  END
>  <MODEL>
2

>  <REMARK>
 VINA RESULT:      -4.5      3.235      7.075
  Name = 
  18 active torsions:
  status: ('A' for Active; 'I' for Inactive)
    1  A    between atoms: C_1  and  C_3
    2  A    between atoms: C_1  and  C_18
    3  A    between atoms: C_1  and  C_24
    4  A    between atoms: C_2  and  C_7
    5  A    between atoms: C_2  and  C_25
    6  A    between atoms: C_3  and  S_16
    7  A    between atoms: O_4  and  C_18
    8  A    between atoms: O_4  and  C_19
    9  A    between atoms: S_6  and  C_15
   10  A    between atoms: S_6  and  C_21
   11  A    between atoms: N_10  and  C_11
   12  A    between atoms: N_10  and  C_19
   13  A    between atoms: O_13  and  C_24
   14  A    between atoms: C_15  and  C_20
   15  A    between atoms: S_16  and  C_23
   16  A    between atoms: C_17  and  C_18
   17  A    between atoms: C_20  and  C_23
   18  A    between atoms: C_21  and  C_25
                            x       y       z     vdW  Elec       q    Type
                         _______ _______ _______ _____ _____    ______ ____

>  <TORSDO>
F 18

$$$$
=
 OpenBabel11052417393D

 25 24  0  0  1  0  0  0  0  0999 V2000
  191.7960  176.1750  145.0240 C   0  0  1  0  0  3  0  0  0  0  0  0
  191.1170  173.8850  145.2620 O   0  0  0  0  0  0  0  0  0  0  0  0
  191.4270  174.9670  145.8340 C   0  0  0  0  0  0  0  0  0  0  0  0
  191.3980  175.0680  147.2250 O   0  0  0  0  0  0  0  0  0  0  0  0
  191.1600  176.3030  147.8830 C   0  0  0  0  0  1  0  0  0  0  0  0
  193.2580  176.1430  144.5340 C   0  0  1  0  0  3  0  0  0  0  0  0
  194.1210  177.2500  145.1480 C   0  0  0  0  0  2  0  0  0  0  0  0
  194.4530  176.9150  146.5890 C   0  0  0  0  0  1  0  0  0  0  0  0
  193.8560  174.8630  144.6360 O   0  0  0  0  0  0  0  0  0  0  0  0
  194.5350  174.5750  143.4380 C   0  0  0  0  0  2  0  0  0  0  0  0
  196.9280  174.4880  142.6550 C   0  0  0  0  0  1  0  0  0  0  0  0
  195.9430  174.3460  143.7120 N   0  0  0  0  0  0  0  0  0  0  0  0
  196.7190  173.8190  146.1430 C   0  0  0  0  0  3  0  0  0  0  0  0
  196.3600  174.0630  145.0170 C   0  0  0  0  0  0  0  0  0  0  0  0
  190.7890  176.4110  143.8960 C   0  0  0  0  0  2  0  0  0  0  0  0
  189.4270  177.5200  144.3930 S   0  0  0  0  0  0  0  0  0  0  0  0
  188.3100  176.1310  144.7370 C   0  0  0  0  0  2  0  0  0  0  0  0
  187.0940  176.6270  145.4980 C   0  0  0  0  0  2  0  0  0  0  0  0
  187.4940  177.1160  146.8790 C   0  0  0  0  0  2  0  0  0  0  0  0
  186.1490  178.0790  147.6310 S   0  0  0  0  0  0  0  0  0  0  0  0
  184.9410  177.4960  146.4090 C   0  0  0  0  0  2  0  0  0  0  0  0
  184.0200  178.6350  146.0270 C   0  0  0  0  0  2  0  0  0  0  0  0
  184.1380  178.8990  144.5420 C   0  0  0  0  0  2  0  0  0  0  0  0
  185.4060  179.6800  144.2670 C   0  0  0  0  0  2  0  0  0  0  0  0
  186.0690  179.1420  143.0180 C   0  0  0  0  0  1  0  0  0  0  0  0
  1 15  1  6  0  0  0
  1  3  1  0  0  0  0
  2  3  2  0  0  0  0
  3  4  1  0  0  0  0
  4  5  1  0  0  0  0
  6  9  1  0  0  0  0
  6  1  1  0  0  0  0
  6  7  1  1  0  0  0
  7  8  1  0  0  0  0
 10 12  1  0  0  0  0
 10  9  1  0  0  0  0
 11 12  1  0  0  0  0
 12 14  1  0  0  0  0
 14 13  3  0  0  0  0
 15 16  1  0  0  0  0
 16 17  1  0  0  0  0
 17 18  1  0  0  0  0
 18 19  1  0  0  0  0
 19 20  1  0  0  0  0
 21 20  1  0  0  0  0
 22 21  1  0  0  0  0
 23 22  1  0  0  0  0
 24 23  1  0  0  0  0
 25 24  1  0  0  0  0
M  END
>  <MODEL>
3

>  <REMARK>
 VINA RESULT:      -4.4      1.977      3.330
  Name = 
  18 active torsions:
  status: ('A' for Active; 'I' for Inactive)
    1  A    between atoms: C_1  and  C_3
    2  A    between atoms: C_1  and  C_18
    3  A    between atoms: C_1  and  C_24
    4  A    between atoms: C_2  and  C_7
    5  A    between atoms: C_2  and  C_25
    6  A    between atoms: C_3  and  S_16
    7  A    between atoms: O_4  and  C_18
    8  A    between atoms: O_4  and  C_19
    9  A    between atoms: S_6  and  C_15
   10  A    between atoms: S_6  and  C_21
   11  A    between atoms: N_10  and  C_11
   12  A    between atoms: N_10  and  C_19
   13  A    between atoms: O_13  and  C_24
   14  A    between atoms: C_15  and  C_20
   15  A    between atoms: S_16  and  C_23
   16  A    between atoms: C_17  and  C_18
   17  A    between atoms: C_20  and  C_23
   18  A    between atoms: C_21  and  C_25
                            x       y       z     vdW  Elec       q    Type
                         _______ _______ _______ _____ _____    ______ ____

>  <TORSDO>
F 18

$$$$
=
 OpenBabel11052417393D

 25 24  0  0  1  0  0  0  0  0999 V2000
  191.7940  175.3220  144.7420 C   0  0  1  0  0  3  0  0  0  0  0  0
  192.5340  176.1640  142.6200 O   0  0  0  0  0  0  0  0  0  0  0  0
  192.0840  176.4270  143.7710 C   0  0  0  0  0  0  0  0  0  0  0  0
  191.8820  177.7490  144.1680 O   0  0  0  0  0  0  0  0  0  0  0  0
  190.8280  178.5380  143.6390 C   0  0  0  0  0  1  0  0  0  0  0  0
  192.5050  175.5140  146.0970 C   0  0  1  0  0  3  0  0  0  0  0  0
  191.5680  175.3370  147.2970 C   0  0  0  0  0  2  0  0  0  0  0  0
  191.4070  176.6520  148.0340 C   0  0  0  0  0  1  0  0  0  0  0  0
  193.6970  174.7590  146.2180 O   0  0  0  0  0  0  0  0  0  0  0  0
  194.7970  175.6360  146.2380 C   0  0  0  0  0  2  0  0  0  0  0  0
  196.6310  174.0350  145.5890 C   0  0  0  0  0  1  0  0  0  0  0  0
  195.8010  175.1880  145.2890 N   0  0  0  0  0  0  0  0  0  0  0  0
  196.0150  176.3700  142.9770 C   0  0  0  0  0  3  0  0  0  0  0  0
  195.9160  175.8230  144.0480 C   0  0  0  0  0  0  0  0  0  0  0  0
  190.2870  175.0920  144.8810 C   0  0  0  0  0  2  0  0  0  0  0  0
  189.4740  174.7830  143.2770 S   0  0  0  0  0  0  0  0  0  0  0  0
  188.1670  175.9970  143.6100 C   0  0  0  0  0  2  0  0  0  0  0  0
  187.0050  175.7760  142.6600 C   0  0  0  0  0  2  0  0  0  0  0  0
  187.0490  176.7810  141.5220 C   0  0  0  0  0  2  0  0  0  0  0  0
  186.6020  178.4390  142.1160 S   0  0  0  0  0  0  0  0  0  0  0  0
  184.8800  177.9540  142.4160 C   0  0  0  0  0  2  0  0  0  0  0  0
  184.4250  178.5040  143.7500 C   0  0  0  0  0  2  0  0  0  0  0  0
  185.6340  178.7760  144.6200 C   0  0  0  0  0  2  0  0  0  0  0  0
  185.5670  177.9110  145.8610 C   0  0  0  0  0  2  0  0  0  0  0  0
  184.3590  178.3020  146.6840 C   0  0  0  0  0  1  0  0  0  0  0  0
  1 15  1  1  0  0  0
  1  6  1  0  0  0  0
  2  3  2  0  0  0  0
  3  4  1  0  0  0  0
  3  1  1  0  0  0  0
  5  4  1  0  0  0  0
  6  9  1  0  0  0  0
  6  7  1  1  0  0  0
  7  8  1  0  0  0  0
  9 10  1  0  0  0  0
 12 11  1  0  0  0  0
 12 10  1  0  0  0  0
 13 14  3  0  0  0  0
 14 12  1  0  0  0  0
 16 17  1  0  0  0  0
 16 15  1  0  0  0  0
 18 17  1  0  0  0  0
 19 20  1  0  0  0  0
 19 18  1  0  0  0  0
 20 21  1  0  0  0  0
 21 22  1  0  0  0  0
 22 23  1  0  0  0  0
 23 24  1  0  0  0  0
 24 25  1  0  0  0  0
M  END
>  <MODEL>
4

>  <REMARK>
 VINA RESULT:      -4.3      1.893      2.745
  Name = 
  18 active torsions:
  status: ('A' for Active; 'I' for Inactive)
    1  A    between atoms: C_1  and  C_3
    2  A    between atoms: C_1  and  C_18
    3  A    between atoms: C_1  and  C_24
    4  A    between atoms: C_2  and  C_7
    5  A    between atoms: C_2  and  C_25
    6  A    between atoms: C_3  and  S_16
    7  A    between atoms: O_4  and  C_18
    8  A    between atoms: O_4  and  C_19
    9  A    between atoms: S_6  and  C_15
   10  A    between atoms: S_6  and  C_21
   11  A    between atoms: N_10  and  C_11
   12  A    between atoms: N_10  and  C_19
   13  A    between atoms: O_13  and  C_24
   14  A    between atoms: C_15  and  C_20
   15  A    between atoms: S_16  and  C_23
   16  A    between atoms: C_17  and  C_18
   17  A    between atoms: C_20  and  C_23
   18  A    between atoms: C_21  and  C_25
                            x       y       z     vdW  Elec       q    Type
                         _______ _______ _______ _____ _____    ______ ____

>  <TORSDO>
F 18

$$$$
=
 OpenBabel11052417393D

 25 24  0  0  1  0  0  0  0  0999 V2000
  191.8330  175.5220  143.9570 C   0  0  1  0  0  3  0  0  0  0  0  0
  191.3910  174.0370  142.1250 O   0  0  0  0  0  0  0  0  0  0  0  0
  191.4050  174.2080  143.3750 C   0  0  0  0  0  0  0  0  0  0  0  0
  190.9900  173.1900  144.2350 O   0  0  0  0  0  0  0  0  0  0  0  0
  191.7010  171.9670  144.3460 C   0  0  0  0  0  1  0  0  0  0  0  0
  193.2600  175.4820  144.5420 C   0  0  1  0  0  3  0  0  0  0  0  0
  193.2820  175.5250  146.0730 C   0  0  0  0  0  2  0  0  0  0  0  0
  194.1950  176.6370  146.5510 C   0  0  0  0  0  1  0  0  0  0  0  0
  194.0540  174.4350  144.0130 O   0  0  0  0  0  0  0  0  0  0  0  0
  194.9270  174.9630  143.0450 C   0  0  0  0  0  2  0  0  0  0  0  0
  196.7570  176.6690  143.3390 C   0  0  0  0  0  1  0  0  0  0  0  0
  196.1640  175.3870  143.6760 N   0  0  0  0  0  0  0  0  0  0  0  0
  197.2470  173.9070  145.5270 C   0  0  0  0  0  3  0  0  0  0  0  0
  196.7450  174.5920  144.6700 C   0  0  0  0  0  0  0  0  0  0  0  0
  191.6260  176.6610  142.9570 C   0  0  0  0  0  2  0  0  0  0  0  0
  190.3380  177.8380  143.4920 S   0  0  0  0  0  0  0  0  0  0  0  0
  189.0500  176.9970  142.5280 C   0  0  0  0  0  2  0  0  0  0  0  0
  187.6830  177.3350  143.0920 C   0  0  0  0  0  2  0  0  0  0  0  0
  186.5920  176.9550  142.1060 C   0  0  0  0  0  2  0  0  0  0  0  0
  185.2090  178.1300  142.1980 S   0  0  0  0  0  0  0  0  0  0  0  0
  185.9760  179.0500  143.5600 C   0  0  0  0  0  2  0  0  0  0  0  0
  184.9070  179.7930  144.3320 C   0  0  0  0  0  2  0  0  0  0  0  0
  184.2380  178.8440  145.3030 C   0  0  0  0  0  2  0  0  0  0  0  0
  185.2590  178.3390  146.3010 C   0  0  0  0  0  2  0  0  0  0  0  0
  185.1850  176.8290  146.3770 C   0  0  0  0  0  1  0  0  0  0  0  0
  1 15  1  6  0  0  0
  1  6  1  0  0  0  0
  2  3  2  0  0  0  0
  3  1  1  0  0  0  0
  3  4  1  0  0  0  0
  4  5  1  0  0  0  0
  6  7  1  1  0  0  0
  7  8  1  0  0  0  0
  9  6  1  0  0  0  0
 10 12  1  0  0  0  0
 10  9  1  0  0  0  0
 11 12  1  0  0  0  0
 12 14  1  0  0  0  0
 14 13  3  0  0  0  0
 15 16  1  0  0  0  0
 17 18  1  0  0  0  0
 17 16  1  0  0  0  0
 19 20  1  0  0  0  0
 19 18  1  0  0  0  0
 20 21  1  0  0  0  0
 21 22  1  0  0  0  0
 22 23  1  0  0  0  0
 23 24  1  0  0  0  0
 24 25  1  0  0  0  0
M  END
>  <MODEL>
5

>  <REMARK>
 VINA RESULT:      -4.2      1.764      2.290
  Name = 
  18 active torsions:
  status: ('A' for Active; 'I' for Inactive)
    1  A    between atoms: C_1  and  C_3
    2  A    between atoms: C_1  and  C_18
    3  A    between atoms: C_1  and  C_24
    4  A    between atoms: C_2  and  C_7
    5  A    between atoms: C_2  and  C_25
    6  A    between atoms: C_3  and  S_16
    7  A    between atoms: O_4  and  C_18
    8  A    between atoms: O_4  and  C_19
    9  A    between atoms: S_6  and  C_15
   10  A    between atoms: S_6  and  C_21
   11  A    between atoms: N_10  and  C_11
   12  A    between atoms: N_10  and  C_19
   13  A    between atoms: O_13  and  C_24
   14  A    between atoms: C_15  and  C_20
   15  A    between atoms: S_16  and  C_23
   16  A    between atoms: C_17  and  C_18
   17  A    between atoms: C_20  and  C_23
   18  A    between atoms: C_21  and  C_25
                            x       y       z     vdW  Elec       q    Type
                         _______ _______ _______ _____ _____    ______ ____

>  <TORSDO>
F 18

$$$$
=
 OpenBabel11052417393D

 25 24  0  0  1  0  0  0  0  0999 V2000
  191.7270  175.1360  144.5200 C   0  0  1  0  0  3  0  0  0  0  0  0
  193.4280  173.4920  144.1150 O   0  0  0  0  0  0  0  0  0  0  0  0
  193.1500  174.6630  144.4960 C   0  0  0  0  0  0  0  0  0  0  0  0
  194.1570  175.5240  144.9340 O   0  0  0  0  0  0  0  0  0  0  0  0
  195.2450  175.8910  144.1000 C   0  0  0  0  0  1  0  0  0  0  0  0
  190.8270  174.2790  145.4330 C   0  0  1  0  0  3  0  0  0  0  0  0
  190.4860  174.9690  146.7580 C   0  0  0  0  0  2  0  0  0  0  0  0
  188.9890  174.9410  146.9910 C   0  0  0  0  0  1  0  0  0  0  0  0
  189.6830  173.7670  144.7730 O   0  0  0  0  0  0  0  0  0  0  0  0
  189.8870  172.4050  144.4880 C   0  0  0  0  0  2  0  0  0  0  0  0
  188.7140  173.0250  142.3460 C   0  0  0  0  0  1  0  0  0  0  0  0
  189.6010  172.1460  143.0870 N   0  0  0  0  0  0  0  0  0  0  0  0
  190.7990  170.1820  141.8640 C   0  0  0  0  0  3  0  0  0  0  0  0
  190.2440  171.0910  142.4300 C   0  0  0  0  0  0  0  0  0  0  0  0
  191.6490  176.6320  144.8310 C   0  0  0  0  0  2  0  0  0  0  0  0
  190.9670  177.6020  143.4440 S   0  0  0  0  0  0  0  0  0  0  0  0
  189.2760  177.5040  144.0980 C   0  0  0  0  0  2  0  0  0  0  0  0
  188.4420  176.5830  143.2280 C   0  0  0  0  0  2  0  0  0  0  0  0
  186.9720  176.9550  143.3160 C   0  0  0  0  0  2  0  0  0  0  0  0
  186.5580  178.2230  142.0820 S   0  0  0  0  0  0  0  0  0  0  0  0
  185.5150  179.1360  143.2530 C   0  0  0  0  0  2  0  0  0  0  0  0
  184.9570  178.1790  144.2840 C   0  0  0  0  0  2  0  0  0  0  0  0
  184.5150  178.9570  145.5040 C   0  0  0  0  0  2  0  0  0  0  0  0
  184.3730  178.0130  146.6800 C   0  0  0  0  0  2  0  0  0  0  0  0
  185.4820  176.9840  146.6380 C   0  0  0  0  0  1  0  0  0  0  0  0
  1 15  1  1  0  0  0
  1  6  1  0  0  0  0
  2  3  2  0  0  0  0
  3  1  1  0  0  0  0
  3  4  1  0  0  0  0
  5  4  1  0  0  0  0
  6  7  1  1  0  0  0
  7  8  1  0  0  0  0
  9  6  1  0  0  0  0
 10  9  1  0  0  0  0
 11 12  1  0  0  0  0
 12 10  1  0  0  0  0
 13 14  3  0  0  0  0
 14 12  1  0  0  0  0
 16 17  1  0  0  0  0
 16 15  1  0  0  0  0
 18 19  1  0  0  0  0
 18 17  1  0  0  0  0
 20 21  1  0  0  0  0
 20 19  1  0  0  0  0
 21 22  1  0  0  0  0
 22 23  1  0  0  0  0
 23 24  1  0  0  0  0
 25 24  1  0  0  0  0
M  END
>  <MODEL>
6

>  <REMARK>
 VINA RESULT:      -4.2      2.153      4.286
  Name = 
  18 active torsions:
  status: ('A' for Active; 'I' for Inactive)
    1  A    between atoms: C_1  and  C_3
    2  A    between atoms: C_1  and  C_18
    3  A    between atoms: C_1  and  C_24
    4  A    between atoms: C_2  and  C_7
    5  A    between atoms: C_2  and  C_25
    6  A    between atoms: C_3  and  S_16
    7  A    between atoms: O_4  and  C_18
    8  A    between atoms: O_4  and  C_19
    9  A    between atoms: S_6  and  C_15
   10  A    between atoms: S_6  and  C_21
   11  A    between atoms: N_10  and  C_11
   12  A    between atoms: N_10  and  C_19
   13  A    between atoms: O_13  and  C_24
   14  A    between atoms: C_15  and  C_20
   15  A    between atoms: S_16  and  C_23
   16  A    between atoms: C_17  and  C_18
   17  A    between atoms: C_20  and  C_23
   18  A    between atoms: C_21  and  C_25
                            x       y       z     vdW  Elec       q    Type
                         _______ _______ _______ _____ _____    ______ ____

>  <TORSDO>
F 18

$$$$
=
 OpenBabel11052417393D

 25 24  0  0  1  0  0  0  0  0999 V2000
  186.4680  177.6950  143.4560 C   0  0  1  0  0  3  0  0  0  0  0  0
  184.7350  179.3510  143.5760 O   0  0  0  0  0  0  0  0  0  0  0  0
  185.2090  178.3500  142.9700 C   0  0  0  0  0  0  0  0  0  0  0  0
  184.5530  177.8150  141.8610 O   0  0  0  0  0  0  0  0  0  0  0  0
  183.2290  178.1940  141.5190 C   0  0  0  0  0  1  0  0  0  0  0  0
  186.6430  177.7950  144.9850 C   0  0  1  0  0  3  0  0  0  0  0  0
  185.9140  176.6830  145.7460 C   0  0  0  0  0  2  0  0  0  0  0  0
  184.7300  177.2550  146.5010 C   0  0  0  0  0  1  0  0  0  0  0  0
  187.9940  177.9380  145.3870 O   0  0  0  0  0  0  0  0  0  0  0  0
  188.4010  176.7710  146.0590 C   0  0  0  0  0  2  0  0  0  0  0  0
  190.5980  177.2810  144.9370 C   0  0  0  0  0  1  0  0  0  0  0  0
  189.8470  176.6520  146.0090 N   0  0  0  0  0  0  0  0  0  0  0  0
  191.1120  175.4300  147.9320 C   0  0  0  0  0  3  0  0  0  0  0  0
  190.5260  175.9960  147.0410 C   0  0  0  0  0  0  0  0  0  0  0  0
  186.5820  176.2630  142.9310 C   0  0  0  0  0  2  0  0  0  0  0  0
  187.9150  176.0720  141.6990 S   0  0  0  0  0  0  0  0  0  0  0  0
  188.4830  174.5120  142.4310 C   0  0  0  0  0  2  0  0  0  0  0  0
  189.6800  173.9870  141.6590 C   0  0  0  0  0  2  0  0  0  0  0  0
  190.9740  174.4170  142.3280 C   0  0  0  0  0  2  0  0  0  0  0  0
  191.1040  173.6970  143.9920 S   0  0  0  0  0  0  0  0  0  0  0  0
  192.9170  173.6760  143.9280 C   0  0  0  0  0  2  0  0  0  0  0  0
  193.4680  174.6850  144.9120 C   0  0  0  0  0  2  0  0  0  0  0  0
  193.9620  175.9020  144.1590 C   0  0  0  0  0  2  0  0  0  0  0  0
  194.7450  176.7940  145.1000 C   0  0  0  0  0  2  0  0  0  0  0  0
  194.1790  176.6720  146.4980 C   0  0  0  0  0  1  0  0  0  0  0  0
  1 15  1  1  0  0  0
  1  6  1  0  0  0  0
  3  1  1  0  0  0  0
  3  2  2  0  0  0  0
  4  3  1  0  0  0  0
  5  4  1  0  0  0  0
  6  9  1  0  0  0  0
  6  7  1  1  0  0  0
  7  8  1  0  0  0  0
  9 10  1  0  0  0  0
 11 12  1  0  0  0  0
 12 10  1  0  0  0  0
 12 14  1  0  0  0  0
 14 13  3  0  0  0  0
 16 17  1  0  0  0  0
 16 15  1  0  0  0  0
 18 19  1  0  0  0  0
 18 17  1  0  0  0  0
 19 20  1  0  0  0  0
 21 20  1  0  0  0  0
 21 22  1  0  0  0  0
 23 22  1  0  0  0  0
 23 24  1  0  0  0  0
 24 25  1  0  0  0  0
M  END
>  <MODEL>
7

>  <REMARK>
 VINA RESULT:      -4.2      3.009      6.690
  Name = 
  18 active torsions:
  status: ('A' for Active; 'I' for Inactive)
    1  A    between atoms: C_1  and  C_3
    2  A    between atoms: C_1  and  C_18
    3  A    between atoms: C_1  and  C_24
    4  A    between atoms: C_2  and  C_7
    5  A    between atoms: C_2  and  C_25
    6  A    between atoms: C_3  and  S_16
    7  A    between atoms: O_4  and  C_18
    8  A    between atoms: O_4  and  C_19
    9  A    between atoms: S_6  and  C_15
   10  A    between atoms: S_6  and  C_21
   11  A    between atoms: N_10  and  C_11
   12  A    between atoms: N_10  and  C_19
   13  A    between atoms: O_13  and  C_24
   14  A    between atoms: C_15  and  C_20
   15  A    between atoms: S_16  and  C_23
   16  A    between atoms: C_17  and  C_18
   17  A    between atoms: C_20  and  C_23
   18  A    between atoms: C_21  and  C_25
                            x       y       z     vdW  Elec       q    Type
                         _______ _______ _______ _____ _____    ______ ____

>  <TORSDO>
F 18

$$$$
=
 OpenBabel11052417393D

 25 24  0  0  1  0  0  0  0  0999 V2000
  191.1050  177.0620  145.0580 C   0  0  1  0  0  3  0  0  0  0  0  0
  189.8410  177.4960  147.0510 O   0  0  0  0  0  0  0  0  0  0  0  0
  190.2870  176.6370  146.2410 C   0  0  0  0  0  0  0  0  0  0  0  0
  190.0550  175.2770  146.4500 O   0  0  0  0  0  0  0  0  0  0  0  0
  188.9930  174.8160  147.2710 C   0  0  0  0  0  1  0  0  0  0  0  0
  191.8140  175.8800  144.3650 C   0  0  1  0  0  3  0  0  0  0  0  0
  191.9580  176.0710  142.8520 C   0  0  0  0  0  2  0  0  0  0  0  0
  191.2830  174.9310  142.1150 C   0  0  0  0  0  1  0  0  0  0  0  0
  193.0320  175.5130  144.9880 O   0  0  0  0  0  0  0  0  0  0  0  0
  193.0830  174.1130  145.1100 C   0  0  0  0  0  2  0  0  0  0  0  0
  194.3960  173.0570  143.2370 C   0  0  0  0  0  1  0  0  0  0  0  0
  194.3390  173.6170  144.5760 N   0  0  0  0  0  0  0  0  0  0  0  0
  196.5270  173.8660  145.9690 C   0  0  0  0  0  3  0  0  0  0  0  0
  195.5140  173.7510  145.3240 C   0  0  0  0  0  0  0  0  0  0  0  0
  190.2780  177.9150  144.0940 C   0  0  0  0  0  2  0  0  0  0  0  0
  188.5720  177.2960  143.8960 S   0  0  0  0  0  0  0  0  0  0  0  0
  188.6000  177.5470  142.0990 C   0  0  0  0  0  2  0  0  0  0  0  0
  187.1840  177.7340  141.5840 C   0  0  0  0  0  2  0  0  0  0  0  0
  186.1840  177.1170  142.5460 C   0  0  0  0  0  2  0  0  0  0  0  0
  184.6050  178.0150  142.4900 S   0  0  0  0  0  0  0  0  0  0  0  0
  185.1840  179.2660  143.6690 C   0  0  0  0  0  2  0  0  0  0  0  0
  184.4730  179.0800  144.9920 C   0  0  0  0  0  2  0  0  0  0  0  0
  185.4720  179.2040  146.1210 C   0  0  0  0  0  2  0  0  0  0  0  0
  185.2740  178.0630  147.0980 C   0  0  0  0  0  2  0  0  0  0  0  0
  185.8410  176.7900  146.5070 C   0  0  0  0  0  1  0  0  0  0  0  0
  1 15  1  6  0  0  0
  1  3  1  0  0  0  0
  3  4  1  0  0  0  0
  3  2  2  0  0  0  0
  4  5  1  0  0  0  0
  6  7  1  6  0  0  0
  6  9  1  0  0  0  0
  6  1  1  0  0  0  0
  8  7  1  0  0  0  0
  9 10  1  0  0  0  0
 11 12  1  0  0  0  0
 12 10  1  0  0  0  0
 12 14  1  0  0  0  0
 14 13  3  0  0  0  0
 16 15  1  0  0  0  0
 17 16  1  0  0  0  0
 18 17  1  0  0  0  0
 18 19  1  0  0  0  0
 20 19  1  0  0  0  0
 20 21  1  0  0  0  0
 21 22  1  0  0  0  0
 22 23  1  0  0  0  0
 23 24  1  0  0  0  0
 25 24  1  0  0  0  0
M  END
>  <MODEL>
8

>  <REMARK>
 VINA RESULT:      -4.2      2.262      3.011
  Name = 
  18 active torsions:
  status: ('A' for Active; 'I' for Inactive)
    1  A    between atoms: C_1  and  C_3
    2  A    between atoms: C_1  and  C_18
    3  A    between atoms: C_1  and  C_24
    4  A    between atoms: C_2  and  C_7
    5  A    between atoms: C_2  and  C_25
    6  A    between atoms: C_3  and  S_16
    7  A    between atoms: O_4  and  C_18
    8  A    between atoms: O_4  and  C_19
    9  A    between atoms: S_6  and  C_15
   10  A    between atoms: S_6  and  C_21
   11  A    between atoms: N_10  and  C_11
   12  A    between atoms: N_10  and  C_19
   13  A    between atoms: O_13  and  C_24
   14  A    between atoms: C_15  and  C_20
   15  A    between atoms: S_16  and  C_23
   16  A    between atoms: C_17  and  C_18
   17  A    between atoms: C_20  and  C_23
   18  A    between atoms: C_21  and  C_25
                            x       y       z     vdW  Elec       q    Type
                         _______ _______ _______ _____ _____    ______ ____

>  <TORSDO>
F 18

$$$$
=
 OpenBabel11052417393D

 25 24  0  0  1  0  0  0  0  0999 V2000
  191.9670  175.8550  145.6040 C   0  0  1  0  0  3  0  0  0  0  0  0
  191.6790  175.2990  147.9210 O   0  0  0  0  0  0  0  0  0  0  0  0
  191.1620  175.7630  146.8660 C   0  0  0  0  0  0  0  0  0  0  0  0
  189.8260  176.1640  146.8480 O   0  0  0  0  0  0  0  0  0  0  0  0
  189.4350  177.4830  147.1970 C   0  0  0  0  0  1  0  0  0  0  0  0
  193.2510  175.0030  145.6490 C   0  0  1  0  0  3  0  0  0  0  0  0
  193.2610  173.8780  144.6090 C   0  0  0  0  0  2  0  0  0  0  0  0
  193.7020  172.5770  145.2510 C   0  0  0  0  0  1  0  0  0  0  0  0
  194.4380  175.7760  145.6300 O   0  0  0  0  0  0  0  0  0  0  0  0
  194.7190  176.1570  144.3060 C   0  0  0  0  0  2  0  0  0  0  0  0
  196.8520  176.7790  143.1200 C   0  0  0  0  0  1  0  0  0  0  0  0
  196.1130  175.8920  144.0010 N   0  0  0  0  0  0  0  0  0  0  0  0
  197.3340  173.8990  145.1530 C   0  0  0  0  0  3  0  0  0  0  0  0
  196.7690  174.8220  144.6200 C   0  0  0  0  0  0  0  0  0  0  0  0
  191.1000  175.5710  144.3760 C   0  0  0  0  0  2  0  0  0  0  0  0
  190.6670  177.0870  143.4570 S   0  0  0  0  0  0  0  0  0  0  0  0
  189.5520  176.1910  142.3390 C   0  0  0  0  0  2  0  0  0  0  0  0
  188.2510  176.9580  142.1870 C   0  0  0  0  0  2  0  0  0  0  0  0
  187.1070  176.1980  142.8360 C   0  0  0  0  0  2  0  0  0  0  0  0
  185.5700  177.1640  142.7560 S   0  0  0  0  0  0  0  0  0  0  0  0
  186.4380  178.7210  143.0920 C   0  0  0  0  0  2  0  0  0  0  0  0
  185.5770  179.5970  143.9760 C   0  0  0  0  0  2  0  0  0  0  0  0
  184.3450  178.8270  144.4000 C   0  0  0  0  0  2  0  0  0  0  0  0
  184.2090  178.8850  145.9080 C   0  0  0  0  0  2  0  0  0  0  0  0
  184.6670  177.5740  146.5060 C   0  0  0  0  0  1  0  0  0  0  0  0
  1 15  1  6  0  0  0
  1  6  1  0  0  0  0
  1  3  1  0  0  0  0
  3  2  2  0  0  0  0
  4  3  1  0  0  0  0
  4  5  1  0  0  0  0
  6  7  1  6  0  0  0
  7  8  1  0  0  0  0
  9  6  1  0  0  0  0
 10  9  1  0  0  0  0
 11 12  1  0  0  0  0
 12 10  1  0  0  0  0
 12 14  1  0  0  0  0
 14 13  3  0  0  0  0
 16 15  1  0  0  0  0
 17 16  1  0  0  0  0
 18 17  1  0  0  0  0
 18 19  1  0  0  0  0
 20 19  1  0  0  0  0
 20 21  1  0  0  0  0
 21 22  1  0  0  0  0
 22 23  1  0  0  0  0
 23 24  1  0  0  0  0
 24 25  1  0  0  0  0
M  END
>  <MODEL>
9

>  <REMARK>
 VINA RESULT:      -4.2      2.074      3.189
  Name = 
  18 active torsions:
  status: ('A' for Active; 'I' for Inactive)
    1  A    between atoms: C_1  and  C_3
    2  A    between atoms: C_1  and  C_18
    3  A    between atoms: C_1  and  C_24
    4  A    between atoms: C_2  and  C_7
    5  A    between atoms: C_2  and  C_25
    6  A    between atoms: C_3  and  S_16
    7  A    between atoms: O_4  and  C_18
    8  A    between atoms: O_4  and  C_19
    9  A    between atoms: S_6  and  C_15
   10  A    between atoms: S_6  and  C_21
   11  A    between atoms: N_10  and  C_11
   12  A    between atoms: N_10  and  C_19
   13  A    between atoms: O_13  and  C_24
   14  A    between atoms: C_15  and  C_20
   15  A    between atoms: S_16  and  C_23
   16  A    between atoms: C_17  and  C_18
   17  A    between atoms: C_20  and  C_23
   18  A    between atoms: C_21  and  C_25
                            x       y       z     vdW  Elec       q    Type
                         _______ _______ _______ _____ _____    ______ ____

>  <TORSDO>
F 18

$$$$
