=
 OpenBabel11052417463D

 31 35  0  0  1  0  0  0  0  0999 V2000
  185.1940  177.5500  145.0270 C   0  0  0  0  0  3  0  0  0  0  0  0
  186.7040  176.4440  143.3240 C   0  0  2  0  0  3  0  0  0  0  0  0
  185.8530  176.8920  142.2020 N   0  0  1  0  0  0  0  0  0  0  0  0
  186.4770  177.1140  144.6660 C   0  0  0  0  0  0  0  0  0  0  0  0
  185.9860  178.1570  147.2290 C   0  0  0  0  0  3  0  0  0  0  0  0
  185.3240  178.2610  142.1070 C   0  0  1  0  0  3  0  0  0  0  0  0
  188.9970  175.8260  144.1000 C   0  0  0  0  0  0  0  0  0  0  0  0
  183.5920  178.5640  146.6510 C   0  0  0  0  0  1  0  0  0  0  0  0
  187.5600  175.9350  140.3790 C   0  0  0  0  0  2  0  0  0  0  0  0
  188.9080  176.6400  145.3600 C   0  0  0  0  0  2  0  0  0  0  0  0
  188.2040  176.3210  142.9380 C   0  0  1  0  0  3  0  0  0  0  0  0
  189.7160  174.7440  143.9990 N   0  0  0  0  0  0  0  0  0  0  0  0
  184.9520  178.0830  146.2940 C   0  0  0  0  0  0  0  0  0  0  0  0
  187.5130  177.1450  145.6360 C   0  0  0  0  0  0  0  0  0  0  0  0
  187.2590  177.6870  146.9010 C   0  0  0  0  0  3  0  0  0  0  0  0
  188.5410  175.6810  141.5600 C   0  0  0  0  0  2  0  0  0  0  0  0
  186.6470  177.9700  141.5570 C   0  0  2  0  0  3  0  0  0  0  0  0
  187.0180  177.3780  140.2030 C   0  0  0  0  0  2  0  0  0  0  0  0
  190.0840  173.2130  145.7510 O   0  0  0  0  0  0  0  0  0  0  0  0
  190.5280  174.1370  145.0190 C   0  0  0  0  0  0  0  0  0  0  0  0
  193.9930  176.5800  145.3560 C   0  0  0  0  0  0  0  0  0  0  0  0
  192.4340  175.2900  143.9420 C   0  0  0  0  0  2  0  0  0  0  0  0
  191.0800  175.2740  147.8630 Cl  0  0  0  0  0  0  0  0  0  0  0  0
  195.1330  177.2890  145.5240 F   0  0  0  0  0  0  0  0  0  0  0  0
  193.7280  176.0200  144.1730 C   0  0  0  0  0  3  0  0  0  0  0  0
  192.0700  175.5100  146.4290 C   0  0  0  0  0  0  0  0  0  0  0  0
  191.9330  174.6050  145.2210 C   0  0  1  0  0  3  0  0  0  0  0  0
  193.0760  176.3900  146.4940 C   0  0  0  0  0  3  0  0  0  0  0  0
  184.2690  178.3300  141.0150 C   0  0  0  0  0  2  0  0  0  0  0  0
  182.8800  178.2130  141.6130 C   0  0  0  0  0  2  0  0  0  0  0  0
  181.9230  178.1880  140.5980 O   0  0  0  0  0  1  0  0  0  0  0  0
  1 13  1  0  0  0  0
  2  4  1  1  0  0  0
  3  2  1  0  0  0  0
  4  1  2  0  0  0  0
  4 14  1  0  0  0  0
  6  3  1  0  0  0  0
  7 10  1  0  0  0  0
  9 16  1  0  0  0  0
 10 14  1  0  0  0  0
 11  2  1  0  0  0  0
 11  7  1  0  0  0  0
 12  7  2  0  0  0  0
 12 20  1  0  0  0  0
 13  8  1  0  0  0  0
 13  5  2  0  0  0  0
 14 15  2  0  0  0  0
 15  5  1  0  0  0  0
 16 11  1  0  0  0  0
 17  6  1  0  0  0  0
 17  3  1  0  0  0  0
 18  9  1  0  0  0  0
 18 17  1  0  0  0  0
 20 27  1  0  0  0  0
 20 19  2  0  0  0  0
 21 24  1  0  0  0  0
 21 28  1  0  0  0  0
 22 25  1  0  0  0  0
 22 27  1  0  0  0  0
 25 21  2  0  0  0  0
 26 28  2  0  0  0  0
 26 23  1  0  0  0  0
 27 26  1  0  0  0  0
 29 30  1  0  0  0  0
 29  6  1  0  0  0  0
 31 30  1  0  0  0  0
M  END
>  <MODEL>
1

>  <REMARK>
 VINA RESULT:      -8.6      0.000      0.000
  Name = 
  4 active torsions:
  status: ('A' for Active; 'I' for Inactive)
    1  A    between atoms: C_9  and  C_22
    2  A    between atoms: C_9  and  N_23
    3  A    between atoms: C_10  and  C_14
    4  A    between atoms: C_10  and  C_18
                            x       y       z     vdW  Elec       q    Type
                         _______ _______ _______ _____ _____    ______ ____

>  <TORSDO>
F 4

$$$$
=
 OpenBabel11052417463D

 31 35  0  0  1  0  0  0  0  0999 V2000
  187.2060  177.2170  142.4690 C   0  0  0  0  0  3  0  0  0  0  0  0
  187.4130  177.6650  144.9500 C   0  0  2  0  0  3  0  0  0  0  0  0
  186.1540  178.4380  144.9680 N   0  0  1  0  0  0  0  0  0  0  0  0
  187.6740  176.8090  143.7260 C   0  0  0  0  0  0  0  0  0  0  0  0
  188.3310  175.3570  141.4110 C   0  0  0  0  0  3  0  0  0  0  0  0
  184.9340  177.9790  144.2860 C   0  0  1  0  0  3  0  0  0  0  0  0
  189.0000  176.2110  146.2190 C   0  0  0  0  0  0  0  0  0  0  0  0
  186.9940  176.9210  139.9990 C   0  0  0  0  0  1  0  0  0  0  0  0
  186.2330  178.7180  147.6270 C   0  0  0  0  0  2  0  0  0  0  0  0
  189.1440  175.2110  145.1060 C   0  0  0  0  0  2  0  0  0  0  0  0
  187.6960  176.9340  146.2910 C   0  0  1  0  0  3  0  0  0  0  0  0
  189.9410  176.4540  147.0860 N   0  0  0  0  0  0  0  0  0  0  0  0
  187.5190  176.4880  141.3200 C   0  0  0  0  0  0  0  0  0  0  0  0
  188.5410  175.6870  143.8070 C   0  0  0  0  0  0  0  0  0  0  0  0
  188.8420  174.9620  142.6500 C   0  0  0  0  0  3  0  0  0  0  0  0
  187.4230  177.7150  147.6090 C   0  0  0  0  0  2  0  0  0  0  0  0
  185.1900  177.5390  145.6560 C   0  0  2  0  0  3  0  0  0  0  0  0
  184.9060  178.2580  146.9680 C   0  0  0  0  0  2  0  0  0  0  0  0
  191.5320  174.9960  148.0310 O   0  0  0  0  0  0  0  0  0  0  0  0
  191.2450  175.8500  147.1510 C   0  0  0  0  0  0  0  0  0  0  0  0
  194.9410  176.2920  145.0940 C   0  0  0  0  0  0  0  0  0  0  0  0
  193.3860  177.0550  146.8520 C   0  0  0  0  0  2  0  0  0  0  0  0
  191.8730  173.6360  145.0560 Cl  0  0  0  0  0  0  0  0  0  0  0  0
  196.0650  176.4440  144.3560 F   0  0  0  0  0  0  0  0  0  0  0  0
  194.5900  177.2360  145.9700 C   0  0  0  0  0  3  0  0  0  0  0  0
  192.8640  175.0400  145.4260 C   0  0  0  0  0  0  0  0  0  0  0  0
  192.2890  176.2390  146.1550 C   0  0  1  0  0  3  0  0  0  0  0  0
  194.0870  175.1080  144.8900 C   0  0  0  0  0  3  0  0  0  0  0  0
  183.9140  179.1050  144.2450 C   0  0  0  0  0  2  0  0  0  0  0  0
  183.0110  178.9560  143.0340 C   0  0  0  0  0  2  0  0  0  0  0  0
  183.6640  178.2290  142.0380 O   0  0  0  0  0  1  0  0  0  0  0  0
  1  4  1  0  0  0  0
  2  4  1  6  0  0  0
  2  3  1  0  0  0  0
  2 11  1  0  0  0  0
  3 17  1  0  0  0  0
  4 14  2  0  0  0  0
  5 15  2  0  0  0  0
  6  3  1  0  0  0  0
  6 17  1  0  0  0  0
  7 11  1  0  0  0  0
  7 12  2  0  0  0  0
  8 13  1  0  0  0  0
 10  7  1  0  0  0  0
 11 16  1  0  0  0  0
 12 20  1  0  0  0  0
 13  5  1  0  0  0  0
 13  1  2  0  0  0  0
 14 10  1  0  0  0  0
 15 14  1  0  0  0  0
 16  9  1  0  0  0  0
 17 18  1  0  0  0  0
 18  9  1  0  0  0  0
 20 19  2  0  0  0  0
 21 25  2  0  0  0  0
 23 26  1  0  0  0  0
 24 21  1  0  0  0  0
 25 22  1  0  0  0  0
 26 27  1  0  0  0  0
 27 22  1  0  0  0  0
 27 20  1  0  0  0  0
 28 21  1  0  0  0  0
 28 26  2  0  0  0  0
 29  6  1  0  0  0  0
 30 29  1  0  0  0  0
 31 30  1  0  0  0  0
M  END
>  <MODEL>
2

>  <REMARK>
 VINA RESULT:      -8.4      1.693      3.990
  Name = 
  4 active torsions:
  status: ('A' for Active; 'I' for Inactive)
    1  A    between atoms: C_9  and  C_22
    2  A    between atoms: C_9  and  N_23
    3  A    between atoms: C_10  and  C_14
    4  A    between atoms: C_10  and  C_18
                            x       y       z     vdW  Elec       q    Type
                         _______ _______ _______ _____ _____    ______ ____

>  <TORSDO>
F 4

$$$$
=
 OpenBabel11052417463D

 31 35  0  0  1  0  0  0  0  0999 V2000
  186.7640  177.6230  142.3160 C   0  0  0  0  0  3  0  0  0  0  0  0
  187.9570  177.5960  144.5470 C   0  0  2  0  0  3  0  0  0  0  0  0
  186.7800  178.1580  145.2410 N   0  0  1  0  0  0  0  0  0  0  0  0
  187.7320  177.0460  143.1520 C   0  0  0  0  0  0  0  0  0  0  0  0
  187.4460  176.1930  140.4900 C   0  0  0  0  0  3  0  0  0  0  0  0
  185.4120  177.6710  145.0020 C   0  0  1  0  0  3  0  0  0  0  0  0
  190.0000  176.1660  144.7050 C   0  0  0  0  0  0  0  0  0  0  0  0
  185.5640  177.7930  140.1340 C   0  0  0  0  0  1  0  0  0  0  0  0
  187.9380  177.9150  147.6400 C   0  0  0  0  0  2  0  0  0  0  0  0
  189.7210  175.4380  143.4190 C   0  0  0  0  0  2  0  0  0  0  0  0
  188.8080  176.6630  145.4520 C   0  0  1  0  0  3  0  0  0  0  0  0
  191.2010  176.3670  145.1650 N   0  0  0  0  0  0  0  0  0  0  0  0
  186.6100  177.1890  140.9980 C   0  0  0  0  0  0  0  0  0  0  0  0
  188.6110  176.0690  142.6160 C   0  0  0  0  0  0  0  0  0  0  0  0
  188.4430  175.6380  141.2950 C   0  0  0  0  0  3  0  0  0  0  0  0
  189.0640  177.1200  146.9170 C   0  0  0  0  0  2  0  0  0  0  0  0
  186.2360  177.0100  146.0130 C   0  0  2  0  0  3  0  0  0  0  0  0
  186.4830  177.4060  147.4630 C   0  0  0  0  0  2  0  0  0  0  0  0
  192.8420  176.4460  143.4760 O   0  0  0  0  0  0  0  0  0  0  0  0
  192.4450  175.9590  144.5680 C   0  0  0  0  0  0  0  0  0  0  0  0
  195.6490  173.3600  145.5990 C   0  0  0  0  0  0  0  0  0  0  0  0
  193.6130  173.7970  144.2740 C   0  0  0  0  0  2  0  0  0  0  0  0
  194.5650  177.1660  146.4990 Cl  0  0  0  0  0  0  0  0  0  0  0  0
  196.6360  172.5360  146.0210 F   0  0  0  0  0  0  0  0  0  0  0  0
  194.6790  172.8850  144.8130 C   0  0  0  0  0  3  0  0  0  0  0  0
  194.5510  175.5330  145.8470 C   0  0  0  0  0  0  0  0  0  0  0  0
  193.2910  174.9350  145.2520 C   0  0  1  0  0  3  0  0  0  0  0  0
  195.6250  174.7630  146.0500 C   0  0  0  0  0  3  0  0  0  0  0  0
  184.4100  178.6220  145.6350 C   0  0  0  0  0  2  0  0  0  0  0  0
  183.6750  179.4050  144.5630 C   0  0  0  0  0  2  0  0  0  0  0  0
  183.6880  178.6960  143.3610 O   0  0  0  0  0  1  0  0  0  0  0  0
  1  4  1  0  0  0  0
  2  4  1  6  0  0  0
  2  3  1  0  0  0  0
  2 11  1  0  0  0  0
  3 17  1  0  0  0  0
  5 13  1  0  0  0  0
  5 15  2  0  0  0  0
  6  3  1  0  0  0  0
  6 29  1  0  0  0  0
  6 17  1  0  0  0  0
  7 12  2  0  0  0  0
  7 11  1  0  0  0  0
  8 13  1  0  0  0  0
 10  7  1  0  0  0  0
 11 16  1  0  0  0  0
 13  1  2  0  0  0  0
 14  4  2  0  0  0  0
 14 10  1  0  0  0  0
 15 14  1  0  0  0  0
 16  9  1  0  0  0  0
 17 18  1  0  0  0  0
 18  9  1  0  0  0  0
 19 20  2  0  0  0  0
 20 12  1  0  0  0  0
 20 27  1  0  0  0  0
 21 24  1  0  0  0  0
 21 28  1  0  0  0  0
 22 25  1  0  0  0  0
 22 27  1  0  0  0  0
 25 21  2  0  0  0  0
 26 28  2  0  0  0  0
 26 23  1  0  0  0  0
 27 26  1  0  0  0  0
 30 29  1  0  0  0  0
 31 30  1  0  0  0  0
M  END
>  <MODEL>
3

>  <REMARK>
 VINA RESULT:      -8.0      2.235      4.255
  Name = 
  4 active torsions:
  status: ('A' for Active; 'I' for Inactive)
    1  A    between atoms: C_9  and  C_22
    2  A    between atoms: C_9  and  N_23
    3  A    between atoms: C_10  and  C_14
    4  A    between atoms: C_10  and  C_18
                            x       y       z     vdW  Elec       q    Type
                         _______ _______ _______ _____ _____    ______ ____

>  <TORSDO>
F 4

$$$$
=
 OpenBabel11052417463D

 31 35  0  0  1  0  0  0  0  0999 V2000
  187.7800  176.9250  141.9490 C   0  0  0  0  0  3  0  0  0  0  0  0
  188.9170  176.8090  144.2070 C   0  0  2  0  0  3  0  0  0  0  0  0
  188.0080  177.8260  144.7740 N   0  0  1  0  0  0  0  0  0  0  0  0
  188.5030  176.1780  142.8910 C   0  0  0  0  0  0  0  0  0  0  0  0
  187.9160  175.1090  140.3600 C   0  0  0  0  0  3  0  0  0  0  0  0
  186.5540  177.8010  144.5520 C   0  0  1  0  0  3  0  0  0  0  0  0
  190.3540  174.8100  144.6320 C   0  0  0  0  0  0  0  0  0  0  0  0
  186.6850  177.1850  139.7210 C   0  0  0  0  0  1  0  0  0  0  0  0
  189.0410  177.5430  147.2260 C   0  0  0  0  0  2  0  0  0  0  0  0
  189.8320  174.0470  143.4470 C   0  0  0  0  0  2  0  0  0  0  0  0
  189.4100  175.7790  145.2610 C   0  0  1  0  0  3  0  0  0  0  0  0
  191.5580  174.6550  145.1050 N   0  0  0  0  0  0  0  0  0  0  0  0
  187.4740  176.3890  140.6970 C   0  0  0  0  0  0  0  0  0  0  0  0
  188.9930  174.8970  142.5240 C   0  0  0  0  0  0  0  0  0  0  0  0
  188.6740  174.3690  141.2690 C   0  0  0  0  0  3  0  0  0  0  0  0
  189.8220  176.3220  146.6590 C   0  0  0  0  0  2  0  0  0  0  0  0
  187.1150  177.0490  145.6730 C   0  0  2  0  0  3  0  0  0  0  0  0
  187.4980  177.5360  147.0650 C   0  0  0  0  0  2  0  0  0  0  0  0
  192.5170  172.5270  144.7900 O   0  0  0  0  0  0  0  0  0  0  0  0
  192.5820  173.7720  144.6150 C   0  0  0  0  0  0  0  0  0  0  0  0
  195.1690  176.3850  142.4780 C   0  0  0  0  0  0  0  0  0  0  0  0
  193.3230  174.7470  142.4640 C   0  0  0  0  0  2  0  0  0  0  0  0
  194.4500  175.5280  146.3800 Cl  0  0  0  0  0  0  0  0  0  0  0  0
  196.0690  177.1650  141.8350 F   0  0  0  0  0  0  0  0  0  0  0  0
  194.3780  175.5690  141.7780 C   0  0  0  0  0  3  0  0  0  0  0  0
  194.4000  175.4900  144.6220 C   0  0  0  0  0  0  0  0  0  0  0  0
  193.7540  174.3370  143.8790 C   0  0  1  0  0  3  0  0  0  0  0  0
  195.1040  176.4070  143.9510 C   0  0  0  0  0  3  0  0  0  0  0  0
  185.9410  179.1130  145.0130 C   0  0  0  0  0  2  0  0  0  0  0  0
  184.4360  179.0870  144.8270 C   0  0  0  0  0  2  0  0  0  0  0  0
  183.8160  178.6640  146.0030 O   0  0  0  0  0  1  0  0  0  0  0  0
  1  4  1  0  0  0  0
  2  4  1  6  0  0  0
  2  3  1  0  0  0  0
  2 11  1  0  0  0  0
  3 17  1  0  0  0  0
  5 13  1  0  0  0  0
  5 15  2  0  0  0  0
  6  3  1  0  0  0  0
  6 29  1  0  0  0  0
  6 17  1  0  0  0  0
  7 12  2  0  0  0  0
  7 11  1  0  0  0  0
  8 13  1  0  0  0  0
 10  7  1  0  0  0  0
 11 16  1  0  0  0  0
 13  1  2  0  0  0  0
 14  4  2  0  0  0  0
 14 10  1  0  0  0  0
 15 14  1  0  0  0  0
 16  9  1  0  0  0  0
 17 18  1  0  0  0  0
 18  9  1  0  0  0  0
 20 19  2  0  0  0  0
 20 12  1  0  0  0  0
 21 28  1  0  0  0  0
 22 27  1  0  0  0  0
 24 21  1  0  0  0  0
 25 22  1  0  0  0  0
 25 21  2  0  0  0  0
 26 23  1  0  0  0  0
 27 20  1  0  0  0  0
 27 26  1  0  0  0  0
 28 26  2  0  0  0  0
 30 29  1  0  0  0  0
 30 31  1  0  0  0  0
M  END
>  <MODEL>
4

>  <REMARK>
 VINA RESULT:      -7.8      2.260      4.374
  Name = 
  4 active torsions:
  status: ('A' for Active; 'I' for Inactive)
    1  A    between atoms: C_9  and  C_22
    2  A    between atoms: C_9  and  N_23
    3  A    between atoms: C_10  and  C_14
    4  A    between atoms: C_10  and  C_18
                            x       y       z     vdW  Elec       q    Type
                         _______ _______ _______ _____ _____    ______ ____

>  <TORSDO>
F 4

$$$$
=
 OpenBabel11052417463D

 31 35  0  0  1  0  0  0  0  0999 V2000
  193.0950  174.7140  144.7920 C   0  0  0  0  0  3  0  0  0  0  0  0
  191.1740  174.1250  143.2530 C   0  0  2  0  0  3  0  0  0  0  0  0
  191.8130  172.8530  142.8590 N   0  0  1  0  0  0  0  0  0  0  0  0
  191.7310  174.8180  144.4820 C   0  0  0  0  0  0  0  0  0  0  0  0
  192.8300  176.2700  146.6230 C   0  0  0  0  0  3  0  0  0  0  0  0
  192.4320  171.9410  143.8340 C   0  0  1  0  0  3  0  0  0  0  0  0
  189.0440  175.3850  143.5940 C   0  0  0  0  0  0  0  0  0  0  0  0
  195.0800  175.2790  146.1950 C   0  0  0  0  0  1  0  0  0  0  0  0
  189.6890  172.1050  141.4150 C   0  0  0  0  0  2  0  0  0  0  0  0
  189.4620  175.9470  144.9240 C   0  0  0  0  0  2  0  0  0  0  0  0
  189.6220  174.0590  143.2280 C   0  0  1  0  0  3  0  0  0  0  0  0
  188.2250  175.9970  142.7870 N   0  0  0  0  0  0  0  0  0  0  0  0
  193.6390  175.4220  145.8650 C   0  0  0  0  0  0  0  0  0  0  0  0
  190.9230  175.7210  145.2240 C   0  0  0  0  0  0  0  0  0  0  0  0
  191.4790  176.4200  146.3000 C   0  0  0  0  0  3  0  0  0  0  0  0
  188.9530  173.3330  142.0260 C   0  0  0  0  0  2  0  0  0  0  0  0
  191.0040  171.8140  143.5490 C   0  0  2  0  0  3  0  0  0  0  0  0
  190.3100  171.0850  142.4050 C   0  0  0  0  0  2  0  0  0  0  0  0
  188.0510  178.3260  142.4770 O   0  0  0  0  0  0  0  0  0  0  0  0
  187.5890  177.2710  142.9880 C   0  0  0  0  0  0  0  0  0  0  0  0
  184.2810  178.7360  145.2230 C   0  0  0  0  0  0  0  0  0  0  0  0
  186.6610  178.0910  145.1310 C   0  0  0  0  0  2  0  0  0  0  0  0
  184.9980  177.7860  141.3430 Cl  0  0  0  0  0  0  0  0  0  0  0  0
  183.1800  179.1180  145.9120 F   0  0  0  0  0  0  0  0  0  0  0  0
  185.4070  178.4470  145.8790 C   0  0  0  0  0  3  0  0  0  0  0  0
  185.1990  178.0000  143.0770 C   0  0  0  0  0  0  0  0  0  0  0  0
  186.3510  177.3540  143.8210 C   0  0  1  0  0  3  0  0  0  0  0  0
  184.2130  178.5940  143.7580 C   0  0  0  0  0  3  0  0  0  0  0  0
  193.2410  170.8810  143.1040 C   0  0  0  0  0  2  0  0  0  0  0  0
  193.8350  169.8960  144.0940 C   0  0  0  0  0  2  0  0  0  0  0  0
  192.8780  168.9470  144.4560 O   0  0  0  0  0  1  0  0  0  0  0  0
  1 13  1  0  0  0  0
  2  4  1  1  0  0  0
  3  2  1  0  0  0  0
  3 17  1  0  0  0  0
  3  6  1  0  0  0  0
  4  1  2  0  0  0  0
  4 14  1  0  0  0  0
  7 10  1  0  0  0  0
  9 16  1  0  0  0  0
  9 18  1  0  0  0  0
 10 14  1  0  0  0  0
 11  2  1  0  0  0  0
 11  7  1  0  0  0  0
 12 20  1  0  0  0  0
 12  7  2  0  0  0  0
 13  8  1  0  0  0  0
 13  5  2  0  0  0  0
 14 15  2  0  0  0  0
 15  5  1  0  0  0  0
 16 11  1  0  0  0  0
 17  6  1  0  0  0  0
 18 17  1  0  0  0  0
 19 20  2  0  0  0  0
 20 27  1  0  0  0  0
 21 25  2  0  0  0  0
 21 24  1  0  0  0  0
 22 25  1  0  0  0  0
 23 26  1  0  0  0  0
 26 28  2  0  0  0  0
 26 27  1  0  0  0  0
 27 22  1  0  0  0  0
 28 21  1  0  0  0  0
 29  6  1  0  0  0  0
 29 30  1  0  0  0  0
 30 31  1  0  0  0  0
M  END
>  <MODEL>
5

>  <REMARK>
 VINA RESULT:      -7.6      3.793      8.049
  Name = 
  4 active torsions:
  status: ('A' for Active; 'I' for Inactive)
    1  A    between atoms: C_9  and  C_22
    2  A    between atoms: C_9  and  N_23
    3  A    between atoms: C_10  and  C_14
    4  A    between atoms: C_10  and  C_18
                            x       y       z     vdW  Elec       q    Type
                         _______ _______ _______ _____ _____    ______ ____

>  <TORSDO>
F 4

$$$$
=
 OpenBabel11052417463D

 31 35  0  0  1  0  0  0  0  0999 V2000
  187.5970  177.2220  142.0780 C   0  0  0  0  0  3  0  0  0  0  0  0
  188.8290  177.0530  144.2820 C   0  0  2  0  0  3  0  0  0  0  0  0
  187.8630  177.9490  144.9500 N   0  0  1  0  0  0  0  0  0  0  0  0
  188.4160  176.4780  142.9400 C   0  0  0  0  0  0  0  0  0  0  0  0
  187.8170  175.5330  140.3620 C   0  0  0  0  0  3  0  0  0  0  0  0
  186.4080  177.8150  144.7770 C   0  0  1  0  0  3  0  0  0  0  0  0
  190.4420  175.1600  144.5170 C   0  0  0  0  0  0  0  0  0  0  0  0
  186.3950  177.5350  139.9120 C   0  0  0  0  0  1  0  0  0  0  0  0
  189.0130  177.5930  147.3380 C   0  0  0  0  0  2  0  0  0  0  0  0
  189.9370  174.4350  143.3000 C   0  0  0  0  0  2  0  0  0  0  0  0
  189.4470  176.0010  145.2430 C   0  0  1  0  0  3  0  0  0  0  0  0
  191.6730  175.0770  144.9360 N   0  0  0  0  0  0  0  0  0  0  0  0
  187.2850  176.7460  140.8030 C   0  0  0  0  0  0  0  0  0  0  0  0
  188.9950  175.2700  142.4690 C   0  0  0  0  0  0  0  0  0  0  0  0
  188.6700  174.8020  141.1910 C   0  0  0  0  0  3  0  0  0  0  0  0
  189.8690  176.4830  146.6610 C   0  0  0  0  0  2  0  0  0  0  0  0
  187.0740  177.0410  145.8220 C   0  0  2  0  0  3  0  0  0  0  0  0
  187.4710  177.4650  147.2300 C   0  0  0  0  0  2  0  0  0  0  0  0
  192.9640  174.3370  143.1110 O   0  0  0  0  0  0  0  0  0  0  0  0
  192.7460  174.3190  144.3510 C   0  0  0  0  0  0  0  0  0  0  0  0
  195.8630  171.7940  145.7630 C   0  0  0  0  0  0  0  0  0  0  0  0
  193.6390  172.0410  144.7220 C   0  0  0  0  0  2  0  0  0  0  0  0
  195.3190  175.7900  145.2990 Cl  0  0  0  0  0  0  0  0  0  0  0  0
  196.8440  171.0330  146.3020 F   0  0  0  0  0  0  0  0  0  0  0  0
  194.7130  171.2280  145.3890 C   0  0  0  0  0  3  0  0  0  0  0  0
  195.0300  174.0560  145.3340 C   0  0  0  0  0  0  0  0  0  0  0  0
  193.6270  173.4900  145.2280 C   0  0  1  0  0  3  0  0  0  0  0  0
  196.0530  173.2510  145.6390 C   0  0  0  0  0  3  0  0  0  0  0  0
  185.7080  179.0370  145.3490 C   0  0  0  0  0  2  0  0  0  0  0  0
  184.2440  178.7340  145.6090 C   0  0  0  0  0  2  0  0  0  0  0  0
  184.0730  178.2960  146.9230 O   0  0  0  0  0  1  0  0  0  0  0  0
  1  4  1  0  0  0  0
  2  4  1  6  0  0  0
  2  3  1  0  0  0  0
  2 11  1  0  0  0  0
  3 17  1  0  0  0  0
  5 13  1  0  0  0  0
  5 15  2  0  0  0  0
  6  3  1  0  0  0  0
  6 29  1  0  0  0  0
  6 17  1  0  0  0  0
  7 12  2  0  0  0  0
  7 11  1  0  0  0  0
  8 13  1  0  0  0  0
 10  7  1  0  0  0  0
 11 16  1  0  0  0  0
 13  1  2  0  0  0  0
 14  4  2  0  0  0  0
 14 10  1  0  0  0  0
 15 14  1  0  0  0  0
 16  9  1  0  0  0  0
 17 18  1  0  0  0  0
 18  9  1  0  0  0  0
 19 20  2  0  0  0  0
 20 12  1  0  0  0  0
 20 27  1  0  0  0  0
 21 24  1  0  0  0  0
 22 27  1  0  0  0  0
 22 25  1  0  0  0  0
 23 26  1  0  0  0  0
 25 21  2  0  0  0  0
 26 28  2  0  0  0  0
 27 26  1  0  0  0  0
 28 21  1  0  0  0  0
 29 30  1  0  0  0  0
 30 31  1  0  0  0  0
M  END
>  <MODEL>
6

>  <REMARK>
 VINA RESULT:      -7.6      2.834      4.770
  Name = 
  4 active torsions:
  status: ('A' for Active; 'I' for Inactive)
    1  A    between atoms: C_9  and  C_22
    2  A    between atoms: C_9  and  N_23
    3  A    between atoms: C_10  and  C_14
    4  A    between atoms: C_10  and  C_18
                            x       y       z     vdW  Elec       q    Type
                         _______ _______ _______ _____ _____    ______ ____

>  <TORSDO>
F 4

$$$$
=
 OpenBabel11052417463D

 31 35  0  0  1  0  0  0  0  0999 V2000
  187.0980  177.3720  145.9650 C   0  0  0  0  0  3  0  0  0  0  0  0
  187.9820  176.2520  143.8760 C   0  0  2  0  0  3  0  0  0  0  0  0
  186.7890  176.6440  143.0980 N   0  0  1  0  0  0  0  0  0  0  0  0
  188.1990  176.9560  145.2010 C   0  0  0  0  0  0  0  0  0  0  0  0
  188.5650  178.0640  147.7580 C   0  0  0  0  0  3  0  0  0  0  0  0
  186.2140  177.9970  143.1590 C   0  0  1  0  0  3  0  0  0  0  0  0
  190.4220  175.7130  143.8450 C   0  0  0  0  0  0  0  0  0  0  0  0
  186.1040  178.3950  148.0130 C   0  0  0  0  0  1  0  0  0  0  0  0
  187.8140  175.6740  140.8250 C   0  0  0  0  0  2  0  0  0  0  0  0
  190.7360  176.5630  145.0440 C   0  0  0  0  0  2  0  0  0  0  0  0
  189.2680  176.1530  143.0090 C   0  0  1  0  0  3  0  0  0  0  0  0
  191.1010  174.6460  143.5290 N   0  0  0  0  0  0  0  0  0  0  0  0
  187.2800  177.9370  147.2290 C   0  0  0  0  0  0  0  0  0  0  0  0
  189.4990  177.0420  145.7640 C   0  0  0  0  0  0  0  0  0  0  0  0
  189.6680  177.6150  147.0290 C   0  0  0  0  0  3  0  0  0  0  0  0
  189.1430  175.4800  141.6110 C   0  0  0  0  0  2  0  0  0  0  0  0
  187.2830  177.7210  142.2010 C   0  0  2  0  0  3  0  0  0  0  0  0
  187.1970  177.0980  140.8140 C   0  0  0  0  0  2  0  0  0  0  0  0
  192.0810  173.2400  145.1450 O   0  0  0  0  0  0  0  0  0  0  0  0
  192.2280  174.0900  144.2280 C   0  0  0  0  0  0  0  0  0  0  0  0
  195.5690  176.4130  142.9920 C   0  0  0  0  0  0  0  0  0  0  0  0
  193.6290  175.0050  142.4040 C   0  0  0  0  0  2  0  0  0  0  0  0
  193.7240  175.5860  146.5110 Cl  0  0  0  0  0  0  0  0  0  0  0  0
  196.6900  177.0920  142.6520 F   0  0  0  0  0  0  0  0  0  0  0  0
  194.9150  175.7070  142.0670 C   0  0  0  0  0  3  0  0  0  0  0  0
  194.1510  175.5810  144.8050 C   0  0  0  0  0  0  0  0  0  0  0  0
  193.6110  174.5240  143.8620 C   0  0  1  0  0  3  0  0  0  0  0  0
  195.1080  176.4190  144.3910 C   0  0  0  0  0  3  0  0  0  0  0  0
  184.8520  178.0060  142.4850 C   0  0  0  0  0  2  0  0  0  0  0  0
  183.8220  178.6630  143.3850 C   0  0  0  0  0  2  0  0  0  0  0  0
  184.4490  179.5570  144.2550 O   0  0  0  0  0  1  0  0  0  0  0  0
  1 13  1  0  0  0  0
  2  4  1  1  0  0  0
  3  6  1  0  0  0  0
  3  2  1  0  0  0  0
  4 14  1  0  0  0  0
  4  1  2  0  0  0  0
  7 10  1  0  0  0  0
  9 16  1  0  0  0  0
 10 14  1  0  0  0  0
 11  7  1  0  0  0  0
 11  2  1  0  0  0  0
 12  7  2  0  0  0  0
 12 20  1  0  0  0  0
 13  5  2  0  0  0  0
 13  8  1  0  0  0  0
 14 15  2  0  0  0  0
 15  5  1  0  0  0  0
 16 11  1  0  0  0  0
 17  3  1  0  0  0  0
 17  6  1  0  0  0  0
 18  9  1  0  0  0  0
 18 17  1  0  0  0  0
 20 19  2  0  0  0  0
 21 28  1  0  0  0  0
 22 27  1  0  0  0  0
 24 21  1  0  0  0  0
 25 22  1  0  0  0  0
 25 21  2  0  0  0  0
 26 23  1  0  0  0  0
 27 20  1  0  0  0  0
 27 26  1  0  0  0  0
 28 26  2  0  0  0  0
 29  6  1  0  0  0  0
 29 30  1  0  0  0  0
 30 31  1  0  0  0  0
M  END
>  <MODEL>
7

>  <REMARK>
 VINA RESULT:      -7.5      1.815      2.198
  Name = 
  4 active torsions:
  status: ('A' for Active; 'I' for Inactive)
    1  A    between atoms: C_9  and  C_22
    2  A    between atoms: C_9  and  N_23
    3  A    between atoms: C_10  and  C_14
    4  A    between atoms: C_10  and  C_18
                            x       y       z     vdW  Elec       q    Type
                         _______ _______ _______ _____ _____    ______ ____

>  <TORSDO>
F 4

$$$$
=
 OpenBabel11052417463D

 31 35  0  0  1  0  0  0  0  0999 V2000
  191.9400  172.2520  143.8110 C   0  0  0  0  0  3  0  0  0  0  0  0
  192.1350  174.3420  145.2250 C   0  0  2  0  0  3  0  0  0  0  0  0
  193.6100  174.2660  145.2250 N   0  0  1  0  0  0  0  0  0  0  0  0
  191.4050  173.4880  144.2060 C   0  0  0  0  0  0  0  0  0  0  0  0
  189.9690  171.7870  142.4910 C   0  0  0  0  0  3  0  0  0  0  0  0
  194.3890  173.9870  144.0080 C   0  0  1  0  0  3  0  0  0  0  0  0
  190.1090  175.7990  145.3490 C   0  0  0  0  0  0  0  0  0  0  0  0
  191.8270  170.1200  142.5180 C   0  0  0  0  0  1  0  0  0  0  0  0
  193.8420  176.5980  146.5140 C   0  0  0  0  0  2  0  0  0  0  0  0
  189.4150  175.1170  144.2040 C   0  0  0  0  0  2  0  0  0  0  0  0
  191.6010  175.7980  145.3100 C   0  0  1  0  0  3  0  0  0  0  0  0
  189.4730  176.3670  146.3330 N   0  0  0  0  0  0  0  0  0  0  0  0
  191.2340  171.4140  142.9460 C   0  0  0  0  0  0  0  0  0  0  0  0
  190.0970  173.8390  143.7810 C   0  0  0  0  0  0  0  0  0  0  0  0
  189.4030  172.9930  142.9100 C   0  0  0  0  0  3  0  0  0  0  0  0
  192.3090  176.7670  146.3000 C   0  0  0  0  0  2  0  0  0  0  0  0
  194.0270  175.3690  144.3190 C   0  0  2  0  0  3  0  0  0  0  0  0
  194.7130  176.3580  145.2530 C   0  0  0  0  0  2  0  0  0  0  0  0
  187.4410  175.6760  147.3040 O   0  0  0  0  0  0  0  0  0  0  0  0
  188.0490  176.4510  146.5190 C   0  0  0  0  0  0  0  0  0  0  0  0
  184.8620  178.7410  144.8800 C   0  0  0  0  0  0  0  0  0  0  0  0
  186.3680  176.7910  144.7350 C   0  0  0  0  0  2  0  0  0  0  0  0
  187.0660  178.8170  148.2870 Cl  0  0  0  0  0  0  0  0  0  0  0  0
  183.9100  179.5470  144.3550 F   0  0  0  0  0  0  0  0  0  0  0  0
  185.3630  177.7420  144.1490 C   0  0  0  0  0  3  0  0  0  0  0  0
  186.4660  178.3800  146.6930 C   0  0  0  0  0  0  0  0  0  0  0  0
  187.2660  177.4810  145.7710 C   0  0  1  0  0  3  0  0  0  0  0  0
  185.3740  179.0020  146.2370 C   0  0  0  0  0  3  0  0  0  0  0  0
  195.8330  173.6930  144.3790 C   0  0  0  0  0  2  0  0  0  0  0  0
  195.8970  172.9060  145.6750 C   0  0  0  0  0  2  0  0  0  0  0  0
  196.9100  173.4110  146.4910 O   0  0  0  0  0  1  0  0  0  0  0  0
  1  4  1  0  0  0  0
  2  4  1  6  0  0  0
  2 11  1  0  0  0  0
  3  2  1  0  0  0  0
  5 15  2  0  0  0  0
  5 13  1  0  0  0  0
  6 17  1  0  0  0  0
  6 29  1  0  0  0  0
  6  3  1  0  0  0  0
  7 12  2  0  0  0  0
  8 13  1  0  0  0  0
 10  7  1  0  0  0  0
 11  7  1  0  0  0  0
 11 16  1  0  0  0  0
 12 20  1  0  0  0  0
 13  1  2  0  0  0  0
 14 10  1  0  0  0  0
 14  4  2  0  0  0  0
 15 14  1  0  0  0  0
 16  9  1  0  0  0  0
 17  3  1  0  0  0  0
 17 18  1  0  0  0  0
 18  9  1  0  0  0  0
 20 19  2  0  0  0  0
 21 28  1  0  0  0  0
 22 27  1  0  0  0  0
 24 21  1  0  0  0  0
 25 22  1  0  0  0  0
 25 21  2  0  0  0  0
 26 23  1  0  0  0  0
 27 20  1  0  0  0  0
 27 26  1  0  0  0  0
 28 26  2  0  0  0  0
 29 30  1  0  0  0  0
 30 31  1  0  0  0  0
M  END
>  <MODEL>
8

>  <REMARK>
 VINA RESULT:      -7.5      3.609      8.457
  Name = 
  4 active torsions:
  status: ('A' for Active; 'I' for Inactive)
    1  A    between atoms: C_9  and  C_22
    2  A    between atoms: C_9  and  N_23
    3  A    between atoms: C_10  and  C_14
    4  A    between atoms: C_10  and  C_18
                            x       y       z     vdW  Elec       q    Type
                         _______ _______ _______ _____ _____    ______ ____

>  <TORSDO>
F 4

$$$$
=
 OpenBabel11052417463D

 31 35  0  0  1  0  0  0  0  0999 V2000
  186.7400  177.8780  142.2550 C   0  0  0  0  0  3  0  0  0  0  0  0
  188.2690  177.6170  144.2550 C   0  0  2  0  0  3  0  0  0  0  0  0
  187.2530  178.1780  145.1690 N   0  0  1  0  0  0  0  0  0  0  0  0
  187.7920  177.1900  142.8790 C   0  0  0  0  0  0  0  0  0  0  0  0
  187.0340  176.5660  140.2460 C   0  0  0  0  0  3  0  0  0  0  0  0
  185.8380  177.7770  145.1230 C   0  0  1  0  0  3  0  0  0  0  0  0
  190.2200  176.0810  143.9750 C   0  0  0  0  0  0  0  0  0  0  0  0
  185.2200  178.2790  140.3160 C   0  0  0  0  0  1  0  0  0  0  0  0
  188.7620  177.6890  147.3240 C   0  0  0  0  0  2  0  0  0  0  0  0
  189.6980  175.4720  142.7040 C   0  0  0  0  0  2  0  0  0  0  0  0
  189.1950  176.5740  144.9400 C   0  0  1  0  0  3  0  0  0  0  0  0
  191.4900  176.1880  144.2450 N   0  0  0  0  0  0  0  0  0  0  0  0
  186.3520  177.5580  140.9530 C   0  0  0  0  0  0  0  0  0  0  0  0
  188.5140  176.2180  142.1390 C   0  0  0  0  0  0  0  0  0  0  0  0
  188.1120  175.9020  140.8370 C   0  0  0  0  0  3  0  0  0  0  0  0
  189.7080  176.9010  146.3720 C   0  0  0  0  0  2  0  0  0  0  0  0
  186.7700  177.0000  145.9370 C   0  0  2  0  0  3  0  0  0  0  0  0
  187.2690  177.2670  147.3510 C   0  0  0  0  0  2  0  0  0  0  0  0
  192.9260  176.4050  142.3910 O   0  0  0  0  0  0  0  0  0  0  0  0
  192.5960  175.7690  143.4260 C   0  0  0  0  0  0  0  0  0  0  0  0
  193.7170  171.9870  145.0150 C   0  0  0  0  0  0  0  0  0  0  0  0
  193.4010  174.4140  145.3340 C   0  0  0  0  0  2  0  0  0  0  0  0
  192.1520  173.3450  141.5250 Cl  0  0  0  0  0  0  0  0  0  0  0  0
  194.1430  170.7780  145.4500 F   0  0  0  0  0  0  0  0  0  0  0  0
  193.9290  173.0730  145.7620 C   0  0  0  0  0  3  0  0  0  0  0  0
  192.8460  173.2970  143.1400 C   0  0  0  0  0  0  0  0  0  0  0  0
  193.3760  174.5520  143.8060 C   0  0  1  0  0  3  0  0  0  0  0  0
  193.0660  172.1020  143.6980 C   0  0  0  0  0  3  0  0  0  0  0  0
  185.0090  178.7230  145.9760 C   0  0  0  0  0  2  0  0  0  0  0  0
  183.6950  179.0410  145.2880 C   0  0  0  0  0  2  0  0  0  0  0  0
  183.8690  179.0440  143.9030 O   0  0  0  0  0  1  0  0  0  0  0  0
  1  4  1  0  0  0  0
  2  4  1  6  0  0  0
  2 11  1  0  0  0  0
  2  3  1  0  0  0  0
  3 17  1  0  0  0  0
  5 15  2  0  0  0  0
  5 13  1  0  0  0  0
  6  3  1  0  0  0  0
  6 17  1  0  0  0  0
  6 29  1  0  0  0  0
  7 12  2  0  0  0  0
  7 11  1  0  0  0  0
  8 13  1  0  0  0  0
  9 18  1  0  0  0  0
 10  7  1  0  0  0  0
 11 16  1  0  0  0  0
 13  1  2  0  0  0  0
 14 10  1  0  0  0  0
 14  4  2  0  0  0  0
 15 14  1  0  0  0  0
 16  9  1  0  0  0  0
 17 18  1  0  0  0  0
 19 20  2  0  0  0  0
 20 27  1  0  0  0  0
 20 12  1  0  0  0  0
 21 24  1  0  0  0  0
 21 25  2  0  0  0  0
 22 25  1  0  0  0  0
 23 26  1  0  0  0  0
 26 28  2  0  0  0  0
 26 27  1  0  0  0  0
 27 22  1  0  0  0  0
 28 21  1  0  0  0  0
 30 29  1  0  0  0  0
 31 30  1  0  0  0  0
M  END
>  <MODEL>
9

>  <REMARK>
 VINA RESULT:      -7.3      2.585      4.612
  Name = 
  4 active torsions:
  status: ('A' for Active; 'I' for Inactive)
    1  A    between atoms: C_9  and  C_22
    2  A    between atoms: C_9  and  N_23
    3  A    between atoms: C_10  and  C_14
    4  A    between atoms: C_10  and  C_18
                            x       y       z     vdW  Elec       q    Type
                         _______ _______ _______ _____ _____    ______ ____

>  <TORSDO>
F 4

$$$$
