=
 OpenBabel11052419163D

 32 36  0  0  0  0  0  0  0  0999 V2000
  190.7620  176.0080  145.3000 C   0  0  0  0  0  0  0  0  0  0  0  0
  190.3080  174.9130  142.7760 C   0  0  0  0  0  0  0  0  0  0  0  0
  190.9800  176.6100  146.5480 C   0  0  0  0  0  3  0  0  0  0  0  0
  191.8450  175.3800  144.6190 C   0  0  0  0  0  0  0  0  0  0  0  0
  192.5910  174.2060  142.6270 N   0  0  0  0  0  0  0  0  0  0  0  0
  188.5880  173.8900  139.6350 C   0  0  0  0  0  3  0  0  0  0  0  0
  191.6020  174.8210  143.3380 C   0  0  0  0  0  0  0  0  0  0  0  0
  190.9070  173.1950  139.5390 C   0  0  0  0  0  3  0  0  0  0  0  0
  191.1240  173.7420  140.8070 C   0  0  0  0  0  0  0  0  0  0  0  0
  193.1240  175.3530  145.2470 C   0  0  0  0  0  0  0  0  0  0  0  0
  192.3830  173.6720  141.3950 C   0  0  0  0  0  3  0  0  0  0  0  0
  193.2940  175.9560  146.5010 C   0  0  0  0  0  3  0  0  0  0  0  0
  189.3080  175.5170  143.4650 N   0  0  0  0  0  0  0  0  0  0  0  0
  189.4840  176.0480  144.7020 C   0  0  0  0  0  0  0  0  0  0  0  0
  190.0680  174.3700  141.5010 C   0  0  0  0  0  0  0  0  0  0  0  0
  192.2350  176.5830  147.1460 C   0  0  0  0  0  3  0  0  0  0  0  0
  189.6400  173.2690  138.9540 C   0  0  0  0  0  3  0  0  0  0  0  0
  188.8000  174.4380  140.9040 C   0  0  0  0  0  3  0  0  0  0  0  0
  186.6610  176.7760  147.1350 C   0  0  0  0  0  0  0  0  0  0  0  0
  186.1420  176.2910  148.2880 F   0  0  0  0  0  0  0  0  0  0  0  0
  188.3170  176.6760  145.3570 C   0  0  0  0  0  0  0  0  0  0  0  0
  186.0680  177.8810  146.5200 C   0  0  0  0  0  3  0  0  0  0  0  0
  187.7030  177.7740  144.7410 C   0  0  0  0  0  3  0  0  0  0  0  0
  187.7790  176.1650  146.5540 C   0  0  0  0  0  0  0  0  0  0  0  0
  188.3110  175.0610  147.1370 F   0  0  0  0  0  0  0  0  0  0  0  0
  186.5850  178.3840  145.3160 C   0  0  0  0  0  0  0  0  0  0  0  0
  184.6800  179.4670  144.1690 C   0  0  0  0  0  1  0  0  0  0  0  0
  186.0090  179.4830  144.6730 O   0  0  0  0  0  0  0  0  0  0  0  0
  194.2490  174.7220  144.6220 N   0  0  0  0  0  2  0  0  0  0  0  0
  195.5430  175.3680  144.4560 C   0  0  0  0  0  2  0  0  0  0  0  0
  195.4460  176.3600  143.4820 O   0  0  0  0  0  0  0  0  0  0  0  0
  196.7650  176.7340  143.2310 C   0  0  0  0  0  1  0  0  0  0  0  0
  1  3  2  0  0  0  0
  2  7  1  0  0  0  0
  2 13  1  0  0  0  0
  3 16  1  0  0  0  0
  4 10  2  0  0  0  0
  4  1  1  0  0  0  0
  5  7  2  0  0  0  0
  6 18  2  0  0  0  0
  7  4  1  0  0  0  0
  8  9  1  0  0  0  0
  9 11  2  0  0  0  0
  9 15  1  0  0  0  0
 10 12  1  0  0  0  0
 11  5  1  0  0  0  0
 12 16  2  0  0  0  0
 13 14  2  0  0  0  0
 14  1  1  0  0  0  0
 14 21  1  0  0  0  0
 15  2  2  0  0  0  0
 17  8  2  0  0  0  0
 17  6  1  0  0  0  0
 18 15  1  0  0  0  0
 19 20  1  0  0  0  0
 21 24  2  0  0  0  0
 22 19  2  0  0  0  0
 23 26  2  0  0  0  0
 23 21  1  0  0  0  0
 24 19  1  0  0  0  0
 24 25  1  0  0  0  0
 26 22  1  0  0  0  0
 27 28  1  0  0  0  0
 28 26  1  0  0  0  0
 29 10  1  0  0  0  0
 30 29  1  0  0  0  0
 31 30  1  0  0  0  0
 32 31  1  0  0  0  0
M  END
>  <MODEL>
1

>  <REMARK>
 VINA RESULT:      -7.9      0.000      0.000
  Name = 
  5 active torsions:
  status: ('A' for Active; 'I' for Inactive)
    1  A    between atoms: O_13  and  C_18
    2  A    between atoms: C_14  and  N_29
    3  A    between atoms: O_15  and  C_26
    4  A    between atoms: C_16  and  C_27
    5  A    between atoms: C_18  and  N_29
                            x       y       z     vdW  Elec       q    Type
                         _______ _______ _______ _____ _____    ______ ____

>  <TORSDO>
F 5

$$$$
=
 OpenBabel11052419163D

 32 36  0  0  0  0  0  0  0  0999 V2000
  187.0950  176.5410  141.5080 C   0  0  0  0  0  0  0  0  0  0  0  0
  186.3720  177.1570  144.1310 C   0  0  0  0  0  0  0  0  0  0  0  0
  187.5060  176.2610  140.1970 C   0  0  0  0  0  3  0  0  0  0  0  0
  185.9370  177.3410  141.7310 C   0  0  0  0  0  0  0  0  0  0  0  0
  184.4800  178.4050  143.3590 N   0  0  0  0  0  0  0  0  0  0  0  0
  186.4110  177.3260  147.8510 C   0  0  0  0  0  3  0  0  0  0  0  0
  185.5750  177.6440  143.0690 C   0  0  0  0  0  0  0  0  0  0  0  0
  184.5110  178.5740  147.0140 C   0  0  0  0  0  3  0  0  0  0  0  0
  184.8780  178.2550  145.7030 C   0  0  0  0  0  0  0  0  0  0  0  0
  185.2040  177.8120  140.6030 C   0  0  0  0  0  0  0  0  0  0  0  0
  184.1190  178.7150  144.6310 C   0  0  0  0  0  3  0  0  0  0  0  0
  185.6430  177.4980  139.3100 C   0  0  0  0  0  3  0  0  0  0  0  0
  187.4630  176.3940  143.8680 N   0  0  0  0  0  0  0  0  0  0  0  0
  187.8390  176.0590  142.6070 C   0  0  0  0  0  0  0  0  0  0  0  0
  186.0210  177.4650  145.4560 C   0  0  0  0  0  0  0  0  0  0  0  0
  186.7850  176.7330  139.1050 C   0  0  0  0  0  3  0  0  0  0  0  0
  185.2770  178.1080  148.0860 C   0  0  0  0  0  3  0  0  0  0  0  0
  186.7820  177.0040  146.5410 C   0  0  0  0  0  3  0  0  0  0  0  0
  190.1160  173.0650  142.0930 C   0  0  0  0  0  0  0  0  0  0  0  0
  190.0330  171.7300  141.8740 F   0  0  0  0  0  0  0  0  0  0  0  0
  189.0440  175.2180  142.4460 C   0  0  0  0  0  0  0  0  0  0  0  0
  191.3690  173.6710  142.2040 C   0  0  0  0  0  3  0  0  0  0  0  0
  190.3070  175.8110  142.5720 C   0  0  0  0  0  3  0  0  0  0  0  0
  188.9520  173.8310  142.2220 C   0  0  0  0  0  0  0  0  0  0  0  0
  187.7420  173.2180  142.1630 F   0  0  0  0  0  0  0  0  0  0  0  0
  191.4710  175.0490  142.4480 C   0  0  0  0  0  0  0  0  0  0  0  0
  193.1020  176.3770  143.7490 C   0  0  0  0  0  1  0  0  0  0  0  0
  192.7110  175.6830  142.5720 O   0  0  0  0  0  0  0  0  0  0  0  0
  184.0220  178.6070  140.7620 N   0  0  0  0  0  2  0  0  0  0  0  0
  182.6960  178.1660  140.3530 C   0  0  0  0  0  2  0  0  0  0  0  0
  181.8120  178.3010  141.4210 O   0  0  0  0  0  0  0  0  0  0  0  0
  180.7160  178.9750  140.8850 C   0  0  0  0  0  1  0  0  0  0  0  0
  1  4  2  0  0  0  0
  1 14  1  0  0  0  0
  2 15  1  0  0  0  0
  3  1  1  0  0  0  0
  4  7  1  0  0  0  0
  5 11  2  0  0  0  0
  6 17  1  0  0  0  0
  7  5  1  0  0  0  0
  7  2  2  0  0  0  0
  8 17  2  0  0  0  0
  9  8  1  0  0  0  0
 10 29  1  0  0  0  0
 10  4  1  0  0  0  0
 11  9  1  0  0  0  0
 12 10  2  0  0  0  0
 13  2  1  0  0  0  0
 14 13  2  0  0  0  0
 15  9  2  0  0  0  0
 15 18  1  0  0  0  0
 16 12  1  0  0  0  0
 16  3  2  0  0  0  0
 18  6  2  0  0  0  0
 19 22  2  0  0  0  0
 19 24  1  0  0  0  0
 20 19  1  0  0  0  0
 21 23  1  0  0  0  0
 21 14  1  0  0  0  0
 22 26  1  0  0  0  0
 24 21  2  0  0  0  0
 25 24  1  0  0  0  0
 26 28  1  0  0  0  0
 26 23  2  0  0  0  0
 28 27  1  0  0  0  0
 30 29  1  0  0  0  0
 30 31  1  0  0  0  0
 32 31  1  0  0  0  0
M  END
>  <MODEL>
2

>  <REMARK>
 VINA RESULT:      -7.6      3.306      8.735
  Name = 
  5 active torsions:
  status: ('A' for Active; 'I' for Inactive)
    1  A    between atoms: O_13  and  C_18
    2  A    between atoms: C_14  and  N_29
    3  A    between atoms: O_15  and  C_26
    4  A    between atoms: C_16  and  C_27
    5  A    between atoms: C_18  and  N_29
                            x       y       z     vdW  Elec       q    Type
                         _______ _______ _______ _____ _____    ______ ____

>  <TORSDO>
F 5

$$$$
=
 OpenBabel11052419163D

 32 36  0  0  0  0  0  0  0  0999 V2000
  190.0760  175.2490  142.9810 C   0  0  0  0  0  0  0  0  0  0  0  0
  187.9020  176.9270  143.4640 C   0  0  0  0  0  0  0  0  0  0  0  0
  191.2030  174.4500  142.7360 C   0  0  0  0  0  3  0  0  0  0  0  0
  189.0430  175.3330  142.0030 C   0  0  0  0  0  0  0  0  0  0  0  0
  186.9130  176.3170  141.3710 N   0  0  0  0  0  0  0  0  0  0  0  0
  185.6430  179.3800  145.1230 C   0  0  0  0  0  3  0  0  0  0  0  0
  187.9380  176.1850  142.2610 C   0  0  0  0  0  0  0  0  0  0  0  0
  184.6870  178.7250  142.9950 C   0  0  0  0  0  3  0  0  0  0  0  0
  185.7780  177.8810  142.7640 C   0  0  0  0  0  0  0  0  0  0  0  0
  189.1700  174.5690  140.8060 C   0  0  0  0  0  0  0  0  0  0  0  0
  185.8510  177.1340  141.5920 C   0  0  0  0  0  3  0  0  0  0  0  0
  190.3080  173.7740  140.6080 C   0  0  0  0  0  3  0  0  0  0  0  0
  188.9080  176.8100  144.3670 N   0  0  0  0  0  0  0  0  0  0  0  0
  189.9750  175.9920  144.1760 C   0  0  0  0  0  0  0  0  0  0  0  0
  186.8150  177.7810  143.7170 C   0  0  0  0  0  0  0  0  0  0  0  0
  191.3180  173.7160  141.5610 C   0  0  0  0  0  3  0  0  0  0  0  0
  184.6200  179.4720  144.1740 C   0  0  0  0  0  3  0  0  0  0  0  0
  186.7360  178.5370  144.8970 C   0  0  0  0  0  3  0  0  0  0  0  0
  191.7330  175.3880  147.4870 C   0  0  0  0  0  0  0  0  0  0  0  0
  191.4800  174.8620  148.7090 F   0  0  0  0  0  0  0  0  0  0  0  0
  191.0060  175.9450  145.2350 C   0  0  0  0  0  0  0  0  0  0  0  0
  192.9900  175.9330  147.2150 C   0  0  0  0  0  3  0  0  0  0  0  0
  192.2650  176.5030  144.9800 C   0  0  0  0  0  3  0  0  0  0  0  0
  190.7360  175.3990  146.5040 C   0  0  0  0  0  0  0  0  0  0  0  0
  189.5040  174.9120  146.8020 F   0  0  0  0  0  0  0  0  0  0  0  0
  193.2620  176.4970  145.9600 C   0  0  0  0  0  0  0  0  0  0  0  0
  195.3030  176.6170  144.5690 C   0  0  0  0  0  1  0  0  0  0  0  0
  194.5070  177.0570  145.6610 O   0  0  0  0  0  0  0  0  0  0  0  0
  188.1580  174.5980  139.7920 N   0  0  0  0  0  2  0  0  0  0  0  0
  188.2150  173.7990  138.5770 C   0  0  0  0  0  2  0  0  0  0  0  0
  188.1360  174.6360  137.4660 O   0  0  0  0  0  0  0  0  0  0  0  0
  189.1580  174.1990  136.6260 C   0  0  0  0  0  1  0  0  0  0  0  0
  1 14  1  0  0  0  0
  2 15  1  0  0  0  0
  2 13  1  0  0  0  0
  3  1  1  0  0  0  0
  4  7  1  0  0  0  0
  4  1  2  0  0  0  0
  5 11  2  0  0  0  0
  5  7  1  0  0  0  0
  7  2  2  0  0  0  0
  8 17  1  0  0  0  0
  9  8  2  0  0  0  0
  9 15  1  0  0  0  0
 10  4  1  0  0  0  0
 11  9  1  0  0  0  0
 12 10  2  0  0  0  0
 12 16  1  0  0  0  0
 14 13  2  0  0  0  0
 14 21  1  0  0  0  0
 15 18  2  0  0  0  0
 16  3  2  0  0  0  0
 17  6  2  0  0  0  0
 18  6  1  0  0  0  0
 19 20  1  0  0  0  0
 21 24  1  0  0  0  0
 22 19  1  0  0  0  0
 23 21  2  0  0  0  0
 23 26  1  0  0  0  0
 24 25  1  0  0  0  0
 24 19  2  0  0  0  0
 26 22  2  0  0  0  0
 27 28  1  0  0  0  0
 28 26  1  0  0  0  0
 29 10  1  0  0  0  0
 30 29  1  0  0  0  0
 31 30  1  0  0  0  0
 32 31  1  0  0  0  0
M  END
>  <MODEL>
3

>  <REMARK>
 VINA RESULT:      -7.6      2.560      6.602
  Name = 
  5 active torsions:
  status: ('A' for Active; 'I' for Inactive)
    1  A    between atoms: O_13  and  C_18
    2  A    between atoms: C_14  and  N_29
    3  A    between atoms: O_15  and  C_26
    4  A    between atoms: C_16  and  C_27
    5  A    between atoms: C_18  and  N_29
                            x       y       z     vdW  Elec       q    Type
                         _______ _______ _______ _____ _____    ______ ____

>  <TORSDO>
F 5

$$$$
=
 OpenBabel11052419163D

 32 36  0  0  0  0  0  0  0  0999 V2000
  189.3980  176.3960  145.6540 C   0  0  0  0  0  0  0  0  0  0  0  0
  189.8070  174.5360  143.6160 C   0  0  0  0  0  0  0  0  0  0  0  0
  189.1920  177.3720  146.6400 C   0  0  0  0  0  3  0  0  0  0  0  0
  190.6190  175.6620  145.6300 C   0  0  0  0  0  0  0  0  0  0  0  0
  191.9590  173.9760  144.5050 N   0  0  0  0  0  0  0  0  0  0  0  0
  189.2540  172.4640  140.5710 C   0  0  0  0  0  3  0  0  0  0  0  0
  190.8150  174.7140  144.5920 C   0  0  0  0  0  0  0  0  0  0  0  0
  191.4220  171.9360  141.5150 C   0  0  0  0  0  3  0  0  0  0  0  0
  191.2050  172.8660  142.5360 C   0  0  0  0  0  0  0  0  0  0  0  0
  191.5920  175.9210  146.6380 C   0  0  0  0  0  0  0  0  0  0  0  0
  192.1720  173.0700  143.5160 C   0  0  0  0  0  3  0  0  0  0  0  0
  191.3400  176.8970  147.6120 C   0  0  0  0  0  3  0  0  0  0  0  0
  188.6590  175.2560  143.6840 N   0  0  0  0  0  0  0  0  0  0  0  0
  188.4150  176.1590  144.6690 C   0  0  0  0  0  0  0  0  0  0  0  0
  190.0050  173.6060  142.5810 C   0  0  0  0  0  0  0  0  0  0  0  0
  190.1530  177.6200  147.6130 C   0  0  0  0  0  3  0  0  0  0  0  0
  190.4460  171.7350  140.5350 C   0  0  0  0  0  3  0  0  0  0  0  0
  189.0320  173.3960  141.5910 C   0  0  0  0  0  3  0  0  0  0  0  0
  185.0120  177.5210  145.6600 C   0  0  0  0  0  0  0  0  0  0  0  0
  184.1540  177.4900  146.7080 F   0  0  0  0  0  0  0  0  0  0  0  0
  187.1240  176.8790  144.6410 C   0  0  0  0  0  0  0  0  0  0  0  0
  184.6670  178.2220  144.5030 C   0  0  0  0  0  3  0  0  0  0  0  0
  186.7590  177.5720  143.4800 C   0  0  0  0  0  3  0  0  0  0  0  0
  186.2340  176.8410  145.7310 C   0  0  0  0  0  0  0  0  0  0  0  0
  186.5310  176.1210  146.8440 F   0  0  0  0  0  0  0  0  0  0  0  0
  185.5390  178.2490  143.4040 C   0  0  0  0  0  0  0  0  0  0  0  0
  184.8540  178.2690  141.0280 C   0  0  0  0  0  1  0  0  0  0  0  0
  185.2180  178.9350  142.2290 O   0  0  0  0  0  0  0  0  0  0  0  0
  192.8330  175.2040  146.6780 N   0  0  0  0  0  2  0  0  0  0  0  0
  194.1290  175.8300  146.4590 C   0  0  0  0  0  2  0  0  0  0  0  0
  194.1010  176.5560  145.2700 O   0  0  0  0  0  0  0  0  0  0  0  0
  195.3260  176.2830  144.6650 C   0  0  0  0  0  1  0  0  0  0  0  0
  1  3  2  0  0  0  0
  2 13  1  0  0  0  0
  2  7  1  0  0  0  0
  3 16  1  0  0  0  0
  4  1  1  0  0  0  0
  4 10  2  0  0  0  0
  5  7  2  0  0  0  0
  6 18  2  0  0  0  0
  7  4  1  0  0  0  0
  8  9  1  0  0  0  0
  9 15  1  0  0  0  0
  9 11  2  0  0  0  0
 10 29  1  0  0  0  0
 10 12  1  0  0  0  0
 11  5  1  0  0  0  0
 12 16  2  0  0  0  0
 13 14  2  0  0  0  0
 14  1  1  0  0  0  0
 15  2  2  0  0  0  0
 17  6  1  0  0  0  0
 17  8  2  0  0  0  0
 18 15  1  0  0  0  0
 19 24  1  0  0  0  0
 19 20  1  0  0  0  0
 21 14  1  0  0  0  0
 21 24  2  0  0  0  0
 22 19  2  0  0  0  0
 23 21  1  0  0  0  0
 24 25  1  0  0  0  0
 26 23  2  0  0  0  0
 26 22  1  0  0  0  0
 27 28  1  0  0  0  0
 28 26  1  0  0  0  0
 30 29  1  0  0  0  0
 31 30  1  0  0  0  0
 32 31  1  0  0  0  0
M  END
>  <MODEL>
4

>  <REMARK>
 VINA RESULT:      -7.5      1.686      2.071
  Name = 
  5 active torsions:
  status: ('A' for Active; 'I' for Inactive)
    1  A    between atoms: O_13  and  C_18
    2  A    between atoms: C_14  and  N_29
    3  A    between atoms: O_15  and  C_26
    4  A    between atoms: C_16  and  C_27
    5  A    between atoms: C_18  and  N_29
                            x       y       z     vdW  Elec       q    Type
                         _______ _______ _______ _____ _____    ______ ____

>  <TORSDO>
F 5

$$$$
=
 OpenBabel11052419163D

 32 36  0  0  0  0  0  0  0  0999 V2000
  187.1760  176.9260  141.7050 C   0  0  0  0  0  0  0  0  0  0  0  0
  186.4810  177.5680  144.3290 C   0  0  0  0  0  0  0  0  0  0  0  0
  187.5690  176.6400  140.3890 C   0  0  0  0  0  3  0  0  0  0  0  0
  185.9280  177.5700  141.9470 C   0  0  0  0  0  0  0  0  0  0  0  0
  184.4040  178.5040  143.5920 N   0  0  0  0  0  0  0  0  0  0  0  0
  186.6480  177.9270  148.0320 C   0  0  0  0  0  3  0  0  0  0  0  0
  185.5810  177.8870  143.2860 C   0  0  0  0  0  0  0  0  0  0  0  0
  184.5590  178.8590  147.2310 C   0  0  0  0  0  3  0  0  0  0  0  0
  184.9140  178.5290  145.9200 C   0  0  0  0  0  0  0  0  0  0  0  0
  185.0910  177.8780  140.8350 C   0  0  0  0  0  0  0  0  0  0  0  0
  184.0560  178.8250  144.8650 C   0  0  0  0  0  3  0  0  0  0  0  0
  185.5170  177.5630  139.5370 C   0  0  0  0  0  3  0  0  0  0  0  0
  187.6570  176.9510  144.0490 N   0  0  0  0  0  0  0  0  0  0  0  0
  188.0240  176.6080  142.7880 C   0  0  0  0  0  0  0  0  0  0  0  0
  186.1450  177.8920  145.6540 C   0  0  0  0  0  0  0  0  0  0  0  0
  186.7460  176.9530  139.3130 C   0  0  0  0  0  3  0  0  0  0  0  0
  185.4260  178.5580  148.2860 C   0  0  0  0  0  3  0  0  0  0  0  0
  187.0070  177.5940  146.7220 C   0  0  0  0  0  3  0  0  0  0  0  0
  191.7590  175.9560  142.5720 C   0  0  0  0  0  0  0  0  0  0  0  0
  192.9320  176.6140  142.7300 F   0  0  0  0  0  0  0  0  0  0  0  0
  189.3280  175.9330  142.6080 C   0  0  0  0  0  0  0  0  0  0  0  0
  191.7650  174.6100  142.1990 C   0  0  0  0  0  3  0  0  0  0  0  0
  189.3470  174.5890  142.2170 C   0  0  0  0  0  3  0  0  0  0  0  0
  190.5440  176.6240  142.7700 C   0  0  0  0  0  0  0  0  0  0  0  0
  190.5560  177.9450  143.0820 F   0  0  0  0  0  0  0  0  0  0  0  0
  190.5570  173.9190  142.0160 C   0  0  0  0  0  0  0  0  0  0  0  0
  189.7980  171.5890  142.3490 C   0  0  0  0  0  1  0  0  0  0  0  0
  190.5310  172.5750  141.6340 O   0  0  0  0  0  0  0  0  0  0  0  0
  183.8170  178.5100  141.0130 N   0  0  0  0  0  2  0  0  0  0  0  0
  182.5710  177.9660  140.4950 C   0  0  0  0  0  2  0  0  0  0  0  0
  181.5750  178.0830  141.4630 O   0  0  0  0  0  0  0  0  0  0  0  0
  180.6310  178.9350  140.8920 C   0  0  0  0  0  1  0  0  0  0  0  0
  1  4  2  0  0  0  0
  1 14  1  0  0  0  0
  2 15  1  0  0  0  0
  3  1  1  0  0  0  0
  4  7  1  0  0  0  0
  5 11  2  0  0  0  0
  6 17  1  0  0  0  0
  7  5  1  0  0  0  0
  7  2  2  0  0  0  0
  8 17  2  0  0  0  0
  9  8  1  0  0  0  0
 10 29  1  0  0  0  0
 10  4  1  0  0  0  0
 11  9  1  0  0  0  0
 12 10  2  0  0  0  0
 13  2  1  0  0  0  0
 14 13  2  0  0  0  0
 15  9  2  0  0  0  0
 15 18  1  0  0  0  0
 16 12  1  0  0  0  0
 16  3  2  0  0  0  0
 18  6  2  0  0  0  0
 19 20  1  0  0  0  0
 19 24  1  0  0  0  0
 21 24  2  0  0  0  0
 21 14  1  0  0  0  0
 22 19  2  0  0  0  0
 23 21  1  0  0  0  0
 24 25  1  0  0  0  0
 26 22  1  0  0  0  0
 26 23  2  0  0  0  0
 28 26  1  0  0  0  0
 28 27  1  0  0  0  0
 30 29  1  0  0  0  0
 30 31  1  0  0  0  0
 32 31  1  0  0  0  0
M  END
>  <MODEL>
5

>  <REMARK>
 VINA RESULT:      -7.4      3.582      8.849
  Name = 
  5 active torsions:
  status: ('A' for Active; 'I' for Inactive)
    1  A    between atoms: O_13  and  C_18
    2  A    between atoms: C_14  and  N_29
    3  A    between atoms: O_15  and  C_26
    4  A    between atoms: C_16  and  C_27
    5  A    between atoms: C_18  and  N_29
                            x       y       z     vdW  Elec       q    Type
                         _______ _______ _______ _____ _____    ______ ____

>  <TORSDO>
F 5

$$$$
=
 OpenBabel11052419163D

 32 36  0  0  0  0  0  0  0  0999 V2000
  188.4270  176.2770  144.4880 C   0  0  0  0  0  0  0  0  0  0  0  0
  188.8670  174.4970  142.3870 C   0  0  0  0  0  0  0  0  0  0  0  0
  188.2130  177.2150  145.5090 C   0  0  0  0  0  3  0  0  0  0  0  0
  189.5730  175.4320  144.5340 C   0  0  0  0  0  0  0  0  0  0  0  0
  190.8610  173.6870  143.4380 N   0  0  0  0  0  0  0  0  0  0  0  0
  188.4340  172.6510  139.1820 C   0  0  0  0  0  3  0  0  0  0  0  0
  189.7850  174.5260  143.4630 C   0  0  0  0  0  0  0  0  0  0  0  0
  190.4410  171.8680  140.2900 C   0  0  0  0  0  3  0  0  0  0  0  0
  190.2090  172.7600  141.3410 C   0  0  0  0  0  0  0  0  0  0  0  0
  190.4610  175.5430  145.6430 C   0  0  0  0  0  0  0  0  0  0  0  0
  191.0890  172.8190  142.4190 C   0  0  0  0  0  3  0  0  0  0  0  0
  190.2020  176.4860  146.6470 C   0  0  0  0  0  3  0  0  0  0  0  0
  187.7870  175.3190  142.3920 N   0  0  0  0  0  0  0  0  0  0  0  0
  187.5290  176.1870  143.4020 C   0  0  0  0  0  0  0  0  0  0  0  0
  189.0810  173.6080  141.3200 C   0  0  0  0  0  0  0  0  0  0  0  0
  189.0920  177.3180  146.5820 C   0  0  0  0  0  3  0  0  0  0  0  0
  189.5530  171.8140  139.2120 C   0  0  0  0  0  3  0  0  0  0  0  0
  188.1970  173.5450  140.2310 C   0  0  0  0  0  3  0  0  0  0  0  0
  184.6980  178.2910  141.9960 C   0  0  0  0  0  0  0  0  0  0  0  0
  184.2300  178.7260  140.8010 F   0  0  0  0  0  0  0  0  0  0  0  0
  186.3180  177.0290  143.2980 C   0  0  0  0  0  0  0  0  0  0  0  0
  184.0460  178.6660  143.1720 C   0  0  0  0  0  3  0  0  0  0  0  0
  185.6650  177.4250  144.4710 C   0  0  0  0  0  3  0  0  0  0  0  0
  185.8380  177.4800  142.0530 C   0  0  0  0  0  0  0  0  0  0  0  0
  186.4900  177.1680  140.9040 F   0  0  0  0  0  0  0  0  0  0  0  0
  184.5280  178.2370  144.4180 C   0  0  0  0  0  0  0  0  0  0  0  0
  184.4680  178.3330  146.8890 C   0  0  0  0  0  1  0  0  0  0  0  0
  183.9020  178.6030  145.6130 O   0  0  0  0  0  0  0  0  0  0  0  0
  191.6220  174.7100  145.7550 N   0  0  0  0  0  2  0  0  0  0  0  0
  192.8100  175.0850  146.5070 C   0  0  0  0  0  2  0  0  0  0  0  0
  193.6710  175.8090  145.6860 O   0  0  0  0  0  0  0  0  0  0  0  0
  194.1880  176.8050  146.5130 C   0  0  0  0  0  1  0  0  0  0  0  0
  1  4  1  0  0  0  0
  1  3  2  0  0  0  0
  2 13  1  0  0  0  0
  2  7  1  0  0  0  0
  3 16  1  0  0  0  0
  4 10  2  0  0  0  0
  5  7  2  0  0  0  0
  6 17  1  0  0  0  0
  6 18  2  0  0  0  0
  7  4  1  0  0  0  0
  8  9  1  0  0  0  0
  9 11  2  0  0  0  0
 10 29  1  0  0  0  0
 10 12  1  0  0  0  0
 11  5  1  0  0  0  0
 13 14  2  0  0  0  0
 14  1  1  0  0  0  0
 15  9  1  0  0  0  0
 15  2  2  0  0  0  0
 16 12  2  0  0  0  0
 17  8  2  0  0  0  0
 18 15  1  0  0  0  0
 19 24  2  0  0  0  0
 19 22  1  0  0  0  0
 20 19  1  0  0  0  0
 21 14  1  0  0  0  0
 21 23  2  0  0  0  0
 22 26  2  0  0  0  0
 24 21  1  0  0  0  0
 25 24  1  0  0  0  0
 26 23  1  0  0  0  0
 26 28  1  0  0  0  0
 28 27  1  0  0  0  0
 29 30  1  0  0  0  0
 31 30  1  0  0  0  0
 31 32  1  0  0  0  0
M  END
>  <MODEL>
6

>  <REMARK>
 VINA RESULT:      -7.3      2.508      3.293
  Name = 
  5 active torsions:
  status: ('A' for Active; 'I' for Inactive)
    1  A    between atoms: O_13  and  C_18
    2  A    between atoms: C_14  and  N_29
    3  A    between atoms: O_15  and  C_26
    4  A    between atoms: C_16  and  C_27
    5  A    between atoms: C_18  and  N_29
                            x       y       z     vdW  Elec       q    Type
                         _______ _______ _______ _____ _____    ______ ____

>  <TORSDO>
F 5

$$$$
=
 OpenBabel11052419163D

 32 36  0  0  0  0  0  0  0  0999 V2000
  189.1890  175.4010  144.8760 C   0  0  0  0  0  0  0  0  0  0  0  0
  187.5600  176.4790  142.8860 C   0  0  0  0  0  0  0  0  0  0  0  0
  189.9980  174.8070  145.8560 C   0  0  0  0  0  3  0  0  0  0  0  0
  187.9860  176.0620  145.2580 C   0  0  0  0  0  0  0  0  0  0  0  0
  186.0010  177.2570  144.5280 N   0  0  0  0  0  0  0  0  0  0  0  0
  186.2640  177.4460  139.5310 C   0  0  0  0  0  3  0  0  0  0  0  0
  187.1670  176.6120  144.2380 C   0  0  0  0  0  0  0  0  0  0  0  0
  184.7210  178.2120  141.2350 C   0  0  0  0  0  3  0  0  0  0  0  0
  185.5480  177.6730  142.2260 C   0  0  0  0  0  0  0  0  0  0  0  0
  187.6530  176.1300  146.6420 C   0  0  0  0  0  0  0  0  0  0  0  0
  185.1960  177.7830  143.5680 C   0  0  0  0  0  3  0  0  0  0  0  0
  188.4960  175.5330  147.5890 C   0  0  0  0  0  3  0  0  0  0  0  0
  188.7180  175.8450  142.5730 N   0  0  0  0  0  0  0  0  0  0  0  0
  189.5460  175.3210  143.5120 C   0  0  0  0  0  0  0  0  0  0  0  0
  186.7440  177.0130  141.8740 C   0  0  0  0  0  0  0  0  0  0  0  0
  189.6570  174.8740  147.2030 C   0  0  0  0  0  3  0  0  0  0  0  0
  185.0810  178.0990  139.8890 C   0  0  0  0  0  3  0  0  0  0  0  0
  187.0940  176.9050  140.5190 C   0  0  0  0  0  3  0  0  0  0  0  0
  193.1710  174.6680  142.5900 C   0  0  0  0  0  0  0  0  0  0  0  0
  194.3670  175.3030  142.5940 F   0  0  0  0  0  0  0  0  0  0  0  0
  190.7830  174.6570  143.0490 C   0  0  0  0  0  0  0  0  0  0  0  0
  193.0830  173.3600  142.1080 C   0  0  0  0  0  3  0  0  0  0  0  0
  190.7060  173.3520  142.5480 C   0  0  0  0  0  3  0  0  0  0  0  0
  192.0240  175.3230  143.0530 C   0  0  0  0  0  0  0  0  0  0  0  0
  192.1170  176.6120  143.4700 F   0  0  0  0  0  0  0  0  0  0  0  0
  191.8480  172.6950  142.0810 C   0  0  0  0  0  0  0  0  0  0  0  0
  190.6750  170.5200  141.9930 C   0  0  0  0  0  1  0  0  0  0  0  0
  191.7270  171.3900  141.5970 O   0  0  0  0  0  0  0  0  0  0  0  0
  186.4650  176.7940  147.0900 N   0  0  0  0  0  2  0  0  0  0  0  0
  186.4770  177.9550  147.9680 C   0  0  0  0  0  2  0  0  0  0  0  0
  185.8530  179.0260  147.3320 O   0  0  0  0  0  0  0  0  0  0  0  0
  184.5250  178.6250  147.1930 C   0  0  0  0  0  1  0  0  0  0  0  0
  1  4  1  0  0  0  0
  1  3  2  0  0  0  0
  2  7  1  0  0  0  0
  3 16  1  0  0  0  0
  4 10  2  0  0  0  0
  6 17  1  0  0  0  0
  6 18  2  0  0  0  0
  7  5  2  0  0  0  0
  7  4  1  0  0  0  0
  8  9  1  0  0  0  0
  9 11  2  0  0  0  0
 10 29  1  0  0  0  0
 10 12  1  0  0  0  0
 11  5  1  0  0  0  0
 13  2  1  0  0  0  0
 13 14  2  0  0  0  0
 14  1  1  0  0  0  0
 15  9  1  0  0  0  0
 15  2  2  0  0  0  0
 16 12  2  0  0  0  0
 17  8  2  0  0  0  0
 18 15  1  0  0  0  0
 19 20  1  0  0  0  0
 19 24  1  0  0  0  0
 21 24  2  0  0  0  0
 21 14  1  0  0  0  0
 22 19  2  0  0  0  0
 23 21  1  0  0  0  0
 24 25  1  0  0  0  0
 26 22  1  0  0  0  0
 26 23  2  0  0  0  0
 28 27  1  0  0  0  0
 28 26  1  0  0  0  0
 29 30  1  0  0  0  0
 31 30  1  0  0  0  0
 32 31  1  0  0  0  0
M  END
>  <MODEL>
7

>  <REMARK>
 VINA RESULT:      -7.3      3.175      7.035
  Name = 
  5 active torsions:
  status: ('A' for Active; 'I' for Inactive)
    1  A    between atoms: O_13  and  C_18
    2  A    between atoms: C_14  and  N_29
    3  A    between atoms: O_15  and  C_26
    4  A    between atoms: C_16  and  C_27
    5  A    between atoms: C_18  and  N_29
                            x       y       z     vdW  Elec       q    Type
                         _______ _______ _______ _____ _____    ______ ____

>  <TORSDO>
F 5

$$$$
=
 OpenBabel11052419163D

 32 36  0  0  0  0  0  0  0  0999 V2000
  189.2790  175.5120  144.8630 C   0  0  0  0  0  0  0  0  0  0  0  0
  187.5810  176.5410  142.9050 C   0  0  0  0  0  0  0  0  0  0  0  0
  190.1260  174.9430  145.8260 C   0  0  0  0  0  3  0  0  0  0  0  0
  188.0420  176.0930  145.2640 C   0  0  0  0  0  0  0  0  0  0  0  0
  185.9870  177.1890  144.5700 N   0  0  0  0  0  0  0  0  0  0  0  0
  186.2150  177.5090  139.5780 C   0  0  0  0  0  3  0  0  0  0  0  0
  187.1880  176.6190  144.2610 C   0  0  0  0  0  0  0  0  0  0  0  0
  184.6390  178.1450  141.3050 C   0  0  0  0  0  3  0  0  0  0  0  0
  185.5000  177.6320  142.2800 C   0  0  0  0  0  0  0  0  0  0  0  0
  187.7120  176.1090  146.6510 C   0  0  0  0  0  0  0  0  0  0  0  0
  185.1490  177.6900  143.6260 C   0  0  0  0  0  3  0  0  0  0  0  0
  188.5930  175.5400  147.5800 C   0  0  0  0  0  3  0  0  0  0  0  0
  188.7720  175.9820  142.5730 N   0  0  0  0  0  0  0  0  0  0  0  0
  189.6330  175.4850  143.4970 C   0  0  0  0  0  0  0  0  0  0  0  0
  186.7310  177.0500  141.9080 C   0  0  0  0  0  0  0  0  0  0  0  0
  189.7880  174.9590  147.1750 C   0  0  0  0  0  3  0  0  0  0  0  0
  184.9980  178.0840  139.9560 C   0  0  0  0  0  3  0  0  0  0  0  0
  187.0800  176.9950  140.5500 C   0  0  0  0  0  3  0  0  0  0  0  0
  192.2530  173.0160  142.2880 C   0  0  0  0  0  0  0  0  0  0  0  0
  192.3750  171.6970  142.0060 F   0  0  0  0  0  0  0  0  0  0  0  0
  190.9050  174.9050  143.0140 C   0  0  0  0  0  0  0  0  0  0  0  0
  193.3590  173.8580  142.1540 C   0  0  0  0  0  3  0  0  0  0  0  0
  192.0260  175.7350  142.8910 C   0  0  0  0  0  3  0  0  0  0  0  0
  191.0270  173.5320  142.7250 C   0  0  0  0  0  0  0  0  0  0  0  0
  189.9760  172.6900  142.9000 F   0  0  0  0  0  0  0  0  0  0  0  0
  193.2520  175.2230  142.4580 C   0  0  0  0  0  0  0  0  0  0  0  0
  194.9490  176.3950  141.0930 C   0  0  0  0  0  1  0  0  0  0  0  0
  194.3430  176.0890  142.3420 O   0  0  0  0  0  0  0  0  0  0  0  0
  186.4900  176.6930  147.1190 N   0  0  0  0  0  2  0  0  0  0  0  0
  186.4390  177.8420  148.0120 C   0  0  0  0  0  2  0  0  0  0  0  0
  185.8820  178.9280  147.3410 O   0  0  0  0  0  0  0  0  0  0  0  0
  184.5240  178.6260  147.2530 C   0  0  0  0  0  1  0  0  0  0  0  0
  1  4  1  0  0  0  0
  1  3  2  0  0  0  0
  2  7  1  0  0  0  0
  3 16  1  0  0  0  0
  4 10  2  0  0  0  0
  6 17  1  0  0  0  0
  6 18  2  0  0  0  0
  7  5  2  0  0  0  0
  7  4  1  0  0  0  0
  8  9  1  0  0  0  0
  9 11  2  0  0  0  0
 10 29  1  0  0  0  0
 10 12  1  0  0  0  0
 11  5  1  0  0  0  0
 13  2  1  0  0  0  0
 13 14  2  0  0  0  0
 14  1  1  0  0  0  0
 15  9  1  0  0  0  0
 15  2  2  0  0  0  0
 16 12  2  0  0  0  0
 17  8  2  0  0  0  0
 18 15  1  0  0  0  0
 19 24  1  0  0  0  0
 20 19  1  0  0  0  0
 21 14  1  0  0  0  0
 22 19  2  0  0  0  0
 22 26  1  0  0  0  0
 23 21  1  0  0  0  0
 24 25  1  0  0  0  0
 24 21  2  0  0  0  0
 26 23  2  0  0  0  0
 27 28  1  0  0  0  0
 28 26  1  0  0  0  0
 29 30  1  0  0  0  0
 31 30  1  0  0  0  0
 32 31  1  0  0  0  0
M  END
>  <MODEL>
8

>  <REMARK>
 VINA RESULT:      -7.3      2.917      6.950
  Name = 
  5 active torsions:
  status: ('A' for Active; 'I' for Inactive)
    1  A    between atoms: O_13  and  C_18
    2  A    between atoms: C_14  and  N_29
    3  A    between atoms: O_15  and  C_26
    4  A    between atoms: C_16  and  C_27
    5  A    between atoms: C_18  and  N_29
                            x       y       z     vdW  Elec       q    Type
                         _______ _______ _______ _____ _____    ______ ____

>  <TORSDO>
F 5

$$$$
=
 OpenBabel11052419163D

 32 36  0  0  0  0  0  0  0  0999 V2000
  189.0660  174.6440  142.8290 C   0  0  0  0  0  0  0  0  0  0  0  0
  191.4450  175.0400  144.2290 C   0  0  0  0  0  0  0  0  0  0  0  0
  187.8440  174.4320  142.1740 C   0  0  0  0  0  3  0  0  0  0  0  0
  190.1660  173.7770  142.5710 C   0  0  0  0  0  0  0  0  0  0  0  0
  192.4680  173.1990  143.0900 N   0  0  0  0  0  0  0  0  0  0  0  0
  193.9510  176.4570  146.5920 C   0  0  0  0  0  3  0  0  0  0  0  0
  191.3740  173.9900  143.2840 C   0  0  0  0  0  0  0  0  0  0  0  0
  194.9360  174.5870  145.4080 C   0  0  0  0  0  3  0  0  0  0  0  0
  193.7410  174.4000  144.7070 C   0  0  0  0  0  0  0  0  0  0  0  0
  190.0020  172.7280  141.6200 C   0  0  0  0  0  0  0  0  0  0  0  0
  193.6310  173.3780  143.7680 C   0  0  0  0  0  3  0  0  0  0  0  0
  188.7670  172.5600  140.9790 C   0  0  0  0  0  3  0  0  0  0  0  0
  190.3710  175.8420  144.4370 N   0  0  0  0  0  0  0  0  0  0  0  0
  189.2010  175.6930  143.7650 C   0  0  0  0  0  0  0  0  0  0  0  0
  192.6370  175.2450  144.9460 C   0  0  0  0  0  0  0  0  0  0  0  0
  187.6950  173.4010  141.2530 C   0  0  0  0  0  3  0  0  0  0  0  0
  195.0400  175.6150  146.3490 C   0  0  0  0  0  3  0  0  0  0  0  0
  192.7530  176.2740  145.8930 C   0  0  0  0  0  3  0  0  0  0  0  0
  186.6760  178.5160  143.4980 C   0  0  0  0  0  0  0  0  0  0  0  0
  186.2910  179.4780  142.6250 F   0  0  0  0  0  0  0  0  0  0  0  0
  188.1020  176.6330  144.0730 C   0  0  0  0  0  0  0  0  0  0  0  0
  186.0470  178.4180  144.7410 C   0  0  0  0  0  3  0  0  0  0  0  0
  187.4750  176.5560  145.3230 C   0  0  0  0  0  3  0  0  0  0  0  0
  187.7090  177.6320  143.1630 C   0  0  0  0  0  0  0  0  0  0  0  0
  188.3450  177.7750  141.9720 F   0  0  0  0  0  0  0  0  0  0  0  0
  186.4460  177.4380  145.6630 C   0  0  0  0  0  0  0  0  0  0  0  0
  185.0850  178.3710  147.5050 C   0  0  0  0  0  1  0  0  0  0  0  0
  185.8410  177.3210  146.9170 O   0  0  0  0  0  0  0  0  0  0  0  0
  191.0760  171.8330  141.3040 N   0  0  0  0  0  2  0  0  0  0  0  0
  190.8750  170.4550  140.8820 C   0  0  0  0  0  2  0  0  0  0  0  0
  190.7020  169.6450  142.0020 O   0  0  0  0  0  0  0  0  0  0  0  0
  190.7690  168.3440  141.5080 C   0  0  0  0  0  1  0  0  0  0  0  0
  1 14  1  0  0  0  0
  2 13  1  0  0  0  0
  2 15  1  0  0  0  0
  3  1  1  0  0  0  0
  4  1  2  0  0  0  0
  4  7  1  0  0  0  0
  5  7  1  0  0  0  0
  5 11  2  0  0  0  0
  7  2  2  0  0  0  0
  8 17  2  0  0  0  0
  9 15  2  0  0  0  0
  9  8  1  0  0  0  0
 10  4  1  0  0  0  0
 11  9  1  0  0  0  0
 12 16  1  0  0  0  0
 12 10  2  0  0  0  0
 14 21  1  0  0  0  0
 14 13  2  0  0  0  0
 15 18  1  0  0  0  0
 16  3  2  0  0  0  0
 17  6  1  0  0  0  0
 18  6  2  0  0  0  0
 19 22  1  0  0  0  0
 20 19  1  0  0  0  0
 21 23  2  0  0  0  0
 22 26  2  0  0  0  0
 23 26  1  0  0  0  0
 24 19  2  0  0  0  0
 24 21  1  0  0  0  0
 25 24  1  0  0  0  0
 26 28  1  0  0  0  0
 28 27  1  0  0  0  0
 29 10  1  0  0  0  0
 30 29  1  0  0  0  0
 30 31  1  0  0  0  0
 32 31  1  0  0  0  0
M  END
>  <MODEL>
9

>  <REMARK>
 VINA RESULT:      -7.3      2.788      5.428
  Name = 
  5 active torsions:
  status: ('A' for Active; 'I' for Inactive)
    1  A    between atoms: O_13  and  C_18
    2  A    between atoms: C_14  and  N_29
    3  A    between atoms: O_15  and  C_26
    4  A    between atoms: C_16  and  C_27
    5  A    between atoms: C_18  and  N_29
                            x       y       z     vdW  Elec       q    Type
                         _______ _______ _______ _____ _____    ______ ____

>  <TORSDO>
F 5

$$$$
