=
 OpenBabel11052417273D

 25 28  0  0  1  0  0  0  0  0999 V2000
  190.4100  176.9360  144.0980 C   0  0  2  0  0  3  0  0  0  0  0  0
  189.2310  176.9700  143.1960 C   0  0  0  0  0  0  0  0  0  0  0  0
  190.4950  175.1880  142.4880 N   0  0  0  0  0  0  0  0  0  0  0  0
  188.2980  175.7600  141.3730 C   0  0  0  0  0  0  0  0  0  0  0  0
  188.3450  174.5400  140.2850 S   0  0  0  0  0  0  0  0  0  0  0  0
  188.1830  177.8290  143.2060 N   0  0  0  0  0  0  0  0  0  0  0  0
  191.1300  175.7440  143.4770 C   0  0  0  0  0  0  0  0  0  0  0  0
  187.2450  176.6280  141.3860 N   0  0  0  0  0  2  0  0  0  0  0  0
  187.1870  177.6590  142.2860 C   0  0  0  0  0  0  0  0  0  0  0  0
  189.3100  175.9430  142.3080 C   0  0  0  0  0  0  0  0  0  0  0  0
  189.9470  176.7060  145.5470 C   0  0  2  0  0  3  0  0  0  0  0  0
  188.7560  174.3560  147.8610 O   0  0  0  0  0  1  0  0  0  0  0  0
  191.1040  176.6830  146.5220 C   0  0  0  0  0  2  0  0  0  0  0  0
  190.6680  175.7570  147.6320 C   0  0  0  0  0  2  0  0  0  0  0  0
  189.7590  174.7400  146.9730 C   0  0  2  0  0  3  0  0  0  0  0  0
  189.1470  175.4270  145.7670 C   0  0  0  0  0  2  0  0  0  0  0  0
  192.3790  175.2750  143.8790 O   0  0  0  0  0  0  0  0  0  0  0  0
  192.5040  174.1390  144.5760 O   0  0  0  0  0  1  0  0  0  0  0  0
  186.0100  178.5690  142.2930 C   0  0  0  0  0  2  0  0  0  0  0  0
  185.6770  178.9710  143.7160 C   0  0  2  0  0  3  0  0  0  0  0  0
  184.9430  177.8880  144.3670 C   0  0  2  0  0  3  0  0  0  0  0  0
  184.2190  179.0680  143.8650 N   0  0  0  0  0  2  0  0  0  0  0  0
  185.0870  177.9780  145.8560 C   0  0  0  0  0  0  0  0  0  0  0  0
  186.4330  178.1360  146.4780 C   0  0  0  0  0  1  0  0  0  0  0  0
  184.1030  177.8810  146.5720 O   0  0  0  0  0  0  0  0  0  0  0  0
  1  2  1  6  0  0  0
  1 11  1  0  0  0  0
  2  6  1  0  0  0  0
  3  7  2  0  0  0  0
  4  8  1  0  0  0  0
  4 10  1  0  0  0  0
  5  4  2  0  0  0  0
  7 17  1  0  0  0  0
  7  1  1  0  0  0  0
  8  9  1  0  0  0  0
  9 19  1  0  0  0  0
  9  6  2  0  0  0  0
 10  3  1  0  0  0  0
 10  2  2  0  0  0  0
 11 16  1  6  0  0  0
 11 13  1  0  0  0  0
 13 14  1  0  0  0  0
 15 14  1  0  0  0  0
 15 12  1  1  0  0  0
 16 15  1  0  0  0  0
 17 18  1  0  0  0  0
 20 19  1  6  0  0  0
 20 22  1  0  0  0  0
 20 21  1  0  0  0  0
 21 23  1  1  0  0  0
 22 21  1  0  0  0  0
 23 24  1  0  0  0  0
 23 25  2  0  0  0  0
M  END
>  <MODEL>
1

>  <REMARK>
 VINA RESULT:      -6.6      0.000      0.000
  Name = 
  5 active torsions:
  status: ('A' for Active; 'I' for Inactive)
    1  A    between atoms: C_1  and  C_5
    2  A    between atoms: C_2  and  C_21
    3  A    between atoms: O_4  and  C_18
    4  A    between atoms: C_6  and  C_15
    5  A    between atoms: C_6  and  C_23
                            x       y       z     vdW  Elec       q    Type
                         _______ _______ _______ _____ _____    ______ ____

>  <TORSDO>
F 5

$$$$
=
 OpenBabel11052417273D

 25 28  0  0  1  0  0  0  0  0999 V2000
  186.9800  177.9050  141.4660 C   0  0  2  0  0  3  0  0  0  0  0  0
  185.7310  178.2320  142.2000 C   0  0  0  0  0  0  0  0  0  0  0  0
  185.0690  177.7110  140.0630 N   0  0  0  0  0  0  0  0  0  0  0  0
  183.3800  178.3200  141.8450 C   0  0  0  0  0  0  0  0  0  0  0  0
  182.0660  178.1590  140.8860 S   0  0  0  0  0  0  0  0  0  0  0  0
  185.5830  178.5920  143.4980 N   0  0  0  0  0  0  0  0  0  0  0  0
  186.3660  177.6220  140.0990 C   0  0  0  0  0  0  0  0  0  0  0  0
  183.2360  178.6840  143.1520 N   0  0  0  0  0  2  0  0  0  0  0  0
  184.3230  178.8280  143.9730 C   0  0  0  0  0  0  0  0  0  0  0  0
  184.6650  178.0880  141.3680 C   0  0  0  0  0  0  0  0  0  0  0  0
  187.6580  176.6850  142.1150 C   0  0  2  0  0  3  0  0  0  0  0  0
  188.9730  173.4810  141.5700 O   0  0  0  0  0  1  0  0  0  0  0  0
  189.1160  176.9400  142.4280 C   0  0  0  0  0  2  0  0  0  0  0  0
  189.7870  175.5910  142.3130 C   0  0  0  0  0  2  0  0  0  0  0  0
  188.9980  174.8390  141.2610 C   0  0  2  0  0  3  0  0  0  0  0  0
  187.5910  175.4030  141.2920 C   0  0  0  0  0  2  0  0  0  0  0  0
  187.0950  177.3230  138.9490 O   0  0  0  0  0  0  0  0  0  0  0  0
  186.6190  176.4830  138.0230 O   0  0  0  0  0  1  0  0  0  0  0  0
  184.1280  179.1970  145.4010 C   0  0  0  0  0  2  0  0  0  0  0  0
  185.3630  178.8320  146.2010 C   0  0  2  0  0  3  0  0  0  0  0  0
  185.2880  177.4280  146.5980 C   0  0  2  0  0  3  0  0  0  0  0  0
  184.9690  178.4850  147.5720 N   0  0  0  0  0  2  0  0  0  0  0  0
  186.6570  176.8850  146.8700 C   0  0  0  0  0  0  0  0  0  0  0  0
  187.8010  177.2350  145.9790 C   0  0  0  0  0  1  0  0  0  0  0  0
  186.8360  176.1170  147.8020 O   0  0  0  0  0  0  0  0  0  0  0  0
  1  7  1  6  0  0  0
  1 11  1  0  0  0  0
  1  2  1  0  0  0  0
  2  6  1  0  0  0  0
  3  7  2  0  0  0  0
  3 10  1  0  0  0  0
  4  8  1  0  0  0  0
  5  4  2  0  0  0  0
  6  9  2  0  0  0  0
  8  9  1  0  0  0  0
  9 19  1  0  0  0  0
 10  4  1  0  0  0  0
 10  2  2  0  0  0  0
 11 16  1  6  0  0  0
 11 13  1  0  0  0  0
 14 13  1  0  0  0  0
 15 16  1  0  0  0  0
 15 12  1  1  0  0  0
 15 14  1  0  0  0  0
 17  7  1  0  0  0  0
 18 17  1  0  0  0  0
 20 19  1  6  0  0  0
 20 21  1  0  0  0  0
 20 22  1  0  0  0  0
 21 23  1  1  0  0  0
 21 22  1  0  0  0  0
 23 25  2  0  0  0  0
 24 23  1  0  0  0  0
M  END
>  <MODEL>
2

>  <REMARK>
 VINA RESULT:      -6.4      3.241      5.020
  Name = 
  5 active torsions:
  status: ('A' for Active; 'I' for Inactive)
    1  A    between atoms: C_1  and  C_5
    2  A    between atoms: C_2  and  C_21
    3  A    between atoms: O_4  and  C_18
    4  A    between atoms: C_6  and  C_15
    5  A    between atoms: C_6  and  C_23
                            x       y       z     vdW  Elec       q    Type
                         _______ _______ _______ _____ _____    ______ ____

>  <TORSDO>
F 5

$$$$
=
 OpenBabel11052417273D

 25 28  0  0  1  0  0  0  0  0999 V2000
  189.1190  177.3910  145.9620 C   0  0  2  0  0  3  0  0  0  0  0  0
  189.1060  176.9180  144.5550 C   0  0  0  0  0  0  0  0  0  0  0  0
  190.7820  175.7330  145.5860 N   0  0  0  0  0  0  0  0  0  0  0  0
  190.2130  175.3480  143.1510 C   0  0  0  0  0  0  0  0  0  0  0  0
  191.3390  174.1890  142.9030 S   0  0  0  0  0  0  0  0  0  0  0  0
  188.2920  177.3010  143.5410 N   0  0  0  0  0  0  0  0  0  0  0  0
  190.2790  176.5430  146.4710 C   0  0  0  0  0  0  0  0  0  0  0  0
  189.3920  175.7380  142.1340 N   0  0  0  0  0  2  0  0  0  0  0  0
  188.4440  176.7090  142.3190 C   0  0  0  0  0  0  0  0  0  0  0  0
  190.0550  175.9590  144.3900 C   0  0  0  0  0  0  0  0  0  0  0  0
  187.7680  177.0740  146.6280 C   0  0  2  0  0  3  0  0  0  0  0  0
  184.7510  178.4060  147.8190 O   0  0  0  0  0  1  0  0  0  0  0  0
  186.7950  176.4250  145.6690 C   0  0  0  0  0  2  0  0  0  0  0  0
  185.4260  176.8580  146.1410 C   0  0  0  0  0  2  0  0  0  0  0  0
  185.6270  178.2290  146.7500 C   0  0  2  0  0  3  0  0  0  0  0  0
  187.0610  178.2770  147.2430 C   0  0  0  0  0  2  0  0  0  0  0  0
  190.8120  176.6180  147.7560 O   0  0  0  0  0  0  0  0  0  0  0  0
  191.2590  175.5270  148.3890 O   0  0  0  0  0  1  0  0  0  0  0  0
  187.5460  177.0900  141.1950 C   0  0  0  0  0  2  0  0  0  0  0  0
  186.6490  178.2360  141.6180 C   0  0  2  0  0  3  0  0  0  0  0  0
  185.3720  177.7060  142.0910 C   0  0  2  0  0  3  0  0  0  0  0  0
  185.4730  178.2830  140.7400 N   0  0  0  0  0  2  0  0  0  0  0  0
  184.7070  178.6830  143.0110 C   0  0  0  0  0  0  0  0  0  0  0  0
  185.5120  179.7040  143.7420 C   0  0  0  0  0  1  0  0  0  0  0  0
  183.5020  178.6220  143.1990 O   0  0  0  0  0  0  0  0  0  0  0  0
  1  2  1  6  0  0  0
  1  7  1  0  0  0  0
  1 11  1  0  0  0  0
  3  7  2  0  0  0  0
  4 10  1  0  0  0  0
  5  4  2  0  0  0  0
  6  2  1  0  0  0  0
  7 17  1  0  0  0  0
  8  9  1  0  0  0  0
  8  4  1  0  0  0  0
  9  6  2  0  0  0  0
 10  2  2  0  0  0  0
 10  3  1  0  0  0  0
 11 13  1  6  0  0  0
 11 16  1  0  0  0  0
 13 14  1  0  0  0  0
 14 15  1  0  0  0  0
 15 16  1  0  0  0  0
 15 12  1  1  0  0  0
 17 18  1  0  0  0  0
 19  9  1  0  0  0  0
 20 19  1  6  0  0  0
 20 21  1  0  0  0  0
 21 23  1  1  0  0  0
 22 20  1  0  0  0  0
 22 21  1  0  0  0  0
 23 25  2  0  0  0  0
 23 24  1  0  0  0  0
M  END
>  <MODEL>
3

>  <REMARK>
 VINA RESULT:      -6.4      2.077      3.435
  Name = 
  5 active torsions:
  status: ('A' for Active; 'I' for Inactive)
    1  A    between atoms: C_1  and  C_5
    2  A    between atoms: C_2  and  C_21
    3  A    between atoms: O_4  and  C_18
    4  A    between atoms: C_6  and  C_15
    5  A    between atoms: C_6  and  C_23
                            x       y       z     vdW  Elec       q    Type
                         _______ _______ _______ _____ _____    ______ ____

>  <TORSDO>
F 5

$$$$
=
 OpenBabel11052417273D

 25 28  0  0  1  0  0  0  0  0999 V2000
  190.2330  177.4930  144.9570 C   0  0  2  0  0  3  0  0  0  0  0  0
  189.5190  176.9260  143.7860 C   0  0  0  0  0  0  0  0  0  0  0  0
  191.5150  175.7940  143.8970 N   0  0  0  0  0  0  0  0  0  0  0  0
  189.7990  175.2510  142.1190 C   0  0  0  0  0  0  0  0  0  0  0  0
  190.6700  174.0640  141.4080 S   0  0  0  0  0  0  0  0  0  0  0  0
  188.2940  177.2500  143.3030 N   0  0  0  0  0  0  0  0  0  0  0  0
  191.5110  176.6670  144.8600 C   0  0  0  0  0  0  0  0  0  0  0  0
  188.5660  175.5820  141.6360 N   0  0  0  0  0  2  0  0  0  0  0  0
  187.8200  176.5750  142.2130 C   0  0  0  0  0  0  0  0  0  0  0  0
  190.2770  175.9460  143.2240 C   0  0  0  0  0  0  0  0  0  0  0  0
  189.4150  177.2380  146.2360 C   0  0  2  0  0  3  0  0  0  0  0  0
  186.1990  177.0690  147.6220 O   0  0  0  0  0  1  0  0  0  0  0  0
  189.3590  175.7700  146.5960 C   0  0  0  0  0  2  0  0  0  0  0  0
  188.0320  175.5850  147.2950 C   0  0  0  0  0  2  0  0  0  0  0  0
  187.1030  176.6050  146.6690 C   0  0  2  0  0  3  0  0  0  0  0  0
  187.9780  177.7460  146.1870 C   0  0  0  0  0  2  0  0  0  0  0  0
  192.6210  176.8220  145.6890 O   0  0  0  0  0  0  0  0  0  0  0  0
  192.8020  176.0420  146.7610 O   0  0  0  0  0  1  0  0  0  0  0  0
  186.4670  176.8890  141.6800 C   0  0  0  0  0  2  0  0  0  0  0  0
  185.8990  178.0990  142.3960 C   0  0  2  0  0  3  0  0  0  0  0  0
  184.9060  177.6620  143.3740 C   0  0  2  0  0  3  0  0  0  0  0  0
  184.4700  178.2220  142.0840 N   0  0  0  0  0  2  0  0  0  0  0  0
  184.7440  178.6900  144.4520 C   0  0  0  0  0  0  0  0  0  0  0  0
  185.5570  179.9400  144.4350 C   0  0  0  0  0  1  0  0  0  0  0  0
  183.9710  178.4900  145.3760 O   0  0  0  0  0  0  0  0  0  0  0  0
  1  2  1  6  0  0  0
  1 11  1  0  0  0  0
  3  7  2  0  0  0  0
  4 10  1  0  0  0  0
  5  4  2  0  0  0  0
  6  2  1  0  0  0  0
  7  1  1  0  0  0  0
  7 17  1  0  0  0  0
  8  4  1  0  0  0  0
  8  9  1  0  0  0  0
  9  6  2  0  0  0  0
 10  2  2  0  0  0  0
 10  3  1  0  0  0  0
 11 16  1  6  0  0  0
 11 13  1  0  0  0  0
 13 14  1  0  0  0  0
 15 14  1  0  0  0  0
 15 12  1  1  0  0  0
 16 15  1  0  0  0  0
 17 18  1  0  0  0  0
 19  9  1  0  0  0  0
 20 19  1  6  0  0  0
 20 21  1  0  0  0  0
 21 23  1  1  0  0  0
 22 20  1  0  0  0  0
 22 21  1  0  0  0  0
 23 25  2  0  0  0  0
 24 23  1  0  0  0  0
M  END
>  <MODEL>
4

>  <REMARK>
 VINA RESULT:      -6.2      1.674      2.056
  Name = 
  5 active torsions:
  status: ('A' for Active; 'I' for Inactive)
    1  A    between atoms: C_1  and  C_5
    2  A    between atoms: C_2  and  C_21
    3  A    between atoms: O_4  and  C_18
    4  A    between atoms: C_6  and  C_15
    5  A    between atoms: C_6  and  C_23
                            x       y       z     vdW  Elec       q    Type
                         _______ _______ _______ _____ _____    ______ ____

>  <TORSDO>
F 5

$$$$
=
 OpenBabel11052417273D

 25 28  0  0  1  0  0  0  0  0999 V2000
  190.7860  176.1490  143.6540 C   0  0  2  0  0  3  0  0  0  0  0  0
  189.7840  175.9320  142.5810 C   0  0  0  0  0  0  0  0  0  0  0  0
  191.1310  174.0720  142.5480 N   0  0  0  0  0  0  0  0  0  0  0  0
  189.1690  174.2960  140.9660 C   0  0  0  0  0  0  0  0  0  0  0  0
  189.3920  172.8560  140.2260 S   0  0  0  0  0  0  0  0  0  0  0  0
  188.7600  176.7370  142.2040 N   0  0  0  0  0  0  0  0  0  0  0  0
  191.5890  174.8650  143.4700 C   0  0  0  0  0  0  0  0  0  0  0  0
  188.1420  175.1110  140.5900 N   0  0  0  0  0  2  0  0  0  0  0  0
  187.9380  176.3230  141.1940 C   0  0  0  0  0  0  0  0  0  0  0  0
  190.0050  174.7270  141.9910 C   0  0  0  0  0  0  0  0  0  0  0  0
  190.0740  176.2550  145.0150 C   0  0  2  0  0  3  0  0  0  0  0  0
  188.8210  174.4780  147.7660 O   0  0  0  0  0  1  0  0  0  0  0  0
  190.9910  176.7700  146.1030 C   0  0  0  0  0  2  0  0  0  0  0  0
  190.4870  176.1340  147.3780 C   0  0  0  0  0  2  0  0  0  0  0  0
  189.9120  174.7970  146.9600 C   0  0  2  0  0  3  0  0  0  0  0  0
  189.4630  174.9520  145.5190 C   0  0  0  0  0  2  0  0  0  0  0  0
  192.7430  174.5440  144.1820 O   0  0  0  0  0  0  0  0  0  0  0  0
  192.7340  173.6000  145.1310 O   0  0  0  0  0  1  0  0  0  0  0  0
  186.7900  177.1730  140.7800 C   0  0  0  0  0  2  0  0  0  0  0  0
  186.3890  178.0890  141.9190 C   0  0  2  0  0  3  0  0  0  0  0  0
  185.3620  177.4380  142.7290 C   0  0  2  0  0  3  0  0  0  0  0  0
  184.9830  178.4790  141.7580 N   0  0  0  0  0  2  0  0  0  0  0  0
  185.3460  178.0080  144.1140 C   0  0  0  0  0  0  0  0  0  0  0  0
  186.6220  178.2490  144.8480 C   0  0  0  0  0  1  0  0  0  0  0  0
  184.2830  178.2400  144.6670 O   0  0  0  0  0  0  0  0  0  0  0  0
  1  2  1  6  0  0  0
  1 11  1  0  0  0  0
  3  7  2  0  0  0  0
  4 10  1  0  0  0  0
  5  4  2  0  0  0  0
  6  2  1  0  0  0  0
  7  1  1  0  0  0  0
  7 17  1  0  0  0  0
  8  4  1  0  0  0  0
  8  9  1  0  0  0  0
  9  6  2  0  0  0  0
 10  3  1  0  0  0  0
 10  2  2  0  0  0  0
 11 16  1  1  0  0  0
 11 13  1  0  0  0  0
 13 14  1  0  0  0  0
 15 14  1  0  0  0  0
 15 12  1  1  0  0  0
 16 15  1  0  0  0  0
 17 18  1  0  0  0  0
 19  9  1  0  0  0  0
 20 19  1  6  0  0  0
 20 21  1  0  0  0  0
 21 23  1  1  0  0  0
 22 20  1  0  0  0  0
 22 21  1  0  0  0  0
 23 25  2  0  0  0  0
 23 24  1  0  0  0  0
M  END
>  <MODEL>
5

>  <REMARK>
 VINA RESULT:      -6.2      1.243      1.475
  Name = 
  5 active torsions:
  status: ('A' for Active; 'I' for Inactive)
    1  A    between atoms: C_1  and  C_5
    2  A    between atoms: C_2  and  C_21
    3  A    between atoms: O_4  and  C_18
    4  A    between atoms: C_6  and  C_15
    5  A    between atoms: C_6  and  C_23
                            x       y       z     vdW  Elec       q    Type
                         _______ _______ _______ _____ _____    ______ ____

>  <TORSDO>
F 5

$$$$
=
 OpenBabel11052417273D

 25 28  0  0  1  0  0  0  0  0999 V2000
  188.5620  174.8740  142.7980 C   0  0  2  0  0  3  0  0  0  0  0  0
  189.2050  175.6440  143.8920 C   0  0  0  0  0  0  0  0  0  0  0  0
  190.9170  175.0120  142.4980 N   0  0  0  0  0  0  0  0  0  0  0  0
  191.3560  176.4130  144.5570 C   0  0  0  0  0  0  0  0  0  0  0  0
  192.9710  176.5290  144.3340 S   0  0  0  0  0  0  0  0  0  0  0  0
  188.6230  176.2430  144.9610 N   0  0  0  0  0  0  0  0  0  0  0  0
  189.8170  174.5200  142.0080 C   0  0  0  0  0  0  0  0  0  0  0  0
  190.7660  177.0120  145.6320 N   0  0  0  0  0  2  0  0  0  0  0  0
  189.4150  176.9250  145.8410 C   0  0  0  0  0  0  0  0  0  0  0  0
  190.5440  175.7160  143.6690 C   0  0  0  0  0  0  0  0  0  0  0  0
  187.5750  175.7790  142.0380 C   0  0  2  0  0  3  0  0  0  0  0  0
  184.7870  177.8860  142.3150 O   0  0  0  0  0  1  0  0  0  0  0  0
  188.1990  177.0980  141.6380 C   0  0  0  0  0  2  0  0  0  0  0  0
  187.0580  178.0890  141.6320 C   0  0  0  0  0  2  0  0  0  0  0  0
  186.0960  177.5990  142.6940 C   0  0  2  0  0  3  0  0  0  0  0  0
  186.2890  176.0980  142.7930 C   0  0  0  0  0  2  0  0  0  0  0  0
  189.8380  173.7120  140.8730 O   0  0  0  0  0  0  0  0  0  0  0  0
  189.3360  172.4720  140.8920 O   0  0  0  0  0  1  0  0  0  0  0  0
  188.8010  177.6160  147.0070 C   0  0  0  0  0  2  0  0  0  0  0  0
  187.3390  177.2290  147.1230 C   0  0  2  0  0  3  0  0  0  0  0  0
  186.5090  178.2880  146.5550 C   0  0  2  0  0  3  0  0  0  0  0  0
  186.6560  178.1730  148.0160 N   0  0  0  0  0  2  0  0  0  0  0  0
  185.1780  177.7440  146.1360 C   0  0  0  0  0  0  0  0  0  0  0  0
  184.0660  178.6660  145.7620 C   0  0  0  0  0  1  0  0  0  0  0  0
  184.9830  176.5380  146.1380 O   0  0  0  0  0  0  0  0  0  0  0  0
  1  7  1  6  0  0  0
  1  2  1  0  0  0  0
  2  6  1  0  0  0  0
  3 10  1  0  0  0  0
  4  8  1  0  0  0  0
  5  4  2  0  0  0  0
  6  9  2  0  0  0  0
  7  3  2  0  0  0  0
  8  9  1  0  0  0  0
  9 19  1  0  0  0  0
 10  2  2  0  0  0  0
 10  4  1  0  0  0  0
 11 13  1  1  0  0  0
 11 16  1  0  0  0  0
 11  1  1  0  0  0  0
 14 13  1  0  0  0  0
 14 15  1  0  0  0  0
 15 12  1  6  0  0  0
 15 16  1  0  0  0  0
 17 18  1  0  0  0  0
 17  7  1  0  0  0  0
 20 19  1  6  0  0  0
 20 22  1  0  0  0  0
 21 23  1  1  0  0  0
 21 20  1  0  0  0  0
 21 22  1  0  0  0  0
 23 25  2  0  0  0  0
 24 23  1  0  0  0  0
M  END
>  <MODEL>
6

>  <REMARK>
 VINA RESULT:      -6.1      2.712      4.437
  Name = 
  5 active torsions:
  status: ('A' for Active; 'I' for Inactive)
    1  A    between atoms: C_1  and  C_5
    2  A    between atoms: C_2  and  C_21
    3  A    between atoms: O_4  and  C_18
    4  A    between atoms: C_6  and  C_15
    5  A    between atoms: C_6  and  C_23
                            x       y       z     vdW  Elec       q    Type
                         _______ _______ _______ _____ _____    ______ ____

>  <TORSDO>
F 5

$$$$
=
 OpenBabel11052417273D

 25 28  0  0  1  0  0  0  0  0999 V2000
  186.3070  176.5600  145.1660 C   0  0  2  0  0  3  0  0  0  0  0  0
  186.6730  176.4150  143.7350 C   0  0  0  0  0  0  0  0  0  0  0  0
  184.9800  177.9670  143.7830 N   0  0  0  0  0  0  0  0  0  0  0  0
  186.0880  177.3050  141.6070 C   0  0  0  0  0  0  0  0  0  0  0  0
  185.1930  178.2940  140.6620 S   0  0  0  0  0  0  0  0  0  0  0  0
  187.6260  175.6270  143.1800 N   0  0  0  0  0  0  0  0  0  0  0  0
  185.1820  177.5770  145.0070 C   0  0  0  0  0  0  0  0  0  0  0  0
  187.0470  176.5080  141.0540 N   0  0  0  0  0  2  0  0  0  0  0  0
  187.8070  175.6700  141.8270 C   0  0  0  0  0  0  0  0  0  0  0  0
  185.9060  177.2510  142.9850 C   0  0  0  0  0  0  0  0  0  0  0  0
  187.5180  177.0820  145.9600 C   0  0  2  0  0  3  0  0  0  0  0  0
  190.4720  176.2040  147.6330 O   0  0  0  0  0  1  0  0  0  0  0  0
  188.5380  177.7580  145.0700 C   0  0  0  0  0  2  0  0  0  0  0  0
  189.8690  177.5240  145.7460 C   0  0  0  0  0  2  0  0  0  0  0  0
  189.7320  176.1920  146.4530 C   0  0  2  0  0  3  0  0  0  0  0  0
  188.2580  176.0210  146.7680 C   0  0  0  0  0  2  0  0  0  0  0  0
  184.3880  178.0500  146.0490 O   0  0  0  0  0  0  0  0  0  0  0  0
  184.8050  179.0400  146.8470 O   0  0  0  0  0  1  0  0  0  0  0  0
  188.8650  174.8370  141.1940 C   0  0  0  0  0  2  0  0  0  0  0  0
  189.3650  173.8020  142.1820 C   0  0  2  0  0  3  0  0  0  0  0  0
  190.6380  174.2430  142.7460 C   0  0  2  0  0  3  0  0  0  0  0  0
  190.6180  173.2210  141.6860 N   0  0  0  0  0  2  0  0  0  0  0  0
  190.8790  173.5910  144.0730 C   0  0  0  0  0  0  0  0  0  0  0  0
  189.7920  172.8240  144.7480 C   0  0  0  0  0  1  0  0  0  0  0  0
  191.9580  173.7190  144.6300 O   0  0  0  0  0  0  0  0  0  0  0  0
  1  2  1  6  0  0  0
  1 11  1  0  0  0  0
  3  7  2  0  0  0  0
  4 10  1  0  0  0  0
  5  4  2  0  0  0  0
  6  2  1  0  0  0  0
  7  1  1  0  0  0  0
  7 17  1  0  0  0  0
  8  4  1  0  0  0  0
  8  9  1  0  0  0  0
  9  6  2  0  0  0  0
 10  2  2  0  0  0  0
 10  3  1  0  0  0  0
 11 13  1  6  0  0  0
 11 16  1  0  0  0  0
 13 14  1  0  0  0  0
 14 15  1  0  0  0  0
 15 16  1  0  0  0  0
 15 12  1  1  0  0  0
 17 18  1  0  0  0  0
 19  9  1  0  0  0  0
 20 19  1  6  0  0  0
 20 21  1  0  0  0  0
 21 23  1  1  0  0  0
 22 20  1  0  0  0  0
 22 21  1  0  0  0  0
 23 25  2  0  0  0  0
 23 24  1  0  0  0  0
M  END
>  <MODEL>
7

>  <REMARK>
 VINA RESULT:      -6.1      1.888      5.425
  Name = 
  5 active torsions:
  status: ('A' for Active; 'I' for Inactive)
    1  A    between atoms: C_1  and  C_5
    2  A    between atoms: C_2  and  C_21
    3  A    between atoms: O_4  and  C_18
    4  A    between atoms: C_6  and  C_15
    5  A    between atoms: C_6  and  C_23
                            x       y       z     vdW  Elec       q    Type
                         _______ _______ _______ _____ _____    ______ ____

>  <TORSDO>
F 5

$$$$
=
 OpenBabel11052417273D

 25 28  0  0  1  0  0  0  0  0999 V2000
  186.4700  177.9300  144.1880 C   0  0  2  0  0  3  0  0  0  0  0  0
  187.8210  177.3570  144.4140 C   0  0  0  0  0  0  0  0  0  0  0  0
  186.5280  176.5860  146.1500 N   0  0  0  0  0  0  0  0  0  0  0  0
  188.9590  175.9190  145.9300 C   0  0  0  0  0  0  0  0  0  0  0  0
  188.9890  174.9740  147.2640 S   0  0  0  0  0  0  0  0  0  0  0  0
  188.9390  177.5050  143.6630 N   0  0  0  0  0  0  0  0  0  0  0  0
  185.7750  177.3520  145.4170 C   0  0  0  0  0  0  0  0  0  0  0  0
  190.0820  176.0730  145.1710 N   0  0  0  0  0  2  0  0  0  0  0  0
  190.0800  176.8620  144.0520 C   0  0  0  0  0  0  0  0  0  0  0  0
  187.8030  176.5820  145.5310 C   0  0  0  0  0  0  0  0  0  0  0  0
  185.9080  177.4180  142.8500 C   0  0  2  0  0  3  0  0  0  0  0  0
  183.5010  177.9140  140.3490 O   0  0  0  0  0  1  0  0  0  0  0  0
  186.8060  177.7630  141.6820 C   0  0  0  0  0  2  0  0  0  0  0  0
  185.8770  177.9150  140.5000 C   0  0  0  0  0  2  0  0  0  0  0  0
  184.5730  178.4240  141.0780 C   0  0  2  0  0  3  0  0  0  0  0  0
  184.5100  177.9240  142.5090 C   0  0  0  0  0  2  0  0  0  0  0  0
  184.4580  177.6220  145.7830 O   0  0  0  0  0  0  0  0  0  0  0  0
  184.0130  178.8780  145.9040 O   0  0  0  0  0  1  0  0  0  0  0  0
  191.3140  176.9830  143.2300 C   0  0  0  0  0  2  0  0  0  0  0  0
  192.2810  175.8710  143.5860 C   0  0  2  0  0  3  0  0  0  0  0  0
  193.4600  176.4410  144.2340 C   0  0  2  0  0  3  0  0  0  0  0  0
  193.5210  176.0400  142.8180 N   0  0  0  0  0  2  0  0  0  0  0  0
  194.1430  175.4110  145.0810 C   0  0  0  0  0  0  0  0  0  0  0  0
  193.3490  174.5230  145.9800 C   0  0  0  0  0  1  0  0  0  0  0  0
  195.3600  175.3210  145.0710 O   0  0  0  0  0  0  0  0  0  0  0  0
  1  2  1  1  0  0  0
  1  7  1  0  0  0  0
  2 10  2  0  0  0  0
  4  5  2  0  0  0  0
  6  9  2  0  0  0  0
  6  2  1  0  0  0  0
  7 17  1  0  0  0  0
  7  3  2  0  0  0  0
  8  4  1  0  0  0  0
  9  8  1  0  0  0  0
 10  4  1  0  0  0  0
 10  3  1  0  0  0  0
 11 13  1  6  0  0  0
 11  1  1  0  0  0  0
 14 15  1  0  0  0  0
 14 13  1  0  0  0  0
 15 12  1  6  0  0  0
 15 16  1  0  0  0  0
 16 11  1  0  0  0  0
 17 18  1  0  0  0  0
 19  9  1  0  0  0  0
 20 19  1  6  0  0  0
 20 21  1  0  0  0  0
 21 23  1  1  0  0  0
 22 20  1  0  0  0  0
 22 21  1  0  0  0  0
 23 24  1  0  0  0  0
 25 23  2  0  0  0  0
M  END
>  <MODEL>
8

>  <REMARK>
 VINA RESULT:      -6.0      2.727      7.132
  Name = 
  5 active torsions:
  status: ('A' for Active; 'I' for Inactive)
    1  A    between atoms: C_1  and  C_5
    2  A    between atoms: C_2  and  C_21
    3  A    between atoms: O_4  and  C_18
    4  A    between atoms: C_6  and  C_15
    5  A    between atoms: C_6  and  C_23
                            x       y       z     vdW  Elec       q    Type
                         _______ _______ _______ _____ _____    ______ ____

>  <TORSDO>
F 5

$$$$
=
 OpenBabel11052417273D

 25 28  0  0  1  0  0  0  0  0999 V2000
  189.1910  174.9240  143.4100 C   0  0  2  0  0  3  0  0  0  0  0  0
  188.9190  175.5560  144.7250 C   0  0  0  0  0  0  0  0  0  0  0  0
  191.1820  175.1660  144.6860 N   0  0  0  0  0  0  0  0  0  0  0  0
  190.0810  176.2860  146.6690 C   0  0  0  0  0  0  0  0  0  0  0  0
  191.4560  176.4760  147.5330 S   0  0  0  0  0  0  0  0  0  0  0  0
  187.7370  175.9870  145.2290 N   0  0  0  0  0  0  0  0  0  0  0  0
  190.6930  174.7150  143.5690 C   0  0  0  0  0  0  0  0  0  0  0  0
  188.8880  176.7160  147.1720 N   0  0  0  0  0  2  0  0  0  0  0  0
  187.7230  176.5640  146.4670 C   0  0  0  0  0  0  0  0  0  0  0  0
  190.0850  175.6930  145.4110 C   0  0  0  0  0  0  0  0  0  0  0  0
  188.8070  175.8960  142.2790 C   0  0  2  0  0  3  0  0  0  0  0  0
  186.2340  177.8130  140.8660 O   0  0  0  0  0  1  0  0  0  0  0  0
  189.3560  177.2860  142.5090 C   0  0  0  0  0  2  0  0  0  0  0  0
  188.3620  178.2170  141.8540 C   0  0  0  0  0  2  0  0  0  0  0  0
  187.0210  177.5250  141.9790 C   0  0  2  0  0  3  0  0  0  0  0  0
  187.3080  176.0360  142.0380 C   0  0  0  0  0  2  0  0  0  0  0  0
  191.5070  174.0700  142.6390 O   0  0  0  0  0  0  0  0  0  0  0  0
  192.0130  174.7240  141.5870 O   0  0  0  0  0  1  0  0  0  0  0  0
  186.4450  177.0730  147.0330 C   0  0  0  0  0  2  0  0  0  0  0  0
  185.5200  177.5030  145.9110 C   0  0  2  0  0  3  0  0  0  0  0  0
  185.4340  178.9610  145.8840 C   0  0  2  0  0  3  0  0  0  0  0  0
  184.3440  178.1720  146.4800 N   0  0  0  0  0  2  0  0  0  0  0  0
  185.0290  179.4380  144.5240 C   0  0  0  0  0  0  0  0  0  0  0  0
  184.0280  178.6770  143.7210 C   0  0  0  0  0  1  0  0  0  0  0  0
  185.5480  180.4350  144.0460 O   0  0  0  0  0  0  0  0  0  0  0  0
  1  7  1  1  0  0  0
  1  2  1  0  0  0  0
  2  6  1  0  0  0  0
  2 10  2  0  0  0  0
  3 10  1  0  0  0  0
  4  8  1  0  0  0  0
  4  5  2  0  0  0  0
  6  9  2  0  0  0  0
  7  3  2  0  0  0  0
  9 19  1  0  0  0  0
  9  8  1  0  0  0  0
 10  4  1  0  0  0  0
 11 16  1  1  0  0  0
 11 13  1  0  0  0  0
 11  1  1  0  0  0  0
 14 15  1  0  0  0  0
 14 13  1  0  0  0  0
 15 12  1  6  0  0  0
 15 16  1  0  0  0  0
 17  7  1  0  0  0  0
 18 17  1  0  0  0  0
 20 22  1  0  0  0  0
 20 19  1  1  0  0  0
 21 23  1  6  0  0  0
 21 20  1  0  0  0  0
 21 22  1  0  0  0  0
 24 23  1  0  0  0  0
 25 23  2  0  0  0  0
M  END
>  <MODEL>
9

>  <REMARK>
 VINA RESULT:      -6.0      2.734      4.376
  Name = 
  5 active torsions:
  status: ('A' for Active; 'I' for Inactive)
    1  A    between atoms: C_1  and  C_5
    2  A    between atoms: C_2  and  C_21
    3  A    between atoms: O_4  and  C_18
    4  A    between atoms: C_6  and  C_15
    5  A    between atoms: C_6  and  C_23
                            x       y       z     vdW  Elec       q    Type
                         _______ _______ _______ _____ _____    ______ ____

>  <TORSDO>
F 5

$$$$
