=
 OpenBabel11052417083D

 30 32  0  0  1  0  0  0  0  0999 V2000
  185.8550  178.0560  147.1960 C   0  0  0  0  0  0  0  0  0  0  0  0
  184.5970  178.5630  146.8630 C   0  0  0  0  0  3  0  0  0  0  0  0
  186.2440  178.0620  148.4950 F   0  0  0  0  0  0  0  0  0  0  0  0
  186.2790  177.5590  144.8410 C   0  0  0  0  0  0  0  0  0  0  0  0
  184.1790  178.5820  145.5350 C   0  0  0  0  0  3  0  0  0  0  0  0
  186.7090  177.5600  146.1950 C   0  0  0  0  0  0  0  0  0  0  0  0
  185.0140  178.0850  144.5350 C   0  0  0  0  0  3  0  0  0  0  0  0
  189.2860  177.1540  142.5230 C   0  0  0  0  0  3  0  0  0  0  0  0
  189.0990  175.9110  142.0550 C   0  0  0  0  0  3  0  0  0  0  0  0
  188.1150  177.9490  143.0470 C   0  0  1  0  0  3  0  0  0  0  0  0
  186.9240  175.8010  143.2310 C   0  0  0  0  0  3  0  0  0  0  0  0
  187.5090  178.6250  142.0020 F   0  0  0  0  0  0  0  0  0  0  0  0
  187.7120  175.3160  142.0450 C   0  0  2  0  0  3  0  0  0  0  0  0
  187.1030  177.0410  143.7170 C   0  0  0  0  0  0  0  0  0  0  0  0
  187.7670  173.7950  142.0410 C   0  0  0  0  0  2  0  0  0  0  0  0
  189.4950  172.1680  141.7530 O   0  0  0  0  0  1  0  0  0  0  0  0
  188.9010  173.2860  141.1660 C   0  0  1  0  0  3  0  0  0  0  0  0
  188.3550  172.9030  139.8080 C   0  0  0  0  0  1  0  0  0  0  0  0
  188.0680  177.0790  146.5970 C   0  0  0  0  0  2  0  0  0  0  0  0
  187.9940  175.6950  147.0330 N   0  0  0  0  0  2  0  0  0  0  0  0
  189.3490  175.1770  146.9980 C   0  0  0  0  0  2  0  0  0  0  0  0
  189.8340  175.0780  145.5580 C   0  0  2  0  0  3  0  0  0  0  0  0
  189.8700  173.6110  145.1560 C   0  0  0  0  0  1  0  0  0  0  0  0
  193.4940  175.9220  146.5890 C   0  0  0  0  0  2  0  0  0  0  0  0
  191.2200  175.7140  145.4110 C   0  0  2  0  0  3  0  0  0  0  0  0
  193.5410  176.1300  144.0650 C   0  0  2  0  0  3  0  0  0  0  0  0
  192.1840  174.8910  144.0920 S   0  0  0  0  0  0  0  0  0  0  0  0
  191.9930  175.6560  146.7370 C   0  0  0  0  0  2  0  0  0  0  0  0
  194.8170  175.4630  143.5900 C   0  0  0  0  0  1  0  0  0  0  0  0
  193.7890  176.8350  145.4050 C   0  0  0  0  0  2  0  0  0  0  0  0
  1  3  1  0  0  0  0
  2  1  1  0  0  0  0
  4  6  1  0  0  0  0
  5  2  2  0  0  0  0
  6 19  1  0  0  0  0
  6  1  2  0  0  0  0
  7  4  2  0  0  0  0
  7  5  1  0  0  0  0
  8 10  1  0  0  0  0
  9  8  2  0  0  0  0
 10 12  1  6  0  0  0
 10 14  1  0  0  0  0
 11 14  2  0  0  0  0
 13 15  1  1  0  0  0
 13  9  1  0  0  0  0
 13 11  1  0  0  0  0
 14  4  1  0  0  0  0
 17 18  1  6  0  0  0
 17 16  1  0  0  0  0
 17 15  1  0  0  0  0
 19 20  1  0  0  0  0
 21 20  1  0  0  0  0
 22 23  1  1  0  0  0
 22 21  1  0  0  0  0
 24 28  1  0  0  0  0
 25 22  1  1  0  0  0
 25 28  1  0  0  0  0
 26 29  1  1  0  0  0
 26 27  1  0  0  0  0
 26 30  1  0  0  0  0
 27 25  1  0  0  0  0
 30 24  1  0  0  0  0
M  END
>  <MODEL>
1

>  <REMARK>
 VINA RESULT:      -7.4      0.000      0.000
  Name = 
  8 active torsions:
  status: ('A' for Active; 'I' for Inactive)
    1  A    between atoms: N_1  and  C_4
    2  A    between atoms: N_1  and  C_5
    3  A    between atoms: C_4  and  C_27
    4  A    between atoms: C_5  and  C_22
    5  A    between atoms: C_8  and  C_27
    6  A    between atoms: C_15  and  C_16
    7  A    between atoms: C_16  and  C_25
    8  A    between atoms: C_19  and  C_29
                            x       y       z     vdW  Elec       q    Type
                         _______ _______ _______ _____ _____    ______ ____

>  <TORSDO>
F 8

$$$$
=
 OpenBabel11052417083D

 30 32  0  0  1  0  0  0  0  0999 V2000
  190.9070  176.0670  145.8810 C   0  0  0  0  0  0  0  0  0  0  0  0
  190.8120  175.0510  146.8340 C   0  0  0  0  0  3  0  0  0  0  0  0
  192.1060  176.3080  145.2940 F   0  0  0  0  0  0  0  0  0  0  0  0
  188.5320  176.5640  146.1720 C   0  0  0  0  0  0  0  0  0  0  0  0
  189.5960  174.7930  147.4620 C   0  0  0  0  0  3  0  0  0  0  0  0
  189.7790  176.8360  145.5470 C   0  0  0  0  0  0  0  0  0  0  0  0
  188.4680  175.5440  147.1340 C   0  0  0  0  0  3  0  0  0  0  0  0
  185.7070  179.0950  146.6070 C   0  0  0  0  0  3  0  0  0  0  0  0
  185.2950  179.2590  145.3410 C   0  0  0  0  0  3  0  0  0  0  0  0
  186.4270  177.8320  147.0110 C   0  0  1  0  0  3  0  0  0  0  0  0
  186.8510  177.4780  144.6110 C   0  0  0  0  0  3  0  0  0  0  0  0
  185.5030  176.8670  147.3740 F   0  0  0  0  0  0  0  0  0  0  0  0
  185.5470  178.1710  144.3260 C   0  0  2  0  0  3  0  0  0  0  0  0
  187.2820  177.3120  145.8730 C   0  0  0  0  0  0  0  0  0  0  0  0
  185.5500  178.7300  142.9110 C   0  0  0  0  0  2  0  0  0  0  0  0
  183.3000  178.2720  142.2420 O   0  0  0  0  0  1  0  0  0  0  0  0
  184.6310  177.9320  142.0000 C   0  0  1  0  0  3  0  0  0  0  0  0
  184.9680  178.2360  140.5560 C   0  0  0  0  0  1  0  0  0  0  0  0
  189.9460  177.9490  144.5610 C   0  0  0  0  0  2  0  0  0  0  0  0
  190.3810  177.4150  143.2820 N   0  0  0  0  0  2  0  0  0  0  0  0
  189.2080  177.3830  142.4270 C   0  0  0  0  0  2  0  0  0  0  0  0
  189.0700  176.0120  141.7790 C   0  0  2  0  0  3  0  0  0  0  0  0
  187.6130  175.5820  141.8540 C   0  0  0  0  0  1  0  0  0  0  0  0
  189.9050  172.7750  143.7780 C   0  0  0  0  0  2  0  0  0  0  0  0
  189.9720  174.9920  142.4820 C   0  0  2  0  0  3  0  0  0  0  0  0
  192.0500  173.2450  142.5150 C   0  0  2  0  0  3  0  0  0  0  0  0
  190.9600  174.0430  141.2700 S   0  0  0  0  0  0  0  0  0  0  0  0
  189.1430  174.0320  143.3470 C   0  0  0  0  0  2  0  0  0  0  0  0
  192.5430  171.9190  141.9710 C   0  0  0  0  0  1  0  0  0  0  0  0
  191.4030  173.0360  143.8900 C   0  0  0  0  0  2  0  0  0  0  0  0
  1  2  1  0  0  0  0
  2  5  2  0  0  0  0
  3  1  1  0  0  0  0
  4  7  2  0  0  0  0
  6  1  2  0  0  0  0
  6  4  1  0  0  0  0
  7  5  1  0  0  0  0
  8 10  1  0  0  0  0
  9  8  2  0  0  0  0
 10 12  1  6  0  0  0
 11 14  2  0  0  0  0
 13 15  1  6  0  0  0
 13 11  1  0  0  0  0
 13  9  1  0  0  0  0
 14  4  1  0  0  0  0
 14 10  1  0  0  0  0
 17 18  1  6  0  0  0
 17 16  1  0  0  0  0
 17 15  1  0  0  0  0
 19  6  1  0  0  0  0
 20 19  1  0  0  0  0
 21 20  1  0  0  0  0
 22 23  1  1  0  0  0
 22 21  1  0  0  0  0
 24 30  1  0  0  0  0
 25 22  1  6  0  0  0
 25 28  1  0  0  0  0
 26 29  1  6  0  0  0
 26 30  1  0  0  0  0
 27 25  1  0  0  0  0
 27 26  1  0  0  0  0
 28 24  1  0  0  0  0
M  END
>  <MODEL>
2

>  <REMARK>
 VINA RESULT:      -7.0      2.785      5.104
  Name = 
  8 active torsions:
  status: ('A' for Active; 'I' for Inactive)
    1  A    between atoms: N_1  and  C_4
    2  A    between atoms: N_1  and  C_5
    3  A    between atoms: C_4  and  C_27
    4  A    between atoms: C_5  and  C_22
    5  A    between atoms: C_8  and  C_27
    6  A    between atoms: C_15  and  C_16
    7  A    between atoms: C_16  and  C_25
    8  A    between atoms: C_19  and  C_29
                            x       y       z     vdW  Elec       q    Type
                         _______ _______ _______ _____ _____    ______ ____

>  <TORSDO>
F 8

$$$$
=
 OpenBabel11052417083D

 30 32  0  0  1  0  0  0  0  0999 V2000
  191.1060  176.3170  146.4240 C   0  0  0  0  0  0  0  0  0  0  0  0
  190.9350  175.2800  147.3430 C   0  0  0  0  0  3  0  0  0  0  0  0
  192.3630  176.7410  146.1370 F   0  0  0  0  0  0  0  0  0  0  0  0
  188.6840  176.4580  146.1290 C   0  0  0  0  0  0  0  0  0  0  0  0
  189.6550  174.8350  147.6650 C   0  0  0  0  0  3  0  0  0  0  0  0
  189.9910  176.9210  145.8170 C   0  0  0  0  0  0  0  0  0  0  0  0
  188.5420  175.4210  147.0640 C   0  0  0  0  0  3  0  0  0  0  0  0
  185.9550  179.0060  145.3300 C   0  0  0  0  0  3  0  0  0  0  0  0
  185.5010  178.5530  144.1520 C   0  0  0  0  0  3  0  0  0  0  0  0
  186.6520  178.0660  146.2840 C   0  0  1  0  0  3  0  0  0  0  0  0
  186.9740  176.5740  144.3510 C   0  0  0  0  0  3  0  0  0  0  0  0
  185.7140  177.4420  147.0870 F   0  0  0  0  0  0  0  0  0  0  0  0
  185.6810  177.1000  143.7890 C   0  0  2  0  0  3  0  0  0  0  0  0
  187.4470  177.0220  145.5270 C   0  0  0  0  0  0  0  0  0  0  0  0
  185.6480  176.9010  142.2810 C   0  0  0  0  0  2  0  0  0  0  0  0
  187.3460  178.0730  141.0730 O   0  0  0  0  0  1  0  0  0  0  0  0
  186.0380  178.1750  141.5480 C   0  0  1  0  0  3  0  0  0  0  0  0
  185.1000  178.3890  140.3800 C   0  0  0  0  0  1  0  0  0  0  0  0
  190.2260  178.0660  144.8820 C   0  0  0  0  0  2  0  0  0  0  0  0
  191.0710  177.6390  143.7800 N   0  0  0  0  0  2  0  0  0  0  0  0
  190.1980  176.9950  142.8140 C   0  0  0  0  0  2  0  0  0  0  0  0
  190.7160  175.6000  142.4900 C   0  0  2  0  0  3  0  0  0  0  0  0
  189.7080  174.5780  142.9960 C   0  0  0  0  0  1  0  0  0  0  0  0
  193.5260  173.5700  144.2640 C   0  0  0  0  0  2  0  0  0  0  0  0
  192.0870  175.3720  143.1330 C   0  0  2  0  0  3  0  0  0  0  0  0
  194.8020  175.4070  143.0760 C   0  0  2  0  0  3  0  0  0  0  0  0
  193.4130  175.3800  141.8720 S   0  0  0  0  0  0  0  0  0  0  0  0
  192.1150  174.0490  143.9120 C   0  0  0  0  0  2  0  0  0  0  0  0
  196.0210  174.7630  142.4450 C   0  0  0  0  0  1  0  0  0  0  0  0
  194.4950  174.7360  144.4200 C   0  0  0  0  0  2  0  0  0  0  0  0
  1  2  1  0  0  0  0
  2  5  2  0  0  0  0
  3  1  1  0  0  0  0
  4  7  2  0  0  0  0
  6  4  1  0  0  0  0
  6  1  2  0  0  0  0
  7  5  1  0  0  0  0
  8 10  1  0  0  0  0
  9  8  2  0  0  0  0
 10 12  1  6  0  0  0
 11 14  2  0  0  0  0
 13 15  1  6  0  0  0
 13  9  1  0  0  0  0
 13 11  1  0  0  0  0
 14  4  1  0  0  0  0
 14 10  1  0  0  0  0
 16 17  1  0  0  0  0
 17 18  1  6  0  0  0
 17 15  1  0  0  0  0
 19  6  1  0  0  0  0
 20 19  1  0  0  0  0
 21 20  1  0  0  0  0
 22 21  1  0  0  0  0
 22 23  1  1  0  0  0
 24 30  1  0  0  0  0
 25 22  1  6  0  0  0
 25 28  1  0  0  0  0
 26 29  1  6  0  0  0
 26 30  1  0  0  0  0
 27 26  1  0  0  0  0
 27 25  1  0  0  0  0
 28 24  1  0  0  0  0
M  END
>  <MODEL>
3

>  <REMARK>
 VINA RESULT:      -6.8      2.536      4.362
  Name = 
  8 active torsions:
  status: ('A' for Active; 'I' for Inactive)
    1  A    between atoms: N_1  and  C_4
    2  A    between atoms: N_1  and  C_5
    3  A    between atoms: C_4  and  C_27
    4  A    between atoms: C_5  and  C_22
    5  A    between atoms: C_8  and  C_27
    6  A    between atoms: C_15  and  C_16
    7  A    between atoms: C_16  and  C_25
    8  A    between atoms: C_19  and  C_29
                            x       y       z     vdW  Elec       q    Type
                         _______ _______ _______ _____ _____    ______ ____

>  <TORSDO>
F 8

$$$$
=
 OpenBabel11052417083D

 30 32  0  0  1  0  0  0  0  0999 V2000
  193.5190  176.5400  146.3750 C   0  0  0  0  0  0  0  0  0  0  0  0
  194.5900  176.8520  145.5350 C   0  0  0  0  0  3  0  0  0  0  0  0
  193.4590  177.1120  147.6040 F   0  0  0  0  0  0  0  0  0  0  0  0
  192.6060  175.0540  144.6630 C   0  0  0  0  0  0  0  0  0  0  0  0
  194.6830  176.2680  144.2750 C   0  0  0  0  0  3  0  0  0  0  0  0
  192.5260  175.6370  145.9560 C   0  0  0  0  0  0  0  0  0  0  0  0
  193.7000  175.3770  143.8450 C   0  0  0  0  0  3  0  0  0  0  0  0
  190.3560  171.9740  144.4880 C   0  0  0  0  0  3  0  0  0  0  0  0
  189.3780  172.4020  143.6770 C   0  0  0  0  0  3  0  0  0  0  0  0
  191.7170  172.6250  144.4400 C   0  0  1  0  0  3  0  0  0  0  0  0
  190.6160  174.5130  143.3060 C   0  0  0  0  0  3  0  0  0  0  0  0
  192.4920  172.0070  143.4740 F   0  0  0  0  0  0  0  0  0  0  0  0
  189.6470  173.5290  142.7090 C   0  0  2  0  0  3  0  0  0  0  0  0
  191.5980  174.1030  144.1260 C   0  0  0  0  0  0  0  0  0  0  0  0
  188.3580  174.2360  142.3180 C   0  0  0  0  0  2  0  0  0  0  0  0
  188.3240  174.5360  139.9460 O   0  0  0  0  0  1  0  0  0  0  0  0
  188.5820  175.1870  141.1520 C   0  0  1  0  0  3  0  0  0  0  0  0
  187.6530  176.3730  141.2860 C   0  0  0  0  0  1  0  0  0  0  0  0
  191.4280  175.2950  146.9150 C   0  0  0  0  0  2  0  0  0  0  0  0
  190.4900  176.4000  147.0070 N   0  0  0  0  0  2  0  0  0  0  0  0
  189.1670  175.8360  146.8120 C   0  0  0  0  0  2  0  0  0  0  0  0
  188.5550  176.3730  145.5250 C   0  0  2  0  0  3  0  0  0  0  0  0
  189.4060  177.5330  145.0280 C   0  0  0  0  0  1  0  0  0  0  0  0
  185.6570  178.2330  147.3450 C   0  0  0  0  0  2  0  0  0  0  0  0
  187.1100  176.8250  145.7630 C   0  0  2  0  0  3  0  0  0  0  0  0
  184.8070  178.0230  144.9680 C   0  0  2  0  0  3  0  0  0  0  0  0
  186.5830  178.0350  144.4960 S   0  0  0  0  0  0  0  0  0  0  0  0
  186.9490  177.4310  147.1640 C   0  0  0  0  0  2  0  0  0  0  0  0
  184.1850  179.3550  144.6010 C   0  0  0  0  0  1  0  0  0  0  0  0
  184.5410  177.7130  146.4470 C   0  0  0  0  0  2  0  0  0  0  0  0
  1  3  1  0  0  0  0
  2  1  2  0  0  0  0
  4  6  2  0  0  0  0
  5  2  1  0  0  0  0
  6  1  1  0  0  0  0
  6 19  1  0  0  0  0
  7  5  2  0  0  0  0
  7  4  1  0  0  0  0
  9  8  2  0  0  0  0
 10 12  1  6  0  0  0
 10  8  1  0  0  0  0
 11 14  2  0  0  0  0
 13 15  1  1  0  0  0
 13 11  1  0  0  0  0
 13  9  1  0  0  0  0
 14 10  1  0  0  0  0
 14  4  1  0  0  0  0
 16 17  1  0  0  0  0
 17 18  1  1  0  0  0
 17 15  1  0  0  0  0
 19 20  1  0  0  0  0
 21 20  1  0  0  0  0
 22 23  1  1  0  0  0
 22 21  1  0  0  0  0
 25 22  1  6  0  0  0
 25 28  1  0  0  0  0
 26 29  1  1  0  0  0
 26 30  1  0  0  0  0
 27 26  1  0  0  0  0
 27 25  1  0  0  0  0
 28 24  1  0  0  0  0
 30 24  1  0  0  0  0
M  END
>  <MODEL>
4

>  <REMARK>
 VINA RESULT:      -6.8      2.785      6.429
  Name = 
  8 active torsions:
  status: ('A' for Active; 'I' for Inactive)
    1  A    between atoms: N_1  and  C_4
    2  A    between atoms: N_1  and  C_5
    3  A    between atoms: C_4  and  C_27
    4  A    between atoms: C_5  and  C_22
    5  A    between atoms: C_8  and  C_27
    6  A    between atoms: C_15  and  C_16
    7  A    between atoms: C_16  and  C_25
    8  A    between atoms: C_19  and  C_29
                            x       y       z     vdW  Elec       q    Type
                         _______ _______ _______ _____ _____    ______ ____

>  <TORSDO>
F 8

$$$$
=
 OpenBabel11052417083D

 30 32  0  0  1  0  0  0  0  0999 V2000
  185.3240  177.8690  145.1370 C   0  0  0  0  0  0  0  0  0  0  0  0
  184.8460  178.4530  146.3110 C   0  0  0  0  0  3  0  0  0  0  0  0
  184.5950  177.9890  143.9980 F   0  0  0  0  0  0  0  0  0  0  0  0
  187.2850  177.0450  146.3410 C   0  0  0  0  0  0  0  0  0  0  0  0
  185.5680  178.3320  147.4960 C   0  0  0  0  0  3  0  0  0  0  0  0
  186.5350  177.1550  145.1390 C   0  0  0  0  0  0  0  0  0  0  0  0
  186.7750  177.6340  147.5090 C   0  0  0  0  0  3  0  0  0  0  0  0
  189.8040  174.1910  146.0490 C   0  0  0  0  0  3  0  0  0  0  0  0
  190.9630  174.8610  145.9800 C   0  0  0  0  0  3  0  0  0  0  0  0
  188.5960  174.8320  146.6890 C   0  0  1  0  0  3  0  0  0  0  0  0
  189.7530  176.9840  146.3780 C   0  0  0  0  0  3  0  0  0  0  0  0
  188.6110  174.5910  148.0520 F   0  0  0  0  0  0  0  0  0  0  0  0
  191.0570  176.2540  146.5530 C   0  0  2  0  0  3  0  0  0  0  0  0
  188.5820  176.3260  146.4380 C   0  0  0  0  0  0  0  0  0  0  0  0
  192.1860  177.0410  145.9040 C   0  0  0  0  0  2  0  0  0  0  0  0
  193.7580  176.5190  144.1790 O   0  0  0  0  0  1  0  0  0  0  0  0
  193.3020  176.1200  145.4360 C   0  0  1  0  0  3  0  0  0  0  0  0
  194.4480  176.1780  146.4210 C   0  0  0  0  0  1  0  0  0  0  0  0
  186.9760  176.5020  143.8660 C   0  0  0  0  0  2  0  0  0  0  0  0
  187.3080  177.5140  142.8790 N   0  0  0  0  0  2  0  0  0  0  0  0
  188.1920  176.8800  141.9170 C   0  0  0  0  0  2  0  0  0  0  0  0
  189.2700  176.0860  142.6420 C   0  0  2  0  0  3  0  0  0  0  0  0
  190.5210  176.9470  142.7470 C   0  0  0  0  0  1  0  0  0  0  0  0
  189.2910  172.2350  142.0660 C   0  0  0  0  0  2  0  0  0  0  0  0
  189.5710  174.7820  141.8970 C   0  0  2  0  0  3  0  0  0  0  0  0
  189.4160  173.1720  139.7160 C   0  0  2  0  0  3  0  0  0  0  0  0
  188.5170  174.6170  140.4110 S   0  0  0  0  0  0  0  0  0  0  0  0
  189.3750  173.5680  142.8150 C   0  0  0  0  0  2  0  0  0  0  0  0
  188.4660  172.3560  138.8630 C   0  0  0  0  0  1  0  0  0  0  0  0
  190.0810  172.2700  140.7630 C   0  0  0  0  0  2  0  0  0  0  0  0
  1  6  2  0  0  0  0
  1  2  1  0  0  0  0
  2  5  2  0  0  0  0
  3  1  1  0  0  0  0
  4 14  1  0  0  0  0
  4  7  2  0  0  0  0
  5  7  1  0  0  0  0
  6  4  1  0  0  0  0
  8 10  1  0  0  0  0
  9  8  2  0  0  0  0
  9 13  1  0  0  0  0
 10 12  1  1  0  0  0
 11 14  2  0  0  0  0
 11 13  1  0  0  0  0
 13 15  1  6  0  0  0
 14 10  1  0  0  0  0
 16 17  1  0  0  0  0
 17 15  1  0  0  0  0
 17 18  1  1  0  0  0
 19  6  1  0  0  0  0
 20 19  1  0  0  0  0
 21 22  1  0  0  0  0
 21 20  1  0  0  0  0
 22 23  1  6  0  0  0
 24 28  1  0  0  0  0
 25 22  1  1  0  0  0
 25 28  1  0  0  0  0
 26 29  1  1  0  0  0
 26 27  1  0  0  0  0
 26 30  1  0  0  0  0
 27 25  1  0  0  0  0
 30 24  1  0  0  0  0
M  END
>  <MODEL>
5

>  <REMARK>
 VINA RESULT:      -6.7      2.275      5.286
  Name = 
  8 active torsions:
  status: ('A' for Active; 'I' for Inactive)
    1  A    between atoms: N_1  and  C_4
    2  A    between atoms: N_1  and  C_5
    3  A    between atoms: C_4  and  C_27
    4  A    between atoms: C_5  and  C_22
    5  A    between atoms: C_8  and  C_27
    6  A    between atoms: C_15  and  C_16
    7  A    between atoms: C_16  and  C_25
    8  A    between atoms: C_19  and  C_29
                            x       y       z     vdW  Elec       q    Type
                         _______ _______ _______ _____ _____    ______ ____

>  <TORSDO>
F 8

$$$$
=
 OpenBabel11052417083D

 30 32  0  0  1  0  0  0  0  0999 V2000
  193.7170  176.3460  143.8560 C   0  0  0  0  0  0  0  0  0  0  0  0
  194.6460  176.4730  144.8910 C   0  0  0  0  0  3  0  0  0  0  0  0
  194.1490  176.4180  142.5720 F   0  0  0  0  0  0  0  0  0  0  0  0
  191.9230  176.0850  145.4950 C   0  0  0  0  0  0  0  0  0  0  0  0
  194.2260  176.4180  146.2180 C   0  0  0  0  0  3  0  0  0  0  0  0
  192.3530  176.1610  144.1430 C   0  0  0  0  0  0  0  0  0  0  0  0
  192.8770  176.2260  146.5150 C   0  0  0  0  0  3  0  0  0  0  0  0
  188.9430  174.7200  147.4540 C   0  0  0  0  0  3  0  0  0  0  0  0
  188.0260  175.6770  147.2480 C   0  0  0  0  0  3  0  0  0  0  0  0
  190.0810  174.5420  146.4790 C   0  0  1  0  0  3  0  0  0  0  0  0
  189.5740  176.8200  145.6910 C   0  0  0  0  0  3  0  0  0  0  0  0
  189.6870  173.6950  145.4570 F   0  0  0  0  0  0  0  0  0  0  0  0
  188.1310  176.5660  146.0330 C   0  0  2  0  0  3  0  0  0  0  0  0
  190.5070  175.8750  145.8970 C   0  0  0  0  0  0  0  0  0  0  0  0
  187.4060  177.8860  146.2530 C   0  0  0  0  0  2  0  0  0  0  0  0
  186.1480  178.8520  148.0420 O   0  0  0  0  0  1  0  0  0  0  0  0
  186.2490  177.7250  147.2260 C   0  0  1  0  0  3  0  0  0  0  0  0
  184.9610  177.5540  146.4510 C   0  0  0  0  0  1  0  0  0  0  0  0
  191.3910  176.0860  142.9990 C   0  0  0  0  0  2  0  0  0  0  0  0
  191.1540  174.6990  142.6420 N   0  0  0  0  0  2  0  0  0  0  0  0
  189.9980  174.6890  141.7640 C   0  0  0  0  0  2  0  0  0  0  0  0
  188.7170  174.7410  142.5860 C   0  0  2  0  0  3  0  0  0  0  0  0
  187.8580  173.5380  142.2260 C   0  0  0  0  0  1  0  0  0  0  0  0
  186.7480  177.3510  140.4690 C   0  0  0  0  0  2  0  0  0  0  0  0
  187.9600  176.0460  142.3200 C   0  0  2  0  0  3  0  0  0  0  0  0
  185.9590  177.8080  142.8310 C   0  0  2  0  0  3  0  0  0  0  0  0
  186.3210  176.0320  143.1310 S   0  0  0  0  0  0  0  0  0  0  0  0
  187.7960  176.2880  140.8130 C   0  0  0  0  0  2  0  0  0  0  0  0
  184.4580  178.0080  142.7660 C   0  0  0  0  0  1  0  0  0  0  0  0
  186.6180  178.3910  141.5750 C   0  0  0  0  0  2  0  0  0  0  0  0
  1  6  2  0  0  0  0
  1  2  1  0  0  0  0
  2  5  2  0  0  0  0
  3  1  1  0  0  0  0
  4 14  1  0  0  0  0
  4  7  2  0  0  0  0
  5  7  1  0  0  0  0
  6  4  1  0  0  0  0
  9  8  2  0  0  0  0
 10 12  1  6  0  0  0
 10  8  1  0  0  0  0
 11 14  2  0  0  0  0
 11 13  1  0  0  0  0
 13 15  1  1  0  0  0
 13  9  1  0  0  0  0
 14 10  1  0  0  0  0
 15 17  1  0  0  0  0
 17 18  1  6  0  0  0
 17 16  1  0  0  0  0
 19  6  1  0  0  0  0
 20 19  1  0  0  0  0
 21 22  1  0  0  0  0
 21 20  1  0  0  0  0
 22 23  1  6  0  0  0
 24 28  1  0  0  0  0
 24 30  1  0  0  0  0
 25 22  1  6  0  0  0
 25 27  1  0  0  0  0
 26 29  1  6  0  0  0
 26 27  1  0  0  0  0
 28 25  1  0  0  0  0
 30 26  1  0  0  0  0
M  END
>  <MODEL>
6

>  <REMARK>
 VINA RESULT:      -6.7      3.153      7.132
  Name = 
  8 active torsions:
  status: ('A' for Active; 'I' for Inactive)
    1  A    between atoms: N_1  and  C_4
    2  A    between atoms: N_1  and  C_5
    3  A    between atoms: C_4  and  C_27
    4  A    between atoms: C_5  and  C_22
    5  A    between atoms: C_8  and  C_27
    6  A    between atoms: C_15  and  C_16
    7  A    between atoms: C_16  and  C_25
    8  A    between atoms: C_19  and  C_29
                            x       y       z     vdW  Elec       q    Type
                         _______ _______ _______ _____ _____    ______ ____

>  <TORSDO>
F 8

$$$$
=
 OpenBabel11052417083D

 30 32  0  0  1  0  0  0  0  0999 V2000
  186.4630  178.7760  144.0270 C   0  0  0  0  0  0  0  0  0  0  0  0
  185.4870  179.2550  144.9030 C   0  0  0  0  0  3  0  0  0  0  0  0
  186.3910  179.1120  142.7140 F   0  0  0  0  0  0  0  0  0  0  0  0
  187.5550  177.6100  145.8770 C   0  0  0  0  0  0  0  0  0  0  0  0
  185.5300  178.9130  146.2520 C   0  0  0  0  0  3  0  0  0  0  0  0
  187.4960  177.9460  144.4980 C   0  0  0  0  0  0  0  0  0  0  0  0
  186.5540  178.0980  146.7320 C   0  0  0  0  0  3  0  0  0  0  0  0
  189.5980  174.4710  146.6170 C   0  0  0  0  0  3  0  0  0  0  0  0
  190.7790  174.9960  146.9730 C   0  0  0  0  0  3  0  0  0  0  0  0
  188.3370  175.2910  146.7420 C   0  0  1  0  0  3  0  0  0  0  0  0
  189.8030  177.2670  146.8400 C   0  0  0  0  0  3  0  0  0  0  0  0
  187.8150  175.1480  148.0160 F   0  0  0  0  0  0  0  0  0  0  0  0
  190.8400  176.4060  147.5080 C   0  0  2  0  0  3  0  0  0  0  0  0
  188.6160  176.7550  146.4700 C   0  0  0  0  0  0  0  0  0  0  0  0
  192.2230  177.0090  147.3120 C   0  0  0  0  0  2  0  0  0  0  0  0
  192.8360  177.1670  145.0060 O   0  0  0  0  0  1  0  0  0  0  0  0
  192.9470  176.3630  146.1410 C   0  0  1  0  0  3  0  0  0  0  0  0
  194.4090  176.1900  146.4880 C   0  0  0  0  0  1  0  0  0  0  0  0
  188.4860  177.4150  143.5080 C   0  0  0  0  0  2  0  0  0  0  0  0
  187.8740  176.3640  142.7130 N   0  0  0  0  0  2  0  0  0  0  0  0
  188.5390  175.1270  143.0800 C   0  0  0  0  0  2  0  0  0  0  0  0
  189.8030  174.9470  142.2510 C   0  0  2  0  0  3  0  0  0  0  0  0
  189.4710  174.0920  141.0370 C   0  0  0  0  0  1  0  0  0  0  0  0
  191.7390  172.0120  143.9270 C   0  0  0  0  0  2  0  0  0  0  0  0
  190.9070  174.2930  143.0880 C   0  0  2  0  0  3  0  0  0  0  0  0
  193.5160  173.7950  143.6540 C   0  0  2  0  0  3  0  0  0  0  0  0
  192.5150  174.3530  142.2170 S   0  0  0  0  0  0  0  0  0  0  0  0
  190.5510  172.8380  143.4260 C   0  0  0  0  0  2  0  0  0  0  0  0
  194.7660  173.1010  143.1510 C   0  0  0  0  0  1  0  0  0  0  0  0
  192.7710  172.8820  144.6350 C   0  0  0  0  0  2  0  0  0  0  0  0
  1  6  2  0  0  0  0
  1  2  1  0  0  0  0
  2  5  2  0  0  0  0
  3  1  1  0  0  0  0
  4 14  1  0  0  0  0
  4  7  2  0  0  0  0
  5  7  1  0  0  0  0
  6  4  1  0  0  0  0
  8 10  1  0  0  0  0
  8  9  2  0  0  0  0
  9 13  1  0  0  0  0
 10 12  1  1  0  0  0
 11 13  1  0  0  0  0
 13 15  1  6  0  0  0
 14 10  1  0  0  0  0
 14 11  2  0  0  0  0
 16 17  1  0  0  0  0
 17 18  1  1  0  0  0
 17 15  1  0  0  0  0
 19  6  1  0  0  0  0
 20 21  1  0  0  0  0
 20 19  1  0  0  0  0
 22 23  1  6  0  0  0
 22 21  1  0  0  0  0
 24 30  1  0  0  0  0
 25 22  1  6  0  0  0
 25 28  1  0  0  0  0
 26 29  1  6  0  0  0
 26 30  1  0  0  0  0
 27 25  1  0  0  0  0
 27 26  1  0  0  0  0
 28 24  1  0  0  0  0
M  END
>  <MODEL>
7

>  <REMARK>
 VINA RESULT:      -6.6      2.211      4.722
  Name = 
  8 active torsions:
  status: ('A' for Active; 'I' for Inactive)
    1  A    between atoms: N_1  and  C_4
    2  A    between atoms: N_1  and  C_5
    3  A    between atoms: C_4  and  C_27
    4  A    between atoms: C_5  and  C_22
    5  A    between atoms: C_8  and  C_27
    6  A    between atoms: C_15  and  C_16
    7  A    between atoms: C_16  and  C_25
    8  A    between atoms: C_19  and  C_29
                            x       y       z     vdW  Elec       q    Type
                         _______ _______ _______ _____ _____    ______ ____

>  <TORSDO>
F 8

$$$$
=
 OpenBabel11052417083D

 30 32  0  0  1  0  0  0  0  0999 V2000
  191.6320  175.9040  146.6320 C   0  0  0  0  0  0  0  0  0  0  0  0
  190.5900  175.8020  147.5560 C   0  0  0  0  0  3  0  0  0  0  0  0
  192.6660  176.7420  146.8970 F   0  0  0  0  0  0  0  0  0  0  0  0
  190.5120  174.2850  145.1840 C   0  0  0  0  0  0  0  0  0  0  0  0
  189.5100  174.9600  147.3010 C   0  0  0  0  0  3  0  0  0  0  0  0
  191.6020  175.1600  145.4400 C   0  0  0  0  0  0  0  0  0  0  0  0
  189.4730  174.2110  146.1250 C   0  0  0  0  0  3  0  0  0  0  0  0
  190.4800  171.1460  143.0100 C   0  0  0  0  0  3  0  0  0  0  0  0
  189.7200  171.5420  141.9790 C   0  0  0  0  0  3  0  0  0  0  0  0
  191.2070  172.1690  143.8500 C   0  0  1  0  0  3  0  0  0  0  0  0
  189.6480  173.8320  142.9160 C   0  0  0  0  0  3  0  0  0  0  0  0
  192.4370  172.4470  143.2810 F   0  0  0  0  0  0  0  0  0  0  0  0
  189.6030  173.0110  141.6560 C   0  0  2  0  0  3  0  0  0  0  0  0
  190.3990  173.4470  143.9620 C   0  0  0  0  0  0  0  0  0  0  0  0
  188.3220  173.3040  140.8880 C   0  0  0  0  0  2  0  0  0  0  0  0
  187.9510  174.4640  138.8300 O   0  0  0  0  0  1  0  0  0  0  0  0
  188.5750  173.3490  139.3890 C   0  0  1  0  0  3  0  0  0  0  0  0
  190.0640  173.4310  139.1330 C   0  0  0  0  0  1  0  0  0  0  0  0
  192.7160  175.3470  144.4580 C   0  0  0  0  0  2  0  0  0  0  0  0
  192.6560  176.6820  143.8900 N   0  0  0  0  0  2  0  0  0  0  0  0
  191.7310  176.6150  142.7730 C   0  0  0  0  0  2  0  0  0  0  0  0
  190.7420  177.7700  142.8430 C   0  0  2  0  0  3  0  0  0  0  0  0
  191.2290  178.7660  143.8850 C   0  0  0  0  0  1  0  0  0  0  0  0
  187.4770  177.4910  144.9480 C   0  0  0  0  0  2  0  0  0  0  0  0
  189.3420  177.2590  143.1970 C   0  0  2  0  0  3  0  0  0  0  0  0
  186.7220  176.8390  142.6200 C   0  0  2  0  0  3  0  0  0  0  0  0
  188.0890  177.9230  142.0410 S   0  0  0  0  0  0  0  0  0  0  0  0
  188.9710  177.6300  144.6390 C   0  0  0  0  0  2  0  0  0  0  0  0
  185.3970  177.5320  142.3740 C   0  0  0  0  0  1  0  0  0  0  0  0
  186.8230  176.4140  144.0900 C   0  0  0  0  0  2  0  0  0  0  0  0
  1  3  1  0  0  0  0
  1  2  1  0  0  0  0
  4  6  1  0  0  0  0
  4  7  2  0  0  0  0
  5  2  2  0  0  0  0
  6  1  2  0  0  0  0
  7  5  1  0  0  0  0
  8 10  1  0  0  0  0
  9  8  2  0  0  0  0
 10 12  1  6  0  0  0
 10 14  1  0  0  0  0
 11 14  2  0  0  0  0
 13 15  1  1  0  0  0
 13  9  1  0  0  0  0
 13 11  1  0  0  0  0
 14  4  1  0  0  0  0
 16 17  1  0  0  0  0
 17 18  1  1  0  0  0
 17 15  1  0  0  0  0
 19  6  1  0  0  0  0
 20 19  1  0  0  0  0
 21 22  1  0  0  0  0
 21 20  1  0  0  0  0
 22 23  1  1  0  0  0
 25 22  1  6  0  0  0
 25 28  1  0  0  0  0
 26 29  1  1  0  0  0
 26 30  1  0  0  0  0
 27 26  1  0  0  0  0
 27 25  1  0  0  0  0
 28 24  1  0  0  0  0
 30 24  1  0  0  0  0
M  END
>  <MODEL>
8

>  <REMARK>
 VINA RESULT:      -6.5      2.916      5.567
  Name = 
  8 active torsions:
  status: ('A' for Active; 'I' for Inactive)
    1  A    between atoms: N_1  and  C_4
    2  A    between atoms: N_1  and  C_5
    3  A    between atoms: C_4  and  C_27
    4  A    between atoms: C_5  and  C_22
    5  A    between atoms: C_8  and  C_27
    6  A    between atoms: C_15  and  C_16
    7  A    between atoms: C_16  and  C_25
    8  A    between atoms: C_19  and  C_29
                            x       y       z     vdW  Elec       q    Type
                         _______ _______ _______ _____ _____    ______ ____

>  <TORSDO>
F 8

$$$$
=
 OpenBabel11052417083D

 30 32  0  0  1  0  0  0  0  0999 V2000
  190.2140  175.3770  142.2490 C   0  0  0  0  0  0  0  0  0  0  0  0
  189.7480  174.0780  142.0380 C   0  0  0  0  0  3  0  0  0  0  0  0
  191.5480  175.6150  142.1860 F   0  0  0  0  0  0  0  0  0  0  0  0
  187.9200  176.1470  142.5940 C   0  0  0  0  0  0  0  0  0  0  0  0
  188.3850  173.8040  142.1110 C   0  0  0  0  0  3  0  0  0  0  0  0
  189.3140  176.4180  142.5370 C   0  0  0  0  0  0  0  0  0  0  0  0
  187.4810  174.8290  142.3880 C   0  0  0  0  0  3  0  0  0  0  0  0
  184.6090  178.0330  142.3550 C   0  0  0  0  0  3  0  0  0  0  0  0
  184.5570  178.6370  143.5500 C   0  0  0  0  0  3  0  0  0  0  0  0
  185.9390  177.6120  141.7770 C   0  0  1  0  0  3  0  0  0  0  0  0
  186.8310  177.8040  144.0650 C   0  0  0  0  0  3  0  0  0  0  0  0
  186.4910  178.6650  141.0700 F   0  0  0  0  0  0  0  0  0  0  0  0
  185.8340  178.9030  144.3110 C   0  0  2  0  0  3  0  0  0  0  0  0
  186.8920  177.1830  142.8740 C   0  0  0  0  0  0  0  0  0  0  0  0
  185.5660  179.0420  145.8020 C   0  0  0  0  0  2  0  0  0  0  0  0
  186.6350  178.3650  147.8310 O   0  0  0  0  0  1  0  0  0  0  0  0
  186.2050  177.9060  146.5860 C   0  0  1  0  0  3  0  0  0  0  0  0
  185.1910  176.8020  146.7860 C   0  0  0  0  0  1  0  0  0  0  0  0
  189.8690  177.7810  142.8100 C   0  0  0  0  0  2  0  0  0  0  0  0
  190.8360  177.7130  143.8910 N   0  0  0  0  0  2  0  0  0  0  0  0
  190.0760  177.5730  145.1190 C   0  0  0  0  0  2  0  0  0  0  0  0
  190.6000  176.3940  145.9270 C   0  0  2  0  0  3  0  0  0  0  0  0
  190.4900  176.7300  147.4070 C   0  0  0  0  0  1  0  0  0  0  0  0
  194.4320  176.0200  146.5130 C   0  0  0  0  0  2  0  0  0  0  0  0
  192.0520  176.0840  145.5490 C   0  0  2  0  0  3  0  0  0  0  0  0
  193.9840  174.4380  144.5860 C   0  0  2  0  0  3  0  0  0  0  0  0
  192.2980  174.2890  145.3030 S   0  0  0  0  0  0  0  0  0  0  0  0
  193.0200  176.6030  146.6220 C   0  0  0  0  0  2  0  0  0  0  0  0
  194.7600  173.1670  144.8670 C   0  0  0  0  0  1  0  0  0  0  0  0
  194.7800  175.6540  145.0750 C   0  0  0  0  0  2  0  0  0  0  0  0
  1  6  1  0  0  0  0
  2  5  1  0  0  0  0
  2  1  2  0  0  0  0
  3  1  1  0  0  0  0
  4 14  1  0  0  0  0
  5  7  2  0  0  0  0
  6  4  2  0  0  0  0
  6 19  1  0  0  0  0
  7  4  1  0  0  0  0
  8  9  2  0  0  0  0
  9 13  1  0  0  0  0
 10 12  1  1  0  0  0
 10  8  1  0  0  0  0
 10 14  1  0  0  0  0
 11 13  1  0  0  0  0
 13 15  1  1  0  0  0
 14 11  2  0  0  0  0
 15 17  1  0  0  0  0
 17 18  1  1  0  0  0
 17 16  1  0  0  0  0
 19 20  1  0  0  0  0
 20 21  1  0  0  0  0
 21 22  1  0  0  0  0
 22 23  1  1  0  0  0
 24 28  1  0  0  0  0
 25 22  1  1  0  0  0
 25 28  1  0  0  0  0
 26 29  1  1  0  0  0
 26 30  1  0  0  0  0
 26 27  1  0  0  0  0
 27 25  1  0  0  0  0
 30 24  1  0  0  0  0
M  END
>  <MODEL>
9

>  <REMARK>
 VINA RESULT:      -6.5      2.685      4.951
  Name = 
  8 active torsions:
  status: ('A' for Active; 'I' for Inactive)
    1  A    between atoms: N_1  and  C_4
    2  A    between atoms: N_1  and  C_5
    3  A    between atoms: C_4  and  C_27
    4  A    between atoms: C_5  and  C_22
    5  A    between atoms: C_8  and  C_27
    6  A    between atoms: C_15  and  C_16
    7  A    between atoms: C_16  and  C_25
    8  A    between atoms: C_19  and  C_29
                            x       y       z     vdW  Elec       q    Type
                         _______ _______ _______ _____ _____    ______ ____

>  <TORSDO>
F 8

$$$$
