=
 OpenBabel11052421403D

 32 38  0  0  1  0  0  0  0  0999 V2000
  190.2940  174.8090  143.6560 C   0  0  2  0  0  3  0  0  0  0  0  0
  189.7370  174.8980  147.4610 C   0  0  0  0  0  3  0  0  0  0  0  0
  190.8820  175.5270  147.7680 C   0  0  0  0  0  3  0  0  0  0  0  0
  192.2400  175.2180  141.8560 C   0  0  1  0  0  3  0  0  0  0  0  0
  193.7560  175.3140  141.8450 C   0  0  0  0  0  0  0  0  0  0  0  0
  195.8820  175.6250  142.7040 N   0  0  0  0  0  0  0  0  0  0  0  0
  189.4540  174.4000  146.0610 C   0  0  0  0  0  2  0  0  0  0  0  0
  190.3080  175.0810  145.0910 N   0  0  0  0  0  0  0  0  0  0  0  0
  192.4410  175.8170  144.2790 C   0  0  1  0  0  3  0  0  0  0  0  0
  196.2380  175.6460  141.2970 C   0  0  0  0  0  2  0  0  0  0  0  0
  194.6960  175.4350  140.3280 S   0  0  0  0  0  0  0  0  0  0  0  0
  191.8930  175.8250  146.7340 C   0  0  0  0  0  3  0  0  0  0  0  0
  191.5920  175.5710  145.4620 C   0  0  0  0  0  0  0  0  0  0  0  0
  193.9100  175.4240  144.3520 C   0  0  0  0  0  2  0  0  0  0  0  0
  191.8240  174.2070  140.9890 O   0  0  0  0  0  1  0  0  0  0  0  0
  196.8750  175.7820  143.7520 C   0  0  0  0  0  1  0  0  0  0  0  0
  191.7800  174.8930  143.2750 C   0  0  1  0  0  3  0  0  0  0  0  0
  194.4940  175.4680  142.9510 C   0  0  0  0  0  0  0  0  0  0  0  0
  187.2770  177.0550  142.8650 C   0  0  2  0  0  3  0  0  0  0  0  0
  188.6000  175.0370  141.4840 S   0  0  0  0  0  0  0  0  0  0  0  0
  186.9130  176.8130  140.5260 O   0  0  0  0  0  0  0  0  0  0  0  0
  189.4240  175.8250  142.8990 C   0  0  1  0  0  3  0  0  0  0  0  0
  187.4350  176.3780  141.5400 C   0  0  0  0  0  0  0  0  0  0  0  0
  188.3530  176.4800  143.7730 C   0  0  0  0  0  2  0  0  0  0  0  0
  184.8910  177.8260  142.9560 C   0  0  0  0  0  2  0  0  0  0  0  0
  185.5260  178.1960  144.2320 N   0  0  0  0  0  0  0  0  0  0  0  0
  185.8980  176.9460  143.5490 C   0  0  2  0  0  3  0  0  0  0  0  0
  184.5960  177.8300  145.2830 C   0  0  0  0  0  2  0  0  0  0  0  0
  185.6370  178.2790  147.6000 C   0  0  1  0  0  3  0  0  0  0  0  0
  184.7470  178.7880  146.4590 C   0  0  1  0  0  3  0  0  0  0  0  0
  186.2470  176.9000  147.3780 C   0  0  0  0  0  1  0  0  0  0  0  0
  186.1890  179.2430  146.5680 C   0  0  0  0  0  2  0  0  0  0  0  0
  1  8  1  1  0  0  0
  2  3  2  0  0  0  0
  4 15  1  6  0  0  0
  4 17  1  0  0  0  0
  5  4  1  0  0  0  0
  5 18  2  0  0  0  0
  6 18  1  0  0  0  0
  6 16  1  0  0  0  0
  7  2  1  0  0  0  0
  8 13  1  0  0  0  0
  8  7  1  0  0  0  0
  9 14  1  1  0  0  0
  9 13  1  0  0  0  0
 10  6  1  0  0  0  0
 11 10  1  0  0  0  0
 11  5  1  0  0  0  0
 12  3  1  0  0  0  0
 13 12  2  0  0  0  0
 17  1  1  0  0  0  0
 17  9  1  0  0  0  0
 18 14  1  0  0  0  0
 19 27  1  0  0  0  0
 19 24  1  0  0  0  0
 20 23  1  0  0  0  0
 20 22  1  0  0  0  0
 21 23  2  0  0  0  0
 22  1  1  0  0  0  0
 22 24  1  0  0  0  0
 23 19  1  0  0  0  0
 25 27  1  0  0  0  0
 25 26  1  0  0  0  0
 26 28  1  0  0  0  0
 27 26  1  0  0  0  0
 28 30  1  0  0  0  0
 30 32  1  0  0  0  0
 30 29  1  0  0  0  0
 31 29  1  0  0  0  0
 32 29  1  0  0  0  0
M  END
>  <MODEL>
1

>  <REMARK>
 VINA RESULT:      -8.2      0.000      0.000
  Name = 
  4 active torsions:
  status: ('A' for Active; 'I' for Inactive)
    1  A    between atoms: C_3  and  C_14
    2  A    between atoms: C_8  and  C_23
    3  A    between atoms: C_10  and  C_24
    4  A    between atoms: N_19  and  C_24
                            x       y       z     vdW  Elec       q    Type
                         _______ _______ _______ _____ _____    ______ ____

>  <TORSDO>
F 4

$$$$
=
 OpenBabel11052421403D

 32 38  0  0  1  0  0  0  0  0999 V2000
  190.8570  173.5750  143.9790 C   0  0  2  0  0  3  0  0  0  0  0  0
  189.6160  174.9410  147.3540 C   0  0  0  0  0  3  0  0  0  0  0  0
  190.7600  175.5490  147.7020 C   0  0  0  0  0  3  0  0  0  0  0  0
  193.1430  173.2300  142.6190 C   0  0  1  0  0  3  0  0  0  0  0  0
  194.6320  173.2050  142.9170 C   0  0  0  0  0  0  0  0  0  0  0  0
  196.5820  173.6220  144.0910 N   0  0  0  0  0  0  0  0  0  0  0  0
  189.5320  174.0360  146.1450 C   0  0  0  0  0  2  0  0  0  0  0  0
  190.6400  174.2990  145.2290 N   0  0  0  0  0  0  0  0  0  0  0  0
  192.9690  174.5700  144.7270 C   0  0  1  0  0  3  0  0  0  0  0  0
  197.1940  173.1560  142.8590 C   0  0  0  0  0  2  0  0  0  0  0  0
  195.8470  172.7550  141.6830 S   0  0  0  0  0  0  0  0  0  0  0  0
  191.9790  175.4190  146.8780 C   0  0  0  0  0  3  0  0  0  0  0  0
  191.8880  174.7870  145.7100 C   0  0  0  0  0  0  0  0  0  0  0  0
  194.3290  174.1150  145.2410 C   0  0  0  0  0  2  0  0  0  0  0  0
  192.7580  172.0250  142.0300 O   0  0  0  0  0  1  0  0  0  0  0  0
  197.3740  174.0390  145.2350 C   0  0  0  0  0  1  0  0  0  0  0  0
  192.3850  173.4200  143.9300 C   0  0  1  0  0  3  0  0  0  0  0  0
  195.1650  173.6570  144.0590 C   0  0  0  0  0  0  0  0  0  0  0  0
  188.4860  175.8270  141.9590 C   0  0  2  0  0  3  0  0  0  0  0  0
  189.4240  173.2290  141.6400 S   0  0  0  0  0  0  0  0  0  0  0  0
  188.2540  174.7560  139.8470 O   0  0  0  0  0  0  0  0  0  0  0  0
  190.2950  174.3500  142.7760 C   0  0  1  0  0  3  0  0  0  0  0  0
  188.5880  174.6690  141.0170 C   0  0  0  0  0  0  0  0  0  0  0  0
  189.3350  175.4740  143.1700 C   0  0  0  0  0  2  0  0  0  0  0  0
  186.4230  177.1770  141.4920 C   0  0  0  0  0  2  0  0  0  0  0  0
  187.0020  177.6740  142.7510 N   0  0  0  0  0  0  0  0  0  0  0  0
  187.0710  176.2420  142.4120 C   0  0  2  0  0  3  0  0  0  0  0  0
  185.9030  177.8230  143.6860 C   0  0  0  0  0  2  0  0  0  0  0  0
  185.9700  178.0370  146.2560 C   0  0  1  0  0  3  0  0  0  0  0  0
  186.3640  178.6270  144.8960 C   0  0  1  0  0  3  0  0  0  0  0  0
  185.1920  176.7280  146.1900 C   0  0  0  0  0  1  0  0  0  0  0  0
  187.3630  177.8190  145.6980 C   0  0  0  0  0  2  0  0  0  0  0  0
  1  8  1  1  0  0  0
  2  3  2  0  0  0  0
  4 15  1  1  0  0  0
  4  5  1  0  0  0  0
  4 17  1  0  0  0  0
  5 18  2  0  0  0  0
  6 16  1  0  0  0  0
  7  2  1  0  0  0  0
  8 13  1  0  0  0  0
  8  7  1  0  0  0  0
  9 14  1  1  0  0  0
  9 13  1  0  0  0  0
 10  6  1  0  0  0  0
 11 10  1  0  0  0  0
 11  5  1  0  0  0  0
 12  3  1  0  0  0  0
 13 12  2  0  0  0  0
 17  1  1  0  0  0  0
 17  9  1  0  0  0  0
 18  6  1  0  0  0  0
 18 14  1  0  0  0  0
 19 27  1  0  0  0  0
 19 24  1  0  0  0  0
 20 22  1  0  0  0  0
 21 23  2  0  0  0  0
 22 24  1  0  0  0  0
 22  1  1  0  0  0  0
 23 20  1  0  0  0  0
 23 19  1  0  0  0  0
 25 27  1  0  0  0  0
 25 26  1  0  0  0  0
 26 28  1  0  0  0  0
 27 26  1  0  0  0  0
 28 30  1  0  0  0  0
 30 32  1  0  0  0  0
 30 29  1  0  0  0  0
 31 29  1  0  0  0  0
 32 29  1  0  0  0  0
M  END
>  <MODEL>
2

>  <REMARK>
 VINA RESULT:      -7.9      1.769      1.949
  Name = 
  4 active torsions:
  status: ('A' for Active; 'I' for Inactive)
    1  A    between atoms: C_3  and  C_14
    2  A    between atoms: C_8  and  C_23
    3  A    between atoms: C_10  and  C_24
    4  A    between atoms: N_19  and  C_24
                            x       y       z     vdW  Elec       q    Type
                         _______ _______ _______ _____ _____    ______ ____

>  <TORSDO>
F 4

$$$$
=
 OpenBabel11052421403D

 32 38  0  0  1  0  0  0  0  0999 V2000
  190.0590  176.0330  142.8120 C   0  0  2  0  0  3  0  0  0  0  0  0
  187.3990  178.3130  141.2230 C   0  0  0  0  0  3  0  0  0  0  0  0
  186.7830  177.3550  140.5130 C   0  0  0  0  0  3  0  0  0  0  0  0
  191.0640  173.5600  142.5510 C   0  0  1  0  0  3  0  0  0  0  0  0
  191.0720  172.4580  141.5070 C   0  0  0  0  0  0  0  0  0  0  0  0
  190.3640  171.2660  139.6540 N   0  0  0  0  0  0  0  0  0  0  0  0
  188.6970  178.0500  141.9530 C   0  0  0  0  0  2  0  0  0  0  0  0
  188.8900  176.6160  142.1570 N   0  0  0  0  0  0  0  0  0  0  0  0
  188.9970  174.3500  141.3790 C   0  0  1  0  0  3  0  0  0  0  0  0
  191.3150  170.2910  140.1580 C   0  0  0  0  0  2  0  0  0  0  0  0
  192.0520  170.9710  141.6930 S   0  0  0  0  0  0  0  0  0  0  0  0
  187.3080  175.9760  140.4670 C   0  0  0  0  0  3  0  0  0  0  0  0
  188.3400  175.6660  141.2510 C   0  0  0  0  0  0  0  0  0  0  0  0
  189.3060  173.5720  140.1070 C   0  0  0  0  0  2  0  0  0  0  0  0
  192.3740  173.9230  142.8650 O   0  0  0  0  0  1  0  0  0  0  0  0
  189.5870  171.0320  138.4490 C   0  0  0  0  0  1  0  0  0  0  0  0
  190.3240  174.7680  141.9820 C   0  0  1  0  0  3  0  0  0  0  0  0
  190.2470  172.4310  140.4530 C   0  0  0  0  0  0  0  0  0  0  0  0
  188.3880  176.2720  146.2650 C   0  0  2  0  0  3  0  0  0  0  0  0
  191.0010  176.5540  145.3580 S   0  0  0  0  0  0  0  0  0  0  0  0
  190.1780  176.2090  147.8320 O   0  0  0  0  0  0  0  0  0  0  0  0
  189.7810  175.7290  144.2930 C   0  0  1  0  0  3  0  0  0  0  0  0
  189.8220  176.3810  146.6770 C   0  0  0  0  0  0  0  0  0  0  0  0
  188.3830  176.1520  144.7490 C   0  0  0  0  0  2  0  0  0  0  0  0
  186.5510  177.0230  147.8010 C   0  0  0  0  0  2  0  0  0  0  0  0
  186.0330  177.0890  146.4240 N   0  0  0  0  0  0  0  0  0  0  0  0
  187.4420  177.4080  146.7060 C   0  0  2  0  0  3  0  0  0  0  0  0
  185.3400  178.3570  146.2990 C   0  0  0  0  0  2  0  0  0  0  0  0
  184.5010  179.2030  144.0110 C   0  0  1  0  0  3  0  0  0  0  0  0
  184.2870  178.2590  145.2010 C   0  0  1  0  0  3  0  0  0  0  0  0
  185.7420  180.0820  144.0990 C   0  0  0  0  0  1  0  0  0  0  0  0
  184.9220  177.7490  143.9240 C   0  0  0  0  0  2  0  0  0  0  0  0
  1  8  1  6  0  0  0
  1 22  1  0  0  0  0
  2  7  1  0  0  0  0
  3  2  2  0  0  0  0
  4 15  1  6  0  0  0
  5 11  1  0  0  0  0
  5  4  1  0  0  0  0
  6 10  1  0  0  0  0
  6 18  1  0  0  0  0
  7  8  1  0  0  0  0
  9 14  1  6  0  0  0
  9 17  1  0  0  0  0
 10 11  1  0  0  0  0
 12  3  1  0  0  0  0
 12 13  2  0  0  0  0
 13  9  1  0  0  0  0
 13  8  1  0  0  0  0
 14 18  1  0  0  0  0
 16  6  1  0  0  0  0
 17  4  1  0  0  0  0
 17  1  1  0  0  0  0
 18  5  2  0  0  0  0
 19 23  1  0  0  0  0
 19 27  1  0  0  0  0
 20 23  1  0  0  0  0
 22 24  1  0  0  0  0
 22 20  1  0  0  0  0
 23 21  2  0  0  0  0
 24 19  1  0  0  0  0
 26 27  1  0  0  0  0
 26 25  1  0  0  0  0
 27 25  1  0  0  0  0
 28 26  1  0  0  0  0
 29 31  1  0  0  0  0
 29 30  1  0  0  0  0
 30 28  1  0  0  0  0
 32 29  1  0  0  0  0
 32 30  1  0  0  0  0
M  END
>  <MODEL>
3

>  <REMARK>
 VINA RESULT:      -7.7      3.219      5.209
  Name = 
  4 active torsions:
  status: ('A' for Active; 'I' for Inactive)
    1  A    between atoms: C_3  and  C_14
    2  A    between atoms: C_8  and  C_23
    3  A    between atoms: C_10  and  C_24
    4  A    between atoms: N_19  and  C_24
                            x       y       z     vdW  Elec       q    Type
                         _______ _______ _______ _____ _____    ______ ____

>  <TORSDO>
F 4

$$$$
=
 OpenBabel11052421403D

 32 38  0  0  1  0  0  0  0  0999 V2000
  189.4010  175.1160  144.7590 C   0  0  2  0  0  3  0  0  0  0  0  0
  190.0710  172.9960  141.6200 C   0  0  0  0  0  3  0  0  0  0  0  0
  189.3250  173.7290  140.7790 C   0  0  0  0  0  3  0  0  0  0  0  0
  187.7660  177.0660  145.6080 C   0  0  1  0  0  3  0  0  0  0  0  0
  186.4440  177.6820  145.1890 C   0  0  0  0  0  0  0  0  0  0  0  0
  184.6950  178.2270  143.7740 N   0  0  0  0  0  0  0  0  0  0  0  0
  190.0620  173.2430  143.1120 C   0  0  0  0  0  2  0  0  0  0  0  0
  189.5560  174.5820  143.4080 N   0  0  0  0  0  0  0  0  0  0  0  0
  187.9290  176.3330  143.2190 C   0  0  1  0  0  3  0  0  0  0  0  0
  184.3360  179.1070  144.8720 C   0  0  0  0  0  2  0  0  0  0  0  0
  185.5980  178.9040  146.1860 S   0  0  0  0  0  0  0  0  0  0  0  0
  188.5100  174.8590  141.2650 C   0  0  0  0  0  3  0  0  0  0  0  0
  188.6270  175.2220  142.5410 C   0  0  0  0  0  0  0  0  0  0  0  0
  186.4380  176.5110  142.9640 C   0  0  0  0  0  2  0  0  0  0  0  0
  187.6710  176.5880  146.9160 O   0  0  0  0  0  1  0  0  0  0  0  0
  183.9060  178.1530  142.5570 C   0  0  0  0  0  1  0  0  0  0  0  0
  188.0870  175.9080  144.6670 C   0  0  1  0  0  3  0  0  0  0  0  0
  185.8840  177.4850  143.9880 C   0  0  0  0  0  0  0  0  0  0  0  0
  193.0280  176.3820  144.8840 C   0  0  2  0  0  3  0  0  0  0  0  0
  191.2090  175.5330  146.8080 S   0  0  0  0  0  0  0  0  0  0  0  0
  193.4380  176.8790  147.1750 O   0  0  0  0  0  0  0  0  0  0  0  0
  190.6000  175.9920  145.1580 C   0  0  1  0  0  3  0  0  0  0  0  0
  192.7410  176.3090  146.3510 C   0  0  0  0  0  0  0  0  0  0  0  0
  191.7700  175.9080  144.1750 C   0  0  0  0  0  2  0  0  0  0  0  0
  195.4500  176.4220  144.2270 C   0  0  0  0  0  2  0  0  0  0  0  0
  194.6720  176.0530  143.0330 N   0  0  0  0  0  0  0  0  0  0  0  0
  194.2510  175.5950  144.3680 C   0  0  2  0  0  3  0  0  0  0  0  0
  195.3620  174.9370  142.4140 C   0  0  0  0  0  2  0  0  0  0  0  0
  193.9970  173.4690  140.7910 C   0  0  1  0  0  3  0  0  0  0  0  0
  194.8410  174.7330  140.9970 C   0  0  1  0  0  3  0  0  0  0  0  0
  193.7960  172.6170  142.0380 C   0  0  0  0  0  1  0  0  0  0  0  0
  193.3280  174.8140  140.9900 C   0  0  0  0  0  2  0  0  0  0  0  0
  1  8  1  6  0  0  0
  1 22  1  0  0  0  0
  2  7  1  0  0  0  0
  3 12  1  0  0  0  0
  3  2  2  0  0  0  0
  4 15  1  1  0  0  0
  5  4  1  0  0  0  0
  5 11  1  0  0  0  0
  6 18  1  0  0  0  0
  6 10  1  0  0  0  0
  7  8  1  0  0  0  0
  9 14  1  6  0  0  0
  9 17  1  0  0  0  0
 10 11  1  0  0  0  0
 12 13  2  0  0  0  0
 13  9  1  0  0  0  0
 13  8  1  0  0  0  0
 14 18  1  0  0  0  0
 16  6  1  0  0  0  0
 17  1  1  0  0  0  0
 17  4  1  0  0  0  0
 18  5  2  0  0  0  0
 19 23  1  0  0  0  0
 22 20  1  0  0  0  0
 23 20  1  0  0  0  0
 23 21  2  0  0  0  0
 24 19  1  0  0  0  0
 24 22  1  0  0  0  0
 25 27  1  0  0  0  0
 26 25  1  0  0  0  0
 26 27  1  0  0  0  0
 27 19  1  0  0  0  0
 28 26  1  0  0  0  0
 29 32  1  0  0  0  0
 29 30  1  0  0  0  0
 29 31  1  0  0  0  0
 30 28  1  0  0  0  0
 32 30  1  0  0  0  0
M  END
>  <MODEL>
4

>  <REMARK>
 VINA RESULT:      -7.6      2.774      8.380
  Name = 
  4 active torsions:
  status: ('A' for Active; 'I' for Inactive)
    1  A    between atoms: C_3  and  C_14
    2  A    between atoms: C_8  and  C_23
    3  A    between atoms: C_10  and  C_24
    4  A    between atoms: N_19  and  C_24
                            x       y       z     vdW  Elec       q    Type
                         _______ _______ _______ _____ _____    ______ ____

>  <TORSDO>
F 4

$$$$
=
 OpenBabel11052421403D

 32 38  0  0  1  0  0  0  0  0999 V2000
  189.4640  175.2390  144.8420 C   0  0  2  0  0  3  0  0  0  0  0  0
  190.1830  173.3890  141.5470 C   0  0  0  0  0  3  0  0  0  0  0  0
  189.4160  174.1650  140.7660 C   0  0  0  0  0  3  0  0  0  0  0  0
  187.7800  177.0720  145.8410 C   0  0  1  0  0  3  0  0  0  0  0  0
  186.4400  177.6840  145.4720 C   0  0  0  0  0  0  0  0  0  0  0  0
  184.6750  178.2910  144.1040 N   0  0  0  0  0  0  0  0  0  0  0  0
  190.1710  173.5180  143.0530 C   0  0  0  0  0  2  0  0  0  0  0  0
  189.6300  174.8160  143.4540 N   0  0  0  0  0  0  0  0  0  0  0  0
  187.9570  176.5320  143.4030 C   0  0  1  0  0  3  0  0  0  0  0  0
  184.2940  179.0720  145.2680 C   0  0  0  0  0  2  0  0  0  0  0  0
  185.5650  178.8010  146.5610 S   0  0  0  0  0  0  0  0  0  0  0  0
  188.5720  175.2320  141.3390 C   0  0  0  0  0  3  0  0  0  0  0  0
  188.6820  175.4970  142.6390 C   0  0  0  0  0  0  0  0  0  0  0  0
  186.4610  176.6900  143.1620 C   0  0  0  0  0  2  0  0  0  0  0  0
  187.7000  176.4920  147.1080 O   0  0  0  0  0  1  0  0  0  0  0  0
  183.8850  178.2900  142.8850 C   0  0  0  0  0  1  0  0  0  0  0  0
  188.1300  176.0010  144.8120 C   0  0  1  0  0  3  0  0  0  0  0  0
  185.8840  177.5660  144.2600 C   0  0  0  0  0  0  0  0  0  0  0  0
  193.0070  176.7260  144.9290 C   0  0  2  0  0  3  0  0  0  0  0  0
  191.4190  175.4030  146.7890 S   0  0  0  0  0  0  0  0  0  0  0  0
  193.5890  176.8200  147.2350 O   0  0  0  0  0  0  0  0  0  0  0  0
  190.6400  176.1130  145.3080 C   0  0  1  0  0  3  0  0  0  0  0  0
  192.8570  176.3620  146.3730 C   0  0  0  0  0  0  0  0  0  0  0  0
  191.7210  176.2990  144.2410 C   0  0  0  0  0  2  0  0  0  0  0  0
  193.9260  175.7760  142.7960 C   0  0  0  0  0  2  0  0  0  0  0  0
  194.0190  174.7270  143.8260 N   0  0  0  0  0  0  0  0  0  0  0  0
  194.2230  176.1420  144.1810 C   0  0  2  0  0  3  0  0  0  0  0  0
  195.3400  174.1390  143.7040 C   0  0  0  0  0  2  0  0  0  0  0  0
  196.1240  172.5330  145.5640 C   0  0  1  0  0  3  0  0  0  0  0  0
  195.3240  172.7230  144.2690 C   0  0  1  0  0  3  0  0  0  0  0  0
  196.7990  173.7910  146.0960 C   0  0  0  0  0  1  0  0  0  0  0  0
  194.6200  172.7140  145.6100 C   0  0  0  0  0  2  0  0  0  0  0  0
  1  8  1  6  0  0  0
  1 22  1  0  0  0  0
  2  7  1  0  0  0  0
  3 12  1  0  0  0  0
  3  2  2  0  0  0  0
  4 15  1  1  0  0  0
  5  4  1  0  0  0  0
  5 11  1  0  0  0  0
  6 18  1  0  0  0  0
  6 10  1  0  0  0  0
  7  8  1  0  0  0  0
  9 14  1  6  0  0  0
  9 17  1  0  0  0  0
 10 11  1  0  0  0  0
 12 13  2  0  0  0  0
 13  9  1  0  0  0  0
 13  8  1  0  0  0  0
 14 18  1  0  0  0  0
 16  6  1  0  0  0  0
 17  1  1  0  0  0  0
 17  4  1  0  0  0  0
 18  5  2  0  0  0  0
 19 23  1  0  0  0  0
 22 20  1  0  0  0  0
 23 20  1  0  0  0  0
 23 21  2  0  0  0  0
 24 19  1  0  0  0  0
 24 22  1  0  0  0  0
 25 26  1  0  0  0  0
 25 27  1  0  0  0  0
 26 27  1  0  0  0  0
 27 19  1  0  0  0  0
 28 26  1  0  0  0  0
 28 30  1  0  0  0  0
 29 32  1  0  0  0  0
 29 31  1  0  0  0  0
 30 29  1  0  0  0  0
 30 32  1  0  0  0  0
M  END
>  <MODEL>
5

>  <REMARK>
 VINA RESULT:      -7.6      2.932      8.423
  Name = 
  4 active torsions:
  status: ('A' for Active; 'I' for Inactive)
    1  A    between atoms: C_3  and  C_14
    2  A    between atoms: C_8  and  C_23
    3  A    between atoms: C_10  and  C_24
    4  A    between atoms: N_19  and  C_24
                            x       y       z     vdW  Elec       q    Type
                         _______ _______ _______ _____ _____    ______ ____

>  <TORSDO>
F 4

$$$$
=
 OpenBabel11052421403D

 32 38  0  0  1  0  0  0  0  0999 V2000
  191.2840  174.5200  143.2330 C   0  0  2  0  0  3  0  0  0  0  0  0
  190.6640  175.1820  146.9710 C   0  0  0  0  0  3  0  0  0  0  0  0
  191.7070  176.0070  147.1550 C   0  0  0  0  0  3  0  0  0  0  0  0
  193.1800  174.8800  141.3720 C   0  0  1  0  0  3  0  0  0  0  0  0
  194.6680  175.1810  141.3300 C   0  0  0  0  0  0  0  0  0  0  0  0
  196.7180  175.9270  142.1020 N   0  0  0  0  0  0  0  0  0  0  0  0
  190.4730  174.4180  145.6810 C   0  0  0  0  0  2  0  0  0  0  0  0
  191.2390  175.0340  144.6000 N   0  0  0  0  0  0  0  0  0  0  0  0
  193.2610  175.9080  143.6530 C   0  0  1  0  0  3  0  0  0  0  0  0
  197.0880  175.7550  140.7090 C   0  0  0  0  0  2  0  0  0  0  0  0
  195.6050  175.1700  139.8050 S   0  0  0  0  0  0  0  0  0  0  0  0
  192.6820  176.2610  146.0760 C   0  0  0  0  0  3  0  0  0  0  0  0
  192.4370  175.7530  144.8690 C   0  0  0  0  0  0  0  0  0  0  0  0
  194.7700  175.7410  143.7790 C   0  0  0  0  0  2  0  0  0  0  0  0
  192.9210  173.6870  140.6960 O   0  0  0  0  0  1  0  0  0  0  0  0
  197.6650  176.3990  143.0980 C   0  0  0  0  0  1  0  0  0  0  0  0
  192.7490  174.7430  142.8290 C   0  0  1  0  0  3  0  0  0  0  0  0
  195.3620  175.6240  142.3860 C   0  0  0  0  0  0  0  0  0  0  0  0
  188.0470  176.2860  142.1480 C   0  0  2  0  0  3  0  0  0  0  0  0
  189.4720  174.1000  141.1880 S   0  0  0  0  0  0  0  0  0  0  0  0
  187.5920  175.4680  139.9600 O   0  0  0  0  0  0  0  0  0  0  0  0
  190.2920  175.2600  142.3210 C   0  0  1  0  0  3  0  0  0  0  0  0
  188.1990  175.3270  141.0090 C   0  0  0  0  0  0  0  0  0  0  0  0
  189.2120  176.0250  143.0890 C   0  0  0  0  0  2  0  0  0  0  0  0
  185.7270  177.1980  142.4340 C   0  0  0  0  0  2  0  0  0  0  0  0
  186.4760  177.4950  143.6670 N   0  0  0  0  0  0  0  0  0  0  0  0
  186.7190  176.2430  142.9300 C   0  0  2  0  0  3  0  0  0  0  0  0
  185.6040  177.1580  144.7760 C   0  0  0  0  0  2  0  0  0  0  0  0
  184.3660  178.7840  146.3510 C   0  0  1  0  0  3  0  0  0  0  0  0
  184.5320  178.2310  144.9300 C   0  0  1  0  0  3  0  0  0  0  0  0
  185.3100  178.1880  147.3890 C   0  0  0  0  0  1  0  0  0  0  0  0
  185.1740  179.5460  145.3190 C   0  0  0  0  0  2  0  0  0  0  0  0
  1  8  1  1  0  0  0
  2  3  2  0  0  0  0
  4 15  1  6  0  0  0
  4 17  1  0  0  0  0
  5  4  1  0  0  0  0
  5 18  2  0  0  0  0
  6 18  1  0  0  0  0
  6 16  1  0  0  0  0
  7  2  1  0  0  0  0
  8 13  1  0  0  0  0
  8  7  1  0  0  0  0
  9 14  1  1  0  0  0
  9 13  1  0  0  0  0
 10  6  1  0  0  0  0
 11 10  1  0  0  0  0
 11  5  1  0  0  0  0
 12  3  1  0  0  0  0
 13 12  2  0  0  0  0
 17  1  1  0  0  0  0
 17  9  1  0  0  0  0
 18 14  1  0  0  0  0
 19 27  1  0  0  0  0
 19 24  1  0  0  0  0
 20 22  1  0  0  0  0
 21 23  2  0  0  0  0
 22 24  1  0  0  0  0
 22  1  1  0  0  0  0
 23 20  1  0  0  0  0
 23 19  1  0  0  0  0
 25 27  1  0  0  0  0
 25 26  1  0  0  0  0
 26 28  1  0  0  0  0
 27 26  1  0  0  0  0
 28 30  1  0  0  0  0
 29 31  1  0  0  0  0
 30 32  1  0  0  0  0
 30 29  1  0  0  0  0
 32 29  1  0  0  0  0
M  END
>  <MODEL>
6

>  <REMARK>
 VINA RESULT:      -7.5      1.055      1.251
  Name = 
  4 active torsions:
  status: ('A' for Active; 'I' for Inactive)
    1  A    between atoms: C_3  and  C_14
    2  A    between atoms: C_8  and  C_23
    3  A    between atoms: C_10  and  C_24
    4  A    between atoms: N_19  and  C_24
                            x       y       z     vdW  Elec       q    Type
                         _______ _______ _______ _____ _____    ______ ____

>  <TORSDO>
F 4

$$$$
=
 OpenBabel11052421403D

 32 38  0  0  1  0  0  0  0  0999 V2000
  190.2180  175.9060  143.6280 C   0  0  2  0  0  3  0  0  0  0  0  0
  193.0930  175.9830  146.1820 C   0  0  0  0  0  3  0  0  0  0  0  0
  192.3300  176.2040  147.2640 C   0  0  0  0  0  3  0  0  0  0  0  0
  187.6120  176.5140  143.4530 C   0  0  1  0  0  3  0  0  0  0  0  0
  186.5980  177.3390  144.2250 C   0  0  0  0  0  0  0  0  0  0  0  0
  185.6960  178.4660  146.0340 N   0  0  0  0  0  0  0  0  0  0  0  0
  192.5220  176.0330  144.7830 C   0  0  0  0  0  2  0  0  0  0  0  0
  191.0690  175.8790  144.8150 N   0  0  0  0  0  0  0  0  0  0  0  0
  188.8830  176.4630  145.6090 C   0  0  1  0  0  3  0  0  0  0  0  0
  184.5160  178.4850  145.1880 C   0  0  0  0  0  2  0  0  0  0  0  0
  184.9330  177.6120  143.6300 S   0  0  0  0  0  0  0  0  0  0  0  0
  190.8780  176.4390  147.1420 C   0  0  0  0  0  3  0  0  0  0  0  0
  190.3130  176.3010  145.9440 C   0  0  0  0  0  0  0  0  0  0  0  0
  188.1390  177.6590  146.1860 C   0  0  0  0  0  2  0  0  0  0  0  0
  187.6750  176.9590  142.1320 O   0  0  0  0  0  1  0  0  0  0  0  0
  185.7040  179.0650  147.3570 C   0  0  0  0  0  1  0  0  0  0  0  0
  188.9790  176.6760  144.1100 C   0  0  1  0  0  3  0  0  0  0  0  0
  186.8090  177.7950  145.4660 C   0  0  0  0  0  0  0  0  0  0  0  0
  190.7500  172.1960  142.7790 C   0  0  2  0  0  3  0  0  0  0  0  0
  189.9070  174.4100  141.3240 S   0  0  0  0  0  0  0  0  0  0  0  0
  189.6630  171.8700  140.6870 O   0  0  0  0  0  0  0  0  0  0  0  0
  189.8870  174.4860  143.1400 C   0  0  1  0  0  3  0  0  0  0  0  0
  190.1280  172.6550  141.4980 C   0  0  0  0  0  0  0  0  0  0  0  0
  190.8450  173.4200  143.6750 C   0  0  0  0  0  2  0  0  0  0  0  0
  192.0450  170.0460  142.7530 C   0  0  0  0  0  2  0  0  0  0  0  0
  192.4790  170.8110  143.9340 N   0  0  0  0  0  0  0  0  0  0  0  0
  192.1260  171.5050  142.6840 C   0  0  2  0  0  3  0  0  0  0  0  0
  193.9270  170.7380  143.9690 C   0  0  0  0  0  2  0  0  0  0  0  0
  195.3000  172.4370  145.3410 C   0  0  1  0  0  3  0  0  0  0  0  0
  194.4290  171.1750  145.3410 C   0  0  1  0  0  3  0  0  0  0  0  0
  195.5180  173.0710  143.9720 C   0  0  0  0  0  1  0  0  0  0  0  0
  193.8300  172.5180  145.7020 C   0  0  0  0  0  2  0  0  0  0  0  0
  1 17  1  0  0  0  0
  1  8  1  1  0  0  0
  2  3  2  0  0  0  0
  4 15  1  6  0  0  0
  4 17  1  0  0  0  0
  4  5  1  0  0  0  0
  5 18  2  0  0  0  0
  6 16  1  0  0  0  0
  7  8  1  0  0  0  0
  7  2  1  0  0  0  0
  8 13  1  0  0  0  0
  9 13  1  0  0  0  0
  9 14  1  1  0  0  0
 10  6  1  0  0  0  0
 11  5  1  0  0  0  0
 11 10  1  0  0  0  0
 12  3  1  0  0  0  0
 13 12  2  0  0  0  0
 17  9  1  0  0  0  0
 18  6  1  0  0  0  0
 18 14  1  0  0  0  0
 19 24  1  0  0  0  0
 20 23  1  0  0  0  0
 20 22  1  0  0  0  0
 21 23  2  0  0  0  0
 22  1  1  0  0  0  0
 22 24  1  0  0  0  0
 23 19  1  0  0  0  0
 25 26  1  0  0  0  0
 26 28  1  0  0  0  0
 27 25  1  0  0  0  0
 27 19  1  0  0  0  0
 27 26  1  0  0  0  0
 28 30  1  0  0  0  0
 29 30  1  0  0  0  0
 29 32  1  0  0  0  0
 30 32  1  0  0  0  0
 31 29  1  0  0  0  0
M  END
>  <MODEL>
7

>  <REMARK>
 VINA RESULT:      -7.2      2.622      7.635
  Name = 
  4 active torsions:
  status: ('A' for Active; 'I' for Inactive)
    1  A    between atoms: C_3  and  C_14
    2  A    between atoms: C_8  and  C_23
    3  A    between atoms: C_10  and  C_24
    4  A    between atoms: N_19  and  C_24
                            x       y       z     vdW  Elec       q    Type
                         _______ _______ _______ _____ _____    ______ ____

>  <TORSDO>
F 4

$$$$
=
 OpenBabel11052421403D

 32 38  0  0  1  0  0  0  0  0999 V2000
  190.7480  176.7840  143.9230 C   0  0  2  0  0  3  0  0  0  0  0  0
  192.2740  175.6910  147.2800 C   0  0  0  0  0  3  0  0  0  0  0  0
  191.1140  175.3870  147.8830 C   0  0  0  0  0  3  0  0  0  0  0  0
  188.3650  177.3920  142.8520 C   0  0  1  0  0  3  0  0  0  0  0  0
  186.9770  177.7650  143.3430 C   0  0  0  0  0  0  0  0  0  0  0  0
  185.2110  177.9300  144.8280 N   0  0  0  0  0  0  0  0  0  0  0  0
  192.3140  176.3760  145.9330 C   0  0  0  0  0  2  0  0  0  0  0  0
  191.0380  176.2180  145.2370 N   0  0  0  0  0  0  0  0  0  0  0  0
  188.6480  176.3610  145.1160 C   0  0  1  0  0  3  0  0  0  0  0  0
  184.4940  178.3300  143.6310 C   0  0  0  0  0  2  0  0  0  0  0  0
  185.6730  178.2720  142.2280 S   0  0  0  0  0  0  0  0  0  0  0  0
  189.8180  175.6450  147.2250 C   0  0  0  0  0  3  0  0  0  0  0  0
  189.8230  176.0700  145.9630 C   0  0  0  0  0  0  0  0  0  0  0  0
  187.4990  177.1540  145.7250 C   0  0  0  0  0  2  0  0  0  0  0  0
  188.8560  178.3950  142.0150 O   0  0  0  0  0  1  0  0  0  0  0  0
  184.5610  177.8520  146.1250 C   0  0  0  0  0  1  0  0  0  0  0  0
  189.2870  177.2400  144.0580 C   0  0  1  0  0  3  0  0  0  0  0  0
  186.5720  177.6000  144.6080 C   0  0  0  0  0  0  0  0  0  0  0  0
  191.3670  173.3650  142.2800 C   0  0  2  0  0  3  0  0  0  0  0  0
  192.6400  175.8330  142.1450 S   0  0  0  0  0  0  0  0  0  0  0  0
  192.9020  173.7890  140.5120 O   0  0  0  0  0  0  0  0  0  0  0  0
  190.9490  175.7460  142.8060 C   0  0  1  0  0  3  0  0  0  0  0  0
  192.3860  174.1790  141.5470 C   0  0  0  0  0  0  0  0  0  0  0  0
  190.6840  174.3080  143.2580 C   0  0  0  0  0  2  0  0  0  0  0  0
  191.1400  171.8430  144.2620 C   0  0  0  0  0  2  0  0  0  0  0  0
  192.4780  172.4530  144.3230 N   0  0  0  0  0  0  0  0  0  0  0  0
  191.8720  172.1120  143.0240 C   0  0  2  0  0  3  0  0  0  0  0  0
  193.4100  171.3860  144.6350 C   0  0  0  0  0  2  0  0  0  0  0  0
  195.8220  172.0760  145.2340 C   0  0  1  0  0  3  0  0  0  0  0  0
  194.3820  171.8540  145.7120 C   0  0  1  0  0  3  0  0  0  0  0  0
  196.0590  171.8110  143.7520 C   0  0  0  0  0  1  0  0  0  0  0  0
  194.8750  173.2500  145.3880 C   0  0  0  0  0  2  0  0  0  0  0  0
  1 17  1  0  0  0  0
  1  8  1  1  0  0  0
  2  3  2  0  0  0  0
  4 15  1  6  0  0  0
  4  5  1  0  0  0  0
  4 17  1  0  0  0  0
  5 18  2  0  0  0  0
  6 16  1  0  0  0  0
  7  2  1  0  0  0  0
  8  7  1  0  0  0  0
  8 13  1  0  0  0  0
  9 14  1  1  0  0  0
  9 13  1  0  0  0  0
 10  6  1  0  0  0  0
 11  5  1  0  0  0  0
 11 10  1  0  0  0  0
 12  3  1  0  0  0  0
 13 12  2  0  0  0  0
 17  9  1  0  0  0  0
 18  6  1  0  0  0  0
 18 14  1  0  0  0  0
 19 27  1  0  0  0  0
 19 24  1  0  0  0  0
 20 22  1  0  0  0  0
 21 23  2  0  0  0  0
 22 24  1  0  0  0  0
 22  1  1  0  0  0  0
 23 20  1  0  0  0  0
 23 19  1  0  0  0  0
 25 26  1  0  0  0  0
 26 28  1  0  0  0  0
 27 25  1  0  0  0  0
 27 26  1  0  0  0  0
 28 30  1  0  0  0  0
 29 32  1  0  0  0  0
 29 30  1  0  0  0  0
 31 29  1  0  0  0  0
 32 30  1  0  0  0  0
M  END
>  <MODEL>
8

>  <REMARK>
 VINA RESULT:      -7.1      2.300      7.537
  Name = 
  4 active torsions:
  status: ('A' for Active; 'I' for Inactive)
    1  A    between atoms: C_3  and  C_14
    2  A    between atoms: C_8  and  C_23
    3  A    between atoms: C_10  and  C_24
    4  A    between atoms: N_19  and  C_24
                            x       y       z     vdW  Elec       q    Type
                         _______ _______ _______ _____ _____    ______ ____

>  <TORSDO>
F 4

$$$$
=
 OpenBabel11052421403D

 32 38  0  0  1  0  0  0  0  0999 V2000
  189.5670  175.8850  143.5790 C   0  0  2  0  0  3  0  0  0  0  0  0
  192.2940  175.1770  146.1970 C   0  0  0  0  0  3  0  0  0  0  0  0
  191.5140  175.3350  147.2760 C   0  0  0  0  0  3  0  0  0  0  0  0
  187.0750  176.8650  143.4240 C   0  0  1  0  0  3  0  0  0  0  0  0
  186.1400  177.6940  144.2870 C   0  0  0  0  0  0  0  0  0  0  0  0
  185.3040  178.6470  146.2230 N   0  0  0  0  0  0  0  0  0  0  0  0
  191.8070  175.5170  144.8060 C   0  0  0  0  0  2  0  0  0  0  0  0
  190.3460  175.5610  144.7710 N   0  0  0  0  0  0  0  0  0  0  0  0
  188.2190  176.3130  145.5820 C   0  0  1  0  0  3  0  0  0  0  0  0
  184.1810  178.9560  145.3560 C   0  0  0  0  0  2  0  0  0  0  0  0
  184.5570  178.2800  143.6930 S   0  0  0  0  0  0  0  0  0  0  0  0
  190.1130  175.7830  147.1500 C   0  0  0  0  0  3  0  0  0  0  0  0
  189.5960  175.9070  145.9290 C   0  0  0  0  0  0  0  0  0  0  0  0
  187.6090  177.4980  146.3180 C   0  0  0  0  0  2  0  0  0  0  0  0
  187.2630  177.4930  142.1920 O   0  0  0  0  0  1  0  0  0  0  0  0
  185.3230  179.0310  147.6240 C   0  0  0  0  0  1  0  0  0  0  0  0
  188.4170  176.7360  144.1390 C   0  0  1  0  0  3  0  0  0  0  0  0
  186.3460  177.9240  145.5900 C   0  0  0  0  0  0  0  0  0  0  0  0
  189.6990  172.3690  142.0330 C   0  0  2  0  0  3  0  0  0  0  0  0
  188.9960  174.8800  141.0680 S   0  0  0  0  0  0  0  0  0  0  0  0
  188.4790  172.5340  139.9960 O   0  0  0  0  0  0  0  0  0  0  0  0
  189.0780  174.6150  142.8640 C   0  0  1  0  0  3  0  0  0  0  0  0
  189.0580  173.1110  140.9030 C   0  0  0  0  0  0  0  0  0  0  0  0
  189.9570  173.3910  143.1290 C   0  0  0  0  0  2  0  0  0  0  0  0
  190.7830  170.1590  141.5440 C   0  0  0  0  0  2  0  0  0  0  0  0
  191.3560  170.6650  142.8020 N   0  0  0  0  0  0  0  0  0  0  0  0
  190.9970  171.5960  141.7190 C   0  0  2  0  0  3  0  0  0  0  0  0
  192.7900  170.4680  142.7170 C   0  0  0  0  0  2  0  0  0  0  0  0
  194.5120  171.6110  144.2620 C   0  0  1  0  0  3  0  0  0  0  0  0
  193.4040  170.5610  144.1100 C   0  0  1  0  0  3  0  0  0  0  0  0
  194.8200  172.4120  143.0020 C   0  0  0  0  0  1  0  0  0  0  0  0
  193.0980  171.9150  144.7160 C   0  0  0  0  0  2  0  0  0  0  0  0
  1 17  1  0  0  0  0
  1  8  1  1  0  0  0
  2  3  2  0  0  0  0
  4 15  1  6  0  0  0
  4 17  1  0  0  0  0
  4  5  1  0  0  0  0
  5 18  2  0  0  0  0
  6 16  1  0  0  0  0
  7  2  1  0  0  0  0
  8  7  1  0  0  0  0
  8 13  1  0  0  0  0
  9 13  1  0  0  0  0
  9 14  1  1  0  0  0
 10  6  1  0  0  0  0
 11  5  1  0  0  0  0
 11 10  1  0  0  0  0
 12  3  1  0  0  0  0
 13 12  2  0  0  0  0
 17  9  1  0  0  0  0
 18  6  1  0  0  0  0
 18 14  1  0  0  0  0
 19 24  1  0  0  0  0
 20 22  1  0  0  0  0
 21 23  2  0  0  0  0
 22 24  1  0  0  0  0
 22  1  1  0  0  0  0
 23 20  1  0  0  0  0
 23 19  1  0  0  0  0
 25 27  1  0  0  0  0
 25 26  1  0  0  0  0
 27 19  1  0  0  0  0
 27 26  1  0  0  0  0
 28 26  1  0  0  0  0
 28 30  1  0  0  0  0
 29 32  1  0  0  0  0
 30 29  1  0  0  0  0
 30 32  1  0  0  0  0
 31 29  1  0  0  0  0
M  END
>  <MODEL>
9

>  <REMARK>
 VINA RESULT:      -7.1      2.765      7.631
  Name = 
  4 active torsions:
  status: ('A' for Active; 'I' for Inactive)
    1  A    between atoms: C_3  and  C_14
    2  A    between atoms: C_8  and  C_23
    3  A    between atoms: C_10  and  C_24
    4  A    between atoms: N_19  and  C_24
                            x       y       z     vdW  Elec       q    Type
                         _______ _______ _______ _____ _____    ______ ____

>  <TORSDO>
F 4

$$$$
