=
 OpenBabel11052419043D

 32 36  0  0  1  0  0  0  0  0999 V2000
  186.5830  177.6890  145.8570 C   0  0  1  0  0  3  0  0  0  0  0  0
  186.6760  177.4430  143.3460 C   0  0  0  0  0  0  0  0  0  0  0  0
  185.9110  178.6100  146.8760 C   0  0  0  0  0  2  0  0  0  0  0  0
  185.9610  177.8390  144.4860 C   0  0  0  0  0  0  0  0  0  0  0  0
  186.0780  177.5190  142.0740 C   0  0  0  0  0  0  0  0  0  0  0  0
  189.8940  174.4620  141.8260 C   0  0  0  0  0  2  0  0  0  0  0  0
  188.0600  176.8850  143.5370 C   0  0  2  0  0  3  0  0  0  0  0  0
  187.4410  174.8900  141.4030 C   0  0  0  0  0  2  0  0  0  0  0  0
  187.9800  176.2320  141.1210 N   0  0  1  0  0  0  0  0  0  0  0  0
  184.6400  178.3010  144.3600 C   0  0  0  0  0  0  0  0  0  0  0  0
  186.8750  177.1550  140.8420 C   0  0  0  0  0  2  0  0  0  0  0  0
  184.0530  178.3960  143.0980 C   0  0  0  0  0  3  0  0  0  0  0  0
  183.9190  178.6860  145.4960 O   0  0  0  0  0  0  0  0  0  0  0  0
  188.8180  177.7830  144.5150 C   0  0  0  0  0  2  0  0  0  0  0  0
  188.1070  177.9130  145.8740 C   0  0  2  0  0  3  0  0  0  0  0  0
  188.8280  176.7530  142.2130 C   0  0  2  0  0  3  0  0  0  0  0  0
  184.7650  178.0180  141.9540 C   0  0  0  0  0  0  0  0  0  0  0  0
  184.3970  178.4200  146.8150 C   0  0  0  0  0  2  0  0  0  0  0  0
  188.4740  173.9620  142.0590 C   0  0  0  0  0  2  0  0  0  0  0  0
  190.0720  175.8690  142.4030 C   0  0  0  0  0  2  0  0  0  0  0  0
  184.0840  178.1190  140.6280 C   0  0  0  0  0  2  0  0  0  0  0  0
  182.7030  178.0360  140.7990 O   0  0  0  0  0  1  0  0  0  0  0  0
  188.7570  176.9970  146.9010 C   0  0  0  0  0  2  0  0  0  0  0  0
  188.3380  175.5550  146.6620 C   0  0  0  0  0  2  0  0  0  0  0  0
  189.4830  174.6220  147.0200 C   0  0  0  0  0  2  0  0  0  0  0  0
  189.7220  173.1480  145.1730 O   0  0  0  0  0  0  0  0  0  0  0  0
  191.3620  174.7920  145.2950 N   0  0  0  0  0  2  0  0  0  0  0  0
  190.1790  174.1460  145.7890 C   0  0  0  0  0  0  0  0  0  0  0  0
  191.9720  176.0060  145.8390 C   0  0  1  0  0  3  0  0  0  0  0  0
  193.0670  175.6600  146.8300 C   0  0  0  0  0  1  0  0  0  0  0  0
  192.5090  176.9130  144.7420 C   0  0  0  0  0  2  0  0  0  0  0  0
  193.8360  176.5850  144.4590 O   0  0  0  0  0  1  0  0  0  0  0  0
  1 15  1  0  0  0  0
  1  3  1  1  0  0  0
  2  7  1  0  0  0  0
  2  4  1  0  0  0  0
  4  1  1  0  0  0  0
  5  2  2  0  0  0  0
  6 19  1  0  0  0  0
  6 20  1  0  0  0  0
  7 14  1  1  0  0  0
  8 19  1  0  0  0  0
  9 11  1  1  0  0  0
  9  8  1  0  0  0  0
  9 16  1  0  0  0  0
 10  4  2  0  0  0  0
 10 13  1  0  0  0  0
 11  5  1  0  0  0  0
 12 10  1  0  0  0  0
 13 18  1  0  0  0  0
 14 15  1  0  0  0  0
 15 23  1  1  0  0  0
 16 20  1  1  0  0  0
 16  7  1  0  0  0  0
 17  5  1  0  0  0  0
 17 12  2  0  0  0  0
 18  3  1  0  0  0  0
 21 22  1  0  0  0  0
 21 17  1  0  0  0  0
 24 23  1  0  0  0  0
 24 25  1  0  0  0  0
 26 28  2  0  0  0  0
 27 28  1  0  0  0  0
 27 29  1  0  0  0  0
 28 25  1  0  0  0  0
 29 30  1  1  0  0  0
 31 29  1  0  0  0  0
 32 31  1  0  0  0  0
M  END
>  <MODEL>
1

>  <REMARK>
 VINA RESULT:      -8.2      0.000      0.000
  Name = 
  7 active torsions:
  status: ('A' for Active; 'I' for Inactive)
    1  A    between atoms: CA_3  and  N_19
    2  A    between atoms: CA_3  and  C_22
    3  A    between atoms: C_13  and  C_29
    4  A    between atoms: C_15  and  C_20
    5  A    between atoms: C_15  and  C_26
    6  A    between atoms: C_16  and  C_20
    7  A    between atoms: C_16  and  C_27
                            x       y       z     vdW  Elec       q    Type
                         _______ _______ _______ _____ _____    ______ ____

>  <TORSDO>
F 7

$$$$
=
 OpenBabel11052419043D

 32 36  0  0  1  0  0  0  0  0999 V2000
  186.5350  177.3610  145.8910 C   0  0  1  0  0  3  0  0  0  0  0  0
  186.7940  177.2240  143.3830 C   0  0  0  0  0  0  0  0  0  0  0  0
  185.8550  178.2800  146.9060 C   0  0  0  0  0  2  0  0  0  0  0  0
  186.0270  177.6180  144.4890 C   0  0  0  0  0  0  0  0  0  0  0  0
  186.2970  177.4010  142.0780 C   0  0  0  0  0  0  0  0  0  0  0  0
  189.9020  174.0920  141.9420 C   0  0  0  0  0  2  0  0  0  0  0  0
  188.1190  176.5600  143.6410 C   0  0  2  0  0  3  0  0  0  0  0  0
  187.5220  174.7140  141.3720 C   0  0  0  0  0  2  0  0  0  0  0  0
  188.1710  176.0250  141.1960 N   0  0  1  0  0  0  0  0  0  0  0  0
  184.7540  178.1790  144.2950 C   0  0  0  0  0  0  0  0  0  0  0  0
  187.1550  177.0370  140.8880 C   0  0  0  0  0  2  0  0  0  0  0  0
  184.2680  178.3740  143.0020 C   0  0  0  0  0  3  0  0  0  0  0  0
  183.9790  178.5630  145.3960 O   0  0  0  0  0  0  0  0  0  0  0  0
  188.8630  177.3550  144.7140 C   0  0  0  0  0  2  0  0  0  0  0  0
  188.0660  177.4740  146.0250 C   0  0  2  0  0  3  0  0  0  0  0  0
  188.9710  176.4330  142.3690 C   0  0  2  0  0  3  0  0  0  0  0  0
  185.0340  177.9990  141.8920 C   0  0  0  0  0  0  0  0  0  0  0  0
  184.3410  178.2040  146.7310 C   0  0  0  0  0  2  0  0  0  0  0  0
  188.4380  173.6850  142.0490 C   0  0  0  0  0  2  0  0  0  0  0  0
  190.1340  175.4540  142.6000 C   0  0  0  0  0  2  0  0  0  0  0  0
  184.4600  178.2080  140.5290 C   0  0  0  0  0  2  0  0  0  0  0  0
  183.0670  178.1950  140.5960 O   0  0  0  0  0  1  0  0  0  0  0  0
  188.5740  176.4670  147.0470 C   0  0  0  0  0  2  0  0  0  0  0  0
  189.7670  175.7070  146.4920 C   0  0  0  0  0  2  0  0  0  0  0  0
  190.7310  175.3710  147.6170 C   0  0  0  0  0  2  0  0  0  0  0  0
  191.4180  177.3180  148.7910 O   0  0  0  0  0  0  0  0  0  0  0  0
  192.8490  176.6930  147.0680 N   0  0  0  0  0  2  0  0  0  0  0  0
  191.6700  176.5040  147.8650 C   0  0  0  0  0  0  0  0  0  0  0  0
  193.3300  175.7980  146.0140 C   0  0  1  0  0  3  0  0  0  0  0  0
  193.0130  176.3620  144.6430 C   0  0  0  0  0  1  0  0  0  0  0  0
  194.8190  175.5140  146.1460 C   0  0  0  0  0  2  0  0  0  0  0  0
  195.4720  175.8340  144.9560 O   0  0  0  0  0  1  0  0  0  0  0  0
  1 15  1  0  0  0  0
  1  3  1  1  0  0  0
  2  7  1  0  0  0  0
  2  4  1  0  0  0  0
  4  1  1  0  0  0  0
  5  2  2  0  0  0  0
  6 19  1  0  0  0  0
  6 20  1  0  0  0  0
  7 14  1  1  0  0  0
  8 19  1  0  0  0  0
  9 11  1  1  0  0  0
  9  8  1  0  0  0  0
  9 16  1  0  0  0  0
 10  4  2  0  0  0  0
 10 13  1  0  0  0  0
 11  5  1  0  0  0  0
 12 10  1  0  0  0  0
 13 18  1  0  0  0  0
 14 15  1  0  0  0  0
 15 23  1  1  0  0  0
 16 20  1  1  0  0  0
 16  7  1  0  0  0  0
 17  5  1  0  0  0  0
 17 12  2  0  0  0  0
 18  3  1  0  0  0  0
 21 22  1  0  0  0  0
 21 17  1  0  0  0  0
 24 23  1  0  0  0  0
 24 25  1  0  0  0  0
 25 28  1  0  0  0  0
 27 28  1  0  0  0  0
 28 26  2  0  0  0  0
 29 30  1  6  0  0  0
 29 31  1  0  0  0  0
 29 27  1  0  0  0  0
 32 31  1  0  0  0  0
M  END
>  <MODEL>
2

>  <REMARK>
 VINA RESULT:      -8.0      1.340      1.597
  Name = 
  7 active torsions:
  status: ('A' for Active; 'I' for Inactive)
    1  A    between atoms: CA_3  and  N_19
    2  A    between atoms: CA_3  and  C_22
    3  A    between atoms: C_13  and  C_29
    4  A    between atoms: C_15  and  C_20
    5  A    between atoms: C_15  and  C_26
    6  A    between atoms: C_16  and  C_20
    7  A    between atoms: C_16  and  C_27
                            x       y       z     vdW  Elec       q    Type
                         _______ _______ _______ _____ _____    ______ ____

>  <TORSDO>
F 7

$$$$
=
 OpenBabel11052419043D

 32 36  0  0  1  0  0  0  0  0999 V2000
  188.2460  176.3100  141.9650 C   0  0  1  0  0  3  0  0  0  0  0  0
  187.7030  176.6780  144.4040 C   0  0  0  0  0  0  0  0  0  0  0  0
  187.5040  176.3300  140.6290 C   0  0  0  0  0  2  0  0  0  0  0  0
  187.4300  176.9660  143.0580 C   0  0  0  0  0  0  0  0  0  0  0  0
  186.9910  177.3350  145.4260 C   0  0  0  0  0  0  0  0  0  0  0  0
  191.0950  175.4660  147.3320 C   0  0  0  0  0  2  0  0  0  0  0  0
  188.8080  175.7050  144.7100 C   0  0  2  0  0  3  0  0  0  0  0  0
  189.5880  177.4650  146.9930 C   0  0  0  0  0  2  0  0  0  0  0  0
  188.5720  176.4030  147.1030 N   0  0  1  0  0  0  0  0  0  0  0  0
  186.4530  177.9200  142.7290 C   0  0  0  0  0  0  0  0  0  0  0  0
  187.2410  176.9730  146.8720 C   0  0  0  0  0  2  0  0  0  0  0  0
  185.7320  178.5560  143.7400 C   0  0  0  0  0  3  0  0  0  0  0  0
  186.1860  178.2190  141.3870 O   0  0  0  0  0  0  0  0  0  0  0  0
  188.6600  174.4930  143.7910 C   0  0  0  0  0  2  0  0  0  0  0  0
  188.6860  174.8720  142.2990 C   0  0  2  0  0  3  0  0  0  0  0  0
  188.8190  175.2730  146.1840 C   0  0  2  0  0  3  0  0  0  0  0  0
  185.9860  178.2640  145.0840 C   0  0  0  0  0  0  0  0  0  0  0  0
  187.0250  177.7490  140.3320 C   0  0  0  0  0  2  0  0  0  0  0  0
  191.0130  176.9100  146.8520 C   0  0  0  0  0  2  0  0  0  0  0  0
  190.1460  174.5750  146.5260 C   0  0  0  0  0  2  0  0  0  0  0  0
  185.2030  178.9880  146.1290 C   0  0  0  0  0  2  0  0  0  0  0  0
  183.8420  178.7360  145.9580 O   0  0  0  0  0  1  0  0  0  0  0  0
  190.0600  174.5970  141.7070 C   0  0  0  0  0  2  0  0  0  0  0  0
  191.1050  174.5220  142.8080 C   0  0  0  0  0  2  0  0  0  0  0  0
  192.2890  175.4050  142.4540 C   0  0  0  0  0  2  0  0  0  0  0  0
  191.4100  177.5020  143.1410 O   0  0  0  0  0  0  0  0  0  0  0  0
  193.3210  176.8480  144.2950 N   0  0  0  0  0  2  0  0  0  0  0  0
  192.3050  176.6320  143.3030 C   0  0  0  0  0  0  0  0  0  0  0  0
  194.3770  175.9050  144.6660 C   0  0  1  0  0  3  0  0  0  0  0  0
  195.6590  176.2130  143.9170 C   0  0  0  0  0  1  0  0  0  0  0  0
  194.6230  175.8910  146.1680 C   0  0  0  0  0  2  0  0  0  0  0  0
  194.4610  177.1750  146.6900 O   0  0  0  0  0  1  0  0  0  0  0  0
  1  3  1  6  0  0  0
  1 15  1  0  0  0  0
  1  4  1  0  0  0  0
  2  7  1  0  0  0  0
  2  5  1  0  0  0  0
  4  2  2  0  0  0  0
  5 11  1  0  0  0  0
  7 14  1  6  0  0  0
  7 16  1  0  0  0  0
  8  9  1  0  0  0  0
  9 11  1  6  0  0  0
 10  4  1  0  0  0  0
 10 12  2  0  0  0  0
 12 17  1  0  0  0  0
 13 10  1  0  0  0  0
 15 23  1  1  0  0  0
 15 14  1  0  0  0  0
 16 20  1  1  0  0  0
 16  9  1  0  0  0  0
 17  5  2  0  0  0  0
 17 21  1  0  0  0  0
 18  3  1  0  0  0  0
 18 13  1  0  0  0  0
 19  8  1  0  0  0  0
 19  6  1  0  0  0  0
 20  6  1  0  0  0  0
 22 21  1  0  0  0  0
 23 24  1  0  0  0  0
 25 24  1  0  0  0  0
 25 28  1  0  0  0  0
 26 28  2  0  0  0  0
 27 29  1  0  0  0  0
 28 27  1  0  0  0  0
 29 30  1  6  0  0  0
 29 31  1  0  0  0  0
 31 32  1  0  0  0  0
M  END
>  <MODEL>
3

>  <REMARK>
 VINA RESULT:      -7.5      2.048      4.591
  Name = 
  7 active torsions:
  status: ('A' for Active; 'I' for Inactive)
    1  A    between atoms: CA_3  and  N_19
    2  A    between atoms: CA_3  and  C_22
    3  A    between atoms: C_13  and  C_29
    4  A    between atoms: C_15  and  C_20
    5  A    between atoms: C_15  and  C_26
    6  A    between atoms: C_16  and  C_20
    7  A    between atoms: C_16  and  C_27
                            x       y       z     vdW  Elec       q    Type
                         _______ _______ _______ _____ _____    ______ ____

>  <TORSDO>
F 7

$$$$
=
 OpenBabel11052419043D

 32 36  0  0  1  0  0  0  0  0999 V2000
  188.3330  176.2590  142.1400 C   0  0  1  0  0  3  0  0  0  0  0  0
  187.5660  176.4050  144.5420 C   0  0  0  0  0  0  0  0  0  0  0  0
  187.6920  176.1650  140.7550 C   0  0  0  0  0  2  0  0  0  0  0  0
  187.3230  176.6760  143.1880 C   0  0  0  0  0  0  0  0  0  0  0  0
  186.6620  176.8480  145.5260 C   0  0  0  0  0  0  0  0  0  0  0  0
  190.9490  175.8620  147.6740 C   0  0  0  0  0  2  0  0  0  0  0  0
  188.8400  175.6890  144.9030 C   0  0  2  0  0  3  0  0  0  0  0  0
  189.0600  177.4890  147.2750 C   0  0  0  0  0  2  0  0  0  0  0  0
  188.3010  176.2260  147.2890 N   0  0  1  0  0  0  0  0  0  0  0  0
  186.1810  177.4020  142.8120 C   0  0  0  0  0  0  0  0  0  0  0  0
  186.8940  176.4960  146.9780 C   0  0  0  0  0  2  0  0  0  0  0  0
  185.2730  177.8240  143.7840 C   0  0  0  0  0  3  0  0  0  0  0  0
  185.9390  177.6850  141.4620 O   0  0  0  0  0  0  0  0  0  0  0  0
  189.0240  174.5100  143.9480 C   0  0  0  0  0  2  0  0  0  0  0  0
  189.0600  174.9420  142.4710 C   0  0  2  0  0  3  0  0  0  0  0  0
  188.8520  175.2140  146.3640 C   0  0  2  0  0  3  0  0  0  0  0  0
  185.5000  177.5450  145.1360 C   0  0  0  0  0  0  0  0  0  0  0  0
  186.9280  177.4530  140.4580 C   0  0  0  0  0  2  0  0  0  0  0  0
  190.5780  177.2690  147.2230 C   0  0  0  0  0  2  0  0  0  0  0  0
  190.2770  174.8140  146.7830 C   0  0  0  0  0  2  0  0  0  0  0  0
  184.5100  178.0370  146.1390 C   0  0  0  0  0  2  0  0  0  0  0  0
  183.6330  178.9390  145.5350 O   0  0  0  0  0  1  0  0  0  0  0  0
  190.4960  175.0000  141.9710 C   0  0  0  0  0  2  0  0  0  0  0  0
  191.1790  173.6570  142.1670 C   0  0  0  0  0  2  0  0  0  0  0  0
  192.6160  173.8700  142.6100 C   0  0  0  0  0  2  0  0  0  0  0  0
  192.4510  172.6960  144.6690 O   0  0  0  0  0  0  0  0  0  0  0  0
  193.1400  174.9060  144.8880 N   0  0  0  0  0  2  0  0  0  0  0  0
  192.7290  173.7820  144.0960 C   0  0  0  0  0  0  0  0  0  0  0  0
  193.5770  176.2070  144.3780 C   0  0  1  0  0  3  0  0  0  0  0  0
  192.3990  177.1500  144.2300 C   0  0  0  0  0  1  0  0  0  0  0  0
  194.6550  176.8280  145.2540 C   0  0  0  0  0  2  0  0  0  0  0  0
  194.2110  176.9020  146.5750 O   0  0  0  0  0  1  0  0  0  0  0  0
  1  3  1  6  0  0  0
  1 15  1  0  0  0  0
  1  4  1  0  0  0  0
  2  7  1  0  0  0  0
  2  5  1  0  0  0  0
  4  2  2  0  0  0  0
  5 11  1  0  0  0  0
  7 14  1  6  0  0  0
  7 16  1  0  0  0  0
  8  9  1  0  0  0  0
  9 11  1  6  0  0  0
 10  4  1  0  0  0  0
 10 12  2  0  0  0  0
 12 17  1  0  0  0  0
 13 10  1  0  0  0  0
 15 23  1  1  0  0  0
 15 14  1  0  0  0  0
 16 20  1  1  0  0  0
 16  9  1  0  0  0  0
 17  5  2  0  0  0  0
 17 21  1  0  0  0  0
 18  3  1  0  0  0  0
 18 13  1  0  0  0  0
 19  8  1  0  0  0  0
 19  6  1  0  0  0  0
 20  6  1  0  0  0  0
 22 21  1  0  0  0  0
 23 24  1  0  0  0  0
 24 25  1  0  0  0  0
 25 28  1  0  0  0  0
 28 26  2  0  0  0  0
 28 27  1  0  0  0  0
 29 30  1  1  0  0  0
 29 27  1  0  0  0  0
 29 31  1  0  0  0  0
 31 32  1  0  0  0  0
M  END
>  <MODEL>
4

>  <REMARK>
 VINA RESULT:      -7.3      1.874      4.480
  Name = 
  7 active torsions:
  status: ('A' for Active; 'I' for Inactive)
    1  A    between atoms: CA_3  and  N_19
    2  A    between atoms: CA_3  and  C_22
    3  A    between atoms: C_13  and  C_29
    4  A    between atoms: C_15  and  C_20
    5  A    between atoms: C_15  and  C_26
    6  A    between atoms: C_16  and  C_20
    7  A    between atoms: C_16  and  C_27
                            x       y       z     vdW  Elec       q    Type
                         _______ _______ _______ _____ _____    ______ ____

>  <TORSDO>
F 7

$$$$
=
 OpenBabel11052419043D

 32 36  0  0  1  0  0  0  0  0999 V2000
  188.4600  176.0880  142.2190 C   0  0  1  0  0  3  0  0  0  0  0  0
  187.6420  176.3080  144.5980 C   0  0  0  0  0  0  0  0  0  0  0  0
  187.8510  175.9100  140.8290 C   0  0  0  0  0  2  0  0  0  0  0  0
  187.4150  176.5110  143.2290 C   0  0  0  0  0  0  0  0  0  0  0  0
  186.7030  176.7590  145.5450 C   0  0  0  0  0  0  0  0  0  0  0  0
  190.9800  176.0300  147.8120 C   0  0  0  0  0  2  0  0  0  0  0  0
  188.9330  175.6580  145.0130 C   0  0  2  0  0  3  0  0  0  0  0  0
  189.0400  177.5660  147.3070 C   0  0  0  0  0  2  0  0  0  0  0  0
  188.3280  176.2770  147.3630 N   0  0  1  0  0  0  0  0  0  0  0  0
  186.2540  177.1770  142.8010 C   0  0  0  0  0  0  0  0  0  0  0  0
  186.9180  176.4790  147.0150 C   0  0  0  0  0  2  0  0  0  0  0  0
  185.3130  177.6050  143.7370 C   0  0  0  0  0  3  0  0  0  0  0  0
  186.0290  177.3920  141.4360 O   0  0  0  0  0  0  0  0  0  0  0  0
  189.1810  174.4460  144.1150 C   0  0  0  0  0  2  0  0  0  0  0  0
  189.2300  174.8150  142.6210 C   0  0  2  0  0  3  0  0  0  0  0  0
  188.9350  175.2480  146.4940 C   0  0  2  0  0  3  0  0  0  0  0  0
  185.5230  177.3940  145.1040 C   0  0  0  0  0  0  0  0  0  0  0  0
  187.0460  177.1540  140.4610 C   0  0  0  0  0  2  0  0  0  0  0  0
  190.5660  177.4020  147.2930 C   0  0  0  0  0  2  0  0  0  0  0  0
  190.3650  174.9200  146.9550 C   0  0  0  0  0  2  0  0  0  0  0  0
  184.4960  177.8910  146.0670 C   0  0  0  0  0  2  0  0  0  0  0  0
  183.8070  178.9670  145.5070 O   0  0  0  0  0  1  0  0  0  0  0  0
  190.6720  174.9060  142.1450 C   0  0  0  0  0  2  0  0  0  0  0  0
  191.3180  176.1810  142.6600 C   0  0  0  0  0  2  0  0  0  0  0  0
  192.8310  176.0630  142.5700 C   0  0  0  0  0  2  0  0  0  0  0  0
  192.7300  176.6640  144.8660 O   0  0  0  0  0  0  0  0  0  0  0  0
  194.8840  176.2740  144.0790 N   0  0  0  0  0  2  0  0  0  0  0  0
  193.4620  176.3460  143.8920 C   0  0  0  0  0  0  0  0  0  0  0  0
  195.8630  175.8420  143.0810 C   0  0  1  0  0  3  0  0  0  0  0  0
  197.0710  176.7590  143.0810 C   0  0  0  0  0  1  0  0  0  0  0  0
  196.2870  174.3960  143.2900 C   0  0  0  0  0  2  0  0  0  0  0  0
  195.6050  173.5660  142.4000 O   0  0  0  0  0  1  0  0  0  0  0  0
  1  3  1  6  0  0  0
  1 15  1  0  0  0  0
  1  4  1  0  0  0  0
  2  7  1  0  0  0  0
  2  5  1  0  0  0  0
  4  2  2  0  0  0  0
  5 11  1  0  0  0  0
  7 14  1  6  0  0  0
  7 16  1  0  0  0  0
  8  9  1  0  0  0  0
  9 11  1  6  0  0  0
 10  4  1  0  0  0  0
 10 12  2  0  0  0  0
 12 17  1  0  0  0  0
 13 10  1  0  0  0  0
 15 23  1  1  0  0  0
 15 14  1  0  0  0  0
 16 20  1  1  0  0  0
 16  9  1  0  0  0  0
 17  5  2  0  0  0  0
 17 21  1  0  0  0  0
 18  3  1  0  0  0  0
 18 13  1  0  0  0  0
 19  8  1  0  0  0  0
 19  6  1  0  0  0  0
 20  6  1  0  0  0  0
 22 21  1  0  0  0  0
 23 24  1  0  0  0  0
 25 24  1  0  0  0  0
 25 28  1  0  0  0  0
 28 27  1  0  0  0  0
 28 26  2  0  0  0  0
 29 30  1  1  0  0  0
 29 31  1  0  0  0  0
 29 27  1  0  0  0  0
 32 31  1  0  0  0  0
M  END
>  <MODEL>
5

>  <REMARK>
 VINA RESULT:      -6.8      2.260      4.869
  Name = 
  7 active torsions:
  status: ('A' for Active; 'I' for Inactive)
    1  A    between atoms: CA_3  and  N_19
    2  A    between atoms: CA_3  and  C_22
    3  A    between atoms: C_13  and  C_29
    4  A    between atoms: C_15  and  C_20
    5  A    between atoms: C_15  and  C_26
    6  A    between atoms: C_16  and  C_20
    7  A    between atoms: C_16  and  C_27
                            x       y       z     vdW  Elec       q    Type
                         _______ _______ _______ _____ _____    ______ ____

>  <TORSDO>
F 7

$$$$
=
 OpenBabel11052419043D

 32 36  0  0  1  0  0  0  0  0999 V2000
  188.8970  175.3100  144.5120 C   0  0  1  0  0  3  0  0  0  0  0  0
  187.4180  177.3560  144.5730 C   0  0  0  0  0  0  0  0  0  0  0  0
  189.9500  174.6520  145.4050 C   0  0  0  0  0  2  0  0  0  0  0  0
  188.1040  176.3510  145.2710 C   0  0  0  0  0  0  0  0  0  0  0  0
  186.6250  178.2870  145.2700 C   0  0  0  0  0  0  0  0  0  0  0  0
  185.2670  178.2910  140.5660 C   0  0  0  0  0  2  0  0  0  0  0  0
  187.5090  177.3620  143.0710 C   0  0  2  0  0  3  0  0  0  0  0  0
  184.6180  178.1040  143.0000 C   0  0  0  0  0  2  0  0  0  0  0  0
  185.7020  179.0950  143.1080 N   0  0  1  0  0  0  0  0  0  0  0  0
  187.9910  176.2670  146.6690 C   0  0  0  0  0  0  0  0  0  0  0  0
  185.9420  179.4080  144.5200 C   0  0  0  0  0  2  0  0  0  0  0  0
  187.2230  177.2020  147.3630 C   0  0  0  0  0  3  0  0  0  0  0  0
  188.6640  175.2590  147.3700 O   0  0  0  0  0  0  0  0  0  0  0  0
  188.9690  177.1560  142.6690 C   0  0  0  0  0  2  0  0  0  0  0  0
  189.5600  175.8500  143.2300 C   0  0  2  0  0  3  0  0  0  0  0  0
  186.9510  178.6540  142.4540 C   0  0  2  0  0  3  0  0  0  0  0  0
  186.5470  178.2160  146.6760 C   0  0  0  0  0  0  0  0  0  0  0  0
  189.2940  174.1680  146.6960 C   0  0  0  0  0  2  0  0  0  0  0  0
  184.5470  177.4490  141.6130 C   0  0  0  0  0  2  0  0  0  0  0  0
  186.7400  178.4750  140.9410 C   0  0  0  0  0  2  0  0  0  0  0  0
  185.7210  179.1790  147.4630 C   0  0  0  0  0  2  0  0  0  0  0  0
  184.4360  178.6650  147.6380 O   0  0  0  0  0  1  0  0  0  0  0  0
  189.5750  174.7710  142.1570 C   0  0  0  0  0  2  0  0  0  0  0  0
  190.9880  174.5570  141.6430 C   0  0  0  0  0  2  0  0  0  0  0  0
  191.9690  175.3460  142.4930 C   0  0  0  0  0  2  0  0  0  0  0  0
  193.0320  173.2480  142.8330 O   0  0  0  0  0  0  0  0  0  0  0  0
  193.5600  174.8520  144.4330 N   0  0  0  0  0  2  0  0  0  0  0  0
  192.8730  174.4270  143.2460 C   0  0  0  0  0  0  0  0  0  0  0  0
  193.5520  176.2030  144.9960 C   0  0  1  0  0  3  0  0  0  0  0  0
  192.9530  176.2010  146.3890 C   0  0  0  0  0  1  0  0  0  0  0  0
  194.9430  176.8200  145.0110 C   0  0  0  0  0  2  0  0  0  0  0  0
  195.7220  176.2610  143.9970 O   0  0  0  0  0  1  0  0  0  0  0  0
  1  4  1  0  0  0  0
  1  3  1  1  0  0  0
  2  5  2  0  0  0  0
  2  4  1  0  0  0  0
  3 18  1  0  0  0  0
  4 10  2  0  0  0  0
  5 17  1  0  0  0  0
  6 20  1  0  0  0  0
  6 19  1  0  0  0  0
  7 14  1  1  0  0  0
  7  2  1  0  0  0  0
  9  8  1  1  0  0  0
  9 11  1  0  0  0  0
 10 12  1  0  0  0  0
 10 13  1  0  0  0  0
 11  5  1  0  0  0  0
 14 15  1  0  0  0  0
 15 23  1  6  0  0  0
 15  1  1  0  0  0  0
 16 20  1  6  0  0  0
 16  7  1  0  0  0  0
 16  9  1  0  0  0  0
 17 12  2  0  0  0  0
 17 21  1  0  0  0  0
 18 13  1  0  0  0  0
 19  8  1  0  0  0  0
 21 22  1  0  0  0  0
 24 23  1  0  0  0  0
 24 25  1  0  0  0  0
 25 28  1  0  0  0  0
 26 28  2  0  0  0  0
 27 29  1  0  0  0  0
 28 27  1  0  0  0  0
 29 31  1  0  0  0  0
 29 30  1  1  0  0  0
 32 31  1  0  0  0  0
M  END
>  <MODEL>
6

>  <REMARK>
 VINA RESULT:      -6.8      1.989      4.438
  Name = 
  7 active torsions:
  status: ('A' for Active; 'I' for Inactive)
    1  A    between atoms: CA_3  and  N_19
    2  A    between atoms: CA_3  and  C_22
    3  A    between atoms: C_13  and  C_29
    4  A    between atoms: C_15  and  C_20
    5  A    between atoms: C_15  and  C_26
    6  A    between atoms: C_16  and  C_20
    7  A    between atoms: C_16  and  C_27
                            x       y       z     vdW  Elec       q    Type
                         _______ _______ _______ _____ _____    ______ ____

>  <TORSDO>
F 7

$$$$
=
 OpenBabel11052419043D

 32 36  0  0  1  0  0  0  0  0999 V2000
  192.0140  175.7050  145.9300 C   0  0  1  0  0  3  0  0  0  0  0  0
  192.3570  173.4230  144.9050 C   0  0  0  0  0  0  0  0  0  0  0  0
  192.6170  176.5350  147.0640 C   0  0  0  0  0  2  0  0  0  0  0  0
  192.8980  174.5290  145.5780 C   0  0  0  0  0  0  0  0  0  0  0  0
  193.1880  172.3550  144.5170 C   0  0  0  0  0  0  0  0  0  0  0  0
  189.0580  172.1520  141.8970 C   0  0  0  0  0  2  0  0  0  0  0  0
  190.8920  173.4490  144.5640 C   0  0  2  0  0  3  0  0  0  0  0  0
  191.5820  172.1920  141.9460 C   0  0  0  0  0  2  0  0  0  0  0  0
  191.3220  171.4140  143.1700 N   0  0  1  0  0  0  0  0  0  0  0  0
  194.2740  174.5770  145.8550 C   0  0  0  0  0  0  0  0  0  0  0  0
  192.5900  171.1360  143.8530 C   0  0  0  0  0  2  0  0  0  0  0  0
  195.0960  173.5100  145.4900 C   0  0  0  0  0  3  0  0  0  0  0  0
  194.8210  175.6830  146.5160 O   0  0  0  0  0  0  0  0  0  0  0  0
  190.1140  173.9230  145.7910 C   0  0  0  0  0  2  0  0  0  0  0  0
  190.5680  175.3090  146.2840 C   0  0  2  0  0  3  0  0  0  0  0  0
  190.3760  172.0840  144.0860 C   0  0  2  0  0  3  0  0  0  0  0  0
  194.5620  172.3960  144.8320 C   0  0  0  0  0  0  0  0  0  0  0  0
  194.0670  176.8780  146.7300 C   0  0  0  0  0  2  0  0  0  0  0  0
  190.3130  172.8380  141.3720 C   0  0  0  0  0  2  0  0  0  0  0  0
  188.9960  172.2370  143.4250 C   0  0  0  0  0  2  0  0  0  0  0  0
  195.4870  171.2900  144.4430 C   0  0  0  0  0  2  0  0  0  0  0  0
  195.9050  170.6010  145.5810 O   0  0  0  0  0  1  0  0  0  0  0  0
  189.6020  176.3840  145.8050 C   0  0  0  0  0  2  0  0  0  0  0  0
  188.2030  176.1080  146.3300 C   0  0  0  0  0  2  0  0  0  0  0  0
  187.3190  177.3220  146.1000 C   0  0  0  0  0  2  0  0  0  0  0  0
  185.0120  176.7810  146.2630 O   0  0  0  0  0  0  0  0  0  0  0  0
  185.8630  176.6730  144.1010 N   0  0  0  0  0  2  0  0  0  0  0  0
  186.0100  176.9180  145.5080 C   0  0  0  0  0  0  0  0  0  0  0  0
  186.8940  176.8670  143.0800 C   0  0  1  0  0  3  0  0  0  0  0  0
  187.2870  175.5420  142.4550 C   0  0  0  0  0  1  0  0  0  0  0  0
  186.4570  177.8560  142.0110 C   0  0  0  0  0  2  0  0  0  0  0  0
  185.7030  178.8800  142.5890 O   0  0  0  0  0  1  0  0  0  0  0  0
  1 15  1  0  0  0  0
  1  3  1  1  0  0  0
  2  4  1  0  0  0  0
  4 10  2  0  0  0  0
  4  1  1  0  0  0  0
  5 17  1  0  0  0  0
  5  2  2  0  0  0  0
  6 20  1  0  0  0  0
  7  2  1  0  0  0  0
  7 14  1  1  0  0  0
  9  8  1  6  0  0  0
  9 11  1  0  0  0  0
  9 16  1  0  0  0  0
 10 13  1  0  0  0  0
 11  5  1  0  0  0  0
 12 10  1  0  0  0  0
 13 18  1  0  0  0  0
 14 15  1  0  0  0  0
 15 23  1  6  0  0  0
 16 20  1  6  0  0  0
 16  7  1  0  0  0  0
 17 12  2  0  0  0  0
 18  3  1  0  0  0  0
 19  6  1  0  0  0  0
 19  8  1  0  0  0  0
 21 17  1  0  0  0  0
 21 22  1  0  0  0  0
 23 24  1  0  0  0  0
 25 24  1  0  0  0  0
 27 28  1  0  0  0  0
 28 25  1  0  0  0  0
 28 26  2  0  0  0  0
 29 30  1  6  0  0  0
 29 27  1  0  0  0  0
 31 32  1  0  0  0  0
 31 29  1  0  0  0  0
M  END
>  <MODEL>
7

>  <REMARK>
 VINA RESULT:      -6.7      2.731      7.723
  Name = 
  7 active torsions:
  status: ('A' for Active; 'I' for Inactive)
    1  A    between atoms: CA_3  and  N_19
    2  A    between atoms: CA_3  and  C_22
    3  A    between atoms: C_13  and  C_29
    4  A    between atoms: C_15  and  C_20
    5  A    between atoms: C_15  and  C_26
    6  A    between atoms: C_16  and  C_20
    7  A    between atoms: C_16  and  C_27
                            x       y       z     vdW  Elec       q    Type
                         _______ _______ _______ _____ _____    ______ ____

>  <TORSDO>
F 7

$$$$
=
 OpenBabel11052419043D

 32 36  0  0  1  0  0  0  0  0999 V2000
  191.2640  176.3770  145.0550 C   0  0  1  0  0  3  0  0  0  0  0  0
  188.8550  177.1150  144.8870 C   0  0  0  0  0  0  0  0  0  0  0  0
  192.3490  176.3040  146.1300 C   0  0  0  0  0  2  0  0  0  0  0  0
  189.8960  176.5910  145.6670 C   0  0  0  0  0  0  0  0  0  0  0  0
  187.5640  177.2550  145.4320 C   0  0  0  0  0  0  0  0  0  0  0  0
  187.2170  177.3550  140.5500 C   0  0  0  0  0  2  0  0  0  0  0  0
  189.1480  177.4580  143.4520 C   0  0  2  0  0  3  0  0  0  0  0  0
  186.4590  176.3670  142.7480 C   0  0  0  0  0  2  0  0  0  0  0  0
  186.6790  177.7630  143.1660 N   0  0  1  0  0  0  0  0  0  0  0  0
  189.6490  176.1940  146.9920 C   0  0  0  0  0  0  0  0  0  0  0  0
  186.4610  177.8820  144.6110 C   0  0  0  0  0  2  0  0  0  0  0  0
  188.3760  176.3510  147.5400 C   0  0  0  0  0  3  0  0  0  0  0  0
  190.6830  175.6590  147.7700 O   0  0  0  0  0  0  0  0  0  0  0  0
  190.4690  178.2250  143.3930 C   0  0  0  0  0  2  0  0  0  0  0  0
  191.6420  177.4340  143.9990 C   0  0  2  0  0  3  0  0  0  0  0  0
  188.0180  178.2680  142.7990 C   0  0  2  0  0  3  0  0  0  0  0  0
  187.3350  176.8870  146.7750 C   0  0  0  0  0  0  0  0  0  0  0  0
  191.9410  175.2950  147.2000 C   0  0  0  0  0  2  0  0  0  0  0  0
  187.0150  176.0720  141.3470 C   0  0  0  0  0  2  0  0  0  0  0  0
  188.1910  178.2900  141.2710 C   0  0  0  0  0  2  0  0  0  0  0  0
  185.9850  177.0150  147.4010 C   0  0  0  0  0  2  0  0  0  0  0  0
  185.8640  178.2630  148.0110 O   0  0  0  0  0  1  0  0  0  0  0  0
  192.4750  176.7940  142.8980 C   0  0  0  0  0  2  0  0  0  0  0  0
  192.0060  175.3720  142.6400 C   0  0  0  0  0  2  0  0  0  0  0  0
  193.2070  174.4600  142.4590 C   0  0  0  0  0  2  0  0  0  0  0  0
  192.8820  173.0820  144.3670 O   0  0  0  0  0  0  0  0  0  0  0  0
  194.8950  174.2480  144.3680 N   0  0  0  0  0  2  0  0  0  0  0  0
  193.6400  173.8910  143.7690 C   0  0  0  0  0  0  0  0  0  0  0  0
  195.9230  175.1010  143.7710 C   0  0  1  0  0  3  0  0  0  0  0  0
  195.7890  176.5290  144.2630 C   0  0  0  0  0  1  0  0  0  0  0  0
  197.3250  174.5720  144.0350 C   0  0  0  0  0  2  0  0  0  0  0  0
  197.4340  174.1560  145.3630 O   0  0  0  0  0  1  0  0  0  0  0  0
  1  4  1  0  0  0  0
  1  3  1  1  0  0  0
  2  5  2  0  0  0  0
  2  4  1  0  0  0  0
  3 18  1  0  0  0  0
  4 10  2  0  0  0  0
  5 17  1  0  0  0  0
  6 20  1  0  0  0  0
  6 19  1  0  0  0  0
  7 14  1  1  0  0  0
  7  2  1  0  0  0  0
  9  8  1  1  0  0  0
  9 11  1  0  0  0  0
 10 12  1  0  0  0  0
 10 13  1  0  0  0  0
 11  5  1  0  0  0  0
 14 15  1  0  0  0  0
 15 23  1  6  0  0  0
 15  1  1  0  0  0  0
 16 20  1  6  0  0  0
 16  9  1  0  0  0  0
 16  7  1  0  0  0  0
 17 21  1  0  0  0  0
 17 12  2  0  0  0  0
 18 13  1  0  0  0  0
 19  8  1  0  0  0  0
 21 22  1  0  0  0  0
 24 23  1  0  0  0  0
 25 24  1  0  0  0  0
 25 28  1  0  0  0  0
 28 26  2  0  0  0  0
 28 27  1  0  0  0  0
 29 31  1  0  0  0  0
 29 30  1  1  0  0  0
 29 27  1  0  0  0  0
 31 32  1  0  0  0  0
M  END
>  <MODEL>
8

>  <REMARK>
 VINA RESULT:      -6.7      2.484      4.899
  Name = 
  7 active torsions:
  status: ('A' for Active; 'I' for Inactive)
    1  A    between atoms: CA_3  and  N_19
    2  A    between atoms: CA_3  and  C_22
    3  A    between atoms: C_13  and  C_29
    4  A    between atoms: C_15  and  C_20
    5  A    between atoms: C_15  and  C_26
    6  A    between atoms: C_16  and  C_20
    7  A    between atoms: C_16  and  C_27
                            x       y       z     vdW  Elec       q    Type
                         _______ _______ _______ _____ _____    ______ ____

>  <TORSDO>
F 7

$$$$
=
 OpenBabel11052419043D

 32 36  0  0  1  0  0  0  0  0999 V2000
  189.4370  176.2390  143.2090 C   0  0  1  0  0  3  0  0  0  0  0  0
  191.4130  174.7980  142.5780 C   0  0  0  0  0  0  0  0  0  0  0  0
  188.1080  176.6670  142.5860 C   0  0  0  0  0  2  0  0  0  0  0  0
  190.0400  175.0650  142.4680 C   0  0  0  0  0  0  0  0  0  0  0  0
  191.9670  173.6700  141.9440 C   0  0  0  0  0  0  0  0  0  0  0  0
  195.0580  175.1810  145.4270 C   0  0  0  0  0  2  0  0  0  0  0  0
  192.2450  175.7120  143.4350 C   0  0  2  0  0  3  0  0  0  0  0  0
  193.7250  173.3020  144.3920 C   0  0  0  0  0  2  0  0  0  0  0  0
  194.0940  174.0450  143.1740 N   0  0  1  0  0  0  0  0  0  0  0  0
  189.2130  174.1980  141.7340 C   0  0  0  0  0  0  0  0  0  0  0  0
  193.4570  173.4240  142.0090 C   0  0  0  0  0  2  0  0  0  0  0  0
  189.7640  173.0910  141.0880 C   0  0  0  0  0  3  0  0  0  0  0  0
  187.8410  174.4530  141.6320 O   0  0  0  0  0  0  0  0  0  0  0  0
  191.8760  177.1590  143.1070 C   0  0  0  0  0  2  0  0  0  0  0  0
  190.3790  177.4520  143.3190 C   0  0  2  0  0  3  0  0  0  0  0  0
  193.7520  175.4800  143.2500 C   0  0  2  0  0  3  0  0  0  0  0  0
  191.1350  172.8260  141.1790 C   0  0  0  0  0  0  0  0  0  0  0  0
  187.2010  175.4490  142.4310 C   0  0  0  0  0  2  0  0  0  0  0  0
  194.0350  174.0800  145.6790 C   0  0  0  0  0  2  0  0  0  0  0  0
  194.5410  176.1680  144.3760 C   0  0  0  0  0  2  0  0  0  0  0  0
  191.6730  171.6160  140.4880 C   0  0  0  0  0  2  0  0  0  0  0  0
  190.8680  170.5130  140.7720 O   0  0  0  0  0  1  0  0  0  0  0  0
  190.1610  178.1630  144.6460 C   0  0  0  0  0  2  0  0  0  0  0  0
  190.2630  177.1760  145.7970 C   0  0  0  0  0  2  0  0  0  0  0  0
  189.1760  177.4640  146.8190 C   0  0  0  0  0  2  0  0  0  0  0  0
  188.3800  175.2270  146.8850 O   0  0  0  0  0  0  0  0  0  0  0  0
  186.7260  176.8130  146.4850 N   0  0  0  0  0  2  0  0  0  0  0  0
  188.0910  176.4430  146.7370 C   0  0  0  0  0  0  0  0  0  0  0  0
  186.2100  178.1780  146.3730 C   0  0  1  0  0  3  0  0  0  0  0  0
  186.2230  178.6410  144.9290 C   0  0  0  0  0  1  0  0  0  0  0  0
  184.8150  178.3080  146.9660 C   0  0  0  0  0  2  0  0  0  0  0  0
  183.9370  178.8190  146.0100 O   0  0  0  0  0  1  0  0  0  0  0  0
  1  3  1  6  0  0  0
  1 15  1  0  0  0  0
  2  7  1  0  0  0  0
  4  2  1  0  0  0  0
  4  1  1  0  0  0  0
  5 11  1  0  0  0  0
  5  2  2  0  0  0  0
  6 19  1  0  0  0  0
  7 14  1  6  0  0  0
  8 19  1  0  0  0  0
  9 11  1  6  0  0  0
  9 16  1  0  0  0  0
  9  8  1  0  0  0  0
 10  4  2  0  0  0  0
 12 17  2  0  0  0  0
 12 10  1  0  0  0  0
 13 10  1  0  0  0  0
 13 18  1  0  0  0  0
 14 15  1  0  0  0  0
 15 23  1  1  0  0  0
 16  7  1  0  0  0  0
 16 20  1  1  0  0  0
 17  5  1  0  0  0  0
 18  3  1  0  0  0  0
 20  6  1  0  0  0  0
 21 22  1  0  0  0  0
 21 17  1  0  0  0  0
 23 24  1  0  0  0  0
 24 25  1  0  0  0  0
 27 28  1  0  0  0  0
 28 25  1  0  0  0  0
 28 26  2  0  0  0  0
 29 30  1  6  0  0  0
 29 27  1  0  0  0  0
 29 31  1  0  0  0  0
 32 31  1  0  0  0  0
M  END
>  <MODEL>
9

>  <REMARK>
 VINA RESULT:      -6.6      2.588      6.398
  Name = 
  7 active torsions:
  status: ('A' for Active; 'I' for Inactive)
    1  A    between atoms: CA_3  and  N_19
    2  A    between atoms: CA_3  and  C_22
    3  A    between atoms: C_13  and  C_29
    4  A    between atoms: C_15  and  C_20
    5  A    between atoms: C_15  and  C_26
    6  A    between atoms: C_16  and  C_20
    7  A    between atoms: C_16  and  C_27
                            x       y       z     vdW  Elec       q    Type
                         _______ _______ _______ _____ _____    ______ ____

>  <TORSDO>
F 7

$$$$
