=
 OpenBabel11052421113D

 43 49  0  0  1  0  0  0  0  0999 V2000
  187.4980  176.2450  141.2500 C   0  0  0  0  0  0  0  0  0  0  0  0
  192.3990  171.0390  143.8320 C   0  0  0  0  0  0  0  0  0  0  0  0
  186.8560  176.9320  140.4030 O   0  0  0  0  0  0  0  0  0  0  0  0
  189.7020  172.9190  139.9240 C   0  0  0  0  0  0  0  0  0  0  0  0
  188.2180  175.0910  140.8210 N   0  0  0  0  0  0  0  0  0  0  0  0
  191.2760  171.3320  141.7210 C   0  0  0  0  0  0  0  0  0  0  0  0
  191.8890  172.3710  144.2620 C   0  0  0  0  0  3  0  0  0  0  0  0
  193.2520  170.2480  144.7590 C   0  0  0  0  0  1  0  0  0  0  0  0
  190.3090  172.3060  142.3630 C   0  0  1  0  0  3  0  0  0  0  0  0
  192.1660  170.5740  142.6150 C   0  0  0  0  0  3  0  0  0  0  0  0
  190.9580  173.0030  143.5490 C   0  0  0  0  0  3  0  0  0  0  0  0
  188.9180  174.2740  141.7750 C   0  0  0  0  0  3  0  0  0  0  0  0
  189.6580  173.2400  141.3670 C   0  0  0  0  0  0  0  0  0  0  0  0
  190.4610  171.9090  139.4860 C   0  0  0  0  0  3  0  0  0  0  0  0
  188.8990  173.7430  138.9890 C   0  0  0  0  0  0  0  0  0  0  0  0
  188.2290  174.7600  139.4510 N   0  0  0  0  0  0  0  0  0  0  0  0
  191.2990  171.1190  140.4090 C   0  0  0  0  0  3  0  0  0  0  0  0
  187.5190  176.6230  142.6290 N   0  0  0  0  0  0  0  0  0  0  0  0
  186.4380  176.8860  143.2840 C   0  0  0  0  0  3  0  0  0  0  0  0
  186.0620  178.7320  144.8800 C   0  0  0  0  0  2  0  0  0  0  0  0
  187.8760  177.1090  145.1970 N   0  0  1  0  0  0  0  0  0  0  0  0
  187.0980  178.0700  147.5900 C   0  0  0  0  0  2  0  0  0  0  0  0
  186.5080  177.2880  144.7140 C   0  0  2  0  0  3  0  0  0  0  0  0
  185.2110  178.8910  146.1370 C   0  0  0  0  0  2  0  0  0  0  0  0
  188.1160  177.3830  146.6440 C   0  0  1  0  0  0  0  0  0  0  0  0
  187.7960  176.0330  146.2140 C   0  0  0  0  0  2  0  0  0  0  0  0
  185.6160  177.9360  147.2580 C   0  0  0  0  0  2  0  0  0  0  0  0
  189.4770  177.5130  146.9730 O   0  0  0  0  0  0  0  0  0  0  0  0
  190.1070  176.3400  146.5280 C   0  0  2  0  0  3  0  0  0  0  0  0
  193.3050  175.6250  145.1010 N   0  0  0  0  0  1  0  0  0  0  0  0
  192.1550  175.2260  147.1790 C   0  0  0  0  0  2  0  0  0  0  0  0
  192.4950  176.2410  146.1180 C   0  0  2  0  0  3  0  0  0  0  0  0
  190.8040  175.6520  147.6930 C   0  0  0  0  0  2  0  0  0  0  0  0
  191.1800  176.6940  145.5220 C   0  0  0  0  0  2  0  0  0  0  0  0
  188.8710  173.4650  137.5300 C   0  0  0  0  0  2  0  0  0  0  0  0
  189.4710  175.7480  134.6870 C   0  0  0  0  0  2  0  0  0  0  0  0
  190.8590  176.0720  135.0050 N   0  0  0  0  0  0  0  0  0  0  0  0
  192.5370  177.6600  134.7160 O   0  0  0  0  0  0  0  0  0  0  0  0
  190.9270  174.2080  136.7040 C   0  0  0  0  0  2  0  0  0  0  0  0
  188.9830  174.5170  135.4440 C   0  0  0  0  0  2  0  0  0  0  0  0
  189.5060  174.5460  136.7980 N   0  0  0  0  0  0  0  0  0  0  0  0
  191.3450  177.3100  134.5130 C   0  0  0  0  0  3  0  0  0  0  0  0
  191.7040  175.2780  135.9280 C   0  0  0  0  0  2  0  0  0  0  0  0
  1 18  1  0  0  0  0
  2  7  1  0  0  0  0
  2  8  1  0  0  0  0
  3  1  2  0  0  0  0
  4 13  1  0  0  0  0
  5  1  1  0  0  0  0
  5 12  1  0  0  0  0
  6  9  1  0  0  0  0
  6 10  1  0  0  0  0
  9 11  1  1  0  0  0
 10  2  2  0  0  0  0
 11  7  2  0  0  0  0
 13 12  2  0  0  0  0
 13  9  1  0  0  0  0
 14  4  2  0  0  0  0
 14 17  1  0  0  0  0
 15 16  2  0  0  0  0
 15  4  1  0  0  0  0
 16  5  1  0  0  0  0
 17  6  2  0  0  0  0
 18 19  2  0  0  0  0
 20 24  1  0  0  0  0
 21 26  1  1  0  0  0
 21 25  1  0  0  0  0
 23 19  1  6  0  0  0
 23 20  1  0  0  0  0
 23 21  1  0  0  0  0
 24 27  1  0  0  0  0
 25 28  1  1  0  0  0
 25 22  1  0  0  0  0
 26 25  1  0  0  0  0
 27 22  1  0  0  0  0
 29 28  1  1  0  0  0
 29 33  1  0  0  0  0
 31 33  1  0  0  0  0
 32 30  1  6  0  0  0
 32 31  1  0  0  0  0
 34 32  1  0  0  0  0
 34 29  1  0  0  0  0
 35 15  1  0  0  0  0
 36 37  1  0  0  0  0
 36 40  1  0  0  0  0
 37 43  1  0  0  0  0
 39 41  1  0  0  0  0
 40 41  1  0  0  0  0
 41 35  1  0  0  0  0
 42 38  2  0  0  0  0
 42 37  1  0  0  0  0
 43 39  1  0  0  0  0
M  END
>  <MODEL>
1

>  <REMARK>
 VINA RESULT:      -8.6      0.000      0.000
  Name = 
  6 active torsions:
  status: ('A' for Active; 'I' for Inactive)
    1  A    between atoms: C_1  and  C_34
    2  A    between atoms: C_1  and  N_35
    3  A    between atoms: C_2  and  N_6
    4  A    between atoms: C_11  and  O_14
    5  A    between atoms: C_12  and  C_17
    6  A    between atoms: O_14  and  C_22
                            x       y       z     vdW  Elec       q    Type
                         _______ _______ _______ _____ _____    ______ ____

>  <TORSDO>
F 6

$$$$
=
 OpenBabel11052421113D

 43 49  0  0  1  0  0  0  0  0999 V2000
  191.6490  176.0930  145.9410 C   0  0  0  0  0  0  0  0  0  0  0  0
  189.3090  173.5840  139.1570 C   0  0  0  0  0  0  0  0  0  0  0  0
  192.3720  176.1680  146.9780 O   0  0  0  0  0  0  0  0  0  0  0  0
  193.0030  173.8150  142.6760 C   0  0  0  0  0  0  0  0  0  0  0  0
  192.1120  175.3570  144.8110 N   0  0  0  0  0  0  0  0  0  0  0  0
  191.4240  173.4830  140.3050 C   0  0  0  0  0  0  0  0  0  0  0  0
  188.6880  174.1240  140.4000 C   0  0  0  0  0  3  0  0  0  0  0  0
  188.4670  173.3740  137.9490 C   0  0  0  0  0  1  0  0  0  0  0  0
  190.9600  174.5530  141.2710 C   0  0  0  0  0  0  0  0  0  0  0  0
  190.5810  173.2220  139.1270 C   0  0  0  0  0  2  0  0  0  0  0  0
  189.4460  174.5200  141.4190 C   0  0  0  0  0  3  0  0  0  0  0  0
  191.3240  175.2940  143.6100 C   0  0  0  0  0  3  0  0  0  0  0  0
  191.7180  174.5410  142.5800 C   0  0  0  0  0  0  0  0  0  0  0  0
  193.4040  173.0290  141.6710 C   0  0  0  0  0  3  0  0  0  0  0  0
  193.8180  173.9750  143.9040 C   0  0  0  0  0  0  0  0  0  0  0  0
  193.3560  174.6960  144.8860 N   0  0  0  0  0  0  0  0  0  0  0  0
  192.5720  172.8300  140.4690 C   0  0  0  0  0  3  0  0  0  0  0  0
  190.3680  176.7260  145.8990 N   0  0  0  0  0  0  0  0  0  0  0  0
  189.3160  176.1790  146.4110 C   0  0  0  0  0  3  0  0  0  0  0  0
  187.0520  176.3200  147.3870 C   0  0  0  0  0  2  0  0  0  0  0  0
  187.4450  176.6900  144.9930 N   0  0  1  0  0  0  0  0  0  0  0  0
  185.2670  178.0700  145.7720 C   0  0  0  0  0  2  0  0  0  0  0  0
  188.0010  176.8680  146.3320 C   0  0  2  0  0  3  0  0  0  0  0  0
  186.2350  177.4470  148.0130 C   0  0  0  0  0  2  0  0  0  0  0  0
  186.1600  177.3920  144.7020 C   0  0  1  0  0  0  0  0  0  0  0  0
  187.4190  178.0470  144.3950 C   0  0  0  0  0  2  0  0  0  0  0  0
  185.9420  178.5860  147.0390 C   0  0  0  0  0  2  0  0  0  0  0  0
  185.5170  176.9290  143.5390 O   0  0  0  0  0  0  0  0  0  0  0  0
  185.8040  177.8620  142.5300 C   0  0  2  0  0  3  0  0  0  0  0  0
  186.7150  177.5940  139.0850 N   0  0  0  0  0  1  0  0  0  0  0  0
  184.8070  178.3060  140.3700 C   0  0  0  0  0  2  0  0  0  0  0  0
  185.8600  177.2430  140.1870 C   0  0  2  0  0  3  0  0  0  0  0  0
  184.5160  178.3010  141.8480 C   0  0  0  0  0  2  0  0  0  0  0  0
  186.6620  177.2100  141.4690 C   0  0  0  0  0  2  0  0  0  0  0  0
  195.1310  173.3000  144.0640 C   0  0  0  0  0  2  0  0  0  0  0  0
  196.3320  170.6770  146.3730 C   0  0  0  0  0  2  0  0  0  0  0  0
  195.1560  169.8140  146.2940 N   0  0  0  0  0  0  0  0  0  0  0  0
  193.9490  168.1660  147.4110 O   0  0  0  0  0  0  0  0  0  0  0  0
  194.2960  171.1330  144.3210 C   0  0  0  0  0  2  0  0  0  0  0  0
  196.3660  171.7030  145.2450 C   0  0  0  0  0  2  0  0  0  0  0  0
  195.0230  172.2020  145.0070 N   0  0  0  0  0  0  0  0  0  0  0  0
  194.9240  168.9630  147.4040 C   0  0  0  0  0  3  0  0  0  0  0  0
  194.1360  169.9020  145.2230 C   0  0  0  0  0  2  0  0  0  0  0  0
  1  3  2  0  0  0  0
  2  7  2  0  0  0  0
  4 15  1  0  0  0  0
  5 16  1  0  0  0  0
  5  1  1  0  0  0  0
  6 17  2  0  0  0  0
  6  9  1  0  0  0  0
  7 11  1  0  0  0  0
  8  2  1  0  0  0  0
  9 11  2  0  0  0  0
  9 13  1  0  0  0  0
 10  2  1  0  0  0  0
 10  6  1  0  0  0  0
 12  5  1  0  0  0  0
 13  4  1  0  0  0  0
 13 12  2  0  0  0  0
 14  4  2  0  0  0  0
 15 35  1  0  0  0  0
 15 16  2  0  0  0  0
 17 14  1  0  0  0  0
 18  1  1  0  0  0  0
 18 19  2  0  0  0  0
 20 24  1  0  0  0  0
 21 26  1  6  0  0  0
 21 23  1  0  0  0  0
 22 27  1  0  0  0  0
 23 19  1  6  0  0  0
 23 20  1  0  0  0  0
 25 28  1  6  0  0  0
 25 21  1  0  0  0  0
 25 22  1  0  0  0  0
 26 25  1  0  0  0  0
 27 24  1  0  0  0  0
 29 28  1  1  0  0  0
 31 33  1  0  0  0  0
 32 30  1  6  0  0  0
 32 31  1  0  0  0  0
 32 34  1  0  0  0  0
 33 29  1  0  0  0  0
 34 29  1  0  0  0  0
 35 41  1  0  0  0  0
 37 36  1  0  0  0  0
 37 42  1  0  0  0  0
 39 41  1  0  0  0  0
 39 43  1  0  0  0  0
 40 36  1  0  0  0  0
 41 40  1  0  0  0  0
 42 38  2  0  0  0  0
 43 37  1  0  0  0  0
M  END
>  <MODEL>
2

>  <REMARK>
 VINA RESULT:      -8.2      2.985      7.587
  Name = 
  6 active torsions:
  status: ('A' for Active; 'I' for Inactive)
    1  A    between atoms: C_1  and  C_34
    2  A    between atoms: C_1  and  N_35
    3  A    between atoms: C_2  and  N_6
    4  A    between atoms: C_11  and  O_14
    5  A    between atoms: C_12  and  C_17
    6  A    between atoms: O_14  and  C_22
                            x       y       z     vdW  Elec       q    Type
                         _______ _______ _______ _____ _____    ______ ____

>  <TORSDO>
F 6

$$$$
=
 OpenBabel11052421113D

 43 49  0  0  1  0  0  0  0  0999 V2000
  188.7990  173.8030  141.7210 C   0  0  0  0  0  0  0  0  0  0  0  0
  195.9780  175.8320  143.1810 C   0  0  0  0  0  0  0  0  0  0  0  0
  187.5770  173.5690  141.9520 O   0  0  0  0  0  0  0  0  0  0  0  0
  191.0900  175.7540  144.6580 C   0  0  0  0  0  0  0  0  0  0  0  0
  189.5790  174.4990  142.6910 N   0  0  0  0  0  0  0  0  0  0  0  0
  193.8910  176.2620  144.3020 C   0  0  0  0  0  0  0  0  0  0  0  0
  195.2710  174.8790  142.2790 C   0  0  0  0  0  3  0  0  0  0  0  0
  197.4400  176.0500  143.0130 C   0  0  0  0  0  1  0  0  0  0  0  0
  193.1290  175.8260  143.0670 C   0  0  1  0  0  3  0  0  0  0  0  0
  195.3460  176.4360  144.1730 C   0  0  0  0  0  3  0  0  0  0  0  0
  193.9410  174.8220  142.2630 C   0  0  0  0  0  3  0  0  0  0  0  0
  190.9580  174.8110  142.4280 C   0  0  0  0  0  3  0  0  0  0  0  0
  191.7120  175.3910  143.3660 C   0  0  0  0  0  0  0  0  0  0  0  0
  191.8310  176.3050  145.6250 C   0  0  0  0  0  3  0  0  0  0  0  0
  189.6460  175.4830  144.8510 C   0  0  0  0  0  0  0  0  0  0  0  0
  188.9790  174.8810  143.9080 N   0  0  0  0  0  0  0  0  0  0  0  0
  193.2790  176.5300  145.4520 C   0  0  0  0  0  3  0  0  0  0  0  0
  189.4070  173.3650  140.5030 N   0  0  0  0  0  0  0  0  0  0  0  0
  188.7190  172.8450  139.5420 C   0  0  0  0  0  3  0  0  0  0  0  0
  190.0100  171.0140  138.5030 C   0  0  0  0  0  2  0  0  0  0  0  0
  190.4180  173.3640  137.9240 N   0  0  1  0  0  0  0  0  0  0  0  0
  191.0690  171.7950  135.8340 C   0  0  0  0  0  2  0  0  0  0  0  0
  189.3950  172.3900  138.2980 C   0  0  2  0  0  3  0  0  0  0  0  0
  189.8100  170.1470  137.2630 C   0  0  0  0  0  2  0  0  0  0  0  0
  191.1440  173.1140  136.6440 C   0  0  1  0  0  0  0  0  0  0  0  0
  189.9540  173.9470  136.6420 C   0  0  0  0  0  2  0  0  0  0  0  0
  189.8070  170.9500  135.9650 C   0  0  0  0  0  2  0  0  0  0  0  0
  192.3150  173.8810  136.5030 O   0  0  0  0  0  0  0  0  0  0  0  0
  193.3840  172.9720  136.4900 C   0  0  2  0  0  3  0  0  0  0  0  0
  196.8750  173.2550  135.7800 N   0  0  0  0  0  1  0  0  0  0  0  0
  195.4760  172.8780  137.7030 C   0  0  0  0  0  2  0  0  0  0  0  0
  195.6940  173.7080  136.4640 C   0  0  2  0  0  3  0  0  0  0  0  0
  193.9810  172.8520  137.8840 C   0  0  0  0  0  2  0  0  0  0  0  0
  194.4800  173.4950  135.5880 C   0  0  0  0  0  2  0  0  0  0  0  0
  188.9450  175.8430  146.1100 C   0  0  0  0  0  2  0  0  0  0  0  0
  186.7780  178.3930  144.5440 C   0  0  0  0  0  2  0  0  0  0  0  0
  185.7200  178.3750  145.5510 N   0  0  0  0  0  0  0  0  0  0  0  0
  183.4680  178.8310  145.9270 O   0  0  0  0  0  0  0  0  0  0  0  0
  187.1870  177.0240  147.0980 C   0  0  0  0  0  2  0  0  0  0  0  0
  188.0540  177.7230  145.0430 C   0  0  0  0  0  2  0  0  0  0  0  0
  187.7080  176.5440  145.8170 N   0  0  0  0  0  0  0  0  0  0  0  0
  184.4340  178.7890  145.1200 C   0  0  0  0  0  3  0  0  0  0  0  0
  185.8800  177.8040  146.9090 C   0  0  0  0  0  2  0  0  0  0  0  0
  1  3  2  0  0  0  0
  1  5  1  0  0  0  0
  2 10  2  0  0  0  0
  4 15  1  0  0  0  0
  4 14  2  0  0  0  0
  5 16  1  0  0  0  0
  6 17  2  0  0  0  0
  7  2  1  0  0  0  0
  8  2  1  0  0  0  0
  9 11  1  1  0  0  0
  9 13  1  0  0  0  0
  9  6  1  0  0  0  0
 10  6  1  0  0  0  0
 11  7  2  0  0  0  0
 12  5  1  0  0  0  0
 12 13  2  0  0  0  0
 13  4  1  0  0  0  0
 15 35  1  0  0  0  0
 16 15  2  0  0  0  0
 17 14  1  0  0  0  0
 18  1  1  0  0  0  0
 19 18  2  0  0  0  0
 21 26  1  6  0  0  0
 21 23  1  0  0  0  0
 22 27  1  0  0  0  0
 22 25  1  0  0  0  0
 23 20  1  0  0  0  0
 23 19  1  1  0  0  0
 24 20  1  0  0  0  0
 25 28  1  6  0  0  0
 25 21  1  0  0  0  0
 26 25  1  0  0  0  0
 27 24  1  0  0  0  0
 29 28  1  1  0  0  0
 29 33  1  0  0  0  0
 31 33  1  0  0  0  0
 32 30  1  6  0  0  0
 32 31  1  0  0  0  0
 34 32  1  0  0  0  0
 34 29  1  0  0  0  0
 36 40  1  0  0  0  0
 36 37  1  0  0  0  0
 37 43  1  0  0  0  0
 40 41  1  0  0  0  0
 41 35  1  0  0  0  0
 41 39  1  0  0  0  0
 42 37  1  0  0  0  0
 42 38  2  0  0  0  0
 43 39  1  0  0  0  0
M  END
>  <MODEL>
3

>  <REMARK>
 VINA RESULT:      -8.1      3.018      9.139
  Name = 
  6 active torsions:
  status: ('A' for Active; 'I' for Inactive)
    1  A    between atoms: C_1  and  C_34
    2  A    between atoms: C_1  and  N_35
    3  A    between atoms: C_2  and  N_6
    4  A    between atoms: C_11  and  O_14
    5  A    between atoms: C_12  and  C_17
    6  A    between atoms: O_14  and  C_22
                            x       y       z     vdW  Elec       q    Type
                         _______ _______ _______ _____ _____    ______ ____

>  <TORSDO>
F 6

$$$$
=
 OpenBabel11052421113D

 43 49  0  0  1  0  0  0  0  0999 V2000
  190.5700  175.6150  146.9540 C   0  0  0  0  0  0  0  0  0  0  0  0
  189.0250  172.8630  140.0380 C   0  0  0  0  0  0  0  0  0  0  0  0
  191.2200  175.7970  148.0250 O   0  0  0  0  0  0  0  0  0  0  0  0
  192.4540  173.6750  143.7330 C   0  0  0  0  0  0  0  0  0  0  0  0
  191.2080  174.9940  145.8400 N   0  0  0  0  0  0  0  0  0  0  0  0
  191.0700  173.1150  141.2850 C   0  0  0  0  0  0  0  0  0  0  0  0
  188.2620  173.2610  141.2540 C   0  0  0  0  0  3  0  0  0  0  0  0
  188.2890  172.5310  138.7880 C   0  0  0  0  0  1  0  0  0  0  0  0
  190.3790  174.0670  142.2390 C   0  0  0  0  0  0  0  0  0  0  0  0
  190.3410  172.7320  140.0650 C   0  0  0  0  0  2  0  0  0  0  0  0
  188.8900  173.7650  142.3140 C   0  0  0  0  0  3  0  0  0  0  0  0
  190.4990  174.8160  144.6010 C   0  0  0  0  0  3  0  0  0  0  0  0
  191.0670  174.1640  143.5830 C   0  0  0  0  0  0  0  0  0  0  0  0
  193.0330  172.9910  142.7410 C   0  0  0  0  0  3  0  0  0  0  0  0
  193.1700  173.9530  145.0010 C   0  0  0  0  0  0  0  0  0  0  0  0
  192.5440  174.5620  145.9670 N   0  0  0  0  0  0  0  0  0  0  0  0
  192.3060  172.6720  141.4980 C   0  0  0  0  0  3  0  0  0  0  0  0
  189.2000  176.0120  146.8560 N   0  0  0  0  0  0  0  0  0  0  0  0
  188.8530  177.2500  146.7320 C   0  0  0  0  0  3  0  0  0  0  0  0
  186.6040  176.8240  147.6590 C   0  0  0  0  0  2  0  0  0  0  0  0
  186.9340  177.3710  145.2900 N   0  0  1  0  0  0  0  0  0  0  0  0
  184.4850  178.1780  146.0690 C   0  0  0  0  0  2  0  0  0  0  0  0
  187.4150  177.6180  146.6470 C   0  0  2  0  0  3  0  0  0  0  0  0
  185.5400  177.7050  148.3070 C   0  0  0  0  0  2  0  0  0  0  0  0
  185.5250  177.7680  144.9960 C   0  0  1  0  0  0  0  0  0  0  0  0
  186.6030  178.7090  144.7410 C   0  0  0  0  0  2  0  0  0  0  0  0
  185.0040  178.7840  147.3690 C   0  0  0  0  0  2  0  0  0  0  0  0
  185.0240  177.2180  143.8020 O   0  0  0  0  0  0  0  0  0  0  0  0
  185.3940  178.0980  142.7730 C   0  0  2  0  0  3  0  0  0  0  0  0
  186.7530  177.6570  139.4980 N   0  0  0  0  0  1  0  0  0  0  0  0
  184.6640  178.3440  140.4790 C   0  0  0  0  0  2  0  0  0  0  0  0
  185.7800  177.3320  140.5060 C   0  0  2  0  0  3  0  0  0  0  0  0
  184.1860  178.4190  141.9050 C   0  0  0  0  0  2  0  0  0  0  0  0
  186.4110  177.4270  141.8770 C   0  0  0  0  0  2  0  0  0  0  0  0
  194.5740  173.5170  145.2170 C   0  0  0  0  0  2  0  0  0  0  0  0
  197.3410  173.0530  142.8120 C   0  0  0  0  0  2  0  0  0  0  0  0
  197.3480  174.4130  142.2790 N   0  0  0  0  0  0  0  0  0  0  0  0
  197.9390  175.7140  140.4410 O   0  0  0  0  0  0  0  0  0  0  0  0
  195.8250  175.1730  144.1430 C   0  0  0  0  0  2  0  0  0  0  0  0
  196.5620  172.9550  144.1190 C   0  0  0  0  0  2  0  0  0  0  0  0
  195.3730  173.7860  144.0350 N   0  0  0  0  0  0  0  0  0  0  0  0
  197.8700  174.5740  140.9710 C   0  0  0  0  0  3  0  0  0  0  0  0
  196.7020  175.5670  142.9480 C   0  0  0  0  0  2  0  0  0  0  0  0
  1  3  2  0  0  0  0
  2 10  1  0  0  0  0
  2  7  2  0  0  0  0
  4 15  1  0  0  0  0
  5 16  1  0  0  0  0
  5  1  1  0  0  0  0
  6 17  2  0  0  0  0
  6  9  1  0  0  0  0
  7 11  1  0  0  0  0
  8  2  1  0  0  0  0
  9 11  2  0  0  0  0
  9 13  1  0  0  0  0
 10  6  1  0  0  0  0
 12  5  1  0  0  0  0
 13  4  1  0  0  0  0
 13 12  2  0  0  0  0
 14  4  2  0  0  0  0
 15 35  1  0  0  0  0
 15 16  2  0  0  0  0
 17 14  1  0  0  0  0
 18  1  1  0  0  0  0
 19 18  2  0  0  0  0
 20 24  1  0  0  0  0
 21 26  1  6  0  0  0
 21 23  1  0  0  0  0
 22 27  1  0  0  0  0
 23 19  1  6  0  0  0
 23 20  1  0  0  0  0
 25 28  1  6  0  0  0
 25 21  1  0  0  0  0
 25 22  1  0  0  0  0
 26 25  1  0  0  0  0
 27 24  1  0  0  0  0
 29 28  1  1  0  0  0
 31 32  1  0  0  0  0
 31 33  1  0  0  0  0
 32 30  1  6  0  0  0
 32 34  1  0  0  0  0
 33 29  1  0  0  0  0
 34 29  1  0  0  0  0
 36 40  1  0  0  0  0
 37 36  1  0  0  0  0
 37 43  1  0  0  0  0
 38 42  2  0  0  0  0
 41 40  1  0  0  0  0
 41 39  1  0  0  0  0
 41 35  1  0  0  0  0
 42 37  1  0  0  0  0
 43 39  1  0  0  0  0
M  END
>  <MODEL>
4

>  <REMARK>
 VINA RESULT:      -8.1      3.005      6.629
  Name = 
  6 active torsions:
  status: ('A' for Active; 'I' for Inactive)
    1  A    between atoms: C_1  and  C_34
    2  A    between atoms: C_1  and  N_35
    3  A    between atoms: C_2  and  N_6
    4  A    between atoms: C_11  and  O_14
    5  A    between atoms: C_12  and  C_17
    6  A    between atoms: O_14  and  C_22
                            x       y       z     vdW  Elec       q    Type
                         _______ _______ _______ _____ _____    ______ ____

>  <TORSDO>
F 6

$$$$
=
 OpenBabel11052421113D

 43 49  0  0  1  0  0  0  0  0999 V2000
  191.5630  176.0000  144.2800 C   0  0  0  0  0  0  0  0  0  0  0  0
  190.6880  172.0560  137.8400 C   0  0  0  0  0  0  0  0  0  0  0  0
  191.3120  176.8690  145.1650 O   0  0  0  0  0  0  0  0  0  0  0  0
  188.7060  175.2650  141.2830 C   0  0  0  0  0  0  0  0  0  0  0  0
  190.5880  175.7110  143.2800 N   0  0  0  0  0  0  0  0  0  0  0  0
  189.1840  173.3920  139.1630 C   0  0  0  0  0  0  0  0  0  0  0  0
  191.8160  172.5220  138.6940 C   0  0  0  0  0  3  0  0  0  0  0  0
  190.9590  171.1200  136.7160 C   0  0  0  0  0  1  0  0  0  0  0  0
  190.1540  173.3460  140.3260 C   0  0  0  0  0  0  0  0  0  0  0  0
  189.4590  172.5110  138.0170 C   0  0  0  0  0  2  0  0  0  0  0  0
  191.5810  173.1820  139.8260 C   0  0  0  0  0  3  0  0  0  0  0  0
  190.8370  174.6980  142.2910 C   0  0  0  0  0  3  0  0  0  0  0  0
  189.9600  174.4810  141.3070 C   0  0  0  0  0  0  0  0  0  0  0  0
  187.8270  175.0900  140.2900 C   0  0  0  0  0  3  0  0  0  0  0  0
  188.4590  176.2420  142.3700 C   0  0  0  0  0  0  0  0  0  0  0  0
  189.3740  176.4290  143.2780 N   0  0  0  0  0  0  0  0  0  0  0  0
  188.0930  174.1540  139.1810 C   0  0  0  0  0  3  0  0  0  0  0  0
  192.8180  175.3160  144.2640 N   0  0  0  0  0  0  0  0  0  0  0  0
  193.9180  175.9100  143.9400 C   0  0  0  0  0  3  0  0  0  0  0  0
  195.8500  175.2470  142.5530 C   0  0  0  0  0  2  0  0  0  0  0  0
  194.9420  173.7640  144.2850 N   0  0  1  0  0  0  0  0  0  0  0  0
  197.5640  173.2480  143.9400 C   0  0  0  0  0  2  0  0  0  0  0  0
  195.1990  175.1570  143.9240 C   0  0  2  0  0  3  0  0  0  0  0  0
  197.3610  175.4230  142.6850 C   0  0  0  0  0  2  0  0  0  0  0  0
  196.1340  172.8730  144.4060 C   0  0  1  0  0  0  0  0  0  0  0  0
  195.6310  173.5610  145.5820 C   0  0  0  0  0  2  0  0  0  0  0  0
  197.9390  174.7260  143.9140 C   0  0  0  0  0  2  0  0  0  0  0  0
  195.8110  171.5040  144.4280 O   0  0  0  0  0  0  0  0  0  0  0  0
  195.9450  171.0860  145.7610 C   0  0  2  0  0  3  0  0  0  0  0  0
  194.6700  168.3260  147.6390 N   0  0  0  0  0  1  0  0  0  0  0  0
  196.7940  169.0570  146.7710 C   0  0  0  0  0  2  0  0  0  0  0  0
  195.3310  168.8520  146.4750 C   0  0  2  0  0  3  0  0  0  0  0  0
  197.1940  170.2300  145.9150 C   0  0  0  0  0  2  0  0  0  0  0  0
  194.7670  170.2140  146.1370 C   0  0  0  0  0  2  0  0  0  0  0  0
  187.2120  177.0460  142.4290 C   0  0  0  0  0  2  0  0  0  0  0  0
  185.7770  176.8120  145.8260 C   0  0  0  0  0  2  0  0  0  0  0  0
  185.7990  178.2400  146.1310 N   0  0  0  0  0  0  0  0  0  0  0  0
  185.8420  179.7970  147.8620 O   0  0  0  0  0  0  0  0  0  0  0  0
  186.2950  178.7690  143.7140 C   0  0  0  0  0  2  0  0  0  0  0  0
  185.9540  176.5420  144.3360 C   0  0  0  0  0  2  0  0  0  0  0  0
  186.9420  177.4590  143.7940 N   0  0  0  0  0  0  0  0  0  0  0  0
  185.8470  178.5900  147.5050 C   0  0  0  0  0  3  0  0  0  0  0  0
  185.9430  179.3020  145.1080 C   0  0  0  0  0  2  0  0  0  0  0  0
  1  3  2  0  0  0  0
  2 10  1  0  0  0  0
  2  7  2  0  0  0  0
  4 13  1  0  0  0  0
  4 15  1  0  0  0  0
  5  1  1  0  0  0  0
  6 17  2  0  0  0  0
  6  9  1  0  0  0  0
  7 11  1  0  0  0  0
  8  2  1  0  0  0  0
  9 13  1  0  0  0  0
 10  6  1  0  0  0  0
 11  9  2  0  0  0  0
 12  5  1  0  0  0  0
 13 12  2  0  0  0  0
 14  4  2  0  0  0  0
 15 35  1  0  0  0  0
 15 16  2  0  0  0  0
 16  5  1  0  0  0  0
 17 14  1  0  0  0  0
 18  1  1  0  0  0  0
 19 18  2  0  0  0  0
 20 24  1  0  0  0  0
 20 23  1  0  0  0  0
 21 25  1  0  0  0  0
 21 26  1  1  0  0  0
 22 25  1  0  0  0  0
 23 19  1  6  0  0  0
 23 21  1  0  0  0  0
 24 27  1  0  0  0  0
 25 28  1  6  0  0  0
 25 26  1  0  0  0  0
 27 22  1  0  0  0  0
 29 28  1  6  0  0  0
 29 33  1  0  0  0  0
 29 34  1  0  0  0  0
 32 31  1  0  0  0  0
 32 30  1  1  0  0  0
 33 31  1  0  0  0  0
 34 32  1  0  0  0  0
 35 41  1  0  0  0  0
 36 37  1  0  0  0  0
 37 42  1  0  0  0  0
 39 41  1  0  0  0  0
 39 43  1  0  0  0  0
 40 36  1  0  0  0  0
 41 40  1  0  0  0  0
 42 38  2  0  0  0  0
 43 37  1  0  0  0  0
M  END
>  <MODEL>
5

>  <REMARK>
 VINA RESULT:      -7.9      3.500      8.307
  Name = 
  6 active torsions:
  status: ('A' for Active; 'I' for Inactive)
    1  A    between atoms: C_1  and  C_34
    2  A    between atoms: C_1  and  N_35
    3  A    between atoms: C_2  and  N_6
    4  A    between atoms: C_11  and  O_14
    5  A    between atoms: C_12  and  C_17
    6  A    between atoms: O_14  and  C_22
                            x       y       z     vdW  Elec       q    Type
                         _______ _______ _______ _____ _____    ______ ____

>  <TORSDO>
F 6

$$$$
=
 OpenBabel11052421113D

 43 49  0  0  1  0  0  0  0  0999 V2000
  194.4700  175.8650  142.3860 C   0  0  0  0  0  0  0  0  0  0  0  0
  196.8760  169.6300  146.0100 C   0  0  0  0  0  0  0  0  0  0  0  0
  194.4470  176.7730  141.5040 O   0  0  0  0  0  0  0  0  0  0  0  0
  196.9540  172.5230  141.8010 C   0  0  0  0  0  0  0  0  0  0  0  0
  195.2770  174.7070  142.1840 N   0  0  0  0  0  0  0  0  0  0  0  0
  197.1740  170.4400  143.7610 C   0  0  0  0  0  0  0  0  0  0  0  0
  196.2440  170.9310  146.3690 C   0  0  0  0  0  3  0  0  0  0  0  0
  197.0240  168.5760  147.0490 C   0  0  0  0  0  1  0  0  0  0  0  0
  196.0380  171.4230  143.9560 C   0  0  1  0  0  3  0  0  0  0  0  0
  197.3710  169.4180  144.8020 C   0  0  0  0  0  3  0  0  0  0  0  0
  195.9070  171.8050  145.4230 C   0  0  0  0  0  3  0  0  0  0  0  0
  195.2840  173.6450  143.1540 C   0  0  0  0  0  3  0  0  0  0  0  0
  196.0990  172.5980  143.0060 C   0  0  0  0  0  0  0  0  0  0  0  0
  197.8020  171.5000  141.6460 C   0  0  0  0  0  3  0  0  0  0  0  0
  196.8530  173.6030  140.7910 C   0  0  0  0  0  0  0  0  0  0  0  0
  196.0640  174.6140  141.0170 N   0  0  0  0  0  0  0  0  0  0  0  0
  197.9400  170.4510  142.6740 C   0  0  0  0  0  3  0  0  0  0  0  0
  193.7060  175.9960  143.5870 N   0  0  0  0  0  0  0  0  0  0  0  0
  192.4150  175.9640  143.5860 C   0  0  0  0  0  3  0  0  0  0  0  0
  191.8960  174.9170  145.7610 C   0  0  0  0  0  2  0  0  0  0  0  0
  190.2390  176.2710  144.5580 N   0  0  1  0  0  0  0  0  0  0  0  0
  189.7510  176.3900  147.2040 C   0  0  0  0  0  2  0  0  0  0  0  0
  191.6610  176.1180  144.8580 C   0  0  2  0  0  3  0  0  0  0  0  0
  192.0490  175.3590  147.2140 C   0  0  0  0  0  2  0  0  0  0  0  0
  189.3340  176.5260  145.7180 C   0  0  1  0  0  0  0  0  0  0  0  0
  189.8940  177.6490  144.9850 C   0  0  0  0  0  2  0  0  0  0  0  0
  191.2200  176.5960  147.5530 C   0  0  0  0  0  2  0  0  0  0  0  0
  187.9720  176.3390  145.4190 O   0  0  0  0  0  0  0  0  0  0  0  0
  187.3340  177.5570  145.6990 C   0  0  2  0  0  3  0  0  0  0  0  0
  184.1380  178.9310  144.8810 N   0  0  0  0  0  1  0  0  0  0  0  0
  185.2720  178.1090  146.8400 C   0  0  0  0  0  2  0  0  0  0  0  0
  184.9480  177.8570  145.3900 C   0  0  2  0  0  3  0  0  0  0  0  0
  186.6230  177.4750  147.0420 C   0  0  0  0  0  2  0  0  0  0  0  0
  186.2700  177.8200  144.6560 C   0  0  0  0  0  2  0  0  0  0  0  0
  197.6590  173.5840  139.5440 C   0  0  0  0  0  2  0  0  0  0  0  0
  195.6960  173.7530  136.4180 C   0  0  0  0  0  2  0  0  0  0  0  0
  196.0470  175.1240  136.0580 N   0  0  0  0  0  0  0  0  0  0  0  0
  195.3590  176.9890  134.8470 O   0  0  0  0  0  0  0  0  0  0  0  0
  197.8580  175.1440  137.8160 C   0  0  0  0  0  2  0  0  0  0  0  0
  196.6280  173.1850  137.4830 C   0  0  0  0  0  2  0  0  0  0  0  0
  196.9280  174.2160  138.4610 N   0  0  0  0  0  0  0  0  0  0  0  0
  195.1250  175.8130  135.2290 C   0  0  0  0  0  3  0  0  0  0  0  0
  197.1950  175.8630  136.6340 C   0  0  0  0  0  2  0  0  0  0  0  0
  1 18  1  0  0  0  0
  2  7  1  0  0  0  0
  2  8  1  0  0  0  0
  3  1  2  0  0  0  0
  4 13  1  0  0  0  0
  5  1  1  0  0  0  0
  5 12  1  0  0  0  0
  6  9  1  0  0  0  0
  6 10  1  0  0  0  0
  9 11  1  1  0  0  0
 10  2  2  0  0  0  0
 11  7  2  0  0  0  0
 13 12  2  0  0  0  0
 13  9  1  0  0  0  0
 14  4  2  0  0  0  0
 14 17  1  0  0  0  0
 15 16  2  0  0  0  0
 15  4  1  0  0  0  0
 16  5  1  0  0  0  0
 17  6  2  0  0  0  0
 19 18  2  0  0  0  0
 20 24  1  0  0  0  0
 21 23  1  0  0  0  0
 21 26  1  6  0  0  0
 21 25  1  0  0  0  0
 22 27  1  0  0  0  0
 23 19  1  6  0  0  0
 23 20  1  0  0  0  0
 24 27  1  0  0  0  0
 25 28  1  6  0  0  0
 25 22  1  0  0  0  0
 26 25  1  0  0  0  0
 29 28  1  6  0  0  0
 29 33  1  0  0  0  0
 31 33  1  0  0  0  0
 32 30  1  6  0  0  0
 32 31  1  0  0  0  0
 34 32  1  0  0  0  0
 34 29  1  0  0  0  0
 35 15  1  0  0  0  0
 36 40  1  0  0  0  0
 37 36  1  0  0  0  0
 37 43  1  0  0  0  0
 38 42  2  0  0  0  0
 39 41  1  0  0  0  0
 40 41  1  0  0  0  0
 41 35  1  0  0  0  0
 42 37  1  0  0  0  0
 43 39  1  0  0  0  0
M  END
>  <MODEL>
6

>  <REMARK>
 VINA RESULT:      -7.9      3.991      6.271
  Name = 
  6 active torsions:
  status: ('A' for Active; 'I' for Inactive)
    1  A    between atoms: C_1  and  C_34
    2  A    between atoms: C_1  and  N_35
    3  A    between atoms: C_2  and  N_6
    4  A    between atoms: C_11  and  O_14
    5  A    between atoms: C_12  and  C_17
    6  A    between atoms: O_14  and  C_22
                            x       y       z     vdW  Elec       q    Type
                         _______ _______ _______ _____ _____    ______ ____

>  <TORSDO>
F 6

$$$$
=
 OpenBabel11052421113D

 43 49  0  0  1  0  0  0  0  0999 V2000
  192.3800  176.5070  143.8680 C   0  0  0  0  0  0  0  0  0  0  0  0
  190.5310  171.3290  138.6190 C   0  0  0  0  0  0  0  0  0  0  0  0
  192.2740  177.5550  144.5690 O   0  0  0  0  0  0  0  0  0  0  0  0
  189.1140  175.2880  141.5170 C   0  0  0  0  0  0  0  0  0  0  0  0
  191.2680  176.0590  143.0960 N   0  0  0  0  0  0  0  0  0  0  0  0
  189.2540  172.9860  139.8110 C   0  0  0  0  0  0  0  0  0  0  0  0
  191.7770  171.9110  139.1910 C   0  0  0  0  0  3  0  0  0  0  0  0
  190.6230  170.1630  137.6990 C   0  0  0  0  0  1  0  0  0  0  0  0
  190.3780  173.1430  140.8140 C   0  0  0  0  0  0  0  0  0  0  0  0
  189.3470  171.8690  138.8570 C   0  0  0  0  0  2  0  0  0  0  0  0
  191.7170  172.8080  140.1730 C   0  0  0  0  0  3  0  0  0  0  0  0
  191.3570  174.8470  142.3270 C   0  0  0  0  0  3  0  0  0  0  0  0
  190.3450  174.4680  141.5410 C   0  0  0  0  0  0  0  0  0  0  0  0
  188.1000  174.9480  140.7140 C   0  0  0  0  0  3  0  0  0  0  0  0
  189.0420  176.4840  142.3890 C   0  0  0  0  0  0  0  0  0  0  0  0
  190.0790  176.8170  143.1020 N   0  0  0  0  0  0  0  0  0  0  0  0
  188.1900  173.7850  139.8100 C   0  0  0  0  0  3  0  0  0  0  0  0
  193.6090  175.7770  143.8320 N   0  0  0  0  0  0  0  0  0  0  0  0
  193.8970  174.8770  144.7120 C   0  0  0  0  0  3  0  0  0  0  0  0
  196.0840  174.5460  145.8120 C   0  0  0  0  0  2  0  0  0  0  0  0
  195.8450  174.4510  143.3710 N   0  0  1  0  0  0  0  0  0  0  0  0
  197.9210  172.9130  144.1350 C   0  0  0  0  0  2  0  0  0  0  0  0
  195.1930  174.1510  144.6440 C   0  0  2  0  0  3  0  0  0  0  0  0
  196.8200  173.3280  146.3630 C   0  0  0  0  0  2  0  0  0  0  0  0
  197.1250  173.7360  143.0900 C   0  0  1  0  0  0  0  0  0  0  0  0
  195.8710  173.1660  142.6310 C   0  0  0  0  0  2  0  0  0  0  0  0
  197.1450  172.2910  145.2910 C   0  0  0  0  0  2  0  0  0  0  0  0
  197.8600  174.2960  142.0290 O   0  0  0  0  0  0  0  0  0  0  0  0
  197.1650  173.9750  140.8530 C   0  0  2  0  0  3  0  0  0  0  0  0
  197.0650  175.3770  137.5670 N   0  0  0  0  0  1  0  0  0  0  0  0
  197.8930  173.3770  138.6240 C   0  0  0  0  0  2  0  0  0  0  0  0
  197.8040  174.8800  138.6960 C   0  0  2  0  0  3  0  0  0  0  0  0
  197.9370  172.9300  140.0610 C   0  0  0  0  0  2  0  0  0  0  0  0
  197.0650  175.2040  139.9750 C   0  0  0  0  0  2  0  0  0  0  0  0
  187.8290  177.3420  142.4390 C   0  0  0  0  0  2  0  0  0  0  0  0
  186.8540  176.7630  145.9560 C   0  0  0  0  0  2  0  0  0  0  0  0
  186.3330  178.1010  146.2220 N   0  0  0  0  0  0  0  0  0  0  0  0
  185.8830  179.6480  147.9020 O   0  0  0  0  0  0  0  0  0  0  0  0
  186.4020  178.6400  143.7570 C   0  0  0  0  0  2  0  0  0  0  0  0
  187.0150  176.4980  144.4630 C   0  0  0  0  0  2  0  0  0  0  0  0
  187.5180  177.6950  143.8130 N   0  0  0  0  0  0  0  0  0  0  0  0
  186.3380  178.5210  147.5770 C   0  0  0  0  0  3  0  0  0  0  0  0
  185.9710  179.0730  145.1640 C   0  0  0  0  0  2  0  0  0  0  0  0
  1  3  2  0  0  0  0
  2 10  1  0  0  0  0
  2  7  2  0  0  0  0
  4 13  1  0  0  0  0
  4 15  1  0  0  0  0
  5 16  1  0  0  0  0
  5  1  1  0  0  0  0
  6  9  1  0  0  0  0
  7 11  1  0  0  0  0
  8  2  1  0  0  0  0
  9 13  1  0  0  0  0
 10  6  1  0  0  0  0
 11  9  2  0  0  0  0
 12  5  1  0  0  0  0
 13 12  2  0  0  0  0
 14  4  2  0  0  0  0
 15 35  1  0  0  0  0
 15 16  2  0  0  0  0
 17  6  2  0  0  0  0
 17 14  1  0  0  0  0
 18  1  1  0  0  0  0
 18 19  2  0  0  0  0
 20 24  1  0  0  0  0
 21 26  1  6  0  0  0
 21 23  1  0  0  0  0
 22 27  1  0  0  0  0
 23 19  1  1  0  0  0
 23 20  1  0  0  0  0
 25 28  1  6  0  0  0
 25 21  1  0  0  0  0
 25 22  1  0  0  0  0
 26 25  1  0  0  0  0
 27 24  1  0  0  0  0
 29 28  1  1  0  0  0
 31 32  1  0  0  0  0
 31 33  1  0  0  0  0
 32 30  1  6  0  0  0
 32 34  1  0  0  0  0
 33 29  1  0  0  0  0
 34 29  1  0  0  0  0
 35 41  1  0  0  0  0
 36 37  1  0  0  0  0
 37 42  1  0  0  0  0
 39 41  1  0  0  0  0
 39 43  1  0  0  0  0
 40 36  1  0  0  0  0
 41 40  1  0  0  0  0
 42 38  2  0  0  0  0
 43 37  1  0  0  0  0
M  END
>  <MODEL>
7

>  <REMARK>
 VINA RESULT:      -7.6      3.823      8.587
  Name = 
  6 active torsions:
  status: ('A' for Active; 'I' for Inactive)
    1  A    between atoms: C_1  and  C_34
    2  A    between atoms: C_1  and  N_35
    3  A    between atoms: C_2  and  N_6
    4  A    between atoms: C_11  and  O_14
    5  A    between atoms: C_12  and  C_17
    6  A    between atoms: O_14  and  C_22
                            x       y       z     vdW  Elec       q    Type
                         _______ _______ _______ _____ _____    ______ ____

>  <TORSDO>
F 6

$$$$
=
 OpenBabel11052421113D

 43 49  0  0  1  0  0  0  0  0999 V2000
  192.0450  176.0490  144.2080 C   0  0  0  0  0  0  0  0  0  0  0  0
  190.5250  171.1510  138.5960 C   0  0  0  0  0  0  0  0  0  0  0  0
  191.9200  177.0830  144.9270 O   0  0  0  0  0  0  0  0  0  0  0  0
  189.0180  175.1150  141.4420 C   0  0  0  0  0  0  0  0  0  0  0  0
  191.0090  175.6980  143.2930 N   0  0  0  0  0  0  0  0  0  0  0  0
  189.2190  172.8570  139.6850 C   0  0  0  0  0  0  0  0  0  0  0  0
  191.7270  171.6340  139.3330 C   0  0  0  0  0  3  0  0  0  0  0  0
  190.6550  170.0080  137.6530 C   0  0  0  0  0  1  0  0  0  0  0  0
  190.2210  172.9110  140.8190 C   0  0  0  0  0  0  0  0  0  0  0  0
  189.3580  171.7630  138.7110 C   0  0  0  0  0  2  0  0  0  0  0  0
  191.6040  172.5050  140.3320 C   0  0  0  0  0  3  0  0  0  0  0  0
  191.1140  174.5040  142.4980 C   0  0  0  0  0  3  0  0  0  0  0  0
  190.1840  174.2150  141.5840 C   0  0  0  0  0  0  0  0  0  0  0  0
  188.0900  174.8650  140.5130 C   0  0  0  0  0  3  0  0  0  0  0  0
  188.9160  176.2890  142.3410 C   0  0  0  0  0  0  0  0  0  0  0  0
  189.8780  176.5320  143.1850 N   0  0  0  0  0  0  0  0  0  0  0  0
  188.2160  173.7250  139.5850 C   0  0  0  0  0  3  0  0  0  0  0  0
  193.2210  175.2400  144.2930 N   0  0  0  0  0  0  0  0  0  0  0  0
  193.4170  174.4170  145.2690 C   0  0  0  0  0  3  0  0  0  0  0  0
  195.8060  174.3430  144.6460 C   0  0  0  0  0  2  0  0  0  0  0  0
  194.4230  172.3160  144.6800 N   0  0  1  0  0  0  0  0  0  0  0  0
  196.9920  171.6630  145.1590 C   0  0  0  0  0  2  0  0  0  0  0  0
  194.6610  173.6050  145.3240 C   0  0  2  0  0  3  0  0  0  0  0  0
  197.1020  174.1640  145.4320 C   0  0  0  0  0  2  0  0  0  0  0  0
  195.5430  171.3300  144.7180 C   0  0  1  0  0  0  0  0  0  0  0  0
  194.5340  171.3090  145.7630 C   0  0  0  0  0  2  0  0  0  0  0  0
  197.1910  172.8140  146.1380 C   0  0  0  0  0  2  0  0  0  0  0  0
  195.3820  170.2610  143.8190 O   0  0  0  0  0  0  0  0  0  0  0  0
  196.4310  170.3620  142.8910 C   0  0  2  0  0  3  0  0  0  0  0  0
  197.7170  168.2010  140.3520 N   0  0  0  0  0  1  0  0  0  0  0  0
  196.5000  170.2750  140.4730 C   0  0  0  0  0  2  0  0  0  0  0  0
  196.6130  168.8650  140.9920 C   0  0  2  0  0  3  0  0  0  0  0  0
  195.9430  171.0620  141.6310 C   0  0  0  0  0  2  0  0  0  0  0  0
  196.8750  168.9760  142.4780 C   0  0  0  0  0  2  0  0  0  0  0  0
  187.7620  177.2230  142.2770 C   0  0  0  0  0  2  0  0  0  0  0  0
  185.8730  176.6120  145.3930 C   0  0  0  0  0  2  0  0  0  0  0  0
  185.7360  178.0080  145.7980 N   0  0  0  0  0  0  0  0  0  0  0  0
  185.4010  179.4170  147.6220 O   0  0  0  0  0  0  0  0  0  0  0  0
  186.5330  178.7680  143.5270 C   0  0  0  0  0  2  0  0  0  0  0  0
  186.2860  176.4790  143.9310 C   0  0  0  0  0  2  0  0  0  0  0  0
  187.2650  177.5030  143.6110 N   0  0  0  0  0  0  0  0  0  0  0  0
  185.5550  178.2460  147.1850 C   0  0  0  0  0  3  0  0  0  0  0  0
  185.9410  179.1590  144.8870 C   0  0  0  0  0  2  0  0  0  0  0  0
  1 18  1  0  0  0  0
  1  3  2  0  0  0  0
  2 10  1  0  0  0  0
  2  7  2  0  0  0  0
  4 13  1  0  0  0  0
  4 15  1  0  0  0  0
  5  1  1  0  0  0  0
  6  9  1  0  0  0  0
  7 11  1  0  0  0  0
  8  2  1  0  0  0  0
  9 13  1  0  0  0  0
 10  6  1  0  0  0  0
 11  9  2  0  0  0  0
 12  5  1  0  0  0  0
 13 12  2  0  0  0  0
 14  4  2  0  0  0  0
 15 16  2  0  0  0  0
 16  5  1  0  0  0  0
 17  6  2  0  0  0  0
 17 14  1  0  0  0  0
 18 19  2  0  0  0  0
 20 23  1  0  0  0  0
 20 24  1  0  0  0  0
 21 25  1  0  0  0  0
 21 23  1  0  0  0  0
 21 26  1  1  0  0  0
 22 27  1  0  0  0  0
 23 19  1  6  0  0  0
 24 27  1  0  0  0  0
 25 28  1  6  0  0  0
 25 22  1  0  0  0  0
 25 26  1  0  0  0  0
 29 28  1  1  0  0  0
 31 32  1  0  0  0  0
 31 33  1  0  0  0  0
 32 30  1  6  0  0  0
 32 34  1  0  0  0  0
 33 29  1  0  0  0  0
 34 29  1  0  0  0  0
 35 15  1  0  0  0  0
 35 41  1  0  0  0  0
 36 37  1  0  0  0  0
 37 42  1  0  0  0  0
 39 41  1  0  0  0  0
 39 43  1  0  0  0  0
 40 36  1  0  0  0  0
 41 40  1  0  0  0  0
 42 38  2  0  0  0  0
 43 37  1  0  0  0  0
M  END
>  <MODEL>
8

>  <REMARK>
 VINA RESULT:      -7.5      3.573      8.448
  Name = 
  6 active torsions:
  status: ('A' for Active; 'I' for Inactive)
    1  A    between atoms: C_1  and  C_34
    2  A    between atoms: C_1  and  N_35
    3  A    between atoms: C_2  and  N_6
    4  A    between atoms: C_11  and  O_14
    5  A    between atoms: C_12  and  C_17
    6  A    between atoms: O_14  and  C_22
                            x       y       z     vdW  Elec       q    Type
                         _______ _______ _______ _____ _____    ______ ____

>  <TORSDO>
F 6

$$$$
=
 OpenBabel11052421113D

 43 49  0  0  1  0  0  0  0  0999 V2000
  189.4810  173.9480  140.8800 C   0  0  0  0  0  0  0  0  0  0  0  0
  195.5650  174.0240  145.4380 C   0  0  0  0  0  0  0  0  0  0  0  0
  188.2720  174.0940  140.5370 O   0  0  0  0  0  0  0  0  0  0  0  0
  190.7490  175.4920  144.5800 C   0  0  0  0  0  0  0  0  0  0  0  0
  189.9360  174.5000  142.1140 N   0  0  0  0  0  0  0  0  0  0  0  0
  193.4370  175.1470  145.5230 C   0  0  0  0  0  0  0  0  0  0  0  0
  195.0660  173.2140  144.2910 C   0  0  0  0  0  3  0  0  0  0  0  0
  196.9460  173.8020  145.9450 C   0  0  0  0  0  1  0  0  0  0  0  0
  193.1910  174.8080  144.0670 C   0  0  1  0  0  3  0  0  0  0  0  0
  194.7820  174.8900  146.0600 C   0  0  0  0  0  3  0  0  0  0  0  0
  193.9250  173.5320  143.6830 C   0  0  0  0  0  3  0  0  0  0  0  0
  191.3150  174.3800  142.5010 C   0  0  0  0  0  3  0  0  0  0  0  0
  191.7260  174.8260  143.6910 C   0  0  0  0  0  0  0  0  0  0  0  0
  191.1280  175.9170  145.7900 C   0  0  0  0  0  3  0  0  0  0  0  0
  189.3570  175.6620  144.1020 C   0  0  0  0  0  0  0  0  0  0  0  0
  189.0150  175.1700  142.9460 N   0  0  0  0  0  0  0  0  0  0  0  0
  192.5010  175.7050  146.2870 C   0  0  0  0  0  3  0  0  0  0  0  0
  190.3920  173.2220  140.0500 N   0  0  0  0  0  0  0  0  0  0  0  0
  190.0300  172.7090  138.9210 C   0  0  0  0  0  3  0  0  0  0  0  0
  191.0540  170.4950  138.5360 C   0  0  0  0  0  2  0  0  0  0  0  0
  192.3240  172.5720  138.2190 N   0  0  1  0  0  0  0  0  0  0  0  0
  193.3180  170.6520  136.6120 C   0  0  0  0  0  2  0  0  0  0  0  0
  191.0070  171.9510  138.0970 C   0  0  2  0  0  3  0  0  0  0  0  0
  191.1580  169.5710  137.3260 C   0  0  0  0  0  2  0  0  0  0  0  0
  193.4180  171.9910  137.3860 C   0  0  1  0  0  0  0  0  0  0  0  0
  192.6360  173.1010  136.8700 C   0  0  0  0  0  2  0  0  0  0  0  0
  191.9360  170.1890  136.1670 C   0  0  0  0  0  2  0  0  0  0  0  0
  194.7040  172.4020  137.7810 O   0  0  0  0  0  0  0  0  0  0  0  0
  195.2780  173.0360  136.6680 C   0  0  2  0  0  3  0  0  0  0  0  0
  197.8640  175.4680  136.2540 N   0  0  0  0  0  1  0  0  0  0  0  0
  197.5390  173.1230  135.8110 C   0  0  0  0  0  2  0  0  0  0  0  0
  197.3800  174.2350  136.8150 C   0  0  2  0  0  3  0  0  0  0  0  0
  196.4030  172.1800  136.1060 C   0  0  0  0  0  2  0  0  0  0  0  0
  195.8980  174.3470  137.0980 C   0  0  0  0  0  2  0  0  0  0  0  0
  188.3260  176.3430  144.9270 C   0  0  0  0  0  2  0  0  0  0  0  0
  186.6330  178.2980  142.2870 C   0  0  0  0  0  2  0  0  0  0  0  0
  185.2790  178.1960  142.8260 N   0  0  0  0  0  0  0  0  0  0  0  0
  183.0190  178.2820  142.2740 O   0  0  0  0  0  0  0  0  0  0  0  0
  186.1900  177.2900  144.9990 C   0  0  0  0  0  2  0  0  0  0  0  0
  187.6900  177.9180  143.3190 C   0  0  0  0  0  2  0  0  0  0  0  0
  187.2220  176.7820  144.0930 N   0  0  0  0  0  0  0  0  0  0  0  0
  184.2190  178.3290  141.8950 C   0  0  0  0  0  3  0  0  0  0  0  0
  184.9720  177.8030  144.2220 C   0  0  0  0  0  2  0  0  0  0  0  0
  1  5  1  0  0  0  0
  2  8  1  0  0  0  0
  2 10  2  0  0  0  0
  3  1  2  0  0  0  0
  4 14  2  0  0  0  0
  5 12  1  0  0  0  0
  5 16  1  0  0  0  0
  6 10  1  0  0  0  0
  6 17  2  0  0  0  0
  7  2  1  0  0  0  0
  9 11  1  1  0  0  0
  9  6  1  0  0  0  0
 11  7  2  0  0  0  0
 12 13  2  0  0  0  0
 13  9  1  0  0  0  0
 13  4  1  0  0  0  0
 14 17  1  0  0  0  0
 15  4  1  0  0  0  0
 15 35  1  0  0  0  0
 16 15  2  0  0  0  0
 18  1  1  0  0  0  0
 19 18  2  0  0  0  0
 21 26  1  6  0  0  0
 22 25  1  0  0  0  0
 23 21  1  0  0  0  0
 23 20  1  0  0  0  0
 23 19  1  1  0  0  0
 24 20  1  0  0  0  0
 25 28  1  1  0  0  0
 25 21  1  0  0  0  0
 26 25  1  0  0  0  0
 27 22  1  0  0  0  0
 27 24  1  0  0  0  0
 29 34  1  0  0  0  0
 29 28  1  1  0  0  0
 31 33  1  0  0  0  0
 31 32  1  0  0  0  0
 32 30  1  6  0  0  0
 32 34  1  0  0  0  0
 33 29  1  0  0  0  0
 36 37  1  0  0  0  0
 36 40  1  0  0  0  0
 37 43  1  0  0  0  0
 40 41  1  0  0  0  0
 41 35  1  0  0  0  0
 41 39  1  0  0  0  0
 42 38  2  0  0  0  0
 42 37  1  0  0  0  0
 43 39  1  0  0  0  0
M  END
>  <MODEL>
9

>  <REMARK>
 VINA RESULT:      -7.3      3.352      8.955
  Name = 
  6 active torsions:
  status: ('A' for Active; 'I' for Inactive)
    1  A    between atoms: C_1  and  C_34
    2  A    between atoms: C_1  and  N_35
    3  A    between atoms: C_2  and  N_6
    4  A    between atoms: C_11  and  O_14
    5  A    between atoms: C_12  and  C_17
    6  A    between atoms: O_14  and  C_22
                            x       y       z     vdW  Elec       q    Type
                         _______ _______ _______ _____ _____    ______ ____

>  <TORSDO>
F 6

$$$$
