=
 OpenBabel11052417183D

 30 33  0  0  1  0  0  0  0  0999 V2000
  187.7690  177.4920  144.9580 N   0  0  0  0  0  0  0  0  0  0  0  0
  186.3200  178.2790  146.7090 C   0  0  0  0  0  0  0  0  0  0  0  0
  185.0960  178.5820  141.8460 C   0  0  0  0  0  2  0  0  0  0  0  0
  188.1230  177.2120  143.5990 C   0  0  0  0  0  0  0  0  0  0  0  0
  185.2390  177.7570  140.5770 C   0  0  0  0  0  2  0  0  0  0  0  0
  185.0480  178.5280  147.0350 C   0  0  0  0  0  3  0  0  0  0  0  0
  187.2470  178.1100  147.6840 F   0  0  0  0  0  0  0  0  0  0  0  0
  185.9700  178.0980  142.9220 N   0  0  0  0  0  0  0  0  0  0  0  0
  184.0050  178.6370  145.9910 C   0  0  0  0  0  3  0  0  0  0  0  0
  186.6820  178.1120  145.2920 C   0  0  0  0  0  0  0  0  0  0  0  0
  187.2420  177.4740  142.6050 C   0  0  0  0  0  0  0  0  0  0  0  0
  186.6970  177.7540  140.1670 C   0  0  0  0  0  2  0  0  0  0  0  0
  187.5070  176.9900  141.2010 C   0  0  0  0  0  2  0  0  0  0  0  0
  184.3280  178.6670  144.6920 C   0  0  0  0  0  3  0  0  0  0  0  0
  185.7710  178.7030  144.2460 C   0  0  2  0  0  3  0  0  0  0  0  0
  189.4500  176.5310  143.3810 C   0  0  1  0  0  3  0  0  0  0  0  0
  190.9320  178.4060  143.5900 O   0  0  0  0  0  0  0  0  0  0  0  0
  190.6030  177.2640  144.0090 C   0  0  0  0  0  0  0  0  0  0  0  0
  192.8690  175.9060  144.9340 S   0  0  0  0  0  0  0  0  0  0  0  0
  190.9800  176.5560  146.4240 C   0  0  0  0  0  3  0  0  0  0  0  0
  191.3700  176.6410  145.0960 C   0  0  0  0  0  0  0  0  0  0  0  0
  193.0580  175.4630  146.5450 C   0  0  0  0  0  3  0  0  0  0  0  0
  191.9240  175.8990  147.2270 C   0  0  0  0  0  3  0  0  0  0  0  0
  189.4170  174.7460  143.7570 S   0  0  0  0  0  0  0  0  0  0  0  0
  190.3710  174.3290  142.2680 C   0  0  0  0  0  2  0  0  0  0  0  0
  189.5500  173.4480  141.3470 C   0  0  0  0  0  2  0  0  0  0  0  0
  189.1840  174.1870  140.1480 N   0  0  0  0  0  2  0  0  0  0  0  0
  187.9920  172.4130  139.2050 O   0  0  0  0  0  0  0  0  0  0  0  0
  188.3970  173.6030  139.1120 C   0  0  0  0  0  0  0  0  0  0  0  0
  188.0530  174.4050  137.9090 C   0  0  0  0  0  1  0  0  0  0  0  0
  1 10  2  0  0  0  0
  2  6  2  0  0  0  0
  2  7  1  0  0  0  0
  3  8  1  0  0  0  0
  4  1  1  0  0  0  0
  5  3  1  0  0  0  0
  8 15  1  0  0  0  0
  9  6  1  0  0  0  0
 10  2  1  0  0  0  0
 11  8  1  0  0  0  0
 11  4  2  0  0  0  0
 12  5  1  0  0  0  0
 12 13  1  0  0  0  0
 13 11  1  0  0  0  0
 14  9  2  0  0  0  0
 15 14  1  1  0  0  0
 15 10  1  0  0  0  0
 16  4  1  0  0  0  0
 16 24  1  1  0  0  0
 16 18  1  0  0  0  0
 17 18  2  0  0  0  0
 18 21  1  0  0  0  0
 19 21  1  0  0  0  0
 19 22  1  0  0  0  0
 20 23  1  0  0  0  0
 21 20  2  0  0  0  0
 22 23  2  0  0  0  0
 25 24  1  0  0  0  0
 26 25  1  0  0  0  0
 27 26  1  0  0  0  0
 29 28  2  0  0  0  0
 29 27  1  0  0  0  0
 30 29  1  0  0  0  0
M  END
>  <MODEL>
1

>  <REMARK>
 VINA RESULT:      -7.4      0.000      0.000
  Name = 
  7 active torsions:
  status: ('A' for Active; 'I' for Inactive)
    1  A    between atoms: C_4  and  C_13
    2  A    between atoms: N_7  and  C_16
    3  A    between atoms: C_8  and  C_12
    4  A    between atoms: C_8  and  C_13
    5  A    between atoms: C_13  and  S_27
    6  A    between atoms: C_16  and  C_30
    7  A    between atoms: S_27  and  C_30
                            x       y       z     vdW  Elec       q    Type
                         _______ _______ _______ _____ _____    ______ ____

>  <TORSDO>
F 7

$$$$
=
 OpenBabel11052417183D

 30 33  0  0  1  0  0  0  0  0999 V2000
  191.3870  175.8320  145.7220 N   0  0  0  0  0  0  0  0  0  0  0  0
  193.6690  175.9530  146.4740 C   0  0  0  0  0  0  0  0  0  0  0  0
  191.8100  171.9270  144.1130 C   0  0  0  0  0  2  0  0  0  0  0  0
  190.2690  175.2170  145.0700 C   0  0  0  0  0  0  0  0  0  0  0  0
  190.8530  171.6090  142.9750 C   0  0  0  0  0  2  0  0  0  0  0  0
  194.9060  175.4930  146.2650 C   0  0  0  0  0  3  0  0  0  0  0  0
  193.4840  177.1120  147.1550 F   0  0  0  0  0  0  0  0  0  0  0  0
  191.6910  173.3200  144.5620 N   0  0  0  0  0  0  0  0  0  0  0  0
  195.1350  174.2740  145.4600 C   0  0  0  0  0  3  0  0  0  0  0  0
  192.5240  175.2340  145.8920 C   0  0  0  0  0  0  0  0  0  0  0  0
  190.4170  174.0090  144.4760 C   0  0  0  0  0  0  0  0  0  0  0  0
  189.4450  171.9440  143.4230 C   0  0  0  0  0  2  0  0  0  0  0  0
  189.3210  173.4470  143.6050 C   0  0  0  0  0  2  0  0  0  0  0  0
  194.1140  173.5020  145.0660 C   0  0  0  0  0  3  0  0  0  0  0  0
  192.7010  173.7830  145.5240 C   0  0  2  0  0  3  0  0  0  0  0  0
  189.0040  176.0310  145.0050 C   0  0  1  0  0  3  0  0  0  0  0  0
  188.5740  175.2590  147.2350 O   0  0  0  0  0  0  0  0  0  0  0  0
  188.2110  176.0000  146.2820 C   0  0  0  0  0  0  0  0  0  0  0  0
  186.7630  178.0500  147.5210 S   0  0  0  0  0  0  0  0  0  0  0  0
  185.8390  176.6780  145.6560 C   0  0  0  0  0  3  0  0  0  0  0  0
  186.9930  176.8090  146.4160 C   0  0  0  0  0  0  0  0  0  0  0  0
  185.1950  178.4490  147.0620 C   0  0  0  0  0  3  0  0  0  0  0  0
  184.8410  177.5940  146.0200 C   0  0  0  0  0  3  0  0  0  0  0  0
  189.2570  177.7090  144.3340 S   0  0  0  0  0  0  0  0  0  0  0  0
  189.0410  177.1470  142.6190 C   0  0  0  0  0  2  0  0  0  0  0  0
  188.2850  178.1890  141.8170 C   0  0  0  0  0  2  0  0  0  0  0  0
  186.8910  177.7970  141.6820 N   0  0  0  0  0  2  0  0  0  0  0  0
  186.1120  179.3830  143.2100 O   0  0  0  0  0  0  0  0  0  0  0  0
  185.8500  178.4430  142.4140 C   0  0  0  0  0  0  0  0  0  0  0  0
  184.4430  178.0010  142.2350 C   0  0  0  0  0  1  0  0  0  0  0  0
  1 10  2  0  0  0  0
  2  7  1  0  0  0  0
  3  8  1  0  0  0  0
  4  1  1  0  0  0  0
  5 12  1  0  0  0  0
  5  3  1  0  0  0  0
  6  2  2  0  0  0  0
  8 15  1  0  0  0  0
  9  6  1  0  0  0  0
 10  2  1  0  0  0  0
 11  8  1  0  0  0  0
 11  4  2  0  0  0  0
 12 13  1  0  0  0  0
 13 11  1  0  0  0  0
 14  9  2  0  0  0  0
 15 14  1  6  0  0  0
 15 10  1  0  0  0  0
 16 24  1  1  0  0  0
 16  4  1  0  0  0  0
 16 18  1  0  0  0  0
 18 21  1  0  0  0  0
 18 17  2  0  0  0  0
 20 23  1  0  0  0  0
 20 21  2  0  0  0  0
 21 19  1  0  0  0  0
 22 19  1  0  0  0  0
 23 22  2  0  0  0  0
 25 24  1  0  0  0  0
 26 25  1  0  0  0  0
 27 26  1  0  0  0  0
 27 29  1  0  0  0  0
 29 28  2  0  0  0  0
 30 29  1  0  0  0  0
M  END
>  <MODEL>
2

>  <REMARK>
 VINA RESULT:      -7.4      3.150      6.897
  Name = 
  7 active torsions:
  status: ('A' for Active; 'I' for Inactive)
    1  A    between atoms: C_4  and  C_13
    2  A    between atoms: N_7  and  C_16
    3  A    between atoms: C_8  and  C_12
    4  A    between atoms: C_8  and  C_13
    5  A    between atoms: C_13  and  S_27
    6  A    between atoms: C_16  and  C_30
    7  A    between atoms: S_27  and  C_30
                            x       y       z     vdW  Elec       q    Type
                         _______ _______ _______ _____ _____    ______ ____

>  <TORSDO>
F 7

$$$$
=
 OpenBabel11052417183D

 30 33  0  0  1  0  0  0  0  0999 V2000
  187.8540  177.6150  144.9910 N   0  0  0  0  0  0  0  0  0  0  0  0
  186.3900  178.3440  146.7550 C   0  0  0  0  0  0  0  0  0  0  0  0
  185.0920  178.5460  141.9060 C   0  0  0  0  0  2  0  0  0  0  0  0
  188.2050  177.3420  143.6290 C   0  0  0  0  0  0  0  0  0  0  0  0
  185.2580  177.7180  140.6420 C   0  0  0  0  0  2  0  0  0  0  0  0
  185.1120  178.5330  147.0960 C   0  0  0  0  0  3  0  0  0  0  0  0
  187.3370  178.2300  147.7190 F   0  0  0  0  0  0  0  0  0  0  0  0
  186.0020  178.1150  142.9740 N   0  0  0  0  0  0  0  0  0  0  0  0
  184.0520  178.5820  146.0650 C   0  0  0  0  0  3  0  0  0  0  0  0
  186.7420  178.1840  145.3350 C   0  0  0  0  0  0  0  0  0  0  0  0
  187.2980  177.5520  142.6450 C   0  0  0  0  0  0  0  0  0  0  0  0
  186.7100  177.7840  140.2120 C   0  0  0  0  0  2  0  0  0  0  0  0
  187.5700  177.0700  141.2410 C   0  0  0  0  0  2  0  0  0  0  0  0
  184.3560  178.6170  144.7610 C   0  0  0  0  0  3  0  0  0  0  0  0
  185.7900  178.7200  144.2960 C   0  0  2  0  0  3  0  0  0  0  0  0
  189.5600  176.7250  143.3990 C   0  0  1  0  0  3  0  0  0  0  0  0
  190.9690  178.6370  143.7360 O   0  0  0  0  0  0  0  0  0  0  0  0
  190.6730  177.4640  144.0890 C   0  0  0  0  0  0  0  0  0  0  0  0
  193.0170  176.2590  145.0310 S   0  0  0  0  0  0  0  0  0  0  0  0
  190.9840  176.5500  146.4440 C   0  0  0  0  0  3  0  0  0  0  0  0
  191.4390  176.8140  145.1600 C   0  0  0  0  0  0  0  0  0  0  0  0
  193.1590  175.6710  146.6010 C   0  0  0  0  0  3  0  0  0  0  0  0
  191.9460  175.9130  147.2420 C   0  0  0  0  0  3  0  0  0  0  0  0
  189.5900  174.9210  143.6740 S   0  0  0  0  0  0  0  0  0  0  0  0
  190.4760  174.6150  142.1170 C   0  0  0  0  0  2  0  0  0  0  0  0
  191.1380  173.2520  142.1500 C   0  0  0  0  0  2  0  0  0  0  0  0
  192.2530  173.2630  143.0850 N   0  0  0  0  0  2  0  0  0  0  0  0
  191.5080  171.3920  144.2690 O   0  0  0  0  0  0  0  0  0  0  0  0
  192.3750  172.2960  144.1270 C   0  0  0  0  0  0  0  0  0  0  0  0
  193.5350  172.3560  145.0530 C   0  0  0  0  0  1  0  0  0  0  0  0
  1 10  2  0  0  0  0
  2  6  2  0  0  0  0
  2  7  1  0  0  0  0
  3  8  1  0  0  0  0
  4  1  1  0  0  0  0
  5  3  1  0  0  0  0
  8 15  1  0  0  0  0
  9  6  1  0  0  0  0
 10  2  1  0  0  0  0
 11  8  1  0  0  0  0
 11  4  2  0  0  0  0
 12  5  1  0  0  0  0
 12 13  1  0  0  0  0
 13 11  1  0  0  0  0
 14  9  2  0  0  0  0
 15 14  1  1  0  0  0
 15 10  1  0  0  0  0
 16  4  1  0  0  0  0
 16 24  1  1  0  0  0
 16 18  1  0  0  0  0
 17 18  2  0  0  0  0
 18 21  1  0  0  0  0
 19 21  1  0  0  0  0
 19 22  1  0  0  0  0
 20 23  1  0  0  0  0
 21 20  2  0  0  0  0
 22 23  2  0  0  0  0
 25 26  1  0  0  0  0
 25 24  1  0  0  0  0
 26 27  1  0  0  0  0
 27 29  1  0  0  0  0
 29 28  2  0  0  0  0
 29 30  1  0  0  0  0
M  END
>  <MODEL>
3

>  <REMARK>
 VINA RESULT:      -7.1      1.773      2.516
  Name = 
  7 active torsions:
  status: ('A' for Active; 'I' for Inactive)
    1  A    between atoms: C_4  and  C_13
    2  A    between atoms: N_7  and  C_16
    3  A    between atoms: C_8  and  C_12
    4  A    between atoms: C_8  and  C_13
    5  A    between atoms: C_13  and  S_27
    6  A    between atoms: C_16  and  C_30
    7  A    between atoms: S_27  and  C_30
                            x       y       z     vdW  Elec       q    Type
                         _______ _______ _______ _____ _____    ______ ____

>  <TORSDO>
F 7

$$$$
=
 OpenBabel11052417183D

 30 33  0  0  1  0  0  0  0  0999 V2000
  187.8410  177.4250  145.2760 N   0  0  0  0  0  0  0  0  0  0  0  0
  186.3050  178.2450  146.9360 C   0  0  0  0  0  0  0  0  0  0  0  0
  185.3730  178.5420  142.0080 C   0  0  0  0  0  2  0  0  0  0  0  0
  188.2690  177.1310  143.9410 C   0  0  0  0  0  0  0  0  0  0  0  0
  185.5750  177.7070  140.7540 C   0  0  0  0  0  2  0  0  0  0  0  0
  185.0210  178.5170  147.1860 C   0  0  0  0  0  3  0  0  0  0  0  0
  187.1720  178.0670  147.9640 F   0  0  0  0  0  0  0  0  0  0  0  0
  186.1750  178.0490  143.1360 N   0  0  0  0  0  0  0  0  0  0  0  0
  184.0440  178.6390  146.0830 C   0  0  0  0  0  3  0  0  0  0  0  0
  186.7470  178.0650  145.5440 C   0  0  0  0  0  0  0  0  0  0  0  0
  187.4510  177.4020  142.8960 C   0  0  0  0  0  0  0  0  0  0  0  0
  187.0550  177.6770  140.4290 C   0  0  0  0  0  2  0  0  0  0  0  0
  187.7900  176.9060  141.5130 C   0  0  0  0  0  2  0  0  0  0  0  0
  184.4420  178.6550  144.8040 C   0  0  0  0  0  3  0  0  0  0  0  0
  185.9090  178.6650  144.4430 C   0  0  2  0  0  3  0  0  0  0  0  0
  189.5940  176.4260  143.8050 C   0  0  1  0  0  3  0  0  0  0  0  0
  190.5950  178.5900  144.0750 O   0  0  0  0  0  0  0  0  0  0  0  0
  190.7730  177.3490  143.9430 C   0  0  0  0  0  0  0  0  0  0  0  0
  192.8330  176.0250  142.5870 S   0  0  0  0  0  0  0  0  0  0  0  0
  193.0730  176.8680  144.9210 C   0  0  0  0  0  3  0  0  0  0  0  0
  192.1400  176.8130  143.8950 C   0  0  0  0  0  0  0  0  0  0  0  0
  194.3330  175.7350  143.2910 C   0  0  0  0  0  3  0  0  0  0  0  0
  194.2930  176.2660  144.5790 C   0  0  0  0  0  3  0  0  0  0  0  0
  189.7170  174.9140  144.8180 S   0  0  0  0  0  0  0  0  0  0  0  0
  189.6940  173.8330  143.3570 C   0  0  0  0  0  2  0  0  0  0  0  0
  190.2590  172.4700  143.7040 C   0  0  0  0  0  2  0  0  0  0  0  0
  191.3240  172.6090  144.6860 N   0  0  0  0  0  2  0  0  0  0  0  0
  193.0390  172.2770  143.1360 O   0  0  0  0  0  0  0  0  0  0  0  0
  192.7010  172.5010  144.3280 C   0  0  0  0  0  0  0  0  0  0  0  0
  193.7450  172.6530  145.3740 C   0  0  0  0  0  1  0  0  0  0  0  0
  1 10  2  0  0  0  0
  2  6  2  0  0  0  0
  2  7  1  0  0  0  0
  3  8  1  0  0  0  0
  4  1  1  0  0  0  0
  5  3  1  0  0  0  0
  8 15  1  0  0  0  0
  9  6  1  0  0  0  0
 10  2  1  0  0  0  0
 11  8  1  0  0  0  0
 11  4  2  0  0  0  0
 12  5  1  0  0  0  0
 12 13  1  0  0  0  0
 13 11  1  0  0  0  0
 14  9  2  0  0  0  0
 15 14  1  1  0  0  0
 15 10  1  0  0  0  0
 16  4  1  0  0  0  0
 16 18  1  1  0  0  0
 16 24  1  0  0  0  0
 18 17  2  0  0  0  0
 19 22  1  0  0  0  0
 19 21  1  0  0  0  0
 21 18  1  0  0  0  0
 21 20  2  0  0  0  0
 22 23  2  0  0  0  0
 23 20  1  0  0  0  0
 25 26  1  0  0  0  0
 25 24  1  0  0  0  0
 26 27  1  0  0  0  0
 28 29  2  0  0  0  0
 29 27  1  0  0  0  0
 29 30  1  0  0  0  0
M  END
>  <MODEL>
4

>  <REMARK>
 VINA RESULT:      -7.0      2.157      2.935
  Name = 
  7 active torsions:
  status: ('A' for Active; 'I' for Inactive)
    1  A    between atoms: C_4  and  C_13
    2  A    between atoms: N_7  and  C_16
    3  A    between atoms: C_8  and  C_12
    4  A    between atoms: C_8  and  C_13
    5  A    between atoms: C_13  and  S_27
    6  A    between atoms: C_16  and  C_30
    7  A    between atoms: S_27  and  C_30
                            x       y       z     vdW  Elec       q    Type
                         _______ _______ _______ _____ _____    ______ ____

>  <TORSDO>
F 7

$$$$
=
 OpenBabel11052417183D

 30 33  0  0  1  0  0  0  0  0999 V2000
  188.0320  176.6070  143.2810 N   0  0  0  0  0  0  0  0  0  0  0  0
  186.8710  176.8710  141.1900 C   0  0  0  0  0  0  0  0  0  0  0  0
  184.7680  177.9960  145.6120 C   0  0  0  0  0  2  0  0  0  0  0  0
  188.1750  176.7000  144.7030 C   0  0  0  0  0  0  0  0  0  0  0  0
  185.1650  178.6150  146.9420 C   0  0  0  0  0  2  0  0  0  0  0  0
  185.8970  177.5410  140.5670 C   0  0  0  0  0  3  0  0  0  0  0  0
  187.8350  176.2490  140.4660 F   0  0  0  0  0  0  0  0  0  0  0  0
  185.9370  177.6270  144.8030 N   0  0  0  0  0  0  0  0  0  0  0  0
  184.8800  178.2900  141.3360 C   0  0  0  0  0  3  0  0  0  0  0  0
  186.9280  176.8830  142.6610 C   0  0  0  0  0  0  0  0  0  0  0  0
  187.1730  177.2240  145.4480 C   0  0  0  0  0  0  0  0  0  0  0  0
  186.0770  177.6490  147.6700 C   0  0  0  0  0  2  0  0  0  0  0  0
  187.3870  177.5290  146.9100 C   0  0  0  0  0  2  0  0  0  0  0  0
  184.7990  178.1780  142.6680 C   0  0  0  0  0  3  0  0  0  0  0  0
  185.6660  177.1980  143.4240 C   0  0  2  0  0  3  0  0  0  0  0  0
  189.5100  176.2900  145.2680 C   0  0  1  0  0  3  0  0  0  0  0  0
  189.3150  174.3880  146.7180 O   0  0  0  0  0  0  0  0  0  0  0  0
  189.6010  174.8190  145.5680 C   0  0  0  0  0  0  0  0  0  0  0  0
  191.5440  173.1190  144.4870 S   0  0  0  0  0  0  0  0  0  0  0  0
  189.3160  173.4740  143.4270 C   0  0  0  0  0  3  0  0  0  0  0  0
  190.0500  173.8800  144.5320 C   0  0  0  0  0  0  0  0  0  0  0  0
  191.2950  172.2580  143.0640 C   0  0  0  0  0  3  0  0  0  0  0  0
  190.0150  172.5710  142.6120 C   0  0  0  0  0  3  0  0  0  0  0  0
  190.9270  176.9380  144.3190 S   0  0  0  0  0  0  0  0  0  0  0  0
  192.0860  176.6420  145.6870 C   0  0  0  0  0  2  0  0  0  0  0  0
  193.5160  176.7890  145.2050 C   0  0  0  0  0  2  0  0  0  0  0  0
  194.3470  175.7480  145.7900 N   0  0  0  0  0  2  0  0  0  0  0  0
  195.8210  175.6620  143.9800 O   0  0  0  0  0  0  0  0  0  0  0  0
  195.4930  175.2290  145.1170 C   0  0  0  0  0  0  0  0  0  0  0  0
  196.3050  174.1660  145.7630 C   0  0  0  0  0  1  0  0  0  0  0  0
  1  4  1  0  0  0  0
  2 10  1  0  0  0  0
  3  5  1  0  0  0  0
  4 16  1  0  0  0  0
  4 11  2  0  0  0  0
  5 12  1  0  0  0  0
  6  2  2  0  0  0  0
  6  9  1  0  0  0  0
  7  2  1  0  0  0  0
  8 11  1  0  0  0  0
  8  3  1  0  0  0  0
  9 14  2  0  0  0  0
 10  1  2  0  0  0  0
 10 15  1  0  0  0  0
 11 13  1  0  0  0  0
 13 12  1  0  0  0  0
 15 14  1  6  0  0  0
 15  8  1  0  0  0  0
 16 24  1  6  0  0  0
 16 18  1  0  0  0  0
 18 17  2  0  0  0  0
 19 21  1  0  0  0  0
 20 21  2  0  0  0  0
 21 18  1  0  0  0  0
 22 19  1  0  0  0  0
 23 22  2  0  0  0  0
 23 20  1  0  0  0  0
 24 25  1  0  0  0  0
 26 25  1  0  0  0  0
 26 27  1  0  0  0  0
 28 29  2  0  0  0  0
 29 30  1  0  0  0  0
 29 27  1  0  0  0  0
M  END
>  <MODEL>
5

>  <REMARK>
 VINA RESULT:      -6.9      2.893      5.540
  Name = 
  7 active torsions:
  status: ('A' for Active; 'I' for Inactive)
    1  A    between atoms: C_4  and  C_13
    2  A    between atoms: N_7  and  C_16
    3  A    between atoms: C_8  and  C_12
    4  A    between atoms: C_8  and  C_13
    5  A    between atoms: C_13  and  S_27
    6  A    between atoms: C_16  and  C_30
    7  A    between atoms: S_27  and  C_30
                            x       y       z     vdW  Elec       q    Type
                         _______ _______ _______ _____ _____    ______ ____

>  <TORSDO>
F 7

$$$$
=
 OpenBabel11052417183D

 30 33  0  0  1  0  0  0  0  0999 V2000
  187.8560  177.4290  145.1660 N   0  0  0  0  0  0  0  0  0  0  0  0
  186.3690  178.2370  146.8760 C   0  0  0  0  0  0  0  0  0  0  0  0
  185.2910  178.5600  141.9790 C   0  0  0  0  0  2  0  0  0  0  0  0
  188.2460  177.1440  143.8170 C   0  0  0  0  0  0  0  0  0  0  0  0
  185.4570  177.7320  140.7150 C   0  0  0  0  0  2  0  0  0  0  0  0
  185.0920  178.5050  147.1650 C   0  0  0  0  0  3  0  0  0  0  0  0
  187.2660  178.0550  147.8770 F   0  0  0  0  0  0  0  0  0  0  0  0
  186.1260  178.0620  143.0800 N   0  0  0  0  0  0  0  0  0  0  0  0
  184.0820  178.6300  146.0920 C   0  0  0  0  0  3  0  0  0  0  0  0
  186.7690  178.0660  145.4700 C   0  0  0  0  0  0  0  0  0  0  0  0
  187.3970  177.4200  142.7990 C   0  0  0  0  0  0  0  0  0  0  0  0
  186.9270  177.7080  140.3460 C   0  0  0  0  0  2  0  0  0  0  0  0
  187.6950  176.9320  141.4030 C   0  0  0  0  0  2  0  0  0  0  0  0
  184.4420  178.6550  144.8020 C   0  0  0  0  0  3  0  0  0  0  0  0
  185.8980  178.6700  144.3980 C   0  0  2  0  0  3  0  0  0  0  0  0
  189.5670  176.4440  143.6370 C   0  0  1  0  0  3  0  0  0  0  0  0
  190.5800  178.6040  143.8930 O   0  0  0  0  0  0  0  0  0  0  0  0
  190.7500  177.3580  143.7990 C   0  0  0  0  0  0  0  0  0  0  0  0
  193.0710  176.6320  145.1850 S   0  0  0  0  0  0  0  0  0  0  0  0
  192.8230  176.3510  142.7210 C   0  0  0  0  0  3  0  0  0  0  0  0
  192.1120  176.8080  143.8200 C   0  0  0  0  0  0  0  0  0  0  0  0
  194.4110  175.9710  144.4120 C   0  0  0  0  0  3  0  0  0  0  0  0
  194.1030  175.8860  143.0560 C   0  0  0  0  0  3  0  0  0  0  0  0
  189.6990  174.8920  144.5870 S   0  0  0  0  0  0  0  0  0  0  0  0
  189.1490  173.8850  143.1780 C   0  0  0  0  0  2  0  0  0  0  0  0
  189.9800  174.2030  141.9500 C   0  0  0  0  0  2  0  0  0  0  0  0
  189.9550  173.0780  141.0280 N   0  0  0  0  0  2  0  0  0  0  0  0
  188.6510  174.1840  139.4360 O   0  0  0  0  0  0  0  0  0  0  0  0
  189.2660  173.1390  139.7800 C   0  0  0  0  0  0  0  0  0  0  0  0
  189.2750  171.9590  138.8770 C   0  0  0  0  0  1  0  0  0  0  0  0
  1 10  2  0  0  0  0
  2  6  2  0  0  0  0
  2  7  1  0  0  0  0
  3  8  1  0  0  0  0
  4  1  1  0  0  0  0
  5  3  1  0  0  0  0
  8 15  1  0  0  0  0
  9  6  1  0  0  0  0
 10  2  1  0  0  0  0
 11  8  1  0  0  0  0
 11  4  2  0  0  0  0
 12  5  1  0  0  0  0
 12 13  1  0  0  0  0
 13 11  1  0  0  0  0
 14  9  2  0  0  0  0
 15 14  1  1  0  0  0
 15 10  1  0  0  0  0
 16 18  1  1  0  0  0
 16  4  1  0  0  0  0
 16 24  1  0  0  0  0
 18 21  1  0  0  0  0
 18 17  2  0  0  0  0
 20 23  1  0  0  0  0
 20 21  2  0  0  0  0
 21 19  1  0  0  0  0
 22 19  1  0  0  0  0
 23 22  2  0  0  0  0
 25 24  1  0  0  0  0
 26 25  1  0  0  0  0
 27 26  1  0  0  0  0
 28 29  2  0  0  0  0
 29 27  1  0  0  0  0
 30 29  1  0  0  0  0
M  END
>  <MODEL>
6

>  <REMARK>
 VINA RESULT:      -6.9      1.253      1.532
  Name = 
  7 active torsions:
  status: ('A' for Active; 'I' for Inactive)
    1  A    between atoms: C_4  and  C_13
    2  A    between atoms: N_7  and  C_16
    3  A    between atoms: C_8  and  C_12
    4  A    between atoms: C_8  and  C_13
    5  A    between atoms: C_13  and  S_27
    6  A    between atoms: C_16  and  C_30
    7  A    between atoms: S_27  and  C_30
                            x       y       z     vdW  Elec       q    Type
                         _______ _______ _______ _____ _____    ______ ____

>  <TORSDO>
F 7

$$$$
=
 OpenBabel11052417183D

 30 33  0  0  1  0  0  0  0  0999 V2000
  191.7260  176.1060  142.9050 N   0  0  0  0  0  0  0  0  0  0  0  0
  194.1130  176.1890  142.6180 C   0  0  0  0  0  0  0  0  0  0  0  0
  191.9350  176.0660  147.1440 C   0  0  0  0  0  2  0  0  0  0  0  0
  190.5150  176.0260  143.6660 C   0  0  0  0  0  0  0  0  0  0  0  0
  190.7500  175.4000  147.8250 C   0  0  0  0  0  2  0  0  0  0  0  0
  195.2850  175.8850  143.1830 C   0  0  0  0  0  3  0  0  0  0  0  0
  194.0410  176.3960  141.2790 F   0  0  0  0  0  0  0  0  0  0  0  0
  191.8620  175.9620  145.6810 N   0  0  0  0  0  0  0  0  0  0  0  0
  195.3720  175.5780  144.6280 C   0  0  0  0  0  3  0  0  0  0  0  0
  192.8970  176.2160  143.4470 C   0  0  0  0  0  0  0  0  0  0  0  0
  190.5730  175.9230  145.0150 C   0  0  0  0  0  0  0  0  0  0  0  0
  189.4760  176.0060  147.2750 C   0  0  0  0  0  2  0  0  0  0  0  0
  189.3290  175.6220  145.8120 C   0  0  0  0  0  2  0  0  0  0  0  0
  194.3240  175.7660  145.4400 C   0  0  0  0  0  3  0  0  0  0  0  0
  193.0490  176.4020  144.9360 C   0  0  2  0  0  3  0  0  0  0  0  0
  189.2330  175.9560  142.8770 C   0  0  1  0  0  3  0  0  0  0  0  0
  189.3090  178.1740  141.9640 O   0  0  0  0  0  0  0  0  0  0  0  0
  188.6390  177.3080  142.5890 C   0  0  0  0  0  0  0  0  0  0  0  0
  185.8720  177.4200  142.1860 S   0  0  0  0  0  0  0  0  0  0  0  0
  186.9630  178.1780  144.2950 C   0  0  0  0  0  3  0  0  0  0  0  0
  187.2870  177.6350  143.0600 C   0  0  0  0  0  0  0  0  0  0  0  0
  184.8150  178.0090  143.3540 C   0  0  0  0  0  3  0  0  0  0  0  0
  185.5850  178.3840  144.4530 C   0  0  0  0  0  3  0  0  0  0  0  0
  189.3420  174.8710  141.4140 S   0  0  0  0  0  0  0  0  0  0  0  0
  188.0260  173.7770  142.0240 C   0  0  0  0  0  2  0  0  0  0  0  0
  188.5980  172.4210  142.3880 C   0  0  0  0  0  2  0  0  0  0  0  0
  189.9930  172.5580  142.7790 N   0  0  0  0  0  2  0  0  0  0  0  0
  189.5990  172.0400  145.0220 O   0  0  0  0  0  0  0  0  0  0  0  0
  190.4250  172.3510  144.1220 C   0  0  0  0  0  0  0  0  0  0  0  0
  191.8630  172.5050  144.4640 C   0  0  0  0  0  1  0  0  0  0  0  0
  1 10  2  0  0  0  0
  1  4  1  0  0  0  0
  2  6  2  0  0  0  0
  2 10  1  0  0  0  0
  3  5  1  0  0  0  0
  4 11  2  0  0  0  0
  6  9  1  0  0  0  0
  7  2  1  0  0  0  0
  8  3  1  0  0  0  0
  9 14  2  0  0  0  0
 10 15  1  0  0  0  0
 11  8  1  0  0  0  0
 11 13  1  0  0  0  0
 12  5  1  0  0  0  0
 13 12  1  0  0  0  0
 15 14  1  1  0  0  0
 15  8  1  0  0  0  0
 16 24  1  6  0  0  0
 16  4  1  0  0  0  0
 17 18  2  0  0  0  0
 18 16  1  0  0  0  0
 18 21  1  0  0  0  0
 19 21  1  0  0  0  0
 19 22  1  0  0  0  0
 20 23  1  0  0  0  0
 21 20  2  0  0  0  0
 22 23  2  0  0  0  0
 24 25  1  0  0  0  0
 25 26  1  0  0  0  0
 26 27  1  0  0  0  0
 27 29  1  0  0  0  0
 29 30  1  0  0  0  0
 29 28  2  0  0  0  0
M  END
>  <MODEL>
7

>  <REMARK>
 VINA RESULT:      -6.8      3.242      6.861
  Name = 
  7 active torsions:
  status: ('A' for Active; 'I' for Inactive)
    1  A    between atoms: C_4  and  C_13
    2  A    between atoms: N_7  and  C_16
    3  A    between atoms: C_8  and  C_12
    4  A    between atoms: C_8  and  C_13
    5  A    between atoms: C_13  and  S_27
    6  A    between atoms: C_16  and  C_30
    7  A    between atoms: S_27  and  C_30
                            x       y       z     vdW  Elec       q    Type
                         _______ _______ _______ _____ _____    ______ ____

>  <TORSDO>
F 7

$$$$
=
 OpenBabel11052417183D

 30 33  0  0  1  0  0  0  0  0999 V2000
  187.6730  176.8040  143.1890 N   0  0  0  0  0  0  0  0  0  0  0  0
  186.4720  177.2110  141.1440 C   0  0  0  0  0  0  0  0  0  0  0  0
  184.4400  177.9810  145.6750 C   0  0  0  0  0  2  0  0  0  0  0  0
  187.8410  176.7910  144.6110 C   0  0  0  0  0  0  0  0  0  0  0  0
  184.8560  178.5040  147.0400 C   0  0  0  0  0  2  0  0  0  0  0  0
  185.4810  177.9160  140.5900 C   0  0  0  0  0  3  0  0  0  0  0  0
  187.4280  176.6560  140.3590 F   0  0  0  0  0  0  0  0  0  0  0  0
  185.5970  177.6850  144.8200 N   0  0  0  0  0  0  0  0  0  0  0  0
  184.4720  178.5950  141.4320 C   0  0  0  0  0  3  0  0  0  0  0  0
  186.5560  177.1140  142.6110 C   0  0  0  0  0  0  0  0  0  0  0  0
  186.8490  177.2490  145.4110 C   0  0  0  0  0  0  0  0  0  0  0  0
  185.7900  177.4950  147.6780 C   0  0  0  0  0  2  0  0  0  0  0  0
  187.0870  177.4450  146.8870 C   0  0  0  0  0  2  0  0  0  0  0  0
  184.4160  178.3830  142.7530 C   0  0  0  0  0  3  0  0  0  0  0  0
  185.3060  177.3580  143.4180 C   0  0  2  0  0  3  0  0  0  0  0  0
  189.1900  176.3540  145.1200 C   0  0  1  0  0  3  0  0  0  0  0  0
  190.8060  176.2310  143.3510 O   0  0  0  0  0  0  0  0  0  0  0  0
  189.9990  175.6100  144.0940 C   0  0  0  0  0  0  0  0  0  0  0  0
  189.5270  173.3700  142.4840 S   0  0  0  0  0  0  0  0  0  0  0  0
  189.8950  173.2130  144.9440 C   0  0  0  0  0  3  0  0  0  0  0  0
  189.8320  174.1600  143.9310 C   0  0  0  0  0  0  0  0  0  0  0  0
  189.4680  171.8090  143.1080 C   0  0  0  0  0  3  0  0  0  0  0  0
  189.6910  171.9060  144.4800 C   0  0  0  0  0  3  0  0  0  0  0  0
  190.1120  177.6840  145.9630 S   0  0  0  0  0  0  0  0  0  0  0  0
  190.8440  176.5310  147.1630 C   0  0  0  0  0  2  0  0  0  0  0  0
  192.3260  176.3640  146.8920 C   0  0  0  0  0  2  0  0  0  0  0  0
  192.6360  174.9580  146.6800 N   0  0  0  0  0  2  0  0  0  0  0  0
  193.7410  175.3250  144.6550 O   0  0  0  0  0  0  0  0  0  0  0  0
  193.3520  174.5080  145.5310 C   0  0  0  0  0  0  0  0  0  0  0  0
  193.6420  173.0590  145.3670 C   0  0  0  0  0  1  0  0  0  0  0  0
  1  4  1  0  0  0  0
  2 10  1  0  0  0  0
  3  5  1  0  0  0  0
  4 16  1  0  0  0  0
  4 11  2  0  0  0  0
  5 12  1  0  0  0  0
  6  2  2  0  0  0  0
  6  9  1  0  0  0  0
  7  2  1  0  0  0  0
  8 11  1  0  0  0  0
  8  3  1  0  0  0  0
  9 14  2  0  0  0  0
 10  1  2  0  0  0  0
 10 15  1  0  0  0  0
 11 13  1  0  0  0  0
 13 12  1  0  0  0  0
 15 14  1  6  0  0  0
 15  8  1  0  0  0  0
 16 18  1  6  0  0  0
 16 24  1  0  0  0  0
 17 18  2  0  0  0  0
 19 22  1  0  0  0  0
 19 21  1  0  0  0  0
 21 18  1  0  0  0  0
 21 20  2  0  0  0  0
 22 23  2  0  0  0  0
 23 20  1  0  0  0  0
 24 25  1  0  0  0  0
 26 25  1  0  0  0  0
 27 26  1  0  0  0  0
 28 29  2  0  0  0  0
 29 27  1  0  0  0  0
 30 29  1  0  0  0  0
M  END
>  <MODEL>
8

>  <REMARK>
 VINA RESULT:      -6.8      2.676      5.253
  Name = 
  7 active torsions:
  status: ('A' for Active; 'I' for Inactive)
    1  A    between atoms: C_4  and  C_13
    2  A    between atoms: N_7  and  C_16
    3  A    between atoms: C_8  and  C_12
    4  A    between atoms: C_8  and  C_13
    5  A    between atoms: C_13  and  S_27
    6  A    between atoms: C_16  and  C_30
    7  A    between atoms: S_27  and  C_30
                            x       y       z     vdW  Elec       q    Type
                         _______ _______ _______ _____ _____    ______ ____

>  <TORSDO>
F 7

$$$$
=
 OpenBabel11052417183D

 30 33  0  0  1  0  0  0  0  0999 V2000
  188.5880  175.3990  142.1910 N   0  0  0  0  0  0  0  0  0  0  0  0
  187.0950  177.0830  141.3390 C   0  0  0  0  0  0  0  0  0  0  0  0
  187.7870  176.3190  146.2570 C   0  0  0  0  0  2  0  0  0  0  0  0
  189.2720  174.6760  143.2220 C   0  0  0  0  0  0  0  0  0  0  0  0
  188.9190  175.9770  147.2130 C   0  0  0  0  0  2  0  0  0  0  0  0
  186.5110  178.2530  141.6130 C   0  0  0  0  0  3  0  0  0  0  0  0
  187.2020  176.6640  140.0540 F   0  0  0  0  0  0  0  0  0  0  0  0
  188.1550  176.0770  144.8560 N   0  0  0  0  0  0  0  0  0  0  0  0
  186.4530  178.7660  142.9990 C   0  0  0  0  0  3  0  0  0  0  0  0
  187.6890  176.3000  142.4350 C   0  0  0  0  0  0  0  0  0  0  0  0
  189.0910  175.0210  144.5190 C   0  0  0  0  0  0  0  0  0  0  0  0
  189.3320  174.5390  146.9740 C   0  0  0  0  0  2  0  0  0  0  0  0
  189.9610  174.4210  145.5960 C   0  0  0  0  0  2  0  0  0  0  0  0
  186.8230  178.0020  144.0350 C   0  0  0  0  0  3  0  0  0  0  0  0
  187.2060  176.5530  143.8410 C   0  0  2  0  0  3  0  0  0  0  0  0
  190.2480  173.6250  142.7640 C   0  0  1  0  0  3  0  0  0  0  0  0
  188.9970  171.6050  143.1010 O   0  0  0  0  0  0  0  0  0  0  0  0
  189.5820  172.3650  142.2830 C   0  0  0  0  0  0  0  0  0  0  0  0
  188.6920  172.6710  139.6470 S   0  0  0  0  0  0  0  0  0  0  0  0
  190.4620  171.0410  140.2960 C   0  0  0  0  0  3  0  0  0  0  0  0
  189.6330  171.9990  140.8610 C   0  0  0  0  0  0  0  0  0  0  0  0
  189.3130  171.7620  138.3760 C   0  0  0  0  0  3  0  0  0  0  0  0
  190.2790  170.9130  138.9110 C   0  0  0  0  0  3  0  0  0  0  0  0
  191.5230  174.2660  141.6260 S   0  0  0  0  0  0  0  0  0  0  0  0
  192.7070  174.5460  142.9770 C   0  0  0  0  0  2  0  0  0  0  0  0
  193.2760  175.9480  142.8940 C   0  0  0  0  0  2  0  0  0  0  0  0
  192.1950  176.9200  142.8220 N   0  0  0  0  0  2  0  0  0  0  0  0
  192.0220  177.1610  145.1390 O   0  0  0  0  0  0  0  0  0  0  0  0
  191.6120  177.4890  143.9940 C   0  0  0  0  0  0  0  0  0  0  0  0
  190.5110  178.4770  143.8610 C   0  0  0  0  0  1  0  0  0  0  0  0
  1 10  2  0  0  0  0
  1  4  1  0  0  0  0
  2  6  2  0  0  0  0
  2 10  1  0  0  0  0
  3  5  1  0  0  0  0
  4 11  2  0  0  0  0
  6  9  1  0  0  0  0
  7  2  1  0  0  0  0
  8  3  1  0  0  0  0
  9 14  2  0  0  0  0
 10 15  1  0  0  0  0
 11  8  1  0  0  0  0
 11 13  1  0  0  0  0
 12  5  1  0  0  0  0
 13 12  1  0  0  0  0
 15 14  1  6  0  0  0
 15  8  1  0  0  0  0
 16 24  1  6  0  0  0
 16  4  1  0  0  0  0
 18 16  1  0  0  0  0
 18 17  2  0  0  0  0
 19 21  1  0  0  0  0
 20 21  2  0  0  0  0
 21 18  1  0  0  0  0
 22 23  2  0  0  0  0
 22 19  1  0  0  0  0
 23 20  1  0  0  0  0
 24 25  1  0  0  0  0
 26 25  1  0  0  0  0
 27 26  1  0  0  0  0
 27 29  1  0  0  0  0
 29 28  2  0  0  0  0
 30 29  1  0  0  0  0
M  END
>  <MODEL>
9

>  <REMARK>
 VINA RESULT:      -6.7      2.768      6.019
  Name = 
  7 active torsions:
  status: ('A' for Active; 'I' for Inactive)
    1  A    between atoms: C_4  and  C_13
    2  A    between atoms: N_7  and  C_16
    3  A    between atoms: C_8  and  C_12
    4  A    between atoms: C_8  and  C_13
    5  A    between atoms: C_13  and  S_27
    6  A    between atoms: C_16  and  C_30
    7  A    between atoms: S_27  and  C_30
                            x       y       z     vdW  Elec       q    Type
                         _______ _______ _______ _____ _____    ______ ____

>  <TORSDO>
F 7

$$$$
