=
 OpenBabel11052420073D

 37 44  0  0  1  0  0  0  0  0999 V2000
  192.1720  174.0670  142.3710 C   0  0  0  0  0  2  0  0  0  0  0  0
  195.6260  174.4680  146.0620 C   0  0  0  0  0  1  0  0  0  0  0  0
  190.7780  177.2140  144.0380 C   0  0  2  0  0  3  0  0  0  0  0  0
  192.3110  173.8270  139.8270 C   0  0  1  0  0  3  0  0  0  0  0  0
  188.7420  174.3270  142.5140 C   0  0  0  0  0  2  0  0  0  0  0  0
  193.6410  175.8000  146.7170 C   0  0  0  0  0  2  0  0  0  0  0  0
  190.5750  175.8340  143.3700 C   0  0  2  0  0  3  0  0  0  0  0  0
  192.2810  177.3610  144.2570 C   0  0  2  0  0  3  0  0  0  0  0  0
  189.3460  174.9870  143.7540 C   0  0  1  0  0  3  0  0  0  0  0  0
  192.2480  175.2910  147.0280 C   0  0  0  0  0  2  0  0  0  0  0  0
  191.5690  172.6960  139.4610 O   0  0  0  0  0  0  0  0  0  0  0  0
  192.9170  176.1150  143.6360 C   0  0  1  0  0  3  0  0  0  0  0  0
  194.2270  175.6840  144.2870 C   0  0  1  0  0  0  0  0  0  0  0  0
  189.9030  175.5340  146.5390 C   0  0  0  0  0  3  0  0  0  0  0  0
  191.1440  175.9620  146.2580 C   0  0  0  0  0  0  0  0  0  0  0  0
  195.4360  176.4160  143.8520 C   0  0  0  0  0  2  0  0  0  0  0  0
  190.2370  173.1090  139.6090 C   0  0  2  0  0  3  0  0  0  0  0  0
  189.6390  173.4140  141.9480 O   0  0  0  0  0  0  0  0  0  0  0  0
  191.3380  177.2550  145.4720 C   0  0  2  0  0  3  0  0  0  0  0  0
  191.8670  175.0440  143.5140 C   0  0  2  0  0  3  0  0  0  0  0  0
  194.2430  174.9370  145.6280 C   0  0  1  0  0  3  0  0  0  0  0  0
  188.2480  175.6510  144.6150 C   0  0  1  0  0  3  0  0  0  0  0  0
  195.1140  175.1370  143.3440 O   0  0  0  0  0  0  0  0  0  0  0  0
  190.1570  174.0570  140.8080 C   0  0  1  0  0  3  0  0  0  0  0  0
  191.6080  174.4970  141.0040 C   0  0  1  0  0  3  0  0  0  0  0  0
  188.6710  176.1930  145.9860 C   0  0  0  0  0  2  0  0  0  0  0  0
  186.7720  176.2620  142.6500 C   0  0  0  0  0  3  0  0  0  0  0  0
  187.3450  176.6000  143.8820 C   0  0  0  0  0  0  0  0  0  0  0  0
  187.0650  177.8460  144.4490 C   0  0  0  0  0  3  0  0  0  0  0  0
  185.9410  179.9430  144.3210 F   0  0  0  0  0  0  0  0  0  0  0  0
  185.6750  178.3820  142.5820 N   0  0  0  0  0  0  0  0  0  0  0  0
  186.2200  178.7330  143.7780 C   0  0  0  0  0  0  0  0  0  0  0  0
  185.9330  177.1760  142.0100 C   0  0  0  0  0  3  0  0  0  0  0  0
  189.3110  171.9000  139.6890 C   0  0  0  0  0  2  0  0  0  0  0  0
  189.6920  170.8760  138.6380 C   0  0  0  0  0  1  0  0  0  0  0  0
  194.7170  174.3310  139.7150 C   0  0  0  0  0  2  0  0  0  0  0  0
  193.7530  173.4830  140.0620 C   0  0  0  0  0  3  0  0  0  0  0  0
  1 20  1  0  0  0  0
  3  8  1  0  0  0  0
  3 19  1  0  0  0  0
  4 37  1  0  0  0  0
  4 25  1  0  0  0  0
  5  9  1  0  0  0  0
  6 10  1  0  0  0  0
  7 20  1  0  0  0  0
  7  9  1  0  0  0  0
  7  3  1  0  0  0  0
  8 19  1  0  0  0  0
  9 22  1  0  0  0  0
 11 17  1  0  0  0  0
 11  4  1  0  0  0  0
 12  8  1  0  0  0  0
 12 13  1  0  0  0  0
 13 21  1  0  0  0  0
 15 14  2  0  0  0  0
 15 10  1  0  0  0  0
 16 13  1  0  0  0  0
 17 34  1  0  0  0  0
 17 24  1  0  0  0  0
 18  5  1  0  0  0  0
 19 15  1  0  0  0  0
 20 12  1  0  0  0  0
 21  2  1  0  0  0  0
 21  6  1  0  0  0  0
 22 26  1  0  0  0  0
 23 16  1  0  0  0  0
 23 13  1  0  0  0  0
 24 25  1  0  0  0  0
 24 18  1  0  0  0  0
 25  1  1  0  0  0  0
 26 14  1  0  0  0  0
 27 28  1  0  0  0  0
 28 29  2  0  0  0  0
 28 22  1  0  0  0  0
 31 32  2  0  0  0  0
 32 30  1  0  0  0  0
 32 29  1  0  0  0  0
 33 31  1  0  0  0  0
 33 27  2  0  0  0  0
 35 34  1  0  0  0  0
 36 37  2  0  0  0  0
M  END
>  <MODEL>
1

>  <REMARK>
 VINA RESULT:      -8.4      0.000      0.000
  Name = 
  3 active torsions:
  status: ('A' for Active; 'I' for Inactive)
    1  A    between atoms: C_5  and  C_23
    2  A    between atoms: C_6  and  C_31
    3  A    between atoms: C_11  and  C_26
                            x       y       z     vdW  Elec       q    Type
                         _______ _______ _______ _____ _____    ______ ____

>  <TORSDO>
F 3

$$$$
=
 OpenBabel11052420073D

 37 44  0  0  1  0  0  0  0  0999 V2000
  192.2480  173.6580  143.3680 C   0  0  0  0  0  2  0  0  0  0  0  0
  191.6870  171.2000  138.9690 C   0  0  0  0  0  1  0  0  0  0  0  0
  188.4290  173.4560  143.3770 C   0  0  2  0  0  3  0  0  0  0  0  0
  193.6350  173.2320  145.4760 C   0  0  1  0  0  3  0  0  0  0  0  0
  190.5770  176.4070  144.5950 C   0  0  0  0  0  2  0  0  0  0  0  0
  189.5230  172.2690  139.5350 C   0  0  0  0  0  2  0  0  0  0  0  0
  189.7430  174.2340  143.6210 C   0  0  2  0  0  3  0  0  0  0  0  0
  188.8280  172.1620  142.6720 C   0  0  2  0  0  3  0  0  0  0  0  0
  189.7430  175.7690  143.4830 C   0  0  1  0  0  3  0  0  0  0  0  0
  189.2200  173.7510  139.6250 C   0  0  0  0  0  2  0  0  0  0  0  0
  194.3950  174.3820  145.7300 O   0  0  0  0  0  0  0  0  0  0  0  0
  190.3560  172.1790  142.6030 C   0  0  1  0  0  3  0  0  0  0  0  0
  190.9430  171.4240  141.4140 C   0  0  1  0  0  0  0  0  0  0  0  0
  188.2880  175.4950  140.9970 C   0  0  0  0  0  3  0  0  0  0  0  0
  188.5800  174.1870  140.9130 C   0  0  0  0  0  0  0  0  0  0  0  0
  191.0500  169.9570  141.5700 C   0  0  0  0  0  2  0  0  0  0  0  0
  193.4560  175.3010  146.2200 C   0  0  2  0  0  3  0  0  0  0  0  0
  191.9220  176.0410  144.4810 O   0  0  0  0  0  0  0  0  0  0  0  0
  187.9830  173.2130  141.9240 C   0  0  2  0  0  3  0  0  0  0  0  0
  190.8340  173.5960  142.7750 C   0  0  2  0  0  3  0  0  0  0  0  0
  190.9430  172.0320  140.0050 C   0  0  1  0  0  3  0  0  0  0  0  0
  188.3810  176.4840  143.3350 C   0  0  1  0  0  3  0  0  0  0  0  0
  192.1620  170.8100  141.7470 O   0  0  0  0  0  0  0  0  0  0  0  0
  192.1330  175.0760  145.4840 C   0  0  1  0  0  3  0  0  0  0  0  0
  192.2880  173.6690  144.9080 C   0  0  1  0  0  3  0  0  0  0  0  0
  187.5080  176.0820  142.1390 C   0  0  0  0  0  2  0  0  0  0  0  0
  188.1240  176.2600  145.8450 C   0  0  0  0  0  3  0  0  0  0  0  0
  187.5850  176.6130  144.6020 C   0  0  0  0  0  0  0  0  0  0  0  0
  186.2800  177.1070  144.5360 C   0  0  0  0  0  3  0  0  0  0  0  0
  184.2680  177.7160  145.6580 F   0  0  0  0  0  0  0  0  0  0  0  0
  186.0790  176.8880  146.9070 N   0  0  0  0  0  0  0  0  0  0  0  0
  185.5350  177.2380  145.7110 C   0  0  0  0  0  0  0  0  0  0  0  0
  187.3480  176.4050  146.9960 C   0  0  0  0  0  3  0  0  0  0  0  0
  194.0040  176.7210  146.1270 C   0  0  0  0  0  2  0  0  0  0  0  0
  195.1370  176.7830  145.1210 C   0  0  0  0  0  1  0  0  0  0  0  0
  194.3820  170.9540  144.9250 C   0  0  0  0  0  2  0  0  0  0  0  0
  194.3920  172.2510  144.6300 C   0  0  0  0  0  3  0  0  0  0  0  0
  1 25  1  0  0  0  0
  2 21  1  0  0  0  0
  3  7  1  0  0  0  0
  4 11  1  0  0  0  0
  6 10  1  0  0  0  0
  6 21  1  0  0  0  0
  8  3  1  0  0  0  0
  9  7  1  0  0  0  0
  9  5  1  0  0  0  0
 10 15  1  0  0  0  0
 11 17  1  0  0  0  0
 12  8  1  0  0  0  0
 12 20  1  0  0  0  0
 13 16  1  0  0  0  0
 13 23  1  0  0  0  0
 13 12  1  0  0  0  0
 14 26  1  0  0  0  0
 15 14  2  0  0  0  0
 15 19  1  0  0  0  0
 16 23  1  0  0  0  0
 18  5  1  0  0  0  0
 18 24  1  0  0  0  0
 19  8  1  0  0  0  0
 19  3  1  0  0  0  0
 20  1  1  0  0  0  0
 20  7  1  0  0  0  0
 21 13  1  0  0  0  0
 22  9  1  0  0  0  0
 22 28  1  0  0  0  0
 24 17  1  0  0  0  0
 25  4  1  0  0  0  0
 25 24  1  0  0  0  0
 26 22  1  0  0  0  0
 27 33  1  0  0  0  0
 28 27  2  0  0  0  0
 29 28  1  0  0  0  0
 29 32  2  0  0  0  0
 30 32  1  0  0  0  0
 31 33  2  0  0  0  0
 32 31  1  0  0  0  0
 34 17  1  0  0  0  0
 35 34  1  0  0  0  0
 37 36  2  0  0  0  0
 37  4  1  0  0  0  0
M  END
>  <MODEL>
2

>  <REMARK>
 VINA RESULT:      -8.2      2.069      5.652
  Name = 
  3 active torsions:
  status: ('A' for Active; 'I' for Inactive)
    1  A    between atoms: C_5  and  C_23
    2  A    between atoms: C_6  and  C_31
    3  A    between atoms: C_11  and  C_26
                            x       y       z     vdW  Elec       q    Type
                         _______ _______ _______ _____ _____    ______ ____

>  <TORSDO>
F 3

$$$$
=
 OpenBabel11052420073D

 37 44  0  0  1  0  0  0  0  0999 V2000
  188.5800  175.1290  141.7150 C   0  0  0  0  0  2  0  0  0  0  0  0
  189.0690  171.2130  138.5310 C   0  0  0  0  0  1  0  0  0  0  0  0
  192.2880  174.4270  142.3310 C   0  0  2  0  0  3  0  0  0  0  0  0
  187.6700  177.5090  141.4760 C   0  0  1  0  0  3  0  0  0  0  0  0
  189.6850  175.4970  144.9540 C   0  0  0  0  0  2  0  0  0  0  0  0
  190.9620  171.1460  140.1310 C   0  0  0  0  0  2  0  0  0  0  0  0
  190.8750  174.7800  142.8480 C   0  0  2  0  0  3  0  0  0  0  0  0
  192.1200  174.0540  140.8610 C   0  0  2  0  0  3  0  0  0  0  0  0
  190.4760  174.3750  144.2800 C   0  0  1  0  0  3  0  0  0  0  0  0
  190.9000  170.9100  141.6260 C   0  0  0  0  0  2  0  0  0  0  0  0
  186.6970  177.6980  142.4660 O   0  0  0  0  0  0  0  0  0  0  0  0
  190.6420  174.2840  140.5390 C   0  0  1  0  0  3  0  0  0  0  0  0
  190.0900  173.3860  139.4360 C   0  0  1  0  0  0  0  0  0  0  0  0
  191.5670  171.7420  143.7840 C   0  0  0  0  0  3  0  0  0  0  0  0
  191.5970  171.9500  142.4580 C   0  0  0  0  0  0  0  0  0  0  0  0
  190.3720  173.8180  138.0500 C   0  0  0  0  0  2  0  0  0  0  0  0
  187.4420  177.8240  143.6470 C   0  0  2  0  0  3  0  0  0  0  0  0
  188.4700  175.7160  144.2970 O   0  0  0  0  0  0  0  0  0  0  0  0
  192.5590  172.9810  141.8770 C   0  0  2  0  0  3  0  0  0  0  0  0
  189.8610  174.2920  141.8250 C   0  0  2  0  0  3  0  0  0  0  0  0
  189.7300  171.9190  139.7080 C   0  0  1  0  0  3  0  0  0  0  0  0
  191.5820  173.8390  145.2170 C   0  0  1  0  0  3  0  0  0  0  0  0
  189.1230  174.0540  138.6650 O   0  0  0  0  0  0  0  0  0  0  0  0
  188.6550  176.8960  143.5520 C   0  0  1  0  0  3  0  0  0  0  0  0
  188.7680  176.6200  142.0530 C   0  0  1  0  0  3  0  0  0  0  0  0
  192.3390  172.5870  144.7580 C   0  0  0  0  0  2  0  0  0  0  0  0
  193.7990  175.0610  145.2930 C   0  0  0  0  0  3  0  0  0  0  0  0
  192.5000  174.8830  145.7850 C   0  0  0  0  0  0  0  0  0  0  0  0
  192.0420  175.6990  146.8220 C   0  0  0  0  0  3  0  0  0  0  0  0
  192.4510  177.4740  148.3570 F   0  0  0  0  0  0  0  0  0  0  0  0
  194.1450  176.8320  146.8580 N   0  0  0  0  0  0  0  0  0  0  0  0
  192.8870  176.6780  147.3520 C   0  0  0  0  0  0  0  0  0  0  0  0
  194.6130  176.0490  145.8490 C   0  0  0  0  0  3  0  0  0  0  0  0
  186.5530  177.5890  144.8640 C   0  0  0  0  0  2  0  0  0  0  0  0
  185.8150  178.8620  145.2300 C   0  0  0  0  0  1  0  0  0  0  0  0
  185.8930  177.4900  139.7750 C   0  0  0  0  0  2  0  0  0  0  0  0
  187.0620  177.0150  140.1960 C   0  0  0  0  0  3  0  0  0  0  0  0
  1 20  1  0  0  0  0
  1 25  1  0  0  0  0
  2 21  1  0  0  0  0
  3  7  1  0  0  0  0
  4 25  1  0  0  0  0
  4 11  1  0  0  0  0
  6 10  1  0  0  0  0
  7  9  1  0  0  0  0
  8 19  1  0  0  0  0
  8  3  1  0  0  0  0
  9  5  1  0  0  0  0
  9 22  1  0  0  0  0
 10 15  1  0  0  0  0
 11 17  1  0  0  0  0
 12  8  1  0  0  0  0
 12 20  1  0  0  0  0
 13 21  1  0  0  0  0
 13 12  1  0  0  0  0
 14 26  1  0  0  0  0
 15 14  2  0  0  0  0
 16 23  1  0  0  0  0
 16 13  1  0  0  0  0
 17 34  1  0  0  0  0
 18  5  1  0  0  0  0
 19  3  1  0  0  0  0
 19 15  1  0  0  0  0
 20  7  1  0  0  0  0
 21  6  1  0  0  0  0
 22 28  1  0  0  0  0
 23 13  1  0  0  0  0
 24 17  1  0  0  0  0
 24 18  1  0  0  0  0
 25 24  1  0  0  0  0
 26 22  1  0  0  0  0
 27 28  2  0  0  0  0
 27 33  1  0  0  0  0
 28 29  1  0  0  0  0
 29 32  2  0  0  0  0
 31 32  1  0  0  0  0
 32 30  1  0  0  0  0
 33 31  2  0  0  0  0
 34 35  1  0  0  0  0
 36 37  2  0  0  0  0
 37  4  1  0  0  0  0
M  END
>  <MODEL>
3

>  <REMARK>
 VINA RESULT:      -7.9      2.840      6.661
  Name = 
  3 active torsions:
  status: ('A' for Active; 'I' for Inactive)
    1  A    between atoms: C_5  and  C_23
    2  A    between atoms: C_6  and  C_31
    3  A    between atoms: C_11  and  C_26
                            x       y       z     vdW  Elec       q    Type
                         _______ _______ _______ _____ _____    ______ ____

>  <TORSDO>
F 3

$$$$
=
 OpenBabel11052420073D

 37 44  0  0  1  0  0  0  0  0999 V2000
  192.6930  173.5400  142.0700 C   0  0  0  0  0  2  0  0  0  0  0  0
  190.9510  171.2330  137.9040 C   0  0  0  0  0  1  0  0  0  0  0  0
  189.0230  173.2960  143.1160 C   0  0  2  0  0  3  0  0  0  0  0  0
  194.6050  173.0550  143.7010 C   0  0  1  0  0  3  0  0  0  0  0  0
  191.4190  176.2250  143.8080 C   0  0  0  0  0  2  0  0  0  0  0  0
  189.0240  172.2580  139.0800 C   0  0  0  0  0  2  0  0  0  0  0  0
  190.3520  174.0800  143.0190 C   0  0  2  0  0  3  0  0  0  0  0  0
  189.2140  172.0330  142.2810 C   0  0  2  0  0  3  0  0  0  0  0  0
  190.3130  175.6180  142.9440 C   0  0  1  0  0  3  0  0  0  0  0  0
  188.7560  173.7320  139.3040 C   0  0  0  0  0  2  0  0  0  0  0  0
  195.4040  174.2030  143.7800 O   0  0  0  0  0  0  0  0  0  0  0  0
  190.6650  172.0690  141.7980 C   0  0  1  0  0  3  0  0  0  0  0  0
  190.9050  171.3630  140.4670 C   0  0  1  0  0  0  0  0  0  0  0  0
  188.2340  175.4160  140.9420 C   0  0  0  0  0  3  0  0  0  0  0  0
  188.4930  174.1150  140.7330 C   0  0  0  0  0  0  0  0  0  0  0  0
  191.0510  169.8930  140.5330 C   0  0  0  0  0  2  0  0  0  0  0  0
  194.6350  175.0940  144.5410 C   0  0  2  0  0  3  0  0  0  0  0  0
  192.6830  175.8780  143.3170 O   0  0  0  0  0  0  0  0  0  0  0  0
  188.1960  173.1000  141.8320 C   0  0  2  0  0  3  0  0  0  0  0  0
  191.1710  173.4840  141.8850 C   0  0  2  0  0  3  0  0  0  0  0  0
  190.5190  172.0200  139.1350 C   0  0  1  0  0  3  0  0  0  0  0  0
  188.9620  176.3230  143.2010 C   0  0  1  0  0  3  0  0  0  0  0  0
  192.1690  170.7500  140.4300 O   0  0  0  0  0  0  0  0  0  0  0  0
  193.1610  174.8810  144.1880 C   0  0  1  0  0  3  0  0  0  0  0  0
  193.1530  173.4970  143.5400 C   0  0  1  0  0  3  0  0  0  0  0  0
  187.7960  175.9540  142.2750 C   0  0  0  0  0  2  0  0  0  0  0  0
  187.7610  177.4560  145.1210 C   0  0  0  0  0  3  0  0  0  0  0  0
  188.5440  176.3990  144.6410 C   0  0  0  0  0  0  0  0  0  0  0  0
  188.9380  175.3840  145.5170 C   0  0  0  0  0  3  0  0  0  0  0  0
  188.9230  174.4630  147.7140 F   0  0  0  0  0  0  0  0  0  0  0  0
  187.7870  176.4800  147.3010 N   0  0  0  0  0  0  0  0  0  0  0  0
  188.5460  175.4420  146.8570 C   0  0  0  0  0  0  0  0  0  0  0  0
  187.3910  177.4790  146.4670 C   0  0  0  0  0  3  0  0  0  0  0  0
  195.1350  176.5230  144.3550 C   0  0  0  0  0  2  0  0  0  0  0  0
  196.3400  176.5420  143.4350 C   0  0  0  0  0  1  0  0  0  0  0  0
  196.2490  172.3460  142.0150 C   0  0  0  0  0  2  0  0  0  0  0  0
  195.1020  172.1120  142.6450 C   0  0  0  0  0  3  0  0  0  0  0  0
  1 25  1  0  0  0  0
  2 21  1  0  0  0  0
  4 11  1  0  0  0  0
  6 21  1  0  0  0  0
  6 10  1  0  0  0  0
  7  3  1  0  0  0  0
  8  3  1  0  0  0  0
  9  7  1  0  0  0  0
  9 22  1  0  0  0  0
  9  5  1  0  0  0  0
 10 15  1  0  0  0  0
 11 17  1  0  0  0  0
 12 20  1  0  0  0  0
 12  8  1  0  0  0  0
 13 16  1  0  0  0  0
 13 12  1  0  0  0  0
 14 26  1  0  0  0  0
 15 14  2  0  0  0  0
 15 19  1  0  0  0  0
 18  5  1  0  0  0  0
 18 24  1  0  0  0  0
 19  8  1  0  0  0  0
 19  3  1  0  0  0  0
 20  1  1  0  0  0  0
 20  7  1  0  0  0  0
 21 13  1  0  0  0  0
 22 28  1  0  0  0  0
 23 13  1  0  0  0  0
 23 16  1  0  0  0  0
 24 17  1  0  0  0  0
 25  4  1  0  0  0  0
 25 24  1  0  0  0  0
 26 22  1  0  0  0  0
 27 33  1  0  0  0  0
 28 27  2  0  0  0  0
 28 29  1  0  0  0  0
 29 32  2  0  0  0  0
 32 31  1  0  0  0  0
 32 30  1  0  0  0  0
 33 31  2  0  0  0  0
 34 17  1  0  0  0  0
 35 34  1  0  0  0  0
 36 37  2  0  0  0  0
 37  4  1  0  0  0  0
M  END
>  <MODEL>
4

>  <REMARK>
 VINA RESULT:      -7.9      2.288      5.758
  Name = 
  3 active torsions:
  status: ('A' for Active; 'I' for Inactive)
    1  A    between atoms: C_5  and  C_23
    2  A    between atoms: C_6  and  C_31
    3  A    between atoms: C_11  and  C_26
                            x       y       z     vdW  Elec       q    Type
                         _______ _______ _______ _____ _____    ______ ____

>  <TORSDO>
F 3

$$$$
=
 OpenBabel11052420073D

 37 44  0  0  1  0  0  0  0  0999 V2000
  188.0800  176.5170  144.4190 C   0  0  0  0  0  2  0  0  0  0  0  0
  191.3860  176.6030  148.2630 C   0  0  0  0  0  1  0  0  0  0  0  0
  189.9180  173.2680  143.5880 C   0  0  2  0  0  3  0  0  0  0  0  0
  185.5330  176.7140  144.2620 C   0  0  1  0  0  3  0  0  0  0  0  0
  188.5900  175.8640  141.0780 C   0  0  0  0  0  2  0  0  0  0  0  0
  192.2620  175.0650  146.5280 C   0  0  0  0  0  2  0  0  0  0  0  0
  189.2610  174.5990  143.1550 C   0  0  2  0  0  3  0  0  0  0  0  0
  189.9770  173.3020  145.1120 C   0  0  2  0  0  3  0  0  0  0  0  0
  189.7650  175.3060  141.8810 C   0  0  1  0  0  3  0  0  0  0  0  0
  192.7140  175.4160  145.1250 C   0  0  0  0  0  2  0  0  0  0  0  0
  185.2370  177.7420  143.3570 O   0  0  0  0  0  0  0  0  0  0  0  0
  189.2790  174.5980  145.5280 C   0  0  1  0  0  3  0  0  0  0  0  0
  189.7830  175.1930  146.8390 C   0  0  1  0  0  0  0  0  0  0  0  0
  192.4810  174.8910  142.7870 C   0  0  0  0  0  3  0  0  0  0  0  0
  192.0730  174.6030  144.0340 C   0  0  0  0  0  0  0  0  0  0  0  0
  189.2280  174.5970  148.0740 C   0  0  0  0  0  2  0  0  0  0  0  0
  185.5300  177.1810  142.1060 C   0  0  2  0  0  3  0  0  0  0  0  0
  187.9230  176.8620  141.7960 O   0  0  0  0  0  0  0  0  0  0  0  0
  191.2840  173.3250  144.2950 C   0  0  2  0  0  3  0  0  0  0  0  0
  189.2580  175.5370  144.3520 C   0  0  2  0  0  3  0  0  0  0  0  0
  191.1060  175.9670  146.9070 C   0  0  1  0  0  3  0  0  0  0  0  0
  190.7450  174.5390  140.9660 C   0  0  1  0  0  3  0  0  0  0  0  0
  188.7450  175.8180  147.5520 O   0  0  0  0  0  0  0  0  0  0  0  0
  186.7400  176.2580  142.2650 C   0  0  1  0  0  3  0  0  0  0  0  0
  186.7850  175.9930  143.7690 C   0  0  1  0  0  3  0  0  0  0  0  0
  192.0690  174.0810  141.5910 C   0  0  0  0  0  2  0  0  0  0  0  0
  189.0910  173.7700  139.2090 C   0  0  0  0  0  3  0  0  0  0  0  0
  190.1220  173.4750  140.1090 C   0  0  0  0  0  0  0  0  0  0  0  0
  190.5910  172.1630  140.2090 C   0  0  0  0  0  3  0  0  0  0  0  0
  190.4700  169.8920  139.4980 F   0  0  0  0  0  0  0  0  0  0  0  0
  189.0220  171.4780  138.5430 N   0  0  0  0  0  0  0  0  0  0  0  0
  190.0220  171.1670  139.4100 C   0  0  0  0  0  0  0  0  0  0  0  0
  188.5480  172.7480  138.4290 C   0  0  0  0  0  3  0  0  0  0  0  0
  185.6950  178.2760  141.0580 C   0  0  0  0  0  2  0  0  0  0  0  0
  184.3880  178.5030  140.3240 C   0  0  0  0  0  1  0  0  0  0  0  0
  184.6250  177.9640  146.1770 C   0  0  0  0  0  2  0  0  0  0  0  0
  185.6100  177.2280  145.6700 C   0  0  0  0  0  3  0  0  0  0  0  0
  3 19  1  0  0  0  0
  3  8  1  0  0  0  0
  4 37  1  0  0  0  0
  5 18  1  0  0  0  0
  5  9  1  0  0  0  0
  6 21  1  0  0  0  0
  7  3  1  0  0  0  0
  7 20  1  0  0  0  0
  8 12  1  0  0  0  0
  9  7  1  0  0  0  0
 10  6  1  0  0  0  0
 11  4  1  0  0  0  0
 12 13  1  0  0  0  0
 13 21  1  0  0  0  0
 13 23  1  0  0  0  0
 13 16  1  0  0  0  0
 14 15  2  0  0  0  0
 15 19  1  0  0  0  0
 15 10  1  0  0  0  0
 17 24  1  0  0  0  0
 17 11  1  0  0  0  0
 18 24  1  0  0  0  0
 19  8  1  0  0  0  0
 20  1  1  0  0  0  0
 20 12  1  0  0  0  0
 21  2  1  0  0  0  0
 22 26  1  0  0  0  0
 22  9  1  0  0  0  0
 23 16  1  0  0  0  0
 24 25  1  0  0  0  0
 25  4  1  0  0  0  0
 25  1  1  0  0  0  0
 26 14  1  0  0  0  0
 27 28  1  0  0  0  0
 28 29  2  0  0  0  0
 28 22  1  0  0  0  0
 31 32  2  0  0  0  0
 32 30  1  0  0  0  0
 32 29  1  0  0  0  0
 33 31  1  0  0  0  0
 33 27  2  0  0  0  0
 34 17  1  0  0  0  0
 35 34  1  0  0  0  0
 37 36  2  0  0  0  0
M  END
>  <MODEL>
5

>  <REMARK>
 VINA RESULT:      -7.7      3.346      6.462
  Name = 
  3 active torsions:
  status: ('A' for Active; 'I' for Inactive)
    1  A    between atoms: C_5  and  C_23
    2  A    between atoms: C_6  and  C_31
    3  A    between atoms: C_11  and  C_26
                            x       y       z     vdW  Elec       q    Type
                         _______ _______ _______ _____ _____    ______ ____

>  <TORSDO>
F 3

$$$$
=
 OpenBabel11052420073D

 37 44  0  0  1  0  0  0  0  0999 V2000
  194.0660  172.4080  145.3910 C   0  0  0  0  0  2  0  0  0  0  0  0
  191.8990  176.3830  147.6740 C   0  0  0  0  0  1  0  0  0  0  0  0
  191.9110  173.5730  142.4550 C   0  0  2  0  0  3  0  0  0  0  0  0
  196.4890  171.6430  145.0780 C   0  0  1  0  0  3  0  0  0  0  0  0
  192.6620  169.9340  143.4530 C   0  0  0  0  0  2  0  0  0  0  0  0
  190.5190  175.7790  145.7050 C   0  0  0  0  0  2  0  0  0  0  0  0
  192.4980  172.4480  143.3400 C   0  0  2  0  0  3  0  0  0  0  0  0
  192.2580  174.8850  143.1530 C   0  0  2  0  0  3  0  0  0  0  0  0
  191.7130  171.1320  143.5000 C   0  0  1  0  0  3  0  0  0  0  0  0
  189.7320  174.5030  145.4840 C   0  0  0  0  0  2  0  0  0  0  0  0
  196.5880  170.3270  145.5500 O   0  0  0  0  0  0  0  0  0  0  0  0
  193.1060  174.5000  144.3670 C   0  0  1  0  0  3  0  0  0  0  0  0
  192.9960  175.4640  145.5440 C   0  0  1  0  0  0  0  0  0  0  0  0
  189.3140  172.6790  143.9710 C   0  0  0  0  0  3  0  0  0  0  0  0
  190.0210  173.8000  144.1870 C   0  0  0  0  0  0  0  0  0  0  0  0
  193.8260  176.6860  145.4570 C   0  0  0  0  0  2  0  0  0  0  0  0
  195.9480  169.5680  144.5600 C   0  0  2  0  0  3  0  0  0  0  0  0
  193.5450  169.9540  144.5380 O   0  0  0  0  0  0  0  0  0  0  0  0
  190.7850  174.4460  143.0360 C   0  0  2  0  0  3  0  0  0  0  0  0
  192.8640  173.0500  144.6880 C   0  0  2  0  0  3  0  0  0  0  0  0
  191.7790  175.4470  146.4780 C   0  0  1  0  0  3  0  0  0  0  0  0
  190.4890  170.9020  142.5860 C   0  0  1  0  0  3  0  0  0  0  0  0
  194.2160  175.5730  146.2350 O   0  0  0  0  0  0  0  0  0  0  0  0
  194.7770  170.3850  144.0100 C   0  0  1  0  0  3  0  0  0  0  0  0
  195.1170  171.8140  144.4330 C   0  0  1  0  0  3  0  0  0  0  0  0
  189.3550  171.9310  142.6680 C   0  0  0  0  0  2  0  0  0  0  0  0
  190.9910  169.1840  140.7940 C   0  0  0  0  0  3  0  0  0  0  0  0
  190.8090  170.5200  141.1700 C   0  0  0  0  0  0  0  0  0  0  0  0
  190.9190  171.5240  140.2040 C   0  0  0  0  0  3  0  0  0  0  0  0
  191.3170  172.1440  137.9380 F   0  0  0  0  0  0  0  0  0  0  0  0
  191.3820  169.8730  138.5410 N   0  0  0  0  0  0  0  0  0  0  0  0
  191.2090  171.1780  138.8820 C   0  0  0  0  0  0  0  0  0  0  0  0
  191.2800  168.8780  139.4630 C   0  0  0  0  0  3  0  0  0  0  0  0
  195.5680  168.1960  145.1050 C   0  0  0  0  0  2  0  0  0  0  0  0
  195.7180  168.1690  146.6140 C   0  0  0  0  0  1  0  0  0  0  0  0
  197.2860  173.8400  145.8450 C   0  0  0  0  0  2  0  0  0  0  0  0
  196.8120  172.6370  146.1550 C   0  0  0  0  0  3  0  0  0  0  0  0
  3 19  1  0  0  0  0
  3  8  1  0  0  0  0
  3  7  1  0  0  0  0
  4 11  1  0  0  0  0
  4 37  1  0  0  0  0
  5  9  1  0  0  0  0
  5 18  1  0  0  0  0
  6 21  1  0  0  0  0
  7  9  1  0  0  0  0
  7 20  1  0  0  0  0
  8 12  1  0  0  0  0
 10  6  1  0  0  0  0
 12 20  1  0  0  0  0
 12 13  1  0  0  0  0
 13 23  1  0  0  0  0
 13 21  1  0  0  0  0
 14 15  2  0  0  0  0
 15 10  1  0  0  0  0
 16 13  1  0  0  0  0
 16 23  1  0  0  0  0
 17 34  1  0  0  0  0
 17 11  1  0  0  0  0
 19  8  1  0  0  0  0
 19 15  1  0  0  0  0
 20  1  1  0  0  0  0
 21  2  1  0  0  0  0
 22 26  1  0  0  0  0
 22  9  1  0  0  0  0
 24 25  1  0  0  0  0
 24 18  1  0  0  0  0
 24 17  1  0  0  0  0
 25  4  1  0  0  0  0
 25  1  1  0  0  0  0
 26 14  1  0  0  0  0
 27 28  1  0  0  0  0
 28 22  1  0  0  0  0
 29 28  2  0  0  0  0
 30 32  1  0  0  0  0
 31 32  2  0  0  0  0
 31 33  1  0  0  0  0
 32 29  1  0  0  0  0
 33 27  2  0  0  0  0
 34 35  1  0  0  0  0
 36 37  2  0  0  0  0
M  END
>  <MODEL>
6

>  <REMARK>
 VINA RESULT:      -7.5      3.992      6.425
  Name = 
  3 active torsions:
  status: ('A' for Active; 'I' for Inactive)
    1  A    between atoms: C_5  and  C_23
    2  A    between atoms: C_6  and  C_31
    3  A    between atoms: C_11  and  C_26
                            x       y       z     vdW  Elec       q    Type
                         _______ _______ _______ _____ _____    ______ ____

>  <TORSDO>
F 3

$$$$
=
 OpenBabel11052420073D

 37 44  0  0  1  0  0  0  0  0999 V2000
  190.0080  174.4150  140.9780 C   0  0  0  0  0  2  0  0  0  0  0  0
  187.3220  178.4360  142.5040 C   0  0  0  0  0  1  0  0  0  0  0  0
  190.8340  174.1980  144.7050 C   0  0  2  0  0  3  0  0  0  0  0  0
  189.4600  172.3390  139.5850 C   0  0  1  0  0  3  0  0  0  0  0  0
  193.2200  173.4680  141.7760 C   0  0  0  0  0  2  0  0  0  0  0  0
  188.9850  177.9070  144.2650 C   0  0  0  0  0  2  0  0  0  0  0  0
  191.2550  174.1180  143.2190 C   0  0  2  0  0  3  0  0  0  0  0  0
  189.4120  174.7520  144.7120 C   0  0  2  0  0  3  0  0  0  0  0  0
  192.7100  174.4490  142.8330 C   0  0  1  0  0  3  0  0  0  0  0  0
  190.4940  177.9910  144.1650 C   0  0  0  0  0  2  0  0  0  0  0  0
  190.3860  172.2700  138.5350 O   0  0  0  0  0  0  0  0  0  0  0  0
  189.0130  174.8960  143.2420 C   0  0  1  0  0  3  0  0  0  0  0  0
  188.0030  176.0060  142.9680 C   0  0  1  0  0  0  0  0  0  0  0  0
  192.5630  176.8080  144.5020 C   0  0  0  0  0  3  0  0  0  0  0  0
  191.2240  176.7390  144.5660 C   0  0  0  0  0  0  0  0  0  0  0  0
  186.5870  175.6710  143.2330 C   0  0  0  0  0  2  0  0  0  0  0  0
  191.5700  171.8560  139.1610 C   0  0  2  0  0  3  0  0  0  0  0  0
  192.4980  173.5990  140.5850 O   0  0  0  0  0  0  0  0  0  0  0  0
  190.5610  175.5860  145.3120 C   0  0  2  0  0  3  0  0  0  0  0  0
  190.2600  174.9270  142.4010 C   0  0  2  0  0  3  0  0  0  0  0  0
  188.4310  177.4790  142.9220 C   0  0  1  0  0  3  0  0  0  0  0  0
  193.7420  174.6210  143.9700 C   0  0  1  0  0  3  0  0  0  0  0  0
  187.1260  175.6570  141.9270 O   0  0  0  0  0  0  0  0  0  0  0  0
  191.6280  172.4930  140.5520 C   0  0  1  0  0  3  0  0  0  0  0  0
  190.1760  172.8930  140.8140 C   0  0  1  0  0  3  0  0  0  0  0  0
  193.4590  175.7130  145.0090 C   0  0  0  0  0  2  0  0  0  0  0  0
  193.4100  172.2000  144.6360 C   0  0  0  0  0  3  0  0  0  0  0  0
  194.2170  173.3440  144.6010 C   0  0  0  0  0  0  0  0  0  0  0  0
  195.4970  173.2970  145.1580 C   0  0  0  0  0  3  0  0  0  0  0  0
  197.1910  172.0560  146.2830 F   0  0  0  0  0  0  0  0  0  0  0  0
  195.1490  171.0130  145.7630 N   0  0  0  0  0  0  0  0  0  0  0  0
  195.9510  172.1110  145.7410 C   0  0  0  0  0  0  0  0  0  0  0  0
  193.8990  171.0340  145.2280 C   0  0  0  0  0  3  0  0  0  0  0  0
  192.7740  172.1540  138.2740 C   0  0  0  0  0  2  0  0  0  0  0  0
  192.3530  172.9880  137.0790 C   0  0  0  0  0  1  0  0  0  0  0  0
  188.1960  173.7770  138.0400 C   0  0  0  0  0  2  0  0  0  0  0  0
  188.2260  173.0890  139.1780 C   0  0  0  0  0  3  0  0  0  0  0  0
  1 20  1  0  0  0  0
  2 21  1  0  0  0  0
  3  8  1  0  0  0  0
  3 19  1  0  0  0  0
  4 25  1  0  0  0  0
  5  9  1  0  0  0  0
  7  3  1  0  0  0  0
  8 19  1  0  0  0  0
  9  7  1  0  0  0  0
  9 22  1  0  0  0  0
 10  6  1  0  0  0  0
 10 15  1  0  0  0  0
 11 17  1  0  0  0  0
 11  4  1  0  0  0  0
 12  8  1  0  0  0  0
 13 16  1  0  0  0  0
 13 12  1  0  0  0  0
 14 15  2  0  0  0  0
 14 26  1  0  0  0  0
 15 19  1  0  0  0  0
 17 24  1  0  0  0  0
 18  5  1  0  0  0  0
 20  7  1  0  0  0  0
 20 12  1  0  0  0  0
 21 13  1  0  0  0  0
 21  6  1  0  0  0  0
 22 28  1  0  0  0  0
 22 26  1  0  0  0  0
 23 13  1  0  0  0  0
 23 16  1  0  0  0  0
 24 18  1  0  0  0  0
 24 25  1  0  0  0  0
 25  1  1  0  0  0  0
 27 33  1  0  0  0  0
 28 27  2  0  0  0  0
 28 29  1  0  0  0  0
 29 32  2  0  0  0  0
 32 31  1  0  0  0  0
 32 30  1  0  0  0  0
 33 31  2  0  0  0  0
 34 17  1  0  0  0  0
 35 34  1  0  0  0  0
 36 37  2  0  0  0  0
 37  4  1  0  0  0  0
M  END
>  <MODEL>
7

>  <REMARK>
 VINA RESULT:      -7.4      3.523      6.374
  Name = 
  3 active torsions:
  status: ('A' for Active; 'I' for Inactive)
    1  A    between atoms: C_5  and  C_23
    2  A    between atoms: C_6  and  C_31
    3  A    between atoms: C_11  and  C_26
                            x       y       z     vdW  Elec       q    Type
                         _______ _______ _______ _____ _____    ______ ____

>  <TORSDO>
F 3

$$$$
=
 OpenBabel11052420073D

 37 44  0  0  1  0  0  0  0  0999 V2000
  189.9150  173.0110  141.9750 C   0  0  0  0  0  2  0  0  0  0  0  0
  191.0550  168.2540  140.6400 C   0  0  0  0  0  1  0  0  0  0  0  0
  193.6920  173.2110  142.5380 C   0  0  2  0  0  3  0  0  0  0  0  0
  188.6070  174.9050  140.8560 C   0  0  1  0  0  3  0  0  0  0  0  0
  190.9580  174.8570  144.6870 C   0  0  0  0  0  2  0  0  0  0  0  0
  192.9390  169.1510  141.9770 C   0  0  0  0  0  2  0  0  0  0  0  0
  192.2420  173.5250  142.9720 C   0  0  2  0  0  3  0  0  0  0  0  0
  193.5830  172.2410  141.3650 C   0  0  2  0  0  3  0  0  0  0  0  0
  191.9270  173.6940  144.4710 C   0  0  1  0  0  3  0  0  0  0  0  0
  192.9270  169.5510  143.4380 C   0  0  0  0  0  2  0  0  0  0  0  0
  187.6210  175.3350  141.7540 O   0  0  0  0  0  0  0  0  0  0  0  0
  192.0860  172.0840  141.0920 C   0  0  1  0  0  3  0  0  0  0  0  0
  191.6910  170.7360  140.4970 C   0  0  1  0  0  0  0  0  0  0  0  0
  193.4530  171.2960  145.0110 C   0  0  0  0  0  3  0  0  0  0  0  0
  193.4390  170.9370  143.7170 C   0  0  0  0  0  0  0  0  0  0  0  0
  191.8870  170.5910  139.0390 C   0  0  0  0  0  2  0  0  0  0  0  0
  188.3400  176.0540  142.7200 C   0  0  2  0  0  3  0  0  0  0  0  0
  189.7200  174.5920  144.0930 O   0  0  0  0  0  0  0  0  0  0  0  0
  194.2060  171.7690  142.6940 C   0  0  2  0  0  3  0  0  0  0  0  0
  191.3220  172.5050  142.3190 C   0  0  2  0  0  3  0  0  0  0  0  0
  191.5910  169.4780  141.3710 C   0  0  1  0  0  3  0  0  0  0  0  0
  193.1140  173.7740  145.4570 C   0  0  1  0  0  3  0  0  0  0  0  0
  190.6180  170.8660  139.5980 O   0  0  0  0  0  0  0  0  0  0  0  0
  189.6940  175.3700  142.9190 C   0  0  1  0  0  3  0  0  0  0  0  0
  189.8450  174.5180  141.6590 C   0  0  1  0  0  3  0  0  0  0  0  0
  194.0730  172.5770  145.4930 C   0  0  0  0  0  2  0  0  0  0  0  0
  193.6510  176.0140  146.5100 C   0  0  0  0  0  3  0  0  0  0  0  0
  193.8420  175.0870  145.4780 C   0  0  0  0  0  0  0  0  0  0  0  0
  194.7360  175.3840  144.4470 C   0  0  0  0  0  3  0  0  0  0  0  0
  196.2940  176.8960  143.4660 F   0  0  0  0  0  0  0  0  0  0  0  0
  195.2220  177.4850  145.4740 N   0  0  0  0  0  0  0  0  0  0  0  0
  195.4240  176.6000  144.4620 C   0  0  0  0  0  0  0  0  0  0  0  0
  194.3560  177.2180  146.4890 C   0  0  0  0  0  3  0  0  0  0  0  0
  187.5120  176.2110  143.9910 C   0  0  0  0  0  2  0  0  0  0  0  0
  187.8040  177.5460  144.6470 C   0  0  0  0  0  1  0  0  0  0  0  0
  188.4250  173.8230  138.6540 C   0  0  0  0  0  2  0  0  0  0  0  0
  188.0860  173.8370  139.9400 C   0  0  0  0  0  3  0  0  0  0  0  0
  1 20  1  0  0  0  0
  2 21  1  0  0  0  0
  3 19  1  0  0  0  0
  3  7  1  0  0  0  0
  4 25  1  0  0  0  0
  4 11  1  0  0  0  0
  6 10  1  0  0  0  0
  7  9  1  0  0  0  0
  8  3  1  0  0  0  0
  8 19  1  0  0  0  0
  9  5  1  0  0  0  0
  9 22  1  0  0  0  0
 10 15  1  0  0  0  0
 11 17  1  0  0  0  0
 12  8  1  0  0  0  0
 12 20  1  0  0  0  0
 13 12  1  0  0  0  0
 13 21  1  0  0  0  0
 14 26  1  0  0  0  0
 15 14  2  0  0  0  0
 16 23  1  0  0  0  0
 16 13  1  0  0  0  0
 17 24  1  0  0  0  0
 17 34  1  0  0  0  0
 18  5  1  0  0  0  0
 19 15  1  0  0  0  0
 20  7  1  0  0  0  0
 21  6  1  0  0  0  0
 22 28  1  0  0  0  0
 22 26  1  0  0  0  0
 23 13  1  0  0  0  0
 24 18  1  0  0  0  0
 25  1  1  0  0  0  0
 25 24  1  0  0  0  0
 28 27  2  0  0  0  0
 29 32  2  0  0  0  0
 29 28  1  0  0  0  0
 30 32  1  0  0  0  0
 31 33  2  0  0  0  0
 32 31  1  0  0  0  0
 33 27  1  0  0  0  0
 34 35  1  0  0  0  0
 36 37  2  0  0  0  0
 37  4  1  0  0  0  0
M  END
>  <MODEL>
8

>  <REMARK>
 VINA RESULT:      -7.3      3.323      6.557
  Name = 
  3 active torsions:
  status: ('A' for Active; 'I' for Inactive)
    1  A    between atoms: C_5  and  C_23
    2  A    between atoms: C_6  and  C_31
    3  A    between atoms: C_11  and  C_26
                            x       y       z     vdW  Elec       q    Type
                         _______ _______ _______ _____ _____    ______ ____

>  <TORSDO>
F 3

$$$$
=
 OpenBabel11052420073D

 37 44  0  0  1  0  0  0  0  0999 V2000
  189.0140  174.4640  141.6010 C   0  0  0  0  0  2  0  0  0  0  0  0
  189.3230  170.9080  138.0000 C   0  0  0  0  0  1  0  0  0  0  0  0
  192.7490  173.7200  141.9350 C   0  0  2  0  0  3  0  0  0  0  0  0
  188.0930  176.8520  141.6650 C   0  0  1  0  0  3  0  0  0  0  0  0
  190.2960  174.4950  144.7960 C   0  0  0  0  0  2  0  0  0  0  0  0
  191.3010  170.6830  139.4770 C   0  0  0  0  0  2  0  0  0  0  0  0
  191.3670  174.0100  142.5630 C   0  0  2  0  0  3  0  0  0  0  0  0
  192.5000  173.5040  140.4450 C   0  0  2  0  0  3  0  0  0  0  0  0
  191.0480  173.4540  143.9650 C   0  0  1  0  0  3  0  0  0  0  0  0
  191.3220  170.2910  140.9400 C   0  0  0  0  0  2  0  0  0  0  0  0
  187.1760  176.9310  142.7220 O   0  0  0  0  0  0  0  0  0  0  0  0
  191.0070  173.7590  140.2310 C   0  0  1  0  0  3  0  0  0  0  0  0
  190.3940  172.9790  139.0710 C   0  0  1  0  0  0  0  0  0  0  0  0
  192.1080  170.8940  143.1340 C   0  0  0  0  0  3  0  0  0  0  0  0
  192.0650  171.2410  141.8370 C   0  0  0  0  0  0  0  0  0  0  0  0
  190.6000  173.5560  137.7250 C   0  0  0  0  0  2  0  0  0  0  0  0
  187.9860  176.9350  143.8670 C   0  0  2  0  0  3  0  0  0  0  0  0
  189.0470  174.7750  144.2330 O   0  0  0  0  0  0  0  0  0  0  0  0
  192.9940  172.3320  141.3160 C   0  0  2  0  0  3  0  0  0  0  0  0
  190.2980  173.6270  141.5520 C   0  0  2  0  0  3  0  0  0  0  0  0
  190.0490  171.4900  139.2060 C   0  0  1  0  0  3  0  0  0  0  0  0
  192.2030  172.8290  144.7770 C   0  0  1  0  0  3  0  0  0  0  0  0
  189.3860  173.7200  138.4300 O   0  0  0  0  0  0  0  0  0  0  0  0
  189.1910  176.0280  143.6070 C   0  0  1  0  0  3  0  0  0  0  0  0
  189.2210  175.9130  142.0840 C   0  0  1  0  0  3  0  0  0  0  0  0
  192.9330  171.6350  144.1470 C   0  0  0  0  0  2  0  0  0  0  0  0
  192.6910  174.9270  146.1100 C   0  0  0  0  0  3  0  0  0  0  0  0
  193.1520  173.8110  145.4010 C   0  0  0  0  0  0  0  0  0  0  0  0
  194.5280  173.5980  145.2770 C   0  0  0  0  0  3  0  0  0  0  0  0
  196.7540  174.3050  145.7460 F   0  0  0  0  0  0  0  0  0  0  0  0
  194.9470  175.5800  146.5440 N   0  0  0  0  0  0  0  0  0  0  0  0
  195.4190  174.5030  145.8610 C   0  0  0  0  0  0  0  0  0  0  0  0
  193.6120  175.8080  146.6780 C   0  0  0  0  0  3  0  0  0  0  0  0
  187.1660  176.5680  145.0990 C   0  0  0  0  0  2  0  0  0  0  0  0
  187.8470  177.0770  146.3550 C   0  0  0  0  0  1  0  0  0  0  0  0
  186.5580  177.3340  139.8040 C   0  0  0  0  0  2  0  0  0  0  0  0
  187.4140  176.4930  140.3760 C   0  0  0  0  0  3  0  0  0  0  0  0
  1 25  1  0  0  0  0
  2 21  1  0  0  0  0
  3  7  1  0  0  0  0
  4 25  1  0  0  0  0
  4 11  1  0  0  0  0
  6 10  1  0  0  0  0
  7  9  1  0  0  0  0
  8 19  1  0  0  0  0
  8  3  1  0  0  0  0
  9 22  1  0  0  0  0
  9  5  1  0  0  0  0
 10 15  1  0  0  0  0
 11 17  1  0  0  0  0
 12  8  1  0  0  0  0
 12 20  1  0  0  0  0
 13 21  1  0  0  0  0
 13 12  1  0  0  0  0
 14 26  1  0  0  0  0
 15 14  2  0  0  0  0
 16 23  1  0  0  0  0
 16 13  1  0  0  0  0
 17 34  1  0  0  0  0
 18  5  1  0  0  0  0
 19 15  1  0  0  0  0
 19  3  1  0  0  0  0
 20  1  1  0  0  0  0
 20  7  1  0  0  0  0
 21  6  1  0  0  0  0
 22 28  1  0  0  0  0
 23 13  1  0  0  0  0
 24 17  1  0  0  0  0
 24 18  1  0  0  0  0
 25 24  1  0  0  0  0
 26 22  1  0  0  0  0
 27 33  1  0  0  0  0
 28 27  2  0  0  0  0
 29 28  1  0  0  0  0
 29 32  2  0  0  0  0
 30 32  1  0  0  0  0
 31 33  2  0  0  0  0
 32 31  1  0  0  0  0
 34 35  1  0  0  0  0
 36 37  2  0  0  0  0
 37  4  1  0  0  0  0
M  END
>  <MODEL>
9

>  <REMARK>
 VINA RESULT:      -7.2      3.307      7.079
  Name = 
  3 active torsions:
  status: ('A' for Active; 'I' for Inactive)
    1  A    between atoms: C_5  and  C_23
    2  A    between atoms: C_6  and  C_31
    3  A    between atoms: C_11  and  C_26
                            x       y       z     vdW  Elec       q    Type
                         _______ _______ _______ _____ _____    ______ ____

>  <TORSDO>
F 3

$$$$
