=
 OpenBabel11052420353D

 34 38  0  0  1  0  0  0  0  0999 V2000
  188.7200  177.5120  142.2830 C   0  0  1  0  0  3  0  0  0  0  0  0
  185.4670  179.1800  143.0910 C   0  0  0  0  0  3  0  0  0  0  0  0
  186.1040  177.9610  141.2030 O   0  0  0  0  0  0  0  0  0  0  0  0
  190.0280  175.4540  143.0830 C   0  0  2  0  0  3  0  0  0  0  0  0
  190.0070  176.9760  142.9270 C   0  0  0  0  0  2  0  0  0  0  0  0
  188.2080  175.2220  141.3510 N   0  0  0  0  0  0  0  0  0  0  0  0
  187.1440  174.8730  142.2910 C   0  0  0  0  0  1  0  0  0  0  0  0
  189.5000  174.7210  141.8360 C   0  0  0  0  0  2  0  0  0  0  0  0
  187.0040  177.1850  140.4620 C   0  0  0  0  0  0  0  0  0  0  0  0
  188.2750  176.6680  141.0770 C   0  0  1  0  0  3  0  0  0  0  0  0
  186.7320  176.8960  139.2680 O   0  0  0  0  0  0  0  0  0  0  0  0
  185.6470  179.7810  144.4440 C   0  0  0  0  0  2  0  0  0  0  0  0
  185.6650  178.7320  145.5120 C   0  0  0  0  0  0  0  0  0  0  0  0
  186.6190  177.8040  145.5470 C   0  0  0  0  0  3  0  0  0  0  0  0
  186.3450  178.3490  142.5260 C   0  0  0  0  0  0  0  0  0  0  0  0
  187.6630  177.6040  144.5230 C   0  0  0  0  0  3  0  0  0  0  0  0
  187.5780  177.8640  143.2060 C   0  0  0  0  0  0  0  0  0  0  0  0
  184.7100  178.7370  146.5340 O   0  0  0  0  0  0  0  0  0  0  0  0
  186.2110  179.6310  148.1950 C   0  0  0  0  0  1  0  0  0  0  0  0
  185.0500  178.6950  147.9140 C   0  0  0  0  0  2  0  0  0  0  0  0
  189.3610  175.0010  144.3840 C   0  0  0  0  0  2  0  0  0  0  0  0
  191.4170  176.1810  146.3370 O   0  0  0  0  0  0  0  0  0  0  0  0
  190.9070  172.9920  144.6890 C   0  0  0  0  0  2  0  0  0  0  0  0
  195.0480  173.8000  145.4890 C   0  0  1  0  0  3  0  0  0  0  0  0
  194.0570  174.9720  145.5480 C   0  0  0  0  0  2  0  0  0  0  0  0
  192.7020  174.4630  145.3760 N   0  0  0  0  0  0  0  0  0  0  0  0
  193.3190  172.4460  144.2430 C   0  0  0  0  0  3  0  0  0  0  0  0
  192.3770  173.2540  144.7210 C   0  0  0  0  0  0  0  0  0  0  0  0
  194.7630  172.8740  144.2930 C   0  0  0  0  0  2  0  0  0  0  0  0
  190.2970  174.2530  145.3410 C   0  0  1  0  0  3  0  0  0  0  0  0
  191.4840  175.0760  145.7350 C   0  0  0  0  0  0  0  0  0  0  0  0
  196.5010  174.2730  145.5080 C   0  0  0  0  0  2  0  0  0  0  0  0
  197.1210  174.3790  144.1190 C   0  0  0  0  0  2  0  0  0  0  0  0
  197.0140  175.7390  143.6230 N   0  0  0  0  0  1  0  0  0  0  0  0
  1  5  1  1  0  0  0
  1 17  1  0  0  0  0
  2 12  1  0  0  0  0
  3 15  1  0  0  0  0
  4 21  1  1  0  0  0
  5  4  1  0  0  0  0
  6  8  1  0  0  0  0
  6  7  1  0  0  0  0
  8  4  1  0  0  0  0
  9  3  1  0  0  0  0
 10  9  1  1  0  0  0
 10  6  1  0  0  0  0
 10  1  1  0  0  0  0
 11  9  2  0  0  0  0
 12 13  1  0  0  0  0
 13 14  2  0  0  0  0
 13 18  1  0  0  0  0
 15  2  2  0  0  0  0
 15 17  1  0  0  0  0
 16 14  1  0  0  0  0
 17 16  2  0  0  0  0
 18 20  1  0  0  0  0
 20 19  1  0  0  0  0
 23 28  1  0  0  0  0
 23 30  1  0  0  0  0
 24 32  1  6  0  0  0
 24 25  1  0  0  0  0
 26 25  1  0  0  0  0
 26 31  1  0  0  0  0
 27 29  1  0  0  0  0
 27 28  2  0  0  0  0
 28 26  1  0  0  0  0
 29 24  1  0  0  0  0
 30 21  1  6  0  0  0
 30 31  1  0  0  0  0
 31 22  2  0  0  0  0
 33 32  1  0  0  0  0
 34 33  1  0  0  0  0
M  END
>  <MODEL>
1

>  <REMARK>
 VINA RESULT:      -7.7      0.000      0.000
  Name = 
  6 active torsions:
  status: ('A' for Active; 'I' for Inactive)
    1  A    between atoms: O_3  and  C_24
    2  A    between atoms: O_3  and  C_25
    3  A    between atoms: C_7  and  C_11
    4  A    between atoms: C_8  and  C_18
    5  A    between atoms: C_11  and  C_15
    6  A    between atoms: C_18  and  C_30
                            x       y       z     vdW  Elec       q    Type
                         _______ _______ _______ _____ _____    ______ ____

>  <TORSDO>
F 6

$$$$
=
 OpenBabel11052420353D

 34 38  0  0  1  0  0  0  0  0999 V2000
  191.1220  173.5920  144.8830 C   0  0  1  0  0  3  0  0  0  0  0  0
  194.8180  173.7940  145.4520 C   0  0  0  0  0  3  0  0  0  0  0  0
  193.5080  172.0140  144.6950 O   0  0  0  0  0  0  0  0  0  0  0  0
  189.4250  174.5280  143.2020 C   0  0  2  0  0  3  0  0  0  0  0  0
  189.8750  174.4600  144.6620 C   0  0  0  0  0  2  0  0  0  0  0  0
  190.7400  172.4410  142.6680 N   0  0  0  0  0  0  0  0  0  0  0  0
  191.8030  173.1150  141.9230 C   0  0  0  0  0  1  0  0  0  0  0  0
  189.4690  173.1580  142.5010 C   0  0  0  0  0  2  0  0  0  0  0  0
  192.2960  171.4350  144.3000 C   0  0  0  0  0  0  0  0  0  0  0  0
  191.0630  172.2730  144.0950 C   0  0  1  0  0  3  0  0  0  0  0  0
  192.2440  170.1960  144.0880 O   0  0  0  0  0  0  0  0  0  0  0  0
  195.0780  175.1880  145.9150 C   0  0  0  0  0  2  0  0  0  0  0  0
  194.9420  176.1730  144.7960 C   0  0  0  0  0  0  0  0  0  0  0  0
  193.7750  176.3530  144.1790 C   0  0  0  0  0  3  0  0  0  0  0  0
  193.6420  173.3790  144.9770 C   0  0  0  0  0  0  0  0  0  0  0  0
  192.5500  175.5610  144.4070 C   0  0  0  0  0  3  0  0  0  0  0  0
  192.4670  174.2740  144.7850 C   0  0  0  0  0  0  0  0  0  0  0  0
  196.0240  176.9690  144.4090 O   0  0  0  0  0  0  0  0  0  0  0  0
  197.4780  175.4710  143.2030 C   0  0  0  0  0  1  0  0  0  0  0  0
  196.7220  176.7870  143.1830 C   0  0  0  0  0  2  0  0  0  0  0  0
  190.1500  175.6310  142.4270 C   0  0  0  0  0  2  0  0  0  0  0  0
  189.9270  178.0100  144.3580 O   0  0  0  0  0  0  0  0  0  0  0  0
  187.9390  176.6430  141.6500 C   0  0  0  0  0  2  0  0  0  0  0  0
  185.5590  178.6640  144.5980 C   0  0  1  0  0  3  0  0  0  0  0  0
  186.9930  178.2680  144.9740 C   0  0  0  0  0  2  0  0  0  0  0  0
  187.6620  177.7160  143.8020 N   0  0  0  0  0  0  0  0  0  0  0  0
  185.6690  177.0750  142.6390 C   0  0  0  0  0  3  0  0  0  0  0  0
  186.9970  177.1270  142.7030 C   0  0  0  0  0  0  0  0  0  0  0  0
  184.8470  177.5500  143.8100 C   0  0  0  0  0  2  0  0  0  0  0  0
  189.3350  176.9170  142.2550 C   0  0  1  0  0  3  0  0  0  0  0  0
  189.0460  177.5870  143.5620 C   0  0  0  0  0  0  0  0  0  0  0  0
  184.7450  179.1080  145.8140 C   0  0  0  0  0  2  0  0  0  0  0  0
  185.2580  178.5280  147.1280 C   0  0  0  0  0  2  0  0  0  0  0  0
  185.9490  179.5510  147.8930 N   0  0  0  0  0  1  0  0  0  0  0  0
  1  5  1  6  0  0  0
  2 12  1  0  0  0  0
  3 15  1  0  0  0  0
  4 21  1  6  0  0  0
  4  5  1  0  0  0  0
  6 10  1  0  0  0  0
  7  6  1  0  0  0  0
  8  6  1  0  0  0  0
  8  4  1  0  0  0  0
  9  3  1  0  0  0  0
 10  9  1  6  0  0  0
 10  1  1  0  0  0  0
 11  9  2  0  0  0  0
 13 12  1  0  0  0  0
 14 16  1  0  0  0  0
 14 13  2  0  0  0  0
 15  2  2  0  0  0  0
 16 17  2  0  0  0  0
 17  1  1  0  0  0  0
 17 15  1  0  0  0  0
 18 13  1  0  0  0  0
 20 19  1  0  0  0  0
 20 18  1  0  0  0  0
 23 30  1  0  0  0  0
 23 28  1  0  0  0  0
 24 25  1  0  0  0  0
 24 32  1  1  0  0  0
 26 25  1  0  0  0  0
 27 28  2  0  0  0  0
 27 29  1  0  0  0  0
 28 26  1  0  0  0  0
 29 24  1  0  0  0  0
 30 21  1  1  0  0  0
 30 31  1  0  0  0  0
 31 26  1  0  0  0  0
 31 22  2  0  0  0  0
 32 33  1  0  0  0  0
 33 34  1  0  0  0  0
M  END
>  <MODEL>
2

>  <REMARK>
 VINA RESULT:      -7.7      2.699      8.446
  Name = 
  6 active torsions:
  status: ('A' for Active; 'I' for Inactive)
    1  A    between atoms: O_3  and  C_24
    2  A    between atoms: O_3  and  C_25
    3  A    between atoms: C_7  and  C_11
    4  A    between atoms: C_8  and  C_18
    5  A    between atoms: C_11  and  C_15
    6  A    between atoms: C_18  and  C_30
                            x       y       z     vdW  Elec       q    Type
                         _______ _______ _______ _____ _____    ______ ____

>  <TORSDO>
F 6

$$$$
=
 OpenBabel11052420353D

 34 38  0  0  1  0  0  0  0  0999 V2000
  191.1010  176.4190  143.9890 C   0  0  1  0  0  3  0  0  0  0  0  0
  191.1650  173.2290  142.0300 C   0  0  0  0  0  3  0  0  0  0  0  0
  191.8290  173.6580  144.2280 O   0  0  0  0  0  0  0  0  0  0  0  0
  189.3270  177.9310  145.0630 C   0  0  2  0  0  3  0  0  0  0  0  0
  190.4500  177.8100  144.0310 C   0  0  0  0  0  2  0  0  0  0  0  0
  190.1910  175.9010  146.2870 N   0  0  0  0  0  0  0  0  0  0  0  0
  189.1210  174.9980  145.8630 C   0  0  0  0  0  1  0  0  0  0  0  0
  189.6810  177.2730  146.4090 C   0  0  0  0  0  2  0  0  0  0  0  0
  191.9820  174.4840  145.3490 C   0  0  0  0  0  0  0  0  0  0  0  0
  191.3630  175.8540  145.3950 C   0  0  1  0  0  3  0  0  0  0  0  0
  192.6290  174.0630  146.3430 O   0  0  0  0  0  0  0  0  0  0  0  0
  190.5960  173.5660  140.6930 C   0  0  0  0  0  2  0  0  0  0  0  0
  189.1180  173.7870  140.7660 C   0  0  0  0  0  0  0  0  0  0  0  0
  188.6070  174.7830  141.4870 C   0  0  0  0  0  3  0  0  0  0  0  0
  191.1490  174.0610  143.0730 C   0  0  0  0  0  0  0  0  0  0  0  0
  189.3710  175.6830  142.3740 C   0  0  0  0  0  3  0  0  0  0  0  0
  190.4990  175.4010  143.0500 C   0  0  0  0  0  0  0  0  0  0  0  0
  188.2390  172.9850  140.0310 O   0  0  0  0  0  0  0  0  0  0  0  0
  188.1910  174.1800  137.9380 C   0  0  0  0  0  1  0  0  0  0  0  0
  188.3250  172.8310  138.6190 C   0  0  0  0  0  2  0  0  0  0  0  0
  187.9770  177.4770  144.4990 C   0  0  0  0  0  2  0  0  0  0  0  0
  185.1570  178.4960  145.1660 O   0  0  0  0  0  0  0  0  0  0  0  0
  187.3360  178.5360  142.2660 C   0  0  0  0  0  2  0  0  0  0  0  0
  183.1730  178.5290  141.2120 C   0  0  1  0  0  3  0  0  0  0  0  0
  183.5570  178.1300  142.6440 C   0  0  0  0  0  2  0  0  0  0  0  0
  184.9910  178.3220  142.8270 N   0  0  0  0  0  0  0  0  0  0  0  0
  185.5740  178.1890  140.5080 C   0  0  0  0  0  3  0  0  0  0  0  0
  185.9400  178.3220  141.7800 C   0  0  0  0  0  0  0  0  0  0  0  0
  184.1300  177.9180  140.1730 C   0  0  0  0  0  2  0  0  0  0  0  0
  187.1830  178.5880  143.8040 C   0  0  1  0  0  3  0  0  0  0  0  0
  185.7090  178.4630  144.0330 C   0  0  0  0  0  0  0  0  0  0  0  0
  181.7120  178.2090  140.8970 C   0  0  0  0  0  2  0  0  0  0  0  0
  180.7840  179.4100  141.0480 C   0  0  0  0  0  2  0  0  0  0  0  0
  179.5980  179.0380  141.7980 N   0  0  0  0  0  1  0  0  0  0  0  0
  1  5  1  1  0  0  0
  1 10  1  0  0  0  0
  2 15  2  0  0  0  0
  3  9  1  0  0  0  0
  4 21  1  6  0  0  0
  4  8  1  0  0  0  0
  5  4  1  0  0  0  0
  6  8  1  0  0  0  0
  7  6  1  0  0  0  0
  9 11  2  0  0  0  0
 10  9  1  6  0  0  0
 10  6  1  0  0  0  0
 12 13  1  0  0  0  0
 12  2  1  0  0  0  0
 13 14  2  0  0  0  0
 14 16  1  0  0  0  0
 15  3  1  0  0  0  0
 16 17  2  0  0  0  0
 17 15  1  0  0  0  0
 17  1  1  0  0  0  0
 18 13  1  0  0  0  0
 19 20  1  0  0  0  0
 20 18  1  0  0  0  0
 23 30  1  0  0  0  0
 24 32  1  6  0  0  0
 24 25  1  0  0  0  0
 25 26  1  0  0  0  0
 26 31  1  0  0  0  0
 27 28  2  0  0  0  0
 28 23  1  0  0  0  0
 28 26  1  0  0  0  0
 29 27  1  0  0  0  0
 29 24  1  0  0  0  0
 30 31  1  0  0  0  0
 30 21  1  1  0  0  0
 31 22  2  0  0  0  0
 32 33  1  0  0  0  0
 33 34  1  0  0  0  0
M  END
>  <MODEL>
3

>  <REMARK>
 VINA RESULT:      -7.6      2.976      9.042
  Name = 
  6 active torsions:
  status: ('A' for Active; 'I' for Inactive)
    1  A    between atoms: O_3  and  C_24
    2  A    between atoms: O_3  and  C_25
    3  A    between atoms: C_7  and  C_11
    4  A    between atoms: C_8  and  C_18
    5  A    between atoms: C_11  and  C_15
    6  A    between atoms: C_18  and  C_30
                            x       y       z     vdW  Elec       q    Type
                         _______ _______ _______ _____ _____    ______ ____

>  <TORSDO>
F 6

$$$$
=
 OpenBabel11052420353D

 34 38  0  0  1  0  0  0  0  0999 V2000
  190.3790  172.9590  143.4940 C   0  0  1  0  0  3  0  0  0  0  0  0
  193.8020  171.8200  144.4960 C   0  0  0  0  0  3  0  0  0  0  0  0
  192.4710  171.1730  142.6890 O   0  0  0  0  0  0  0  0  0  0  0  0
  189.3150  175.0750  142.5060 C   0  0  2  0  0  3  0  0  0  0  0  0
  189.3710  174.1010  143.6850 C   0  0  0  0  0  2  0  0  0  0  0  0
  190.3930  173.3610  141.0010 N   0  0  0  0  0  0  0  0  0  0  0  0
  191.6970  174.0190  140.9270 C   0  0  0  0  0  1  0  0  0  0  0  0
  189.3260  174.3600  141.1430 C   0  0  0  0  0  2  0  0  0  0  0  0
  191.3230  171.2540  141.8900 C   0  0  0  0  0  0  0  0  0  0  0  0
  190.3210  172.3590  142.0790 C   0  0  1  0  0  3  0  0  0  0  0  0
  191.1410  170.4010  140.9840 O   0  0  0  0  0  0  0  0  0  0  0  0
  194.1450  172.6020  145.7190 C   0  0  0  0  0  2  0  0  0  0  0  0
  194.4410  174.0320  145.3910 C   0  0  0  0  0  0  0  0  0  0  0  0
  193.5060  174.8250  144.8690 C   0  0  0  0  0  3  0  0  0  0  0  0
  192.7340  172.0650  143.7350 C   0  0  0  0  0  0  0  0  0  0  0  0
  192.1590  174.4000  144.4410 C   0  0  0  0  0  3  0  0  0  0  0  0
  191.7910  173.1940  143.9740 C   0  0  0  0  0  0  0  0  0  0  0  0
  195.6930  174.5870  145.6780 O   0  0  0  0  0  0  0  0  0  0  0  0
  197.8190  173.8300  144.8290 C   0  0  0  0  0  1  0  0  0  0  0  0
  196.8370  173.8000  145.9860 C   0  0  0  0  0  2  0  0  0  0  0  0
  190.3680  176.1800  142.6230 C   0  0  0  0  0  2  0  0  0  0  0  0
  189.5200  177.3470  145.3350 O   0  0  0  0  0  0  0  0  0  0  0  0
  188.7610  178.0070  141.8510 C   0  0  0  0  0  2  0  0  0  0  0  0
  185.5100  179.0030  144.4730 C   0  0  1  0  0  3  0  0  0  0  0  0
  186.6230  178.0950  145.0140 C   0  0  0  0  0  2  0  0  0  0  0  0
  187.6820  177.9890  144.0180 N   0  0  0  0  0  0  0  0  0  0  0  0
  186.3220  178.5450  142.1270 C   0  0  0  0  0  3  0  0  0  0  0  0
  187.5000  178.1880  142.6310 C   0  0  0  0  0  0  0  0  0  0  0  0
  185.1200  178.6300  143.0320 C   0  0  0  0  0  2  0  0  0  0  0  0
  189.7900  177.5680  142.9180 C   0  0  1  0  0  3  0  0  0  0  0  0
  189.0270  177.6060  144.2050 C   0  0  0  0  0  0  0  0  0  0  0  0
  184.2940  179.0390  145.4000 C   0  0  0  0  0  2  0  0  0  0  0  0
  184.3410  177.9820  146.4980 C   0  0  0  0  0  2  0  0  0  0  0  0
  184.8390  178.5620  147.7330 N   0  0  0  0  0  1  0  0  0  0  0  0
  1  5  1  6  0  0  0
  1 17  1  0  0  0  0
  2 12  1  0  0  0  0
  3 15  1  0  0  0  0
  4 21  1  6  0  0  0
  4  5  1  0  0  0  0
  6  8  1  0  0  0  0
  6 10  1  0  0  0  0
  7  6  1  0  0  0  0
  8  4  1  0  0  0  0
  9  3  1  0  0  0  0
 10  9  1  6  0  0  0
 10  1  1  0  0  0  0
 11  9  2  0  0  0  0
 13 18  1  0  0  0  0
 13 12  1  0  0  0  0
 14 13  2  0  0  0  0
 15 17  1  0  0  0  0
 15  2  2  0  0  0  0
 16 14  1  0  0  0  0
 17 16  2  0  0  0  0
 18 20  1  0  0  0  0
 19 20  1  0  0  0  0
 23 28  1  0  0  0  0
 23 30  1  0  0  0  0
 24 25  1  0  0  0  0
 24 32  1  1  0  0  0
 26 31  1  0  0  0  0
 26 25  1  0  0  0  0
 27 28  2  0  0  0  0
 27 29  1  0  0  0  0
 28 26  1  0  0  0  0
 29 24  1  0  0  0  0
 30 21  1  6  0  0  0
 30 31  1  0  0  0  0
 31 22  2  0  0  0  0
 32 33  1  0  0  0  0
 33 34  1  0  0  0  0
M  END
>  <MODEL>
4

>  <REMARK>
 VINA RESULT:      -7.5      2.781      8.484
  Name = 
  6 active torsions:
  status: ('A' for Active; 'I' for Inactive)
    1  A    between atoms: O_3  and  C_24
    2  A    between atoms: O_3  and  C_25
    3  A    between atoms: C_7  and  C_11
    4  A    between atoms: C_8  and  C_18
    5  A    between atoms: C_11  and  C_15
    6  A    between atoms: C_18  and  C_30
                            x       y       z     vdW  Elec       q    Type
                         _______ _______ _______ _____ _____    ______ ____

>  <TORSDO>
F 6

$$$$
=
 OpenBabel11052420353D

 34 38  0  0  1  0  0  0  0  0999 V2000
  194.6610  176.1070  144.8130 C   0  0  1  0  0  3  0  0  0  0  0  0
  197.1050  175.3700  142.0740 C   0  0  0  0  0  3  0  0  0  0  0  0
  196.9750  174.5140  144.2430 O   0  0  0  0  0  0  0  0  0  0  0  0
  192.1930  175.6140  145.3130 C   0  0  2  0  0  3  0  0  0  0  0  0
  193.2620  176.6830  145.0740 C   0  0  0  0  0  2  0  0  0  0  0  0
  193.9750  173.9100  145.8520 N   0  0  0  0  0  0  0  0  0  0  0  0
  193.8430  173.1510  144.6090 C   0  0  0  0  0  1  0  0  0  0  0  0
  192.6790  174.4830  146.2380 C   0  0  0  0  0  2  0  0  0  0  0  0
  196.3720  174.3840  145.5010 C   0  0  0  0  0  0  0  0  0  0  0  0
  195.0080  174.9570  145.7730 C   0  0  1  0  0  3  0  0  0  0  0  0
  196.9720  173.7560  146.4110 O   0  0  0  0  0  0  0  0  0  0  0  0
  196.6710  176.1990  140.9120 C   0  0  0  0  0  2  0  0  0  0  0  0
  195.4230  175.6580  140.2880 C   0  0  0  0  0  0  0  0  0  0  0  0
  194.2800  175.6070  140.9710 C   0  0  0  0  0  3  0  0  0  0  0  0
  196.3860  175.2210  143.1870 C   0  0  0  0  0  0  0  0  0  0  0  0
  194.1170  175.9360  142.4010 C   0  0  0  0  0  3  0  0  0  0  0  0
  195.0300  175.8060  143.3790 C   0  0  0  0  0  0  0  0  0  0  0  0
  195.4130  175.2440  138.9520 O   0  0  0  0  0  0  0  0  0  0  0  0
  197.1430  175.4200  137.2820 C   0  0  0  0  0  1  0  0  0  0  0  0
  196.4980  174.5520  138.3460 C   0  0  0  0  0  2  0  0  0  0  0  0
  191.5810  175.1090  144.0030 C   0  0  0  0  0  2  0  0  0  0  0  0
  189.4590  176.6090  142.3670 O   0  0  0  0  0  0  0  0  0  0  0  0
  189.5340  174.7670  145.4900 C   0  0  0  0  0  2  0  0  0  0  0  0
  186.5420  177.8470  145.4530 C   0  0  1  0  0  3  0  0  0  0  0  0
  187.6520  177.9040  144.3940 C   0  0  0  0  0  2  0  0  0  0  0  0
  188.4790  176.7080  144.5010 N   0  0  0  0  0  0  0  0  0  0  0  0
  187.9400  176.2170  146.7820 C   0  0  0  0  0  3  0  0  0  0  0  0
  188.6160  175.9300  145.6730 C   0  0  0  0  0  0  0  0  0  0  0  0
  187.0940  177.4640  146.8380 C   0  0  0  0  0  2  0  0  0  0  0  0
  190.0590  174.9400  144.0460 C   0  0  1  0  0  3  0  0  0  0  0  0
  189.3370  176.1470  143.5330 C   0  0  0  0  0  0  0  0  0  0  0  0
  185.7260  179.1390  145.5040 C   0  0  0  0  0  2  0  0  0  0  0  0
  185.2230  179.5900  144.1370 C   0  0  0  0  0  2  0  0  0  0  0  0
  184.1290  178.7420  143.6990 N   0  0  0  0  0  1  0  0  0  0  0  0
  1  5  1  6  0  0  0
  1 10  1  0  0  0  0
  2 15  2  0  0  0  0
  3  9  1  0  0  0  0
  4 21  1  6  0  0  0
  4  8  1  0  0  0  0
  5  4  1  0  0  0  0
  6  8  1  0  0  0  0
  7  6  1  0  0  0  0
  9 11  2  0  0  0  0
 10  9  1  6  0  0  0
 10  6  1  0  0  0  0
 12  2  1  0  0  0  0
 13 12  1  0  0  0  0
 13 14  2  0  0  0  0
 14 16  1  0  0  0  0
 15 17  1  0  0  0  0
 15  3  1  0  0  0  0
 16 17  2  0  0  0  0
 17  1  1  0  0  0  0
 18 13  1  0  0  0  0
 19 20  1  0  0  0  0
 20 18  1  0  0  0  0
 22 31  2  0  0  0  0
 23 28  1  0  0  0  0
 24 32  1  1  0  0  0
 24 29  1  0  0  0  0
 25 26  1  0  0  0  0
 25 24  1  0  0  0  0
 26 28  1  0  0  0  0
 27 29  1  0  0  0  0
 28 27  2  0  0  0  0
 30 21  1  1  0  0  0
 30 23  1  0  0  0  0
 31 30  1  0  0  0  0
 31 26  1  0  0  0  0
 33 32  1  0  0  0  0
 34 33  1  0  0  0  0
M  END
>  <MODEL>
5

>  <REMARK>
 VINA RESULT:      -7.5      3.410      9.340
  Name = 
  6 active torsions:
  status: ('A' for Active; 'I' for Inactive)
    1  A    between atoms: O_3  and  C_24
    2  A    between atoms: O_3  and  C_25
    3  A    between atoms: C_7  and  C_11
    4  A    between atoms: C_8  and  C_18
    5  A    between atoms: C_11  and  C_15
    6  A    between atoms: C_18  and  C_30
                            x       y       z     vdW  Elec       q    Type
                         _______ _______ _______ _____ _____    ______ ____

>  <TORSDO>
F 6

$$$$
=
 OpenBabel11052420353D

 34 38  0  0  1  0  0  0  0  0999 V2000
  194.3180  174.6750  143.2870 C   0  0  1  0  0  3  0  0  0  0  0  0
  197.2650  172.7210  144.5190 C   0  0  0  0  0  3  0  0  0  0  0  0
  197.0310  175.0150  144.1470 O   0  0  0  0  0  0  0  0  0  0  0  0
  192.0230  175.3850  144.1890 C   0  0  2  0  0  3  0  0  0  0  0  0
  192.7930  174.6040  143.1220 C   0  0  0  0  0  2  0  0  0  0  0  0
  194.0870  176.7290  144.7390 N   0  0  0  0  0  0  0  0  0  0  0  0
  194.3560  176.0800  146.0220 C   0  0  0  0  0  1  0  0  0  0  0  0
  192.6420  176.7640  144.4800 C   0  0  0  0  0  2  0  0  0  0  0  0
  196.2970  176.1560  143.7990 C   0  0  0  0  0  0  0  0  0  0  0  0
  194.8040  176.0960  143.6190 C   0  0  1  0  0  3  0  0  0  0  0  0
  196.8930  177.2540  143.6580 O   0  0  0  0  0  0  0  0  0  0  0  0
  196.8120  171.3010  144.5750 C   0  0  0  0  0  2  0  0  0  0  0  0
  195.8650  171.0720  145.7120 C   0  0  0  0  0  0  0  0  0  0  0  0
  194.6850  171.6890  145.7570 C   0  0  0  0  0  3  0  0  0  0  0  0
  196.4470  173.7510  144.2950 C   0  0  0  0  0  0  0  0  0  0  0  0
  194.2200  172.7270  144.8170 C   0  0  0  0  0  3  0  0  0  0  0  0
  194.9710  173.6170  144.1440 C   0  0  0  0  0  0  0  0  0  0  0  0
  196.1730  170.1590  146.7260 O   0  0  0  0  0  0  0  0  0  0  0  0
  194.6340  168.5360  147.6250 C   0  0  0  0  0  1  0  0  0  0  0  0
  195.7930  168.7890  146.6790 C   0  0  0  0  0  2  0  0  0  0  0  0
  191.7780  174.5490  145.4480 C   0  0  0  0  0  2  0  0  0  0  0  0
  189.4610  174.0590  143.4930 O   0  0  0  0  0  0  0  0  0  0  0  0
  189.8000  175.2540  146.9000 C   0  0  0  0  0  2  0  0  0  0  0  0
  186.3820  176.9090  144.8960 C   0  0  1  0  0  3  0  0  0  0  0  0
  187.4740  176.2520  144.0400 C   0  0  0  0  0  2  0  0  0  0  0  0
  188.4710  175.6470  144.9160 N   0  0  0  0  0  0  0  0  0  0  0  0
  188.0030  177.0090  146.8290 C   0  0  0  0  0  3  0  0  0  0  0  0
  188.7180  176.0500  146.2480 C   0  0  0  0  0  0  0  0  0  0  0  0
  186.9810  177.7690  146.0230 C   0  0  0  0  0  2  0  0  0  0  0  0
  190.2980  174.3220  145.7730 C   0  0  1  0  0  3  0  0  0  0  0  0
  189.4060  174.6360  144.6120 C   0  0  0  0  0  0  0  0  0  0  0  0
  185.3830  177.6970  144.0490 C   0  0  0  0  0  2  0  0  0  0  0  0
  185.9640  178.9820  143.4680 C   0  0  0  0  0  2  0  0  0  0  0  0
  185.3550  180.1390  144.0990 N   0  0  0  0  0  1  0  0  0  0  0  0
  1  5  1  1  0  0  0
  1 10  1  0  0  0  0
  1 17  1  0  0  0  0
  2 12  1  0  0  0  0
  3 15  1  0  0  0  0
  4  8  1  0  0  0  0
  4 21  1  1  0  0  0
  5  4  1  0  0  0  0
  6  7  1  0  0  0  0
  8  6  1  0  0  0  0
  9  3  1  0  0  0  0
 10  9  1  1  0  0  0
 10  6  1  0  0  0  0
 11  9  2  0  0  0  0
 12 13  1  0  0  0  0
 13 14  2  0  0  0  0
 13 18  1  0  0  0  0
 15  2  2  0  0  0  0
 16 14  1  0  0  0  0
 17 15  1  0  0  0  0
 17 16  2  0  0  0  0
 20 18  1  0  0  0  0
 20 19  1  0  0  0  0
 22 31  2  0  0  0  0
 24 32  1  6  0  0  0
 24 29  1  0  0  0  0
 25 24  1  0  0  0  0
 25 26  1  0  0  0  0
 26 28  1  0  0  0  0
 28 27  2  0  0  0  0
 28 23  1  0  0  0  0
 29 27  1  0  0  0  0
 30 21  1  6  0  0  0
 30 23  1  0  0  0  0
 31 26  1  0  0  0  0
 31 30  1  0  0  0  0
 33 32  1  0  0  0  0
 33 34  1  0  0  0  0
M  END
>  <MODEL>
6

>  <REMARK>
 VINA RESULT:      -7.5      3.139      9.279
  Name = 
  6 active torsions:
  status: ('A' for Active; 'I' for Inactive)
    1  A    between atoms: O_3  and  C_24
    2  A    between atoms: O_3  and  C_25
    3  A    between atoms: C_7  and  C_11
    4  A    between atoms: C_8  and  C_18
    5  A    between atoms: C_11  and  C_15
    6  A    between atoms: C_18  and  C_30
                            x       y       z     vdW  Elec       q    Type
                         _______ _______ _______ _____ _____    ______ ____

>  <TORSDO>
F 6

$$$$
=
 OpenBabel11052420353D

 34 38  0  0  1  0  0  0  0  0999 V2000
  195.3410  175.8700  144.9910 C   0  0  1  0  0  3  0  0  0  0  0  0
  197.0270  174.4970  141.9430 C   0  0  0  0  0  3  0  0  0  0  0  0
  196.7000  173.5310  144.0450 O   0  0  0  0  0  0  0  0  0  0  0  0
  192.9440  176.4040  145.7350 C   0  0  2  0  0  3  0  0  0  0  0  0
  194.3470  176.9460  145.4530 C   0  0  0  0  0  2  0  0  0  0  0  0
  193.8570  174.0600  145.9400 N   0  0  0  0  0  0  0  0  0  0  0  0
  193.3220  173.5750  144.6680 C   0  0  0  0  0  1  0  0  0  0  0  0
  192.9640  175.0760  146.5130 C   0  0  0  0  0  2  0  0  0  0  0  0
  196.1940  173.5220  145.3510 C   0  0  0  0  0  0  0  0  0  0  0  0
  195.2310  174.5790  145.8190 C   0  0  1  0  0  3  0  0  0  0  0  0
  196.5310  172.6000  146.1380 O   0  0  0  0  0  0  0  0  0  0  0  0
  196.9060  175.5580  140.9030 C   0  0  0  0  0  2  0  0  0  0  0  0
  195.5050  175.6660  140.3890 C   0  0  0  0  0  0  0  0  0  0  0  0
  194.5040  176.0210  141.1930 C   0  0  0  0  0  3  0  0  0  0  0  0
  196.3970  174.5360  143.1190 C   0  0  0  0  0  0  0  0  0  0  0  0
  194.6020  176.2210  142.6520 C   0  0  0  0  0  3  0  0  0  0  0  0
  195.4400  175.6090  143.5070 C   0  0  0  0  0  0  0  0  0  0  0  0
  195.2220  175.4510  139.0360 O   0  0  0  0  0  0  0  0  0  0  0  0
  196.7870  175.2670  137.2110 C   0  0  0  0  0  1  0  0  0  0  0  0
  195.9420  174.5260  138.2300 C   0  0  0  0  0  2  0  0  0  0  0  0
  192.0810  176.3560  144.4710 C   0  0  0  0  0  2  0  0  0  0  0  0
  189.9400  177.4830  146.3620 O   0  0  0  0  0  0  0  0  0  0  0  0
  190.6750  177.7010  142.8180 C   0  0  0  0  0  2  0  0  0  0  0  0
  186.4850  178.0980  143.6690 C   0  0  1  0  0  3  0  0  0  0  0  0
  187.3930  177.5140  144.7610 C   0  0  0  0  0  2  0  0  0  0  0  0
  188.7810  177.5860  144.3200 N   0  0  0  0  0  0  0  0  0  0  0  0
  188.3080  177.6760  141.9740 C   0  0  0  0  0  3  0  0  0  0  0  0
  189.1910  177.6390  142.9690 C   0  0  0  0  0  0  0  0  0  0  0  0
  186.8380  177.5440  142.2770 C   0  0  0  0  0  2  0  0  0  0  0  0
  191.1950  177.5900  144.2690 C   0  0  1  0  0  3  0  0  0  0  0  0
  189.9520  177.5400  145.1040 C   0  0  0  0  0  0  0  0  0  0  0  0
  185.0020  177.9160  143.9940 C   0  0  0  0  0  2  0  0  0  0  0  0
  184.4130  179.0710  144.7960 C   0  0  0  0  0  2  0  0  0  0  0  0
  184.0750  178.6310  146.1370 N   0  0  0  0  0  1  0  0  0  0  0  0
  1  5  1  6  0  0  0
  1 10  1  0  0  0  0
  2 15  2  0  0  0  0
  3  9  1  0  0  0  0
  4 21  1  6  0  0  0
  4  8  1  0  0  0  0
  5  4  1  0  0  0  0
  6  8  1  0  0  0  0
  7  6  1  0  0  0  0
  9 11  2  0  0  0  0
 10  9  1  6  0  0  0
 10  6  1  0  0  0  0
 12  2  1  0  0  0  0
 13 12  1  0  0  0  0
 13 14  2  0  0  0  0
 14 16  1  0  0  0  0
 15 17  1  0  0  0  0
 15  3  1  0  0  0  0
 16 17  2  0  0  0  0
 17  1  1  0  0  0  0
 18 13  1  0  0  0  0
 19 20  1  0  0  0  0
 20 18  1  0  0  0  0
 23 28  1  0  0  0  0
 23 30  1  0  0  0  0
 24 32  1  1  0  0  0
 24 25  1  0  0  0  0
 26 25  1  0  0  0  0
 26 31  1  0  0  0  0
 27 29  1  0  0  0  0
 27 28  2  0  0  0  0
 28 26  1  0  0  0  0
 29 24  1  0  0  0  0
 30 21  1  6  0  0  0
 30 31  1  0  0  0  0
 31 22  2  0  0  0  0
 32 33  1  0  0  0  0
 33 34  1  0  0  0  0
M  END
>  <MODEL>
7

>  <REMARK>
 VINA RESULT:      -7.4      3.472      9.518
  Name = 
  6 active torsions:
  status: ('A' for Active; 'I' for Inactive)
    1  A    between atoms: O_3  and  C_24
    2  A    between atoms: O_3  and  C_25
    3  A    between atoms: C_7  and  C_11
    4  A    between atoms: C_8  and  C_18
    5  A    between atoms: C_11  and  C_15
    6  A    between atoms: C_18  and  C_30
                            x       y       z     vdW  Elec       q    Type
                         _______ _______ _______ _____ _____    ______ ____

>  <TORSDO>
F 6

$$$$
=
 OpenBabel11052420353D

 34 38  0  0  1  0  0  0  0  0999 V2000
  189.6740  174.9610  146.1440 C   0  0  1  0  0  3  0  0  0  0  0  0
  186.9700  177.4760  146.7610 C   0  0  0  0  0  3  0  0  0  0  0  0
  189.2080  177.4800  147.4290 O   0  0  0  0  0  0  0  0  0  0  0  0
  191.0880  174.1700  144.1540 C   0  0  2  0  0  3  0  0  0  0  0  0
  190.0640  173.7930  145.2280 C   0  0  0  0  0  2  0  0  0  0  0  0
  191.7610  176.2140  145.4710 N   0  0  0  0  0  0  0  0  0  0  0  0
  191.1170  177.1860  144.5880 C   0  0  0  0  0  1  0  0  0  0  0  0
  192.2240  175.0540  144.7000 C   0  0  0  0  0  2  0  0  0  0  0  0
  190.5020  176.9460  147.4650 C   0  0  0  0  0  0  0  0  0  0  0  0
  190.8920  175.7910  146.5830 C   0  0  1  0  0  3  0  0  0  0  0  0
  191.3600  177.4570  148.2310 O   0  0  0  0  0  0  0  0  0  0  0  0
  185.7590  176.9440  146.0710 C   0  0  0  0  0  2  0  0  0  0  0  0
  185.8790  177.0620  144.5840 C   0  0  0  0  0  0  0  0  0  0  0  0
  186.8270  176.4060  143.9170 C   0  0  0  0  0  3  0  0  0  0  0  0
  188.1900  176.9530  146.6260 C   0  0  0  0  0  0  0  0  0  0  0  0
  187.9160  175.6160  144.5240 C   0  0  0  0  0  3  0  0  0  0  0  0
  188.5050  175.8160  145.7170 C   0  0  0  0  0  0  0  0  0  0  0  0
  184.9600  177.8200  143.8510 O   0  0  0  0  0  0  0  0  0  0  0  0
  185.4270  180.1590  144.2040 C   0  0  0  0  0  1  0  0  0  0  0  0
  185.3050  179.0330  143.1940 C   0  0  0  0  0  2  0  0  0  0  0  0
  190.4210  174.7400  142.9000 C   0  0  0  0  0  2  0  0  0  0  0  0
  191.5770  172.4190  141.2520 O   0  0  0  0  0  0  0  0  0  0  0  0
  188.4960  174.3330  141.2720 C   0  0  0  0  0  2  0  0  0  0  0  0
  189.5020  172.8510  137.3690 C   0  0  1  0  0  3  0  0  0  0  0  0
  190.6010  172.8680  138.4420 C   0  0  0  0  0  2  0  0  0  0  0  0
  190.0220  173.2820  139.7150 N   0  0  0  0  0  0  0  0  0  0  0  0
  188.1400  174.4360  138.7860 C   0  0  0  0  0  3  0  0  0  0  0  0
  188.8480  174.0570  139.8470 C   0  0  0  0  0  0  0  0  0  0  0  0
  188.6540  174.1350  137.4020 C   0  0  0  0  0  2  0  0  0  0  0  0
  189.6630  173.7020  142.0650 C   0  0  1  0  0  3  0  0  0  0  0  0
  190.5270  173.0750  141.0150 C   0  0  0  0  0  0  0  0  0  0  0  0
  190.0640  172.5760  135.9740 C   0  0  0  0  0  2  0  0  0  0  0  0
  189.8220  171.1480  135.4970 C   0  0  0  0  0  2  0  0  0  0  0  0
  191.0830  170.5070  135.1690 N   0  0  0  0  0  1  0  0  0  0  0  0
  1  5  1  6  0  0  0
  1 10  1  0  0  0  0
  3  9  1  0  0  0  0
  4 21  1  6  0  0  0
  4  8  1  0  0  0  0
  4  5  1  0  0  0  0
  6 10  1  0  0  0  0
  7  6  1  0  0  0  0
  8  6  1  0  0  0  0
  9 11  2  0  0  0  0
 10  9  1  6  0  0  0
 12  2  1  0  0  0  0
 13 12  1  0  0  0  0
 14 16  1  0  0  0  0
 14 13  2  0  0  0  0
 15  2  2  0  0  0  0
 15  3  1  0  0  0  0
 16 17  2  0  0  0  0
 17  1  1  0  0  0  0
 17 15  1  0  0  0  0
 18 13  1  0  0  0  0
 20 18  1  0  0  0  0
 20 19  1  0  0  0  0
 23 30  1  0  0  0  0
 24 32  1  6  0  0  0
 24 29  1  0  0  0  0
 24 25  1  0  0  0  0
 25 26  1  0  0  0  0
 26 28  1  0  0  0  0
 26 31  1  0  0  0  0
 27 28  2  0  0  0  0
 28 23  1  0  0  0  0
 29 27  1  0  0  0  0
 30 21  1  6  0  0  0
 31 22  2  0  0  0  0
 31 30  1  0  0  0  0
 33 32  1  0  0  0  0
 34 33  1  0  0  0  0
M  END
>  <MODEL>
8

>  <REMARK>
 VINA RESULT:      -7.4      3.231      6.381
  Name = 
  6 active torsions:
  status: ('A' for Active; 'I' for Inactive)
    1  A    between atoms: O_3  and  C_24
    2  A    between atoms: O_3  and  C_25
    3  A    between atoms: C_7  and  C_11
    4  A    between atoms: C_8  and  C_18
    5  A    between atoms: C_11  and  C_15
    6  A    between atoms: C_18  and  C_30
                            x       y       z     vdW  Elec       q    Type
                         _______ _______ _______ _____ _____    ______ ____

>  <TORSDO>
F 6

$$$$
=
 OpenBabel11052420353D

 34 38  0  0  1  0  0  0  0  0999 V2000
  189.5540  176.7940  142.4900 C   0  0  1  0  0  3  0  0  0  0  0  0
  185.8920  176.8360  143.2690 C   0  0  0  0  0  3  0  0  0  0  0  0
  187.1540  175.2900  142.0540 O   0  0  0  0  0  0  0  0  0  0  0  0
  191.7430  176.3940  143.7670 C   0  0  2  0  0  3  0  0  0  0  0  0
  190.9020  177.3720  142.9450 C   0  0  0  0  0  2  0  0  0  0  0  0
  190.4040  174.4480  142.8800 N   0  0  0  0  0  0  0  0  0  0  0  0
  189.6700  174.1890  144.1180 C   0  0  0  0  0  1  0  0  0  0  0  0
  191.7430  174.9700  143.1820 C   0  0  0  0  0  2  0  0  0  0  0  0
  188.3560  174.7860  141.5420 C   0  0  0  0  0  0  0  0  0  0  0  0
  189.6820  175.3530  141.9680 C   0  0  1  0  0  3  0  0  0  0  0  0
  188.3260  173.8240  140.7310 O   0  0  0  0  0  0  0  0  0  0  0  0
  185.6700  178.0560  144.0970 C   0  0  0  0  0  2  0  0  0  0  0  0
  186.2190  177.8890  145.4790 C   0  0  0  0  0  0  0  0  0  0  0  0
  187.5230  177.7110  145.6820 C   0  0  0  0  0  3  0  0  0  0  0  0
  187.0990  176.3750  142.9380 C   0  0  0  0  0  0  0  0  0  0  0  0
  188.5420  177.5320  144.6290 C   0  0  0  0  0  3  0  0  0  0  0  0
  188.3740  176.9810  143.4140 C   0  0  0  0  0  0  0  0  0  0  0  0
  185.3810  177.9730  146.5960 O   0  0  0  0  0  0  0  0  0  0  0  0
  186.1120  179.7730  148.0230 C   0  0  0  0  0  1  0  0  0  0  0  0
  185.8560  178.2830  147.9000 C   0  0  0  0  0  2  0  0  0  0  0  0
  191.3870  176.4400  145.2560 C   0  0  0  0  0  2  0  0  0  0  0  0
  194.2990  177.4060  145.4100 O   0  0  0  0  0  0  0  0  0  0  0  0
  192.4860  174.4060  146.3390 C   0  0  0  0  0  2  0  0  0  0  0  0
  196.5870  173.6210  145.3390 C   0  0  1  0  0  3  0  0  0  0  0  0
  195.9810  174.9630  144.9050 C   0  0  0  0  0  2  0  0  0  0  0  0
  194.6340  175.0800  145.4510 N   0  0  0  0  0  0  0  0  0  0  0  0
  194.2570  172.7310  145.7270 C   0  0  0  0  0  3  0  0  0  0  0  0
  193.8190  173.9840  145.8150 C   0  0  0  0  0  0  0  0  0  0  0  0
  195.6080  172.4550  145.1190 C   0  0  0  0  0  2  0  0  0  0  0  0
  192.5020  175.9440  146.1830 C   0  0  1  0  0  3  0  0  0  0  0  0
  193.8660  176.2470  145.6460 C   0  0  0  0  0  0  0  0  0  0  0  0
  197.9410  173.3600  144.6780 C   0  0  0  0  0  2  0  0  0  0  0  0
  197.9380  172.1450  143.7560 C   0  0  0  0  0  2  0  0  0  0  0  0
  197.9290  172.5690  142.3670 N   0  0  0  0  0  1  0  0  0  0  0  0
  1  5  1  1  0  0  0
  1 17  1  0  0  0  0
  2 12  1  0  0  0  0
  3 15  1  0  0  0  0
  4 21  1  1  0  0  0
  5  4  1  0  0  0  0
  6  8  1  0  0  0  0
  6  7  1  0  0  0  0
  8  4  1  0  0  0  0
  9  3  1  0  0  0  0
 10  9  1  1  0  0  0
 10  1  1  0  0  0  0
 10  6  1  0  0  0  0
 11  9  2  0  0  0  0
 12 13  1  0  0  0  0
 13 14  2  0  0  0  0
 13 18  1  0  0  0  0
 15  2  2  0  0  0  0
 15 17  1  0  0  0  0
 16 14  1  0  0  0  0
 17 16  2  0  0  0  0
 18 20  1  0  0  0  0
 20 19  1  0  0  0  0
 22 31  2  0  0  0  0
 24 32  1  6  0  0  0
 25 24  1  0  0  0  0
 25 26  1  0  0  0  0
 26 31  1  0  0  0  0
 26 28  1  0  0  0  0
 27 28  2  0  0  0  0
 28 23  1  0  0  0  0
 29 24  1  0  0  0  0
 29 27  1  0  0  0  0
 30 21  1  6  0  0  0
 30 23  1  0  0  0  0
 31 30  1  0  0  0  0
 33 32  1  0  0  0  0
 34 33  1  0  0  0  0
M  END
>  <MODEL>
9

>  <REMARK>
 VINA RESULT:      -7.2      1.748      2.226
  Name = 
  6 active torsions:
  status: ('A' for Active; 'I' for Inactive)
    1  A    between atoms: O_3  and  C_24
    2  A    between atoms: O_3  and  C_25
    3  A    between atoms: C_7  and  C_11
    4  A    between atoms: C_8  and  C_18
    5  A    between atoms: C_11  and  C_15
    6  A    between atoms: C_18  and  C_30
                            x       y       z     vdW  Elec       q    Type
                         _______ _______ _______ _____ _____    ______ ____

>  <TORSDO>
F 6

$$$$
