=
 OpenBabel11052421273D

 32 36  0  0  1  0  0  0  0  0999 V2000
  184.5270  178.2870  140.4380 C   0  0  0  0  0  3  0  0  0  0  0  0
  188.1210  177.2130  144.4470 C   0  0  0  0  0  3  0  0  0  0  0  0
  189.2620  172.2980  141.2130 C   0  0  0  0  0  3  0  0  0  0  0  0
  190.0870  172.0060  142.3220 C   0  0  0  0  0  3  0  0  0  0  0  0
  186.0490  177.7910  143.1540 C   0  0  0  0  0  0  0  0  0  0  0  0
  187.1650  176.2530  141.6000 N   0  0  0  0  0  0  0  0  0  0  0  0
  185.7690  177.8420  140.6000 C   0  0  0  0  0  3  0  0  0  0  0  0
  188.4840  173.4690  141.1870 C   0  0  0  0  0  3  0  0  0  0  0  0
  187.9370  175.5160  142.5510 C   0  0  0  0  0  0  0  0  0  0  0  0
  188.5550  174.3120  142.2930 C   0  0  0  0  0  0  0  0  0  0  0  0
  189.2910  175.0300  144.2790 N   0  0  0  0  0  0  0  0  0  0  0  0
  183.5960  178.2660  142.7360 C   0  0  0  0  0  3  0  0  0  0  0  0
  186.3410  177.2370  141.8060 C   0  0  0  0  0  0  0  0  0  0  0  0
  184.8450  178.2360  143.5110 C   0  0  0  0  0  3  0  0  0  0  0  0
  183.4260  178.2620  141.4100 C   0  0  0  0  0  0  0  0  0  0  0  0
  190.1470  172.8850  143.4190 C   0  0  0  0  0  3  0  0  0  0  0  0
  189.3600  174.0370  143.3700 C   0  0  0  0  0  0  0  0  0  0  0  0
  187.0870  178.0010  144.1740 C   0  0  0  0  0  3  0  0  0  0  0  0
  188.4200  175.9440  143.7820 C   0  0  0  0  0  0  0  0  0  0  0  0
  180.9450  178.9470  141.4570 C   0  0  0  0  0  0  0  0  0  0  0  0
  182.1030  178.3480  140.8590 N   0  0  0  0  0  2  0  0  0  0  0  0
  180.9870  179.4480  142.6120 O   0  0  0  0  0  0  0  0  0  0  0  0
  179.4080  178.9740  140.5480 S   0  0  0  0  0  1  0  0  0  0  0  0
  190.0360  175.1210  145.5310 C   0  0  0  0  0  2  0  0  0  0  0  0
  192.0830  175.0670  147.4520 O   0  0  0  0  0  1  0  0  0  0  0  0
  193.4920  176.6540  146.2720 C   0  0  2  0  0  3  0  0  0  0  0  0
  191.2850  175.9760  145.3500 C   0  0  2  0  0  3  0  0  0  0  0  0
  193.0310  176.4250  143.9700 C   0  0  0  0  0  2  0  0  0  0  0  0
  193.5220  177.2820  145.0040 O   0  0  0  0  0  0  0  0  0  0  0  0
  194.5480  175.5540  146.3710 C   0  0  0  0  0  1  0  0  0  0  0  0
  192.1440  175.4070  144.4030 O   0  0  0  0  0  0  0  0  0  0  0  0
  192.0630  176.2120  146.6460 C   0  0  1  0  0  3  0  0  0  0  0  0
  1  7  2  0  0  0  0
  1 15  1  0  0  0  0
  3  4  1  0  0  0  0
  4 16  2  0  0  0  0
  5 14  2  0  0  0  0
  5 18  1  0  0  0  0
  6 13  2  0  0  0  0
  6  9  1  0  0  0  0
  7 13  1  0  0  0  0
  8  3  2  0  0  0  0
  8 10  1  0  0  0  0
  9 19  2  0  0  0  0
 10  9  1  0  0  0  0
 10 17  2  0  0  0  0
 11 24  1  0  0  0  0
 12 14  1  0  0  0  0
 13  5  1  0  0  0  0
 15 12  2  0  0  0  0
 17 16  1  0  0  0  0
 17 11  1  0  0  0  0
 18  2  2  0  0  0  0
 19 11  1  0  0  0  0
 19  2  1  0  0  0  0
 20 22  2  0  0  0  0
 21 15  1  0  0  0  0
 21 20  1  0  0  0  0
 23 20  1  0  0  0  0
 26 30  1  6  0  0  0
 26 32  1  0  0  0  0
 27 24  1  1  0  0  0
 27 32  1  0  0  0  0
 28 31  1  0  0  0  0
 28 29  1  0  0  0  0
 29 26  1  0  0  0  0
 31 27  1  0  0  0  0
 32 25  1  6  0  0  0
M  END
>  <MODEL>
1

>  <REMARK>
 VINA RESULT:      -8.9      0.000      0.000
  Name = 
  3 active torsions:
  status: ('A' for Active; 'I' for Inactive)
    1  A    between atoms: N_10  and  C_24
    2  A    between atoms: C_11  and  C_27
    3  A    between atoms: N_16  and  C_27
                            x       y       z     vdW  Elec       q    Type
                         _______ _______ _______ _____ _____    ______ ____

>  <TORSDO>
F 3

$$$$
=
 OpenBabel11052421273D

 32 36  0  0  1  0  0  0  0  0999 V2000
  185.0060  178.4340  141.1280 C   0  0  0  0  0  3  0  0  0  0  0  0
  189.1230  176.5160  144.2120 C   0  0  0  0  0  3  0  0  0  0  0  0
  189.4370  172.2720  139.9930 C   0  0  0  0  0  3  0  0  0  0  0  0
  190.4100  171.7520  140.8750 C   0  0  0  0  0  3  0  0  0  0  0  0
  186.9100  177.3880  143.4120 C   0  0  0  0  0  0  0  0  0  0  0  0
  187.6700  176.1410  141.4390 N   0  0  0  0  0  0  0  0  0  0  0  0
  186.2290  177.9300  140.9940 C   0  0  0  0  0  3  0  0  0  0  0  0
  188.7360  173.4480  140.3110 C   0  0  0  0  0  3  0  0  0  0  0  0
  188.5380  175.2160  142.0970 C   0  0  0  0  0  0  0  0  0  0  0  0
  189.0330  174.0650  141.5240 C   0  0  0  0  0  0  0  0  0  0  0  0
  190.1190  174.3720  143.4550 N   0  0  0  0  0  0  0  0  0  0  0  0
  184.4550  178.0050  143.5060 C   0  0  0  0  0  3  0  0  0  0  0  0
  186.9490  177.0920  141.9570 C   0  0  0  0  0  0  0  0  0  0  0  0
  185.8070  177.7930  144.0410 C   0  0  0  0  0  3  0  0  0  0  0  0
  184.0750  178.2570  142.2500 C   0  0  0  0  0  0  0  0  0  0  0  0
  190.6970  172.4050  142.0880 C   0  0  0  0  0  3  0  0  0  0  0  0
  189.9830  173.5670  142.3820 C   0  0  0  0  0  0  0  0  0  0  0  0
  188.1080  177.3720  144.2640 C   0  0  0  0  0  3  0  0  0  0  0  0
  189.2360  175.3880  143.2860 C   0  0  0  0  0  0  0  0  0  0  0  0
  181.9750  178.1050  140.7680 C   0  0  0  0  0  0  0  0  0  0  0  0
  182.6880  178.4830  141.9540 N   0  0  0  0  0  2  0  0  0  0  0  0
  182.5560  177.5380  139.8050 O   0  0  0  0  0  0  0  0  0  0  0  0
  180.2280  178.4560  140.6510 S   0  0  0  0  0  1  0  0  0  0  0  0
  191.0580  174.2020  144.5590 C   0  0  0  0  0  2  0  0  0  0  0  0
  192.7200  174.9820  146.6840 O   0  0  0  0  0  1  0  0  0  0  0  0
  194.3730  176.0390  145.2540 C   0  0  2  0  0  3  0  0  0  0  0  0
  192.3480  174.9690  144.2870 C   0  0  2  0  0  3  0  0  0  0  0  0
  194.3300  174.9140  143.1810 C   0  0  0  0  0  2  0  0  0  0  0  0
  194.6550  176.1240  143.8690 O   0  0  0  0  0  0  0  0  0  0  0  0
  195.3560  175.1070  145.9620 C   0  0  0  0  0  1  0  0  0  0  0  0
  193.3440  174.1100  143.8090 O   0  0  0  0  0  0  0  0  0  0  0  0
  192.8860  175.7220  145.5060 C   0  0  1  0  0  3  0  0  0  0  0  0
  1 15  1  0  0  0  0
  2 18  2  0  0  0  0
  3  8  2  0  0  0  0
  3  4  1  0  0  0  0
  4 16  2  0  0  0  0
  5 14  2  0  0  0  0
  5 18  1  0  0  0  0
  6 13  2  0  0  0  0
  6  9  1  0  0  0  0
  7  1  2  0  0  0  0
  7 13  1  0  0  0  0
  8 10  1  0  0  0  0
  9 19  2  0  0  0  0
 10  9  1  0  0  0  0
 10 17  2  0  0  0  0
 11 24  1  0  0  0  0
 12 14  1  0  0  0  0
 13  5  1  0  0  0  0
 15 12  2  0  0  0  0
 16 17  1  0  0  0  0
 17 11  1  0  0  0  0
 19 11  1  0  0  0  0
 19  2  1  0  0  0  0
 20 21  1  0  0  0  0
 21 15  1  0  0  0  0
 22 20  2  0  0  0  0
 23 20  1  0  0  0  0
 26 32  1  0  0  0  0
 26 30  1  6  0  0  0
 27 24  1  1  0  0  0
 27 32  1  0  0  0  0
 28 31  1  0  0  0  0
 28 29  1  0  0  0  0
 29 26  1  0  0  0  0
 31 27  1  0  0  0  0
 32 25  1  1  0  0  0
M  END
>  <MODEL>
2

>  <REMARK>
 VINA RESULT:      -8.4      1.342      1.436
  Name = 
  3 active torsions:
  status: ('A' for Active; 'I' for Inactive)
    1  A    between atoms: N_10  and  C_24
    2  A    between atoms: C_11  and  C_27
    3  A    between atoms: N_16  and  C_27
                            x       y       z     vdW  Elec       q    Type
                         _______ _______ _______ _____ _____    ______ ____

>  <TORSDO>
F 3

$$$$
=
 OpenBabel11052421273D

 32 36  0  0  1  0  0  0  0  0999 V2000
  184.0240  178.1500  140.1740 C   0  0  0  0  0  3  0  0  0  0  0  0
  188.6390  177.8970  143.1360 C   0  0  0  0  0  3  0  0  0  0  0  0
  189.5150  172.7890  140.1260 C   0  0  0  0  0  3  0  0  0  0  0  0
  190.6290  172.7080  140.9900 C   0  0  0  0  0  3  0  0  0  0  0  0
  186.2480  178.1170  142.4080 C   0  0  0  0  0  0  0  0  0  0  0  0
  187.1080  176.5330  140.7410 N   0  0  0  0  0  0  0  0  0  0  0  0
  185.3120  177.8520  140.0300 C   0  0  0  0  0  3  0  0  0  0  0  0
  188.6150  173.8660  140.2160 C   0  0  0  0  0  3  0  0  0  0  0  0
  188.1870  175.9890  141.5050 C   0  0  0  0  0  0  0  0  0  0  0  0
  188.8630  174.8320  141.1890 C   0  0  0  0  0  0  0  0  0  0  0  0
  189.9920  175.8370  142.8360 N   0  0  0  0  0  0  0  0  0  0  0  0
  183.7310  178.2950  142.6310 C   0  0  0  0  0  3  0  0  0  0  0  0
  186.2480  177.4470  141.0810 C   0  0  0  0  0  0  0  0  0  0  0  0
  185.1310  178.4770  143.0390 C   0  0  0  0  0  3  0  0  0  0  0  0
  183.2240  178.1250  141.4060 C   0  0  0  0  0  0  0  0  0  0  0  0
  190.8600  173.7060  141.9550 C   0  0  0  0  0  3  0  0  0  0  0  0
  189.9480  174.7610  142.0270 C   0  0  0  0  0  0  0  0  0  0  0  0
  187.4790  178.5430  143.0890 C   0  0  0  0  0  3  0  0  0  0  0  0
  188.9140  176.5980  142.5200 C   0  0  0  0  0  0  0  0  0  0  0  0
  180.7790  178.7460  141.9160 C   0  0  0  0  0  0  0  0  0  0  0  0
  181.8040  178.0150  141.2280 N   0  0  0  0  0  2  0  0  0  0  0  0
  181.0580  179.5730  142.8230 O   0  0  0  0  0  0  0  0  0  0  0  0
  179.0690  178.4680  141.4830 S   0  0  0  0  0  1  0  0  0  0  0  0
  191.0180  176.1420  143.8290 C   0  0  0  0  0  2  0  0  0  0  0  0
  192.7310  176.4480  146.0320 O   0  0  0  0  0  1  0  0  0  0  0  0
  191.2310  175.3480  147.5920 C   0  0  2  0  0  3  0  0  0  0  0  0
  190.6130  175.6100  145.1990 C   0  0  2  0  0  3  0  0  0  0  0  0
  189.0300  175.7100  146.8240 C   0  0  0  0  0  2  0  0  0  0  0  0
  189.8940  174.8800  147.6040 O   0  0  0  0  0  0  0  0  0  0  0  0
  191.3710  176.6390  148.3980 C   0  0  0  0  0  1  0  0  0  0  0  0
  189.6710  176.4540  145.8000 O   0  0  0  0  0  0  0  0  0  0  0  0
  191.7900  175.4180  146.1580 C   0  0  1  0  0  3  0  0  0  0  0  0
  1 15  1  0  0  0  0
  3  8  2  0  0  0  0
  3  4  1  0  0  0  0
  4 16  2  0  0  0  0
  5 14  2  0  0  0  0
  5 18  1  0  0  0  0
  6 13  2  0  0  0  0
  6  9  1  0  0  0  0
  7  1  2  0  0  0  0
  7 13  1  0  0  0  0
  8 10  1  0  0  0  0
  9 19  2  0  0  0  0
 10  9  1  0  0  0  0
 10 17  2  0  0  0  0
 11 24  1  0  0  0  0
 12 14  1  0  0  0  0
 13  5  1  0  0  0  0
 15 12  2  0  0  0  0
 16 17  1  0  0  0  0
 17 11  1  0  0  0  0
 18  2  2  0  0  0  0
 19 11  1  0  0  0  0
 19  2  1  0  0  0  0
 20 22  2  0  0  0  0
 21 15  1  0  0  0  0
 21 20  1  0  0  0  0
 23 20  1  0  0  0  0
 26 29  1  0  0  0  0
 26 30  1  6  0  0  0
 27 24  1  6  0  0  0
 27 31  1  0  0  0  0
 27 32  1  0  0  0  0
 28 29  1  0  0  0  0
 31 28  1  0  0  0  0
 32 25  1  1  0  0  0
 32 26  1  0  0  0  0
M  END
>  <MODEL>
3

>  <REMARK>
 VINA RESULT:      -8.3      1.350      1.963
  Name = 
  3 active torsions:
  status: ('A' for Active; 'I' for Inactive)
    1  A    between atoms: N_10  and  C_24
    2  A    between atoms: C_11  and  C_27
    3  A    between atoms: N_16  and  C_27
                            x       y       z     vdW  Elec       q    Type
                         _______ _______ _______ _____ _____    ______ ____

>  <TORSDO>
F 3

$$$$
=
 OpenBabel11052421273D

 32 36  0  0  1  0  0  0  0  0999 V2000
  196.9870  173.0480  145.8820 C   0  0  0  0  0  3  0  0  0  0  0  0
  193.3570  175.7460  142.7710 C   0  0  0  0  0  3  0  0  0  0  0  0
  190.7430  176.9600  148.0260 C   0  0  0  0  0  3  0  0  0  0  0  0
  189.7740  177.5420  147.1800 C   0  0  0  0  0  3  0  0  0  0  0  0
  194.8840  174.0050  143.7390 C   0  0  0  0  0  0  0  0  0  0  0  0
  194.2140  175.2250  145.7610 N   0  0  0  0  0  0  0  0  0  0  0  0
  196.3100  174.1920  145.8680 C   0  0  0  0  0  3  0  0  0  0  0  0
  191.8720  176.3170  147.4880 C   0  0  0  0  0  3  0  0  0  0  0  0
  192.9650  175.7390  145.2920 C   0  0  0  0  0  0  0  0  0  0  0  0
  191.9850  176.2720  146.1010 C   0  0  0  0  0  0  0  0  0  0  0  0
  191.4150  176.7090  143.9830 N   0  0  0  0  0  0  0  0  0  0  0  0
  195.9360  171.7250  144.0680 C   0  0  0  0  0  3  0  0  0  0  0  0
  195.0740  174.4770  145.1350 C   0  0  0  0  0  0  0  0  0  0  0  0
  195.2840  172.8060  143.3170 C   0  0  0  0  0  3  0  0  0  0  0  0
  196.6560  171.7940  145.1930 C   0  0  0  0  0  0  0  0  0  0  0  0
  189.9230  177.4910  145.7810 C   0  0  0  0  0  3  0  0  0  0  0  0
  191.0500  176.8420  145.2730 C   0  0  0  0  0  0  0  0  0  0  0  0
  194.3420  174.8600  142.6720 C   0  0  0  0  0  3  0  0  0  0  0  0
  192.5930  176.0340  143.9860 C   0  0  0  0  0  0  0  0  0  0  0  0
  196.6130  169.5910  146.5240 C   0  0  0  0  0  0  0  0  0  0  0  0
  197.2510  170.6050  145.7360 N   0  0  0  0  0  2  0  0  0  0  0  0
  195.4040  169.6860  146.8630 O   0  0  0  0  0  0  0  0  0  0  0  0
  197.5580  168.1690  147.0470 S   0  0  0  0  0  1  0  0  0  0  0  0
  190.7050  177.2240  142.8170 C   0  0  0  0  0  2  0  0  0  0  0  0
  188.6080  178.6620  141.6250 O   0  0  0  0  0  1  0  0  0  0  0  0
  186.9570  176.9170  141.9770 C   0  0  2  0  0  3  0  0  0  0  0  0
  189.3070  176.6200  142.7320 C   0  0  2  0  0  3  0  0  0  0  0  0
  188.1010  174.8540  141.9660 C   0  0  0  0  0  2  0  0  0  0  0  0
  186.9390  175.5650  142.3980 O   0  0  0  0  0  0  0  0  0  0  0  0
  186.7420  177.0300  140.4680 C   0  0  0  0  0  1  0  0  0  0  0  0
  189.2420  175.6610  141.7150 O   0  0  0  0  0  0  0  0  0  0  0  0
  188.2020  177.6550  142.5090 C   0  0  1  0  0  3  0  0  0  0  0  0
  2 19  2  0  0  0  0
  4  3  2  0  0  0  0
  5 13  1  0  0  0  0
  7  1  1  0  0  0  0
  8  3  1  0  0  0  0
  9  6  2  0  0  0  0
  9 10  1  0  0  0  0
 10  8  2  0  0  0  0
 11 19  1  0  0  0  0
 11 17  1  0  0  0  0
 12 15  1  0  0  0  0
 13  6  1  0  0  0  0
 13  7  2  0  0  0  0
 14  5  1  0  0  0  0
 14 12  2  0  0  0  0
 15 21  1  0  0  0  0
 15  1  2  0  0  0  0
 16  4  1  0  0  0  0
 17 16  2  0  0  0  0
 17 10  1  0  0  0  0
 18  2  1  0  0  0  0
 18  5  2  0  0  0  0
 19  9  1  0  0  0  0
 20 22  2  0  0  0  0
 20 23  1  0  0  0  0
 21 20  1  0  0  0  0
 24 11  1  0  0  0  0
 26 30  1  6  0  0  0
 26 29  1  0  0  0  0
 26 32  1  0  0  0  0
 27 24  1  6  0  0  0
 28 29  1  0  0  0  0
 31 28  1  0  0  0  0
 31 27  1  0  0  0  0
 32 25  1  6  0  0  0
 32 27  1  0  0  0  0
M  END
>  <MODEL>
4

>  <REMARK>
 VINA RESULT:      -8.1      5.312     10.389
  Name = 
  3 active torsions:
  status: ('A' for Active; 'I' for Inactive)
    1  A    between atoms: N_10  and  C_24
    2  A    between atoms: C_11  and  C_27
    3  A    between atoms: N_16  and  C_27
                            x       y       z     vdW  Elec       q    Type
                         _______ _______ _______ _____ _____    ______ ____

>  <TORSDO>
F 3

$$$$
=
 OpenBabel11052421273D

 32 36  0  0  1  0  0  0  0  0999 V2000
  193.2520  171.3740  144.6430 C   0  0  0  0  0  3  0  0  0  0  0  0
  190.3470  175.9140  145.6880 C   0  0  0  0  0  3  0  0  0  0  0  0
  188.0810  174.9300  140.2270 C   0  0  0  0  0  3  0  0  0  0  0  0
  187.4430  176.1620  140.4920 C   0  0  0  0  0  3  0  0  0  0  0  0
  192.2020  174.2470  145.4050 C   0  0  0  0  0  0  0  0  0  0  0  0
  190.6530  173.5370  143.6380 N   0  0  0  0  0  0  0  0  0  0  0  0
  192.0180  171.8470  144.5060 C   0  0  0  0  0  3  0  0  0  0  0  0
  188.9710  174.3680  141.1600 C   0  0  0  0  0  3  0  0  0  0  0  0
  189.9870  174.7850  143.4290 C   0  0  0  0  0  0  0  0  0  0  0  0
  189.1990  175.0770  142.3370 C   0  0  0  0  0  0  0  0  0  0  0  0
  188.9240  176.7260  143.8230 N   0  0  0  0  0  0  0  0  0  0  0  0
  194.5760  173.3740  145.2700 C   0  0  0  0  0  3  0  0  0  0  0  0
  191.6090  173.2530  144.4730 C   0  0  0  0  0  0  0  0  0  0  0  0
  193.4940  174.2550  145.7310 C   0  0  0  0  0  3  0  0  0  0  0  0
  194.5020  172.1360  144.7710 C   0  0  0  0  0  0  0  0  0  0  0  0
  187.6850  176.8480  141.6960 C   0  0  0  0  0  3  0  0  0  0  0  0
  188.5770  176.2720  142.6020 C   0  0  0  0  0  0  0  0  0  0  0  0
  191.3980  175.2360  146.1380 C   0  0  0  0  0  3  0  0  0  0  0  0
  189.7890  175.8160  144.3380 C   0  0  0  0  0  0  0  0  0  0  0  0
  196.5010  170.5950  145.2780 C   0  0  0  0  0  0  0  0  0  0  0  0
  195.7030  171.4300  144.4260 N   0  0  0  0  0  2  0  0  0  0  0  0
  196.2140  170.4330  146.4930 O   0  0  0  0  0  0  0  0  0  0  0  0
  197.9370  169.7780  144.6030 S   0  0  0  0  0  1  0  0  0  0  0  0
  188.4340  177.9360  144.4760 C   0  0  0  0  0  2  0  0  0  0  0  0
  187.6320  177.5870  147.1440 O   0  0  0  0  0  1  0  0  0  0  0  0
  185.2630  177.4960  146.6190 C   0  0  2  0  0  3  0  0  0  0  0  0
  186.9560  177.7960  144.8240 C   0  0  2  0  0  3  0  0  0  0  0  0
  184.9220  178.7960  144.6810 C   0  0  0  0  0  2  0  0  0  0  0  0
  184.4310  177.7310  145.4980 O   0  0  0  0  0  0  0  0  0  0  0  0
  185.1510  178.6310  147.6380 C   0  0  0  0  0  1  0  0  0  0  0  0
  186.3170  179.0400  144.7830 O   0  0  0  0  0  0  0  0  0  0  0  0
  186.7030  177.1540  146.1900 C   0  0  1  0  0  3  0  0  0  0  0  0
  1 15  1  0  0  0  0
  2 18  2  0  0  0  0
  3  4  2  0  0  0  0
  3  8  1  0  0  0  0
  4 16  1  0  0  0  0
  5 14  2  0  0  0  0
  5 18  1  0  0  0  0
  6 13  2  0  0  0  0
  7  1  2  0  0  0  0
  8 10  2  0  0  0  0
  9  6  1  0  0  0  0
  9 19  2  0  0  0  0
 10 17  1  0  0  0  0
 10  9  1  0  0  0  0
 11 19  1  0  0  0  0
 11 24  1  0  0  0  0
 12 14  1  0  0  0  0
 13  7  1  0  0  0  0
 13  5  1  0  0  0  0
 15 12  2  0  0  0  0
 16 17  2  0  0  0  0
 17 11  1  0  0  0  0
 19  2  1  0  0  0  0
 20 22  2  0  0  0  0
 21 15  1  0  0  0  0
 21 20  1  0  0  0  0
 23 20  1  0  0  0  0
 26 30  1  1  0  0  0
 27 24  1  1  0  0  0
 27 32  1  0  0  0  0
 28 31  1  0  0  0  0
 28 29  1  0  0  0  0
 29 26  1  0  0  0  0
 31 27  1  0  0  0  0
 32 26  1  0  0  0  0
 32 25  1  1  0  0  0
M  END
>  <MODEL>
5

>  <REMARK>
 VINA RESULT:      -7.9      4.868      9.191
  Name = 
  3 active torsions:
  status: ('A' for Active; 'I' for Inactive)
    1  A    between atoms: N_10  and  C_24
    2  A    between atoms: C_11  and  C_27
    3  A    between atoms: N_16  and  C_27
                            x       y       z     vdW  Elec       q    Type
                         _______ _______ _______ _____ _____    ______ ____

>  <TORSDO>
F 3

$$$$
=
 OpenBabel11052421273D

 32 36  0  0  1  0  0  0  0  0999 V2000
  186.5440  177.2960  141.5350 C   0  0  0  0  0  3  0  0  0  0  0  0
  190.9790  176.7700  144.7270 C   0  0  0  0  0  3  0  0  0  0  0  0
  190.9360  171.1180  142.7330 C   0  0  0  0  0  3  0  0  0  0  0  0
  192.0000  171.0000  143.6530 C   0  0  0  0  0  3  0  0  0  0  0  0
  188.6830  177.2780  143.8500 C   0  0  0  0  0  0  0  0  0  0  0  0
  189.2610  175.2830  142.5410 N   0  0  0  0  0  0  0  0  0  0  0  0
  187.7550  176.7490  141.5130 C   0  0  0  0  0  3  0  0  0  0  0  0
  190.2520  172.3380  142.5820 C   0  0  0  0  0  3  0  0  0  0  0  0
  190.2060  174.7050  143.4440 C   0  0  0  0  0  0  0  0  0  0  0  0
  190.6590  173.4060  143.3770 C   0  0  0  0  0  0  0  0  0  0  0  0
  191.9280  174.4800  144.8720 N   0  0  0  0  0  0  0  0  0  0  0  0
  186.2400  177.9450  143.9080 C   0  0  0  0  0  3  0  0  0  0  0  0
  188.5810  176.3840  142.6660 C   0  0  0  0  0  0  0  0  0  0  0  0
  187.6430  177.9450  144.3480 C   0  0  0  0  0  3  0  0  0  0  0  0
  185.7320  177.6440  142.7090 C   0  0  0  0  0  0  0  0  0  0  0  0
  192.3970  172.1020  144.4340 C   0  0  0  0  0  3  0  0  0  0  0  0
  191.6980  173.2980  144.2680 C   0  0  0  0  0  0  0  0  0  0  0  0
  189.9610  177.5940  144.5050 C   0  0  0  0  0  3  0  0  0  0  0  0
  191.0170  175.3510  144.3700 C   0  0  0  0  0  0  0  0  0  0  0  0
  183.6630  178.2720  141.3120 C   0  0  0  0  0  0  0  0  0  0  0  0
  184.3200  177.7620  142.4810 N   0  0  0  0  0  2  0  0  0  0  0  0
  184.3170  178.7260  140.3370 O   0  0  0  0  0  0  0  0  0  0  0  0
  181.8790  178.2720  141.2430 S   0  0  0  0  0  1  0  0  0  0  0  0
  192.9760  174.7750  145.8450 C   0  0  0  0  0  2  0  0  0  0  0  0
  195.3360  173.2560  145.7690 O   0  0  0  0  0  1  0  0  0  0  0  0
  196.5850  174.9100  144.5050 C   0  0  2  0  0  3  0  0  0  0  0  0
  194.2180  175.3160  145.1460 C   0  0  2  0  0  3  0  0  0  0  0  0
  195.0370  176.0940  143.1760 C   0  0  0  0  0  2  0  0  0  0  0  0
  196.3190  176.1150  143.8100 O   0  0  0  0  0  0  0  0  0  0  0  0
  196.8330  173.7550  143.5340 C   0  0  0  0  0  1  0  0  0  0  0  0
  194.0920  175.2090  143.7560 O   0  0  0  0  0  0  0  0  0  0  0  0
  195.5170  174.6320  145.5800 C   0  0  1  0  0  3  0  0  0  0  0  0
  1 15  1  0  0  0  0
  3  4  1  0  0  0  0
  4 16  2  0  0  0  0
  5 14  2  0  0  0  0
  5 18  1  0  0  0  0
  6 13  2  0  0  0  0
  6  9  1  0  0  0  0
  7  1  2  0  0  0  0
  7 13  1  0  0  0  0
  8  3  2  0  0  0  0
  8 10  1  0  0  0  0
  9 19  2  0  0  0  0
 10  9  1  0  0  0  0
 10 17  2  0  0  0  0
 11 24  1  0  0  0  0
 12 14  1  0  0  0  0
 13  5  1  0  0  0  0
 15 12  2  0  0  0  0
 17 16  1  0  0  0  0
 17 11  1  0  0  0  0
 18  2  2  0  0  0  0
 19  2  1  0  0  0  0
 19 11  1  0  0  0  0
 20 21  1  0  0  0  0
 21 15  1  0  0  0  0
 22 20  2  0  0  0  0
 23 20  1  0  0  0  0
 26 30  1  6  0  0  0
 26 32  1  0  0  0  0
 27 32  1  0  0  0  0
 27 24  1  1  0  0  0
 28 31  1  0  0  0  0
 28 29  1  0  0  0  0
 29 26  1  0  0  0  0
 31 27  1  0  0  0  0
 32 25  1  6  0  0  0
M  END
>  <MODEL>
6

>  <REMARK>
 VINA RESULT:      -7.8      2.110      2.940
  Name = 
  3 active torsions:
  status: ('A' for Active; 'I' for Inactive)
    1  A    between atoms: N_10  and  C_24
    2  A    between atoms: C_11  and  C_27
    3  A    between atoms: N_16  and  C_27
                            x       y       z     vdW  Elec       q    Type
                         _______ _______ _______ _____ _____    ______ ____

>  <TORSDO>
F 3

$$$$
=
 OpenBabel11052421273D

 32 36  0  0  1  0  0  0  0  0999 V2000
  189.1990  177.5830  145.2160 C   0  0  0  0  0  3  0  0  0  0  0  0
  193.6520  174.4720  146.0060 C   0  0  0  0  0  3  0  0  0  0  0  0
  193.8310  174.3570  140.0170 C   0  0  0  0  0  3  0  0  0  0  0  0
  194.8990  173.4690  140.2680 C   0  0  0  0  0  3  0  0  0  0  0  0
  191.3380  175.4390  146.0900 C   0  0  0  0  0  0  0  0  0  0  0  0
  191.9940  175.9730  143.7850 N   0  0  0  0  0  0  0  0  0  0  0  0
  190.4310  177.4290  144.7410 C   0  0  0  0  0  3  0  0  0  0  0  0
  193.0990  174.9170  141.0800 C   0  0  0  0  0  3  0  0  0  0  0  0
  192.9600  174.9380  143.5960 C   0  0  0  0  0  0  0  0  0  0  0  0
  193.4650  174.5520  142.3730 C   0  0  0  0  0  0  0  0  0  0  0  0
  194.6900  173.5460  143.9500 N   0  0  0  0  0  0  0  0  0  0  0  0
  188.8710  175.5840  146.6450 C   0  0  0  0  0  3  0  0  0  0  0  0
  191.2710  176.2320  144.8350 C   0  0  0  0  0  0  0  0  0  0  0  0
  190.2720  175.1910  146.8500 C   0  0  0  0  0  3  0  0  0  0  0  0
  188.3740  176.5950  145.9240 C   0  0  0  0  0  0  0  0  0  0  0  0
  195.2530  173.1300  141.5870 C   0  0  0  0  0  3  0  0  0  0  0  0
  194.5060  173.6940  142.6230 C   0  0  0  0  0  0  0  0  0  0  0  0
  192.6020  174.9540  146.6620 C   0  0  0  0  0  3  0  0  0  0  0  0
  193.7450  174.3090  144.5550 C   0  0  0  0  0  0  0  0  0  0  0  0
  186.2040  177.7000  146.7570 C   0  0  0  0  0  0  0  0  0  0  0  0
  186.9580  176.8300  145.9020 N   0  0  0  0  0  2  0  0  0  0  0  0
  186.7550  178.3450  147.6880 O   0  0  0  0  0  0  0  0  0  0  0  0
  184.4450  177.8630  146.5030 S   0  0  0  0  0  1  0  0  0  0  0  0
  195.7260  172.7530  144.6050 C   0  0  0  0  0  2  0  0  0  0  0  0
  196.8080  171.0010  146.5130 O   0  0  0  0  0  1  0  0  0  0  0  0
  195.6480  169.0480  145.6560 C   0  0  2  0  0  3  0  0  0  0  0  0
  195.3580  171.2730  144.5880 C   0  0  2  0  0  3  0  0  0  0  0  0
  193.6350  169.7980  144.6820 C   0  0  0  0  0  2  0  0  0  0  0  0
  194.6250  168.7680  144.7170 O   0  0  0  0  0  0  0  0  0  0  0  0
  195.1340  168.9150  147.0900 C   0  0  0  0  0  1  0  0  0  0  0  0
  194.0770  171.0750  145.1160 O   0  0  0  0  0  0  0  0  0  0  0  0
  196.3490  170.3840  145.3430 C   0  0  1  0  0  3  0  0  0  0  0  0
  1 15  1  0  0  0  0
  2 18  2  0  0  0  0
  3  4  2  0  0  0  0
  3  8  1  0  0  0  0
  4 16  1  0  0  0  0
  5 18  1  0  0  0  0
  5 14  2  0  0  0  0
  6 13  2  0  0  0  0
  7 13  1  0  0  0  0
  7  1  2  0  0  0  0
  8 10  2  0  0  0  0
  9  6  1  0  0  0  0
  9 19  2  0  0  0  0
 10 17  1  0  0  0  0
 10  9  1  0  0  0  0
 11 19  1  0  0  0  0
 11 24  1  0  0  0  0
 12 14  1  0  0  0  0
 13  5  1  0  0  0  0
 15 12  2  0  0  0  0
 16 17  2  0  0  0  0
 17 11  1  0  0  0  0
 19  2  1  0  0  0  0
 20 22  2  0  0  0  0
 21 15  1  0  0  0  0
 21 20  1  0  0  0  0
 23 20  1  0  0  0  0
 26 30  1  1  0  0  0
 27 24  1  1  0  0  0
 27 31  1  0  0  0  0
 27 32  1  0  0  0  0
 28 29  1  0  0  0  0
 28 31  1  0  0  0  0
 29 26  1  0  0  0  0
 32 26  1  0  0  0  0
 32 25  1  1  0  0  0
M  END
>  <MODEL>
7

>  <REMARK>
 VINA RESULT:      -7.7      4.568      6.436
  Name = 
  3 active torsions:
  status: ('A' for Active; 'I' for Inactive)
    1  A    between atoms: N_10  and  C_24
    2  A    between atoms: C_11  and  C_27
    3  A    between atoms: N_16  and  C_27
                            x       y       z     vdW  Elec       q    Type
                         _______ _______ _______ _____ _____    ______ ____

>  <TORSDO>
F 3

$$$$
=
 OpenBabel11052421273D

 32 36  0  0  1  0  0  0  0  0999 V2000
  189.5750  177.9830  144.0800 C   0  0  0  0  0  3  0  0  0  0  0  0
  193.3540  174.5400  146.0830 C   0  0  0  0  0  3  0  0  0  0  0  0
  196.4480  176.1400  141.2060 C   0  0  0  0  0  3  0  0  0  0  0  0
  197.3390  175.1610  141.6980 C   0  0  0  0  0  3  0  0  0  0  0  0
  191.2120  175.5660  145.2700 C   0  0  0  0  0  0  0  0  0  0  0  0
  192.8550  176.7030  143.8440 N   0  0  0  0  0  0  0  0  0  0  0  0
  190.8910  177.9050  144.2570 C   0  0  0  0  0  3  0  0  0  0  0  0
  195.2400  176.4100  141.8730 C   0  0  0  0  0  3  0  0  0  0  0  0
  193.8870  175.7160  143.8830 C   0  0  0  0  0  0  0  0  0  0  0  0
  194.9600  175.6700  143.0190 C   0  0  0  0  0  0  0  0  0  0  0  0
  195.3500  174.1900  144.6490 N   0  0  0  0  0  0  0  0  0  0  0  0
  188.7880  175.6780  144.5450 C   0  0  0  0  0  3  0  0  0  0  0  0
  191.6900  176.6890  144.4220 C   0  0  0  0  0  0  0  0  0  0  0  0
  189.9410  175.1690  145.3000 C   0  0  0  0  0  3  0  0  0  0  0  0
  188.6110  176.8780  143.9830 C   0  0  0  0  0  0  0  0  0  0  0  0
  197.0330  174.4390  142.8670 C   0  0  0  0  0  3  0  0  0  0  0  0
  195.8250  174.7220  143.5050 C   0  0  0  0  0  0  0  0  0  0  0  0
  192.0760  174.8700  146.2360 C   0  0  0  0  0  3  0  0  0  0  0  0
  194.1600  174.7960  144.8880 C   0  0  0  0  0  0  0  0  0  0  0  0
  186.2390  177.8710  143.8790 C   0  0  0  0  0  0  0  0  0  0  0  0
  187.3720  177.1860  143.3280 N   0  0  0  0  0  2  0  0  0  0  0  0
  186.2220  178.2520  145.0790 O   0  0  0  0  0  0  0  0  0  0  0  0
  184.8170  178.1810  142.8440 S   0  0  0  0  0  1  0  0  0  0  0  0
  196.0050  173.1870  145.4830 C   0  0  0  0  0  2  0  0  0  0  0  0
  197.9330  171.2930  144.7220 O   0  0  0  0  0  1  0  0  0  0  0  0
  196.3130  169.5340  144.3000 C   0  0  2  0  0  3  0  0  0  0  0  0
  195.5830  171.7830  145.0660 C   0  0  2  0  0  3  0  0  0  0  0  0
  194.4750  169.9150  145.7280 C   0  0  0  0  0  2  0  0  0  0  0  0
  194.9310  169.3120  144.5140 O   0  0  0  0  0  0  0  0  0  0  0  0
  197.1620  168.7290  145.2840 C   0  0  0  0  0  1  0  0  0  0  0  0
  195.2500  171.0110  146.1850 O   0  0  0  0  0  0  0  0  0  0  0  0
  196.6400  171.0390  144.2470 C   0  0  1  0  0  3  0  0  0  0  0  0
  1  7  1  0  0  0  0
  2 18  1  0  0  0  0
  3  4  2  0  0  0  0
  3  8  1  0  0  0  0
  4 16  1  0  0  0  0
  5 14  1  0  0  0  0
  5 18  2  0  0  0  0
  6  9  2  0  0  0  0
  6 13  1  0  0  0  0
  7 13  2  0  0  0  0
  8 10  2  0  0  0  0
  9 19  1  0  0  0  0
 10 17  1  0  0  0  0
 10  9  1  0  0  0  0
 11 19  1  0  0  0  0
 11 24  1  0  0  0  0
 12 14  2  0  0  0  0
 13  5  1  0  0  0  0
 15  1  2  0  0  0  0
 15 12  1  0  0  0  0
 16 17  2  0  0  0  0
 17 11  1  0  0  0  0
 19  2  2  0  0  0  0
 20 22  2  0  0  0  0
 21 20  1  0  0  0  0
 21 15  1  0  0  0  0
 23 20  1  0  0  0  0
 26 29  1  0  0  0  0
 26 30  1  1  0  0  0
 27 24  1  1  0  0  0
 27 31  1  0  0  0  0
 28 31  1  0  0  0  0
 29 28  1  0  0  0  0
 32 26  1  0  0  0  0
 32 25  1  1  0  0  0
 32 27  1  0  0  0  0
M  END
>  <MODEL>
8

>  <REMARK>
 VINA RESULT:      -7.5      4.129      6.598
  Name = 
  3 active torsions:
  status: ('A' for Active; 'I' for Inactive)
    1  A    between atoms: N_10  and  C_24
    2  A    between atoms: C_11  and  C_27
    3  A    between atoms: N_16  and  C_27
                            x       y       z     vdW  Elec       q    Type
                         _______ _______ _______ _____ _____    ______ ____

>  <TORSDO>
F 3

$$$$
=
 OpenBabel11052421273D

 32 36  0  0  1  0  0  0  0  0999 V2000
  191.8440  174.0090  144.9600 C   0  0  0  0  0  3  0  0  0  0  0  0
  188.4830  177.7090  142.6900 C   0  0  0  0  0  3  0  0  0  0  0  0
  185.7350  177.5100  148.0130 C   0  0  0  0  0  3  0  0  0  0  0  0
  184.8320  178.3700  147.3510 C   0  0  0  0  0  3  0  0  0  0  0  0
  189.8780  175.6720  143.1420 C   0  0  0  0  0  0  0  0  0  0  0  0
  189.1950  176.2940  145.4160 N   0  0  0  0  0  0  0  0  0  0  0  0
  191.2290  175.1470  145.2640 C   0  0  0  0  0  3  0  0  0  0  0  0
  186.8490  176.9820  147.3350 C   0  0  0  0  0  3  0  0  0  0  0  0
  187.9940  176.9980  145.0910 C   0  0  0  0  0  0  0  0  0  0  0  0
  187.0130  177.3330  145.9970 C   0  0  0  0  0  0  0  0  0  0  0  0
  186.5490  178.3970  144.0860 N   0  0  0  0  0  0  0  0  0  0  0  0
  190.7960  173.3330  142.8180 C   0  0  0  0  0  3  0  0  0  0  0  0
  190.0390  175.7080  144.6190 C   0  0  0  0  0  0  0  0  0  0  0  0
  190.2310  174.6240  142.3990 C   0  0  0  0  0  3  0  0  0  0  0  0
  191.4740  173.0300  143.9290 C   0  0  0  0  0  0  0  0  0  0  0  0
  185.0320  178.7160  146.0020 C   0  0  0  0  0  3  0  0  0  0  0  0
  186.1420  178.1740  145.3510 C   0  0  0  0  0  0  0  0  0  0  0  0
  189.4230  176.8300  142.3590 C   0  0  0  0  0  3  0  0  0  0  0  0
  187.6890  177.6790  143.9190 C   0  0  0  0  0  0  0  0  0  0  0  0
  193.2960  171.2170  143.7950 C   0  0  0  0  0  0  0  0  0  0  0  0
  191.9840  171.7010  144.1150 N   0  0  0  0  0  2  0  0  0  0  0  0
  194.1550  171.9590  143.2500 O   0  0  0  0  0  0  0  0  0  0  0  0
  193.7150  169.5220  144.1670 S   0  0  0  0  0  1  0  0  0  0  0  0
  185.9120  179.2700  143.1050 C   0  0  0  0  0  2  0  0  0  0  0  0
  183.1170  179.4560  143.2890 O   0  0  0  0  0  1  0  0  0  0  0  0
  182.7040  177.8980  141.4740 C   0  0  2  0  0  3  0  0  0  0  0  0
  185.0230  178.4610  142.1670 C   0  0  2  0  0  3  0  0  0  0  0  0
  184.5300  178.0490  139.9890 C   0  0  0  0  0  2  0  0  0  0  0  0
  183.4550  177.2390  140.4700 O   0  0  0  0  0  0  0  0  0  0  0  0
  181.8780  179.0420  140.8850 C   0  0  0  0  0  1  0  0  0  0  0  0
  184.9890  179.0410  140.8930 O   0  0  0  0  0  0  0  0  0  0  0  0
  183.5890  178.2900  142.6730 C   0  0  1  0  0  3  0  0  0  0  0  0
  1  7  1  0  0  0  0
  2 19  2  0  0  0  0
  4  3  1  0  0  0  0
  5 13  1  0  0  0  0
  8  3  2  0  0  0  0
  9  6  2  0  0  0  0
  9 10  1  0  0  0  0
 10  8  1  0  0  0  0
 11 17  1  0  0  0  0
 12 15  1  0  0  0  0
 13  7  2  0  0  0  0
 13  6  1  0  0  0  0
 14 12  2  0  0  0  0
 14  5  1  0  0  0  0
 15 21  1  0  0  0  0
 15  1  2  0  0  0  0
 16  4  2  0  0  0  0
 17 10  2  0  0  0  0
 17 16  1  0  0  0  0
 18  2  1  0  0  0  0
 18  5  2  0  0  0  0
 19 11  1  0  0  0  0
 19  9  1  0  0  0  0
 20 21  1  0  0  0  0
 20 23  1  0  0  0  0
 22 20  2  0  0  0  0
 24 11  1  0  0  0  0
 26 30  1  6  0  0  0
 26 32  1  0  0  0  0
 27 32  1  0  0  0  0
 27 24  1  1  0  0  0
 28 29  1  0  0  0  0
 28 31  1  0  0  0  0
 29 26  1  0  0  0  0
 31 27  1  0  0  0  0
 32 25  1  6  0  0  0
M  END
>  <MODEL>
9

>  <REMARK>
 VINA RESULT:      -7.4      3.987      9.145
  Name = 
  3 active torsions:
  status: ('A' for Active; 'I' for Inactive)
    1  A    between atoms: N_10  and  C_24
    2  A    between atoms: C_11  and  C_27
    3  A    between atoms: N_16  and  C_27
                            x       y       z     vdW  Elec       q    Type
                         _______ _______ _______ _____ _____    ______ ____

>  <TORSDO>
F 3

$$$$
