=
 OpenBabel11052420463D

 43 48  0  0  1  0  0  0  0  0999 V2000
  191.7840  176.8970  144.8940 N   0  0  0  0  0  0  0  0  0  0  0  0
  190.6650  176.2370  145.0470 C   0  0  0  0  0  0  0  0  0  0  0  0
  184.5280  178.5320  145.7940 C   0  0  0  0  0  0  0  0  0  0  0  0
  189.3780  176.9790  144.9930 C   0  0  0  0  0  0  0  0  0  0  0  0
  186.6980  178.0680  144.8130 C   0  0  0  0  0  0  0  0  0  0  0  0
  185.0260  178.2060  147.0580 C   0  0  0  0  0  3  0  0  0  0  0  0
  183.2390  178.9220  145.6540 F   0  0  0  0  0  0  0  0  0  0  0  0
  187.2010  177.7430  146.0870 C   0  0  0  0  0  0  0  0  0  0  0  0
  185.3660  178.4740  144.6750 C   0  0  0  0  0  3  0  0  0  0  0  0
  186.3590  177.8130  147.2050 C   0  0  0  0  0  3  0  0  0  0  0  0
  189.1200  177.1990  147.3620 O   0  0  0  0  0  0  0  0  0  0  0  0
  188.6000  177.3000  146.2190 C   0  0  0  0  0  0  0  0  0  0  0  0
  188.8740  177.3220  143.7980 C   0  0  0  0  0  3  0  0  0  0  0  0
  187.6010  178.1050  143.6140 C   0  0  0  0  0  2  0  0  0  0  0  0
  195.3500  175.7940  143.8290 C   0  0  0  0  0  2  0  0  0  0  0  0
  195.4900  174.7540  144.9300 C   0  0  2  0  0  3  0  0  0  0  0  0
  193.6040  175.9390  146.0770 C   0  0  0  0  0  3  0  0  0  0  0  0
  193.8740  176.1190  143.6170 C   0  0  0  0  0  2  0  0  0  0  0  0
  193.1240  176.3800  144.9080 C   0  0  0  0  0  0  0  0  0  0  0  0
  194.9840  175.3660  146.2340 C   0  0  0  0  0  2  0  0  0  0  0  0
  197.1300  173.4010  146.2330 C   0  0  0  0  0  1  0  0  0  0  0  0
  196.9470  174.3510  145.0650 C   0  0  0  0  0  2  0  0  0  0  0  0
  190.6520  174.7390  145.1130 C   0  0  0  0  0  2  0  0  0  0  0  0
  190.2130  174.1010  142.7150 C   0  0  0  0  0  0  0  0  0  0  0  0
  189.3120  173.6060  141.7330 N   0  0  0  0  0  0  0  0  0  0  0  0
  191.3790  174.4380  142.3800 O   0  0  0  0  0  0  0  0  0  0  0  0
  188.9650  173.1970  140.3420 C   0  0  2  0  0  3  0  0  0  0  0  0
  189.7830  174.2170  144.0700 N   0  0  0  0  0  2  0  0  0  0  0  0
  187.9860  173.0720  141.3040 C   0  0  0  0  0  2  0  0  0  0  0  0
  189.6030  171.8490  140.0520 C   0  0  0  0  0  2  0  0  0  0  0  0
  190.6120  171.9860  139.0110 N   0  0  0  0  0  0  0  0  0  0  0  0
  191.8450  173.8880  138.2490 C   0  0  0  0  0  2  0  0  0  0  0  0
  191.8640  171.9700  139.6540 N   0  0  0  0  0  2  0  0  0  0  0  0
  190.4630  173.3110  138.4210 C   0  0  1  0  0  3  0  0  0  0  0  0
  192.7310  172.8700  138.9090 C   0  0  0  0  0  2  0  0  0  0  0  0
  189.7280  173.2410  137.1090 C   0  0  0  0  0  0  0  0  0  0  0  0
  189.8520  171.8850  136.1820 S   0  0  0  0  0  0  0  0  0  0  0  0
  188.8750  174.3770  136.6850 C   0  0  0  0  0  0  0  0  0  0  0  0
  188.3270  176.1520  135.1300 C   0  0  0  0  0  3  0  0  0  0  0  0
  186.9730  175.8310  137.0510 C   0  0  0  0  0  3  0  0  0  0  0  0
  187.2650  176.5000  135.9040 N   0  0  0  0  0  0  0  0  0  0  0  0
  187.7700  174.7600  137.4600 C   0  0  0  0  0  3  0  0  0  0  0  0
  189.1490  175.0870  135.5060 C   0  0  0  0  0  3  0  0  0  0  0  0
  1 19  1  0  0  0  0
  1  2  2  0  0  0  0
  2 23  1  0  0  0  0
  3  6  1  0  0  0  0
  4  2  1  0  0  0  0
  4 12  1  0  0  0  0
  5  8  2  0  0  0  0
  6 10  2  0  0  0  0
  7  3  1  0  0  0  0
  8 12  1  0  0  0  0
  8 10  1  0  0  0  0
  9  5  1  0  0  0  0
  9  3  2  0  0  0  0
 12 11  2  0  0  0  0
 13  4  2  0  0  0  0
 14 13  1  0  0  0  0
 14  5  1  0  0  0  0
 15 16  1  0  0  0  0
 16 22  1  1  0  0  0
 16 20  1  0  0  0  0
 17 20  1  0  0  0  0
 18 15  1  0  0  0  0
 18 19  1  0  0  0  0
 19 17  2  0  0  0  0
 22 21  1  0  0  0  0
 24 28  1  0  0  0  0
 25 24  1  0  0  0  0
 26 24  2  0  0  0  0
 27 30  1  1  0  0  0
 27 29  1  0  0  0  0
 27 25  1  0  0  0  0
 28 23  1  0  0  0  0
 29 25  1  0  0  0  0
 31 33  1  0  0  0  0
 31 30  1  0  0  0  0
 32 34  1  0  0  0  0
 32 35  1  0  0  0  0
 34 36  1  6  0  0  0
 34 31  1  0  0  0  0
 35 33  1  0  0  0  0
 37 36  2  0  0  0  0
 38 36  1  0  0  0  0
 38 42  1  0  0  0  0
 39 43  1  0  0  0  0
 39 41  2  0  0  0  0
 40 42  2  0  0  0  0
 41 40  1  0  0  0  0
 43 38  2  0  0  0  0
M  END
>  <MODEL>
1

>  <REMARK>
 VINA RESULT:      -8.5      0.000      0.000
  Name = 
  9 active torsions:
  status: ('A' for Active; 'I' for Inactive)
    1  A    between atoms: N_1  and  C_35
    2  A    between atoms: C_3  and  N_4
    3  A    between atoms: C_3  and  C_12
    4  A    between atoms: C_8  and  C_34
    5  A    between atoms: C_11  and  C_14
    6  A    between atoms: N_13  and  C_38
    7  A    between atoms: C_14  and  C_22
    8  A    between atoms: C_19  and  C_37
    9  A    between atoms: C_34  and  C_38
                            x       y       z     vdW  Elec       q    Type
                         _______ _______ _______ _____ _____    ______ ____

>  <TORSDO>
F 9

$$$$
=
 OpenBabel11052420463D

 43 48  0  0  1  0  0  0  0  0999 V2000
  191.6910  177.0550  144.8040 N   0  0  0  0  0  0  0  0  0  0  0  0
  190.5730  176.3900  144.9400 C   0  0  0  0  0  0  0  0  0  0  0  0
  184.4220  178.6470  145.6880 C   0  0  0  0  0  0  0  0  0  0  0  0
  189.2840  177.1310  144.8950 C   0  0  0  0  0  0  0  0  0  0  0  0
  186.6040  178.2190  144.7180 C   0  0  0  0  0  0  0  0  0  0  0  0
  184.9070  178.2830  146.9470 C   0  0  0  0  0  3  0  0  0  0  0  0
  183.1330  179.0380  145.5450 F   0  0  0  0  0  0  0  0  0  0  0  0
  187.0930  177.8560  145.9860 C   0  0  0  0  0  0  0  0  0  0  0  0
  185.2720  178.6250  144.5770 C   0  0  0  0  0  3  0  0  0  0  0  0
  186.2390  177.8900  147.0960 C   0  0  0  0  0  3  0  0  0  0  0  0
  188.9990  177.2770  147.2660 O   0  0  0  0  0  0  0  0  0  0  0  0
  188.4920  177.4120  146.1210 C   0  0  0  0  0  0  0  0  0  0  0  0
  188.7930  177.5090  143.7050 C   0  0  0  0  0  3  0  0  0  0  0  0
  187.5200  178.2950  143.5300 C   0  0  0  0  0  2  0  0  0  0  0  0
  195.2270  175.8830  143.7120 C   0  0  0  0  0  2  0  0  0  0  0  0
  195.4010  174.9200  144.8780 C   0  0  2  0  0  3  0  0  0  0  0  0
  193.5470  176.1810  145.9960 C   0  0  0  0  0  3  0  0  0  0  0  0
  193.7440  176.1910  143.5230 C   0  0  0  0  0  2  0  0  0  0  0  0
  193.0320  176.5400  144.8140 C   0  0  0  0  0  0  0  0  0  0  0  0
  194.9330  175.6200  146.1510 C   0  0  0  0  0  2  0  0  0  0  0  0
  197.0560  173.5370  146.1290 C   0  0  0  0  0  1  0  0  0  0  0  0
  196.8620  174.5280  144.9970 C   0  0  0  0  0  2  0  0  0  0  0  0
  190.5620  174.8910  144.9790 C   0  0  0  0  0  2  0  0  0  0  0  0
  189.9700  174.3440  142.5920 C   0  0  0  0  0  0  0  0  0  0  0  0
  189.0150  173.8650  141.6540 N   0  0  0  0  0  0  0  0  0  0  0  0
  191.1000  174.7310  142.1910 O   0  0  0  0  0  0  0  0  0  0  0  0
  188.5800  173.5060  140.2740 C   0  0  2  0  0  3  0  0  0  0  0  0
  189.6360  174.3880  143.9780 N   0  0  0  0  0  2  0  0  0  0  0  0
  187.6770  173.3100  141.2960 C   0  0  0  0  0  2  0  0  0  0  0  0
  189.2320  172.1920  139.8790 C   0  0  0  0  0  2  0  0  0  0  0  0
  190.6680  172.3730  139.7200 N   0  0  0  0  0  0  0  0  0  0  0  0
  192.2070  171.4640  138.1310 C   0  0  0  0  0  2  0  0  0  0  0  0
  190.8470  173.3280  138.7020 N   0  0  0  0  0  2  0  0  0  0  0  0
  191.2200  171.1200  139.2170 C   0  0  1  0  0  3  0  0  0  0  0  0
  192.0500  172.9500  137.9760 C   0  0  0  0  0  2  0  0  0  0  0  0
  191.8690  170.3310  140.3220 C   0  0  0  0  0  0  0  0  0  0  0  0
  192.1670  168.7260  140.1060 S   0  0  0  0  0  0  0  0  0  0  0  0
  192.2630  171.0140  141.5780 C   0  0  0  0  0  0  0  0  0  0  0  0
  191.9020  171.5230  143.9180 C   0  0  0  0  0  3  0  0  0  0  0  0
  193.7730  172.4610  142.8010 C   0  0  0  0  0  3  0  0  0  0  0  0
  193.0180  172.3010  143.9200 N   0  0  0  0  0  0  0  0  0  0  0  0
  193.4100  171.8220  141.6130 C   0  0  0  0  0  3  0  0  0  0  0  0
  191.5060  170.8690  142.7500 C   0  0  0  0  0  3  0  0  0  0  0  0
  1 19  1  0  0  0  0
  1  2  2  0  0  0  0
  2 23  1  0  0  0  0
  3  6  1  0  0  0  0
  4  2  1  0  0  0  0
  4 12  1  0  0  0  0
  5  8  2  0  0  0  0
  6 10  2  0  0  0  0
  7  3  1  0  0  0  0
  8 12  1  0  0  0  0
  8 10  1  0  0  0  0
  9  5  1  0  0  0  0
  9  3  2  0  0  0  0
 12 11  2  0  0  0  0
 13  4  2  0  0  0  0
 14 13  1  0  0  0  0
 14  5  1  0  0  0  0
 15 16  1  0  0  0  0
 16 22  1  1  0  0  0
 16 20  1  0  0  0  0
 17 20  1  0  0  0  0
 18 15  1  0  0  0  0
 18 19  1  0  0  0  0
 19 17  2  0  0  0  0
 22 21  1  0  0  0  0
 24 28  1  0  0  0  0
 25 24  1  0  0  0  0
 26 24  2  0  0  0  0
 27 30  1  1  0  0  0
 27 29  1  0  0  0  0
 27 25  1  0  0  0  0
 28 23  1  0  0  0  0
 29 25  1  0  0  0  0
 31 30  1  0  0  0  0
 32 34  1  0  0  0  0
 33 31  1  0  0  0  0
 34 31  1  0  0  0  0
 34 36  1  1  0  0  0
 35 32  1  0  0  0  0
 35 33  1  0  0  0  0
 36 38  1  0  0  0  0
 37 36  2  0  0  0  0
 38 42  2  0  0  0  0
 38 43  1  0  0  0  0
 39 41  1  0  0  0  0
 40 41  2  0  0  0  0
 42 40  1  0  0  0  0
 43 39  2  0  0  0  0
M  END
>  <MODEL>
2

>  <REMARK>
 VINA RESULT:      -8.4      1.994      3.646
  Name = 
  9 active torsions:
  status: ('A' for Active; 'I' for Inactive)
    1  A    between atoms: N_1  and  C_35
    2  A    between atoms: C_3  and  N_4
    3  A    between atoms: C_3  and  C_12
    4  A    between atoms: C_8  and  C_34
    5  A    between atoms: C_11  and  C_14
    6  A    between atoms: N_13  and  C_38
    7  A    between atoms: C_14  and  C_22
    8  A    between atoms: C_19  and  C_37
    9  A    between atoms: C_34  and  C_38
                            x       y       z     vdW  Elec       q    Type
                         _______ _______ _______ _____ _____    ______ ____

>  <TORSDO>
F 9

$$$$
=
 OpenBabel11052420463D

 43 48  0  0  1  0  0  0  0  0999 V2000
  191.6360  176.9970  144.8160 N   0  0  0  0  0  0  0  0  0  0  0  0
  190.5240  176.3430  145.0270 C   0  0  0  0  0  0  0  0  0  0  0  0
  184.3600  178.5910  145.6910 C   0  0  0  0  0  0  0  0  0  0  0  0
  189.2320  177.0790  144.9590 C   0  0  0  0  0  0  0  0  0  0  0  0
  186.5490  178.1530  144.7440 C   0  0  0  0  0  0  0  0  0  0  0  0
  184.8360  178.2510  146.9600 C   0  0  0  0  0  3  0  0  0  0  0  0
  183.0700  178.9740  145.5330 F   0  0  0  0  0  0  0  0  0  0  0  0
  187.0310  177.8140  146.0230 C   0  0  0  0  0  0  0  0  0  0  0  0
  185.2170  178.5520  144.5870 C   0  0  0  0  0  3  0  0  0  0  0  0
  186.1690  177.8650  147.1260 C   0  0  0  0  0  3  0  0  0  0  0  0
  188.9300  177.2660  147.3250 O   0  0  0  0  0  0  0  0  0  0  0  0
  188.4310  177.3790  146.1740 C   0  0  0  0  0  0  0  0  0  0  0  0
  188.7480  177.4330  143.7590 C   0  0  0  0  0  3  0  0  0  0  0  0
  187.4740  178.2110  143.5620 C   0  0  0  0  0  2  0  0  0  0  0  0
  195.1640  175.7940  143.7310 C   0  0  0  0  0  2  0  0  0  0  0  0
  195.3510  174.8710  144.9260 C   0  0  2  0  0  3  0  0  0  0  0  0
  193.5050  176.1660  146.0190 C   0  0  0  0  0  3  0  0  0  0  0  0
  193.6790  176.0940  143.5450 C   0  0  0  0  0  2  0  0  0  0  0  0
  192.9780  176.4850  144.8300 C   0  0  0  0  0  0  0  0  0  0  0  0
  194.8930  175.6130  146.1800 C   0  0  0  0  0  2  0  0  0  0  0  0
  197.0080  173.4710  146.1560 C   0  0  0  0  0  1  0  0  0  0  0  0
  196.8140  174.4860  145.0450 C   0  0  0  0  0  2  0  0  0  0  0  0
  190.5170  174.8510  145.1730 C   0  0  0  0  0  2  0  0  0  0  0  0
  189.9840  174.3130  142.7700 C   0  0  0  0  0  0  0  0  0  0  0  0
  189.0910  173.7480  141.8190 N   0  0  0  0  0  0  0  0  0  0  0  0
  191.0540  174.8510  142.3810 O   0  0  0  0  0  0  0  0  0  0  0  0
  188.6970  173.3830  140.4280 C   0  0  2  0  0  3  0  0  0  0  0  0
  189.6550  174.2690  144.1570 N   0  0  0  0  0  2  0  0  0  0  0  0
  187.8310  173.0420  141.4440 C   0  0  0  0  0  2  0  0  0  0  0  0
  189.5060  172.1750  139.9890 C   0  0  0  0  0  2  0  0  0  0  0  0
  190.7750  172.6030  139.4170 N   0  0  0  0  0  0  0  0  0  0  0  0
  192.6110  171.3490  138.5340 C   0  0  0  0  0  2  0  0  0  0  0  0
  190.6280  172.5550  138.0190 N   0  0  0  0  0  2  0  0  0  0  0  0
  191.7780  171.6020  139.7650 C   0  0  1  0  0  3  0  0  0  0  0  0
  191.9160  172.1540  137.4730 C   0  0  0  0  0  2  0  0  0  0  0  0
  192.6260  172.0620  140.9200 C   0  0  0  0  0  0  0  0  0  0  0  0
  192.3560  171.4430  142.4220 S   0  0  0  0  0  0  0  0  0  0  0  0
  193.7150  173.0410  140.6860 C   0  0  0  0  0  0  0  0  0  0  0  0
  194.4910  175.2150  139.9520 C   0  0  0  0  0  3  0  0  0  0  0  0
  196.0610  173.6360  140.7680 C   0  0  0  0  0  3  0  0  0  0  0  0
  195.7670  174.8610  140.2570 N   0  0  0  0  0  0  0  0  0  0  0  0
  195.0430  172.7070  140.9920 C   0  0  0  0  0  3  0  0  0  0  0  0
  193.4450  174.3130  140.1600 C   0  0  0  0  0  3  0  0  0  0  0  0
  1 19  1  0  0  0  0
  1  2  2  0  0  0  0
  2 23  1  0  0  0  0
  3  6  1  0  0  0  0
  4  2  1  0  0  0  0
  4 12  1  0  0  0  0
  5  8  2  0  0  0  0
  6 10  2  0  0  0  0
  7  3  1  0  0  0  0
  8 12  1  0  0  0  0
  8 10  1  0  0  0  0
  9  5  1  0  0  0  0
  9  3  2  0  0  0  0
 12 11  2  0  0  0  0
 13  4  2  0  0  0  0
 14 13  1  0  0  0  0
 14  5  1  0  0  0  0
 15 16  1  0  0  0  0
 16 22  1  1  0  0  0
 16 20  1  0  0  0  0
 17 20  1  0  0  0  0
 18 15  1  0  0  0  0
 18 19  1  0  0  0  0
 19 17  2  0  0  0  0
 22 21  1  0  0  0  0
 24 28  1  0  0  0  0
 25 24  1  0  0  0  0
 26 24  2  0  0  0  0
 27 30  1  1  0  0  0
 27 29  1  0  0  0  0
 27 25  1  0  0  0  0
 28 23  1  0  0  0  0
 29 25  1  0  0  0  0
 31 34  1  0  0  0  0
 31 30  1  0  0  0  0
 32 34  1  0  0  0  0
 33 31  1  0  0  0  0
 34 36  1  1  0  0  0
 35 33  1  0  0  0  0
 35 32  1  0  0  0  0
 36 37  2  0  0  0  0
 38 36  1  0  0  0  0
 38 42  1  0  0  0  0
 39 43  1  0  0  0  0
 39 41  2  0  0  0  0
 40 42  2  0  0  0  0
 41 40  1  0  0  0  0
 43 38  2  0  0  0  0
M  END
>  <MODEL>
3

>  <REMARK>
 VINA RESULT:      -8.3      2.148      3.417
  Name = 
  9 active torsions:
  status: ('A' for Active; 'I' for Inactive)
    1  A    between atoms: N_1  and  C_35
    2  A    between atoms: C_3  and  N_4
    3  A    between atoms: C_3  and  C_12
    4  A    between atoms: C_8  and  C_34
    5  A    between atoms: C_11  and  C_14
    6  A    between atoms: N_13  and  C_38
    7  A    between atoms: C_14  and  C_22
    8  A    between atoms: C_19  and  C_37
    9  A    between atoms: C_34  and  C_38
                            x       y       z     vdW  Elec       q    Type
                         _______ _______ _______ _____ _____    ______ ____

>  <TORSDO>
F 9

$$$$
=
 OpenBabel11052420463D

 43 48  0  0  1  0  0  0  0  0999 V2000
  191.7250  176.8410  144.7800 N   0  0  0  0  0  0  0  0  0  0  0  0
  190.6050  176.1670  144.8080 C   0  0  0  0  0  0  0  0  0  0  0  0
  184.5200  178.5540  145.6830 C   0  0  0  0  0  0  0  0  0  0  0  0
  189.3160  176.9070  144.7580 C   0  0  0  0  0  0  0  0  0  0  0  0
  186.6300  177.9870  144.6280 C   0  0  0  0  0  0  0  0  0  0  0  0
  185.0900  178.3470  146.9420 C   0  0  0  0  0  3  0  0  0  0  0  0
  183.2250  178.9340  145.5810 F   0  0  0  0  0  0  0  0  0  0  0  0
  187.2060  177.7820  145.8960 C   0  0  0  0  0  0  0  0  0  0  0  0
  185.2920  178.3840  144.5290 C   0  0  0  0  0  3  0  0  0  0  0  0
  186.4290  177.9640  147.0490 C   0  0  0  0  0  3  0  0  0  0  0  0
  189.1950  177.3540  147.1050 O   0  0  0  0  0  0  0  0  0  0  0  0
  188.6100  177.3480  145.9890 C   0  0  0  0  0  0  0  0  0  0  0  0
  188.7440  177.1360  143.5660 C   0  0  0  0  0  3  0  0  0  0  0  0
  187.4620  177.9050  143.3810 C   0  0  0  0  0  2  0  0  0  0  0  0
  195.3190  175.7710  143.7770 C   0  0  0  0  0  2  0  0  0  0  0  0
  195.4380  174.7130  144.8640 C   0  0  2  0  0  3  0  0  0  0  0  0
  193.5220  175.8720  145.9880 C   0  0  0  0  0  3  0  0  0  0  0  0
  193.8460  176.0930  143.5380 C   0  0  0  0  0  2  0  0  0  0  0  0
  193.0660  176.3300  144.8150 C   0  0  0  0  0  0  0  0  0  0  0  0
  194.9010  175.3020  146.1660 C   0  0  0  0  0  2  0  0  0  0  0  0
  197.0800  173.4810  146.2790 C   0  0  0  0  0  1  0  0  0  0  0  0
  196.8940  174.3140  145.0250 C   0  0  0  0  0  2  0  0  0  0  0  0
  190.6000  174.6700  144.7280 C   0  0  0  0  0  2  0  0  0  0  0  0
  190.0550  173.7090  142.4640 C   0  0  0  0  0  0  0  0  0  0  0  0
  190.5000  173.2980  141.1770 N   0  0  0  0  0  0  0  0  0  0  0  0
  188.8410  173.5840  142.7750 O   0  0  0  0  0  0  0  0  0  0  0  0
  190.2690  172.7460  139.8110 C   0  0  2  0  0  3  0  0  0  0  0  0
  190.9910  174.2550  143.3910 N   0  0  0  0  0  2  0  0  0  0  0  0
  191.5570  173.1070  140.1420 C   0  0  0  0  0  2  0  0  0  0  0  0
  189.6180  173.8150  138.9510 C   0  0  0  0  0  2  0  0  0  0  0  0
  189.3390  173.2890  137.6230 N   0  0  0  0  0  0  0  0  0  0  0  0
  190.7700  172.2900  135.9880 C   0  0  0  0  0  2  0  0  0  0  0  0
  189.2280  171.8930  137.7530 N   0  0  0  0  0  2  0  0  0  0  0  0
  190.5120  173.5380  136.7920 C   0  0  1  0  0  3  0  0  0  0  0  0
  189.7690  171.3110  136.5350 C   0  0  0  0  0  2  0  0  0  0  0  0
  190.3010  174.7330  135.9010 C   0  0  0  0  0  0  0  0  0  0  0  0
  188.8340  174.9660  135.1910 S   0  0  0  0  0  0  0  0  0  0  0  0
  191.4040  175.7040  135.7020 C   0  0  0  0  0  0  0  0  0  0  0  0
  192.3230  177.6840  134.6510 C   0  0  0  0  0  3  0  0  0  0  0  0
  193.6440  176.4750  136.2070 C   0  0  0  0  0  3  0  0  0  0  0  0
  193.4810  177.5120  135.3430 N   0  0  0  0  0  0  0  0  0  0  0  0
  192.6110  175.5560  136.4020 C   0  0  0  0  0  3  0  0  0  0  0  0
  191.2670  176.7840  134.8170 C   0  0  0  0  0  3  0  0  0  0  0  0
  1  2  2  0  0  0  0
  1 19  1  0  0  0  0
  3  6  1  0  0  0  0
  4  2  1  0  0  0  0
  4 12  1  0  0  0  0
  5  8  2  0  0  0  0
  6 10  2  0  0  0  0
  7  3  1  0  0  0  0
  8 12  1  0  0  0  0
  8 10  1  0  0  0  0
  9  5  1  0  0  0  0
  9  3  2  0  0  0  0
 12 11  2  0  0  0  0
 13  4  2  0  0  0  0
 14 13  1  0  0  0  0
 14  5  1  0  0  0  0
 15 16  1  0  0  0  0
 16 22  1  1  0  0  0
 16 20  1  0  0  0  0
 17 20  1  0  0  0  0
 18 15  1  0  0  0  0
 18 19  1  0  0  0  0
 19 17  2  0  0  0  0
 22 21  1  0  0  0  0
 23  2  1  0  0  0  0
 24 26  2  0  0  0  0
 24 28  1  0  0  0  0
 25 24  1  0  0  0  0
 27 30  1  6  0  0  0
 27 29  1  0  0  0  0
 27 25  1  0  0  0  0
 28 23  1  0  0  0  0
 29 25  1  0  0  0  0
 31 33  1  0  0  0  0
 31 30  1  0  0  0  0
 32 35  1  0  0  0  0
 32 34  1  0  0  0  0
 34 36  1  6  0  0  0
 34 31  1  0  0  0  0
 35 33  1  0  0  0  0
 37 36  2  0  0  0  0
 38 36  1  0  0  0  0
 38 42  1  0  0  0  0
 39 43  1  0  0  0  0
 39 41  2  0  0  0  0
 40 42  2  0  0  0  0
 41 40  1  0  0  0  0
 43 38  2  0  0  0  0
M  END
>  <MODEL>
4

>  <REMARK>
 VINA RESULT:      -8.2      1.801      2.361
  Name = 
  9 active torsions:
  status: ('A' for Active; 'I' for Inactive)
    1  A    between atoms: N_1  and  C_35
    2  A    between atoms: C_3  and  N_4
    3  A    between atoms: C_3  and  C_12
    4  A    between atoms: C_8  and  C_34
    5  A    between atoms: C_11  and  C_14
    6  A    between atoms: N_13  and  C_38
    7  A    between atoms: C_14  and  C_22
    8  A    between atoms: C_19  and  C_37
    9  A    between atoms: C_34  and  C_38
                            x       y       z     vdW  Elec       q    Type
                         _______ _______ _______ _____ _____    ______ ____

>  <TORSDO>
F 9

$$$$
=
 OpenBabel11052420463D

 43 48  0  0  1  0  0  0  0  0999 V2000
  191.8780  176.9900  144.9390 N   0  0  0  0  0  0  0  0  0  0  0  0
  190.7710  176.3090  144.8030 C   0  0  0  0  0  0  0  0  0  0  0  0
  184.6620  178.5670  145.8380 C   0  0  0  0  0  0  0  0  0  0  0  0
  189.4730  177.0360  144.8010 C   0  0  0  0  0  0  0  0  0  0  0  0
  186.7740  178.0900  144.7450 C   0  0  0  0  0  0  0  0  0  0  0  0
  185.2380  178.2920  147.0810 C   0  0  0  0  0  3  0  0  0  0  0  0
  183.3610  178.9380  145.7620 F   0  0  0  0  0  0  0  0  0  0  0  0
  187.3570  177.8160  145.9970 C   0  0  0  0  0  0  0  0  0  0  0  0
  185.4310  178.4770  144.6730 C   0  0  0  0  0  3  0  0  0  0  0  0
  186.5820  177.9190  147.1600 C   0  0  0  0  0  3  0  0  0  0  0  0
  189.3550  177.3390  147.1720 O   0  0  0  0  0  0  0  0  0  0  0  0
  188.7660  177.3930  146.0590 C   0  0  0  0  0  0  0  0  0  0  0  0
  188.8940  177.3300  143.6270 C   0  0  0  0  0  3  0  0  0  0  0  0
  187.6030  178.0930  143.4930 C   0  0  0  0  0  2  0  0  0  0  0  0
  195.5510  176.1630  143.9910 C   0  0  0  0  0  2  0  0  0  0  0  0
  195.6220  174.9150  144.8590 C   0  0  2  0  0  3  0  0  0  0  0  0
  193.6140  175.8190  146.0540 C   0  0  0  0  0  3  0  0  0  0  0  0
  194.0900  176.5140  143.7210 C   0  0  0  0  0  2  0  0  0  0  0  0
  193.2250  176.4920  144.9650 C   0  0  0  0  0  0  0  0  0  0  0  0
  194.9900  175.2360  146.2120 C   0  0  0  0  0  2  0  0  0  0  0  0
  197.1940  173.4400  146.1110 C   0  0  0  0  0  1  0  0  0  0  0  0
  197.0720  174.5040  145.0370 C   0  0  0  0  0  2  0  0  0  0  0  0
  190.7960  174.8430  144.4910 C   0  0  0  0  0  2  0  0  0  0  0  0
  192.2820  173.7010  142.8070 C   0  0  0  0  0  0  0  0  0  0  0  0
  192.7170  173.5690  141.4600 N   0  0  0  0  0  0  0  0  0  0  0  0
  192.8020  172.9870  143.7050 O   0  0  0  0  0  0  0  0  0  0  0  0
  193.5520  172.9440  140.3940 C   0  0  2  0  0  3  0  0  0  0  0  0
  191.2630  174.6460  143.1290 N   0  0  0  0  0  2  0  0  0  0  0  0
  192.6730  173.9360  140.0140 C   0  0  0  0  0  2  0  0  0  0  0  0
  192.9840  171.5740  140.0650 C   0  0  0  0  0  2  0  0  0  0  0  0
  192.3350  171.0050  141.2380 N   0  0  0  0  0  0  0  0  0  0  0  0
  190.8020  169.1840  141.4660 C   0  0  0  0  0  2  0  0  0  0  0  0
  193.0760  169.8650  141.5990 N   0  0  0  0  0  2  0  0  0  0  0  0
  191.0160  170.5340  140.8300 C   0  0  1  0  0  3  0  0  0  0  0  0
  192.1250  168.8910  142.1140 C   0  0  0  0  0  2  0  0  0  0  0  0
  189.9430  171.5100  141.2330 C   0  0  0  0  0  0  0  0  0  0  0  0
  189.4440  171.5640  142.8020 S   0  0  0  0  0  0  0  0  0  0  0  0
  189.3750  172.4330  140.2220 C   0  0  0  0  0  0  0  0  0  0  0  0
  188.9140  173.0360  137.9220 C   0  0  0  0  0  3  0  0  0  0  0  0
  188.2030  174.4790  139.6650 C   0  0  0  0  0  3  0  0  0  0  0  0
  188.3020  174.1740  138.3440 N   0  0  0  0  0  0  0  0  0  0  0  0
  188.7350  173.6150  140.6250 C   0  0  0  0  0  3  0  0  0  0  0  0
  189.4600  172.1480  138.8510 C   0  0  0  0  0  3  0  0  0  0  0  0
  1 19  1  0  0  0  0
  2  1  2  0  0  0  0
  3  6  1  0  0  0  0
  4  2  1  0  0  0  0
  4 12  1  0  0  0  0
  5  8  2  0  0  0  0
  6 10  2  0  0  0  0
  7  3  1  0  0  0  0
  8 12  1  0  0  0  0
  8 10  1  0  0  0  0
  9  5  1  0  0  0  0
  9  3  2  0  0  0  0
 12 11  2  0  0  0  0
 13  4  2  0  0  0  0
 14 13  1  0  0  0  0
 14  5  1  0  0  0  0
 15 16  1  0  0  0  0
 16 22  1  1  0  0  0
 16 20  1  0  0  0  0
 17 20  1  0  0  0  0
 18 15  1  0  0  0  0
 18 19  1  0  0  0  0
 19 17  2  0  0  0  0
 22 21  1  0  0  0  0
 23  2  1  0  0  0  0
 24 28  1  0  0  0  0
 24 26  2  0  0  0  0
 25 24  1  0  0  0  0
 27 30  1  6  0  0  0
 27 25  1  0  0  0  0
 28 23  1  0  0  0  0
 29 27  1  0  0  0  0
 29 25  1  0  0  0  0
 30 31  1  0  0  0  0
 31 33  1  0  0  0  0
 32 35  1  0  0  0  0
 33 35  1  0  0  0  0
 34 36  1  1  0  0  0
 34 31  1  0  0  0  0
 34 32  1  0  0  0  0
 36 37  2  0  0  0  0
 38 42  1  0  0  0  0
 38 36  1  0  0  0  0
 39 41  2  0  0  0  0
 39 43  1  0  0  0  0
 40 42  2  0  0  0  0
 41 40  1  0  0  0  0
 43 38  2  0  0  0  0
M  END
>  <MODEL>
5

>  <REMARK>
 VINA RESULT:      -8.1      1.860      2.769
  Name = 
  9 active torsions:
  status: ('A' for Active; 'I' for Inactive)
    1  A    between atoms: N_1  and  C_35
    2  A    between atoms: C_3  and  N_4
    3  A    between atoms: C_3  and  C_12
    4  A    between atoms: C_8  and  C_34
    5  A    between atoms: C_11  and  C_14
    6  A    between atoms: N_13  and  C_38
    7  A    between atoms: C_14  and  C_22
    8  A    between atoms: C_19  and  C_37
    9  A    between atoms: C_34  and  C_38
                            x       y       z     vdW  Elec       q    Type
                         _______ _______ _______ _____ _____    ______ ____

>  <TORSDO>
F 9

$$$$
=
 OpenBabel11052420463D

 43 48  0  0  1  0  0  0  0  0999 V2000
  188.5750  174.5840  141.1710 N   0  0  0  0  0  0  0  0  0  0  0  0
  189.0680  175.5430  141.9110 C   0  0  0  0  0  0  0  0  0  0  0  0
  184.4390  178.3980  145.6410 C   0  0  0  0  0  0  0  0  0  0  0  0
  188.1340  176.4650  142.6110 C   0  0  0  0  0  0  0  0  0  0  0  0
  186.0190  178.0200  143.8400 C   0  0  0  0  0  0  0  0  0  0  0  0
  185.0880  177.4340  146.4170 C   0  0  0  0  0  3  0  0  0  0  0  0
  183.3640  179.0550  146.1360 F   0  0  0  0  0  0  0  0  0  0  0  0
  186.6760  177.0510  144.6230 C   0  0  0  0  0  0  0  0  0  0  0  0
  184.9110  178.6980  144.3590 C   0  0  0  0  0  3  0  0  0  0  0  0
  186.2040  176.7630  145.9100 C   0  0  0  0  0  3  0  0  0  0  0  0
  188.5460  175.6130  144.8090 O   0  0  0  0  0  0  0  0  0  0  0  0
  187.8310  176.3310  144.0600 C   0  0  0  0  0  0  0  0  0  0  0  0
  187.5020  177.4120  141.9020 C   0  0  0  0  0  3  0  0  0  0  0  0
  186.5630  178.4260  142.5000 C   0  0  0  0  0  2  0  0  0  0  0  0
  190.5460  172.7510  138.3730 C   0  0  0  0  0  2  0  0  0  0  0  0
  190.1090  171.3600  138.8090 C   0  0  2  0  0  3  0  0  0  0  0  0
  189.5000  172.4060  141.0030 C   0  0  0  0  0  3  0  0  0  0  0  0
  189.5840  173.7900  138.9450 C   0  0  0  0  0  2  0  0  0  0  0  0
  189.2910  173.5920  140.4190 C   0  0  0  0  0  0  0  0  0  0  0  0
  190.2260  171.2750  140.3290 C   0  0  0  0  0  2  0  0  0  0  0  0
  190.1610  169.2220  137.5270 C   0  0  0  0  0  1  0  0  0  0  0  0
  190.9990  170.3210  138.1520 C   0  0  0  0  0  2  0  0  0  0  0  0
  190.5380  175.6270  142.1920 C   0  0  0  0  0  2  0  0  0  0  0  0
  192.2950  173.8980  142.7130 C   0  0  0  0  0  0  0  0  0  0  0  0
  192.6570  172.6920  143.3740 N   0  0  0  0  0  0  0  0  0  0  0  0
  193.1410  174.4980  141.9990 O   0  0  0  0  0  0  0  0  0  0  0  0
  193.6340  171.6260  143.7420 C   0  0  2  0  0  3  0  0  0  0  0  0
  190.9730  174.4130  142.8630 N   0  0  0  0  0  2  0  0  0  0  0  0
  192.3580  171.5250  144.2540 C   0  0  0  0  0  2  0  0  0  0  0  0
  194.5880  172.1740  144.7900 C   0  0  0  0  0  2  0  0  0  0  0  0
  195.6260  172.9720  144.1530 N   0  0  0  0  0  0  0  0  0  0  0  0
  197.4860  174.1630  145.0720 C   0  0  0  0  0  2  0  0  0  0  0  0
  196.7610  172.1470  144.0410 N   0  0  0  0  0  2  0  0  0  0  0  0
  195.9830  174.0480  145.0710 C   0  0  1  0  0  3  0  0  0  0  0  0
  197.9240  173.0020  144.2240 C   0  0  0  0  0  2  0  0  0  0  0  0
  195.3320  175.3430  144.6660 C   0  0  0  0  0  0  0  0  0  0  0  0
  196.0750  176.3150  143.5630 S   0  0  0  0  0  0  0  0  0  0  0  0
  194.0140  175.7130  145.2380 C   0  0  0  0  0  0  0  0  0  0  0  0
  192.2460  175.4000  146.8630 C   0  0  0  0  0  3  0  0  0  0  0  0
  192.0290  177.1000  145.2230 C   0  0  0  0  0  3  0  0  0  0  0  0
  191.5460  176.4190  146.2960 N   0  0  0  0  0  0  0  0  0  0  0  0
  193.2690  176.7600  144.6770 C   0  0  0  0  0  3  0  0  0  0  0  0
  193.4880  175.0290  146.3450 C   0  0  0  0  0  3  0  0  0  0  0  0
  1  2  2  0  0  0  0
  2 23  1  0  0  0  0
  2  4  1  0  0  0  0
  3  7  1  0  0  0  0
  3  6  1  0  0  0  0
  4 12  1  0  0  0  0
  5  9  1  0  0  0  0
  5  8  2  0  0  0  0
  8 10  1  0  0  0  0
  9  3  2  0  0  0  0
 10  6  2  0  0  0  0
 12  8  1  0  0  0  0
 12 11  2  0  0  0  0
 13 14  1  0  0  0  0
 13  4  2  0  0  0  0
 14  5  1  0  0  0  0
 15 16  1  0  0  0  0
 15 18  1  0  0  0  0
 16 22  1  6  0  0  0
 16 20  1  0  0  0  0
 18 19  1  0  0  0  0
 19 17  2  0  0  0  0
 19  1  1  0  0  0  0
 20 17  1  0  0  0  0
 21 22  1  0  0  0  0
 23 28  1  0  0  0  0
 24 28  1  0  0  0  0
 24 25  1  0  0  0  0
 25 27  1  0  0  0  0
 25 29  1  0  0  0  0
 26 24  2  0  0  0  0
 27 29  1  0  0  0  0
 27 30  1  1  0  0  0
 31 30  1  0  0  0  0
 31 34  1  0  0  0  0
 33 31  1  0  0  0  0
 33 35  1  0  0  0  0
 34 36  1  6  0  0  0
 34 32  1  0  0  0  0
 35 32  1  0  0  0  0
 36 38  1  0  0  0  0
 37 36  2  0  0  0  0
 38 43  1  0  0  0  0
 40 41  2  0  0  0  0
 41 39  1  0  0  0  0
 42 40  1  0  0  0  0
 42 38  2  0  0  0  0
 43 39  2  0  0  0  0
M  END
>  <MODEL>
6

>  <REMARK>
 VINA RESULT:      -8.1      2.728      6.883
  Name = 
  9 active torsions:
  status: ('A' for Active; 'I' for Inactive)
    1  A    between atoms: N_1  and  C_35
    2  A    between atoms: C_3  and  N_4
    3  A    between atoms: C_3  and  C_12
    4  A    between atoms: C_8  and  C_34
    5  A    between atoms: C_11  and  C_14
    6  A    between atoms: N_13  and  C_38
    7  A    between atoms: C_14  and  C_22
    8  A    between atoms: C_19  and  C_37
    9  A    between atoms: C_34  and  C_38
                            x       y       z     vdW  Elec       q    Type
                         _______ _______ _______ _____ _____    ______ ____

>  <TORSDO>
F 9

$$$$
=
 OpenBabel11052420463D

 43 48  0  0  1  0  0  0  0  0999 V2000
  189.2350  177.3890  144.7550 N   0  0  0  0  0  0  0  0  0  0  0  0
  189.8130  176.2200  144.6650 C   0  0  0  0  0  0  0  0  0  0  0  0
  196.2710  174.8930  144.7970 C   0  0  0  0  0  0  0  0  0  0  0  0
  191.2660  176.1090  144.9660 C   0  0  0  0  0  0  0  0  0  0  0  0
  194.0400  175.4950  145.5340 C   0  0  0  0  0  0  0  0  0  0  0  0
  195.9110  175.1630  143.4740 C   0  0  0  0  0  3  0  0  0  0  0  0
  197.5280  174.4770  145.0850 F   0  0  0  0  0  0  0  0  0  0  0  0
  193.6780  175.7700  144.2020 C   0  0  0  0  0  0  0  0  0  0  0  0
  195.3410  175.0690  145.8260 C   0  0  0  0  0  3  0  0  0  0  0  0
  194.6180  175.6020  143.1770 C   0  0  0  0  0  3  0  0  0  0  0  0
  192.0170  176.6410  142.7570 O   0  0  0  0  0  0  0  0  0  0  0  0
  192.3010  176.2010  143.9030 C   0  0  0  0  0  0  0  0  0  0  0  0
  191.6510  175.8640  146.2270 C   0  0  0  0  0  3  0  0  0  0  0  0
  193.0900  175.7670  146.6640 C   0  0  0  0  0  2  0  0  0  0  0  0
  185.8450  178.1350  143.0170 C   0  0  0  0  0  2  0  0  0  0  0  0
  185.3090  178.9890  144.1570 C   0  0  2  0  0  3  0  0  0  0  0  0
  187.0760  177.9240  145.5790 C   0  0  0  0  0  3  0  0  0  0  0  0
  187.3650  178.0440  143.1180 C   0  0  0  0  0  2  0  0  0  0  0  0
  187.8570  177.7140  144.5130 C   0  0  0  0  0  0  0  0  0  0  0  0
  185.6190  178.2800  145.4730 C   0  0  0  0  0  2  0  0  0  0  0  0
  183.3340  178.5200  142.7090 C   0  0  0  0  0  1  0  0  0  0  0  0
  183.8110  179.1690  143.9940 C   0  0  0  0  0  2  0  0  0  0  0  0
  189.0120  174.9760  144.4250 C   0  0  0  0  0  2  0  0  0  0  0  0
  189.7130  173.9710  142.2230 C   0  0  0  0  0  0  0  0  0  0  0  0
  189.5020  173.8410  140.8230 N   0  0  0  0  0  0  0  0  0  0  0  0
  190.6770  173.3720  142.7680 O   0  0  0  0  0  0  0  0  0  0  0  0
  189.8390  173.2880  139.4790 C   0  0  2  0  0  3  0  0  0  0  0  0
  188.8320  174.7850  142.9950 N   0  0  0  0  0  2  0  0  0  0  0  0
  188.7560  174.1360  139.5640 C   0  0  0  0  0  2  0  0  0  0  0  0
  189.3790  171.8410  139.4140 C   0  0  0  0  0  2  0  0  0  0  0  0
  190.4060  171.0170  138.7930 N   0  0  0  0  0  0  0  0  0  0  0  0
  191.2220  168.8360  139.3390 C   0  0  0  0  0  2  0  0  0  0  0  0
  189.7410  170.0910  137.9680 N   0  0  0  0  0  2  0  0  0  0  0  0
  191.0520  170.2450  139.8490 C   0  0  1  0  0  3  0  0  0  0  0  0
  190.5060  168.8550  138.0190 C   0  0  0  0  0  2  0  0  0  0  0  0
  192.3730  170.8540  140.2350 C   0  0  0  0  0  0  0  0  0  0  0  0
  193.3670  171.4460  139.0620 S   0  0  0  0  0  0  0  0  0  0  0  0
  192.7480  170.9470  141.6670 C   0  0  0  0  0  0  0  0  0  0  0  0
  192.5040  170.2440  143.9720 C   0  0  0  0  0  3  0  0  0  0  0  0
  194.0820  171.9310  143.4320 C   0  0  0  0  0  3  0  0  0  0  0  0
  193.4640  171.1320  144.3430 N   0  0  0  0  0  0  0  0  0  0  0  0
  193.7360  171.8510  142.0820 C   0  0  0  0  0  3  0  0  0  0  0  0
  192.1290  170.1360  142.6310 C   0  0  0  0  0  3  0  0  0  0  0  0
  2  1  2  0  0  0  0
  2  4  1  0  0  0  0
  3  7  1  0  0  0  0
  3  9  1  0  0  0  0
  4 13  2  0  0  0  0
  5  9  2  0  0  0  0
  5 14  1  0  0  0  0
  6  3  2  0  0  0  0
  8  5  1  0  0  0  0
 10  6  1  0  0  0  0
 10  8  2  0  0  0  0
 11 12  2  0  0  0  0
 12  8  1  0  0  0  0
 12  4  1  0  0  0  0
 13 14  1  0  0  0  0
 15 18  1  0  0  0  0
 15 16  1  0  0  0  0
 16 22  1  6  0  0  0
 16 20  1  0  0  0  0
 18 19  1  0  0  0  0
 19  1  1  0  0  0  0
 19 17  2  0  0  0  0
 20 17  1  0  0  0  0
 21 22  1  0  0  0  0
 23  2  1  0  0  0  0
 24 26  2  0  0  0  0
 24 28  1  0  0  0  0
 25 24  1  0  0  0  0
 27 30  1  1  0  0  0
 27 29  1  0  0  0  0
 27 25  1  0  0  0  0
 28 23  1  0  0  0  0
 29 25  1  0  0  0  0
 31 30  1  0  0  0  0
 31 34  1  0  0  0  0
 32 34  1  0  0  0  0
 33 35  1  0  0  0  0
 33 31  1  0  0  0  0
 34 36  1  6  0  0  0
 35 32  1  0  0  0  0
 36 38  1  0  0  0  0
 37 36  2  0  0  0  0
 38 42  2  0  0  0  0
 38 43  1  0  0  0  0
 39 41  1  0  0  0  0
 40 41  2  0  0  0  0
 42 40  1  0  0  0  0
 43 39  2  0  0  0  0
M  END
>  <MODEL>
7

>  <REMARK>
 VINA RESULT:      -8.1      3.234      7.662
  Name = 
  9 active torsions:
  status: ('A' for Active; 'I' for Inactive)
    1  A    between atoms: N_1  and  C_35
    2  A    between atoms: C_3  and  N_4
    3  A    between atoms: C_3  and  C_12
    4  A    between atoms: C_8  and  C_34
    5  A    between atoms: C_11  and  C_14
    6  A    between atoms: N_13  and  C_38
    7  A    between atoms: C_14  and  C_22
    8  A    between atoms: C_19  and  C_37
    9  A    between atoms: C_34  and  C_38
                            x       y       z     vdW  Elec       q    Type
                         _______ _______ _______ _____ _____    ______ ____

>  <TORSDO>
F 9

$$$$
=
 OpenBabel11052420463D

 43 48  0  0  1  0  0  0  0  0999 V2000
  191.6870  176.3080  145.1920 N   0  0  0  0  0  0  0  0  0  0  0  0
  190.7230  175.4270  145.2680 C   0  0  0  0  0  0  0  0  0  0  0  0
  185.0580  178.7560  145.8280 C   0  0  0  0  0  0  0  0  0  0  0  0
  189.3360  175.8980  145.5310 C   0  0  0  0  0  0  0  0  0  0  0  0
  186.8070  177.1260  146.2340 C   0  0  0  0  0  0  0  0  0  0  0  0
  185.5950  179.0250  144.5670 C   0  0  0  0  0  3  0  0  0  0  0  0
  183.9460  179.4090  146.2440 F   0  0  0  0  0  0  0  0  0  0  0  0
  187.3470  177.3930  144.9620 C   0  0  0  0  0  0  0  0  0  0  0  0
  185.6560  177.8010  146.6560 C   0  0  0  0  0  3  0  0  0  0  0  0
  186.7360  178.3440  144.1340 C   0  0  0  0  0  3  0  0  0  0  0  0
  188.9490  176.7660  143.3350 O   0  0  0  0  0  0  0  0  0  0  0  0
  188.5690  176.6900  144.5340 C   0  0  0  0  0  0  0  0  0  0  0  0
  188.7810  175.6470  146.7260 C   0  0  0  0  0  3  0  0  0  0  0  0
  187.3750  176.0380  147.0990 C   0  0  0  0  0  2  0  0  0  0  0  0
  195.1680  176.0630  143.4920 C   0  0  0  0  0  2  0  0  0  0  0  0
  195.6750  174.9620  144.4120 C   0  0  2  0  0  3  0  0  0  0  0  0
  193.8210  175.6170  145.9650 C   0  0  0  0  0  3  0  0  0  0  0  0
  193.6430  176.1040  143.5390 C   0  0  0  0  0  2  0  0  0  0  0  0
  193.0820  176.0720  144.9460 C   0  0  0  0  0  0  0  0  0  0  0  0
  195.2890  175.3200  145.8450 C   0  0  0  0  0  2  0  0  0  0  0  0
  197.6400  175.3600  142.9310 C   0  0  0  0  0  1  0  0  0  0  0  0
  197.1830  174.8490  144.2830 C   0  0  0  0  0  2  0  0  0  0  0  0
  190.9630  173.9850  144.9370 C   0  0  0  0  0  2  0  0  0  0  0  0
  190.1300  173.8190  142.5650 C   0  0  0  0  0  0  0  0  0  0  0  0
  189.1290  173.3840  141.6540 N   0  0  0  0  0  0  0  0  0  0  0  0
  191.1340  174.4470  142.1360 O   0  0  0  0  0  0  0  0  0  0  0  0
  188.5620  173.2320  140.2830 C   0  0  2  0  0  3  0  0  0  0  0  0
  189.9850  173.5440  143.9570 N   0  0  0  0  0  2  0  0  0  0  0  0
  187.8400  172.7050  141.3320 C   0  0  0  0  0  2  0  0  0  0  0  0
  189.3230  172.1370  139.5560 C   0  0  0  0  0  2  0  0  0  0  0  0
  190.2660  172.7230  138.6140 N   0  0  0  0  0  0  0  0  0  0  0  0
  191.9910  171.7320  137.2860 C   0  0  0  0  0  2  0  0  0  0  0  0
  189.7430  172.5050  137.3260 N   0  0  0  0  0  2  0  0  0  0  0  0
  191.5060  171.9580  138.6950 C   0  0  1  0  0  3  0  0  0  0  0  0
  190.8780  172.2850  136.4420 C   0  0  0  0  0  2  0  0  0  0  0  0
  192.5350  172.6810  139.5230 C   0  0  0  0  0  0  0  0  0  0  0  0
  193.0670  174.1640  139.0420 S   0  0  0  0  0  0  0  0  0  0  0  0
  193.0300  172.0660  140.7780 C   0  0  0  0  0  0  0  0  0  0  0  0
  194.6650  171.9030  142.5580 C   0  0  0  0  0  3  0  0  0  0  0  0
  192.7800  170.4630  142.5770 C   0  0  0  0  0  3  0  0  0  0  0  0
  193.9410  170.9040  143.1300 N   0  0  0  0  0  0  0  0  0  0  0  0
  192.3050  171.0360  141.3950 C   0  0  0  0  0  3  0  0  0  0  0  0
  194.2240  172.4990  141.3750 C   0  0  0  0  0  3  0  0  0  0  0  0
  1  2  2  0  0  0  0
  2  4  1  0  0  0  0
  3  7  1  0  0  0  0
  3  9  1  0  0  0  0
  4 13  2  0  0  0  0
  5  9  2  0  0  0  0
  5 14  1  0  0  0  0
  6  3  2  0  0  0  0
  8  5  1  0  0  0  0
 10  6  1  0  0  0  0
 10  8  2  0  0  0  0
 11 12  2  0  0  0  0
 12  8  1  0  0  0  0
 12  4  1  0  0  0  0
 13 14  1  0  0  0  0
 15 18  1  0  0  0  0
 15 16  1  0  0  0  0
 16 22  1  1  0  0  0
 16 20  1  0  0  0  0
 18 19  1  0  0  0  0
 19  1  1  0  0  0  0
 19 17  2  0  0  0  0
 20 17  1  0  0  0  0
 21 22  1  0  0  0  0
 23  2  1  0  0  0  0
 24 28  1  0  0  0  0
 25 24  1  0  0  0  0
 26 24  2  0  0  0  0
 27 30  1  6  0  0  0
 27 29  1  0  0  0  0
 27 25  1  0  0  0  0
 28 23  1  0  0  0  0
 29 25  1  0  0  0  0
 31 34  1  0  0  0  0
 31 30  1  0  0  0  0
 32 34  1  0  0  0  0
 33 31  1  0  0  0  0
 34 36  1  1  0  0  0
 35 32  1  0  0  0  0
 35 33  1  0  0  0  0
 36 38  1  0  0  0  0
 37 36  2  0  0  0  0
 38 43  2  0  0  0  0
 38 42  1  0  0  0  0
 39 41  2  0  0  0  0
 40 41  1  0  0  0  0
 42 40  2  0  0  0  0
 43 39  1  0  0  0  0
M  END
>  <MODEL>
8

>  <REMARK>
 VINA RESULT:      -8.0      2.015      3.902
  Name = 
  9 active torsions:
  status: ('A' for Active; 'I' for Inactive)
    1  A    between atoms: N_1  and  C_35
    2  A    between atoms: C_3  and  N_4
    3  A    between atoms: C_3  and  C_12
    4  A    between atoms: C_8  and  C_34
    5  A    between atoms: C_11  and  C_14
    6  A    between atoms: N_13  and  C_38
    7  A    between atoms: C_14  and  C_22
    8  A    between atoms: C_19  and  C_37
    9  A    between atoms: C_34  and  C_38
                            x       y       z     vdW  Elec       q    Type
                         _______ _______ _______ _____ _____    ______ ____

>  <TORSDO>
F 9

$$$$
=
 OpenBabel11052420463D

 43 48  0  0  1  0  0  0  0  0999 V2000
  191.3760  176.0130  145.7660 N   0  0  0  0  0  0  0  0  0  0  0  0
  190.4430  175.8950  144.8580 C   0  0  0  0  0  0  0  0  0  0  0  0
  184.4360  178.4890  145.6760 C   0  0  0  0  0  0  0  0  0  0  0  0
  189.0360  176.2100  145.2250 C   0  0  0  0  0  0  0  0  0  0  0  0
  186.4380  177.1780  146.0690 C   0  0  0  0  0  0  0  0  0  0  0  0
  184.7970  178.6460  144.3350 C   0  0  0  0  0  3  0  0  0  0  0  0
  183.2880  179.0410  146.1370 F   0  0  0  0  0  0  0  0  0  0  0  0
  186.8010  177.3330  144.7170 C   0  0  0  0  0  0  0  0  0  0  0  0
  185.2490  177.7470  146.5380 C   0  0  0  0  0  3  0  0  0  0  0  0
  185.9760  178.0690  143.8570 C   0  0  0  0  0  3  0  0  0  0  0  0
  188.3040  176.7010  143.0010 O   0  0  0  0  0  0  0  0  0  0  0  0
  188.0640  176.7450  144.2370 C   0  0  0  0  0  0  0  0  0  0  0  0
  188.6480  176.0580  146.5010 C   0  0  0  0  0  3  0  0  0  0  0  0
  187.2450  176.3080  146.9890 C   0  0  0  0  0  2  0  0  0  0  0  0
  195.1790  176.4580  145.1270 C   0  0  0  0  0  2  0  0  0  0  0  0
  195.4110  175.0000  144.7570 C   0  0  2  0  0  3  0  0  0  0  0  0
  193.2220  174.5270  145.8790 C   0  0  0  0  0  3  0  0  0  0  0  0
  193.6970  176.7910  144.9820 C   0  0  0  0  0  2  0  0  0  0  0  0
  192.7840  175.7660  145.6240 C   0  0  0  0  0  0  0  0  0  0  0  0
  194.6660  174.1270  145.7630 C   0  0  0  0  0  2  0  0  0  0  0  0
  197.1810  173.5350  145.7260 C   0  0  0  0  0  1  0  0  0  0  0  0
  196.8980  174.6980  144.7950 C   0  0  0  0  0  2  0  0  0  0  0  0
  190.7860  175.6070  143.4270 C   0  0  0  0  0  2  0  0  0  0  0  0
  190.7180  173.5860  141.9250 C   0  0  0  0  0  0  0  0  0  0  0  0
  190.7460  172.1710  141.7860 N   0  0  0  0  0  0  0  0  0  0  0  0
  190.5870  174.3110  140.9030 O   0  0  0  0  0  0  0  0  0  0  0  0
  190.7230  170.9200  140.9740 C   0  0  2  0  0  3  0  0  0  0  0  0
  190.8330  174.1690  143.2210 N   0  0  0  0  0  2  0  0  0  0  0  0
  190.8460  170.7890  142.3410 C   0  0  0  0  0  2  0  0  0  0  0  0
  192.0720  170.7470  140.2980 C   0  0  0  0  0  2  0  0  0  0  0  0
  192.6130  172.0440  139.9190 N   0  0  0  0  0  0  0  0  0  0  0  0
  194.6600  172.6460  138.8400 C   0  0  0  0  0  2  0  0  0  0  0  0
  192.3410  172.2140  138.5490 N   0  0  0  0  0  2  0  0  0  0  0  0
  194.0640  171.9750  140.0510 C   0  0  1  0  0  3  0  0  0  0  0  0
  193.4630  172.9490  137.9850 C   0  0  0  0  0  2  0  0  0  0  0  0
  194.5250  172.6280  141.3260 C   0  0  0  0  0  0  0  0  0  0  0  0
  194.5420  171.7550  142.7240 S   0  0  0  0  0  0  0  0  0  0  0  0
  194.9890  174.0350  141.3040 C   0  0  0  0  0  0  0  0  0  0  0  0
  196.7630  175.6810  141.1840 C   0  0  0  0  0  3  0  0  0  0  0  0
  194.5120  176.4090  141.3590 C   0  0  0  0  0  3  0  0  0  0  0  0
  195.8410  176.6780  141.2620 N   0  0  0  0  0  0  0  0  0  0  0  0
  194.0640  175.0870  141.3800 C   0  0  0  0  0  3  0  0  0  0  0  0
  196.3550  174.3460  141.2040 C   0  0  0  0  0  3  0  0  0  0  0  0
  2  4  1  0  0  0  0
  2  1  2  0  0  0  0
  3  7  1  0  0  0  0
  3  9  1  0  0  0  0
  4 13  2  0  0  0  0
  5  9  2  0  0  0  0
  5 14  1  0  0  0  0
  6  3  2  0  0  0  0
  8  5  1  0  0  0  0
 10  6  1  0  0  0  0
 10  8  2  0  0  0  0
 11 12  2  0  0  0  0
 12  8  1  0  0  0  0
 12  4  1  0  0  0  0
 13 14  1  0  0  0  0
 16 22  1  1  0  0  0
 16 15  1  0  0  0  0
 16 20  1  0  0  0  0
 18 15  1  0  0  0  0
 18 19  1  0  0  0  0
 19  1  1  0  0  0  0
 19 17  2  0  0  0  0
 20 17  1  0  0  0  0
 22 21  1  0  0  0  0
 23  2  1  0  0  0  0
 24 28  1  0  0  0  0
 25 24  1  0  0  0  0
 25 29  1  0  0  0  0
 26 24  2  0  0  0  0
 27 30  1  6  0  0  0
 27 25  1  0  0  0  0
 27 29  1  0  0  0  0
 28 23  1  0  0  0  0
 31 34  1  0  0  0  0
 31 30  1  0  0  0  0
 32 34  1  0  0  0  0
 33 31  1  0  0  0  0
 34 36  1  1  0  0  0
 35 33  1  0  0  0  0
 35 32  1  0  0  0  0
 36 37  2  0  0  0  0
 38 36  1  0  0  0  0
 38 42  1  0  0  0  0
 39 43  1  0  0  0  0
 39 41  2  0  0  0  0
 40 42  2  0  0  0  0
 41 40  1  0  0  0  0
 43 38  2  0  0  0  0
M  END
>  <MODEL>
9

>  <REMARK>
 VINA RESULT:      -8.0      3.007      4.201
  Name = 
  9 active torsions:
  status: ('A' for Active; 'I' for Inactive)
    1  A    between atoms: N_1  and  C_35
    2  A    between atoms: C_3  and  N_4
    3  A    between atoms: C_3  and  C_12
    4  A    between atoms: C_8  and  C_34
    5  A    between atoms: C_11  and  C_14
    6  A    between atoms: N_13  and  C_38
    7  A    between atoms: C_14  and  C_22
    8  A    between atoms: C_19  and  C_37
    9  A    between atoms: C_34  and  C_38
                            x       y       z     vdW  Elec       q    Type
                         _______ _______ _______ _____ _____    ______ ____

>  <TORSDO>
F 9

$$$$
