=
 OpenBabel11052419153D

 32 36  0  0  0  0  0  0  0  0999 V2000
  187.0140  176.6580  141.5170 C   0  0  0  0  0  0  0  0  0  0  0  0
  186.3240  177.2540  144.1570 C   0  0  0  0  0  0  0  0  0  0  0  0
  187.4160  176.3860  140.2020 C   0  0  0  0  0  3  0  0  0  0  0  0
  185.8260  177.4120  141.7580 C   0  0  0  0  0  0  0  0  0  0  0  0
  184.3320  178.4430  143.4520 C   0  0  0  0  0  3  0  0  0  0  0  0
  186.5040  177.4000  147.8760 C   0  0  0  0  0  3  0  0  0  0  0  0
  185.4800  177.7070  143.1090 C   0  0  0  0  0  0  0  0  0  0  0  0
  184.5230  178.5770  147.1330 C   0  0  0  0  0  3  0  0  0  0  0  0
  184.8440  178.2860  145.8040 C   0  0  0  0  0  0  0  0  0  0  0  0
  185.0550  177.8410  140.6320 C   0  0  0  0  0  0  0  0  0  0  0  0
  184.0150  178.7290  144.7780 C   0  0  0  0  0  3  0  0  0  0  0  0
  185.4930  177.5330  139.3330 C   0  0  0  0  0  3  0  0  0  0  0  0
  187.4380  176.5370  143.8670 N   0  0  0  0  0  0  0  0  0  0  0  0
  187.7990  176.2140  142.6010 C   0  0  0  0  0  0  0  0  0  0  0  0
  186.0090  177.5430  145.5000 C   0  0  0  0  0  0  0  0  0  0  0  0
  186.6620  176.8160  139.1180 C   0  0  0  0  0  3  0  0  0  0  0  0
  185.3510  178.1340  148.1670 C   0  0  0  0  0  3  0  0  0  0  0  0
  186.8310  177.1060  146.5500 C   0  0  0  0  0  3  0  0  0  0  0  0
  190.1820  173.3240  141.9710 C   0  0  0  0  0  0  0  0  0  0  0  0
  190.1460  171.9700  141.6660 O   0  0  0  0  0  1  0  0  0  0  0  0
  189.0340  175.4200  142.4180 C   0  0  0  0  0  0  0  0  0  0  0  0
  191.4120  173.9630  142.1380 C   0  0  0  0  0  3  0  0  0  0  0  0
  190.2730  176.0450  142.6010 C   0  0  0  0  0  3  0  0  0  0  0  0
  188.9900  174.0450  142.1170 C   0  0  0  0  0  0  0  0  0  0  0  0
  187.8010  173.4000  142.0000 F   0  0  0  0  0  0  0  0  0  0  0  0
  191.4640  175.3280  142.4570 C   0  0  0  0  0  0  0  0  0  0  0  0
  193.1360  176.4270  143.9130 C   0  0  0  0  0  1  0  0  0  0  0  0
  192.6800  175.9930  142.6390 O   0  0  0  0  0  0  0  0  0  0  0  0
  182.6600  178.1150  140.5360 C   0  0  0  0  0  3  0  0  0  0  0  0
  183.8370  178.5870  140.7990 N   0  0  0  0  0  0  0  0  0  0  0  0
  181.4580  178.9630  140.7400 C   0  0  0  0  0  2  0  0  0  0  0  0
  180.4160  178.1820  141.5110 C   0  0  0  0  0  1  0  0  0  0  0  0
  1  4  2  0  0  0  0
  1 14  1  0  0  0  0
  2 15  1  0  0  0  0
  3  1  1  0  0  0  0
  4  7  1  0  0  0  0
  5 11  2  0  0  0  0
  6 17  1  0  0  0  0
  7  5  1  0  0  0  0
  7  2  2  0  0  0  0
  8 17  2  0  0  0  0
  9  8  1  0  0  0  0
 10 30  1  0  0  0  0
 10  4  1  0  0  0  0
 11  9  1  0  0  0  0
 12 10  2  0  0  0  0
 13  2  1  0  0  0  0
 14 13  2  0  0  0  0
 15  9  2  0  0  0  0
 15 18  1  0  0  0  0
 16 12  1  0  0  0  0
 16  3  2  0  0  0  0
 18  6  2  0  0  0  0
 19 24  2  0  0  0  0
 19 22  1  0  0  0  0
 20 19  1  0  0  0  0
 21 14  1  0  0  0  0
 21 23  2  0  0  0  0
 22 26  2  0  0  0  0
 24 21  1  0  0  0  0
 25 24  1  0  0  0  0
 26 23  1  0  0  0  0
 26 28  1  0  0  0  0
 28 27  1  0  0  0  0
 29 31  1  0  0  0  0
 29 30  2  0  0  0  0
 31 32  1  0  0  0  0
M  END
>  <MODEL>
1

>  <REMARK>
 VINA RESULT:      -8.0      0.000      0.000
  Name = 
  4 active torsions:
  status: ('A' for Active; 'I' for Inactive)
    1  A    between atoms: C_13  and  C_18
    2  A    between atoms: C_14  and  N_29
    3  A    between atoms: O_15  and  C_26
    4  A    between atoms: C_16  and  C_27
                            x       y       z     vdW  Elec       q    Type
                         _______ _______ _______ _____ _____    ______ ____

>  <TORSDO>
F 4

$$$$
=
 OpenBabel11052419153D

 32 36  0  0  0  0  0  0  0  0999 V2000
  191.8550  174.9670  145.2680 C   0  0  0  0  0  0  0  0  0  0  0  0
  190.8440  174.4380  142.7190 C   0  0  0  0  0  0  0  0  0  0  0  0
  192.3780  175.1710  146.5530 C   0  0  0  0  0  3  0  0  0  0  0  0
  190.4930  175.2920  144.9930 C   0  0  0  0  0  0  0  0  0  0  0  0
  188.6610  175.3060  143.3180 C   0  0  0  0  0  3  0  0  0  0  0  0
  190.7040  173.2970  139.1740 C   0  0  0  0  0  3  0  0  0  0  0  0
  189.9880  175.0230  143.6880 C   0  0  0  0  0  0  0  0  0  0  0  0
  188.5390  174.1740  139.8100 C   0  0  0  0  0  3  0  0  0  0  0  0
  189.0230  174.4530  141.0910 C   0  0  0  0  0  0  0  0  0  0  0  0
  189.7050  175.8580  146.0450 C   0  0  0  0  0  0  0  0  0  0  0  0
  188.1830  175.0280  142.0390 C   0  0  0  0  0  3  0  0  0  0  0  0
  190.2790  176.0550  147.3120 C   0  0  0  0  0  3  0  0  0  0  0  0
  192.1330  174.1550  143.0370 N   0  0  0  0  0  0  0  0  0  0  0  0
  192.6650  174.4100  144.2560 C   0  0  0  0  0  0  0  0  0  0  0  0
  190.3640  174.1530  141.4240 C   0  0  0  0  0  0  0  0  0  0  0  0
  191.6000  175.7130  147.5660 C   0  0  0  0  0  3  0  0  0  0  0  0
  189.3780  173.5980  138.8530 C   0  0  0  0  0  3  0  0  0  0  0  0
  191.1950  173.5730  140.4530 C   0  0  0  0  0  3  0  0  0  0  0  0
  195.8180  172.5960  145.3480 C   0  0  0  0  0  0  0  0  0  0  0  0
  196.1960  171.4300  145.9990 O   0  0  0  0  0  1  0  0  0  0  0  0
  194.0850  174.0620  144.4750 C   0  0  0  0  0  0  0  0  0  0  0  0
  196.7960  173.4880  144.9020 C   0  0  0  0  0  3  0  0  0  0  0  0
  195.0750  174.9570  144.0490 C   0  0  0  0  0  3  0  0  0  0  0  0
  194.4620  172.8810  145.1430 C   0  0  0  0  0  0  0  0  0  0  0  0
  193.5210  172.0290  145.6240 F   0  0  0  0  0  0  0  0  0  0  0  0
  196.4290  174.6770  144.2530 C   0  0  0  0  0  0  0  0  0  0  0  0
  197.0460  176.7450  143.0440 C   0  0  0  0  0  1  0  0  0  0  0  0
  197.3840  175.5920  143.8040 O   0  0  0  0  0  0  0  0  0  0  0  0
  187.4710  176.3780  146.7930 C   0  0  0  0  0  3  0  0  0  0  0  0
  188.3320  176.2290  145.8360 N   0  0  0  0  0  0  0  0  0  0  0  0
  186.0720  176.7640  146.4780 C   0  0  0  0  0  2  0  0  0  0  0  0
  185.9590  177.0930  145.0050 C   0  0  0  0  0  1  0  0  0  0  0  0
  1  3  2  0  0  0  0
  2 13  1  0  0  0  0
  2  7  1  0  0  0  0
  3 16  1  0  0  0  0
  4  1  1  0  0  0  0
  4 10  2  0  0  0  0
  5  7  2  0  0  0  0
  6 18  2  0  0  0  0
  7  4  1  0  0  0  0
  8  9  1  0  0  0  0
  9 15  1  0  0  0  0
  9 11  2  0  0  0  0
 10 12  1  0  0  0  0
 11  5  1  0  0  0  0
 12 16  2  0  0  0  0
 13 14  2  0  0  0  0
 14 21  1  0  0  0  0
 14  1  1  0  0  0  0
 15  2  2  0  0  0  0
 17  6  1  0  0  0  0
 17  8  2  0  0  0  0
 18 15  1  0  0  0  0
 19 20  1  0  0  0  0
 21 24  2  0  0  0  0
 22 19  2  0  0  0  0
 23 26  2  0  0  0  0
 23 21  1  0  0  0  0
 24 19  1  0  0  0  0
 24 25  1  0  0  0  0
 26 22  1  0  0  0  0
 27 28  1  0  0  0  0
 28 26  1  0  0  0  0
 30 10  1  0  0  0  0
 30 29  2  0  0  0  0
 31 29  1  0  0  0  0
 32 31  1  0  0  0  0
M  END
>  <MODEL>
2

>  <REMARK>
 VINA RESULT:      -7.7      3.640      7.139
  Name = 
  4 active torsions:
  status: ('A' for Active; 'I' for Inactive)
    1  A    between atoms: C_13  and  C_18
    2  A    between atoms: C_14  and  N_29
    3  A    between atoms: O_15  and  C_26
    4  A    between atoms: C_16  and  C_27
                            x       y       z     vdW  Elec       q    Type
                         _______ _______ _______ _____ _____    ______ ____

>  <TORSDO>
F 4

$$$$
=
 OpenBabel11052419153D

 32 36  0  0  0  0  0  0  0  0999 V2000
  187.0760  176.7980  141.6590 C   0  0  0  0  0  0  0  0  0  0  0  0
  186.4170  177.4000  144.3050 C   0  0  0  0  0  0  0  0  0  0  0  0
  187.4600  176.5260  140.3380 C   0  0  0  0  0  3  0  0  0  0  0  0
  185.8490  177.4800  141.9180 C   0  0  0  0  0  0  0  0  0  0  0  0
  184.3360  178.4470  143.6320 C   0  0  0  0  0  3  0  0  0  0  0  0
  186.6820  177.6290  148.0150 C   0  0  0  0  0  3  0  0  0  0  0  0
  185.5200  177.7780  143.2730 C   0  0  0  0  0  0  0  0  0  0  0  0
  184.6120  178.6650  147.3040 C   0  0  0  0  0  3  0  0  0  0  0  0
  184.9170  178.3690  145.9720 C   0  0  0  0  0  0  0  0  0  0  0  0
  185.0240  177.8380  140.8050 C   0  0  0  0  0  0  0  0  0  0  0  0
  184.0360  178.7380  144.9610 C   0  0  0  0  0  3  0  0  0  0  0  0
  185.4480  177.5330  139.5010 C   0  0  0  0  0  3  0  0  0  0  0  0
  187.5670  176.7490  143.9980 N   0  0  0  0  0  0  0  0  0  0  0  0
  187.9150  176.4240  142.7290 C   0  0  0  0  0  0  0  0  0  0  0  0
  186.1180  177.6940  145.6510 C   0  0  0  0  0  0  0  0  0  0  0  0
  186.6540  176.8870  139.2680 C   0  0  0  0  0  3  0  0  0  0  0  0
  185.4920  178.2950  148.3230 C   0  0  0  0  0  3  0  0  0  0  0  0
  186.9930  177.3300  146.6860 C   0  0  0  0  0  3  0  0  0  0  0  0
  191.6200  175.6570  142.3940 C   0  0  0  0  0  0  0  0  0  0  0  0
  192.8460  176.3010  142.4820 O   0  0  0  0  0  1  0  0  0  0  0  0
  189.1920  175.7070  142.5280 C   0  0  0  0  0  0  0  0  0  0  0  0
  191.5730  174.2960  142.0810 C   0  0  0  0  0  3  0  0  0  0  0  0
  189.1590  174.3460  142.1950 C   0  0  0  0  0  3  0  0  0  0  0  0
  190.4330  176.3680  142.6110 C   0  0  0  0  0  0  0  0  0  0  0  0
  190.4900  177.7000  142.8670 F   0  0  0  0  0  0  0  0  0  0  0  0
  190.3410  173.6340  141.9760 C   0  0  0  0  0  0  0  0  0  0  0  0
  190.6940  171.7570  140.4040 C   0  0  0  0  0  1  0  0  0  0  0  0
  190.2640  172.2760  141.6560 O   0  0  0  0  0  0  0  0  0  0  0  0
  182.6430  178.0830  140.5070 C   0  0  0  0  0  3  0  0  0  0  0  0
  183.7660  178.5080  140.9910 N   0  0  0  0  0  0  0  0  0  0  0  0
  181.3920  178.8450  140.7520 C   0  0  0  0  0  2  0  0  0  0  0  0
  181.2080  179.0460  142.2410 C   0  0  0  0  0  1  0  0  0  0  0  0
  1  4  2  0  0  0  0
  1 14  1  0  0  0  0
  2 15  1  0  0  0  0
  3  1  1  0  0  0  0
  4  7  1  0  0  0  0
  5 11  2  0  0  0  0
  6 17  1  0  0  0  0
  7  5  1  0  0  0  0
  7  2  2  0  0  0  0
  8 17  2  0  0  0  0
  9  8  1  0  0  0  0
 10 30  1  0  0  0  0
 10  4  1  0  0  0  0
 11  9  1  0  0  0  0
 12 10  2  0  0  0  0
 13  2  1  0  0  0  0
 14 13  2  0  0  0  0
 15  9  2  0  0  0  0
 15 18  1  0  0  0  0
 16 12  1  0  0  0  0
 16  3  2  0  0  0  0
 18  6  2  0  0  0  0
 19 20  1  0  0  0  0
 19 24  1  0  0  0  0
 21 24  2  0  0  0  0
 21 14  1  0  0  0  0
 22 19  2  0  0  0  0
 23 21  1  0  0  0  0
 24 25  1  0  0  0  0
 26 22  1  0  0  0  0
 26 23  2  0  0  0  0
 27 28  1  0  0  0  0
 28 26  1  0  0  0  0
 29 31  1  0  0  0  0
 29 30  2  0  0  0  0
 31 32  1  0  0  0  0
M  END
>  <MODEL>
3

>  <REMARK>
 VINA RESULT:      -7.7      1.055      2.100
  Name = 
  4 active torsions:
  status: ('A' for Active; 'I' for Inactive)
    1  A    between atoms: C_13  and  C_18
    2  A    between atoms: C_14  and  N_29
    3  A    between atoms: O_15  and  C_26
    4  A    between atoms: C_16  and  C_27
                            x       y       z     vdW  Elec       q    Type
                         _______ _______ _______ _____ _____    ______ ____

>  <TORSDO>
F 4

$$$$
=
 OpenBabel11052419153D

 32 36  0  0  0  0  0  0  0  0999 V2000
  191.7170  175.1650  145.6140 C   0  0  0  0  0  0  0  0  0  0  0  0
  190.6360  174.6140  143.0990 C   0  0  0  0  0  0  0  0  0  0  0  0
  192.2630  175.3790  146.8870 C   0  0  0  0  0  3  0  0  0  0  0  0
  190.4540  175.7350  145.2750 C   0  0  0  0  0  0  0  0  0  0  0  0
  188.6770  175.9650  143.5570 C   0  0  0  0  0  3  0  0  0  0  0  0
  190.2860  173.1910  139.6720 C   0  0  0  0  0  3  0  0  0  0  0  0
  189.9130  175.4520  143.9870 C   0  0  0  0  0  0  0  0  0  0  0  0
  188.3450  174.5520  140.1670 C   0  0  0  0  0  3  0  0  0  0  0  0
  188.8680  174.8460  141.4290 C   0  0  0  0  0  0  0  0  0  0  0  0
  189.7940  176.5500  146.2490 C   0  0  0  0  0  0  0  0  0  0  0  0
  188.1590  175.6700  142.2970 C   0  0  0  0  0  3  0  0  0  0  0  0
  190.3880  176.7450  147.5070 C   0  0  0  0  0  3  0  0  0  0  0  0
  191.8360  174.1030  143.4750 N   0  0  0  0  0  0  0  0  0  0  0  0
  192.4010  174.3590  144.6800 C   0  0  0  0  0  0  0  0  0  0  0  0
  190.1160  174.3100  141.8240 C   0  0  0  0  0  0  0  0  0  0  0  0
  191.6080  176.1640  147.8260 C   0  0  0  0  0  3  0  0  0  0  0  0
  189.0530  173.7260  139.2900 C   0  0  0  0  0  3  0  0  0  0  0  0
  190.8150  173.4820  140.9330 C   0  0  0  0  0  3  0  0  0  0  0  0
  196.1460  173.8390  145.0430 C   0  0  0  0  0  0  0  0  0  0  0  0
  197.3330  174.5370  144.8690 O   0  0  0  0  0  1  0  0  0  0  0  0
  193.7170  173.7480  144.9660 C   0  0  0  0  0  0  0  0  0  0  0  0
  196.1800  172.5120  145.4780 C   0  0  0  0  0  3  0  0  0  0  0  0
  193.7670  172.4130  145.3850 C   0  0  0  0  0  3  0  0  0  0  0  0
  194.9180  174.4600  144.7800 C   0  0  0  0  0  0  0  0  0  0  0  0
  194.9010  175.7340  144.3110 F   0  0  0  0  0  0  0  0  0  0  0  0
  194.9890  171.7900  145.6480 C   0  0  0  0  0  0  0  0  0  0  0  0
  196.1730  169.7950  146.5080 C   0  0  0  0  0  1  0  0  0  0  0  0
  194.9940  170.4590  146.0730 O   0  0  0  0  0  0  0  0  0  0  0  0
  187.5630  177.2590  146.8280 C   0  0  0  0  0  3  0  0  0  0  0  0
  188.5290  177.1730  145.9700 N   0  0  0  0  0  0  0  0  0  0  0  0
  186.2900  177.9230  146.4480 C   0  0  0  0  0  2  0  0  0  0  0  0
  185.5760  177.0850  145.4090 C   0  0  0  0  0  1  0  0  0  0  0  0
  1  3  2  0  0  0  0
  2 13  1  0  0  0  0
  2  7  1  0  0  0  0
  3 16  1  0  0  0  0
  4  1  1  0  0  0  0
  4 10  2  0  0  0  0
  5  7  2  0  0  0  0
  6 18  2  0  0  0  0
  7  4  1  0  0  0  0
  8  9  1  0  0  0  0
  9 15  1  0  0  0  0
  9 11  2  0  0  0  0
 10 12  1  0  0  0  0
 11  5  1  0  0  0  0
 12 16  2  0  0  0  0
 13 14  2  0  0  0  0
 14 21  1  0  0  0  0
 14  1  1  0  0  0  0
 15  2  2  0  0  0  0
 17  6  1  0  0  0  0
 17  8  2  0  0  0  0
 18 15  1  0  0  0  0
 19 22  1  0  0  0  0
 20 19  1  0  0  0  0
 21 23  2  0  0  0  0
 22 26  2  0  0  0  0
 23 26  1  0  0  0  0
 24 21  1  0  0  0  0
 24 19  2  0  0  0  0
 25 24  1  0  0  0  0
 26 28  1  0  0  0  0
 28 27  1  0  0  0  0
 30 10  1  0  0  0  0
 30 29  2  0  0  0  0
 31 29  1  0  0  0  0
 32 31  1  0  0  0  0
M  END
>  <MODEL>
4

>  <REMARK>
 VINA RESULT:      -7.7      3.677      7.232
  Name = 
  4 active torsions:
  status: ('A' for Active; 'I' for Inactive)
    1  A    between atoms: C_13  and  C_18
    2  A    between atoms: C_14  and  N_29
    3  A    between atoms: O_15  and  C_26
    4  A    between atoms: C_16  and  C_27
                            x       y       z     vdW  Elec       q    Type
                         _______ _______ _______ _____ _____    ______ ____

>  <TORSDO>
F 4

$$$$
=
 OpenBabel11052419153D

 32 36  0  0  0  0  0  0  0  0999 V2000
  190.8090  175.8760  145.5100 C   0  0  0  0  0  0  0  0  0  0  0  0
  190.4940  174.2870  143.2340 C   0  0  0  0  0  0  0  0  0  0  0  0
  190.9480  176.7230  146.6180 C   0  0  0  0  0  3  0  0  0  0  0  0
  191.9240  175.1150  145.0490 C   0  0  0  0  0  0  0  0  0  0  0  0
  192.7890  173.5180  143.3570 C   0  0  0  0  0  3  0  0  0  0  0  0
  188.8920  172.6880  140.2740 C   0  0  0  0  0  3  0  0  0  0  0  0
  191.7520  174.3040  143.8900 C   0  0  0  0  0  0  0  0  0  0  0  0
  191.1910  171.9420  140.4310 C   0  0  0  0  0  3  0  0  0  0  0  0
  191.3710  172.7240  141.5750 C   0  0  0  0  0  0  0  0  0  0  0  0
  193.1580  175.2180  145.7670 C   0  0  0  0  0  0  0  0  0  0  0  0
  192.6050  172.7380  142.2170 C   0  0  0  0  0  3  0  0  0  0  0  0
  193.2440  176.0720  146.8800 C   0  0  0  0  0  3  0  0  0  0  0  0
  189.4660  175.0280  143.7220 N   0  0  0  0  0  0  0  0  0  0  0  0
  189.5740  175.7990  144.8310 C   0  0  0  0  0  0  0  0  0  0  0  0
  190.3020  173.5010  142.0800 C   0  0  0  0  0  0  0  0  0  0  0  0
  192.1530  176.8190  147.3000 C   0  0  0  0  0  3  0  0  0  0  0  0
  189.9530  171.9230  139.7820 C   0  0  0  0  0  3  0  0  0  0  0  0
  189.0660  173.4730  141.4170 C   0  0  0  0  0  3  0  0  0  0  0  0
  186.5850  176.9940  146.8470 C   0  0  0  0  0  0  0  0  0  0  0  0
  185.9430  176.7260  148.0490 O   0  0  0  0  0  1  0  0  0  0  0  0
  188.3780  176.5530  145.2650 C   0  0  0  0  0  0  0  0  0  0  0  0
  186.0830  177.9850  146.0000 C   0  0  0  0  0  3  0  0  0  0  0  0
  187.8540  177.5370  144.4160 C   0  0  0  0  0  3  0  0  0  0  0  0
  187.7270  176.2700  146.4810 C   0  0  0  0  0  0  0  0  0  0  0  0
  188.1760  175.2770  147.2910 F   0  0  0  0  0  0  0  0  0  0  0  0
  186.7140  178.2590  144.7770 C   0  0  0  0  0  0  0  0  0  0  0  0
  185.1880  180.1370  144.2640 C   0  0  0  0  0  1  0  0  0  0  0  0
  186.2300  179.2390  143.9060 O   0  0  0  0  0  0  0  0  0  0  0  0
  195.5330  174.8090  145.6650 C   0  0  0  0  0  3  0  0  0  0  0  0
  194.3180  174.4670  145.3730 N   0  0  0  0  0  0  0  0  0  0  0  0
  196.6700  173.9680  145.2130 C   0  0  0  0  0  2  0  0  0  0  0  0
  196.8160  172.7790  146.1380 C   0  0  0  0  0  1  0  0  0  0  0  0
  1  3  2  0  0  0  0
  2 13  1  0  0  0  0
  2  7  1  0  0  0  0
  3 16  1  0  0  0  0
  4  1  1  0  0  0  0
  4 10  2  0  0  0  0
  5  7  2  0  0  0  0
  6 18  2  0  0  0  0
  7  4  1  0  0  0  0
  8  9  1  0  0  0  0
  9 15  1  0  0  0  0
  9 11  2  0  0  0  0
 10 12  1  0  0  0  0
 11  5  1  0  0  0  0
 12 16  2  0  0  0  0
 13 14  2  0  0  0  0
 14 21  1  0  0  0  0
 14  1  1  0  0  0  0
 15  2  2  0  0  0  0
 17  6  1  0  0  0  0
 17  8  2  0  0  0  0
 18 15  1  0  0  0  0
 19 20  1  0  0  0  0
 21 24  2  0  0  0  0
 22 19  2  0  0  0  0
 23 26  2  0  0  0  0
 23 21  1  0  0  0  0
 24 19  1  0  0  0  0
 24 25  1  0  0  0  0
 26 22  1  0  0  0  0
 28 27  1  0  0  0  0
 28 26  1  0  0  0  0
 30 29  2  0  0  0  0
 30 10  1  0  0  0  0
 31 29  1  0  0  0  0
 31 32  1  0  0  0  0
M  END
>  <MODEL>
5

>  <REMARK>
 VINA RESULT:      -7.6      3.781      9.140
  Name = 
  4 active torsions:
  status: ('A' for Active; 'I' for Inactive)
    1  A    between atoms: C_13  and  C_18
    2  A    between atoms: C_14  and  N_29
    3  A    between atoms: O_15  and  C_26
    4  A    between atoms: C_16  and  C_27
                            x       y       z     vdW  Elec       q    Type
                         _______ _______ _______ _____ _____    ______ ____

>  <TORSDO>
F 4

$$$$
=
 OpenBabel11052419153D

 32 36  0  0  0  0  0  0  0  0999 V2000
  190.8290  174.7900  144.6980 C   0  0  0  0  0  0  0  0  0  0  0  0
  188.4140  176.1410  144.3200 C   0  0  0  0  0  0  0  0  0  0  0  0
  192.0100  174.0570  144.8830 C   0  0  0  0  0  3  0  0  0  0  0  0
  190.4140  175.7340  145.6840 C   0  0  0  0  0  0  0  0  0  0  0  0
  188.6860  177.3690  146.3920 C   0  0  0  0  0  3  0  0  0  0  0  0
  185.2000  177.2000  142.7590 C   0  0  0  0  0  3  0  0  0  0  0  0
  189.1820  176.4220  145.4800 C   0  0  0  0  0  0  0  0  0  0  0  0
  185.5080  178.4080  144.8350 C   0  0  0  0  0  3  0  0  0  0  0  0
  186.7230  177.7480  145.0430 C   0  0  0  0  0  0  0  0  0  0  0  0
  191.2490  175.9280  146.8300 C   0  0  0  0  0  0  0  0  0  0  0  0
  187.4750  178.0260  146.1800 C   0  0  0  0  0  3  0  0  0  0  0  0
  192.4290  175.1780  146.9640 C   0  0  0  0  0  3  0  0  0  0  0  0
  188.8630  175.2370  143.4130 N   0  0  0  0  0  0  0  0  0  0  0  0
  190.0350  174.5720  143.5520 C   0  0  0  0  0  0  0  0  0  0  0  0
  187.1880  176.8010  144.1010 C   0  0  0  0  0  0  0  0  0  0  0  0
  192.8060  174.2500  146.0030 C   0  0  0  0  0  3  0  0  0  0  0  0
  184.7490  178.1350  143.6940 C   0  0  0  0  0  3  0  0  0  0  0  0
  186.4140  176.5360  142.9610 C   0  0  0  0  0  3  0  0  0  0  0  0
  190.6090  171.3560  141.6150 C   0  0  0  0  0  0  0  0  0  0  0  0
  190.4090  169.9890  141.7500 O   0  0  0  0  0  1  0  0  0  0  0  0
  190.4160  173.6170  142.4890 C   0  0  0  0  0  0  0  0  0  0  0  0
  191.2090  171.8560  140.4570 C   0  0  0  0  0  3  0  0  0  0  0  0
  191.0350  174.1040  141.3310 C   0  0  0  0  0  3  0  0  0  0  0  0
  190.2170  172.2300  142.6370 C   0  0  0  0  0  0  0  0  0  0  0  0
  189.6800  171.7260  143.7770 F   0  0  0  0  0  0  0  0  0  0  0  0
  191.4280  173.2340  140.3110 C   0  0  0  0  0  0  0  0  0  0  0  0
  191.4990  173.5840  137.8630 C   0  0  0  0  0  1  0  0  0  0  0  0
  192.0340  173.7630  139.1680 O   0  0  0  0  0  0  0  0  0  0  0  0
  191.7350  177.3010  148.7530 C   0  0  0  0  0  3  0  0  0  0  0  0
  190.9040  176.8760  147.8550 N   0  0  0  0  0  0  0  0  0  0  0  0
  191.2870  178.2830  149.7730 C   0  0  0  0  0  2  0  0  0  0  0  0
  191.6840  177.7950  151.1500 C   0  0  0  0  0  1  0  0  0  0  0  0
  1  3  2  0  0  0  0
  1  4  1  0  0  0  0
  2  7  1  0  0  0  0
  3 16  1  0  0  0  0
  4 10  2  0  0  0  0
  6 18  2  0  0  0  0
  6 17  1  0  0  0  0
  7  4  1  0  0  0  0
  7  5  2  0  0  0  0
  8  9  1  0  0  0  0
  9 11  2  0  0  0  0
 10 12  1  0  0  0  0
 10 30  1  0  0  0  0
 11  5  1  0  0  0  0
 13 14  2  0  0  0  0
 13  2  1  0  0  0  0
 14  1  1  0  0  0  0
 15  2  2  0  0  0  0
 15  9  1  0  0  0  0
 16 12  2  0  0  0  0
 17  8  2  0  0  0  0
 18 15  1  0  0  0  0
 19 20  1  0  0  0  0
 19 24  1  0  0  0  0
 21 24  2  0  0  0  0
 21 14  1  0  0  0  0
 22 19  2  0  0  0  0
 23 21  1  0  0  0  0
 24 25  1  0  0  0  0
 26 22  1  0  0  0  0
 26 23  2  0  0  0  0
 27 28  1  0  0  0  0
 28 26  1  0  0  0  0
 29 31  1  0  0  0  0
 30 29  2  0  0  0  0
 31 32  1  0  0  0  0
M  END
>  <MODEL>
6

>  <REMARK>
 VINA RESULT:      -7.6      2.876      6.436
  Name = 
  4 active torsions:
  status: ('A' for Active; 'I' for Inactive)
    1  A    between atoms: C_13  and  C_18
    2  A    between atoms: C_14  and  N_29
    3  A    between atoms: O_15  and  C_26
    4  A    between atoms: C_16  and  C_27
                            x       y       z     vdW  Elec       q    Type
                         _______ _______ _______ _____ _____    ______ ____

>  <TORSDO>
F 4

$$$$
=
 OpenBabel11052419153D

 32 36  0  0  0  0  0  0  0  0999 V2000
  189.4460  175.3600  144.5460 C   0  0  0  0  0  0  0  0  0  0  0  0
  187.6520  176.4570  142.7080 C   0  0  0  0  0  0  0  0  0  0  0  0
  190.3400  174.7540  145.4390 C   0  0  0  0  0  3  0  0  0  0  0  0
  188.2750  176.0100  145.0400 C   0  0  0  0  0  0  0  0  0  0  0  0
  186.1880  177.2300  144.4780 C   0  0  0  0  0  3  0  0  0  0  0  0
  186.1370  177.4280  139.4450 C   0  0  0  0  0  3  0  0  0  0  0  0
  187.3690  176.5710  144.0940 C   0  0  0  0  0  0  0  0  0  0  0  0
  184.7010  178.1860  141.2410 C   0  0  0  0  0  3  0  0  0  0  0  0
  185.5870  177.6500  142.1810 C   0  0  0  0  0  0  0  0  0  0  0  0
  188.0690  176.0520  146.4550 C   0  0  0  0  0  0  0  0  0  0  0  0
  185.3080  177.7640  143.5390 C   0  0  0  0  0  3  0  0  0  0  0  0
  189.0010  175.4400  147.3100 C   0  0  0  0  0  3  0  0  0  0  0  0
  188.7840  175.8320  142.2970 N   0  0  0  0  0  0  0  0  0  0  0  0
  189.6870  175.3010  143.1570 C   0  0  0  0  0  0  0  0  0  0  0  0
  186.7650  176.9940  141.7530 C   0  0  0  0  0  0  0  0  0  0  0  0
  190.1230  174.7950  146.8100 C   0  0  0  0  0  3  0  0  0  0  0  0
  184.9760  178.0760  139.8760 C   0  0  0  0  0  3  0  0  0  0  0  0
  187.0270  176.8900  140.3780 C   0  0  0  0  0  3  0  0  0  0  0  0
  193.1610  174.7360  141.7310 C   0  0  0  0  0  0  0  0  0  0  0  0
  194.3190  175.4490  141.4490 O   0  0  0  0  0  1  0  0  0  0  0  0
  190.8860  174.6520  142.5840 C   0  0  0  0  0  0  0  0  0  0  0  0
  193.1040  173.3690  141.4460 C   0  0  0  0  0  3  0  0  0  0  0  0
  190.8350  173.2860  142.2760 C   0  0  0  0  0  3  0  0  0  0  0  0
  192.0540  175.3830  142.2930 C   0  0  0  0  0  0  0  0  0  0  0  0
  192.1060  176.7210  142.5190 F   0  0  0  0  0  0  0  0  0  0  0  0
  191.9370  172.6380  141.7150 C   0  0  0  0  0  0  0  0  0  0  0  0
  190.7210  170.4850  141.7950 C   0  0  0  0  0  1  0  0  0  0  0  0
  191.8480  171.2720  141.4320 O   0  0  0  0  0  0  0  0  0  0  0  0
  186.9600  177.8810  147.5700 C   0  0  0  0  0  3  0  0  0  0  0  0
  186.9230  176.7060  147.0250 N   0  0  0  0  0  0  0  0  0  0  0  0
  185.7210  178.4760  148.1340 C   0  0  0  0  0  2  0  0  0  0  0  0
  184.5960  178.3410  147.1320 C   0  0  0  0  0  1  0  0  0  0  0  0
  1  4  1  0  0  0  0
  1  3  2  0  0  0  0
  2  7  1  0  0  0  0
  3 16  1  0  0  0  0
  4 10  2  0  0  0  0
  6 17  1  0  0  0  0
  6 18  2  0  0  0  0
  7  5  2  0  0  0  0
  7  4  1  0  0  0  0
  8  9  1  0  0  0  0
  9 11  2  0  0  0  0
 10 30  1  0  0  0  0
 10 12  1  0  0  0  0
 11  5  1  0  0  0  0
 13  2  1  0  0  0  0
 13 14  2  0  0  0  0
 14  1  1  0  0  0  0
 15  9  1  0  0  0  0
 15  2  2  0  0  0  0
 16 12  2  0  0  0  0
 17  8  2  0  0  0  0
 18 15  1  0  0  0  0
 19 24  1  0  0  0  0
 20 19  1  0  0  0  0
 21 14  1  0  0  0  0
 22 26  1  0  0  0  0
 22 19  2  0  0  0  0
 23 21  1  0  0  0  0
 24 25  1  0  0  0  0
 24 21  2  0  0  0  0
 26 23  2  0  0  0  0
 28 26  1  0  0  0  0
 28 27  1  0  0  0  0
 29 31  1  0  0  0  0
 30 29  2  0  0  0  0
 32 31  1  0  0  0  0
M  END
>  <MODEL>
7

>  <REMARK>
 VINA RESULT:      -7.5      2.072      5.492
  Name = 
  4 active torsions:
  status: ('A' for Active; 'I' for Inactive)
    1  A    between atoms: C_13  and  C_18
    2  A    between atoms: C_14  and  N_29
    3  A    between atoms: O_15  and  C_26
    4  A    between atoms: C_16  and  C_27
                            x       y       z     vdW  Elec       q    Type
                         _______ _______ _______ _____ _____    ______ ____

>  <TORSDO>
F 4

$$$$
=
 OpenBabel11052419153D

 32 36  0  0  0  0  0  0  0  0999 V2000
  188.7300  176.3780  144.2230 C   0  0  0  0  0  0  0  0  0  0  0  0
  189.1030  174.5370  142.1550 C   0  0  0  0  0  0  0  0  0  0  0  0
  188.5370  177.3470  145.2170 C   0  0  0  0  0  3  0  0  0  0  0  0
  189.9200  175.5900  144.2160 C   0  0  0  0  0  0  0  0  0  0  0  0
  191.2350  173.8280  143.0630 C   0  0  0  0  0  3  0  0  0  0  0  0
  188.4620  172.5860  139.0450 C   0  0  0  0  0  3  0  0  0  0  0  0
  190.0980  174.6500  143.1590 C   0  0  0  0  0  0  0  0  0  0  0  0
  190.5870  171.9040  139.9850 C   0  0  0  0  0  3  0  0  0  0  0  0
  190.4200  172.8130  141.0330 C   0  0  0  0  0  0  0  0  0  0  0  0
  190.8740  175.7950  145.2630 C   0  0  0  0  0  0  0  0  0  0  0  0
  191.3960  172.9210  142.0180 C   0  0  0  0  0  3  0  0  0  0  0  0
  190.6290  176.7700  146.2440 C   0  0  0  0  0  3  0  0  0  0  0  0
  187.9890  175.3100  142.2160 N   0  0  0  0  0  0  0  0  0  0  0  0
  187.7640  176.2030  143.2100 C   0  0  0  0  0  0  0  0  0  0  0  0
  189.2620  173.6230  141.0940 C   0  0  0  0  0  0  0  0  0  0  0  0
  189.4750  177.5410  146.2210 C   0  0  0  0  0  3  0  0  0  0  0  0
  189.6090  171.7900  138.9930 C   0  0  0  0  0  3  0  0  0  0  0  0
  188.2890  173.4980  140.0900 C   0  0  0  0  0  3  0  0  0  0  0  0
  184.7890  178.2020  141.9550 C   0  0  0  0  0  0  0  0  0  0  0  0
  184.2520  178.6660  140.7610 O   0  0  0  0  0  1  0  0  0  0  0  0
  186.5060  176.9800  143.1670 C   0  0  0  0  0  0  0  0  0  0  0  0
  184.1460  178.4930  143.1610 C   0  0  0  0  0  3  0  0  0  0  0  0
  185.8620  177.2930  144.3700 C   0  0  0  0  0  3  0  0  0  0  0  0
  185.9720  177.4530  141.9530 C   0  0  0  0  0  0  0  0  0  0  0  0
  186.6120  177.2200  140.7780 F   0  0  0  0  0  0  0  0  0  0  0  0
  184.6820  178.0410  144.3770 C   0  0  0  0  0  0  0  0  0  0  0  0
  184.7650  178.2910  146.8370 C   0  0  0  0  0  1  0  0  0  0  0  0
  184.0660  178.3240  145.5990 O   0  0  0  0  0  0  0  0  0  0  0  0
  193.2240  175.5040  145.7230 C   0  0  0  0  0  3  0  0  0  0  0  0
  192.0860  175.0240  145.3320 N   0  0  0  0  0  0  0  0  0  0  0  0
  194.4240  174.6290  145.7620 C   0  0  0  0  0  2  0  0  0  0  0  0
  194.0300  173.2160  145.3890 C   0  0  0  0  0  1  0  0  0  0  0  0
  1  3  2  0  0  0  0
  2 13  1  0  0  0  0
  2  7  1  0  0  0  0
  3 16  1  0  0  0  0
  4  1  1  0  0  0  0
  4 10  2  0  0  0  0
  5  7  2  0  0  0  0
  6 18  2  0  0  0  0
  7  4  1  0  0  0  0
  8  9  1  0  0  0  0
  9 15  1  0  0  0  0
  9 11  2  0  0  0  0
 10 30  1  0  0  0  0
 10 12  1  0  0  0  0
 11  5  1  0  0  0  0
 13 14  2  0  0  0  0
 14  1  1  0  0  0  0
 15  2  2  0  0  0  0
 16 12  2  0  0  0  0
 17  6  1  0  0  0  0
 17  8  2  0  0  0  0
 18 15  1  0  0  0  0
 19 22  1  0  0  0  0
 20 19  1  0  0  0  0
 21 14  1  0  0  0  0
 21 23  2  0  0  0  0
 22 26  2  0  0  0  0
 23 26  1  0  0  0  0
 24 19  2  0  0  0  0
 24 21  1  0  0  0  0
 25 24  1  0  0  0  0
 26 28  1  0  0  0  0
 28 27  1  0  0  0  0
 29 31  1  0  0  0  0
 30 29  2  0  0  0  0
 32 31  1  0  0  0  0
M  END
>  <MODEL>
8

>  <REMARK>
 VINA RESULT:      -7.5      3.195      8.354
  Name = 
  4 active torsions:
  status: ('A' for Active; 'I' for Inactive)
    1  A    between atoms: C_13  and  C_18
    2  A    between atoms: C_14  and  N_29
    3  A    between atoms: O_15  and  C_26
    4  A    between atoms: C_16  and  C_27
                            x       y       z     vdW  Elec       q    Type
                         _______ _______ _______ _____ _____    ______ ____

>  <TORSDO>
F 4

$$$$
=
 OpenBabel11052419153D

 32 36  0  0  0  0  0  0  0  0999 V2000
  189.7240  175.4290  144.4710 C   0  0  0  0  0  0  0  0  0  0  0  0
  187.7940  176.5050  142.7620 C   0  0  0  0  0  0  0  0  0  0  0  0
  190.6880  174.8340  145.2970 C   0  0  0  0  0  3  0  0  0  0  0  0
  188.5390  175.9830  145.0420 C   0  0  0  0  0  0  0  0  0  0  0  0
  186.3630  177.1030  144.6250 C   0  0  0  0  0  3  0  0  0  0  0  0
  186.0910  177.5410  139.6140 C   0  0  0  0  0  3  0  0  0  0  0  0
  187.5630  176.5340  144.1620 C   0  0  0  0  0  0  0  0  0  0  0  0
  184.6910  178.1250  141.5010 C   0  0  0  0  0  3  0  0  0  0  0  0
  185.6440  177.5970  142.3770 C   0  0  0  0  0  0  0  0  0  0  0  0
  188.3900  175.9440  146.4650 C   0  0  0  0  0  0  0  0  0  0  0  0
  185.4160  177.6290  143.7490 C   0  0  0  0  0  3  0  0  0  0  0  0
  189.3910  175.3490  147.2510 C   0  0  0  0  0  3  0  0  0  0  0  0
  188.9430  175.9680  142.2770 N   0  0  0  0  0  0  0  0  0  0  0  0
  189.9090  175.4510  143.0730 C   0  0  0  0  0  0  0  0  0  0  0  0
  186.8390  177.0340  141.8710 C   0  0  0  0  0  0  0  0  0  0  0  0
  190.5260  174.7960  146.6750 C   0  0  0  0  0  3  0  0  0  0  0  0
  184.9140  178.0970  140.1220 C   0  0  0  0  0  3  0  0  0  0  0  0
  187.0490  177.0120  140.4840 C   0  0  0  0  0  3  0  0  0  0  0  0
  192.3020  173.1250  141.2600 C   0  0  0  0  0  0  0  0  0  0  0  0
  192.3190  171.8590  140.6880 O   0  0  0  0  0  1  0  0  0  0  0  0
  191.1180  174.9030  142.4210 C   0  0  0  0  0  0  0  0  0  0  0  0
  193.4610  173.9050  141.2480 C   0  0  0  0  0  3  0  0  0  0  0  0
  192.2920  175.6680  142.4190 C   0  0  0  0  0  3  0  0  0  0  0  0
  191.1310  173.6150  141.8500 C   0  0  0  0  0  0  0  0  0  0  0  0
  190.0260  172.8280  141.8980 F   0  0  0  0  0  0  0  0  0  0  0  0
  193.4620  175.1810  141.8320 C   0  0  0  0  0  0  0  0  0  0  0  0
  195.4800  176.0570  142.9630 C   0  0  0  0  0  1  0  0  0  0  0  0
  194.6090  175.9800  141.8430 O   0  0  0  0  0  0  0  0  0  0  0  0
  187.1820  177.7050  147.5880 C   0  0  0  0  0  3  0  0  0  0  0  0
  187.2330  176.5010  147.1120 N   0  0  0  0  0  0  0  0  0  0  0  0
  185.9410  178.1920  148.2410 C   0  0  0  0  0  2  0  0  0  0  0  0
  185.1570  179.0410  147.2630 C   0  0  0  0  0  1  0  0  0  0  0  0
  1  4  1  0  0  0  0
  1  3  2  0  0  0  0
  2  7  1  0  0  0  0
  3 16  1  0  0  0  0
  4 10  2  0  0  0  0
  6 17  1  0  0  0  0
  6 18  2  0  0  0  0
  7  5  2  0  0  0  0
  7  4  1  0  0  0  0
  8  9  1  0  0  0  0
  9 11  2  0  0  0  0
 10 30  1  0  0  0  0
 10 12  1  0  0  0  0
 11  5  1  0  0  0  0
 13  2  1  0  0  0  0
 13 14  2  0  0  0  0
 14  1  1  0  0  0  0
 15  9  1  0  0  0  0
 15  2  2  0  0  0  0
 16 12  2  0  0  0  0
 17  8  2  0  0  0  0
 18 15  1  0  0  0  0
 19 24  1  0  0  0  0
 20 19  1  0  0  0  0
 21 14  1  0  0  0  0
 22 19  2  0  0  0  0
 22 26  1  0  0  0  0
 23 21  1  0  0  0  0
 24 25  1  0  0  0  0
 24 21  2  0  0  0  0
 26 28  1  0  0  0  0
 26 23  2  0  0  0  0
 28 27  1  0  0  0  0
 29 31  1  0  0  0  0
 30 29  2  0  0  0  0
 32 31  1  0  0  0  0
M  END
>  <MODEL>
9

>  <REMARK>
 VINA RESULT:      -7.4      1.925      5.173
  Name = 
  4 active torsions:
  status: ('A' for Active; 'I' for Inactive)
    1  A    between atoms: C_13  and  C_18
    2  A    between atoms: C_14  and  N_29
    3  A    between atoms: O_15  and  C_26
    4  A    between atoms: C_16  and  C_27
                            x       y       z     vdW  Elec       q    Type
                         _______ _______ _______ _____ _____    ______ ____

>  <TORSDO>
F 4

$$$$
