=
 OpenBabel11052419483D

 55 58  0  0  1  0  0  0  0  0999 V2000
  194.1770  176.7630  145.8780 C   0  0  0  0  0  2  0  0  0  0  0  0
  191.3160  176.9940  147.9900 C   0  0  0  0  0  1  0  0  0  0  0  0
  195.6240  173.2010  143.9760 C   0  0  2  0  0  3  0  0  0  0  0  0
  192.1090  171.1700  144.5400 O   0  0  0  0  0  1  0  0  0  0  0  0
  195.0150  171.5650  145.6060 O   0  0  0  0  0  1  0  0  0  0  0  0
  192.2250  172.5520  144.3500 C   0  0  2  0  0  0  0  0  0  0  0  0
  193.4060  173.0530  144.9460 O   0  0  0  0  0  0  0  0  0  0  0  0
  191.1370  175.0200  146.5160 C   0  0  0  0  0  2  0  0  0  0  0  0
  197.1880  174.4910  145.2360 F   0  0  0  0  0  0  0  0  0  0  0  0
  194.5210  172.3000  144.5280 C   0  0  1  0  0  3  0  0  0  0  0  0
  191.0200  173.2090  145.0160 C   0  0  0  0  0  2  0  0  0  0  0  0
  194.1920  175.9140  144.6160 C   0  0  0  0  0  2  0  0  0  0  0  0
  192.1910  172.8610  142.8570 C   0  0  0  0  0  1  0  0  0  0  0  0
  193.3560  176.0720  146.9550 C   0  0  0  0  0  2  0  0  0  0  0  0
  191.8730  176.3330  146.7520 C   0  0  2  0  0  3  0  0  0  0  0  0
  195.8600  174.4380  144.8570 C   0  0  1  0  0  3  0  0  0  0  0  0
  191.1700  174.6650  145.1020 N   0  0  0  0  0  0  0  0  0  0  0  0
  195.5070  175.6410  144.2250 O   0  0  0  0  0  0  0  0  0  0  0  0
  195.3740  173.5170  142.5010 C   0  0  0  0  0  2  0  0  0  0  0  0
  196.5900  174.1850  139.5880 C   0  0  1  0  0  3  0  0  0  0  0  0
  196.4000  172.8640  141.5590 C   0  0  2  0  0  0  0  0  0  0  0  0
  197.6220  173.5700  141.6550 O   0  0  0  0  0  0  0  0  0  0  0  0
  195.8140  175.3100  139.8660 O   0  0  0  0  0  1  0  0  0  0  0  0
  197.8360  174.2360  140.4310 C   0  0  0  0  0  2  0  0  0  0  0  0
  195.9280  172.9380  140.1040 C   0  0  1  0  0  3  0  0  0  0  0  0
  193.9590  171.4020  139.8690 C   0  0  0  0  0  1  0  0  0  0  0  0
  194.4090  172.8550  139.8610 C   0  0  2  0  0  3  0  0  0  0  0  0
  194.0680  173.4580  138.5780 N   0  0  0  0  0  2  0  0  0  0  0  0
  191.6220  173.7600  139.2130 C   0  0  0  0  0  1  0  0  0  0  0  0
  192.7500  173.9030  138.2480 C   0  0  0  0  0  0  0  0  0  0  0  0
  192.5400  174.4420  137.1310 O   0  0  0  0  0  0  0  0  0  0  0  0
  196.6070  171.4020  141.9780 C   0  0  0  0  0  2  0  0  0  0  0  0
  197.9410  170.8300  141.5190 C   0  0  0  0  0  2  0  0  0  0  0  0
  197.7360  169.5140  140.7920 C   0  0  0  0  0  2  0  0  0  0  0  0
  197.9320  169.7250  139.3070 C   0  0  0  0  0  1  0  0  0  0  0  0
  190.0670  175.3820  144.4380 C   0  0  1  0  0  3  0  0  0  0  0  0
  187.9250  176.3390  145.1180 C   0  0  0  0  0  3  0  0  0  0  0  0
  189.1870  176.0650  145.4320 C   0  0  0  0  0  3  0  0  0  0  0  0
  185.6340  176.8730  145.8460 C   0  0  0  0  0  3  0  0  0  0  0  0
  186.5700  178.5460  147.8800 C   0  0  0  0  0  0  0  0  0  0  0  0
  187.4750  177.8790  147.0490 C   0  0  0  0  0  3  0  0  0  0  0  0
  184.7310  177.5390  146.6790 C   0  0  0  0  0  3  0  0  0  0  0  0
  187.0080  177.0360  146.0280 C   0  0  0  0  0  0  0  0  0  0  0  0
  187.0240  179.3520  148.8710 F   0  0  0  0  0  0  0  0  0  0  0  0
  185.1980  178.3740  147.6960 C   0  0  0  0  0  3  0  0  0  0  0  0
  190.4960  176.3250  143.3120 C   0  0  0  0  0  2  0  0  0  0  0  0
  188.7120  175.5800  141.7210 C   0  0  0  0  0  3  0  0  0  0  0  0
  187.2230  177.1850  140.6570 C   0  0  0  0  0  0  0  0  0  0  0  0
  188.9320  177.9410  142.2120 C   0  0  0  0  0  3  0  0  0  0  0  0
  187.8710  178.2230  141.3430 C   0  0  0  0  0  3  0  0  0  0  0  0
  187.6520  175.8630  140.8510 C   0  0  0  0  0  3  0  0  0  0  0  0
  189.3510  176.6180  142.4050 C   0  0  0  0  0  0  0  0  0  0  0  0
  186.1140  177.4800  139.7320 C   0  0  0  0  0  0  0  0  0  0  0  0
  185.1770  178.2440  140.0820 O   0  0  0  0  0  1  0  0  0  0  0  0
  186.0980  176.9210  138.4580 O   0  0  0  0  0  0  0  0  0  0  0  0
  1 14  1  0  0  0  0
  3 19  1  6  0  0  0
  3 10  1  0  0  0  0
  3 16  1  0  0  0  0
  6 13  1  6  0  0  0
  6  4  1  0  0  0  0
  6  7  1  0  0  0  0
  6 11  1  0  0  0  0
  8 15  1  0  0  0  0
 10  7  1  0  0  0  0
 10  5  1  1  0  0  0
 11 17  1  0  0  0  0
 12  1  1  0  0  0  0
 15 14  1  0  0  0  0
 15  2  1  1  0  0  0
 16  9  1  6  0  0  0
 17  8  1  0  0  0  0
 18 12  1  0  0  0  0
 18 16  1  0  0  0  0
 20 23  1  1  0  0  0
 20 25  1  0  0  0  0
 20 24  1  0  0  0  0
 21 22  1  0  0  0  0
 21 32  1  1  0  0  0
 21 19  1  0  0  0  0
 24 22  1  0  0  0  0
 25 27  1  1  0  0  0
 25 21  1  0  0  0  0
 27 26  1  6  0  0  0
 28 27  1  0  0  0  0
 30 28  1  0  0  0  0
 30 29  1  0  0  0  0
 31 30  2  0  0  0  0
 33 32  1  0  0  0  0
 34 33  1  0  0  0  0
 35 34  1  0  0  0  0
 36 46  1  6  0  0  0
 36 17  1  0  0  0  0
 36 38  1  0  0  0  0
 37 38  2  0  0  0  0
 37 43  1  0  0  0  0
 39 43  2  0  0  0  0
 39 42  1  0  0  0  0
 40 44  1  0  0  0  0
 41 40  2  0  0  0  0
 42 45  2  0  0  0  0
 43 41  1  0  0  0  0
 45 40  1  0  0  0  0
 47 52  1  0  0  0  0
 48 51  1  0  0  0  0
 48 50  2  0  0  0  0
 49 52  2  0  0  0  0
 50 49  1  0  0  0  0
 51 47  2  0  0  0  0
 52 46  1  0  0  0  0
 53 54  1  0  0  0  0
 53 48  1  0  0  0  0
 55 53  2  0  0  0  0
M  END
>  <MODEL>
1

>  <REMARK>
 VINA RESULT:      -7.8      0.000      0.000
  Name = 
  13 active torsions:
  status: ('A' for Active; 'I' for Inactive)
    1  A    between atoms: C_2  and  C_44
    2  A    between atoms: C_6  and  C_8
    3  A    between atoms: C_6  and  C_46
    4  A    between atoms: C_7  and  C_8
    5  A    between atoms: C_10  and  C_32
    6  A    between atoms: N_11  and  C_38
    7  A    between atoms: C_12  and  C_14
    8  A    between atoms: C_14  and  C_46
    9  A    between atoms: C_28  and  C_49
   10  A    between atoms: C_33  and  C_49
   11  A    between atoms: C_33  and  C_52
   12  A    between atoms: C_38  and  C_53
   13  A    between atoms: N_45  and  C_49
                            x       y       z     vdW  Elec       q    Type
                         _______ _______ _______ _____ _____    ______ ____

>  <TORSDO>
F 13

$$$$
=
 OpenBabel11052419483D

 55 58  0  0  1  0  0  0  0  0999 V2000
  192.5840  177.2000  144.6000 C   0  0  0  0  0  2  0  0  0  0  0  0
  189.1430  177.3800  145.5070 C   0  0  0  0  0  1  0  0  0  0  0  0
  194.8860  173.6080  144.1460 C   0  0  2  0  0  3  0  0  0  0  0  0
  191.5680  171.2120  143.9190 O   0  0  0  0  0  1  0  0  0  0  0  0
  193.8510  172.2230  145.7930 O   0  0  0  0  0  1  0  0  0  0  0  0
  191.6420  172.5380  143.4780 C   0  0  2  0  0  0  0  0  0  0  0  0
  192.4840  173.3090  144.3120 O   0  0  0  0  0  0  0  0  0  0  0  0
  189.6600  175.1670  144.5390 C   0  0  0  0  0  2  0  0  0  0  0  0
  195.7840  175.3240  145.5420 F   0  0  0  0  0  0  0  0  0  0  0  0
  193.7280  172.6680  144.4770 C   0  0  1  0  0  3  0  0  0  0  0  0
  190.2320  173.1180  143.5310 C   0  0  0  0  0  2  0  0  0  0  0  0
  193.1200  176.1480  143.6410 C   0  0  0  0  0  2  0  0  0  0  0  0
  192.1290  172.5620  142.0330 C   0  0  0  0  0  1  0  0  0  0  0  0
  191.4820  176.6000  145.4600 C   0  0  0  0  0  2  0  0  0  0  0  0
  190.1590  176.5960  144.7120 C   0  0  2  0  0  3  0  0  0  0  0  0
  194.6920  175.0060  144.7570 C   0  0  1  0  0  3  0  0  0  0  0  0
  190.2310  174.5710  143.3370 N   0  0  0  0  0  0  0  0  0  0  0  0
  194.5040  176.0080  143.7910 O   0  0  0  0  0  0  0  0  0  0  0  0
  195.1660  173.6110  142.6430 C   0  0  0  0  0  2  0  0  0  0  0  0
  197.3120  175.2310  140.8600 C   0  0  1  0  0  3  0  0  0  0  0  0
  196.6580  173.4560  142.3040 C   0  0  2  0  0  0  0  0  0  0  0  0
  197.4020  174.3690  143.0880 O   0  0  0  0  0  0  0  0  0  0  0  0
  196.1860  176.0520  140.8110 O   0  0  0  0  0  1  0  0  0  0  0  0
  197.9360  175.3470  142.2250 C   0  0  0  0  0  2  0  0  0  0  0  0
  196.9190  173.7810  140.8310 C   0  0  1  0  0  3  0  0  0  0  0  0
  195.8650  171.9460  139.4830 C   0  0  0  0  0  1  0  0  0  0  0  0
  195.8020  173.4250  139.8330 C   0  0  2  0  0  3  0  0  0  0  0  0
  195.9420  174.2140  138.6150 N   0  0  0  0  0  2  0  0  0  0  0  0
  193.4290  174.5490  138.3770 C   0  0  0  0  0  1  0  0  0  0  0  0
  194.8280  174.7660  137.9070 C   0  0  0  0  0  0  0  0  0  0  0  0
  195.0310  175.4620  136.8790 O   0  0  0  0  0  0  0  0  0  0  0  0
  197.0980  172.0190  142.6190 C   0  0  0  0  0  2  0  0  0  0  0  0
  197.9410  171.9140  143.8830 C   0  0  0  0  0  2  0  0  0  0  0  0
  197.6030  170.6470  144.6470 C   0  0  0  0  0  2  0  0  0  0  0  0
  196.9150  171.0100  145.9430 C   0  0  0  0  0  1  0  0  0  0  0  0
  189.3940  174.9830  142.1960 C   0  0  1  0  0  3  0  0  0  0  0  0
  189.1480  173.7420  140.1060 C   0  0  0  0  0  3  0  0  0  0  0  0
  189.9340  174.4530  140.9090 C   0  0  0  0  0  3  0  0  0  0  0  0
  189.9480  171.8080  138.8100 C   0  0  0  0  0  3  0  0  0  0  0  0
  190.2290  173.3520  136.4990 C   0  0  0  0  0  0  0  0  0  0  0  0
  189.7580  173.9360  137.6790 C   0  0  0  0  0  3  0  0  0  0  0  0
  190.4170  171.2250  137.6290 C   0  0  0  0  0  3  0  0  0  0  0  0
  189.6130  173.1610  138.8410 C   0  0  0  0  0  0  0  0  0  0  0  0
  190.3580  174.1010  135.3750 F   0  0  0  0  0  0  0  0  0  0  0  0
  190.5560  171.9970  136.4730 C   0  0  0  0  0  3  0  0  0  0  0  0
  187.9000  174.6900  142.3520 C   0  0  0  0  0  2  0  0  0  0  0  0
  187.5110  177.1580  142.1900 C   0  0  0  0  0  3  0  0  0  0  0  0
  185.7880  178.2510  143.5180 C   0  0  0  0  0  0  0  0  0  0  0  0
  186.1280  175.8490  143.6850 C   0  0  0  0  0  3  0  0  0  0  0  0
  185.4420  177.0080  144.0710 C   0  0  0  0  0  3  0  0  0  0  0  0
  186.8270  178.3180  142.5770 C   0  0  0  0  0  3  0  0  0  0  0  0
  187.1600  175.9220  142.7410 C   0  0  0  0  0  0  0  0  0  0  0  0
  185.0780  179.4740  143.9320 C   0  0  0  0  0  0  0  0  0  0  0  0
  185.6760  180.5810  143.9640 O   0  0  0  0  0  0  0  0  0  0  0  0
  183.7330  179.4160  144.2850 O   0  0  0  0  0  1  0  0  0  0  0  0
  1 14  1  0  0  0  0
  3 19  1  6  0  0  0
  3 10  1  0  0  0  0
  3 16  1  0  0  0  0
  6 13  1  6  0  0  0
  6 11  1  0  0  0  0
  6  4  1  0  0  0  0
  6  7  1  0  0  0  0
  7 10  1  0  0  0  0
  8 15  1  0  0  0  0
 10  5  1  1  0  0  0
 12 18  1  0  0  0  0
 12  1  1  0  0  0  0
 15 14  1  0  0  0  0
 15  2  1  1  0  0  0
 16  9  1  6  0  0  0
 17 11  1  0  0  0  0
 17  8  1  0  0  0  0
 18 16  1  0  0  0  0
 20 23  1  1  0  0  0
 20 24  1  0  0  0  0
 21 32  1  1  0  0  0
 21 19  1  0  0  0  0
 21 22  1  0  0  0  0
 24 22  1  0  0  0  0
 25 27  1  6  0  0  0
 25 20  1  0  0  0  0
 25 21  1  0  0  0  0
 27 26  1  6  0  0  0
 28 27  1  0  0  0  0
 30 29  1  0  0  0  0
 30 28  1  0  0  0  0
 31 30  2  0  0  0  0
 32 33  1  0  0  0  0
 33 34  1  0  0  0  0
 34 35  1  0  0  0  0
 36 38  1  6  0  0  0
 36 46  1  0  0  0  0
 36 17  1  0  0  0  0
 37 38  2  0  0  0  0
 39 43  1  0  0  0  0
 40 41  1  0  0  0  0
 41 43  2  0  0  0  0
 42 39  2  0  0  0  0
 43 37  1  0  0  0  0
 44 40  1  0  0  0  0
 45 40  2  0  0  0  0
 45 42  1  0  0  0  0
 46 52  1  0  0  0  0
 47 51  2  0  0  0  0
 47 52  1  0  0  0  0
 48 53  1  0  0  0  0
 48 50  2  0  0  0  0
 49 50  1  0  0  0  0
 51 48  1  0  0  0  0
 52 49  2  0  0  0  0
 53 54  2  0  0  0  0
 53 55  1  0  0  0  0
M  END
>  <MODEL>
2

>  <REMARK>
 VINA RESULT:      -7.7      2.590      5.060
  Name = 
  13 active torsions:
  status: ('A' for Active; 'I' for Inactive)
    1  A    between atoms: C_2  and  C_44
    2  A    between atoms: C_6  and  C_8
    3  A    between atoms: C_6  and  C_46
    4  A    between atoms: C_7  and  C_8
    5  A    between atoms: C_10  and  C_32
    6  A    between atoms: N_11  and  C_38
    7  A    between atoms: C_12  and  C_14
    8  A    between atoms: C_14  and  C_46
    9  A    between atoms: C_28  and  C_49
   10  A    between atoms: C_33  and  C_49
   11  A    between atoms: C_33  and  C_52
   12  A    between atoms: C_38  and  C_53
   13  A    between atoms: N_45  and  C_49
                            x       y       z     vdW  Elec       q    Type
                         _______ _______ _______ _____ _____    ______ ____

>  <TORSDO>
F 13

$$$$
=
 OpenBabel11052419483D

 55 58  0  0  1  0  0  0  0  0999 V2000
  192.1860  171.2960  142.6830 C   0  0  0  0  0  2  0  0  0  0  0  0
  189.5520  171.9040  145.0040 C   0  0  0  0  0  1  0  0  0  0  0  0
  191.7580  170.9000  138.4330 C   0  0  2  0  0  3  0  0  0  0  0  0
  188.0270  172.5960  138.3980 O   0  0  0  0  0  1  0  0  0  0  0  0
  189.5940  169.8980  138.3100 O   0  0  0  0  0  1  0  0  0  0  0  0
  189.0510  172.9090  139.2990 C   0  0  2  0  0  0  0  0  0  0  0  0
  189.8240  171.7660  139.6120 O   0  0  0  0  0  0  0  0  0  0  0  0
  188.8970  172.6620  142.7470 C   0  0  0  0  0  2  0  0  0  0  0  0
  192.9530  169.1850  139.5850 F   0  0  0  0  0  0  0  0  0  0  0  0
  190.2470  171.1250  138.4320 C   0  0  1  0  0  3  0  0  0  0  0  0
  188.3950  173.4250  140.5760 C   0  0  0  0  0  2  0  0  0  0  0  0
  192.2550  171.9870  141.3300 C   0  0  0  0  0  2  0  0  0  0  0  0
  189.9200  174.0150  138.7110 C   0  0  0  0  0  1  0  0  0  0  0  0
  190.7370  171.0020  143.0380 C   0  0  0  0  0  2  0  0  0  0  0  0
  190.0670  172.2340  143.6240 C   0  0  2  0  0  3  0  0  0  0  0  0
  192.2660  170.3670  139.7820 C   0  0  1  0  0  3  0  0  0  0  0  0
  189.3580  173.5390  141.6770 N   0  0  0  0  0  0  0  0  0  0  0  0
  193.0920  171.2790  140.4590 O   0  0  0  0  0  0  0  0  0  0  0  0
  192.4890  172.1470  137.9330 C   0  0  0  0  0  2  0  0  0  0  0  0
  195.5250  171.7340  136.9240 C   0  0  1  0  0  3  0  0  0  0  0  0
  193.1810  171.9410  136.5750 C   0  0  2  0  0  0  0  0  0  0  0  0
  193.4980  170.5710  136.4270 O   0  0  0  0  0  0  0  0  0  0  0  0
  195.6540  171.7070  138.3120 O   0  0  0  0  0  1  0  0  0  0  0  0
  194.9010  170.4430  136.4710 C   0  0  0  0  0  2  0  0  0  0  0  0
  194.4870  172.7350  136.5030 C   0  0  1  0  0  3  0  0  0  0  0  0
  193.6340  175.0940  136.5620 C   0  0  0  0  0  1  0  0  0  0  0  0
  194.5260  174.0780  137.2570 C   0  0  2  0  0  3  0  0  0  0  0  0
  195.8910  174.5900  137.3070 N   0  0  0  0  0  2  0  0  0  0  0  0
  195.6940  175.2710  139.7520 C   0  0  0  0  0  1  0  0  0  0  0  0
  196.4720  175.1560  138.4850 C   0  0  0  0  0  0  0  0  0  0  0  0
  197.6660  175.5490  138.4580 O   0  0  0  0  0  0  0  0  0  0  0  0
  192.2270  172.3790  135.4540 C   0  0  0  0  0  2  0  0  0  0  0  0
  191.5400  171.2110  134.7600 C   0  0  0  0  0  2  0  0  0  0  0  0
  190.0320  171.3500  134.8460 C   0  0  0  0  0  2  0  0  0  0  0  0
  189.6770  172.7830  135.1710 C   0  0  0  0  0  1  0  0  0  0  0  0
  189.4250  174.9060  142.2220 C   0  0  1  0  0  3  0  0  0  0  0  0
  191.2860  175.5060  143.6860 C   0  0  0  0  0  3  0  0  0  0  0  0
  190.8380  175.3320  142.4470 C   0  0  0  0  0  3  0  0  0  0  0  0
  193.6540  175.7190  143.0460 C   0  0  0  0  0  3  0  0  0  0  0  0
  194.2940  176.9640  145.4640 C   0  0  0  0  0  0  0  0  0  0  0  0
  192.9760  176.5760  145.2020 C   0  0  0  0  0  3  0  0  0  0  0  0
  194.9700  176.1090  143.3070 C   0  0  0  0  0  3  0  0  0  0  0  0
  192.6520  175.9530  143.9880 C   0  0  0  0  0  0  0  0  0  0  0  0
  194.6020  177.5750  146.6350 F   0  0  0  0  0  0  0  0  0  0  0  0
  195.2900  176.7330  144.5170 C   0  0  0  0  0  3  0  0  0  0  0  0
  188.6320  175.9540  141.4370 C   0  0  0  0  0  2  0  0  0  0  0  0
  187.2530  177.9710  141.9830 C   0  0  0  0  0  3  0  0  0  0  0  0
  185.9980  178.1130  144.0640 C   0  0  0  0  0  0  0  0  0  0  0  0
  187.3130  176.1320  143.5570 C   0  0  0  0  0  3  0  0  0  0  0  0
  186.4600  176.8350  144.4160 C   0  0  0  0  0  3  0  0  0  0  0  0
  186.4010  178.6760  142.8430 C   0  0  0  0  0  3  0  0  0  0  0  0
  187.7060  176.6970  142.3370 C   0  0  0  0  0  0  0  0  0  0  0  0
  185.1110  178.8620  144.9720 C   0  0  0  0  0  0  0  0  0  0  0  0
  183.8950  179.0190  144.6910 O   0  0  0  0  0  0  0  0  0  0  0  0
  185.6110  179.3960  146.1560 O   0  0  0  0  0  1  0  0  0  0  0  0
  1 14  1  0  0  0  0
  3 19  1  1  0  0  0
  3 16  1  0  0  0  0
  4  6  1  0  0  0  0
  6 13  1  6  0  0  0
  6  7  1  0  0  0  0
  6 11  1  0  0  0  0
  8 15  1  0  0  0  0
 10  5  1  1  0  0  0
 10  3  1  0  0  0  0
 10  7  1  0  0  0  0
 11 17  1  0  0  0  0
 12  1  1  0  0  0  0
 14 15  1  0  0  0  0
 15  2  1  1  0  0  0
 16  9  1  6  0  0  0
 16 18  1  0  0  0  0
 17 36  1  0  0  0  0
 17  8  1  0  0  0  0
 18 12  1  0  0  0  0
 20 23  1  1  0  0  0
 21 32  1  6  0  0  0
 21 19  1  0  0  0  0
 22 24  1  0  0  0  0
 22 21  1  0  0  0  0
 24 20  1  0  0  0  0
 25 21  1  0  0  0  0
 25 20  1  0  0  0  0
 25 27  1  1  0  0  0
 27 26  1  6  0  0  0
 27 28  1  0  0  0  0
 28 30  1  0  0  0  0
 30 29  1  0  0  0  0
 31 30  2  0  0  0  0
 33 34  1  0  0  0  0
 33 32  1  0  0  0  0
 34 35  1  0  0  0  0
 36 46  1  6  0  0  0
 36 38  1  0  0  0  0
 37 43  1  0  0  0  0
 38 37  2  0  0  0  0
 39 42  2  0  0  0  0
 39 43  1  0  0  0  0
 40 44  1  0  0  0  0
 41 40  1  0  0  0  0
 42 45  1  0  0  0  0
 43 41  2  0  0  0  0
 45 40  2  0  0  0  0
 46 52  1  0  0  0  0
 47 52  2  0  0  0  0
 47 51  1  0  0  0  0
 48 50  1  0  0  0  0
 48 53  1  0  0  0  0
 49 50  2  0  0  0  0
 51 48  2  0  0  0  0
 52 49  1  0  0  0  0
 53 55  1  0  0  0  0
 54 53  2  0  0  0  0
M  END
>  <MODEL>
3

>  <REMARK>
 VINA RESULT:      -7.5      3.203      6.268
  Name = 
  13 active torsions:
  status: ('A' for Active; 'I' for Inactive)
    1  A    between atoms: C_2  and  C_44
    2  A    between atoms: C_6  and  C_8
    3  A    between atoms: C_6  and  C_46
    4  A    between atoms: C_7  and  C_8
    5  A    between atoms: C_10  and  C_32
    6  A    between atoms: N_11  and  C_38
    7  A    between atoms: C_12  and  C_14
    8  A    between atoms: C_14  and  C_46
    9  A    between atoms: C_28  and  C_49
   10  A    between atoms: C_33  and  C_49
   11  A    between atoms: C_33  and  C_52
   12  A    between atoms: C_38  and  C_53
   13  A    between atoms: N_45  and  C_49
                            x       y       z     vdW  Elec       q    Type
                         _______ _______ _______ _____ _____    ______ ____

>  <TORSDO>
F 13

$$$$
=
 OpenBabel11052419483D

 55 58  0  0  1  0  0  0  0  0999 V2000
  192.9820  176.6210  142.9080 C   0  0  0  0  0  2  0  0  0  0  0  0
  190.2250  177.9810  144.7090 C   0  0  0  0  0  1  0  0  0  0  0  0
  194.4080  172.5820  143.1550 C   0  0  2  0  0  3  0  0  0  0  0  0
  190.9680  171.2090  144.9110 O   0  0  0  0  0  1  0  0  0  0  0  0
  193.9150  172.0910  145.4400 O   0  0  0  0  0  1  0  0  0  0  0  0
  191.0460  172.2680  144.0000 C   0  0  2  0  0  0  0  0  0  0  0  0
  192.2440  173.0020  144.1680 O   0  0  0  0  0  0  0  0  0  0  0  0
  190.0150  175.5250  144.5460 C   0  0  0  0  0  2  0  0  0  0  0  0
  196.0050  174.3340  143.4350 F   0  0  0  0  0  0  0  0  0  0  0  0
  193.3530  172.1320  144.1640 C   0  0  1  0  0  3  0  0  0  0  0  0
  189.8620  173.1920  144.2690 C   0  0  0  0  0  2  0  0  0  0  0  0
  192.9520  175.2240  142.3060 C   0  0  0  0  0  2  0  0  0  0  0  0
  190.9310  171.7230  142.5800 C   0  0  0  0  0  1  0  0  0  0  0  0
  192.2300  176.6280  144.2300 C   0  0  0  0  0  2  0  0  0  0  0  0
  190.7330  176.7510  143.9970 C   0  0  2  0  0  3  0  0  0  0  0  0
  194.6610  174.0970  143.2160 C   0  0  1  0  0  3  0  0  0  0  0  0
  189.9850  174.4630  143.5480 N   0  0  0  0  0  0  0  0  0  0  0  0
  194.2520  174.7710  142.0540 O   0  0  0  0  0  0  0  0  0  0  0  0
  194.0790  172.0540  141.7580 C   0  0  0  0  0  2  0  0  0  0  0  0
  196.9820  171.9060  140.3590 C   0  0  1  0  0  3  0  0  0  0  0  0
  195.0240  170.9320  141.2960 C   0  0  2  0  0  0  0  0  0  0  0  0
  196.0540  170.7800  142.2520 O   0  0  0  0  0  0  0  0  0  0  0  0
  196.8270  173.2700  140.6090 O   0  0  0  0  0  1  0  0  0  0  0  0
  197.2620  171.2050  141.6600 C   0  0  0  0  0  2  0  0  0  0  0  0
  195.6740  171.2850  139.9560 C   0  0  1  0  0  3  0  0  0  0  0  0
  193.9990  171.1950  138.0900 C   0  0  0  0  0  1  0  0  0  0  0  0
  194.8300  172.1150  138.9710 C   0  0  2  0  0  3  0  0  0  0  0  0
  195.6940  172.9360  138.1310 N   0  0  0  0  0  2  0  0  0  0  0  0
  194.2020  174.9860  138.3560 C   0  0  0  0  0  1  0  0  0  0  0  0
  195.4210  174.3070  137.8290 C   0  0  0  0  0  0  0  0  0  0  0  0
  196.2310  174.9580  137.1210 O   0  0  0  0  0  0  0  0  0  0  0  0
  194.2280  169.6250  141.1750 C   0  0  0  0  0  2  0  0  0  0  0  0
  194.5020  168.6490  142.3110 C   0  0  0  0  0  2  0  0  0  0  0  0
  193.3080  168.5660  143.2440 C   0  0  0  0  0  2  0  0  0  0  0  0
  193.7910  168.5440  144.6760 C   0  0  0  0  0  1  0  0  0  0  0  0
  188.8360  174.7180  142.6610 C   0  0  1  0  0  3  0  0  0  0  0  0
  187.2460  176.5720  142.6360 C   0  0  0  0  0  3  0  0  0  0  0  0
  187.8230  175.5910  143.3240 C   0  0  0  0  0  3  0  0  0  0  0  0
  186.6210  178.2040  144.3710 C   0  0  0  0  0  3  0  0  0  0  0  0
  184.0630  178.5140  143.2920 C   0  0  0  0  0  0  0  0  0  0  0  0
  184.9780  177.6480  142.6870 C   0  0  0  0  0  3  0  0  0  0  0  0
  185.7070  179.0720  144.9730 C   0  0  0  0  0  3  0  0  0  0  0  0
  186.2650  177.4920  143.2250 C   0  0  0  0  0  0  0  0  0  0  0  0
  182.8240  178.6700  142.7640 F   0  0  0  0  0  0  0  0  0  0  0  0
  184.4270  179.2280  144.4330 C   0  0  0  0  0  3  0  0  0  0  0  0
  189.1990  175.2240  141.2630 C   0  0  0  0  0  2  0  0  0  0  0  0
  190.6680  173.7910  139.8290 C   0  0  0  0  0  3  0  0  0  0  0  0
  189.7470  171.9610  138.5140 C   0  0  0  0  0  0  0  0  0  0  0  0
  188.2950  173.3210  139.9110 C   0  0  0  0  0  3  0  0  0  0  0  0
  188.4700  172.2620  139.0120 C   0  0  0  0  0  3  0  0  0  0  0  0
  190.8440  172.7330  138.9280 C   0  0  0  0  0  3  0  0  0  0  0  0
  189.3940  174.0840  140.3250 C   0  0  0  0  0  0  0  0  0  0  0  0
  189.9330  170.8560  137.5580 C   0  0  0  0  0  0  0  0  0  0  0  0
  189.6900  171.0220  136.3340 O   0  0  0  0  0  0  0  0  0  0  0  0
  190.3860  169.6170  138.0000 O   0  0  0  0  0  1  0  0  0  0  0  0
  1 14  1  0  0  0  0
  3 19  1  6  0  0  0
  3 16  1  0  0  0  0
  3 10  1  0  0  0  0
  6 13  1  6  0  0  0
  6  7  1  0  0  0  0
  6 11  1  0  0  0  0
  6  4  1  0  0  0  0
 10  7  1  0  0  0  0
 10  5  1  1  0  0  0
 12  1  1  0  0  0  0
 15 14  1  0  0  0  0
 15  8  1  0  0  0  0
 15  2  1  1  0  0  0
 16  9  1  6  0  0  0
 17 11  1  0  0  0  0
 17  8  1  0  0  0  0
 18 12  1  0  0  0  0
 18 16  1  0  0  0  0
 20 23  1  1  0  0  0
 20 24  1  0  0  0  0
 21 32  1  6  0  0  0
 21 19  1  0  0  0  0
 21 22  1  0  0  0  0
 24 22  1  0  0  0  0
 25 27  1  1  0  0  0
 25 20  1  0  0  0  0
 25 21  1  0  0  0  0
 27 26  1  6  0  0  0
 28 27  1  0  0  0  0
 30 28  1  0  0  0  0
 30 29  1  0  0  0  0
 31 30  2  0  0  0  0
 32 33  1  0  0  0  0
 33 34  1  0  0  0  0
 34 35  1  0  0  0  0
 36 46  1  6  0  0  0
 36 38  1  0  0  0  0
 36 17  1  0  0  0  0
 37 43  1  0  0  0  0
 37 38  2  0  0  0  0
 39 42  1  0  0  0  0
 40 45  1  0  0  0  0
 41 43  1  0  0  0  0
 41 40  2  0  0  0  0
 43 39  2  0  0  0  0
 44 40  1  0  0  0  0
 45 42  2  0  0  0  0
 47 52  1  0  0  0  0
 48 51  1  0  0  0  0
 48 50  2  0  0  0  0
 49 52  2  0  0  0  0
 50 49  1  0  0  0  0
 51 47  2  0  0  0  0
 52 46  1  0  0  0  0
 53 55  1  0  0  0  0
 53 48  1  0  0  0  0
 54 53  2  0  0  0  0
M  END
>  <MODEL>
4

>  <REMARK>
 VINA RESULT:      -7.0      2.741      3.844
  Name = 
  13 active torsions:
  status: ('A' for Active; 'I' for Inactive)
    1  A    between atoms: C_2  and  C_44
    2  A    between atoms: C_6  and  C_8
    3  A    between atoms: C_6  and  C_46
    4  A    between atoms: C_7  and  C_8
    5  A    between atoms: C_10  and  C_32
    6  A    between atoms: N_11  and  C_38
    7  A    between atoms: C_12  and  C_14
    8  A    between atoms: C_14  and  C_46
    9  A    between atoms: C_28  and  C_49
   10  A    between atoms: C_33  and  C_49
   11  A    between atoms: C_33  and  C_52
   12  A    between atoms: C_38  and  C_53
   13  A    between atoms: N_45  and  C_49
                            x       y       z     vdW  Elec       q    Type
                         _______ _______ _______ _____ _____    ______ ____

>  <TORSDO>
F 13

$$$$
=
 OpenBabel11052419483D

 55 58  0  0  1  0  0  0  0  0999 V2000
  191.5660  177.7880  144.0910 C   0  0  0  0  0  2  0  0  0  0  0  0
  188.1050  177.4640  144.8710 C   0  0  0  0  0  1  0  0  0  0  0  0
  194.5560  174.7520  144.5860 C   0  0  2  0  0  3  0  0  0  0  0  0
  191.7990  171.7370  144.9160 O   0  0  0  0  0  1  0  0  0  0  0  0
  193.7080  173.6220  146.5110 O   0  0  0  0  0  1  0  0  0  0  0  0
  191.6390  172.9020  144.1580 C   0  0  2  0  0  0  0  0  0  0  0  0
  192.2560  174.0100  144.7850 O   0  0  0  0  0  0  0  0  0  0  0  0
  189.1110  175.2390  144.4960 C   0  0  0  0  0  2  0  0  0  0  0  0
  195.0030  176.9020  145.5200 F   0  0  0  0  0  0  0  0  0  0  0  0
  193.5880  173.7000  145.1230 C   0  0  1  0  0  3  0  0  0  0  0  0
  190.1420  173.1720  144.0430 C   0  0  0  0  0  2  0  0  0  0  0  0
  192.3620  176.6700  143.4340 C   0  0  0  0  0  2  0  0  0  0  0  0
  192.2070  172.6770  142.7610 C   0  0  0  0  0  1  0  0  0  0  0  0
  190.5500  177.1990  145.0560 C   0  0  0  0  0  2  0  0  0  0  0  0
  189.3060  176.7390  144.3130 C   0  0  2  0  0  3  0  0  0  0  0  0
  194.0510  176.1830  144.8230 C   0  0  1  0  0  3  0  0  0  0  0  0
  189.8670  174.5020  143.4910 N   0  0  0  0  0  0  0  0  0  0  0  0
  193.7330  176.8600  143.6350 O   0  0  0  0  0  0  0  0  0  0  0  0
  194.9290  174.4480  143.1340 C   0  0  0  0  0  2  0  0  0  0  0  0
  197.3870  175.6900  141.4520 C   0  0  1  0  0  3  0  0  0  0  0  0
  196.4190  174.1130  142.9480 C   0  0  2  0  0  0  0  0  0  0  0  0
  197.1890  175.0030  143.7330 O   0  0  0  0  0  0  0  0  0  0  0  0
  196.3660  176.6170  141.2400 O   0  0  0  0  0  1  0  0  0  0  0  0
  197.9000  175.8490  142.8570 C   0  0  0  0  0  2  0  0  0  0  0  0
  196.8390  174.2910  141.4870 C   0  0  1  0  0  3  0  0  0  0  0  0
  195.4770  172.4840  140.4030 C   0  0  0  0  0  1  0  0  0  0  0  0
  195.7790  173.9750  140.4160 C   0  0  2  0  0  3  0  0  0  0  0  0
  196.2550  174.3810  139.0980 N   0  0  0  0  0  2  0  0  0  0  0  0
  193.9360  175.0960  138.3270 C   0  0  0  0  0  1  0  0  0  0  0  0
  195.3990  174.9240  138.0900 C   0  0  0  0  0  0  0  0  0  0  0  0
  195.8890  175.2800  136.9870 O   0  0  0  0  0  0  0  0  0  0  0  0
  196.6680  172.6680  143.4030 C   0  0  0  0  0  2  0  0  0  0  0  0
  197.6140  172.5670  144.5910 C   0  0  0  0  0  2  0  0  0  0  0  0
  197.1720  171.4640  145.5340 C   0  0  0  0  0  2  0  0  0  0  0  0
  195.8270  170.9340  145.0930 C   0  0  0  0  0  1  0  0  0  0  0  0
  189.0430  174.4420  142.2700 C   0  0  1  0  0  3  0  0  0  0  0  0
  187.4390  176.1150  141.4980 C   0  0  0  0  0  3  0  0  0  0  0  0
  187.7840  175.2290  142.4270 C   0  0  0  0  0  3  0  0  0  0  0  0
  185.7370  177.5420  140.4350 C   0  0  0  0  0  3  0  0  0  0  0  0
  184.4640  178.0060  142.8790 C   0  0  0  0  0  0  0  0  0  0  0  0
  185.5950  177.1860  142.8220 C   0  0  0  0  0  3  0  0  0  0  0  0
  184.6060  178.3600  140.4930 C   0  0  0  0  0  3  0  0  0  0  0  0
  186.2340  176.9480  141.5950 C   0  0  0  0  0  0  0  0  0  0  0  0
  183.8430  178.2260  144.0640 F   0  0  0  0  0  0  0  0  0  0  0  0
  183.9690  178.5920  141.7150 C   0  0  0  0  0  3  0  0  0  0  0  0
  189.7790  174.7960  140.9770 C   0  0  0  0  0  2  0  0  0  0  0  0
  189.6130  173.7970  138.6870 C   0  0  0  0  0  3  0  0  0  0  0  0
  189.8590  171.4000  138.3370 C   0  0  0  0  0  0  0  0  0  0  0  0
  190.0450  172.3400  140.5720 C   0  0  0  0  0  3  0  0  0  0  0  0
  190.0660  171.2320  139.7160 C   0  0  0  0  0  3  0  0  0  0  0  0
  189.6310  172.6890  137.8300 C   0  0  0  0  0  3  0  0  0  0  0  0
  189.8230  173.6240  140.0580 C   0  0  0  0  0  0  0  0  0  0  0  0
  189.8670  170.2350  137.4350 C   0  0  0  0  0  0  0  0  0  0  0  0
  189.6960  169.0740  137.8900 O   0  0  0  0  0  1  0  0  0  0  0  0
  190.0560  170.4100  136.0680 O   0  0  0  0  0  0  0  0  0  0  0  0
  1 14  1  0  0  0  0
  3 19  1  6  0  0  0
  3 16  1  0  0  0  0
  3 10  1  0  0  0  0
  6 13  1  6  0  0  0
  6  7  1  0  0  0  0
  6  4  1  0  0  0  0
  7 10  1  0  0  0  0
 10  5  1  1  0  0  0
 11  6  1  0  0  0  0
 12 18  1  0  0  0  0
 12  1  1  0  0  0  0
 15  8  1  0  0  0  0
 15  2  1  1  0  0  0
 15 14  1  0  0  0  0
 16  9  1  6  0  0  0
 17 11  1  0  0  0  0
 17  8  1  0  0  0  0
 18 16  1  0  0  0  0
 20 23  1  1  0  0  0
 20 25  1  0  0  0  0
 20 24  1  0  0  0  0
 21 19  1  1  0  0  0
 21 32  1  0  0  0  0
 21 22  1  0  0  0  0
 24 22  1  0  0  0  0
 25 27  1  6  0  0  0
 25 21  1  0  0  0  0
 27 26  1  6  0  0  0
 28 27  1  0  0  0  0
 30 29  1  0  0  0  0
 30 28  1  0  0  0  0
 31 30  2  0  0  0  0
 32 33  1  0  0  0  0
 33 34  1  0  0  0  0
 35 34  1  0  0  0  0
 36 46  1  6  0  0  0
 36 38  1  0  0  0  0
 36 17  1  0  0  0  0
 37 43  1  0  0  0  0
 37 38  2  0  0  0  0
 39 42  2  0  0  0  0
 39 43  1  0  0  0  0
 40 44  1  0  0  0  0
 41 40  1  0  0  0  0
 42 45  1  0  0  0  0
 43 41  2  0  0  0  0
 45 40  2  0  0  0  0
 47 52  1  0  0  0  0
 48 50  2  0  0  0  0
 50 49  1  0  0  0  0
 51 48  1  0  0  0  0
 51 47  2  0  0  0  0
 52 49  2  0  0  0  0
 52 46  1  0  0  0  0
 53 54  1  0  0  0  0
 53 48  1  0  0  0  0
 55 53  2  0  0  0  0
M  END
>  <MODEL>
5

>  <REMARK>
 VINA RESULT:      -6.9      2.781      4.177
  Name = 
  13 active torsions:
  status: ('A' for Active; 'I' for Inactive)
    1  A    between atoms: C_2  and  C_44
    2  A    between atoms: C_6  and  C_8
    3  A    between atoms: C_6  and  C_46
    4  A    between atoms: C_7  and  C_8
    5  A    between atoms: C_10  and  C_32
    6  A    between atoms: N_11  and  C_38
    7  A    between atoms: C_12  and  C_14
    8  A    between atoms: C_14  and  C_46
    9  A    between atoms: C_28  and  C_49
   10  A    between atoms: C_33  and  C_49
   11  A    between atoms: C_33  and  C_52
   12  A    between atoms: C_38  and  C_53
   13  A    between atoms: N_45  and  C_49
                            x       y       z     vdW  Elec       q    Type
                         _______ _______ _______ _____ _____    ______ ____

>  <TORSDO>
F 13

$$$$
=
 OpenBabel11052419483D

 55 58  0  0  1  0  0  0  0  0999 V2000
  190.6370  172.7220  138.2110 C   0  0  0  0  0  2  0  0  0  0  0  0
  191.8810  169.3950  137.9330 C   0  0  0  0  0  1  0  0  0  0  0  0
  188.2440  174.2580  141.4230 C   0  0  2  0  0  3  0  0  0  0  0  0
  189.1800  171.1590  143.9360 O   0  0  0  0  0  1  0  0  0  0  0  0
  187.0060  172.3020  142.0100 O   0  0  0  0  0  1  0  0  0  0  0  0
  190.0190  171.6800  142.9450 C   0  0  2  0  0  0  0  0  0  0  0  0
  189.2780  172.0990  141.8160 O   0  0  0  0  0  0  0  0  0  0  0  0
  191.3940  169.9340  140.2940 C   0  0  0  0  0  2  0  0  0  0  0  0
  187.4550  174.6040  139.1970 F   0  0  0  0  0  0  0  0  0  0  0  0
  188.2260  172.9500  142.2100 C   0  0  1  0  0  3  0  0  0  0  0  0
  190.9740  170.5680  142.5220 C   0  0  0  0  0  2  0  0  0  0  0  0
  190.6170  173.4770  139.5310 C   0  0  0  0  0  2  0  0  0  0  0  0
  190.8320  172.8320  143.5260 C   0  0  0  0  0  1  0  0  0  0  0  0
  190.3420  171.2510  138.4540 C   0  0  0  0  0  2  0  0  0  0  0  0
  191.5960  170.5180  138.9020 C   0  0  2  0  0  3  0  0  0  0  0  0
  188.4820  174.0300  139.9210 C   0  0  1  0  0  3  0  0  0  0  0  0
  191.7240  170.9230  141.3130 N   0  0  0  0  0  0  0  0  0  0  0  0
  189.7110  174.5410  139.4740 O   0  0  0  0  0  0  0  0  0  0  0  0
  189.2020  175.2620  142.0660 C   0  0  0  0  0  2  0  0  0  0  0  0
  190.1270  178.1300  143.2180 C   0  0  1  0  0  3  0  0  0  0  0  0
  188.4910  176.5100  142.6180 C   0  0  2  0  0  0  0  0  0  0  0  0
  188.4700  177.5040  141.6130 O   0  0  0  0  0  0  0  0  0  0  0  0
  191.3250  177.5740  142.7690 O   0  0  0  0  0  1  0  0  0  0  0  0
  189.3150  178.5550  142.0250 C   0  0  0  0  0  2  0  0  0  0  0  0
  189.2440  177.0760  143.8240 C   0  0  1  0  0  3  0  0  0  0  0  0
  188.9480  175.3050  145.5770 C   0  0  0  0  0  1  0  0  0  0  0  0
  189.9630  176.0620  144.7340 C   0  0  2  0  0  3  0  0  0  0  0  0
  190.9020  176.7490  145.6130 N   0  0  0  0  0  2  0  0  0  0  0  0
  192.2410  174.6310  146.0660 C   0  0  0  0  0  1  0  0  0  0  0  0
  191.9990  176.0910  146.2530 C   0  0  0  0  0  0  0  0  0  0  0  0
  192.7850  176.7580  146.9740 O   0  0  0  0  0  0  0  0  0  0  0  0
  187.0550  176.1360  143.0130 C   0  0  0  0  0  2  0  0  0  0  0  0
  186.0060  177.0430  142.3860 C   0  0  0  0  0  2  0  0  0  0  0  0
  185.1870  177.7360  143.4590 C   0  0  0  0  0  2  0  0  0  0  0  0
  185.9550  178.9270  143.9850 C   0  0  0  0  0  1  0  0  0  0  0  0
  193.1820  170.8730  141.5240 C   0  0  1  0  0  3  0  0  0  0  0  0
  194.3050  172.8940  142.3120 C   0  0  0  0  0  3  0  0  0  0  0  0
  193.6050  171.8050  142.6110 C   0  0  0  0  0  3  0  0  0  0  0  0
  194.5450  175.2020  143.1360 C   0  0  0  0  0  3  0  0  0  0  0  0
  195.9610  174.3510  145.3900 C   0  0  0  0  0  0  0  0  0  0  0  0
  195.4980  173.4170  144.4580 C   0  0  0  0  0  3  0  0  0  0  0  0
  195.0050  176.1350  144.0690 C   0  0  0  0  0  3  0  0  0  0  0  0
  194.7840  173.8410  143.3270 C   0  0  0  0  0  0  0  0  0  0  0  0
  196.6420  173.9370  146.4860 F   0  0  0  0  0  0  0  0  0  0  0  0
  195.7130  175.7090  145.1970 C   0  0  0  0  0  3  0  0  0  0  0  0
  193.7590  169.4700  141.7200 C   0  0  0  0  0  2  0  0  0  0  0  0
  195.5830  169.6520  143.4240 C   0  0  0  0  0  3  0  0  0  0  0  0
  195.2380  168.9240  145.7220 C   0  0  0  0  0  0  0  0  0  0  0  0
  193.4390  168.7510  144.0950 C   0  0  0  0  0  3  0  0  0  0  0  0
  193.9200  168.5670  145.3980 C   0  0  0  0  0  3  0  0  0  0  0  0
  196.0650  169.4660  144.7260 C   0  0  0  0  0  3  0  0  0  0  0  0
  194.2680  169.2980  143.1090 C   0  0  0  0  0  0  0  0  0  0  0  0
  195.7510  168.7200  147.0880 C   0  0  0  0  0  0  0  0  0  0  0  0
  194.9590  168.5130  148.0440 O   0  0  0  0  0  1  0  0  0  0  0  0
  197.1210  168.7470  147.3320 O   0  0  0  0  0  0  0  0  0  0  0  0
  1 14  1  0  0  0  0
  1 12  1  0  0  0  0
  3 19  1  1  0  0  0
  3 10  1  0  0  0  0
  6 13  1  1  0  0  0
  6  4  1  0  0  0  0
  7 10  1  0  0  0  0
  7  6  1  0  0  0  0
  8 17  1  0  0  0  0
 10  5  1  6  0  0  0
 11  6  1  0  0  0  0
 14 15  1  0  0  0  0
 15  2  1  6  0  0  0
 15  8  1  0  0  0  0
 16  9  1  6  0  0  0
 16  3  1  0  0  0  0
 17 36  1  0  0  0  0
 17 11  1  0  0  0  0
 18 12  1  0  0  0  0
 18 16  1  0  0  0  0
 20 23  1  6  0  0  0
 20 25  1  0  0  0  0
 21 19  1  6  0  0  0
 21 32  1  0  0  0  0
 21 25  1  0  0  0  0
 22 24  1  0  0  0  0
 22 21  1  0  0  0  0
 24 20  1  0  0  0  0
 25 27  1  6  0  0  0
 27 26  1  1  0  0  0
 27 28  1  0  0  0  0
 28 30  1  0  0  0  0
 29 30  1  0  0  0  0
 30 31  2  0  0  0  0
 33 32  1  0  0  0  0
 33 34  1  0  0  0  0
 34 35  1  0  0  0  0
 36 46  1  1  0  0  0
 36 38  1  0  0  0  0
 37 38  2  0  0  0  0
 37 43  1  0  0  0  0
 39 43  2  0  0  0  0
 39 42  1  0  0  0  0
 40 44  1  0  0  0  0
 41 40  2  0  0  0  0
 42 45  2  0  0  0  0
 43 41  1  0  0  0  0
 45 40  1  0  0  0  0
 46 52  1  0  0  0  0
 47 51  1  0  0  0  0
 48 53  1  0  0  0  0
 49 50  2  0  0  0  0
 50 48  1  0  0  0  0
 51 48  2  0  0  0  0
 52 47  2  0  0  0  0
 52 49  1  0  0  0  0
 53 55  2  0  0  0  0
 53 54  1  0  0  0  0
M  END
>  <MODEL>
6

>  <REMARK>
 VINA RESULT:      -6.9      3.196      9.698
  Name = 
  13 active torsions:
  status: ('A' for Active; 'I' for Inactive)
    1  A    between atoms: C_2  and  C_44
    2  A    between atoms: C_6  and  C_8
    3  A    between atoms: C_6  and  C_46
    4  A    between atoms: C_7  and  C_8
    5  A    between atoms: C_10  and  C_32
    6  A    between atoms: N_11  and  C_38
    7  A    between atoms: C_12  and  C_14
    8  A    between atoms: C_14  and  C_46
    9  A    between atoms: C_28  and  C_49
   10  A    between atoms: C_33  and  C_49
   11  A    between atoms: C_33  and  C_52
   12  A    between atoms: C_38  and  C_53
   13  A    between atoms: N_45  and  C_49
                            x       y       z     vdW  Elec       q    Type
                         _______ _______ _______ _____ _____    ______ ____

>  <TORSDO>
F 13

$$$$
=
 OpenBabel11052419483D

 55 58  0  0  1  0  0  0  0  0999 V2000
  194.1070  176.4820  145.6430 C   0  0  0  0  0  2  0  0  0  0  0  0
  191.3980  177.0400  147.8900 C   0  0  0  0  0  1  0  0  0  0  0  0
  195.0990  172.7530  143.7690 C   0  0  2  0  0  3  0  0  0  0  0  0
  191.4390  171.0910  144.5670 O   0  0  0  0  0  1  0  0  0  0  0  0
  194.4230  171.2230  145.4720 O   0  0  0  0  0  1  0  0  0  0  0  0
  191.6780  172.4490  144.3330 C   0  0  2  0  0  0  0  0  0  0  0  0
  192.9320  172.8450  144.8540 O   0  0  0  0  0  0  0  0  0  0  0  0
  190.9510  175.0610  146.4830 C   0  0  0  0  0  2  0  0  0  0  0  0
  196.8450  173.9120  144.9110 F   0  0  0  0  0  0  0  0  0  0  0  0
  193.9450  171.9780  144.4010 C   0  0  1  0  0  3  0  0  0  0  0  0
  190.5790  173.2360  145.0410 C   0  0  0  0  0  2  0  0  0  0  0  0
  193.9720  175.6070  144.4060 C   0  0  0  0  0  2  0  0  0  0  0  0
  191.5940  172.7260  142.8360 C   0  0  0  0  0  1  0  0  0  0  0  0
  193.2810  175.8990  146.7790 C   0  0  0  0  0  2  0  0  0  0  0  0
  191.8210  176.3000  146.6440 C   0  0  2  0  0  3  0  0  0  0  0  0
  195.5000  173.9810  144.6020 C   0  0  1  0  0  3  0  0  0  0  0  0
  190.8740  174.6720  145.0790 N   0  0  0  0  0  0  0  0  0  0  0  0
  195.2320  175.1980  143.9550 O   0  0  0  0  0  0  0  0  0  0  0  0
  194.8020  173.0590  142.3000 C   0  0  0  0  0  2  0  0  0  0  0  0
  197.7300  173.3610  140.9790 C   0  0  1  0  0  3  0  0  0  0  0  0
  195.6610  172.2370  141.3240 C   0  0  2  0  0  0  0  0  0  0  0  0
  196.6400  171.5300  142.0610 O   0  0  0  0  0  0  0  0  0  0  0  0
  197.6860  174.4230  141.8830 O   0  0  0  0  0  1  0  0  0  0  0  0
  197.9000  172.0790  141.7470 C   0  0  0  0  0  2  0  0  0  0  0  0
  196.3880  173.1520  140.3350 C   0  0  1  0  0  3  0  0  0  0  0  0
  194.4180  174.0930  139.0990 C   0  0  0  0  0  1  0  0  0  0  0  0
  195.6560  174.4400  139.9130 C   0  0  2  0  0  3  0  0  0  0  0  0
  196.5380  175.2830  139.1140 N   0  0  0  0  0  2  0  0  0  0  0  0
  196.8420  173.5050  137.3180 C   0  0  0  0  0  1  0  0  0  0  0  0
  197.1090  174.8630  137.8720 C   0  0  0  0  0  0  0  0  0  0  0  0
  197.8360  175.6600  137.2240 O   0  0  0  0  0  0  0  0  0  0  0  0
  194.7590  171.2490  140.5720 C   0  0  0  0  0  2  0  0  0  0  0  0
  194.3890  170.0260  141.4000 C   0  0  0  0  0  2  0  0  0  0  0  0
  192.9530  169.6140  141.1330 C   0  0  0  0  0  2  0  0  0  0  0  0
  192.4920  170.2170  139.8250 C   0  0  0  0  0  1  0  0  0  0  0  0
  189.8110  175.4790  144.4520 C   0  0  1  0  0  3  0  0  0  0  0  0
  187.8210  176.7060  145.1590 C   0  0  0  0  0  3  0  0  0  0  0  0
  189.0170  176.2200  145.4760 C   0  0  0  0  0  3  0  0  0  0  0  0
  187.5710  177.9090  147.2930 C   0  0  0  0  0  3  0  0  0  0  0  0
  184.8790  178.4550  146.7770 C   0  0  0  0  0  0  0  0  0  0  0  0
  185.6410  177.7450  145.8450 C   0  0  0  0  0  3  0  0  0  0  0  0
  186.8090  178.6220  148.2230 C   0  0  0  0  0  3  0  0  0  0  0  0
  186.9940  177.4720  146.1000 C   0  0  0  0  0  0  0  0  0  0  0  0
  183.5750  178.7260  146.5240 F   0  0  0  0  0  0  0  0  0  0  0  0
  185.4630  178.8950  147.9650 C   0  0  0  0  0  3  0  0  0  0  0  0
  190.2800  176.3950  143.3210 C   0  0  0  0  0  2  0  0  0  0  0  0
  188.7680  178.0140  142.1530 C   0  0  0  0  0  3  0  0  0  0  0  0
  187.0120  177.2410  140.6540 C   0  0  0  0  0  0  0  0  0  0  0  0
  188.4750  175.6430  141.7580 C   0  0  0  0  0  3  0  0  0  0  0  0
  187.4080  175.9150  140.8930 C   0  0  0  0  0  3  0  0  0  0  0  0
  187.6980  178.2870  141.2910 C   0  0  0  0  0  3  0  0  0  0  0  0
  189.1600  176.6920  142.3850 C   0  0  0  0  0  0  0  0  0  0  0  0
  185.8800  177.5300  139.7560 C   0  0  0  0  0  0  0  0  0  0  0  0
  185.0090  178.3790  140.0780 O   0  0  0  0  0  1  0  0  0  0  0  0
  185.7690  176.8690  138.5360 O   0  0  0  0  0  0  0  0  0  0  0  0
  1 14  1  0  0  0  0
  3 19  1  6  0  0  0
  3 10  1  0  0  0  0
  3 16  1  0  0  0  0
  6 13  1  6  0  0  0
  6  4  1  0  0  0  0
  6  7  1  0  0  0  0
  6 11  1  0  0  0  0
  8 15  1  0  0  0  0
 10  7  1  0  0  0  0
 10  5  1  1  0  0  0
 11 17  1  0  0  0  0
 12  1  1  0  0  0  0
 15 14  1  0  0  0  0
 15  2  1  1  0  0  0
 16  9  1  6  0  0  0
 17  8  1  0  0  0  0
 18 12  1  0  0  0  0
 18 16  1  0  0  0  0
 20 24  1  0  0  0  0
 20 23  1  1  0  0  0
 21 32  1  6  0  0  0
 21 22  1  0  0  0  0
 21 19  1  0  0  0  0
 24 22  1  0  0  0  0
 25 27  1  1  0  0  0
 25 20  1  0  0  0  0
 25 21  1  0  0  0  0
 27 26  1  6  0  0  0
 28 27  1  0  0  0  0
 29 30  1  0  0  0  0
 30 28  1  0  0  0  0
 31 30  2  0  0  0  0
 32 33  1  0  0  0  0
 34 33  1  0  0  0  0
 35 34  1  0  0  0  0
 36 46  1  6  0  0  0
 36 17  1  0  0  0  0
 36 38  1  0  0  0  0
 37 38  2  0  0  0  0
 37 43  1  0  0  0  0
 39 42  1  0  0  0  0
 40 45  1  0  0  0  0
 41 43  1  0  0  0  0
 41 40  2  0  0  0  0
 43 39  2  0  0  0  0
 44 40  1  0  0  0  0
 45 42  2  0  0  0  0
 47 52  1  0  0  0  0
 48 50  2  0  0  0  0
 48 51  1  0  0  0  0
 49 52  2  0  0  0  0
 50 49  1  0  0  0  0
 51 47  2  0  0  0  0
 52 46  1  0  0  0  0
 53 54  1  0  0  0  0
 53 48  1  0  0  0  0
 55 53  2  0  0  0  0
M  END
>  <MODEL>
7

>  <REMARK>
 VINA RESULT:      -6.9      1.451      2.221
  Name = 
  13 active torsions:
  status: ('A' for Active; 'I' for Inactive)
    1  A    between atoms: C_2  and  C_44
    2  A    between atoms: C_6  and  C_8
    3  A    between atoms: C_6  and  C_46
    4  A    between atoms: C_7  and  C_8
    5  A    between atoms: C_10  and  C_32
    6  A    between atoms: N_11  and  C_38
    7  A    between atoms: C_12  and  C_14
    8  A    between atoms: C_14  and  C_46
    9  A    between atoms: C_28  and  C_49
   10  A    between atoms: C_33  and  C_49
   11  A    between atoms: C_33  and  C_52
   12  A    between atoms: C_38  and  C_53
   13  A    between atoms: N_45  and  C_49
                            x       y       z     vdW  Elec       q    Type
                         _______ _______ _______ _____ _____    ______ ____

>  <TORSDO>
F 13

$$$$
=
 OpenBabel11052419483D

 55 58  0  0  1  0  0  0  0  0999 V2000
  190.4850  175.6890  142.2020 C   0  0  0  0  0  2  0  0  0  0  0  0
  187.4140  173.8830  142.1920 C   0  0  0  0  0  1  0  0  0  0  0  0
  194.1160  174.4760  144.1380 C   0  0  2  0  0  3  0  0  0  0  0  0
  192.8930  170.5850  144.5460 O   0  0  0  0  0  1  0  0  0  0  0  0
  193.2290  173.3130  146.0260 O   0  0  0  0  0  1  0  0  0  0  0  0
  192.5260  171.4440  143.5050 C   0  0  2  0  0  0  0  0  0  0  0  0
  192.3940  172.7760  143.9630 O   0  0  0  0  0  0  0  0  0  0  0  0
  189.3040  172.3570  142.6360 C   0  0  0  0  0  2  0  0  0  0  0  0
  193.3120  176.6790  144.5830 F   0  0  0  0  0  0  0  0  0  0  0  0
  193.5460  173.1640  144.6750 C   0  0  1  0  0  3  0  0  0  0  0  0
  191.1770  170.9710  142.9730 C   0  0  0  0  0  2  0  0  0  0  0  0
  191.8350  175.0030  142.0550 C   0  0  0  0  0  2  0  0  0  0  0  0
  193.5570  171.3500  142.3850 C   0  0  0  0  0  1  0  0  0  0  0  0
  189.5460  174.8110  143.0140 C   0  0  0  0  0  2  0  0  0  0  0  0
  188.9160  173.7430  142.1360 C   0  0  2  0  0  3  0  0  0  0  0  0
  193.0210  175.5240  143.8830 C   0  0  1  0  0  3  0  0  0  0  0  0
  190.5780  171.9460  142.0570 N   0  0  0  0  0  0  0  0  0  0  0  0
  192.8600  175.8320  142.5220 O   0  0  0  0  0  0  0  0  0  0  0  0
  195.0300  174.2150  142.9400 C   0  0  0  0  0  2  0  0  0  0  0  0
  196.9070  176.5280  141.7000 C   0  0  1  0  0  3  0  0  0  0  0  0
  196.4730  174.7020  143.1620 C   0  0  2  0  0  0  0  0  0  0  0  0
  196.4430  175.8750  143.9510 O   0  0  0  0  0  0  0  0  0  0  0  0
  195.6690  176.7840  141.1110 O   0  0  0  0  0  1  0  0  0  0  0  0
  196.8540  176.9530  143.1420 C   0  0  0  0  0  2  0  0  0  0  0  0
  197.1410  175.0490  141.8300 C   0  0  1  0  0  3  0  0  0  0  0  0
  197.4260  172.8590  140.6390 C   0  0  0  0  0  1  0  0  0  0  0  0
  196.7290  174.2110  140.6050 C   0  0  2  0  0  3  0  0  0  0  0  0
  197.0830  174.9050  139.3730 N   0  0  0  0  0  2  0  0  0  0  0  0
  195.0620  174.0030  138.1170 C   0  0  0  0  0  1  0  0  0  0  0  0
  196.3020  174.8280  138.1780 C   0  0  0  0  0  0  0  0  0  0  0  0
  196.6570  175.4810  137.1630 O   0  0  0  0  0  0  0  0  0  0  0  0
  197.2660  173.6050  143.8870 C   0  0  0  0  0  2  0  0  0  0  0  0
  197.3100  173.7960  145.3960 C   0  0  0  0  0  2  0  0  0  0  0  0
  196.8210  172.5480  146.1070 C   0  0  0  0  0  2  0  0  0  0  0  0
  196.7980  171.3910  145.1340 C   0  0  0  0  0  1  0  0  0  0  0  0
  190.2970  171.3690  140.7300 C   0  0  1  0  0  3  0  0  0  0  0  0
  189.8110  172.7680  138.7880 C   0  0  0  0  0  3  0  0  0  0  0  0
  190.7180  172.2930  139.6360 C   0  0  0  0  0  3  0  0  0  0  0  0
  189.1300  174.0800  136.8190 C   0  0  0  0  0  3  0  0  0  0  0  0
  191.7600  174.8820  136.3250 C   0  0  0  0  0  0  0  0  0  0  0  0
  191.4720  174.0570  137.4160 C   0  0  0  0  0  3  0  0  0  0  0  0
  189.4180  174.9060  135.7300 C   0  0  0  0  0  3  0  0  0  0  0  0
  190.1510  173.6550  137.6690 C   0  0  0  0  0  0  0  0  0  0  0  0
  193.0360  175.2770  136.0890 F   0  0  0  0  0  0  0  0  0  0  0  0
  190.7330  175.3080  135.4830 C   0  0  0  0  0  3  0  0  0  0  0  0
  190.8320  169.9510  140.5170 C   0  0  0  0  0  2  0  0  0  0  0  0
  192.7030  170.1260  138.8630 C   0  0  0  0  0  3  0  0  0  0  0  0
  192.3740  169.5410  136.5230 C   0  0  0  0  0  0  0  0  0  0  0  0
  190.5410  169.3410  138.1070 C   0  0  0  0  0  3  0  0  0  0  0  0
  191.0390  169.2120  136.8050 C   0  0  0  0  0  3  0  0  0  0  0  0
  193.2010  169.9990  137.5600 C   0  0  0  0  0  3  0  0  0  0  0  0
  191.3730  169.7940  139.1380 C   0  0  0  0  0  0  0  0  0  0  0  0
  192.8980  169.4190  135.1510 C   0  0  0  0  0  0  0  0  0  0  0  0
  192.8260  168.3240  134.5340 O   0  0  0  0  0  1  0  0  0  0  0  0
  193.4720  170.5190  134.5210 O   0  0  0  0  0  0  0  0  0  0  0  0
  1 14  1  0  0  0  0
  3 19  1  6  0  0  0
  3 10  1  0  0  0  0
  6 13  1  6  0  0  0
  6  7  1  0  0  0  0
  6  4  1  0  0  0  0
  7 10  1  0  0  0  0
 10  5  1  1  0  0  0
 11  6  1  0  0  0  0
 12  1  1  0  0  0  0
 12 18  1  0  0  0  0
 15  2  1  1  0  0  0
 15  8  1  0  0  0  0
 15 14  1  0  0  0  0
 16  3  1  0  0  0  0
 16  9  1  1  0  0  0
 17  8  1  0  0  0  0
 17 11  1  0  0  0  0
 18 16  1  0  0  0  0
 20 23  1  1  0  0  0
 20 25  1  0  0  0  0
 20 24  1  0  0  0  0
 21 19  1  6  0  0  0
 21 32  1  0  0  0  0
 21 22  1  0  0  0  0
 24 22  1  0  0  0  0
 25 27  1  6  0  0  0
 25 21  1  0  0  0  0
 27 26  1  1  0  0  0
 28 27  1  0  0  0  0
 29 30  1  0  0  0  0
 30 28  1  0  0  0  0
 31 30  2  0  0  0  0
 32 33  1  0  0  0  0
 33 34  1  0  0  0  0
 35 34  1  0  0  0  0
 36 38  1  6  0  0  0
 36 17  1  0  0  0  0
 37 38  2  0  0  0  0
 39 43  1  0  0  0  0
 40 41  1  0  0  0  0
 41 43  2  0  0  0  0
 42 39  2  0  0  0  0
 43 37  1  0  0  0  0
 44 40  1  0  0  0  0
 45 42  1  0  0  0  0
 45 40  2  0  0  0  0
 46 36  1  0  0  0  0
 47 52  1  0  0  0  0
 48 50  2  0  0  0  0
 48 51  1  0  0  0  0
 49 52  2  0  0  0  0
 50 49  1  0  0  0  0
 51 47  2  0  0  0  0
 52 46  1  0  0  0  0
 53 48  1  0  0  0  0
 54 53  1  0  0  0  0
 55 53  2  0  0  0  0
M  END
>  <MODEL>
8

>  <REMARK>
 VINA RESULT:      -6.8      3.645      6.987
  Name = 
  13 active torsions:
  status: ('A' for Active; 'I' for Inactive)
    1  A    between atoms: C_2  and  C_44
    2  A    between atoms: C_6  and  C_8
    3  A    between atoms: C_6  and  C_46
    4  A    between atoms: C_7  and  C_8
    5  A    between atoms: C_10  and  C_32
    6  A    between atoms: N_11  and  C_38
    7  A    between atoms: C_12  and  C_14
    8  A    between atoms: C_14  and  C_46
    9  A    between atoms: C_28  and  C_49
   10  A    between atoms: C_33  and  C_49
   11  A    between atoms: C_33  and  C_52
   12  A    between atoms: C_38  and  C_53
   13  A    between atoms: N_45  and  C_49
                            x       y       z     vdW  Elec       q    Type
                         _______ _______ _______ _____ _____    ______ ____

>  <TORSDO>
F 13

$$$$
=
 OpenBabel11052419483D

 55 58  0  0  1  0  0  0  0  0999 V2000
  192.9700  177.0910  144.8320 C   0  0  0  0  0  2  0  0  0  0  0  0
  189.9710  177.0580  146.7570 C   0  0  0  0  0  1  0  0  0  0  0  0
  195.3200  173.6630  143.7700 C   0  0  2  0  0  3  0  0  0  0  0  0
  192.3120  171.0180  144.6380 O   0  0  0  0  0  1  0  0  0  0  0  0
  194.9640  172.2860  145.6880 O   0  0  0  0  0  1  0  0  0  0  0  0
  192.1320  172.3230  144.1650 C   0  0  2  0  0  0  0  0  0  0  0  0
  193.1210  173.1940  144.6790 O   0  0  0  0  0  0  0  0  0  0  0  0
  190.3540  174.8460  145.7270 C   0  0  0  0  0  2  0  0  0  0  0  0
  196.4530  175.5070  144.7780 F   0  0  0  0  0  0  0  0  0  0  0  0
  194.4050  172.6560  144.4640 C   0  0  1  0  0  3  0  0  0  0  0  0
  190.7620  172.7980  144.6390 C   0  0  0  0  0  2  0  0  0  0  0  0
  193.2740  176.0360  143.7790 C   0  0  0  0  0  2  0  0  0  0  0  0
  192.1490  172.3140  142.6400 C   0  0  0  0  0  1  0  0  0  0  0  0
  192.2410  176.4530  146.0040 C   0  0  0  0  0  2  0  0  0  0  0  0
  190.7580  176.3140  145.7040 C   0  0  2  0  0  3  0  0  0  0  0  0
  195.2040  175.0700  144.3780 C   0  0  1  0  0  3  0  0  0  0  0  0
  190.5770  174.2360  144.4220 N   0  0  0  0  0  0  0  0  0  0  0  0
  194.6440  176.0070  143.4950 O   0  0  0  0  0  0  0  0  0  0  0  0
  195.1240  173.6140  142.2540 C   0  0  0  0  0  2  0  0  0  0  0  0
  196.9870  175.5030  140.4200 C   0  0  1  0  0  3  0  0  0  0  0  0
  196.4410  173.4430  141.4770 C   0  0  2  0  0  0  0  0  0  0  0  0
  197.4910  174.0230  142.2270 O   0  0  0  0  0  0  0  0  0  0  0  0
  196.0290  176.3920  140.9060 O   0  0  0  0  0  1  0  0  0  0  0  0
  197.9410  175.1640  141.5320 C   0  0  0  0  0  2  0  0  0  0  0  0
  196.3740  174.1630  140.1280 C   0  0  1  0  0  3  0  0  0  0  0  0
  194.6710  172.8450  138.8400 C   0  0  0  0  0  1  0  0  0  0  0  0
  195.0010  174.2070  139.4310 C   0  0  2  0  0  3  0  0  0  0  0  0
  195.0060  175.2060  138.3680 N   0  0  0  0  0  2  0  0  0  0  0  0
  196.6610  173.8910  136.9500 C   0  0  0  0  0  1  0  0  0  0  0  0
  195.7820  175.0750  137.1750 C   0  0  0  0  0  0  0  0  0  0  0  0
  195.7100  175.9650  136.2890 O   0  0  0  0  0  0  0  0  0  0  0  0
  196.7110  171.9460  141.2710 C   0  0  0  0  0  2  0  0  0  0  0  0
  195.4920  171.0740  141.5400 C   0  0  0  0  0  2  0  0  0  0  0  0
  195.9100  169.7370  142.1230 C   0  0  0  0  0  2  0  0  0  0  0  0
  197.4040  169.7340  142.3540 C   0  0  0  0  0  1  0  0  0  0  0  0
  189.3980  174.5290  143.5870 C   0  0  1  0  0  3  0  0  0  0  0  0
  187.5960  176.1620  143.8050 C   0  0  0  0  0  3  0  0  0  0  0  0
  188.3320  175.2140  144.3750 C   0  0  0  0  0  3  0  0  0  0  0  0
  186.4790  176.7820  145.9100 C   0  0  0  0  0  3  0  0  0  0  0  0
  184.6150  178.3690  144.5640 C   0  0  0  0  0  0  0  0  0  0  0  0
  185.6110  177.6990  143.8480 C   0  0  0  0  0  3  0  0  0  0  0  0
  185.4840  177.4540  146.6250 C   0  0  0  0  0  3  0  0  0  0  0  0
  186.5510  176.9030  144.5220 C   0  0  0  0  0  0  0  0  0  0  0  0
  183.7140  179.1450  143.9110 F   0  0  0  0  0  0  0  0  0  0  0  0
  184.5520  178.2490  145.9520 C   0  0  0  0  0  3  0  0  0  0  0  0
  189.7000  175.2610  142.2780 C   0  0  0  0  0  2  0  0  0  0  0  0
  188.5500  173.5430  140.8660 C   0  0  0  0  0  3  0  0  0  0  0  0
  189.6860  172.4930  138.9860 C   0  0  0  0  0  0  0  0  0  0  0  0
  190.8260  174.1710  140.3260 C   0  0  0  0  0  3  0  0  0  0  0  0
  190.8260  173.2670  139.2570 C   0  0  0  0  0  3  0  0  0  0  0  0
  188.5510  172.6370  139.7980 C   0  0  0  0  0  3  0  0  0  0  0  0
  189.6870  174.3140  141.1280 C   0  0  0  0  0  0  0  0  0  0  0  0
  189.6880  171.5300  137.8700 C   0  0  0  0  0  0  0  0  0  0  0  0
  189.4470  170.3120  138.0770 O   0  0  0  0  0  1  0  0  0  0  0  0
  189.9500  171.9630  136.5740 O   0  0  0  0  0  0  0  0  0  0  0  0
  1 14  1  0  0  0  0
  3 19  1  6  0  0  0
  3 16  1  0  0  0  0
  3 10  1  0  0  0  0
  6 13  1  6  0  0  0
  6  4  1  0  0  0  0
  6 11  1  0  0  0  0
  6  7  1  0  0  0  0
 10  7  1  0  0  0  0
 10  5  1  1  0  0  0
 12  1  1  0  0  0  0
 15  8  1  0  0  0  0
 15 14  1  0  0  0  0
 15  2  1  1  0  0  0
 16  9  1  6  0  0  0
 17 11  1  0  0  0  0
 17  8  1  0  0  0  0
 18 12  1  0  0  0  0
 18 16  1  0  0  0  0
 20 23  1  1  0  0  0
 20 24  1  0  0  0  0
 21 32  1  6  0  0  0
 21 22  1  0  0  0  0
 21 19  1  0  0  0  0
 24 22  1  0  0  0  0
 25 27  1  1  0  0  0
 25 20  1  0  0  0  0
 25 21  1  0  0  0  0
 27 26  1  6  0  0  0
 28 27  1  0  0  0  0
 29 30  1  0  0  0  0
 30 28  1  0  0  0  0
 31 30  2  0  0  0  0
 32 33  1  0  0  0  0
 33 34  1  0  0  0  0
 34 35  1  0  0  0  0
 36 46  1  6  0  0  0
 36 38  1  0  0  0  0
 36 17  1  0  0  0  0
 37 38  2  0  0  0  0
 37 43  1  0  0  0  0
 39 42  1  0  0  0  0
 40 45  1  0  0  0  0
 41 43  1  0  0  0  0
 41 40  2  0  0  0  0
 43 39  2  0  0  0  0
 44 40  1  0  0  0  0
 45 42  2  0  0  0  0
 47 52  1  0  0  0  0
 48 50  2  0  0  0  0
 48 51  1  0  0  0  0
 49 52  2  0  0  0  0
 50 49  1  0  0  0  0
 51 47  2  0  0  0  0
 52 46  1  0  0  0  0
 53 54  1  0  0  0  0
 53 48  1  0  0  0  0
 55 53  2  0  0  0  0
M  END
>  <MODEL>
9

>  <REMARK>
 VINA RESULT:      -6.7      2.331      2.991
  Name = 
  13 active torsions:
  status: ('A' for Active; 'I' for Inactive)
    1  A    between atoms: C_2  and  C_44
    2  A    between atoms: C_6  and  C_8
    3  A    between atoms: C_6  and  C_46
    4  A    between atoms: C_7  and  C_8
    5  A    between atoms: C_10  and  C_32
    6  A    between atoms: N_11  and  C_38
    7  A    between atoms: C_12  and  C_14
    8  A    between atoms: C_14  and  C_46
    9  A    between atoms: C_28  and  C_49
   10  A    between atoms: C_33  and  C_49
   11  A    between atoms: C_33  and  C_52
   12  A    between atoms: C_38  and  C_53
   13  A    between atoms: N_45  and  C_49
                            x       y       z     vdW  Elec       q    Type
                         _______ _______ _______ _____ _____    ______ ____

>  <TORSDO>
F 13

$$$$
