=
 OpenBabel11052420103D

 37 37  0  0  1  0  0  0  0  0999 V2000
  192.5810  176.0050  144.6650 C   0  0  2  0  0  3  0  0  0  0  0  0
  194.5990  176.1800  143.1400 N   0  0  0  0  0  2  0  0  0  0  0  0
  196.7800  176.8530  143.6730 O   0  0  0  0  0  0  0  0  0  0  0  0
  194.0420  176.2650  144.4570 C   0  0  0  0  0  0  0  0  0  0  0  0
  195.9590  176.4640  142.7970 C   0  0  0  0  0  0  0  0  0  0  0  0
  194.7560  176.5840  145.4450 O   0  0  0  0  0  0  0  0  0  0  0  0
  196.3930  176.3110  141.3750 C   0  0  2  0  0  3  0  0  0  0  0  0
  195.3090  175.6270  140.5630 C   0  0  0  0  0  1  0  0  0  0  0  0
  197.4530  174.1830  141.6170 O   0  0  0  0  0  1  0  0  0  0  0  0
  197.6850  175.5170  141.2800 C   0  0  0  0  0  2  0  0  0  0  0  0
  192.3780  175.0360  145.6630 O   0  0  0  0  0  0  0  0  0  0  0  0
  191.2580  175.4370  146.4140 C   0  0  0  0  0  0  0  0  0  0  0  0
  191.4290  176.6410  147.3210 C   0  0  0  0  0  2  0  0  0  0  0  0
  191.4840  175.2360  147.8970 C   0  0  0  0  0  2  0  0  0  0  0  0
  189.8490  175.0380  145.9670 C   0  0  1  0  0  3  0  0  0  0  0  0
  189.7010  173.5210  145.9560 C   0  0  0  0  0  2  0  0  0  0  0  0
  189.7060  172.9740  144.5370 C   0  0  0  0  0  2  0  0  0  0  0  0
  190.8780  172.0320  144.3340 C   0  0  0  0  0  1  0  0  0  0  0  0
  188.7840  175.6670  146.8590 C   0  0  0  0  0  2  0  0  0  0  0  0
  188.5370  177.5360  145.4420 O   0  0  0  0  0  0  0  0  0  0  0  0
  187.9800  176.6720  146.1000 C   0  0  0  0  0  0  0  0  0  0  0  0
  186.4890  176.6530  146.1910 C   0  0  0  0  0  2  0  0  0  0  0  0
  186.0170  177.3000  147.4540 C   0  0  0  0  0  3  0  0  0  0  0  0
  186.3890  178.5400  147.7650 C   0  0  0  0  0  2  0  0  0  0  0  0
  191.8810  175.6030  143.3620 C   0  0  0  0  0  2  0  0  0  0  0  0
  191.0170  176.7160  142.7810 C   0  0  0  0  0  2  0  0  0  0  0  0
  188.6610  177.0450  141.9500 C   0  0  0  0  0  0  0  0  0  0  0  0
  189.7180  176.1940  142.3930 N   0  0  0  0  0  2  0  0  0  0  0  0
  188.8250  178.2930  141.8940 O   0  0  0  0  0  0  0  0  0  0  0  0
  187.3440  176.4620  141.5580 C   0  0  0  0  0  2  0  0  0  0  0  0
  185.4900  178.1990  141.3600 N   0  0  0  0  0  2  0  0  0  0  0  0
  186.5410  177.4390  140.7570 C   0  0  0  0  0  0  0  0  0  0  0  0
  186.7940  177.5980  139.5350 O   0  0  0  0  0  0  0  0  0  0  0  0
  185.1420  178.1010  142.7720 C   0  0  2  0  0  3  0  0  0  0  0  0
  183.6660  178.3940  142.9630 C   0  0  0  0  0  1  0  0  0  0  0  0
  185.0280  180.0410  144.3300 C   0  0  0  0  0  1  0  0  0  0  0  0
  185.9500  179.1050  143.5730 C   0  0  0  0  0  2  0  0  0  0  0  0
  1 25  1  6  0  0  0
  1 11  1  0  0  0  0
  2  4  1  0  0  0  0
  4  1  1  0  0  0  0
  4  6  2  0  0  0  0
  5  2  1  0  0  0  0
  5  3  2  0  0  0  0
  7  8  1  6  0  0  0
  7  5  1  0  0  0  0
 10  7  1  0  0  0  0
 10  9  1  0  0  0  0
 11 12  1  0  0  0  0
 12 13  1  0  0  0  0
 12 14  1  0  0  0  0
 13 14  1  0  0  0  0
 15 16  1  1  0  0  0
 15 12  1  0  0  0  0
 15 19  1  0  0  0  0
 17 16  1  0  0  0  0
 18 17  1  0  0  0  0
 20 21  2  0  0  0  0
 21 22  1  0  0  0  0
 21 19  1  0  0  0  0
 22 23  1  0  0  0  0
 23 24  2  0  0  0  0
 26 25  1  0  0  0  0
 27 28  1  0  0  0  0
 28 26  1  0  0  0  0
 29 27  2  0  0  0  0
 30 27  1  0  0  0  0
 31 34  1  0  0  0  0
 32 31  1  0  0  0  0
 32 30  1  0  0  0  0
 33 32  2  0  0  0  0
 34 35  1  6  0  0  0
 34 37  1  0  0  0  0
 37 36  1  0  0  0  0
M  END
>  <MODEL>
1

>  <REMARK>
 VINA RESULT:      -6.1      0.000      0.000
  Name = 
  19 active torsions:
  status: ('A' for Active; 'I' for Inactive)
    1  A    between atoms: N_1  and  C_5
    2  A    between atoms: C_2  and  C_19
    3  A    between atoms: C_2  and  C_35
    4  A    between atoms: C_3  and  C_32
    5  A    between atoms: C_4  and  O_10
    6  A    between atoms: C_4  and  C_13
    7  A    between atoms: C_5  and  C_23
    8  A    between atoms: C_7  and  C_14
    9  A    between atoms: C_7  and  C_27
   10  A    between atoms: C_9  and  C_13
   11  A    between atoms: C_9  and  C_16
   12  A    between atoms: O_10  and  C_14
   13  A    between atoms: C_11  and  C_36
   14  A    between atoms: C_13  and  C_20
   15  A    between atoms: C_14  and  C_31
   16  A    between atoms: C_20  and  C_25
   17  A    between atoms: C_25  and  C_32
   18  A    between atoms: C_26  and  C_36
   19  A    between atoms: C_27  and  N_33
                            x       y       z     vdW  Elec       q    Type
                         _______ _______ _______ _____ _____    ______ ____

>  <TORSDO>
F 19

$$$$
=
 OpenBabel11052420103D

 37 37  0  0  1  0  0  0  0  0999 V2000
  190.3440  175.4230  143.0820 C   0  0  2  0  0  3  0  0  0  0  0  0
  192.5010  174.8220  141.8910 N   0  0  0  0  0  2  0  0  0  0  0  0
  192.7930  173.5090  139.9710 O   0  0  0  0  0  0  0  0  0  0  0  0
  191.0690  174.7780  141.9410 C   0  0  0  0  0  0  0  0  0  0  0  0
  193.3140  174.1950  140.8940 C   0  0  0  0  0  0  0  0  0  0  0  0
  190.4070  174.1780  141.0520 O   0  0  0  0  0  0  0  0  0  0  0  0
  194.7980  174.3490  140.9710 C   0  0  2  0  0  3  0  0  0  0  0  0
  195.4300  173.0950  141.5450 C   0  0  0  0  0  1  0  0  0  0  0  0
  195.7450  176.5420  141.0130 O   0  0  0  0  0  1  0  0  0  0  0  0
  195.1800  175.5510  141.8170 C   0  0  0  0  0  2  0  0  0  0  0  0
  191.0520  175.2620  144.2850 O   0  0  0  0  0  0  0  0  0  0  0  0
  191.2170  176.5410  144.8490 C   0  0  0  0  0  0  0  0  0  0  0  0
  190.4730  177.6880  144.1910 C   0  0  0  0  0  2  0  0  0  0  0  0
  191.9500  177.4710  143.9080 C   0  0  0  0  0  2  0  0  0  0  0  0
  191.6700  176.6860  146.3050 C   0  0  1  0  0  3  0  0  0  0  0  0
  190.4740  176.6060  147.2470 C   0  0  0  0  0  2  0  0  0  0  0  0
  190.2870  175.1960  147.7850 C   0  0  0  0  0  2  0  0  0  0  0  0
  189.0130  174.5820  147.2370 C   0  0  0  0  0  1  0  0  0  0  0  0
  192.7050  175.6270  146.6720 C   0  0  0  0  0  2  0  0  0  0  0  0
  194.3680  177.2930  146.8050 O   0  0  0  0  0  0  0  0  0  0  0  0
  194.0910  176.1490  146.4820 C   0  0  0  0  0  0  0  0  0  0  0  0
  195.1300  175.2850  145.8430 C   0  0  0  0  0  2  0  0  0  0  0  0
  194.5140  174.0680  145.2280 C   0  0  0  0  0  3  0  0  0  0  0  0
  195.1050  172.8800  145.3270 C   0  0  0  0  0  2  0  0  0  0  0  0
  188.9100  174.9020  143.2160 C   0  0  0  0  0  2  0  0  0  0  0  0
  187.9310  175.5970  142.2780 C   0  0  0  0  0  2  0  0  0  0  0  0
  186.4870  177.6620  142.2360 C   0  0  0  0  0  0  0  0  0  0  0  0
  187.3470  176.7570  142.9290 N   0  0  0  0  0  2  0  0  0  0  0  0
  186.2170  177.4830  141.0190 O   0  0  0  0  0  0  0  0  0  0  0  0
  185.9070  178.8380  142.9500 C   0  0  0  0  0  2  0  0  0  0  0  0
  184.5570  178.1460  144.9970 N   0  0  0  0  0  2  0  0  0  0  0  0
  184.6110  178.4820  143.6080 C   0  0  0  0  0  0  0  0  0  0  0  0
  183.5510  178.4800  142.9310 O   0  0  0  0  0  0  0  0  0  0  0  0
  185.7280  178.1470  145.8650 C   0  0  2  0  0  3  0  0  0  0  0  0
  186.0670  176.7270  146.2780 C   0  0  0  0  0  1  0  0  0  0  0  0
  186.6550  178.9640  148.0280 C   0  0  0  0  0  1  0  0  0  0  0  0
  185.4470  178.9670  147.1100 C   0  0  0  0  0  2  0  0  0  0  0  0
  1 25  1  1  0  0  0
  1 11  1  0  0  0  0
  2  4  1  0  0  0  0
  3  5  2  0  0  0  0
  4  1  1  0  0  0  0
  5  7  1  0  0  0  0
  5  2  1  0  0  0  0
  6  4  2  0  0  0  0
  7  8  1  1  0  0  0
  7 10  1  0  0  0  0
  9 10  1  0  0  0  0
 11 12  1  0  0  0  0
 12 15  1  0  0  0  0
 13 12  1  0  0  0  0
 14 13  1  0  0  0  0
 14 12  1  0  0  0  0
 15 19  1  1  0  0  0
 15 16  1  0  0  0  0
 16 17  1  0  0  0  0
 18 17  1  0  0  0  0
 21 19  1  0  0  0  0
 21 20  2  0  0  0  0
 22 21  1  0  0  0  0
 23 24  2  0  0  0  0
 23 22  1  0  0  0  0
 26 28  1  0  0  0  0
 26 25  1  0  0  0  0
 27 28  1  0  0  0  0
 27 30  1  0  0  0  0
 29 27  2  0  0  0  0
 30 32  1  0  0  0  0
 31 34  1  0  0  0  0
 32 31  1  0  0  0  0
 33 32  2  0  0  0  0
 34 35  1  1  0  0  0
 34 37  1  0  0  0  0
 37 36  1  0  0  0  0
M  END
>  <MODEL>
2

>  <REMARK>
 VINA RESULT:      -5.7      2.293      4.597
  Name = 
  19 active torsions:
  status: ('A' for Active; 'I' for Inactive)
    1  A    between atoms: N_1  and  C_5
    2  A    between atoms: C_2  and  C_19
    3  A    between atoms: C_2  and  C_35
    4  A    between atoms: C_3  and  C_32
    5  A    between atoms: C_4  and  O_10
    6  A    between atoms: C_4  and  C_13
    7  A    between atoms: C_5  and  C_23
    8  A    between atoms: C_7  and  C_14
    9  A    between atoms: C_7  and  C_27
   10  A    between atoms: C_9  and  C_13
   11  A    between atoms: C_9  and  C_16
   12  A    between atoms: O_10  and  C_14
   13  A    between atoms: C_11  and  C_36
   14  A    between atoms: C_13  and  C_20
   15  A    between atoms: C_14  and  C_31
   16  A    between atoms: C_20  and  C_25
   17  A    between atoms: C_25  and  C_32
   18  A    between atoms: C_26  and  C_36
   19  A    between atoms: C_27  and  N_33
                            x       y       z     vdW  Elec       q    Type
                         _______ _______ _______ _____ _____    ______ ____

>  <TORSDO>
F 19

$$$$
=
 OpenBabel11052420103D

 37 37  0  0  1  0  0  0  0  0999 V2000
  190.1710  174.9420  143.4410 C   0  0  2  0  0  3  0  0  0  0  0  0
  190.0550  174.1090  141.0480 N   0  0  0  0  0  2  0  0  0  0  0  0
  188.2170  173.2190  139.8980 O   0  0  0  0  0  0  0  0  0  0  0  0
  189.3880  174.4050  142.2810 C   0  0  0  0  0  0  0  0  0  0  0  0
  189.4380  173.5370  139.8900 C   0  0  0  0  0  0  0  0  0  0  0  0
  188.1530  174.1950  142.4180 O   0  0  0  0  0  0  0  0  0  0  0  0
  190.2690  173.3040  138.6700 C   0  0  2  0  0  3  0  0  0  0  0  0
  189.4540  172.5990  137.6030 C   0  0  0  0  0  1  0  0  0  0  0  0
  192.3270  172.3860  137.8750 O   0  0  0  0  0  1  0  0  0  0  0  0
  191.5050  172.4830  138.9990 C   0  0  0  0  0  2  0  0  0  0  0  0
  191.4250  174.3160  143.5360 O   0  0  0  0  0  0  0  0  0  0  0  0
  192.3750  175.3190  143.8020 C   0  0  0  0  0  0  0  0  0  0  0  0
  192.1260  176.6870  143.1930 C   0  0  0  0  0  2  0  0  0  0  0  0
  193.1140  175.7310  142.5470 C   0  0  0  0  0  2  0  0  0  0  0  0
  193.2920  175.2050  145.0230 C   0  0  1  0  0  3  0  0  0  0  0  0
  192.7590  176.0540  146.1720 C   0  0  0  0  0  2  0  0  0  0  0  0
  193.8750  176.8460  146.8370 C   0  0  0  0  0  2  0  0  0  0  0  0
  194.7380  177.5290  145.7940 C   0  0  0  0  0  1  0  0  0  0  0  0
  193.4480  173.7530  145.4660 C   0  0  0  0  0  2  0  0  0  0  0  0
  195.0100  172.2570  144.5280 O   0  0  0  0  0  0  0  0  0  0  0  0
  194.8330  173.2620  145.1970 C   0  0  0  0  0  0  0  0  0  0  0  0
  196.0030  173.9730  145.7960 C   0  0  0  0  0  2  0  0  0  0  0  0
  197.0370  174.2780  144.7580 C   0  0  0  0  0  3  0  0  0  0  0  0
  196.8390  175.2390  143.8590 C   0  0  0  0  0  2  0  0  0  0  0  0
  189.3980  174.8200  144.7580 C   0  0  0  0  0  2  0  0  0  0  0  0
  189.0190  176.1700  145.3560 C   0  0  0  0  0  2  0  0  0  0  0  0
  186.6000  176.8720  145.2930 C   0  0  0  0  0  0  0  0  0  0  0  0
  187.8710  176.7250  144.6600 N   0  0  0  0  0  2  0  0  0  0  0  0
  186.4340  176.5080  146.4880 O   0  0  0  0  0  0  0  0  0  0  0  0
  185.4500  177.4520  144.5390 C   0  0  0  0  0  2  0  0  0  0  0  0
  186.1030  178.9640  142.5940 N   0  0  0  0  0  2  0  0  0  0  0  0
  185.7970  178.7970  143.9810 C   0  0  0  0  0  0  0  0  0  0  0  0
  185.8170  179.7990  144.7410 O   0  0  0  0  0  0  0  0  0  0  0  0
  186.0800  177.8670  141.6330 C   0  0  2  0  0  3  0  0  0  0  0  0
  187.4930  177.5320  141.1970 C   0  0  0  0  0  1  0  0  0  0  0  0
  183.7870  178.2340  140.7310 C   0  0  0  0  0  1  0  0  0  0  0  0
  185.2700  178.2670  140.4140 C   0  0  0  0  0  2  0  0  0  0  0  0
  1 11  1  0  0  0  0
  1 25  1  1  0  0  0
  2  4  1  0  0  0  0
  4  6  2  0  0  0  0
  4  1  1  0  0  0  0
  5  3  2  0  0  0  0
  5  2  1  0  0  0  0
  7  8  1  6  0  0  0
  7 10  1  0  0  0  0
  7  5  1  0  0  0  0
  9 10  1  0  0  0  0
 11 12  1  0  0  0  0
 12 15  1  0  0  0  0
 13 12  1  0  0  0  0
 14 13  1  0  0  0  0
 14 12  1  0  0  0  0
 15 19  1  1  0  0  0
 15 16  1  0  0  0  0
 16 17  1  0  0  0  0
 18 17  1  0  0  0  0
 20 21  2  0  0  0  0
 21 19  1  0  0  0  0
 21 22  1  0  0  0  0
 23 22  1  0  0  0  0
 24 23  2  0  0  0  0
 25 26  1  0  0  0  0
 27 29  2  0  0  0  0
 28 27  1  0  0  0  0
 28 26  1  0  0  0  0
 30 27  1  0  0  0  0
 31 32  1  0  0  0  0
 32 30  1  0  0  0  0
 32 33  2  0  0  0  0
 34 35  1  6  0  0  0
 34 31  1  0  0  0  0
 37 36  1  0  0  0  0
 37 34  1  0  0  0  0
M  END
>  <MODEL>
3

>  <REMARK>
 VINA RESULT:      -5.6      2.999      6.104
  Name = 
  19 active torsions:
  status: ('A' for Active; 'I' for Inactive)
    1  A    between atoms: N_1  and  C_5
    2  A    between atoms: C_2  and  C_19
    3  A    between atoms: C_2  and  C_35
    4  A    between atoms: C_3  and  C_32
    5  A    between atoms: C_4  and  O_10
    6  A    between atoms: C_4  and  C_13
    7  A    between atoms: C_5  and  C_23
    8  A    between atoms: C_7  and  C_14
    9  A    between atoms: C_7  and  C_27
   10  A    between atoms: C_9  and  C_13
   11  A    between atoms: C_9  and  C_16
   12  A    between atoms: O_10  and  C_14
   13  A    between atoms: C_11  and  C_36
   14  A    between atoms: C_13  and  C_20
   15  A    between atoms: C_14  and  C_31
   16  A    between atoms: C_20  and  C_25
   17  A    between atoms: C_25  and  C_32
   18  A    between atoms: C_26  and  C_36
   19  A    between atoms: C_27  and  N_33
                            x       y       z     vdW  Elec       q    Type
                         _______ _______ _______ _____ _____    ______ ____

>  <TORSDO>
F 19

$$$$
=
 OpenBabel11052420103D

 37 37  0  0  1  0  0  0  0  0999 V2000
  189.9770  175.0060  144.5330 C   0  0  2  0  0  3  0  0  0  0  0  0
  192.4050  174.5710  145.1200 N   0  0  0  0  0  2  0  0  0  0  0  0
  193.5000  172.5160  145.3840 O   0  0  0  0  0  0  0  0  0  0  0  0
  191.1200  174.0610  144.7460 C   0  0  0  0  0  0  0  0  0  0  0  0
  193.5580  173.7760  145.4120 C   0  0  0  0  0  0  0  0  0  0  0  0
  190.9250  172.8220  144.6200 O   0  0  0  0  0  0  0  0  0  0  0  0
  194.8360  174.4620  145.7720 C   0  0  2  0  0  3  0  0  0  0  0  0
  194.5740  175.9110  146.1350 C   0  0  0  0  0  1  0  0  0  0  0  0
  197.1370  174.4890  145.1250 O   0  0  0  0  0  1  0  0  0  0  0  0
  195.8360  174.3910  144.6290 C   0  0  0  0  0  2  0  0  0  0  0  0
  189.2470  175.1910  145.7200 O   0  0  0  0  0  0  0  0  0  0  0  0
  188.8490  176.5400  145.7620 C   0  0  0  0  0  0  0  0  0  0  0  0
  189.9020  177.5810  145.4310 C   0  0  0  0  0  2  0  0  0  0  0  0
  189.5440  177.2880  146.8780 C   0  0  0  0  0  2  0  0  0  0  0  0
  187.3690  176.9090  145.6270 C   0  0  1  0  0  3  0  0  0  0  0  0
  186.7860  177.2810  146.9850 C   0  0  0  0  0  2  0  0  0  0  0  0
  185.9930  178.5770  146.9100 C   0  0  0  0  0  2  0  0  0  0  0  0
  184.5080  178.3020  147.0510 C   0  0  0  0  0  1  0  0  0  0  0  0
  187.1700  178.0510  144.6350 C   0  0  0  0  0  2  0  0  0  0  0  0
  185.9900  176.5330  143.2700 O   0  0  0  0  0  0  0  0  0  0  0  0
  186.6870  177.5330  143.3200 C   0  0  0  0  0  0  0  0  0  0  0  0
  187.1030  178.2130  142.0550 C   0  0  0  0  0  2  0  0  0  0  0  0
  186.1230  177.9540  140.9560 C   0  0  0  0  0  3  0  0  0  0  0  0
  186.5170  177.4200  139.8020 C   0  0  0  0  0  2  0  0  0  0  0  0
  189.0610  174.5480  143.3940 C   0  0  0  0  0  2  0  0  0  0  0  0
  189.3640  175.2390  142.0690 C   0  0  0  0  0  2  0  0  0  0  0  0
  189.0750  173.5580  140.2140 C   0  0  0  0  0  0  0  0  0  0  0  0
  188.5820  174.6430  141.0000 N   0  0  0  0  0  2  0  0  0  0  0  0
  190.2260  173.0890  140.4220 O   0  0  0  0  0  0  0  0  0  0  0  0
  188.2330  172.9750  139.1290 C   0  0  0  0  0  2  0  0  0  0  0  0
  189.2010  173.3090  136.7960 N   0  0  0  0  0  2  0  0  0  0  0  0
  188.3650  173.7630  137.8630 C   0  0  0  0  0  0  0  0  0  0  0  0
  187.7290  174.8410  137.7330 O   0  0  0  0  0  0  0  0  0  0  0  0
  189.9540  172.0620  136.8460 C   0  0  2  0  0  3  0  0  0  0  0  0
  191.4420  172.3550  136.8390 C   0  0  0  0  0  1  0  0  0  0  0  0
  190.8840  170.6810  134.9930 C   0  0  0  0  0  1  0  0  0  0  0  0
  189.6160  171.2060  135.6390 C   0  0  0  0  0  2  0  0  0  0  0  0
  1 25  1  6  0  0  0
  1  4  1  0  0  0  0
  1 11  1  0  0  0  0
  2  5  1  0  0  0  0
  3  5  2  0  0  0  0
  4  2  1  0  0  0  0
  5  7  1  0  0  0  0
  6  4  2  0  0  0  0
  7  8  1  6  0  0  0
 10  9  1  0  0  0  0
 10  7  1  0  0  0  0
 11 12  1  0  0  0  0
 12 14  1  0  0  0  0
 13 12  1  0  0  0  0
 13 14  1  0  0  0  0
 15 19  1  6  0  0  0
 15 12  1  0  0  0  0
 15 16  1  0  0  0  0
 17 16  1  0  0  0  0
 17 18  1  0  0  0  0
 20 21  2  0  0  0  0
 21 19  1  0  0  0  0
 22 21  1  0  0  0  0
 23 22  1  0  0  0  0
 24 23  2  0  0  0  0
 26 25  1  0  0  0  0
 27 29  2  0  0  0  0
 27 28  1  0  0  0  0
 28 26  1  0  0  0  0
 30 27  1  0  0  0  0
 31 34  1  0  0  0  0
 31 32  1  0  0  0  0
 32 30  1  0  0  0  0
 33 32  2  0  0  0  0
 34 35  1  6  0  0  0
 36 37  1  0  0  0  0
 37 34  1  0  0  0  0
M  END
>  <MODEL>
4

>  <REMARK>
 VINA RESULT:      -5.6      3.630      5.985
  Name = 
  19 active torsions:
  status: ('A' for Active; 'I' for Inactive)
    1  A    between atoms: N_1  and  C_5
    2  A    between atoms: C_2  and  C_19
    3  A    between atoms: C_2  and  C_35
    4  A    between atoms: C_3  and  C_32
    5  A    between atoms: C_4  and  O_10
    6  A    between atoms: C_4  and  C_13
    7  A    between atoms: C_5  and  C_23
    8  A    between atoms: C_7  and  C_14
    9  A    between atoms: C_7  and  C_27
   10  A    between atoms: C_9  and  C_13
   11  A    between atoms: C_9  and  C_16
   12  A    between atoms: O_10  and  C_14
   13  A    between atoms: C_11  and  C_36
   14  A    between atoms: C_13  and  C_20
   15  A    between atoms: C_14  and  C_31
   16  A    between atoms: C_20  and  C_25
   17  A    between atoms: C_25  and  C_32
   18  A    between atoms: C_26  and  C_36
   19  A    between atoms: C_27  and  N_33
                            x       y       z     vdW  Elec       q    Type
                         _______ _______ _______ _____ _____    ______ ____

>  <TORSDO>
F 19

$$$$
=
 OpenBabel11052420103D

 37 37  0  0  1  0  0  0  0  0999 V2000
  190.6780  174.8840  144.5210 C   0  0  2  0  0  3  0  0  0  0  0  0
  190.7480  172.6860  143.2580 N   0  0  0  0  0  2  0  0  0  0  0  0
  192.2830  170.9280  143.4700 O   0  0  0  0  0  0  0  0  0  0  0  0
  191.2760  173.5300  144.2890 C   0  0  0  0  0  0  0  0  0  0  0  0
  191.2640  171.4020  142.8950 C   0  0  0  0  0  0  0  0  0  0  0  0
  192.2580  173.1630  144.9880 O   0  0  0  0  0  0  0  0  0  0  0  0
  190.5880  170.6330  141.8060 C   0  0  2  0  0  3  0  0  0  0  0  0
  191.1000  169.2060  141.7710 C   0  0  0  0  0  1  0  0  0  0  0  0
  189.6430  171.9440  140.0460 O   0  0  0  0  0  1  0  0  0  0  0  0
  190.8070  171.2920  140.4550 C   0  0  0  0  0  2  0  0  0  0  0  0
  189.2870  174.7990  144.6980 O   0  0  0  0  0  0  0  0  0  0  0  0
  188.9490  175.6430  145.7720 C   0  0  0  0  0  0  0  0  0  0  0  0
  190.0200  175.8960  146.8160 C   0  0  0  0  0  2  0  0  0  0  0  0
  188.9160  174.8870  147.0820 C   0  0  0  0  0  2  0  0  0  0  0  0
  187.7970  176.6420  145.6300 C   0  0  1  0  0  3  0  0  0  0  0  0
  187.6770  177.5000  146.8840 C   0  0  0  0  0  2  0  0  0  0  0  0
  186.2250  177.6670  147.3040 C   0  0  0  0  0  2  0  0  0  0  0  0
  185.9350  179.1150  147.6520 C   0  0  0  0  0  1  0  0  0  0  0  0
  187.9760  177.5250  144.3990 C   0  0  0  0  0  2  0  0  0  0  0  0
  186.1920  176.4420  143.3010 O   0  0  0  0  0  0  0  0  0  0  0  0
  186.7520  177.4990  143.5440 C   0  0  0  0  0  0  0  0  0  0  0  0
  186.2420  178.7670  142.9380 C   0  0  0  0  0  2  0  0  0  0  0  0
  185.5060  179.5890  143.9480 C   0  0  0  0  0  3  0  0  0  0  0  0
  184.2790  179.2510  144.3400 C   0  0  0  0  0  2  0  0  0  0  0  0
  191.0260  175.8630  143.3940 C   0  0  0  0  0  2  0  0  0  0  0  0
  192.0720  176.8950  143.8010 C   0  0  0  0  0  2  0  0  0  0  0  0
  194.1900  176.3570  145.0550 C   0  0  0  0  0  0  0  0  0  0  0  0
  193.3840  176.2780  143.8790 N   0  0  0  0  0  2  0  0  0  0  0  0
  193.7830  176.9860  146.0680 O   0  0  0  0  0  0  0  0  0  0  0  0
  195.5310  175.7030  145.0900 C   0  0  0  0  0  2  0  0  0  0  0  0
  196.2410  174.6000  142.9050 N   0  0  0  0  0  2  0  0  0  0  0  0
  196.1900  175.7550  143.7460 C   0  0  0  0  0  0  0  0  0  0  0  0
  196.7040  176.8320  143.3480 O   0  0  0  0  0  0  0  0  0  0  0  0
  195.6510  173.3180  143.2700 C   0  0  2  0  0  3  0  0  0  0  0  0
  196.7420  172.3380  143.6590 C   0  0  0  0  0  1  0  0  0  0  0  0
  193.9500  173.8040  141.5170 C   0  0  0  0  0  1  0  0  0  0  0  0
  194.8780  172.7520  142.0930 C   0  0  0  0  0  2  0  0  0  0  0  0
  1 25  1  6  0  0  0
  1 11  1  0  0  0  0
  2  4  1  0  0  0  0
  4  1  1  0  0  0  0
  4  6  2  0  0  0  0
  5  2  1  0  0  0  0
  5  3  2  0  0  0  0
  7  8  1  6  0  0  0
  7  5  1  0  0  0  0
  9 10  1  0  0  0  0
 10  7  1  0  0  0  0
 11 12  1  0  0  0  0
 12 13  1  0  0  0  0
 12 14  1  0  0  0  0
 13 14  1  0  0  0  0
 15 19  1  6  0  0  0
 15 12  1  0  0  0  0
 15 16  1  0  0  0  0
 16 17  1  0  0  0  0
 17 18  1  0  0  0  0
 20 21  2  0  0  0  0
 21 19  1  0  0  0  0
 22 21  1  0  0  0  0
 22 23  1  0  0  0  0
 23 24  2  0  0  0  0
 25 26  1  0  0  0  0
 26 28  1  0  0  0  0
 27 30  1  0  0  0  0
 27 29  2  0  0  0  0
 28 27  1  0  0  0  0
 31 34  1  0  0  0  0
 31 32  1  0  0  0  0
 32 30  1  0  0  0  0
 33 32  2  0  0  0  0
 34 35  1  6  0  0  0
 36 37  1  0  0  0  0
 37 34  1  0  0  0  0
M  END
>  <MODEL>
5

>  <REMARK>
 VINA RESULT:      -5.6      2.446      7.000
  Name = 
  19 active torsions:
  status: ('A' for Active; 'I' for Inactive)
    1  A    between atoms: N_1  and  C_5
    2  A    between atoms: C_2  and  C_19
    3  A    between atoms: C_2  and  C_35
    4  A    between atoms: C_3  and  C_32
    5  A    between atoms: C_4  and  O_10
    6  A    between atoms: C_4  and  C_13
    7  A    between atoms: C_5  and  C_23
    8  A    between atoms: C_7  and  C_14
    9  A    between atoms: C_7  and  C_27
   10  A    between atoms: C_9  and  C_13
   11  A    between atoms: C_9  and  C_16
   12  A    between atoms: O_10  and  C_14
   13  A    between atoms: C_11  and  C_36
   14  A    between atoms: C_13  and  C_20
   15  A    between atoms: C_14  and  C_31
   16  A    between atoms: C_20  and  C_25
   17  A    between atoms: C_25  and  C_32
   18  A    between atoms: C_26  and  C_36
   19  A    between atoms: C_27  and  N_33
                            x       y       z     vdW  Elec       q    Type
                         _______ _______ _______ _____ _____    ______ ____

>  <TORSDO>
F 19

$$$$
=
 OpenBabel11052420103D

 37 37  0  0  1  0  0  0  0  0999 V2000
  193.2060  175.7710  144.8870 C   0  0  2  0  0  3  0  0  0  0  0  0
  195.0500  176.0080  143.1610 N   0  0  0  0  0  2  0  0  0  0  0  0
  197.0610  177.2000  143.3250 O   0  0  0  0  0  0  0  0  0  0  0  0
  194.5620  176.2650  144.4840 C   0  0  0  0  0  0  0  0  0  0  0  0
  196.2950  176.4750  142.6330 C   0  0  0  0  0  0  0  0  0  0  0  0
  195.2460  176.9280  145.3100 O   0  0  0  0  0  0  0  0  0  0  0  0
  196.6700  176.1050  141.2350 C   0  0  2  0  0  3  0  0  0  0  0  0
  195.4830  175.4960  140.5130 C   0  0  0  0  0  1  0  0  0  0  0  0
  197.4780  173.9470  141.8700 O   0  0  0  0  0  1  0  0  0  0  0  0
  197.8350  175.1300  141.2210 C   0  0  0  0  0  2  0  0  0  0  0  0
  192.3720  176.8370  145.2630 O   0  0  0  0  0  0  0  0  0  0  0  0
  191.2350  176.7920  144.4350 C   0  0  0  0  0  0  0  0  0  0  0  0
  191.4290  176.2690  143.0240 C   0  0  0  0  0  2  0  0  0  0  0  0
  191.3510  177.7650  143.2810 C   0  0  0  0  0  2  0  0  0  0  0  0
  189.8350  176.7640  145.0530 C   0  0  1  0  0  3  0  0  0  0  0  0
  189.9220  176.6380  146.5690 C   0  0  0  0  0  2  0  0  0  0  0  0
  189.6400  175.2140  147.0240 C   0  0  0  0  0  2  0  0  0  0  0  0
  189.4860  174.2950  145.8270 C   0  0  0  0  0  1  0  0  0  0  0  0
  189.0340  178.0050  144.6710 C   0  0  0  0  0  2  0  0  0  0  0  0
  187.6200  178.0880  142.7850 O   0  0  0  0  0  0  0  0  0  0  0  0
  187.8090  177.6310  143.9010 C   0  0  0  0  0  0  0  0  0  0  0  0
  186.7860  176.7360  144.5210 C   0  0  0  0  0  2  0  0  0  0  0  0
  186.1030  177.4120  145.6680 C   0  0  0  0  0  3  0  0  0  0  0  0
  185.3380  176.7210  146.5100 C   0  0  0  0  0  2  0  0  0  0  0  0
  193.2880  174.7210  145.9990 C   0  0  0  0  0  2  0  0  0  0  0  0
  193.4470  173.3000  145.4700 C   0  0  0  0  0  2  0  0  0  0  0  0
  192.4370  171.8060  143.7100 C   0  0  0  0  0  0  0  0  0  0  0  0
  192.5550  173.0790  144.3460 N   0  0  0  0  0  2  0  0  0  0  0  0
  193.1240  170.8270  144.1070 O   0  0  0  0  0  0  0  0  0  0  0  0
  191.5020  171.6260  142.5610 C   0  0  0  0  0  2  0  0  0  0  0  0
  190.5440  173.3810  140.9810 N   0  0  0  0  0  2  0  0  0  0  0  0
  191.6750  172.7180  141.5510 C   0  0  0  0  0  0  0  0  0  0  0  0
  192.8340  173.0610  141.2010 O   0  0  0  0  0  0  0  0  0  0  0  0
  189.1680  173.0680  141.3450 C   0  0  2  0  0  3  0  0  0  0  0  0
  188.3650  172.7390  140.1010 C   0  0  0  0  0  1  0  0  0  0  0  0
  188.1730  175.3290  141.0220 C   0  0  0  0  0  1  0  0  0  0  0  0
  188.5340  174.2610  142.0370 C   0  0  0  0  0  2  0  0  0  0  0  0
  1 11  1  0  0  0  0
  1 25  1  1  0  0  0
  2  4  1  0  0  0  0
  4  1  1  0  0  0  0
  4  6  2  0  0  0  0
  5  2  1  0  0  0  0
  5  3  2  0  0  0  0
  7  8  1  1  0  0  0
  7  5  1  0  0  0  0
 10  7  1  0  0  0  0
 10  9  1  0  0  0  0
 12 15  1  0  0  0  0
 12 11  1  0  0  0  0
 13 14  1  0  0  0  0
 13 12  1  0  0  0  0
 14 12  1  0  0  0  0
 15 19  1  1  0  0  0
 15 16  1  0  0  0  0
 16 17  1  0  0  0  0
 18 17  1  0  0  0  0
 20 21  2  0  0  0  0
 21 22  1  0  0  0  0
 21 19  1  0  0  0  0
 22 23  1  0  0  0  0
 23 24  2  0  0  0  0
 26 25  1  0  0  0  0
 27 29  2  0  0  0  0
 27 28  1  0  0  0  0
 28 26  1  0  0  0  0
 30 27  1  0  0  0  0
 31 34  1  0  0  0  0
 31 32  1  0  0  0  0
 32 30  1  0  0  0  0
 33 32  2  0  0  0  0
 34 35  1  6  0  0  0
 34 37  1  0  0  0  0
 36 37  1  0  0  0  0
M  END
>  <MODEL>
6

>  <REMARK>
 VINA RESULT:      -5.6      2.146      4.318
  Name = 
  19 active torsions:
  status: ('A' for Active; 'I' for Inactive)
    1  A    between atoms: N_1  and  C_5
    2  A    between atoms: C_2  and  C_19
    3  A    between atoms: C_2  and  C_35
    4  A    between atoms: C_3  and  C_32
    5  A    between atoms: C_4  and  O_10
    6  A    between atoms: C_4  and  C_13
    7  A    between atoms: C_5  and  C_23
    8  A    between atoms: C_7  and  C_14
    9  A    between atoms: C_7  and  C_27
   10  A    between atoms: C_9  and  C_13
   11  A    between atoms: C_9  and  C_16
   12  A    between atoms: O_10  and  C_14
   13  A    between atoms: C_11  and  C_36
   14  A    between atoms: C_13  and  C_20
   15  A    between atoms: C_14  and  C_31
   16  A    between atoms: C_20  and  C_25
   17  A    between atoms: C_25  and  C_32
   18  A    between atoms: C_26  and  C_36
   19  A    between atoms: C_27  and  N_33
                            x       y       z     vdW  Elec       q    Type
                         _______ _______ _______ _____ _____    ______ ____

>  <TORSDO>
F 19

$$$$
=
 OpenBabel11052420103D

 37 37  0  0  1  0  0  0  0  0999 V2000
  190.7800  175.3060  145.1030 C   0  0  2  0  0  3  0  0  0  0  0  0
  193.2930  175.5290  144.8420 N   0  0  0  0  0  2  0  0  0  0  0  0
  194.9300  175.6570  146.5130 O   0  0  0  0  0  0  0  0  0  0  0  0
  192.1550  175.3590  145.6960 C   0  0  0  0  0  0  0  0  0  0  0  0
  194.6480  175.6570  145.2830 C   0  0  0  0  0  0  0  0  0  0  0  0
  192.2890  175.2830  146.9470 O   0  0  0  0  0  0  0  0  0  0  0  0
  195.7290  175.8090  144.2630 C   0  0  2  0  0  3  0  0  0  0  0  0
  195.1290  176.0360  142.8880 C   0  0  0  0  0  1  0  0  0  0  0  0
  195.8790  173.4430  143.9650 O   0  0  0  0  0  1  0  0  0  0  0  0
  196.6310  174.5880  144.2340 C   0  0  0  0  0  2  0  0  0  0  0  0
  189.9950  176.3820  145.5510 O   0  0  0  0  0  0  0  0  0  0  0  0
  189.5140  177.0530  144.4120 C   0  0  0  0  0  0  0  0  0  0  0  0
  190.2880  176.8640  143.1210 C   0  0  0  0  0  2  0  0  0  0  0  0
  190.4790  178.1230  143.9500 C   0  0  0  0  0  2  0  0  0  0  0  0
  188.0510  177.4990  144.3430 C   0  0  1  0  0  3  0  0  0  0  0  0
  187.6090  177.6590  142.8940 C   0  0  0  0  0  2  0  0  0  0  0  0
  186.4620  178.6520  142.7720 C   0  0  0  0  0  2  0  0  0  0  0  0
  185.2640  178.0010  142.1070 C   0  0  0  0  0  1  0  0  0  0  0  0
  187.1370  176.5170  145.0700 C   0  0  0  0  0  2  0  0  0  0  0  0
  187.3160  177.5760  147.1700 O   0  0  0  0  0  0  0  0  0  0  0  0
  186.5730  177.1340  146.3090 C   0  0  0  0  0  0  0  0  0  0  0  0
  185.0930  177.1590  146.5180 C   0  0  0  0  0  2  0  0  0  0  0  0
  184.5700  178.5600  146.4970 C   0  0  0  0  0  3  0  0  0  0  0  0
  183.9630  179.0460  145.4160 C   0  0  0  0  0  2  0  0  0  0  0  0
  190.0880  173.9690  145.3860 C   0  0  0  0  0  2  0  0  0  0  0  0
  190.5920  172.8360  144.4980 C   0  0  0  0  0  2  0  0  0  0  0  0
  190.3730  172.2990  142.0460 C   0  0  0  0  0  0  0  0  0  0  0  0
  190.5660  173.2390  143.1040 N   0  0  0  0  0  2  0  0  0  0  0  0
  190.2300  171.0730  142.2980 O   0  0  0  0  0  0  0  0  0  0  0  0
  190.3480  172.7630  140.6280 C   0  0  0  0  0  2  0  0  0  0  0  0
  188.7490  172.2130  138.7210 N   0  0  0  0  0  2  0  0  0  0  0  0
  188.9670  172.6740  140.0570 C   0  0  0  0  0  0  0  0  0  0  0  0
  187.9810  173.0080  140.7630 O   0  0  0  0  0  0  0  0  0  0  0  0
  189.8270  171.7810  137.8390 C   0  0  2  0  0  3  0  0  0  0  0  0
  189.7670  172.5510  136.5340 C   0  0  0  0  0  1  0  0  0  0  0  0
  190.3060  169.4780  138.6580 C   0  0  0  0  0  1  0  0  0  0  0  0
  189.6880  170.2990  137.5430 C   0  0  0  0  0  2  0  0  0  0  0  0
  1 25  1  1  0  0  0
  1 11  1  0  0  0  0
  1  4  1  0  0  0  0
  2  5  1  0  0  0  0
  2  4  1  0  0  0  0
  4  6  2  0  0  0  0
  5  3  2  0  0  0  0
  7  8  1  6  0  0  0
  7  5  1  0  0  0  0
  9 10  1  0  0  0  0
 10  7  1  0  0  0  0
 12 11  1  0  0  0  0
 13 14  1  0  0  0  0
 13 12  1  0  0  0  0
 14 12  1  0  0  0  0
 15 16  1  6  0  0  0
 15 12  1  0  0  0  0
 15 19  1  0  0  0  0
 17 16  1  0  0  0  0
 18 17  1  0  0  0  0
 19 21  1  0  0  0  0
 21 22  1  0  0  0  0
 21 20  2  0  0  0  0
 23 22  1  0  0  0  0
 24 23  2  0  0  0  0
 26 25  1  0  0  0  0
 27 29  2  0  0  0  0
 27 28  1  0  0  0  0
 28 26  1  0  0  0  0
 30 27  1  0  0  0  0
 31 32  1  0  0  0  0
 32 30  1  0  0  0  0
 32 33  2  0  0  0  0
 34 35  1  6  0  0  0
 34 31  1  0  0  0  0
 37 34  1  0  0  0  0
 37 36  1  0  0  0  0
M  END
>  <MODEL>
7

>  <REMARK>
 VINA RESULT:      -5.5      3.215      5.404
  Name = 
  19 active torsions:
  status: ('A' for Active; 'I' for Inactive)
    1  A    between atoms: N_1  and  C_5
    2  A    between atoms: C_2  and  C_19
    3  A    between atoms: C_2  and  C_35
    4  A    between atoms: C_3  and  C_32
    5  A    between atoms: C_4  and  O_10
    6  A    between atoms: C_4  and  C_13
    7  A    between atoms: C_5  and  C_23
    8  A    between atoms: C_7  and  C_14
    9  A    between atoms: C_7  and  C_27
   10  A    between atoms: C_9  and  C_13
   11  A    between atoms: C_9  and  C_16
   12  A    between atoms: O_10  and  C_14
   13  A    between atoms: C_11  and  C_36
   14  A    between atoms: C_13  and  C_20
   15  A    between atoms: C_14  and  C_31
   16  A    between atoms: C_20  and  C_25
   17  A    between atoms: C_25  and  C_32
   18  A    between atoms: C_26  and  C_36
   19  A    between atoms: C_27  and  N_33
                            x       y       z     vdW  Elec       q    Type
                         _______ _______ _______ _____ _____    ______ ____

>  <TORSDO>
F 19

$$$$
=
 OpenBabel11052420103D

 37 37  0  0  1  0  0  0  0  0999 V2000
  190.4650  174.5940  142.8040 C   0  0  2  0  0  3  0  0  0  0  0  0
  190.8130  173.5840  140.5040 N   0  0  0  0  0  2  0  0  0  0  0  0
  191.4620  171.4010  139.9500 O   0  0  0  0  0  0  0  0  0  0  0  0
  190.7640  173.4170  141.9260 C   0  0  0  0  0  0  0  0  0  0  0  0
  191.1470  172.5600  139.5620 C   0  0  0  0  0  0  0  0  0  0  0  0
  190.9980  172.2980  142.4570 O   0  0  0  0  0  0  0  0  0  0  0  0
  191.1370  172.8880  138.1040 C   0  0  2  0  0  3  0  0  0  0  0  0
  189.9570  173.7810  137.7730 C   0  0  0  0  0  1  0  0  0  0  0  0
  189.7520  171.2810  137.0040 O   0  0  0  0  0  1  0  0  0  0  0  0
  191.0800  171.6260  137.2600 C   0  0  0  0  0  2  0  0  0  0  0  0
  191.3170  174.6210  143.9210 O   0  0  0  0  0  0  0  0  0  0  0  0
  191.6640  175.9650  144.1510 C   0  0  0  0  0  0  0  0  0  0  0  0
  191.2910  176.9690  143.0770 C   0  0  0  0  0  2  0  0  0  0  0  0
  192.7130  176.4420  143.1710 C   0  0  0  0  0  2  0  0  0  0  0  0
  191.9130  176.4600  145.5790 C   0  0  1  0  0  3  0  0  0  0  0  0
  190.5920  176.6560  146.3140 C   0  0  0  0  0  2  0  0  0  0  0  0
  190.4320  175.6480  147.4420 C   0  0  0  0  0  2  0  0  0  0  0  0
  189.2020  174.7890  147.2180 C   0  0  0  0  0  1  0  0  0  0  0  0
  192.8110  175.4990  146.3520 C   0  0  0  0  0  2  0  0  0  0  0  0
  194.5310  177.1060  146.4840 O   0  0  0  0  0  0  0  0  0  0  0  0
  194.2370  175.9370  146.2900 C   0  0  0  0  0  0  0  0  0  0  0  0
  195.3030  174.9520  145.9340 C   0  0  0  0  0  2  0  0  0  0  0  0
  195.9350  175.2910  144.6220 C   0  0  0  0  0  3  0  0  0  0  0  0
  195.9240  174.4220  143.6140 C   0  0  0  0  0  2  0  0  0  0  0  0
  188.9950  174.6260  143.2350 C   0  0  0  0  0  2  0  0  0  0  0  0
  188.0910  175.3260  142.2280 C   0  0  0  0  0  2  0  0  0  0  0  0
  186.7120  177.4280  142.0520 C   0  0  0  0  0  0  0  0  0  0  0  0
  187.5470  176.5440  142.8010 N   0  0  0  0  0  2  0  0  0  0  0  0
  186.4300  177.1760  140.8500 O   0  0  0  0  0  0  0  0  0  0  0  0
  186.1730  178.6660  142.6860 C   0  0  0  0  0  2  0  0  0  0  0  0
  184.7550  178.1930  144.7500 N   0  0  0  0  0  2  0  0  0  0  0  0
  184.8510  178.4040  143.3390 C   0  0  0  0  0  0  0  0  0  0  0  0
  183.8070  178.3730  142.6370 O   0  0  0  0  0  0  0  0  0  0  0  0
  185.9050  178.2370  145.6450 C   0  0  2  0  0  3  0  0  0  0  0  0
  186.2850  176.8310  146.0680 C   0  0  0  0  0  1  0  0  0  0  0  0
  186.4240  178.6090  148.0520 C   0  0  0  0  0  1  0  0  0  0  0  0
  185.5650  179.0480  146.8820 C   0  0  0  0  0  2  0  0  0  0  0  0
  1 25  1  1  0  0  0
  1 11  1  0  0  0  0
  2  4  1  0  0  0  0
  4  6  2  0  0  0  0
  4  1  1  0  0  0  0
  5  3  2  0  0  0  0
  5  2  1  0  0  0  0
  7  8  1  1  0  0  0
  7  5  1  0  0  0  0
  9 10  1  0  0  0  0
 10  7  1  0  0  0  0
 11 12  1  0  0  0  0
 12 15  1  0  0  0  0
 13 14  1  0  0  0  0
 13 12  1  0  0  0  0
 14 12  1  0  0  0  0
 15 16  1  1  0  0  0
 15 19  1  0  0  0  0
 16 17  1  0  0  0  0
 18 17  1  0  0  0  0
 21 19  1  0  0  0  0
 21 20  2  0  0  0  0
 22 21  1  0  0  0  0
 23 22  1  0  0  0  0
 24 23  2  0  0  0  0
 26 28  1  0  0  0  0
 26 25  1  0  0  0  0
 27 30  1  0  0  0  0
 27 28  1  0  0  0  0
 29 27  2  0  0  0  0
 30 32  1  0  0  0  0
 31 34  1  0  0  0  0
 32 31  1  0  0  0  0
 33 32  2  0  0  0  0
 34 35  1  1  0  0  0
 34 37  1  0  0  0  0
 37 36  1  0  0  0  0
M  END
>  <MODEL>
8

>  <REMARK>
 VINA RESULT:      -5.5      3.117      5.544
  Name = 
  19 active torsions:
  status: ('A' for Active; 'I' for Inactive)
    1  A    between atoms: N_1  and  C_5
    2  A    between atoms: C_2  and  C_19
    3  A    between atoms: C_2  and  C_35
    4  A    between atoms: C_3  and  C_32
    5  A    between atoms: C_4  and  O_10
    6  A    between atoms: C_4  and  C_13
    7  A    between atoms: C_5  and  C_23
    8  A    between atoms: C_7  and  C_14
    9  A    between atoms: C_7  and  C_27
   10  A    between atoms: C_9  and  C_13
   11  A    between atoms: C_9  and  C_16
   12  A    between atoms: O_10  and  C_14
   13  A    between atoms: C_11  and  C_36
   14  A    between atoms: C_13  and  C_20
   15  A    between atoms: C_14  and  C_31
   16  A    between atoms: C_20  and  C_25
   17  A    between atoms: C_25  and  C_32
   18  A    between atoms: C_26  and  C_36
   19  A    between atoms: C_27  and  N_33
                            x       y       z     vdW  Elec       q    Type
                         _______ _______ _______ _____ _____    ______ ____

>  <TORSDO>
F 19

$$$$
=
 OpenBabel11052420103D

 37 37  0  0  1  0  0  0  0  0999 V2000
  190.8640  175.3600  144.8960 C   0  0  2  0  0  3  0  0  0  0  0  0
  193.3750  175.6470  144.6810 N   0  0  0  0  0  2  0  0  0  0  0  0
  194.9880  175.7230  146.3800 O   0  0  0  0  0  0  0  0  0  0  0  0
  192.2300  175.4110  145.5100 C   0  0  0  0  0  0  0  0  0  0  0  0
  194.7210  175.7800  145.1480 C   0  0  0  0  0  0  0  0  0  0  0  0
  192.3490  175.2730  146.7570 O   0  0  0  0  0  0  0  0  0  0  0  0
  195.8120  176.0070  144.1520 C   0  0  2  0  0  3  0  0  0  0  0  0
  195.2410  176.0650  142.7480 C   0  0  0  0  0  1  0  0  0  0  0  0
  196.7380  174.0460  143.1480 O   0  0  0  0  0  1  0  0  0  0  0  0
  196.8640  174.9140  144.2340 C   0  0  0  0  0  2  0  0  0  0  0  0
  190.0380  176.3700  145.4180 O   0  0  0  0  0  0  0  0  0  0  0  0
  189.5070  177.0830  144.3270 C   0  0  0  0  0  0  0  0  0  0  0  0
  190.2110  176.9290  142.9920 C   0  0  0  0  0  2  0  0  0  0  0  0
  190.4580  178.1580  143.8510 C   0  0  0  0  0  2  0  0  0  0  0  0
  188.0470  177.5440  144.3490 C   0  0  1  0  0  3  0  0  0  0  0  0
  187.5190  177.7150  142.9290 C   0  0  0  0  0  2  0  0  0  0  0  0
  186.3210  176.8150  142.6720 C   0  0  0  0  0  2  0  0  0  0  0  0
  185.1530  177.6220  142.1380 C   0  0  0  0  0  1  0  0  0  0  0  0
  187.1680  176.5690  145.1260 C   0  0  0  0  0  2  0  0  0  0  0  0
  187.2770  177.7890  147.1410 O   0  0  0  0  0  0  0  0  0  0  0  0
  186.5650  177.2330  146.3210 C   0  0  0  0  0  0  0  0  0  0  0  0
  185.0880  177.1690  146.5400 C   0  0  0  0  0  2  0  0  0  0  0  0
  184.4420  178.4860  146.2470 C   0  0  0  0  0  3  0  0  0  0  0  0
  184.9520  179.3070  145.3310 C   0  0  0  0  0  2  0  0  0  0  0  0
  190.2150  173.9830  145.0600 C   0  0  0  0  0  2  0  0  0  0  0  0
  191.0900  172.8450  144.5480 C   0  0  0  0  0  2  0  0  0  0  0  0
  192.0900  172.8360  142.2350 C   0  0  0  0  0  0  0  0  0  0  0  0
  190.9640  172.7240  143.1060 N   0  0  0  0  0  2  0  0  0  0  0  0
  193.2400  173.0570  142.7000 O   0  0  0  0  0  0  0  0  0  0  0  0
  191.9120  172.6990  140.7590 C   0  0  0  0  0  2  0  0  0  0  0  0
  189.6560  171.8330  139.9520 N   0  0  0  0  0  2  0  0  0  0  0  0
  190.9780  171.5760  140.4320 C   0  0  0  0  0  0  0  0  0  0  0  0
  191.3620  170.3870  140.5770 O   0  0  0  0  0  0  0  0  0  0  0  0
  189.1340  173.1760  139.7280 C   0  0  2  0  0  3  0  0  0  0  0  0
  188.3540  173.6370  140.9440 C   0  0  0  0  0  1  0  0  0  0  0  0
  188.1750  174.5520  137.8860 C   0  0  0  0  0  1  0  0  0  0  0  0
  188.2110  173.1760  138.5230 C   0  0  0  0  0  2  0  0  0  0  0  0
  1 25  1  1  0  0  0
  1 11  1  0  0  0  0
  1  4  1  0  0  0  0
  2  5  1  0  0  0  0
  2  4  1  0  0  0  0
  4  6  2  0  0  0  0
  5  3  2  0  0  0  0
  7  8  1  6  0  0  0
  7 10  1  0  0  0  0
  7  5  1  0  0  0  0
  9 10  1  0  0  0  0
 12 15  1  0  0  0  0
 12 11  1  0  0  0  0
 13 14  1  0  0  0  0
 13 12  1  0  0  0  0
 14 12  1  0  0  0  0
 15 16  1  6  0  0  0
 15 19  1  0  0  0  0
 17 16  1  0  0  0  0
 18 17  1  0  0  0  0
 19 21  1  0  0  0  0
 21 22  1  0  0  0  0
 21 20  2  0  0  0  0
 23 22  1  0  0  0  0
 24 23  2  0  0  0  0
 26 25  1  0  0  0  0
 27 29  2  0  0  0  0
 27 28  1  0  0  0  0
 28 26  1  0  0  0  0
 30 27  1  0  0  0  0
 31 32  1  0  0  0  0
 32 33  2  0  0  0  0
 32 30  1  0  0  0  0
 34 31  1  0  0  0  0
 34 35  1  1  0  0  0
 36 37  1  0  0  0  0
 37 34  1  0  0  0  0
M  END
>  <MODEL>
9

>  <REMARK>
 VINA RESULT:      -5.5      2.674      4.902
  Name = 
  19 active torsions:
  status: ('A' for Active; 'I' for Inactive)
    1  A    between atoms: N_1  and  C_5
    2  A    between atoms: C_2  and  C_19
    3  A    between atoms: C_2  and  C_35
    4  A    between atoms: C_3  and  C_32
    5  A    between atoms: C_4  and  O_10
    6  A    between atoms: C_4  and  C_13
    7  A    between atoms: C_5  and  C_23
    8  A    between atoms: C_7  and  C_14
    9  A    between atoms: C_7  and  C_27
   10  A    between atoms: C_9  and  C_13
   11  A    between atoms: C_9  and  C_16
   12  A    between atoms: O_10  and  C_14
   13  A    between atoms: C_11  and  C_36
   14  A    between atoms: C_13  and  C_20
   15  A    between atoms: C_14  and  C_31
   16  A    between atoms: C_20  and  C_25
   17  A    between atoms: C_25  and  C_32
   18  A    between atoms: C_26  and  C_36
   19  A    between atoms: C_27  and  N_33
                            x       y       z     vdW  Elec       q    Type
                         _______ _______ _______ _____ _____    ______ ____

>  <TORSDO>
F 19

$$$$
