=
 OpenBabel11052421293D

 32 36  0  0  1  0  0  0  0  0999 V2000
  189.3540  175.2620  143.9590 C   0  0  1  0  0  3  0  0  0  0  0  0
  190.4190  173.1810  139.6030 C   0  0  0  0  0  2  0  0  0  0  0  0
  188.9680  172.7070  139.4570 C   0  0  0  0  0  2  0  0  0  0  0  0
  187.3360  176.7630  143.8770 C   0  0  0  0  0  0  0  0  0  0  0  0
  187.8340  177.4260  145.0180 C   0  0  0  0  0  0  0  0  0  0  0  0
  185.2110  177.9100  144.1780 C   0  0  0  0  0  0  0  0  0  0  0  0
  190.7880  173.2900  141.0120 N   0  0  0  0  0  2  0  0  0  0  0  0
  190.3540  174.4440  143.1280 C   0  0  0  0  0  2  0  0  0  0  0  0
  190.0710  174.4180  141.6170 C   0  0  2  0  0  3  0  0  0  0  0  0
  187.6530  174.8730  142.3030 N   0  0  0  0  0  2  0  0  0  0  0  0
  185.7080  178.5400  145.3200 C   0  0  0  0  0  3  0  0  0  0  0  0
  187.0190  178.3040  145.7360 C   0  0  0  0  0  3  0  0  0  0  0  0
  188.0930  173.1210  140.6440 C   0  0  0  0  0  2  0  0  0  0  0  0
  188.5540  174.4540  141.2240 C   0  0  2  0  0  3  0  0  0  0  0  0
  185.5310  176.4900  142.3020 F   0  0  0  0  0  0  0  0  0  0  0  0
  189.9870  176.2350  144.9370 C   0  0  0  0  0  0  0  0  0  0  0  0
  189.2230  177.2070  145.4600 C   0  0  0  0  0  3  0  0  0  0  0  0
  183.9420  178.1650  143.7730 F   0  0  0  0  0  0  0  0  0  0  0  0
  188.3040  175.9280  143.0670 C   0  0  2  0  0  3  0  0  0  0  0  0
  186.0220  177.0390  143.4420 C   0  0  0  0  0  0  0  0  0  0  0  0
  193.6160  174.4180  145.2620 C   0  0  0  0  0  2  0  0  0  0  0  0
  191.3100  176.0240  145.4660 N   0  0  0  0  0  0  0  0  0  0  0  0
  191.0170  175.5250  147.8460 C   0  0  0  0  0  1  0  0  0  0  0  0
  193.0170  174.6660  146.6440 C   0  0  0  0  0  2  0  0  0  0  0  0
  191.5350  175.0180  146.5140 C   0  0  2  0  0  3  0  0  0  0  0  0
  192.4600  176.6670  144.8310 C   0  0  0  0  0  2  0  0  0  0  0  0
  193.4400  175.6140  144.3070 C   0  0  1  0  0  3  0  0  0  0  0  0
  195.6250  175.6730  143.2740 N   0  0  0  0  0  0  0  0  0  0  0  0
  194.7540  176.2580  144.0310 C   0  0  0  0  0  3  0  0  0  0  0  0
  196.8970  176.2570  142.9850 C   0  0  0  0  0  0  0  0  0  0  0  0
  197.8960  175.4850  142.2000 C   0  0  0  0  0  1  0  0  0  0  0  0
  197.1850  177.4170  143.3860 O   0  0  0  0  0  0  0  0  0  0  0  0
  1  8  1  6  0  0  0
  1 16  1  0  0  0  0
  2  7  1  0  0  0  0
  3  2  1  0  0  0  0
  3 13  1  0  0  0  0
  4  5  1  0  0  0  0
  5 17  1  0  0  0  0
  5 12  2  0  0  0  0
  6 11  2  0  0  0  0
  7  9  1  0  0  0  0
  9  8  1  1  0  0  0
 11 12  1  0  0  0  0
 14 13  1  1  0  0  0
 14  9  1  0  0  0  0
 14 10  1  0  0  0  0
 15 20  1  0  0  0  0
 16 17  2  0  0  0  0
 16 22  1  0  0  0  0
 18  6  1  0  0  0  0
 19 10  1  1  0  0  0
 19  4  1  0  0  0  0
 19  1  1  0  0  0  0
 20  4  2  0  0  0  0
 20  6  1  0  0  0  0
 21 24  1  0  0  0  0
 22 25  1  0  0  0  0
 25 24  1  0  0  0  0
 25 23  1  1  0  0  0
 26 22  1  0  0  0  0
 27 29  1  1  0  0  0
 27 26  1  0  0  0  0
 27 21  1  0  0  0  0
 28 29  2  0  0  0  0
 30 28  1  0  0  0  0
 30 32  2  0  0  0  0
 31 30  1  0  0  0  0
M  END
>  <MODEL>
1

>  <REMARK>
 VINA RESULT:      -8.5      0.000      0.000
  Name = 
  3 active torsions:
  status: ('A' for Active; 'I' for Inactive)
    1  A    between atoms: C_1  and  N_10
    2  A    between atoms: N_8  and  C_28
    3  A    between atoms: C_19  and  C_24
                            x       y       z     vdW  Elec       q    Type
                         _______ _______ _______ _____ _____    ______ ____

>  <TORSDO>
F 3

$$$$
=
 OpenBabel11052421293D

 32 36  0  0  1  0  0  0  0  0999 V2000
  188.3650  175.9190  145.2530 C   0  0  1  0  0  3  0  0  0  0  0  0
  184.4610  178.5870  143.8060 C   0  0  0  0  0  2  0  0  0  0  0  0
  184.1060  178.8860  145.2670 C   0  0  0  0  0  2  0  0  0  0  0  0
  189.8430  177.1280  146.8910 C   0  0  0  0  0  0  0  0  0  0  0  0
  190.9000  176.2810  146.4980 C   0  0  0  0  0  0  0  0  0  0  0  0
  191.1890  177.8830  148.7730 C   0  0  0  0  0  0  0  0  0  0  0  0
  185.1590  177.3080  143.6960 N   0  0  0  0  0  2  0  0  0  0  0  0
  187.1740  176.0510  144.2900 C   0  0  0  0  0  2  0  0  0  0  0  0
  186.4970  177.4310  144.2820 C   0  0  2  0  0  3  0  0  0  0  0  0
  187.4270  177.6360  146.6520 N   0  0  0  0  0  2  0  0  0  0  0  0
  192.2180  177.0210  148.3880 C   0  0  0  0  0  3  0  0  0  0  0  0
  192.0770  176.2260  147.2500 C   0  0  0  0  0  3  0  0  0  0  0  0
  185.0860  178.2440  146.2530 C   0  0  0  0  0  2  0  0  0  0  0  0
  186.4900  178.1750  145.6620 C   0  0  2  0  0  3  0  0  0  0  0  0
  189.0550  178.8500  148.3840 F   0  0  0  0  0  0  0  0  0  0  0  0
  189.6120  175.3090  144.6400 C   0  0  0  0  0  0  0  0  0  0  0  0
  190.7790  175.4500  145.2870 C   0  0  0  0  0  3  0  0  0  0  0  0
  191.3480  178.6650  149.8690 F   0  0  0  0  0  0  0  0  0  0  0  0
  188.6500  177.2430  145.9670 C   0  0  2  0  0  3  0  0  0  0  0  0
  190.0110  177.9570  148.0200 C   0  0  0  0  0  0  0  0  0  0  0  0
  187.7780  173.0880  141.7610 C   0  0  0  0  0  2  0  0  0  0  0  0
  189.5420  174.4230  143.5070 N   0  0  0  0  0  0  0  0  0  0  0  0
  190.6300  172.3410  144.2050 C   0  0  0  0  0  1  0  0  0  0  0  0
  188.9020  172.2890  142.4180 C   0  0  0  0  0  2  0  0  0  0  0  0
  189.3470  172.9800  143.7070 C   0  0  2  0  0  3  0  0  0  0  0  0
  189.4730  174.9740  142.1530 C   0  0  0  0  0  2  0  0  0  0  0  0
  188.1710  174.5490  141.4690 C   0  0  1  0  0  3  0  0  0  0  0  0
  188.4120  173.7710  139.1920 N   0  0  0  0  0  0  0  0  0  0  0  0
  188.2900  174.7740  140.0020 C   0  0  0  0  0  3  0  0  0  0  0  0
  188.5290  173.9440  137.7790 C   0  0  0  0  0  0  0  0  0  0  0  0
  189.3460  172.9870  136.9890 C   0  0  0  0  0  1  0  0  0  0  0  0
  187.9500  174.8980  137.1910 O   0  0  0  0  0  0  0  0  0  0  0  0
  1  8  1  6  0  0  0
  1 19  1  0  0  0  0
  2  3  1  0  0  0  0
  3 13  1  0  0  0  0
  4 20  1  0  0  0  0
  5  4  2  0  0  0  0
  5 12  1  0  0  0  0
  6 18  1  0  0  0  0
  7  2  1  0  0  0  0
  7  9  1  0  0  0  0
  9  8  1  1  0  0  0
  9 14  1  0  0  0  0
 11  6  1  0  0  0  0
 12 11  2  0  0  0  0
 14 13  1  1  0  0  0
 14 10  1  0  0  0  0
 16  1  1  0  0  0  0
 16 17  2  0  0  0  0
 17  5  1  0  0  0  0
 19 10  1  1  0  0  0
 19  4  1  0  0  0  0
 20 15  1  0  0  0  0
 20  6  2  0  0  0  0
 21 24  1  0  0  0  0
 22 25  1  0  0  0  0
 22 16  1  0  0  0  0
 24 25  1  0  0  0  0
 25 23  1  6  0  0  0
 26 22  1  0  0  0  0
 27 29  1  6  0  0  0
 27 21  1  0  0  0  0
 27 26  1  0  0  0  0
 28 29  2  0  0  0  0
 30 28  1  0  0  0  0
 31 30  1  0  0  0  0
 32 30  2  0  0  0  0
M  END
>  <MODEL>
2

>  <REMARK>
 VINA RESULT:      -8.0      3.835      6.730
  Name = 
  3 active torsions:
  status: ('A' for Active; 'I' for Inactive)
    1  A    between atoms: C_1  and  N_10
    2  A    between atoms: N_8  and  C_28
    3  A    between atoms: C_19  and  C_24
                            x       y       z     vdW  Elec       q    Type
                         _______ _______ _______ _____ _____    ______ ____

>  <TORSDO>
F 3

$$$$
=
 OpenBabel11052421293D

 32 36  0  0  1  0  0  0  0  0999 V2000
  191.4300  175.2080  142.4600 C   0  0  1  0  0  3  0  0  0  0  0  0
  189.9690  171.7210  139.2740 C   0  0  0  0  0  2  0  0  0  0  0  0
  190.9120  172.2830  138.2030 C   0  0  0  0  0  2  0  0  0  0  0  0
  193.9320  175.3780  142.6690 C   0  0  0  0  0  0  0  0  0  0  0  0
  193.7440  175.9670  143.9370 C   0  0  0  0  0  0  0  0  0  0  0  0
  196.2740  176.0380  142.7450 C   0  0  0  0  0  0  0  0  0  0  0  0
  189.5430  172.7740  140.1910 N   0  0  0  0  0  2  0  0  0  0  0  0
  190.2640  174.3900  141.8840 C   0  0  0  0  0  2  0  0  0  0  0  0
  190.6800  173.1890  141.0200 C   0  0  2  0  0  3  0  0  0  0  0  0
  192.8230  174.5200  140.6230 N   0  0  0  0  0  2  0  0  0  0  0  0
  196.0680  176.6400  143.9880 C   0  0  0  0  0  3  0  0  0  0  0  0
  194.8080  176.6000  144.5860 C   0  0  0  0  0  3  0  0  0  0  0  0
  191.7030  173.4980  138.6970 C   0  0  0  0  0  2  0  0  0  0  0  0
  191.9940  173.3910  140.1900 C   0  0  2  0  0  3  0  0  0  0  0  0
  195.4650  174.7600  140.9140 F   0  0  0  0  0  0  0  0  0  0  0  0
  191.3270  175.5040  143.9450 C   0  0  0  0  0  0  0  0  0  0  0  0
  192.4260  175.9160  144.5950 C   0  0  0  0  0  3  0  0  0  0  0  0
  197.5080  176.0660  142.1850 F   0  0  0  0  0  0  0  0  0  0  0  0
  192.7800  174.5960  142.0760 C   0  0  2  0  0  3  0  0  0  0  0  0
  195.2190  175.3900  142.0910 C   0  0  0  0  0  0  0  0  0  0  0  0
  188.5840  176.8760  146.6240 C   0  0  0  0  0  2  0  0  0  0  0  0
  190.0560  175.5490  144.6210 N   0  0  0  0  0  0  0  0  0  0  0  0
  189.7780  173.3600  145.6870 C   0  0  0  0  0  1  0  0  0  0  0  0
  188.6290  175.3490  146.6380 C   0  0  0  0  0  2  0  0  0  0  0  0
  189.8780  174.8580  145.9060 C   0  0  2  0  0  3  0  0  0  0  0  0
  189.0000  176.4350  144.1310 C   0  0  0  0  0  2  0  0  0  0  0  0
  188.6280  177.4650  145.2010 C   0  0  1  0  0  3  0  0  0  0  0  0
  186.4180  178.2700  145.7640 N   0  0  0  0  0  0  0  0  0  0  0  0
  187.3200  178.0850  144.8530 C   0  0  0  0  0  3  0  0  0  0  0  0
  185.1500  178.8610  145.4710 C   0  0  0  0  0  0  0  0  0  0  0  0
  185.0050  179.7230  144.2700 C   0  0  0  0  0  1  0  0  0  0  0  0
  184.1540  178.6630  146.2180 O   0  0  0  0  0  0  0  0  0  0  0  0
  1  8  1  1  0  0  0
  1 16  1  0  0  0  0
  2  7  1  0  0  0  0
  3 13  1  0  0  0  0
  3  2  1  0  0  0  0
  4  5  1  0  0  0  0
  5 12  2  0  0  0  0
  5 17  1  0  0  0  0
  6 11  2  0  0  0  0
  7  9  1  0  0  0  0
  9  8  1  6  0  0  0
 11 12  1  0  0  0  0
 14 13  1  6  0  0  0
 14 10  1  0  0  0  0
 14  9  1  0  0  0  0
 15 20  1  0  0  0  0
 16 17  2  0  0  0  0
 16 22  1  0  0  0  0
 18  6  1  0  0  0  0
 19 10  1  6  0  0  0
 19  1  1  0  0  0  0
 19  4  1  0  0  0  0
 20  4  2  0  0  0  0
 20  6  1  0  0  0  0
 21 24  1  0  0  0  0
 22 25  1  0  0  0  0
 25 23  1  6  0  0  0
 25 24  1  0  0  0  0
 26 22  1  0  0  0  0
 26 27  1  0  0  0  0
 27 29  1  6  0  0  0
 27 21  1  0  0  0  0
 29 28  2  0  0  0  0
 30 28  1  0  0  0  0
 30 32  2  0  0  0  0
 31 30  1  0  0  0  0
M  END
>  <MODEL>
3

>  <REMARK>
 VINA RESULT:      -7.6      4.054      7.245
  Name = 
  3 active torsions:
  status: ('A' for Active; 'I' for Inactive)
    1  A    between atoms: C_1  and  N_10
    2  A    between atoms: N_8  and  C_28
    3  A    between atoms: C_19  and  C_24
                            x       y       z     vdW  Elec       q    Type
                         _______ _______ _______ _____ _____    ______ ____

>  <TORSDO>
F 3

$$$$
=
 OpenBabel11052421293D

 32 36  0  0  1  0  0  0  0  0999 V2000
  189.0100  176.2190  143.9200 C   0  0  1  0  0  3  0  0  0  0  0  0
  188.5030  172.7230  140.4600 C   0  0  0  0  0  2  0  0  0  0  0  0
  189.9670  172.9040  140.0430 C   0  0  0  0  0  2  0  0  0  0  0  0
  191.0030  175.8580  145.4130 C   0  0  0  0  0  0  0  0  0  0  0  0
  190.3620  176.6500  146.3900 C   0  0  0  0  0  0  0  0  0  0  0  0
  193.0600  175.9860  146.7070 C   0  0  0  0  0  0  0  0  0  0  0  0
  187.9670  173.9660  141.0100 N   0  0  0  0  0  2  0  0  0  0  0  0
  188.1280  175.6070  142.8210 C   0  0  0  0  0  2  0  0  0  0  0  0
  188.5900  174.2320  142.3110 C   0  0  2  0  0  3  0  0  0  0  0  0
  190.9020  174.9840  143.0950 N   0  0  0  0  0  2  0  0  0  0  0  0
  192.4210  176.7910  147.6520 C   0  0  0  0  0  3  0  0  0  0  0  0
  191.0730  177.1170  147.4980 C   0  0  0  0  0  3  0  0  0  0  0  0
  190.6880  173.9710  140.8720 C   0  0  0  0  0  2  0  0  0  0  0  0
  190.1430  174.0170  142.2960 C   0  0  2  0  0  3  0  0  0  0  0  0
  192.9870  174.6710  144.7300 F   0  0  0  0  0  0  0  0  0  0  0  0
  188.2510  176.7400  145.1270 C   0  0  0  0  0  0  0  0  0  0  0  0
  188.9330  176.9870  146.2560 C   0  0  0  0  0  3  0  0  0  0  0  0
  194.3650  175.6600  146.8800 F   0  0  0  0  0  0  0  0  0  0  0  0
  190.1500  175.2750  144.3070 C   0  0  2  0  0  3  0  0  0  0  0  0
  192.3550  175.5020  145.5990 C   0  0  0  0  0  0  0  0  0  0  0  0
  185.1990  179.3590  144.4850 C   0  0  0  0  0  2  0  0  0  0  0  0
  186.8770  177.1620  145.0320 N   0  0  0  0  0  0  0  0  0  0  0  0
  185.9060  176.8100  147.2540 C   0  0  0  0  0  1  0  0  0  0  0  0
  184.9440  178.5400  145.7490 C   0  0  0  0  0  2  0  0  0  0  0  0
  186.2270  177.8240  146.1730 C   0  0  2  0  0  3  0  0  0  0  0  0
  186.1840  177.1090  143.7450 C   0  0  0  0  0  2  0  0  0  0  0  0
  185.7400  178.5100  143.3190 C   0  0  1  0  0  3  0  0  0  0  0  0
  183.4570  178.3990  142.5280 N   0  0  0  0  0  0  0  0  0  0  0  0
  184.7190  178.3960  142.2400 C   0  0  0  0  0  3  0  0  0  0  0  0
  182.4470  178.2910  141.5230 C   0  0  0  0  0  0  0  0  0  0  0  0
  182.8300  177.9160  140.1380 C   0  0  0  0  0  1  0  0  0  0  0  0
  181.2350  178.5110  141.7950 O   0  0  0  0  0  0  0  0  0  0  0  0
  1  8  1  6  0  0  0
  1 19  1  0  0  0  0
  1 16  1  0  0  0  0
  2  7  1  0  0  0  0
  3  2  1  0  0  0  0
  3 13  1  0  0  0  0
  4 20  2  0  0  0  0
  4  5  1  0  0  0  0
  5 12  2  0  0  0  0
  6 18  1  0  0  0  0
  6 11  2  0  0  0  0
  7  9  1  0  0  0  0
  9  8  1  6  0  0  0
 12 11  1  0  0  0  0
 14 13  1  6  0  0  0
 14  9  1  0  0  0  0
 14 10  1  0  0  0  0
 15 20  1  0  0  0  0
 16 17  2  0  0  0  0
 17  5  1  0  0  0  0
 19 10  1  6  0  0  0
 19  4  1  0  0  0  0
 20  6  1  0  0  0  0
 21 24  1  0  0  0  0
 22 16  1  0  0  0  0
 22 25  1  0  0  0  0
 24 25  1  0  0  0  0
 25 23  1  1  0  0  0
 26 22  1  0  0  0  0
 27 29  1  6  0  0  0
 27 26  1  0  0  0  0
 27 21  1  0  0  0  0
 29 28  2  0  0  0  0
 30 32  2  0  0  0  0
 30 28  1  0  0  0  0
 31 30  1  0  0  0  0
M  END
>  <MODEL>
4

>  <REMARK>
 VINA RESULT:      -7.4      4.197      7.524
  Name = 
  3 active torsions:
  status: ('A' for Active; 'I' for Inactive)
    1  A    between atoms: C_1  and  N_10
    2  A    between atoms: N_8  and  C_28
    3  A    between atoms: C_19  and  C_24
                            x       y       z     vdW  Elec       q    Type
                         _______ _______ _______ _____ _____    ______ ____

>  <TORSDO>
F 3

$$$$
=
 OpenBabel11052421293D

 32 36  0  0  1  0  0  0  0  0999 V2000
  191.0040  174.4530  143.4450 C   0  0  1  0  0  3  0  0  0  0  0  0
  189.7870  173.2260  138.8130 C   0  0  0  0  0  2  0  0  0  0  0  0
  188.3760  172.8370  139.2710 C   0  0  0  0  0  2  0  0  0  0  0  0
  189.3480  176.0060  144.5300 C   0  0  0  0  0  0  0  0  0  0  0  0
  190.3730  176.4180  145.4080 C   0  0  0  0  0  0  0  0  0  0  0  0
  187.7250  177.1420  145.9430 C   0  0  0  0  0  0  0  0  0  0  0  0
  190.7490  173.0460  139.8970 N   0  0  0  0  0  2  0  0  0  0  0  0
  191.4320  173.7800  142.1320 C   0  0  0  0  0  2  0  0  0  0  0  0
  190.5110  174.0580  140.9320 C   0  0  2  0  0  3  0  0  0  0  0  0
  188.7150  174.4490  142.7060 N   0  0  0  0  0  2  0  0  0  0  0  0
  188.7450  177.5200  146.8180 C   0  0  0  0  0  3  0  0  0  0  0  0
  190.0670  177.1650  146.5480 C   0  0  0  0  0  3  0  0  0  0  0  0
  188.1700  173.0410  140.7740 C   0  0  0  0  0  2  0  0  0  0  0  0
  188.9920  174.2200  141.2840 C   0  0  2  0  0  3  0  0  0  0  0  0
  187.0160  176.1040  143.9280 F   0  0  0  0  0  0  0  0  0  0  0  0
  192.1130  175.1950  144.1680 C   0  0  0  0  0  0  0  0  0  0  0  0
  191.7780  176.0710  145.1280 C   0  0  0  0  0  3  0  0  0  0  0  0
  186.4470  177.5120  146.2060 F   0  0  0  0  0  0  0  0  0  0  0  0
  189.7540  175.3130  143.2470 C   0  0  2  0  0  3  0  0  0  0  0  0
  188.0200  176.4040  144.7900 C   0  0  0  0  0  0  0  0  0  0  0  0
  196.0390  174.9150  145.2120 C   0  0  0  0  0  2  0  0  0  0  0  0
  193.4980  174.8420  143.9960 N   0  0  0  0  0  0  0  0  0  0  0  0
  194.2690  176.0650  142.0180 C   0  0  0  0  0  1  0  0  0  0  0  0
  195.9020  175.4070  143.7730 C   0  0  0  0  0  2  0  0  0  0  0  0
  194.4600  175.8400  143.5060 C   0  0  2  0  0  3  0  0  0  0  0  0
  193.9890  173.5540  144.4860 C   0  0  0  0  0  2  0  0  0  0  0  0
  195.0720  173.7640  145.5480 C   0  0  1  0  0  3  0  0  0  0  0  0
  195.1960  171.3620  145.7990 N   0  0  0  0  0  0  0  0  0  0  0  0
  195.8230  172.4930  145.7430 C   0  0  0  0  0  3  0  0  0  0  0  0
  195.8800  170.1210  145.9860 C   0  0  0  0  0  0  0  0  0  0  0  0
  195.2930  169.0890  146.8800 C   0  0  0  0  0  1  0  0  0  0  0  0
  196.9740  169.8890  145.4050 O   0  0  0  0  0  0  0  0  0  0  0  0
  1  8  1  6  0  0  0
  1 16  1  0  0  0  0
  2  3  1  0  0  0  0
  2  7  1  0  0  0  0
  3 13  1  0  0  0  0
  4 20  2  0  0  0  0
  4  5  1  0  0  0  0
  5 12  2  0  0  0  0
  6 18  1  0  0  0  0
  6 11  2  0  0  0  0
  7  9  1  0  0  0  0
  9 14  1  0  0  0  0
  9  8  1  1  0  0  0
 12 11  1  0  0  0  0
 14 13  1  1  0  0  0
 14 10  1  0  0  0  0
 15 20  1  0  0  0  0
 16 17  2  0  0  0  0
 17  5  1  0  0  0  0
 19 10  1  1  0  0  0
 19  1  1  0  0  0  0
 19  4  1  0  0  0  0
 20  6  1  0  0  0  0
 21 27  1  0  0  0  0
 22 16  1  0  0  0  0
 22 26  1  0  0  0  0
 24 21  1  0  0  0  0
 25 23  1  6  0  0  0
 25 24  1  0  0  0  0
 25 22  1  0  0  0  0
 26 27  1  0  0  0  0
 27 29  1  6  0  0  0
 28 30  1  0  0  0  0
 29 28  2  0  0  0  0
 30 31  1  0  0  0  0
 32 30  2  0  0  0  0
M  END
>  <MODEL>
5

>  <REMARK>
 VINA RESULT:      -7.2      2.568      3.684
  Name = 
  3 active torsions:
  status: ('A' for Active; 'I' for Inactive)
    1  A    between atoms: C_1  and  N_10
    2  A    between atoms: N_8  and  C_28
    3  A    between atoms: C_19  and  C_24
                            x       y       z     vdW  Elec       q    Type
                         _______ _______ _______ _____ _____    ______ ____

>  <TORSDO>
F 3

$$$$
=
 OpenBabel11052421293D

 32 36  0  0  1  0  0  0  0  0999 V2000
  189.9140  174.9390  143.2220 C   0  0  1  0  0  3  0  0  0  0  0  0
  193.9530  176.4560  145.6370 C   0  0  0  0  0  2  0  0  0  0  0  0
  194.3940  175.0010  145.8430 C   0  0  0  0  0  2  0  0  0  0  0  0
  190.4140  173.2970  141.3820 C   0  0  0  0  0  0  0  0  0  0  0  0
  189.1960  173.6690  140.7750 C   0  0  0  0  0  0  0  0  0  0  0  0
  190.5610  171.4080  139.8540 C   0  0  0  0  0  0  0  0  0  0  0  0
  192.4980  176.5450  145.5400 N   0  0  0  0  0  2  0  0  0  0  0  0
  190.5200  175.9150  144.2410 C   0  0  0  0  0  2  0  0  0  0  0  0
  192.0560  175.9450  144.2770 C   0  0  2  0  0  3  0  0  0  0  0  0
  191.8850  173.5670  143.3600 N   0  0  0  0  0  2  0  0  0  0  0  0
  189.3410  171.7720  139.2800 C   0  0  0  0  0  3  0  0  0  0  0  0
  188.6630  172.9040  139.7350 C   0  0  0  0  0  3  0  0  0  0  0  0
  193.4140  173.9980  145.2280 C   0  0  0  0  0  2  0  0  0  0  0  0
  192.7540  174.5730  143.9800 C   0  0  2  0  0  3  0  0  0  0  0  0
  192.3280  171.8300  141.3840 F   0  0  0  0  0  0  0  0  0  0  0  0
  188.8280  175.5310  142.3420 C   0  0  0  0  0  0  0  0  0  0  0  0
  188.4760  174.8730  141.2270 C   0  0  0  0  0  3  0  0  0  0  0  0
  191.2190  170.3180  139.3880 F   0  0  0  0  0  0  0  0  0  0  0  0
  191.0060  174.2350  142.4120 C   0  0  2  0  0  3  0  0  0  0  0  0
  191.1110  172.1740  140.8880 C   0  0  0  0  0  0  0  0  0  0  0  0
  185.4070  177.6430  142.9900 C   0  0  0  0  0  2  0  0  0  0  0  0
  188.0380  176.6560  142.7700 N   0  0  0  0  0  0  0  0  0  0  0  0
  188.7740  178.5580  141.4130 C   0  0  0  0  0  1  0  0  0  0  0  0
  186.4720  178.5320  142.3510 C   0  0  0  0  0  2  0  0  0  0  0  0
  187.6060  177.6700  141.7970 C   0  0  2  0  0  3  0  0  0  0  0  0
  187.5010  176.6950  144.1310 C   0  0  0  0  0  2  0  0  0  0  0  0
  185.9710  176.7360  144.1000 C   0  0  1  0  0  3  0  0  0  0  0  0
  186.0840  178.0790  146.1070 N   0  0  0  0  0  0  0  0  0  0  0  0
  185.4630  177.1660  145.4320 C   0  0  0  0  0  3  0  0  0  0  0  0
  185.6300  178.5200  147.3890 C   0  0  0  0  0  0  0  0  0  0  0  0
  186.6010  179.1080  148.3470 C   0  0  0  0  0  1  0  0  0  0  0  0
  184.4170  178.4150  147.7190 O   0  0  0  0  0  0  0  0  0  0  0  0
  1  8  1  6  0  0  0
  2  3  1  0  0  0  0
  5 17  1  0  0  0  0
  5  4  2  0  0  0  0
  6 20  2  0  0  0  0
  7  2  1  0  0  0  0
  9  8  1  1  0  0  0
  9  7  1  0  0  0  0
 10 14  1  0  0  0  0
 11 12  2  0  0  0  0
 11  6  1  0  0  0  0
 12  5  1  0  0  0  0
 13  3  1  0  0  0  0
 14  9  1  0  0  0  0
 14 13  1  1  0  0  0
 16 22  1  0  0  0  0
 16  1  1  0  0  0  0
 17 16  2  0  0  0  0
 18  6  1  0  0  0  0
 19  4  1  6  0  0  0
 19  1  1  0  0  0  0
 19 10  1  0  0  0  0
 20  4  1  0  0  0  0
 20 15  1  0  0  0  0
 21 27  1  0  0  0  0
 22 26  1  0  0  0  0
 24 21  1  0  0  0  0
 25 23  1  1  0  0  0
 25 24  1  0  0  0  0
 25 22  1  0  0  0  0
 27 26  1  0  0  0  0
 27 29  1  1  0  0  0
 28 30  1  0  0  0  0
 29 28  2  0  0  0  0
 30 32  2  0  0  0  0
 30 31  1  0  0  0  0
M  END
>  <MODEL>
6

>  <REMARK>
 VINA RESULT:      -7.2      3.908      7.838
  Name = 
  3 active torsions:
  status: ('A' for Active; 'I' for Inactive)
    1  A    between atoms: C_1  and  N_10
    2  A    between atoms: N_8  and  C_28
    3  A    between atoms: C_19  and  C_24
                            x       y       z     vdW  Elec       q    Type
                         _______ _______ _______ _____ _____    ______ ____

>  <TORSDO>
F 3

$$$$
=
 OpenBabel11052421293D

 32 36  0  0  1  0  0  0  0  0999 V2000
  189.1400  175.9680  143.7770 C   0  0  1  0  0  3  0  0  0  0  0  0
  191.3770  175.2910  148.1350 C   0  0  0  0  0  2  0  0  0  0  0  0
  191.2720  176.7910  148.4380 C   0  0  0  0  0  2  0  0  0  0  0  0
  186.9940  177.2690  143.9540 C   0  0  0  0  0  0  0  0  0  0  0  0
  186.5890  176.6840  142.7350 C   0  0  0  0  0  0  0  0  0  0  0  0
  185.1430  178.8400  143.7790 C   0  0  0  0  0  0  0  0  0  0  0  0
  191.4430  175.0600  146.6940 N   0  0  0  0  0  2  0  0  0  0  0  0
  190.2550  175.2590  144.5620 C   0  0  0  0  0  2  0  0  0  0  0  0
  190.1420  175.3690  146.0910 C   0  0  2  0  0  3  0  0  0  0  0  0
  188.8330  177.5070  145.6010 N   0  0  0  0  0  2  0  0  0  0  0  0
  184.7680  178.2690  142.5610 C   0  0  0  0  0  3  0  0  0  0  0  0
  185.4850  177.1900  142.0430 C   0  0  0  0  0  3  0  0  0  0  0  0
  190.5860  177.5720  147.3130 C   0  0  0  0  0  2  0  0  0  0  0  0
  189.5340  176.7150  146.6170 C   0  0  2  0  0  3  0  0  0  0  0  0
  186.5400  178.8690  145.6990 F   0  0  0  0  0  0  0  0  0  0  0  0
  188.4950  175.1280  142.6910 C   0  0  0  0  0  0  0  0  0  0  0  0
  187.3190  175.5300  142.1830 C   0  0  0  0  0  3  0  0  0  0  0  0
  184.4250  179.8740  144.2810 F   0  0  0  0  0  0  0  0  0  0  0  0
  188.1120  176.5980  144.7210 C   0  0  2  0  0  3  0  0  0  0  0  0
  186.2390  178.3340  144.4880 C   0  0  0  0  0  0  0  0  0  0  0  0
  189.1980  172.3210  139.8260 C   0  0  0  0  0  2  0  0  0  0  0  0
  189.1960  174.0400  142.0580 N   0  0  0  0  0  0  0  0  0  0  0  0
  189.1390  172.1800  143.6520 C   0  0  0  0  0  1  0  0  0  0  0  0
  189.3460  171.7120  141.2190 C   0  0  0  0  0  2  0  0  0  0  0  0
  188.7500  172.6550  142.2650 C   0  0  2  0  0  3  0  0  0  0  0  0
  190.2280  174.3200  141.0600 C   0  0  0  0  0  2  0  0  0  0  0  0
  189.8420  173.7150  139.7080 C   0  0  1  0  0  3  0  0  0  0  0  0
  190.9690  174.0200  137.5900 N   0  0  0  0  0  0  0  0  0  0  0  0
  191.0450  173.6610  138.8320 C   0  0  0  0  0  3  0  0  0  0  0  0
  192.0990  173.9830  136.7170 C   0  0  0  0  0  0  0  0  0  0  0  0
  193.0860  175.0930  136.7480 C   0  0  0  0  0  1  0  0  0  0  0  0
  192.2710  173.0220  135.9180 O   0  0  0  0  0  0  0  0  0  0  0  0
  1  8  1  1  0  0  0
  1 19  1  0  0  0  0
  2  3  1  0  0  0  0
  4 20  1  0  0  0  0
  5  4  2  0  0  0  0
  6 18  1  0  0  0  0
  6 20  2  0  0  0  0
  7  2  1  0  0  0  0
  9  8  1  6  0  0  0
  9 14  1  0  0  0  0
  9  7  1  0  0  0  0
 10 14  1  0  0  0  0
 11  6  1  0  0  0  0
 12 11  2  0  0  0  0
 12  5  1  0  0  0  0
 13  3  1  0  0  0  0
 14 13  1  6  0  0  0
 16  1  1  0  0  0  0
 17 16  2  0  0  0  0
 17  5  1  0  0  0  0
 19  4  1  6  0  0  0
 19 10  1  0  0  0  0
 20 15  1  0  0  0  0
 21 24  1  0  0  0  0
 22 25  1  0  0  0  0
 22 16  1  0  0  0  0
 24 25  1  0  0  0  0
 25 23  1  1  0  0  0
 26 22  1  0  0  0  0
 27 29  1  6  0  0  0
 27 21  1  0  0  0  0
 27 26  1  0  0  0  0
 28 29  2  0  0  0  0
 30 31  1  0  0  0  0
 30 28  1  0  0  0  0
 32 30  2  0  0  0  0
M  END
>  <MODEL>
7

>  <REMARK>
 VINA RESULT:      -7.1      3.251      5.670
  Name = 
  3 active torsions:
  status: ('A' for Active; 'I' for Inactive)
    1  A    between atoms: C_1  and  N_10
    2  A    between atoms: N_8  and  C_28
    3  A    between atoms: C_19  and  C_24
                            x       y       z     vdW  Elec       q    Type
                         _______ _______ _______ _____ _____    ______ ____

>  <TORSDO>
F 3

$$$$
=
 OpenBabel11052421293D

 32 36  0  0  1  0  0  0  0  0999 V2000
  191.5950  173.7670  142.9510 C   0  0  1  0  0  3  0  0  0  0  0  0
  188.1910  172.7030  139.5260 C   0  0  0  0  0  2  0  0  0  0  0  0
  189.2440  171.9700  138.6870 C   0  0  0  0  0  2  0  0  0  0  0  0
  192.9110  171.7580  143.7020 C   0  0  0  0  0  0  0  0  0  0  0  0
  193.2020  172.4470  144.8980 C   0  0  0  0  0  0  0  0  0  0  0  0
  194.5930  170.0990  144.2870 C   0  0  0  0  0  0  0  0  0  0  0  0
  188.8120  173.7550  140.3270 N   0  0  0  0  0  2  0  0  0  0  0  0
  190.3870  174.2520  142.1360 C   0  0  0  0  0  2  0  0  0  0  0  0
  189.6270  173.1470  141.3840 C   0  0  2  0  0  3  0  0  0  0  0  0
  191.8510  171.8940  141.4640 N   0  0  0  0  0  2  0  0  0  0  0  0
  194.8890  170.8050  145.4540 C   0  0  0  0  0  3  0  0  0  0  0  0
  194.1910  171.9730  145.7630 C   0  0  0  0  0  3  0  0  0  0  0  0
  190.6300  171.9820  139.3400 C   0  0  0  0  0  2  0  0  0  0  0  0
  190.5170  171.9670  140.8610 C   0  0  2  0  0  3  0  0  0  0  0  0
  193.2870  169.8150  142.3240 F   0  0  0  0  0  0  0  0  0  0  0  0
  191.6460  174.2830  144.3780 C   0  0  0  0  0  0  0  0  0  0  0  0
  192.4600  173.6710  145.2520 C   0  0  0  0  0  3  0  0  0  0  0  0
  195.2650  168.9540  144.0100 F   0  0  0  0  0  0  0  0  0  0  0  0
  191.7430  172.2450  142.8720 C   0  0  2  0  0  3  0  0  0  0  0  0
  193.5950  170.5570  143.4190 C   0  0  0  0  0  0  0  0  0  0  0  0
  188.9560  177.3250  144.0870 C   0  0  0  0  0  2  0  0  0  0  0  0
  191.0090  175.5160  144.7600 N   0  0  0  0  0  0  0  0  0  0  0  0
  192.7440  177.2420  144.6380 C   0  0  0  0  0  1  0  0  0  0  0  0
  190.3570  177.8740  144.3530 C   0  0  0  0  0  2  0  0  0  0  0  0
  191.3980  176.7790  144.1150 C   0  0  2  0  0  3  0  0  0  0  0  0
  189.8460  175.4930  145.6460 C   0  0  0  0  0  2  0  0  0  0  0  0
  188.6240  176.0870  144.9400 C   0  0  1  0  0  3  0  0  0  0  0  0
  186.8590  177.4820  145.8270 N   0  0  0  0  0  0  0  0  0  0  0  0
  187.5820  176.4160  145.9530 C   0  0  0  0  0  3  0  0  0  0  0  0
  185.8500  177.8330  146.7760 C   0  0  0  0  0  0  0  0  0  0  0  0
  184.4870  178.1840  146.3000 C   0  0  0  0  0  1  0  0  0  0  0  0
  186.0990  177.8490  148.0130 O   0  0  0  0  0  0  0  0  0  0  0  0
  1  8  1  1  0  0  0
  1 16  1  0  0  0  0
  2  7  1  0  0  0  0
  3 13  1  0  0  0  0
  3  2  1  0  0  0  0
  4  5  1  0  0  0  0
  5 17  1  0  0  0  0
  5 12  2  0  0  0  0
  6 11  2  0  0  0  0
  7  9  1  0  0  0  0
  9  8  1  6  0  0  0
 11 12  1  0  0  0  0
 14 13  1  6  0  0  0
 14  9  1  0  0  0  0
 14 10  1  0  0  0  0
 15 20  1  0  0  0  0
 16 22  1  0  0  0  0
 16 17  2  0  0  0  0
 18  6  1  0  0  0  0
 19 10  1  6  0  0  0
 19  1  1  0  0  0  0
 19  4  1  0  0  0  0
 20  4  2  0  0  0  0
 20  6  1  0  0  0  0
 21 24  1  0  0  0  0
 21 27  1  0  0  0  0
 22 26  1  0  0  0  0
 25 24  1  0  0  0  0
 25 23  1  1  0  0  0
 25 22  1  0  0  0  0
 27 26  1  0  0  0  0
 27 29  1  1  0  0  0
 28 29  2  0  0  0  0
 28 30  1  0  0  0  0
 30 32  2  0  0  0  0
 31 30  1  0  0  0  0
M  END
>  <MODEL>
8

>  <REMARK>
 VINA RESULT:      -7.1      4.199      7.454
  Name = 
  3 active torsions:
  status: ('A' for Active; 'I' for Inactive)
    1  A    between atoms: C_1  and  N_10
    2  A    between atoms: N_8  and  C_28
    3  A    between atoms: C_19  and  C_24
                            x       y       z     vdW  Elec       q    Type
                         _______ _______ _______ _____ _____    ______ ____

>  <TORSDO>
F 3

$$$$
=
 OpenBabel11052421293D

 32 36  0  0  1  0  0  0  0  0999 V2000
  189.4710  175.8770  143.6400 C   0  0  1  0  0  3  0  0  0  0  0  0
  191.3840  175.2550  148.1570 C   0  0  0  0  0  2  0  0  0  0  0  0
  191.2850  176.7620  148.4230 C   0  0  0  0  0  2  0  0  0  0  0  0
  187.3410  177.2170  143.6390 C   0  0  0  0  0  0  0  0  0  0  0  0
  187.0120  176.6140  142.4070 C   0  0  0  0  0  0  0  0  0  0  0  0
  185.5360  178.8150  143.3040 C   0  0  0  0  0  0  0  0  0  0  0  0
  191.5470  174.9920  146.7290 N   0  0  0  0  0  2  0  0  0  0  0  0
  190.5150  175.1660  144.5150 C   0  0  0  0  0  2  0  0  0  0  0  0
  190.2970  175.3100  146.0300 C   0  0  2  0  0  3  0  0  0  0  0  0
  189.0640  177.4590  145.4070 N   0  0  0  0  0  2  0  0  0  0  0  0
  185.2370  178.2250  142.0740 C   0  0  0  0  0  3  0  0  0  0  0  0
  185.9690  177.1230  141.6290 C   0  0  0  0  0  3  0  0  0  0  0  0
  190.6950  177.5300  147.2370 C   0  0  0  0  0  2  0  0  0  0  0  0
  189.6780  176.6770  146.4850 C   0  0  2  0  0  3  0  0  0  0  0  0
  186.7960  178.8610  145.3160 F   0  0  0  0  0  0  0  0  0  0  0  0
  188.8880  175.0260  142.5280 C   0  0  0  0  0  0  0  0  0  0  0  0
  187.7590  175.4360  141.9300 C   0  0  0  0  0  3  0  0  0  0  0  0
  184.8030  179.8710  143.7340 F   0  0  0  0  0  0  0  0  0  0  0  0
  188.3910  176.5440  144.4960 C   0  0  2  0  0  3  0  0  0  0  0  0
  186.5700  178.3050  144.0980 C   0  0  0  0  0  0  0  0  0  0  0  0
  189.8080  172.2170  139.7260 C   0  0  0  0  0  2  0  0  0  0  0  0
  189.6120  173.9130  141.9680 N   0  0  0  0  0  0  0  0  0  0  0  0
  189.2820  172.0420  143.5150 C   0  0  0  0  0  1  0  0  0  0  0  0
  189.7600  171.5890  141.1170 C   0  0  0  0  0  2  0  0  0  0  0  0
  189.0840  172.5480  142.0980 C   0  0  2  0  0  3  0  0  0  0  0  0
  190.7690  174.1550  141.1060 C   0  0  0  0  0  2  0  0  0  0  0  0
  190.5220  173.5820  139.7080 C   0  0  1  0  0  3  0  0  0  0  0  0
  192.8520  174.1470  139.3890 N   0  0  0  0  0  0  0  0  0  0  0  0
  191.8180  173.4820  138.9820 C   0  0  0  0  0  3  0  0  0  0  0  0
  194.1130  174.0780  138.7200 C   0  0  0  0  0  0  0  0  0  0  0  0
  194.5010  175.1590  137.7770 C   0  0  0  0  0  1  0  0  0  0  0  0
  194.9010  173.1130  138.9170 O   0  0  0  0  0  0  0  0  0  0  0  0
  1 19  1  0  0  0  0
  1  8  1  1  0  0  0
  2  3  1  0  0  0  0
  4 20  1  0  0  0  0
  5  4  2  0  0  0  0
  6 18  1  0  0  0  0
  6 20  2  0  0  0  0
  7  2  1  0  0  0  0
  9  8  1  6  0  0  0
  9 14  1  0  0  0  0
  9  7  1  0  0  0  0
 10 14  1  0  0  0  0
 11  6  1  0  0  0  0
 12 11  2  0  0  0  0
 12  5  1  0  0  0  0
 13  3  1  0  0  0  0
 14 13  1  6  0  0  0
 16  1  1  0  0  0  0
 17  5  1  0  0  0  0
 17 16  2  0  0  0  0
 19  4  1  6  0  0  0
 19 10  1  0  0  0  0
 20 15  1  0  0  0  0
 21 24  1  0  0  0  0
 22 25  1  0  0  0  0
 22 16  1  0  0  0  0
 24 25  1  0  0  0  0
 25 23  1  1  0  0  0
 26 22  1  0  0  0  0
 27 29  1  1  0  0  0
 27 21  1  0  0  0  0
 27 26  1  0  0  0  0
 29 28  2  0  0  0  0
 30 32  2  0  0  0  0
 30 28  1  0  0  0  0
 31 30  1  0  0  0  0
M  END
>  <MODEL>
9

>  <REMARK>
 VINA RESULT:      -7.1      2.703      5.209
  Name = 
  3 active torsions:
  status: ('A' for Active; 'I' for Inactive)
    1  A    between atoms: C_1  and  N_10
    2  A    between atoms: N_8  and  C_28
    3  A    between atoms: C_19  and  C_24
                            x       y       z     vdW  Elec       q    Type
                         _______ _______ _______ _____ _____    ______ ____

>  <TORSDO>
F 3

$$$$
