=
 OpenBabel11052417173D

 30 33  0  0  1  0  0  0  0  0999 V2000
  187.6020  176.8270  144.8680 O   0  0  0  0  0  0  0  0  0  0  0  0
  186.1880  177.8640  146.5380 C   0  0  0  0  0  0  0  0  0  0  0  0
  185.9690  178.5880  141.9370 C   0  0  0  0  0  2  0  0  0  0  0  0
  188.0180  176.6170  143.5190 C   0  0  2  0  0  0  0  0  0  0  0  0
  190.1600  175.9980  142.6780 C   0  0  0  0  0  2  0  0  0  0  0  0
  189.0480  175.4860  143.5310 C   0  0  2  0  0  3  0  0  0  0  0  0
  186.0020  178.1590  140.4800 C   0  0  0  0  0  2  0  0  0  0  0  0
  188.6480  177.7920  143.0510 O   0  0  0  0  0  0  0  0  0  0  0  0
  184.9990  178.5080  146.8880 C   0  0  0  0  0  3  0  0  0  0  0  0
  187.1390  177.5970  147.5140 O   0  0  0  0  0  1  0  0  0  0  0  0
  185.6670  177.3660  142.7940 C   0  0  1  0  0  3  0  0  0  0  0  0
  184.0340  178.7770  145.9150 C   0  0  0  0  0  3  0  0  0  0  0  0
  186.4180  177.4900  145.2070 C   0  0  0  0  0  0  0  0  0  0  0  0
  186.7850  176.3120  142.6270 C   0  0  1  0  0  3  0  0  0  0  0  0
  186.8870  176.9570  140.2790 C   0  0  0  0  0  3  0  0  0  0  0  0
  187.1820  176.1390  141.2350 N   0  0  0  0  0  0  0  0  0  0  0  0
  190.0010  177.4930  142.7900 C   0  0  1  0  0  3  0  0  0  0  0  0
  184.2570  178.4020  144.5880 C   0  0  0  0  0  3  0  0  0  0  0  0
  185.4450  177.7580  144.2260 C   0  0  0  0  0  0  0  0  0  0  0  0
  188.5520  174.2750  143.0340 O   0  0  0  0  0  0  0  0  0  0  0  0
  189.6890  173.5040  142.7720 C   0  0  0  0  0  2  0  0  0  0  0  0
  189.6550  171.9830  144.6220 O   0  0  0  0  0  1  0  0  0  0  0  0
  189.4900  172.0690  143.2390 C   0  0  2  0  0  3  0  0  0  0  0  0
  190.4640  171.1370  142.5450 C   0  0  0  0  0  1  0  0  0  0  0  0
  190.8860  178.0280  143.9120 C   0  0  0  0  0  2  0  0  0  0  0  0
  191.8220  177.0060  144.3530 N   0  0  0  0  0  2  0  0  0  0  0  0
  191.6150  176.8330  145.7270 N   0  0  0  0  0  2  0  0  0  0  0  0
  191.7100  174.5060  145.5950 O   0  0  0  0  0  0  0  0  0  0  0  0
  191.5730  175.5330  146.3110 C   0  0  0  0  0  0  0  0  0  0  0  0
  191.3740  175.3900  147.7770 C   0  0  0  0  0  1  0  0  0  0  0  0
  1 13  1  0  0  0  0
  2  9  1  0  0  0  0
  2 10  1  0  0  0  0
  4  8  1  6  0  0  0
  4  6  1  0  0  0  0
  4  1  1  0  0  0  0
  5 17  1  0  0  0  0
  5  6  1  0  0  0  0
  6 20  1  6  0  0  0
  7  3  1  0  0  0  0
 11  3  1  6  0  0  0
 11 19  1  0  0  0  0
 12  9  2  0  0  0  0
 13  2  2  0  0  0  0
 14 16  1  6  0  0  0
 14 11  1  0  0  0  0
 14  4  1  0  0  0  0
 15  7  1  0  0  0  0
 15 16  2  0  0  0  0
 17  8  1  0  0  0  0
 17 25  1  1  0  0  0
 18 12  1  0  0  0  0
 19 18  2  0  0  0  0
 19 13  1  0  0  0  0
 21 20  1  0  0  0  0
 21 23  1  0  0  0  0
 23 24  1  6  0  0  0
 23 22  1  0  0  0  0
 25 26  1  0  0  0  0
 26 27  1  0  0  0  0
 27 29  1  0  0  0  0
 28 29  2  0  0  0  0
 29 30  1  0  0  0  0
M  END
>  <MODEL>
1

>  <REMARK>
 VINA RESULT:      -7.6      0.000      0.000
  Name = 
  6 active torsions:
  status: ('A' for Active; 'I' for Inactive)
    1  A    between atoms: N_7  and  N_16
    2  A    between atoms: C_8  and  O_12
    3  A    between atoms: C_9  and  O_12
    4  A    between atoms: C_9  and  C_17
    5  A    between atoms: N_16  and  C_30
    6  A    between atoms: C_27  and  C_30
                            x       y       z     vdW  Elec       q    Type
                         _______ _______ _______ _____ _____    ______ ____

>  <TORSDO>
F 6

$$$$
=
 OpenBabel11052417173D

 30 33  0  0  1  0  0  0  0  0999 V2000
  187.6710  176.7930  144.8720 O   0  0  0  0  0  0  0  0  0  0  0  0
  186.3000  177.8090  146.5890 C   0  0  0  0  0  0  0  0  0  0  0  0
  185.9500  178.5710  142.0030 C   0  0  0  0  0  2  0  0  0  0  0  0
  188.0510  176.5960  143.5100 C   0  0  2  0  0  0  0  0  0  0  0  0
  190.1700  175.9930  142.6050 C   0  0  0  0  0  2  0  0  0  0  0  0
  189.0850  175.4690  143.4850 C   0  0  2  0  0  3  0  0  0  0  0  0
  185.9440  178.1540  140.5410 C   0  0  0  0  0  2  0  0  0  0  0  0
  188.6620  177.7780  143.0350 O   0  0  0  0  0  0  0  0  0  0  0  0
  185.1180  178.4450  146.9770 C   0  0  0  0  0  3  0  0  0  0  0  0
  187.2780  177.5390  147.5370 O   0  0  0  0  0  1  0  0  0  0  0  0
  185.6770  177.3400  142.8570 C   0  0  1  0  0  3  0  0  0  0  0  0
  184.1250  178.7180  146.0340 C   0  0  0  0  0  3  0  0  0  0  0  0
  186.4940  177.4480  145.2490 C   0  0  0  0  0  0  0  0  0  0  0  0
  186.7950  176.2920  142.6500 C   0  0  1  0  0  3  0  0  0  0  0  0
  186.8290  176.9580  140.3060 C   0  0  0  0  0  3  0  0  0  0  0  0
  187.1530  176.1330  141.2460 N   0  0  0  0  0  0  0  0  0  0  0  0
  190.0080  177.4860  142.7340 C   0  0  1  0  0  3  0  0  0  0  0  0
  184.3120  178.3550  144.6980 C   0  0  0  0  0  3  0  0  0  0  0  0
  185.4930  177.7190  144.2980 C   0  0  0  0  0  0  0  0  0  0  0  0
  188.5810  174.2600  142.9910 O   0  0  0  0  0  0  0  0  0  0  0  0
  189.6440  173.6920  142.2820 C   0  0  0  0  0  2  0  0  0  0  0  0
  190.0000  171.5750  141.2200 O   0  0  0  0  0  1  0  0  0  0  0  0
  189.1380  172.6710  141.2720 C   0  0  2  0  0  3  0  0  0  0  0  0
  189.0110  173.2940  139.8960 C   0  0  0  0  0  1  0  0  0  0  0  0
  190.9220  178.0160  143.8360 C   0  0  0  0  0  2  0  0  0  0  0  0
  192.2690  177.4910  143.6760 N   0  0  0  0  0  2  0  0  0  0  0  0
  192.6620  176.9960  144.9270 N   0  0  0  0  0  2  0  0  0  0  0  0
  194.7920  176.4050  144.1840 O   0  0  0  0  0  0  0  0  0  0  0  0
  193.9650  176.4580  145.1320 C   0  0  0  0  0  0  0  0  0  0  0  0
  194.3530  175.9630  146.4790 C   0  0  0  0  0  1  0  0  0  0  0  0
  1 13  1  0  0  0  0
  2  9  1  0  0  0  0
  2 10  1  0  0  0  0
  4  8  1  6  0  0  0
  4  1  1  0  0  0  0
  5 17  1  0  0  0  0
  5  6  1  0  0  0  0
  6 20  1  6  0  0  0
  6  4  1  0  0  0  0
  7  3  1  0  0  0  0
 11  3  1  6  0  0  0
 11 19  1  0  0  0  0
 12  9  2  0  0  0  0
 13  2  2  0  0  0  0
 14 16  1  6  0  0  0
 14 11  1  0  0  0  0
 14  4  1  0  0  0  0
 15  7  1  0  0  0  0
 15 16  2  0  0  0  0
 17  8  1  0  0  0  0
 17 25  1  1  0  0  0
 18 12  1  0  0  0  0
 19 18  2  0  0  0  0
 19 13  1  0  0  0  0
 21 20  1  0  0  0  0
 22 23  1  0  0  0  0
 23 24  1  6  0  0  0
 23 21  1  0  0  0  0
 26 25  1  0  0  0  0
 26 27  1  0  0  0  0
 27 29  1  0  0  0  0
 28 29  2  0  0  0  0
 29 30  1  0  0  0  0
M  END
>  <MODEL>
2

>  <REMARK>
 VINA RESULT:      -7.4      1.382      1.495
  Name = 
  6 active torsions:
  status: ('A' for Active; 'I' for Inactive)
    1  A    between atoms: N_7  and  N_16
    2  A    between atoms: C_8  and  O_12
    3  A    between atoms: C_9  and  O_12
    4  A    between atoms: C_9  and  C_17
    5  A    between atoms: N_16  and  C_30
    6  A    between atoms: C_27  and  C_30
                            x       y       z     vdW  Elec       q    Type
                         _______ _______ _______ _____ _____    ______ ____

>  <TORSDO>
F 6

$$$$
=
 OpenBabel11052417173D

 30 33  0  0  1  0  0  0  0  0999 V2000
  189.5300  176.8920  142.7410 O   0  0  0  0  0  0  0  0  0  0  0  0
  187.4730  178.0730  142.2570 C   0  0  0  0  0  0  0  0  0  0  0  0
  188.4170  175.7120  146.1650 C   0  0  0  0  0  2  0  0  0  0  0  0
  190.3620  176.0970  143.5860 C   0  0  2  0  0  0  0  0  0  0  0  0
  192.0850  174.5600  142.9970 C   0  0  0  0  0  2  0  0  0  0  0  0
  191.7360  176.0080  142.9190 C   0  0  2  0  0  3  0  0  0  0  0  0
  189.3070  175.2560  147.3090 C   0  0  0  0  0  2  0  0  0  0  0  0
  189.8170  174.7960  143.6650 O   0  0  0  0  0  0  0  0  0  0  0  0
  186.3080  178.7070  142.6950 C   0  0  0  0  0  3  0  0  0  0  0  0
  187.7500  178.0060  140.8970 O   0  0  0  0  0  1  0  0  0  0  0  0
  189.0010  176.9900  145.5780 C   0  0  1  0  0  3  0  0  0  0  0  0
  186.0220  178.7840  144.0600 C   0  0  0  0  0  3  0  0  0  0  0  0
  188.3560  177.5070  143.1870 C   0  0  0  0  0  0  0  0  0  0  0  0
  190.4130  176.7150  145.0090 C   0  0  1  0  0  3  0  0  0  0  0  0
  190.7550  175.2090  146.8950 C   0  0  0  0  0  3  0  0  0  0  0  0
  191.2210  175.8940  145.9030 N   0  0  0  0  0  0  0  0  0  0  0  0
  190.7330  173.8990  143.0790 C   0  0  1  0  0  3  0  0  0  0  0  0
  186.9020  178.2260  144.9910 C   0  0  0  0  0  3  0  0  0  0  0  0
  188.0700  177.5860  144.5620 C   0  0  0  0  0  0  0  0  0  0  0  0
  192.7120  176.7930  143.5460 O   0  0  0  0  0  0  0  0  0  0  0  0
  193.8610  175.9950  143.5530 C   0  0  0  0  0  2  0  0  0  0  0  0
  196.1180  176.6460  144.0210 O   0  0  0  0  0  1  0  0  0  0  0  0
  194.8560  176.4870  144.5950 C   0  0  2  0  0  3  0  0  0  0  0  0
  194.9360  175.5210  145.7600 C   0  0  0  0  0  1  0  0  0  0  0  0
  190.2620  173.5030  141.6810 C   0  0  0  0  0  2  0  0  0  0  0  0
  188.8390  173.7610  141.5310 N   0  0  0  0  0  2  0  0  0  0  0  0
  188.6730  174.4140  140.3030 N   0  0  0  0  0  2  0  0  0  0  0  0
  188.0710  172.4590  139.1830 O   0  0  0  0  0  0  0  0  0  0  0  0
  188.2730  173.7010  139.1350 C   0  0  0  0  0  0  0  0  0  0  0  0
  188.0860  174.4310  137.8550 C   0  0  0  0  0  1  0  0  0  0  0  0
  1 13  1  0  0  0  0
  2  9  2  0  0  0  0
  2 13  1  0  0  0  0
  3  7  1  0  0  0  0
  4  1  1  6  0  0  0
  4  8  1  0  0  0  0
  4 14  1  0  0  0  0
  5 17  1  0  0  0  0
  6  5  1  0  0  0  0
  6 20  1  1  0  0  0
  6  4  1  0  0  0  0
  9 12  1  0  0  0  0
 10  2  1  0  0  0  0
 11  3  1  6  0  0  0
 12 18  2  0  0  0  0
 13 19  2  0  0  0  0
 14 11  1  0  0  0  0
 14 16  1  1  0  0  0
 15  7  1  0  0  0  0
 16 15  2  0  0  0  0
 17 25  1  6  0  0  0
 17  8  1  0  0  0  0
 19 18  1  0  0  0  0
 19 11  1  0  0  0  0
 20 21  1  0  0  0  0
 21 23  1  0  0  0  0
 22 23  1  0  0  0  0
 23 24  1  1  0  0  0
 26 25  1  0  0  0  0
 27 26  1  0  0  0  0
 29 28  2  0  0  0  0
 29 27  1  0  0  0  0
 30 29  1  0  0  0  0
M  END
>  <MODEL>
3

>  <REMARK>
 VINA RESULT:      -7.3      2.513      5.611
  Name = 
  6 active torsions:
  status: ('A' for Active; 'I' for Inactive)
    1  A    between atoms: N_7  and  N_16
    2  A    between atoms: C_8  and  O_12
    3  A    between atoms: C_9  and  O_12
    4  A    between atoms: C_9  and  C_17
    5  A    between atoms: N_16  and  C_30
    6  A    between atoms: C_27  and  C_30
                            x       y       z     vdW  Elec       q    Type
                         _______ _______ _______ _____ _____    ______ ____

>  <TORSDO>
F 6

$$$$
=
 OpenBabel11052417173D

 30 33  0  0  1  0  0  0  0  0999 V2000
  188.3550  177.5180  143.5530 O   0  0  0  0  0  0  0  0  0  0  0  0
  186.3060  178.7450  143.9490 C   0  0  0  0  0  0  0  0  0  0  0  0
  188.1750  175.5560  146.7900 C   0  0  0  0  0  2  0  0  0  0  0  0
  189.3480  176.5630  143.9270 C   0  0  2  0  0  0  0  0  0  0  0  0
  190.7610  175.2340  142.5440 C   0  0  0  0  0  2  0  0  0  0  0  0
  190.4770  176.6550  142.8990 C   0  0  2  0  0  3  0  0  0  0  0  0
  189.3240  174.8610  147.5020 C   0  0  0  0  0  2  0  0  0  0  0  0
  188.7820  175.2700  143.8570 O   0  0  0  0  0  0  0  0  0  0  0  0
  185.3400  179.2400  144.8290 C   0  0  0  0  0  3  0  0  0  0  0  0
  186.1920  179.0010  142.5880 O   0  0  0  0  0  1  0  0  0  0  0  0
  188.6370  176.9450  146.3690 C   0  0  1  0  0  3  0  0  0  0  0  0
  185.4470  178.9930  146.1990 C   0  0  0  0  0  3  0  0  0  0  0  0
  187.3820  177.9930  144.4390 C   0  0  0  0  0  0  0  0  0  0  0  0
  189.8210  176.8330  145.3800 C   0  0  1  0  0  3  0  0  0  0  0  0
  190.5960  174.9360  146.6990 C   0  0  0  0  0  3  0  0  0  0  0  0
  190.8030  175.8400  145.8000 N   0  0  0  0  0  0  0  0  0  0  0  0
  189.4530  174.5500  142.8480 C   0  0  1  0  0  3  0  0  0  0  0  0
  186.5210  178.2480  146.6930 C   0  0  0  0  0  3  0  0  0  0  0  0
  187.4920  177.7460  145.8190 C   0  0  0  0  0  0  0  0  0  0  0  0
  191.6260  177.2880  143.3880 O   0  0  0  0  0  0  0  0  0  0  0  0
  192.6920  176.5690  142.8370 C   0  0  0  0  0  2  0  0  0  0  0  0
  193.7180  177.1850  144.9130 O   0  0  0  0  0  1  0  0  0  0  0  0
  193.7190  176.2180  143.9060 C   0  0  2  0  0  3  0  0  0  0  0  0
  195.1040  176.1010  143.3030 C   0  0  0  0  0  1  0  0  0  0  0  0
  188.5950  174.4820  141.5880 C   0  0  0  0  0  2  0  0  0  0  0  0
  188.1370  173.1210  141.3570 N   0  0  0  0  0  2  0  0  0  0  0  0
  189.0060  172.2770  142.0590 N   0  0  0  0  0  2  0  0  0  0  0  0
  190.0840  171.5410  140.1260 O   0  0  0  0  0  0  0  0  0  0  0  0
  189.9870  171.4960  141.3810 C   0  0  0  0  0  0  0  0  0  0  0  0
  190.9060  170.6280  142.1620 C   0  0  0  0  0  1  0  0  0  0  0  0
  1 13  1  0  0  0  0
  2 13  2  0  0  0  0
  2  9  1  0  0  0  0
  3  7  1  0  0  0  0
  4  1  1  6  0  0  0
  4 14  1  0  0  0  0
  5 17  1  0  0  0  0
  5  6  1  0  0  0  0
  6 20  1  1  0  0  0
  6  4  1  0  0  0  0
  8  4  1  0  0  0  0
  9 12  2  0  0  0  0
 10  2  1  0  0  0  0
 11  3  1  6  0  0  0
 12 18  1  0  0  0  0
 13 19  1  0  0  0  0
 14 16  1  1  0  0  0
 14 11  1  0  0  0  0
 15  7  1  0  0  0  0
 16 15  2  0  0  0  0
 17 25  1  6  0  0  0
 17  8  1  0  0  0  0
 19 11  1  0  0  0  0
 19 18  2  0  0  0  0
 21 20  1  0  0  0  0
 21 23  1  0  0  0  0
 23 24  1  6  0  0  0
 23 22  1  0  0  0  0
 26 25  1  0  0  0  0
 26 27  1  0  0  0  0
 28 29  2  0  0  0  0
 29 27  1  0  0  0  0
 29 30  1  0  0  0  0
M  END
>  <MODEL>
4

>  <REMARK>
 VINA RESULT:      -7.0      2.336      4.932
  Name = 
  6 active torsions:
  status: ('A' for Active; 'I' for Inactive)
    1  A    between atoms: N_7  and  N_16
    2  A    between atoms: C_8  and  O_12
    3  A    between atoms: C_9  and  O_12
    4  A    between atoms: C_9  and  C_17
    5  A    between atoms: N_16  and  C_30
    6  A    between atoms: C_27  and  C_30
                            x       y       z     vdW  Elec       q    Type
                         _______ _______ _______ _____ _____    ______ ____

>  <TORSDO>
F 6

$$$$
=
 OpenBabel11052417173D

 30 33  0  0  1  0  0  0  0  0999 V2000
  189.4170  176.8990  142.6970 O   0  0  0  0  0  0  0  0  0  0  0  0
  187.3650  178.1010  142.2420 C   0  0  0  0  0  0  0  0  0  0  0  0
  188.3720  175.7950  146.1670 C   0  0  0  0  0  2  0  0  0  0  0  0
  190.2590  176.1080  143.5350 C   0  0  2  0  0  0  0  0  0  0  0  0
  191.9450  174.5370  142.9310 C   0  0  0  0  0  2  0  0  0  0  0  0
  191.6150  175.9890  142.8360 C   0  0  2  0  0  3  0  0  0  0  0  0
  189.2840  175.3460  147.2970 C   0  0  0  0  0  2  0  0  0  0  0  0
  189.6980  174.8160  143.6500 O   0  0  0  0  0  0  0  0  0  0  0  0
  186.2190  178.7580  142.6980 C   0  0  0  0  0  3  0  0  0  0  0  0
  187.6070  178.0060  140.8780 O   0  0  0  0  0  1  0  0  0  0  0  0
  188.9600  177.0540  145.5430 C   0  0  1  0  0  3  0  0  0  0  0  0
  185.9680  178.8630  144.0680 C   0  0  0  0  0  3  0  0  0  0  0  0
  188.2620  177.5380  143.1600 C   0  0  0  0  0  0  0  0  0  0  0  0
  190.3520  176.7490  144.9450 C   0  0  1  0  0  3  0  0  0  0  0  0
  190.7210  175.2710  146.8480 C   0  0  0  0  0  3  0  0  0  0  0  0
  191.1710  175.9330  145.8330 N   0  0  0  0  0  0  0  0  0  0  0  0
  190.5870  173.8960  143.0570 C   0  0  1  0  0  3  0  0  0  0  0  0
  186.8630  178.3080  144.9860 C   0  0  0  0  0  3  0  0  0  0  0  0
  188.0120  177.6460  144.5400 C   0  0  0  0  0  0  0  0  0  0  0  0
  192.6160  176.7700  143.4250 O   0  0  0  0  0  0  0  0  0  0  0  0
  193.7430  175.9420  143.4560 C   0  0  0  0  0  2  0  0  0  0  0  0
  195.9640  176.6400  144.0190 O   0  0  0  0  0  1  0  0  0  0  0  0
  194.7040  176.3750  144.5550 C   0  0  2  0  0  3  0  0  0  0  0  0
  194.8110  175.3080  145.6260 C   0  0  0  0  0  1  0  0  0  0  0  0
  190.0760  173.4830  141.6790 C   0  0  0  0  0  2  0  0  0  0  0  0
  189.3390  172.2320  141.7630 N   0  0  0  0  0  2  0  0  0  0  0  0
  190.1950  171.2980  142.3620 N   0  0  0  0  0  2  0  0  0  0  0  0
  190.6510  170.2120  140.3490 O   0  0  0  0  0  0  0  0  0  0  0  0
  190.8440  170.2900  141.5910 C   0  0  0  0  0  0  0  0  0  0  0  0
  191.7620  169.3310  142.2580 C   0  0  0  0  0  1  0  0  0  0  0  0
  1 13  1  0  0  0  0
  2  9  2  0  0  0  0
  2 13  1  0  0  0  0
  3  7  1  0  0  0  0
  4  1  1  6  0  0  0
  4  8  1  0  0  0  0
  4 14  1  0  0  0  0
  5 17  1  0  0  0  0
  6  5  1  0  0  0  0
  6 20  1  1  0  0  0
  6  4  1  0  0  0  0
  9 12  1  0  0  0  0
 10  2  1  0  0  0  0
 11  3  1  6  0  0  0
 12 18  2  0  0  0  0
 13 19  2  0  0  0  0
 14 11  1  0  0  0  0
 14 16  1  1  0  0  0
 15  7  1  0  0  0  0
 16 15  2  0  0  0  0
 17 25  1  6  0  0  0
 17  8  1  0  0  0  0
 19 18  1  0  0  0  0
 19 11  1  0  0  0  0
 20 21  1  0  0  0  0
 21 23  1  0  0  0  0
 22 23  1  0  0  0  0
 23 24  1  1  0  0  0
 25 26  1  0  0  0  0
 26 27  1  0  0  0  0
 28 29  2  0  0  0  0
 29 30  1  0  0  0  0
 29 27  1  0  0  0  0
M  END
>  <MODEL>
5

>  <REMARK>
 VINA RESULT:      -6.9      2.628      5.367
  Name = 
  6 active torsions:
  status: ('A' for Active; 'I' for Inactive)
    1  A    between atoms: N_7  and  N_16
    2  A    between atoms: C_8  and  O_12
    3  A    between atoms: C_9  and  O_12
    4  A    between atoms: C_9  and  C_17
    5  A    between atoms: N_16  and  C_30
    6  A    between atoms: C_27  and  C_30
                            x       y       z     vdW  Elec       q    Type
                         _______ _______ _______ _____ _____    ______ ____

>  <TORSDO>
F 6

$$$$
=
 OpenBabel11052417173D

 30 33  0  0  1  0  0  0  0  0999 V2000
  189.0880  174.3770  143.8360 O   0  0  0  0  0  0  0  0  0  0  0  0
  189.4970  172.3240  142.6190 C   0  0  0  0  0  0  0  0  0  0  0  0
  192.6870  174.8080  144.9410 C   0  0  0  0  0  2  0  0  0  0  0  0
  189.5170  175.4760  144.6390 C   0  0  2  0  0  0  0  0  0  0  0  0
  188.6150  177.6760  144.7950 C   0  0  0  0  0  2  0  0  0  0  0  0
  188.2640  176.2500  145.0570 C   0  0  2  0  0  3  0  0  0  0  0  0
  193.1910  175.6430  146.1070 C   0  0  0  0  0  2  0  0  0  0  0  0
  190.3270  176.3240  143.8520 O   0  0  0  0  0  0  0  0  0  0  0  0
  190.2740  171.1860  142.3900 C   0  0  0  0  0  3  0  0  0  0  0  0
  188.3440  172.5310  141.8740 O   0  0  0  0  0  1  0  0  0  0  0  0
  191.4810  174.0040  145.4080 C   0  0  1  0  0  3  0  0  0  0  0  0
  191.4330  170.9650  143.1370 C   0  0  0  0  0  3  0  0  0  0  0  0
  189.8820  173.2500  143.5980 C   0  0  0  0  0  0  0  0  0  0  0  0
  190.3450  174.9570  145.8450 C   0  0  1  0  0  3  0  0  0  0  0  0
  192.0720  176.4160  146.7550 C   0  0  0  0  0  3  0  0  0  0  0  0
  190.8320  176.0660  146.6560 N   0  0  0  0  0  0  0  0  0  0  0  0
  189.6700  177.5650  143.7240 C   0  0  1  0  0  3  0  0  0  0  0  0
  191.8190  171.8830  144.1160 C   0  0  0  0  0  3  0  0  0  0  0  0
  191.0480  173.0270  144.3530 C   0  0  0  0  0  0  0  0  0  0  0  0
  187.9130  176.0590  146.3990 O   0  0  0  0  0  0  0  0  0  0  0  0
  187.4120  177.2970  146.8160 C   0  0  0  0  0  2  0  0  0  0  0  0
  185.2090  176.6380  146.1430 O   0  0  0  0  0  1  0  0  0  0  0  0
  185.9420  177.1860  147.1970 C   0  0  2  0  0  3  0  0  0  0  0  0
  185.3780  178.5430  147.5670 C   0  0  0  0  0  1  0  0  0  0  0  0
  189.0250  177.6800  142.3450 C   0  0  0  0  0  2  0  0  0  0  0  0
  188.0500  178.7590  142.3280 N   0  0  0  0  0  2  0  0  0  0  0  0
  186.8110  178.1780  142.0280 N   0  0  0  0  0  2  0  0  0  0  0  0
  185.6870  179.3800  143.6810 O   0  0  0  0  0  0  0  0  0  0  0  0
  185.6330  178.5370  142.7470 C   0  0  0  0  0  0  0  0  0  0  0  0
  184.3320  177.9160  142.3860 C   0  0  0  0  0  1  0  0  0  0  0  0
  2 13  1  0  0  0  0
  3  7  1  0  0  0  0
  4  1  1  6  0  0  0
  4  6  1  0  0  0  0
  4 14  1  0  0  0  0
  5  6  1  0  0  0  0
  6 20  1  1  0  0  0
  7 15  1  0  0  0  0
  8  4  1  0  0  0  0
  9  2  2  0  0  0  0
  9 12  1  0  0  0  0
 10  2  1  0  0  0  0
 11  3  1  6  0  0  0
 11 14  1  0  0  0  0
 12 18  2  0  0  0  0
 13  1  1  0  0  0  0
 13 19  2  0  0  0  0
 14 16  1  6  0  0  0
 16 15  2  0  0  0  0
 17 25  1  6  0  0  0
 17  8  1  0  0  0  0
 17  5  1  0  0  0  0
 18 19  1  0  0  0  0
 19 11  1  0  0  0  0
 20 21  1  0  0  0  0
 21 23  1  0  0  0  0
 22 23  1  0  0  0  0
 23 24  1  6  0  0  0
 26 25  1  0  0  0  0
 27 26  1  0  0  0  0
 27 29  1  0  0  0  0
 29 28  2  0  0  0  0
 30 29  1  0  0  0  0
M  END
>  <MODEL>
6

>  <REMARK>
 VINA RESULT:      -6.8      1.820      6.916
  Name = 
  6 active torsions:
  status: ('A' for Active; 'I' for Inactive)
    1  A    between atoms: N_7  and  N_16
    2  A    between atoms: C_8  and  O_12
    3  A    between atoms: C_9  and  O_12
    4  A    between atoms: C_9  and  C_17
    5  A    between atoms: N_16  and  C_30
    6  A    between atoms: C_27  and  C_30
                            x       y       z     vdW  Elec       q    Type
                         _______ _______ _______ _____ _____    ______ ____

>  <TORSDO>
F 6

$$$$
=
 OpenBabel11052417173D

 30 33  0  0  1  0  0  0  0  0999 V2000
  187.7510  175.0280  143.0040 O   0  0  0  0  0  0  0  0  0  0  0  0
  188.4610  172.8230  142.3000 C   0  0  0  0  0  0  0  0  0  0  0  0
  191.2200  176.5430  142.8390 C   0  0  0  0  0  2  0  0  0  0  0  0
  188.0070  176.3940  143.3290 C   0  0  2  0  0  0  0  0  0  0  0  0
  186.5630  178.2820  143.1670 C   0  0  0  0  0  2  0  0  0  0  0  0
  186.7070  176.9820  143.8830 C   0  0  2  0  0  3  0  0  0  0  0  0
  191.7030  177.8000  143.5430 C   0  0  0  0  0  2  0  0  0  0  0  0
  188.3430  177.0870  142.1440 O   0  0  0  0  0  0  0  0  0  0  0  0
  189.4650  171.8630  142.1550 C   0  0  0  0  0  3  0  0  0  0  0  0
  187.1630  172.5280  141.9030 O   0  0  0  0  0  1  0  0  0  0  0  0
  190.4320  175.7030  143.8350 C   0  0  1  0  0  3  0  0  0  0  0  0
  190.7720  172.1480  142.5540 C   0  0  0  0  0  3  0  0  0  0  0  0
  188.7650  174.0790  142.8430 C   0  0  0  0  0  0  0  0  0  0  0  0
  189.1930  176.4860  144.3260 C   0  0  1  0  0  3  0  0  0  0  0  0
  190.5790  178.4910  144.2690 C   0  0  0  0  0  3  0  0  0  0  0  0
  189.5030  177.8770  144.6380 N   0  0  0  0  0  0  0  0  0  0  0  0
  187.3430  178.0490  141.8980 C   0  0  1  0  0  3  0  0  0  0  0  0
  191.0790  173.3960  143.1010 C   0  0  0  0  0  3  0  0  0  0  0  0
  190.0810  174.3660  143.2490 C   0  0  0  0  0  0  0  0  0  0  0  0
  186.7290  177.1740  145.2700 O   0  0  0  0  0  0  0  0  0  0  0  0
  185.4440  176.8260  145.6980 C   0  0  0  0  0  2  0  0  0  0  0  0
  184.0200  178.7510  145.7790 O   0  0  0  0  0  1  0  0  0  0  0  0
  184.8400  177.9310  146.5550 C   0  0  2  0  0  3  0  0  0  0  0  0
  185.9290  178.7590  147.2090 C   0  0  0  0  0  1  0  0  0  0  0  0
  186.4080  177.5670  140.7930 C   0  0  0  0  0  2  0  0  0  0  0  0
  187.1000  176.6470  139.9050 N   0  0  0  0  0  2  0  0  0  0  0  0
  186.5580  176.8330  138.6270 N   0  0  0  0  0  2  0  0  0  0  0  0
  187.5990  174.9380  137.7530 O   0  0  0  0  0  0  0  0  0  0  0  0
  186.8410  175.9260  137.5650 C   0  0  0  0  0  0  0  0  0  0  0  0
  186.2300  176.1430  136.2280 C   0  0  0  0  0  1  0  0  0  0  0  0
  1  4  1  0  0  0  0
  2 13  1  0  0  0  0
  3  7  1  0  0  0  0
  4  8  1  6  0  0  0
  4  6  1  0  0  0  0
  4 14  1  0  0  0  0
  5  6  1  0  0  0  0
  6 20  1  1  0  0  0
  7 15  1  0  0  0  0
  9  2  2  0  0  0  0
  9 12  1  0  0  0  0
 10  2  1  0  0  0  0
 11  3  1  6  0  0  0
 11 14  1  0  0  0  0
 12 18  2  0  0  0  0
 13  1  1  0  0  0  0
 13 19  2  0  0  0  0
 14 16  1  6  0  0  0
 15 16  2  0  0  0  0
 17 25  1  6  0  0  0
 17  8  1  0  0  0  0
 17  5  1  0  0  0  0
 18 19  1  0  0  0  0
 19 11  1  0  0  0  0
 20 21  1  0  0  0  0
 21 23  1  0  0  0  0
 22 23  1  0  0  0  0
 23 24  1  6  0  0  0
 26 25  1  0  0  0  0
 27 26  1  0  0  0  0
 29 28  2  0  0  0  0
 29 27  1  0  0  0  0
 30 29  1  0  0  0  0
M  END
>  <MODEL>
7

>  <REMARK>
 VINA RESULT:      -6.8      1.997      6.867
  Name = 
  6 active torsions:
  status: ('A' for Active; 'I' for Inactive)
    1  A    between atoms: N_7  and  N_16
    2  A    between atoms: C_8  and  O_12
    3  A    between atoms: C_9  and  O_12
    4  A    between atoms: C_9  and  C_17
    5  A    between atoms: N_16  and  C_30
    6  A    between atoms: C_27  and  C_30
                            x       y       z     vdW  Elec       q    Type
                         _______ _______ _______ _____ _____    ______ ____

>  <TORSDO>
F 6

$$$$
=
 OpenBabel11052417173D

 30 33  0  0  1  0  0  0  0  0999 V2000
  189.9350  174.6620  144.2670 O   0  0  0  0  0  0  0  0  0  0  0  0
  189.8920  172.3590  143.5210 C   0  0  0  0  0  0  0  0  0  0  0  0
  187.6670  175.9280  141.5080 C   0  0  0  0  0  2  0  0  0  0  0  0
  189.5600  176.0340  144.1520 C   0  0  2  0  0  0  0  0  0  0  0  0
  189.3540  177.6910  145.8510 C   0  0  0  0  0  2  0  0  0  0  0  0
  190.3660  176.8150  145.1930 C   0  0  2  0  0  3  0  0  0  0  0  0
  187.5390  177.3590  141.0150 C   0  0  0  0  0  2  0  0  0  0  0  0
  188.1880  176.1570  144.4630 O   0  0  0  0  0  0  0  0  0  0  0  0
  189.6920  171.4160  142.5100 C   0  0  0  0  0  3  0  0  0  0  0  0
  190.2660  171.9370  144.7910 O   0  0  0  0  0  1  0  0  0  0  0  0
  189.1470  175.5970  141.6510 C   0  0  1  0  0  3  0  0  0  0  0  0
  189.3200  171.8300  141.2290 C   0  0  0  0  0  3  0  0  0  0  0  0
  189.7130  173.7230  143.2540 C   0  0  0  0  0  0  0  0  0  0  0  0
  189.7990  176.5270  142.6990 C   0  0  1  0  0  3  0  0  0  0  0  0
  188.3650  178.3040  141.8480 C   0  0  0  0  0  3  0  0  0  0  0  0
  189.3800  177.9150  142.5470 N   0  0  0  0  0  0  0  0  0  0  0  0
  188.0690  176.9350  145.6320 C   0  0  1  0  0  3  0  0  0  0  0  0
  189.1460  173.1890  140.9560 C   0  0  0  0  0  3  0  0  0  0  0  0
  189.3420  174.1410  141.9630 C   0  0  0  0  0  0  0  0  0  0  0  0
  191.4030  177.5750  144.6400 O   0  0  0  0  0  0  0  0  0  0  0  0
  192.5440  176.7780  144.7780 C   0  0  0  0  0  2  0  0  0  0  0  0
  193.8460  177.1450  146.7550 O   0  0  0  0  0  1  0  0  0  0  0  0
  192.7760  176.4140  146.2390 C   0  0  2  0  0  3  0  0  0  0  0  0
  193.0460  174.9290  146.3860 C   0  0  0  0  0  1  0  0  0  0  0  0
  187.7790  176.0400  146.8340 C   0  0  0  0  0  2  0  0  0  0  0  0
  186.6990  176.5960  147.6340 N   0  0  0  0  0  2  0  0  0  0  0  0
  185.6910  176.9800  146.7400 N   0  0  0  0  0  2  0  0  0  0  0  0
  185.5140  179.1260  147.6380 O   0  0  0  0  0  0  0  0  0  0  0  0
  185.1240  178.2880  146.7820 C   0  0  0  0  0  0  0  0  0  0  0  0
  184.0720  178.6660  145.8040 C   0  0  0  0  0  1  0  0  0  0  0  0
  2 10  1  0  0  0  0
  4  1  1  1  0  0  0
  4  8  1  0  0  0  0
  4  6  1  0  0  0  0
  6 20  1  6  0  0  0
  6  5  1  0  0  0  0
  7  3  1  0  0  0  0
  7 15  1  0  0  0  0
  8 17  1  0  0  0  0
  9  2  2  0  0  0  0
 11  3  1  1  0  0  0
 11 19  1  0  0  0  0
 11 14  1  0  0  0  0
 12  9  1  0  0  0  0
 13  2  1  0  0  0  0
 13  1  1  0  0  0  0
 14 16  1  1  0  0  0
 14  4  1  0  0  0  0
 15 16  2  0  0  0  0
 17  5  1  0  0  0  0
 17 25  1  1  0  0  0
 18 12  2  0  0  0  0
 18 19  1  0  0  0  0
 19 13  2  0  0  0  0
 20 21  1  0  0  0  0
 21 23  1  0  0  0  0
 23 24  1  6  0  0  0
 23 22  1  0  0  0  0
 25 26  1  0  0  0  0
 27 29  1  0  0  0  0
 27 26  1  0  0  0  0
 29 28  2  0  0  0  0
 30 29  1  0  0  0  0
M  END
>  <MODEL>
8

>  <REMARK>
 VINA RESULT:      -6.6      2.259      5.682
  Name = 
  6 active torsions:
  status: ('A' for Active; 'I' for Inactive)
    1  A    between atoms: N_7  and  N_16
    2  A    between atoms: C_8  and  O_12
    3  A    between atoms: C_9  and  O_12
    4  A    between atoms: C_9  and  C_17
    5  A    between atoms: N_16  and  C_30
    6  A    between atoms: C_27  and  C_30
                            x       y       z     vdW  Elec       q    Type
                         _______ _______ _______ _____ _____    ______ ____

>  <TORSDO>
F 6

$$$$
=
 OpenBabel11052417173D

 30 33  0  0  1  0  0  0  0  0999 V2000
  191.9030  175.2470  143.1390 O   0  0  0  0  0  0  0  0  0  0  0  0
  194.2700  175.6980  142.9050 C   0  0  0  0  0  0  0  0  0  0  0  0
  191.8100  175.9740  146.8560 C   0  0  0  0  0  2  0  0  0  0  0  0
  190.7050  175.1470  143.9090 C   0  0  2  0  0  0  0  0  0  0  0  0
  188.4410  175.4320  143.2260 C   0  0  0  0  0  2  0  0  0  0  0  0
  189.6270  174.5550  143.0000 C   0  0  2  0  0  3  0  0  0  0  0  0
  190.7610  175.5080  147.8530 C   0  0  0  0  0  2  0  0  0  0  0  0
  190.3040  176.4460  144.2940 O   0  0  0  0  0  0  0  0  0  0  0  0
  195.5440  175.8050  143.4680 C   0  0  0  0  0  3  0  0  0  0  0  0
  194.0980  175.9170  141.5450 O   0  0  0  0  0  1  0  0  0  0  0  0
  192.1970  174.7940  145.9750 C   0  0  1  0  0  3  0  0  0  0  0  0
  195.7290  175.5830  144.8340 C   0  0  0  0  0  3  0  0  0  0  0  0
  193.1720  175.3730  143.7130 C   0  0  0  0  0  0  0  0  0  0  0  0
  190.9660  174.2970  145.1820 C   0  0  1  0  0  3  0  0  0  0  0  0
  189.6360  174.7780  147.1670 C   0  0  0  0  0  3  0  0  0  0  0  0
  189.7670  174.2200  146.0090 N   0  0  0  0  0  0  0  0  0  0  0  0
  189.0670  176.7260  143.6790 C   0  0  1  0  0  3  0  0  0  0  0  0
  194.6380  175.2540  145.6430 C   0  0  0  0  0  3  0  0  0  0  0  0
  193.3570  175.1460  145.0890 C   0  0  0  0  0  0  0  0  0  0  0  0
  189.3250  173.2190  143.2900 O   0  0  0  0  0  0  0  0  0  0  0  0
  188.5940  172.7710  142.1850 C   0  0  0  0  0  2  0  0  0  0  0  0
  188.7020  172.6490  139.7950 O   0  0  0  0  0  1  0  0  0  0  0  0
  189.4820  172.6720  140.9520 C   0  0  2  0  0  3  0  0  0  0  0  0
  190.3510  171.4310  141.0130 C   0  0  0  0  0  1  0  0  0  0  0  0
  189.2700  177.6520  142.4830 C   0  0  0  0  0  2  0  0  0  0  0  0
  187.9890  178.0140  141.8970 N   0  0  0  0  0  2  0  0  0  0  0  0
  187.2720  178.7000  142.8860 N   0  0  0  0  0  2  0  0  0  0  0  0
  185.2060  178.2510  141.9010 O   0  0  0  0  0  0  0  0  0  0  0  0
  185.8500  178.7850  142.8430 C   0  0  0  0  0  0  0  0  0  0  0  0
  185.1220  179.5020  143.9220 C   0  0  0  0  0  1  0  0  0  0  0  0
  1 13  1  0  0  0  0
  2  9  2  0  0  0  0
  2 13  1  0  0  0  0
  3  7  1  0  0  0  0
  4  1  1  6  0  0  0
  4  8  1  0  0  0  0
  4 14  1  0  0  0  0
  5 17  1  0  0  0  0
  6  5  1  0  0  0  0
  6 20  1  1  0  0  0
  6  4  1  0  0  0  0
  9 12  1  0  0  0  0
 10  2  1  0  0  0  0
 11  3  1  6  0  0  0
 12 18  2  0  0  0  0
 13 19  2  0  0  0  0
 14 11  1  0  0  0  0
 14 16  1  1  0  0  0
 15  7  1  0  0  0  0
 16 15  2  0  0  0  0
 17 25  1  6  0  0  0
 17  8  1  0  0  0  0
 19 18  1  0  0  0  0
 19 11  1  0  0  0  0
 21 20  1  0  0  0  0
 22 23  1  0  0  0  0
 23 24  1  1  0  0  0
 23 21  1  0  0  0  0
 26 25  1  0  0  0  0
 26 27  1  0  0  0  0
 28 29  2  0  0  0  0
 29 27  1  0  0  0  0
 29 30  1  0  0  0  0
M  END
>  <MODEL>
9

>  <REMARK>
 VINA RESULT:      -6.6      2.586      6.723
  Name = 
  6 active torsions:
  status: ('A' for Active; 'I' for Inactive)
    1  A    between atoms: N_7  and  N_16
    2  A    between atoms: C_8  and  O_12
    3  A    between atoms: C_9  and  O_12
    4  A    between atoms: C_9  and  C_17
    5  A    between atoms: N_16  and  C_30
    6  A    between atoms: C_27  and  C_30
                            x       y       z     vdW  Elec       q    Type
                         _______ _______ _______ _____ _____    ______ ____

>  <TORSDO>
F 6

$$$$
