=
 OpenBabel11052417383D

 25 28  0  0  1  0  0  0  0  0999 V2000
  187.1080  177.7290  143.3260 C   0  0  2  0  0  3  0  0  0  0  0  0
  187.6950  176.3170  143.4970 C   0  0  1  0  0  3  0  0  0  0  0  0
  186.7210  177.1710  140.9750 N   0  0  0  0  0  0  0  0  0  0  0  0
  186.0150  178.0890  144.2720 C   0  0  0  0  0  0  0  0  0  0  0  0
  183.7760  179.0180  145.6290 C   0  0  0  0  0  3  0  0  0  0  0  0
  187.8410  176.2740  141.0210 C   0  0  0  0  0  3  0  0  0  0  0  0
  184.9020  178.5100  143.5700 C   0  0  0  0  0  0  0  0  0  0  0  0
  183.7620  178.9730  144.2260 C   0  0  0  0  0  3  0  0  0  0  0  0
  184.9180  178.6120  146.3450 C   0  0  0  0  0  3  0  0  0  0  0  0
  186.3540  177.8240  142.0330 C   0  0  0  0  0  0  0  0  0  0  0  0
  185.0540  178.3930  142.1630 N   0  0  0  0  0  2  0  0  0  0  0  0
  186.0560  178.1510  145.6660 C   0  0  0  0  0  3  0  0  0  0  0  0
  188.3550  175.8540  142.1920 C   0  0  0  0  0  0  0  0  0  0  0  0
  188.6260  176.3020  144.6770 C   0  0  0  0  0  0  0  0  0  0  0  0
  190.4610  177.2550  145.9470 C   0  0  0  0  0  3  0  0  0  0  0  0
  188.4930  175.2940  145.6370 C   0  0  0  0  0  3  0  0  0  0  0  0
  189.3400  175.2640  146.7470 C   0  0  0  0  0  3  0  0  0  0  0  0
  189.6130  177.2860  144.8360 C   0  0  0  0  0  3  0  0  0  0  0  0
  190.3310  176.2440  146.9080 C   0  0  0  0  0  0  0  0  0  0  0  0
  191.2270  176.2170  148.0760 C   0  0  0  0  0  0  0  0  0  0  0  0
  191.6140  177.4020  148.6910 O   0  0  0  0  0  1  0  0  0  0  0  0
  191.6510  175.1200  148.5300 O   0  0  0  0  0  0  0  0  0  0  0  0
  189.4160  174.8190  142.1560 C   0  0  0  0  0  0  0  0  0  0  0  0
  190.6310  175.1440  142.1060 O   0  0  0  0  0  0  0  0  0  0  0  0
  189.0730  173.4370  142.2020 N   0  0  0  0  0  1  0  0  0  0  0  0
  1 10  1  6  0  0  0
  1  2  1  0  0  0  0
  1  4  1  0  0  0  0
  2 14  1  1  0  0  0
  3  6  1  0  0  0  0
  3 10  2  0  0  0  0
  4 12  1  0  0  0  0
  5  9  1  0  0  0  0
  6 13  2  0  0  0  0
  7  8  1  0  0  0  0
  7  4  2  0  0  0  0
  8  5  2  0  0  0  0
 10 11  1  0  0  0  0
 11  7  1  0  0  0  0
 12  9  2  0  0  0  0
 13  2  1  0  0  0  0
 14 18  2  0  0  0  0
 14 16  1  0  0  0  0
 15 19  2  0  0  0  0
 16 17  2  0  0  0  0
 17 19  1  0  0  0  0
 18 15  1  0  0  0  0
 19 20  1  0  0  0  0
 20 22  2  0  0  0  0
 20 21  1  0  0  0  0
 23 13  1  0  0  0  0
 23 25  1  0  0  0  0
 24 23  2  0  0  0  0
M  END
>  <MODEL>
1

>  <REMARK>
 VINA RESULT:      -7.5      0.000      0.000
  Name = 
  3 active torsions:
  status: ('A' for Active; 'I' for Inactive)
    1  A    between atoms: C_2  and  C_25
    2  A    between atoms: C_3  and  C_6
    3  A    between atoms: C_13  and  C_24
                            x       y       z     vdW  Elec       q    Type
                         _______ _______ _______ _____ _____    ______ ____

>  <TORSDO>
F 3

$$$$
=
 OpenBabel11052417383D

 25 28  0  0  1  0  0  0  0  0999 V2000
  185.5940  177.4600  144.0410 C   0  0  2  0  0  3  0  0  0  0  0  0
  186.3920  178.2430  145.0980 C   0  0  1  0  0  3  0  0  0  0  0  0
  183.6370  178.7770  144.6920 N   0  0  0  0  0  0  0  0  0  0  0  0
  186.1660  177.4690  142.6660 C   0  0  0  0  0  0  0  0  0  0  0  0
  186.7350  177.5010  139.9470 C   0  0  0  0  0  3  0  0  0  0  0  0
  184.1830  178.9040  146.0140 C   0  0  0  0  0  3  0  0  0  0  0  0
  185.2170  177.9080  141.7620 C   0  0  0  0  0  0  0  0  0  0  0  0
  185.4800  177.9430  140.3940 C   0  0  0  0  0  3  0  0  0  0  0  0
  187.6940  177.0310  140.8640 C   0  0  0  0  0  3  0  0  0  0  0  0
  184.2870  178.1420  143.7680 C   0  0  0  0  0  0  0  0  0  0  0  0
  184.0090  178.3220  142.3810 N   0  0  0  0  0  2  0  0  0  0  0  0
  187.4100  177.0020  142.2380 C   0  0  0  0  0  3  0  0  0  0  0  0
  185.4800  178.6430  146.2650 C   0  0  0  0  0  0  0  0  0  0  0  0
  187.5870  177.4360  145.5220 C   0  0  0  0  0  0  0  0  0  0  0  0
  188.5670  175.4320  146.4770 C   0  0  0  0  0  3  0  0  0  0  0  0
  188.8680  177.9600  145.3220 C   0  0  0  0  0  3  0  0  0  0  0  0
  189.9950  177.2250  145.7000 C   0  0  0  0  0  3  0  0  0  0  0  0
  187.4390  176.1660  146.1000 C   0  0  0  0  0  3  0  0  0  0  0  0
  189.8510  175.9560  146.2810 C   0  0  0  0  0  0  0  0  0  0  0  0
  191.0350  175.1780  146.6810 C   0  0  0  0  0  0  0  0  0  0  0  0
  191.4860  175.2140  147.9950 O   0  0  0  0  0  1  0  0  0  0  0  0
  191.6490  174.4720  145.8370 O   0  0  0  0  0  0  0  0  0  0  0  0
  186.0000  178.9350  147.6220 C   0  0  0  0  0  0  0  0  0  0  0  0
  186.0710  178.0290  148.4930 O   0  0  0  0  0  0  0  0  0  0  0  0
  186.4500  180.2460  147.9520 N   0  0  0  0  0  1  0  0  0  0  0  0
  1  4  1  6  0  0  0
  1  2  1  0  0  0  0
  2 14  1  1  0  0  0
  2 13  1  0  0  0  0
  3  6  1  0  0  0  0
  5  8  2  0  0  0  0
  5  9  1  0  0  0  0
  6 13  2  0  0  0  0
  7 11  1  0  0  0  0
  7  4  2  0  0  0  0
  8  7  1  0  0  0  0
  9 12  2  0  0  0  0
 10  1  1  0  0  0  0
 10  3  2  0  0  0  0
 11 10  1  0  0  0  0
 12  4  1  0  0  0  0
 13 23  1  0  0  0  0
 14 18  1  0  0  0  0
 16 14  2  0  0  0  0
 16 17  1  0  0  0  0
 17 19  2  0  0  0  0
 18 15  2  0  0  0  0
 19 15  1  0  0  0  0
 19 20  1  0  0  0  0
 20 21  1  0  0  0  0
 22 20  2  0  0  0  0
 23 25  1  0  0  0  0
 23 24  2  0  0  0  0
M  END
>  <MODEL>
2

>  <REMARK>
 VINA RESULT:      -7.5      2.137      4.512
  Name = 
  3 active torsions:
  status: ('A' for Active; 'I' for Inactive)
    1  A    between atoms: C_2  and  C_25
    2  A    between atoms: C_3  and  C_6
    3  A    between atoms: C_13  and  C_24
                            x       y       z     vdW  Elec       q    Type
                         _______ _______ _______ _____ _____    ______ ____

>  <TORSDO>
F 3

$$$$
=
 OpenBabel11052417383D

 25 28  0  0  1  0  0  0  0  0999 V2000
  187.1980  177.6320  143.0660 C   0  0  2  0  0  3  0  0  0  0  0  0
  187.8120  176.2390  143.2870 C   0  0  1  0  0  3  0  0  0  0  0  0
  186.6150  176.9040  140.8040 N   0  0  0  0  0  0  0  0  0  0  0  0
  186.1880  178.0560  144.0750 C   0  0  0  0  0  0  0  0  0  0  0  0
  184.0650  179.0730  145.5510 C   0  0  0  0  0  3  0  0  0  0  0  0
  187.7440  176.0170  140.8170 C   0  0  0  0  0  3  0  0  0  0  0  0
  185.0140  178.4210  143.4440 C   0  0  0  0  0  0  0  0  0  0  0  0
  183.9300  178.9260  144.1610 C   0  0  0  0  0  3  0  0  0  0  0  0
  185.2680  178.7240  146.1920 C   0  0  0  0  0  3  0  0  0  0  0  0
  186.3350  177.6300  141.8410 C   0  0  0  0  0  0  0  0  0  0  0  0
  185.0450  178.2030  142.0410 N   0  0  0  0  0  2  0  0  0  0  0  0
  186.3480  178.2200  145.4520 C   0  0  0  0  0  3  0  0  0  0  0  0
  188.3620  175.6850  141.9660 C   0  0  0  0  0  0  0  0  0  0  0  0
  188.8420  176.3130  144.3790 C   0  0  0  0  0  0  0  0  0  0  0  0
  189.8060  175.4910  146.4490 C   0  0  0  0  0  3  0  0  0  0  0  0
  189.8330  177.2970  144.3160 C   0  0  0  0  0  3  0  0  0  0  0  0
  190.8060  177.3800  145.3150 C   0  0  0  0  0  3  0  0  0  0  0  0
  188.8320  175.4060  145.4500 C   0  0  0  0  0  3  0  0  0  0  0  0
  190.7980  176.4780  146.3890 C   0  0  0  0  0  0  0  0  0  0  0  0
  191.8210  176.5620  147.4440 C   0  0  0  0  0  0  0  0  0  0  0  0
  193.1680  176.4370  147.1260 O   0  0  0  0  0  0  0  0  0  0  0  0
  191.4850  176.7490  148.6440 O   0  0  0  0  0  1  0  0  0  0  0  0
  189.4260  174.6540  141.9130 C   0  0  0  0  0  0  0  0  0  0  0  0
  190.6270  174.9770  141.7140 O   0  0  0  0  0  0  0  0  0  0  0  0
  189.1060  173.2800  142.1110 N   0  0  0  0  0  1  0  0  0  0  0  0
  1 10  1  6  0  0  0
  1  2  1  0  0  0  0
  1  4  1  0  0  0  0
  2 14  1  1  0  0  0
  3  6  1  0  0  0  0
  3 10  2  0  0  0  0
  4 12  1  0  0  0  0
  5  9  1  0  0  0  0
  6 13  2  0  0  0  0
  7  4  2  0  0  0  0
  7  8  1  0  0  0  0
  8  5  2  0  0  0  0
 10 11  1  0  0  0  0
 11  7  1  0  0  0  0
 12  9  2  0  0  0  0
 13  2  1  0  0  0  0
 14 18  1  0  0  0  0
 16 14  2  0  0  0  0
 16 17  1  0  0  0  0
 17 19  2  0  0  0  0
 18 15  2  0  0  0  0
 19 15  1  0  0  0  0
 19 20  1  0  0  0  0
 20 22  1  0  0  0  0
 21 20  2  0  0  0  0
 23 13  1  0  0  0  0
 23 25  1  0  0  0  0
 24 23  2  0  0  0  0
M  END
>  <MODEL>
3

>  <REMARK>
 VINA RESULT:      -7.4      0.650      1.200
  Name = 
  3 active torsions:
  status: ('A' for Active; 'I' for Inactive)
    1  A    between atoms: C_2  and  C_25
    2  A    between atoms: C_3  and  C_6
    3  A    between atoms: C_13  and  C_24
                            x       y       z     vdW  Elec       q    Type
                         _______ _______ _______ _____ _____    ______ ____

>  <TORSDO>
F 3

$$$$
=
 OpenBabel11052417383D

 25 28  0  0  1  0  0  0  0  0999 V2000
  186.9720  177.6560  143.9690 C   0  0  2  0  0  3  0  0  0  0  0  0
  187.5960  176.2610  143.7840 C   0  0  1  0  0  3  0  0  0  0  0  0
  185.7960  177.2970  141.8530 N   0  0  0  0  0  0  0  0  0  0  0  0
  186.2740  177.8820  145.2660 C   0  0  0  0  0  0  0  0  0  0  0  0
  184.6390  178.5860  147.3980 C   0  0  0  0  0  3  0  0  0  0  0  0
  186.8710  176.4490  141.4190 C   0  0  0  0  0  3  0  0  0  0  0  0
  184.9820  178.3150  145.0370 C   0  0  0  0  0  0  0  0  0  0  0  0
  184.1370  178.6660  146.0890 C   0  0  0  0  0  3  0  0  0  0  0  0
  185.9620  178.1670  147.6310 C   0  0  0  0  0  3  0  0  0  0  0  0
  185.8150  177.8340  143.0330 C   0  0  0  0  0  0  0  0  0  0  0  0
  184.6360  178.3330  143.6600 N   0  0  0  0  0  2  0  0  0  0  0  0
  186.7970  177.8190  146.5580 C   0  0  0  0  0  3  0  0  0  0  0  0
  187.7640  175.9480  142.2930 C   0  0  0  0  0  0  0  0  0  0  0  0
  188.8800  176.1810  144.5620 C   0  0  0  0  0  0  0  0  0  0  0  0
  190.3550  175.0370  146.1130 C   0  0  0  0  0  3  0  0  0  0  0  0
  189.8230  177.2030  144.4270 C   0  0  0  0  0  3  0  0  0  0  0  0
  191.0280  177.1460  145.1330 C   0  0  0  0  0  3  0  0  0  0  0  0
  189.1500  175.0930  145.4070 C   0  0  0  0  0  3  0  0  0  0  0  0
  191.3010  176.0630  145.9820 C   0  0  0  0  0  0  0  0  0  0  0  0
  192.5680  175.9980  146.7280 C   0  0  0  0  0  0  0  0  0  0  0  0
  193.4810  174.9820  146.4710 O   0  0  0  0  0  0  0  0  0  0  0  0
  192.8370  176.8620  147.6050 O   0  0  0  0  0  1  0  0  0  0  0  0
  188.7560  174.9670  141.7890 C   0  0  0  0  0  0  0  0  0  0  0  0
  189.9390  175.3190  141.5370 O   0  0  0  0  0  0  0  0  0  0  0  0
  188.3890  173.6030  141.6070 N   0  0  0  0  0  1  0  0  0  0  0  0
  1 10  1  6  0  0  0
  1  4  1  0  0  0  0
  2  1  1  0  0  0  0
  2 14  1  1  0  0  0
  3 10  2  0  0  0  0
  4 12  1  0  0  0  0
  5  9  1  0  0  0  0
  6  3  1  0  0  0  0
  6 13  2  0  0  0  0
  7  4  2  0  0  0  0
  7  8  1  0  0  0  0
  8  5  2  0  0  0  0
 10 11  1  0  0  0  0
 11  7  1  0  0  0  0
 12  9  2  0  0  0  0
 13  2  1  0  0  0  0
 14 18  1  0  0  0  0
 16 14  2  0  0  0  0
 16 17  1  0  0  0  0
 17 19  2  0  0  0  0
 18 15  2  0  0  0  0
 19 15  1  0  0  0  0
 19 20  1  0  0  0  0
 20 22  1  0  0  0  0
 21 20  2  0  0  0  0
 23 13  1  0  0  0  0
 24 23  2  0  0  0  0
 25 23  1  0  0  0  0
M  END
>  <MODEL>
4

>  <REMARK>
 VINA RESULT:      -7.4      1.216      1.749
  Name = 
  3 active torsions:
  status: ('A' for Active; 'I' for Inactive)
    1  A    between atoms: C_2  and  C_25
    2  A    between atoms: C_3  and  C_6
    3  A    between atoms: C_13  and  C_24
                            x       y       z     vdW  Elec       q    Type
                         _______ _______ _______ _____ _____    ______ ____

>  <TORSDO>
F 3

$$$$
=
 OpenBabel11052417383D

 25 28  0  0  1  0  0  0  0  0999 V2000
  188.0220  176.7050  144.1320 C   0  0  2  0  0  3  0  0  0  0  0  0
  188.7970  175.3800  144.2290 C   0  0  1  0  0  3  0  0  0  0  0  0
  186.6920  175.6790  142.3520 N   0  0  0  0  0  0  0  0  0  0  0  0
  187.4370  177.2030  145.4080 C   0  0  0  0  0  0  0  0  0  0  0  0
  185.9510  178.2930  147.4870 C   0  0  0  0  0  3  0  0  0  0  0  0
  187.8160  174.8530  142.0110 C   0  0  0  0  0  3  0  0  0  0  0  0
  186.0830  177.4320  145.2490 C   0  0  0  0  0  0  0  0  0  0  0  0
  185.3120  177.9700  146.2780 C   0  0  0  0  0  3  0  0  0  0  0  0
  187.3330  178.0820  147.6420 C   0  0  0  0  0  3  0  0  0  0  0  0
  186.7620  176.5130  143.3420 C   0  0  0  0  0  0  0  0  0  0  0  0
  185.5990  177.0450  143.9720 N   0  0  0  0  0  2  0  0  0  0  0  0
  188.0930  177.5410  146.5930 C   0  0  0  0  0  3  0  0  0  0  0  0
  188.8510  174.6940  142.8580 C   0  0  0  0  0  0  0  0  0  0  0  0
  190.1530  175.6350  144.8250 C   0  0  0  0  0  0  0  0  0  0  0  0
  191.8620  175.1830  146.4870 C   0  0  0  0  0  3  0  0  0  0  0  0
  190.9920  176.5810  144.2280 C   0  0  0  0  0  3  0  0  0  0  0  0
  192.2610  176.8300  144.7580 C   0  0  0  0  0  3  0  0  0  0  0  0
  190.5930  174.9330  145.9570 C   0  0  0  0  0  3  0  0  0  0  0  0
  192.7030  176.1330  145.8920 C   0  0  0  0  0  0  0  0  0  0  0  0
  194.0390  176.3910  146.4550 C   0  0  0  0  0  0  0  0  0  0  0  0
  194.9840  175.3740  146.5130 O   0  0  0  0  0  0  0  0  0  0  0  0
  194.3380  177.5360  146.8880 O   0  0  0  0  0  1  0  0  0  0  0  0
  189.9040  173.7150  142.4950 C   0  0  0  0  0  0  0  0  0  0  0  0
  189.9590  172.5900  143.0580 O   0  0  0  0  0  0  0  0  0  0  0  0
  190.8570  174.0270  141.4830 N   0  0  0  0  0  1  0  0  0  0  0  0
  1 10  1  6  0  0  0
  1  2  1  0  0  0  0
  1  4  1  0  0  0  0
  2 14  1  6  0  0  0
  3 10  2  0  0  0  0
  4 12  1  0  0  0  0
  5  9  1  0  0  0  0
  6  3  1  0  0  0  0
  6 13  2  0  0  0  0
  7  4  2  0  0  0  0
  7  8  1  0  0  0  0
  8  5  2  0  0  0  0
 10 11  1  0  0  0  0
 11  7  1  0  0  0  0
 12  9  2  0  0  0  0
 13  2  1  0  0  0  0
 14 18  1  0  0  0  0
 16 17  1  0  0  0  0
 16 14  2  0  0  0  0
 17 19  2  0  0  0  0
 18 15  2  0  0  0  0
 19 20  1  0  0  0  0
 19 15  1  0  0  0  0
 20 21  2  0  0  0  0
 20 22  1  0  0  0  0
 23 13  1  0  0  0  0
 23 24  2  0  0  0  0
 25 23  1  0  0  0  0
M  END
>  <MODEL>
5

>  <REMARK>
 VINA RESULT:      -7.1      2.043      2.615
  Name = 
  3 active torsions:
  status: ('A' for Active; 'I' for Inactive)
    1  A    between atoms: C_2  and  C_25
    2  A    between atoms: C_3  and  C_6
    3  A    between atoms: C_13  and  C_24
                            x       y       z     vdW  Elec       q    Type
                         _______ _______ _______ _____ _____    ______ ____

>  <TORSDO>
F 3

$$$$
=
 OpenBabel11052417383D

 25 28  0  0  1  0  0  0  0  0999 V2000
  186.3140  178.4840  143.8440 C   0  0  2  0  0  3  0  0  0  0  0  0
  186.7770  177.2470  143.0560 C   0  0  1  0  0  3  0  0  0  0  0  0
  184.4400  178.6510  142.2790 N   0  0  0  0  0  0  0  0  0  0  0  0
  186.1410  178.2860  145.3100 C   0  0  0  0  0  0  0  0  0  0  0  0
  185.4140  178.2420  147.9920 C   0  0  0  0  0  3  0  0  0  0  0  0
  185.2530  178.0380  141.2660 C   0  0  0  0  0  3  0  0  0  0  0  0
  184.8700  178.6720  145.6930 C   0  0  0  0  0  0  0  0  0  0  0  0
  184.4770  178.6520  147.0300 C   0  0  0  0  0  3  0  0  0  0  0  0
  186.7160  177.8710  147.6060 C   0  0  0  0  0  3  0  0  0  0  0  0
  184.9040  178.8350  143.4760 C   0  0  0  0  0  0  0  0  0  0  0  0
  184.0500  179.0510  144.5970 N   0  0  0  0  0  2  0  0  0  0  0  0
  187.0940  177.9000  146.2550 C   0  0  0  0  0  3  0  0  0  0  0  0
  186.3840  177.3780  141.5800 C   0  0  0  0  0  0  0  0  0  0  0  0
  188.2520  177.0430  143.2670 C   0  0  0  0  0  0  0  0  0  0  0  0
  190.5440  177.8310  143.1430 C   0  0  0  0  0  3  0  0  0  0  0  0
  188.7010  175.8410  143.8220 C   0  0  0  0  0  3  0  0  0  0  0  0
  190.0660  175.6320  144.0360 C   0  0  0  0  0  3  0  0  0  0  0  0
  189.1790  178.0410  142.9300 C   0  0  0  0  0  3  0  0  0  0  0  0
  190.9970  176.6250  143.6960 C   0  0  0  0  0  0  0  0  0  0  0  0
  192.4350  176.4100  143.9190 C   0  0  0  0  0  0  0  0  0  0  0  0
  193.1190  177.1660  144.8640 O   0  0  0  0  0  1  0  0  0  0  0  0
  193.0600  175.5390  143.2570 O   0  0  0  0  0  0  0  0  0  0  0  0
  187.0900  176.6520  140.4970 C   0  0  0  0  0  0  0  0  0  0  0  0
  187.7960  175.6420  140.7530 O   0  0  0  0  0  0  0  0  0  0  0  0
  186.9580  177.0770  139.1430 N   0  0  0  0  0  1  0  0  0  0  0  0
  1 10  1  6  0  0  0
  1  4  1  0  0  0  0
  2 14  1  6  0  0  0
  2  1  1  0  0  0  0
  3 10  2  0  0  0  0
  4  7  2  0  0  0  0
  4 12  1  0  0  0  0
  6 13  2  0  0  0  0
  6  3  1  0  0  0  0
  7  8  1  0  0  0  0
  8  5  2  0  0  0  0
  9  5  1  0  0  0  0
 10 11  1  0  0  0  0
 11  7  1  0  0  0  0
 12  9  2  0  0  0  0
 13  2  1  0  0  0  0
 14 16  1  0  0  0  0
 15 19  2  0  0  0  0
 16 17  2  0  0  0  0
 18 15  1  0  0  0  0
 18 14  2  0  0  0  0
 19 20  1  0  0  0  0
 19 17  1  0  0  0  0
 20 21  1  0  0  0  0
 22 20  2  0  0  0  0
 23 24  2  0  0  0  0
 23 13  1  0  0  0  0
 25 23  1  0  0  0  0
M  END
>  <MODEL>
6

>  <REMARK>
 VINA RESULT:      -6.9      2.347      2.991
  Name = 
  3 active torsions:
  status: ('A' for Active; 'I' for Inactive)
    1  A    between atoms: C_2  and  C_25
    2  A    between atoms: C_3  and  C_6
    3  A    between atoms: C_13  and  C_24
                            x       y       z     vdW  Elec       q    Type
                         _______ _______ _______ _____ _____    ______ ____

>  <TORSDO>
F 3

$$$$
=
 OpenBabel11052417383D

 25 28  0  0  1  0  0  0  0  0999 V2000
  187.8670  176.7560  145.5850 C   0  0  2  0  0  3  0  0  0  0  0  0
  189.0100  177.0220  144.5900 C   0  0  1  0  0  3  0  0  0  0  0  0
  189.3970  177.4430  147.3670 N   0  0  0  0  0  0  0  0  0  0  0  0
  186.5840  177.4550  145.2930 C   0  0  0  0  0  0  0  0  0  0  0  0
  184.1530  178.7990  145.2670 C   0  0  0  0  0  3  0  0  0  0  0  0
  190.5020  176.9860  146.5720 C   0  0  0  0  0  3  0  0  0  0  0  0
  186.1800  178.1800  146.3970 C   0  0  0  0  0  0  0  0  0  0  0  0
  184.9690  178.8710  146.4080 C   0  0  0  0  0  3  0  0  0  0  0  0
  184.5530  178.0410  144.1510 C   0  0  0  0  0  3  0  0  0  0  0  0
  188.1840  177.3710  146.9150 C   0  0  0  0  0  0  0  0  0  0  0  0
  187.1220  178.1520  147.4580 N   0  0  0  0  0  2  0  0  0  0  0  0
  185.7750  177.3510  144.1600 C   0  0  0  0  0  3  0  0  0  0  0  0
  190.3660  176.7520  145.2530 C   0  0  0  0  0  0  0  0  0  0  0  0
  188.7830  176.2180  143.3400 C   0  0  0  0  0  0  0  0  0  0  0  0
  188.2770  176.0700  140.9720 C   0  0  0  0  0  3  0  0  0  0  0  0
  188.8970  174.8250  143.3970 C   0  0  0  0  0  3  0  0  0  0  0  0
  188.7000  174.0570  142.2470 C   0  0  0  0  0  3  0  0  0  0  0  0
  188.4740  176.8400  142.1220 C   0  0  0  0  0  3  0  0  0  0  0  0
  188.3870  174.6740  141.0270 C   0  0  0  0  0  0  0  0  0  0  0  0
  188.1770  173.8690  139.8130 C   0  0  0  0  0  0  0  0  0  0  0  0
  188.1120  174.4830  138.5670 O   0  0  0  0  0  0  0  0  0  0  0  0
  188.0570  172.6170  139.8900 O   0  0  0  0  0  1  0  0  0  0  0  0
  191.5850  176.4210  144.4750 C   0  0  0  0  0  0  0  0  0  0  0  0
  192.0440  177.2280  143.6250 O   0  0  0  0  0  0  0  0  0  0  0  0
  192.2680  175.1910  144.6980 N   0  0  0  0  0  1  0  0  0  0  0  0
  1  4  1  6  0  0  0
  1 10  1  0  0  0  0
  2 14  1  6  0  0  0
  2 13  1  0  0  0  0
  2  1  1  0  0  0  0
  4  7  1  0  0  0  0
  5  8  1  0  0  0  0
  6  3  1  0  0  0  0
  7  8  2  0  0  0  0
  7 11  1  0  0  0  0
  9 12  1  0  0  0  0
  9  5  2  0  0  0  0
 10  3  2  0  0  0  0
 10 11  1  0  0  0  0
 12  4  2  0  0  0  0
 13  6  2  0  0  0  0
 14 16  1  0  0  0  0
 15 19  2  0  0  0  0
 15 18  1  0  0  0  0
 17 16  2  0  0  0  0
 18 14  2  0  0  0  0
 19 17  1  0  0  0  0
 20 22  1  0  0  0  0
 20 19  1  0  0  0  0
 21 20  2  0  0  0  0
 23 25  1  0  0  0  0
 23 13  1  0  0  0  0
 24 23  2  0  0  0  0
M  END
>  <MODEL>
7

>  <REMARK>
 VINA RESULT:      -6.8      2.724      5.090
  Name = 
  3 active torsions:
  status: ('A' for Active; 'I' for Inactive)
    1  A    between atoms: C_2  and  C_25
    2  A    between atoms: C_3  and  C_6
    3  A    between atoms: C_13  and  C_24
                            x       y       z     vdW  Elec       q    Type
                         _______ _______ _______ _____ _____    ______ ____

>  <TORSDO>
F 3

$$$$
=
 OpenBabel11052417383D

 25 28  0  0  1  0  0  0  0  0999 V2000
  186.6420  176.5570  144.0810 C   0  0  2  0  0  3  0  0  0  0  0  0
  188.0270  176.9430  144.6280 C   0  0  1  0  0  3  0  0  0  0  0  0
  185.7020  177.3220  146.2080 N   0  0  0  0  0  0  0  0  0  0  0  0
  186.2810  177.1540  142.7650 C   0  0  0  0  0  0  0  0  0  0  0  0
  185.1250  178.2910  140.5090 C   0  0  0  0  0  3  0  0  0  0  0  0
  186.9370  176.9800  146.8570 C   0  0  0  0  0  3  0  0  0  0  0  0
  185.0700  177.8140  142.8620 C   0  0  0  0  0  0  0  0  0  0  0  0
  184.4730  178.4000  141.7470 C   0  0  0  0  0  3  0  0  0  0  0  0
  186.3460  177.5980  140.4050 C   0  0  0  0  0  3  0  0  0  0  0  0
  185.5620  177.1610  144.9290 C   0  0  0  0  0  0  0  0  0  0  0  0
  184.5520  177.8360  144.1830 N   0  0  0  0  0  2  0  0  0  0  0  0
  186.9310  177.0120  141.5380 C   0  0  0  0  0  3  0  0  0  0  0  0
  188.0640  176.7690  146.1520 C   0  0  0  0  0  0  0  0  0  0  0  0
  189.0860  176.1560  143.9090 C   0  0  0  0  0  0  0  0  0  0  0  0
  189.9390  174.0690  143.0100 C   0  0  0  0  0  3  0  0  0  0  0  0
  190.2260  176.8160  143.4420 C   0  0  0  0  0  3  0  0  0  0  0  0
  191.2210  176.1070  142.7630 C   0  0  0  0  0  3  0  0  0  0  0  0
  188.9430  174.7780  143.6890 C   0  0  0  0  0  3  0  0  0  0  0  0
  191.0840  174.7290  142.5440 C   0  0  0  0  0  0  0  0  0  0  0  0
  192.1280  173.9770  141.8300 C   0  0  0  0  0  0  0  0  0  0  0  0
  192.2200  172.5970  141.9710 O   0  0  0  0  0  1  0  0  0  0  0  0
  192.9480  174.5770  141.0830 O   0  0  0  0  0  0  0  0  0  0  0  0
  189.3260  176.5620  146.9020 C   0  0  0  0  0  0  0  0  0  0  0  0
  190.0390  177.5410  147.2460 O   0  0  0  0  0  0  0  0  0  0  0  0
  189.7390  175.2470  147.2640 N   0  0  0  0  0  1  0  0  0  0  0  0
  1  4  1  6  0  0  0
  1  2  1  0  0  0  0
  1 10  1  0  0  0  0
  2 14  1  6  0  0  0
  2 13  1  0  0  0  0
  3  6  1  0  0  0  0
  4  7  1  0  0  0  0
  5  8  1  0  0  0  0
  7 11  1  0  0  0  0
  8  7  2  0  0  0  0
  9  5  2  0  0  0  0
  9 12  1  0  0  0  0
 10  3  2  0  0  0  0
 11 10  1  0  0  0  0
 12  4  2  0  0  0  0
 13  6  2  0  0  0  0
 13 23  1  0  0  0  0
 15 18  2  0  0  0  0
 16 14  2  0  0  0  0
 17 16  1  0  0  0  0
 18 14  1  0  0  0  0
 19 17  2  0  0  0  0
 19 15  1  0  0  0  0
 20 21  1  0  0  0  0
 20 19  1  0  0  0  0
 22 20  2  0  0  0  0
 23 24  2  0  0  0  0
 23 25  1  0  0  0  0
M  END
>  <MODEL>
8

>  <REMARK>
 VINA RESULT:      -6.8      2.198      4.622
  Name = 
  3 active torsions:
  status: ('A' for Active; 'I' for Inactive)
    1  A    between atoms: C_2  and  C_25
    2  A    between atoms: C_3  and  C_6
    3  A    between atoms: C_13  and  C_24
                            x       y       z     vdW  Elec       q    Type
                         _______ _______ _______ _____ _____    ______ ____

>  <TORSDO>
F 3

$$$$
=
 OpenBabel11052417383D

 25 28  0  0  1  0  0  0  0  0999 V2000
  188.2670  176.4150  145.6480 C   0  0  2  0  0  3  0  0  0  0  0  0
  189.5120  176.5120  144.7490 C   0  0  1  0  0  3  0  0  0  0  0  0
  189.6190  177.3750  147.4480 N   0  0  0  0  0  0  0  0  0  0  0  0
  187.0360  177.0630  145.1140 C   0  0  0  0  0  0  0  0  0  0  0  0
  184.6500  178.3950  144.6170 C   0  0  0  0  0  3  0  0  0  0  0  0
  190.7900  176.7910  146.8570 C   0  0  0  0  0  3  0  0  0  0  0  0
  186.5350  177.9590  146.0390 C   0  0  0  0  0  0  0  0  0  0  0  0
  185.3450  178.6480  145.8110 C   0  0  0  0  0  3  0  0  0  0  0  0
  185.1470  177.4650  143.6850 C   0  0  0  0  0  3  0  0  0  0  0  0
  188.4580  177.2360  146.8880 C   0  0  0  0  0  0  0  0  0  0  0  0
  187.3630  178.0990  147.1840 N   0  0  0  0  0  2  0  0  0  0  0  0
  186.3460  176.7800  143.9340 C   0  0  0  0  0  3  0  0  0  0  0  0
  190.7860  176.3460  145.5860 C   0  0  0  0  0  0  0  0  0  0  0  0
  189.3980  175.5160  143.6280 C   0  0  0  0  0  0  0  0  0  0  0  0
  189.2900  174.9840  141.2630 C   0  0  0  0  0  3  0  0  0  0  0  0
  189.3140  174.1540  143.9320 C   0  0  0  0  0  3  0  0  0  0  0  0
  189.2170  173.2090  142.9070 C   0  0  0  0  0  3  0  0  0  0  0  0
  189.3880  175.9300  142.2870 C   0  0  0  0  0  3  0  0  0  0  0  0
  189.2030  173.6190  141.5660 C   0  0  0  0  0  0  0  0  0  0  0  0
  189.1000  172.6280  140.4830 C   0  0  0  0  0  0  0  0  0  0  0  0
  190.0650  171.6370  140.3450 O   0  0  0  0  0  1  0  0  0  0  0  0
  188.1370  172.6670  139.6710 O   0  0  0  0  0  0  0  0  0  0  0  0
  192.0710  175.8890  145.0040 C   0  0  0  0  0  0  0  0  0  0  0  0
  192.7200  176.6260  144.2160 O   0  0  0  0  0  0  0  0  0  0  0  0
  192.6020  174.6120  145.3480 N   0  0  0  0  0  1  0  0  0  0  0  0
  1  4  1  6  0  0  0
  1 10  1  0  0  0  0
  2 14  1  6  0  0  0
  2 13  1  0  0  0  0
  2  1  1  0  0  0  0
  4  7  1  0  0  0  0
  5  8  1  0  0  0  0
  6  3  1  0  0  0  0
  7 11  1  0  0  0  0
  8  7  2  0  0  0  0
  9 12  1  0  0  0  0
  9  5  2  0  0  0  0
 10 11  1  0  0  0  0
 10  3  2  0  0  0  0
 12  4  2  0  0  0  0
 13  6  2  0  0  0  0
 14 16  1  0  0  0  0
 15 19  2  0  0  0  0
 15 18  1  0  0  0  0
 17 16  2  0  0  0  0
 18 14  2  0  0  0  0
 19 17  1  0  0  0  0
 20 19  1  0  0  0  0
 21 20  1  0  0  0  0
 22 20  2  0  0  0  0
 23 25  1  0  0  0  0
 23 13  1  0  0  0  0
 24 23  2  0  0  0  0
M  END
>  <MODEL>
9

>  <REMARK>
 VINA RESULT:      -6.5      2.712      5.075
  Name = 
  3 active torsions:
  status: ('A' for Active; 'I' for Inactive)
    1  A    between atoms: C_2  and  C_25
    2  A    between atoms: C_3  and  C_6
    3  A    between atoms: C_13  and  C_24
                            x       y       z     vdW  Elec       q    Type
                         _______ _______ _______ _____ _____    ______ ____

>  <TORSDO>
F 3

$$$$
