=
 OpenBabel11052420283D

 34 37  0  0  1  0  0  0  0  0999 V2000
  191.9230  174.2220  145.3720 C   0  0  0  0  0  0  0  0  0  0  0  0
  191.1810  176.2660  147.2110 C   0  0  0  0  0  3  0  0  0  0  0  0
  194.2000  175.2830  145.6870 C   0  0  0  0  0  3  0  0  0  0  0  0
  194.5910  176.3310  146.4560 N   0  0  0  0  0  0  0  0  0  0  0  0
  192.4870  176.1070  146.7660 C   0  0  0  0  0  0  0  0  0  0  0  0
  192.8430  175.1360  145.8810 C   0  0  0  0  0  0  0  0  0  0  0  0
  193.5480  176.7990  147.0860 O   0  0  0  0  0  0  0  0  0  0  0  0
  190.2080  175.3860  146.7000 C   0  0  0  0  0  0  0  0  0  0  0  0
  189.5810  173.5590  145.2260 O   0  0  0  0  0  1  0  0  0  0  0  0
  190.5680  174.3750  145.7700 C   0  0  0  0  0  0  0  0  0  0  0  0
  188.7940  175.5240  147.1600 C   0  0  0  0  0  2  0  0  0  0  0  0
  188.0360  176.5170  146.2850 C   0  0  2  0  0  3  0  0  0  0  0  0
  188.7370  177.7080  146.2040 F   0  0  0  0  0  0  0  0  0  0  0  0
  186.6370  176.7730  146.8330 C   0  0  0  0  0  0  0  0  0  0  0  0
  185.6890  176.3100  145.9390 F   0  0  0  0  0  0  0  0  0  0  0  0
  186.4580  178.1320  147.0120 F   0  0  0  0  0  0  0  0  0  0  0  0
  186.4740  176.1310  148.0480 F   0  0  0  0  0  0  0  0  0  0  0  0
  192.3500  173.2160  144.4450 N   0  0  0  0  0  2  0  0  0  0  0  0
  192.3300  173.3530  143.0220 C   0  0  0  0  0  0  0  0  0  0  0  0
  192.5670  172.0110  142.1140 S   0  0  0  0  0  0  0  0  0  0  0  0
  192.1100  174.6480  142.4320 N   0  0  0  0  0  2  0  0  0  0  0  0
  190.1800  177.7700  143.0800 C   0  0  0  0  0  3  0  0  0  0  0  0
  189.6650  175.0900  142.4490 C   0  0  0  0  0  3  0  0  0  0  0  0
  186.4740  177.7770  142.9830 C   0  0  0  0  0  0  0  0  0  0  0  0
  187.8000  178.2200  143.1170 C   0  0  0  0  0  3  0  0  0  0  0  0
  188.8630  177.3300  142.9420 C   0  0  0  0  0  0  0  0  0  0  0  0
  187.2850  175.5360  142.4920 C   0  0  0  0  0  3  0  0  0  0  0  0
  188.6030  175.9790  142.6260 C   0  0  0  0  0  0  0  0  0  0  0  0
  186.2260  176.4320  142.6700 C   0  0  0  0  0  3  0  0  0  0  0  0
  190.9910  175.5330  142.5740 C   0  0  0  0  0  0  0  0  0  0  0  0
  191.2380  176.8730  142.9000 C   0  0  0  0  0  3  0  0  0  0  0  0
  185.3550  178.7160  143.1690 C   0  0  0  0  0  0  0  0  0  0  0  0
  184.0370  178.3580  142.7600 N   0  0  0  0  0  1  0  0  0  0  0  0
  185.5510  179.8450  143.6920 O   0  0  0  0  0  0  0  0  0  0  0  0
  1 10  2  0  0  0  0
  1  6  1  0  0  0  0
  3  6  1  0  0  0  0
  3  4  2  0  0  0  0
  4  7  1  0  0  0  0
  5  7  1  0  0  0  0
  5  2  1  0  0  0  0
  6  5  2  0  0  0  0
  8 11  1  0  0  0  0
  8  2  2  0  0  0  0
  9 10  1  0  0  0  0
 10  8  1  0  0  0  0
 12 13  1  1  0  0  0
 12 14  1  0  0  0  0
 12 11  1  0  0  0  0
 14 16  1  0  0  0  0
 14 17  1  0  0  0  0
 15 14  1  0  0  0  0
 18  1  1  0  0  0  0
 19 18  1  0  0  0  0
 20 19  2  0  0  0  0
 21 30  1  0  0  0  0
 21 19  1  0  0  0  0
 23 30  2  0  0  0  0
 23 28  1  0  0  0  0
 24 25  1  0  0  0  0
 24 32  1  0  0  0  0
 26 22  1  0  0  0  0
 26 25  2  0  0  0  0
 27 28  2  0  0  0  0
 27 29  1  0  0  0  0
 28 26  1  0  0  0  0
 29 24  2  0  0  0  0
 30 31  1  0  0  0  0
 31 22  2  0  0  0  0
 32 34  2  0  0  0  0
 33 32  1  0  0  0  0
M  END
>  <MODEL>
1

>  <REMARK>
 VINA RESULT:      -7.7      0.000      0.000
  Name = 
  8 active torsions:
  status: ('A' for Active; 'I' for Inactive)
    1  A    between atoms: C_1  and  N_9
    2  A    between atoms: C_2  and  C_23
    3  A    between atoms: C_2  and  C_32
    4  A    between atoms: C_3  and  C_23
    5  A    between atoms: C_7  and  C_11
    6  A    between atoms: C_8  and  N_9
    7  A    between atoms: C_8  and  N_18
    8  A    between atoms: N_18  and  C_30
                            x       y       z     vdW  Elec       q    Type
                         _______ _______ _______ _____ _____    ______ ____

>  <TORSDO>
F 8

$$$$
=
 OpenBabel11052420283D

 34 37  0  0  1  0  0  0  0  0999 V2000
  193.4370  174.2180  144.1330 C   0  0  0  0  0  0  0  0  0  0  0  0
  193.4830  176.2740  146.1030 C   0  0  0  0  0  3  0  0  0  0  0  0
  195.4290  175.5180  143.2650 C   0  0  0  0  0  3  0  0  0  0  0  0
  196.0280  176.6410  143.7380 N   0  0  0  0  0  0  0  0  0  0  0  0
  194.4010  176.2240  145.0610 C   0  0  0  0  0  0  0  0  0  0  0  0
  194.3770  175.2470  144.1140 C   0  0  0  0  0  0  0  0  0  0  0  0
  195.3920  177.0350  144.8080 O   0  0  0  0  0  0  0  0  0  0  0  0
  192.4930  175.2730  146.1460 C   0  0  0  0  0  0  0  0  0  0  0  0
  191.4290  173.3150  145.1790 O   0  0  0  0  0  1  0  0  0  0  0  0
  192.4540  174.2550  145.1570 C   0  0  0  0  0  0  0  0  0  0  0  0
  191.4920  175.2940  147.2540 C   0  0  0  0  0  2  0  0  0  0  0  0
  190.2840  176.1430  146.8740 C   0  0  2  0  0  3  0  0  0  0  0  0
  190.1670  177.2150  147.7420 F   0  0  0  0  0  0  0  0  0  0  0  0
  189.0040  175.3140  146.8960 C   0  0  0  0  0  0  0  0  0  0  0  0
  187.9040  176.1490  146.9750 F   0  0  0  0  0  0  0  0  0  0  0  0
  189.0170  174.4840  148.0010 F   0  0  0  0  0  0  0  0  0  0  0  0
  188.9140  174.5420  145.7520 F   0  0  0  0  0  0  0  0  0  0  0  0
  193.4560  173.2110  143.1130 N   0  0  0  0  0  2  0  0  0  0  0  0
  192.6380  173.2170  141.9400 C   0  0  0  0  0  0  0  0  0  0  0  0
  192.5720  171.8520  141.0390 S   0  0  0  0  0  0  0  0  0  0  0  0
  191.9070  174.4060  141.5860 N   0  0  0  0  0  2  0  0  0  0  0  0
  188.2020  174.4910  141.9830 C   0  0  0  0  0  3  0  0  0  0  0  0
  190.4230  176.0000  142.7820 C   0  0  0  0  0  3  0  0  0  0  0  0
  186.5500  177.1990  143.9010 C   0  0  0  0  0  0  0  0  0  0  0  0
  186.7350  176.0410  143.1290 C   0  0  0  0  0  3  0  0  0  0  0  0
  188.0200  175.6400  142.7540 C   0  0  0  0  0  0  0  0  0  0  0  0
  188.9570  177.5540  143.9240 C   0  0  0  0  0  3  0  0  0  0  0  0
  189.1390  176.4010  143.1560 C   0  0  0  0  0  0  0  0  0  0  0  0
  187.6680  177.9500  144.2940 C   0  0  0  0  0  3  0  0  0  0  0  0
  190.6100  174.8380  142.0180 C   0  0  0  0  0  0  0  0  0  0  0  0
  189.4920  174.0960  141.6140 C   0  0  0  0  0  3  0  0  0  0  0  0
  185.1950  177.6210  144.2950 C   0  0  0  0  0  0  0  0  0  0  0  0
  184.8320  177.6920  145.6710 N   0  0  0  0  0  1  0  0  0  0  0  0
  184.3430  177.9250  143.4180 O   0  0  0  0  0  0  0  0  0  0  0  0
  1 10  1  0  0  0  0
  2  8  1  0  0  0  0
  3  4  2  0  0  0  0
  3  6  1  0  0  0  0
  4  7  1  0  0  0  0
  5  2  2  0  0  0  0
  6  1  2  0  0  0  0
  6  5  1  0  0  0  0
  7  5  1  0  0  0  0
  8 11  1  0  0  0  0
 10  9  1  0  0  0  0
 10  8  2  0  0  0  0
 12 14  1  0  0  0  0
 12 11  1  0  0  0  0
 12 13  1  1  0  0  0
 14 15  1  0  0  0  0
 14 16  1  0  0  0  0
 17 14  1  0  0  0  0
 18  1  1  0  0  0  0
 19 18  1  0  0  0  0
 20 19  2  0  0  0  0
 21 19  1  0  0  0  0
 21 30  1  0  0  0  0
 22 26  1  0  0  0  0
 23 28  1  0  0  0  0
 24 29  1  0  0  0  0
 24 32  1  0  0  0  0
 25 24  2  0  0  0  0
 26 25  1  0  0  0  0
 26 28  2  0  0  0  0
 27 29  2  0  0  0  0
 28 27  1  0  0  0  0
 30 23  2  0  0  0  0
 31 22  2  0  0  0  0
 31 30  1  0  0  0  0
 32 33  1  0  0  0  0
 34 32  2  0  0  0  0
M  END
>  <MODEL>
2

>  <REMARK>
 VINA RESULT:      -7.6      1.730      2.476
  Name = 
  8 active torsions:
  status: ('A' for Active; 'I' for Inactive)
    1  A    between atoms: C_1  and  N_9
    2  A    between atoms: C_2  and  C_23
    3  A    between atoms: C_2  and  C_32
    4  A    between atoms: C_3  and  C_23
    5  A    between atoms: C_7  and  C_11
    6  A    between atoms: C_8  and  N_9
    7  A    between atoms: C_8  and  N_18
    8  A    between atoms: N_18  and  C_30
                            x       y       z     vdW  Elec       q    Type
                         _______ _______ _______ _____ _____    ______ ____

>  <TORSDO>
F 8

$$$$
=
 OpenBabel11052420283D

 34 37  0  0  1  0  0  0  0  0999 V2000
  192.2290  174.4500  145.2900 C   0  0  0  0  0  0  0  0  0  0  0  0
  189.5240  173.6560  145.6900 C   0  0  0  0  0  3  0  0  0  0  0  0
  192.2130  172.4150  143.7830 C   0  0  0  0  0  3  0  0  0  0  0  0
  191.2190  171.5400  143.4860 N   0  0  0  0  0  0  0  0  0  0  0  0
  190.3870  172.9550  144.8560 C   0  0  0  0  0  0  0  0  0  0  0  0
  191.6830  173.3280  144.6690 C   0  0  0  0  0  0  0  0  0  0  0  0
  190.1450  171.8910  144.1410 O   0  0  0  0  0  0  0  0  0  0  0  0
  190.0400  174.7780  146.3660 C   0  0  0  0  0  0  0  0  0  0  0  0
  191.9010  176.2410  146.9110 O   0  0  0  0  0  1  0  0  0  0  0  0
  191.3930  175.1700  146.1840 C   0  0  0  0  0  0  0  0  0  0  0  0
  189.1390  175.5570  147.2670 C   0  0  0  0  0  2  0  0  0  0  0  0
  188.6760  176.8410  146.5870 C   0  0  2  0  0  3  0  0  0  0  0  0
  189.1770  177.9410  147.2610 F   0  0  0  0  0  0  0  0  0  0  0  0
  187.1540  176.9130  146.5340 C   0  0  0  0  0  0  0  0  0  0  0  0
  186.6200  176.4980  147.7410 F   0  0  0  0  0  0  0  0  0  0  0  0
  186.6910  176.0820  145.5310 F   0  0  0  0  0  0  0  0  0  0  0  0
  186.7440  178.2080  146.2720 F   0  0  0  0  0  0  0  0  0  0  0  0
  193.5990  174.8010  145.0570 N   0  0  0  0  0  2  0  0  0  0  0  0
  194.0500  175.7230  144.0610 C   0  0  0  0  0  0  0  0  0  0  0  0
  195.5380  176.3830  144.2390 S   0  0  0  0  0  0  0  0  0  0  0  0
  193.1970  176.0440  142.9480 N   0  0  0  0  0  2  0  0  0  0  0  0
  190.2840  178.2890  143.5600 C   0  0  0  0  0  3  0  0  0  0  0  0
  190.7780  175.7630  142.4530 C   0  0  0  0  0  3  0  0  0  0  0  0
  186.8530  177.2670  142.5980 C   0  0  0  0  0  0  0  0  0  0  0  0
  187.9200  178.0290  143.1010 C   0  0  0  0  0  3  0  0  0  0  0  0
  189.2250  177.5320  143.0550 C   0  0  0  0  0  0  0  0  0  0  0  0
  188.4140  175.4990  141.9990 C   0  0  0  0  0  3  0  0  0  0  0  0
  189.4740  176.2590  142.4990 C   0  0  0  0  0  0  0  0  0  0  0  0
  187.1100  176.0020  142.0480 C   0  0  0  0  0  3  0  0  0  0  0  0
  191.8460  176.5270  142.9470 C   0  0  0  0  0  0  0  0  0  0  0  0
  191.5870  177.7850  143.5080 C   0  0  0  0  0  3  0  0  0  0  0  0
  185.4770  177.7910  142.6470 C   0  0  0  0  0  0  0  0  0  0  0  0
  184.8770  178.3540  141.4840 N   0  0  0  0  0  1  0  0  0  0  0  0
  184.8170  177.7460  143.7190 O   0  0  0  0  0  0  0  0  0  0  0  0
  1 10  1  0  0  0  0
  2  8  1  0  0  0  0
  3  6  1  0  0  0  0
  4  3  2  0  0  0  0
  4  7  1  0  0  0  0
  5  2  2  0  0  0  0
  6  5  1  0  0  0  0
  6  1  2  0  0  0  0
  7  5  1  0  0  0  0
  8 11  1  0  0  0  0
 10  8  2  0  0  0  0
 10  9  1  0  0  0  0
 12 13  1  1  0  0  0
 12 11  1  0  0  0  0
 14 12  1  0  0  0  0
 14 15  1  0  0  0  0
 16 14  1  0  0  0  0
 17 14  1  0  0  0  0
 18  1  1  0  0  0  0
 19 20  2  0  0  0  0
 19 18  1  0  0  0  0
 21 19  1  0  0  0  0
 23 28  2  0  0  0  0
 23 30  1  0  0  0  0
 24 32  1  0  0  0  0
 24 25  2  0  0  0  0
 26 25  1  0  0  0  0
 26 22  2  0  0  0  0
 27 29  2  0  0  0  0
 27 28  1  0  0  0  0
 28 26  1  0  0  0  0
 29 24  1  0  0  0  0
 30 21  1  0  0  0  0
 30 31  2  0  0  0  0
 31 22  1  0  0  0  0
 32 34  2  0  0  0  0
 33 32  1  0  0  0  0
M  END
>  <MODEL>
3

>  <REMARK>
 VINA RESULT:      -7.5      1.564      2.688
  Name = 
  8 active torsions:
  status: ('A' for Active; 'I' for Inactive)
    1  A    between atoms: C_1  and  N_9
    2  A    between atoms: C_2  and  C_23
    3  A    between atoms: C_2  and  C_32
    4  A    between atoms: C_3  and  C_23
    5  A    between atoms: C_7  and  C_11
    6  A    between atoms: C_8  and  N_9
    7  A    between atoms: C_8  and  N_18
    8  A    between atoms: N_18  and  C_30
                            x       y       z     vdW  Elec       q    Type
                         _______ _______ _______ _____ _____    ______ ____

>  <TORSDO>
F 8

$$$$
=
 OpenBabel11052420283D

 34 37  0  0  1  0  0  0  0  0999 V2000
  193.0080  173.9360  143.7780 C   0  0  0  0  0  0  0  0  0  0  0  0
  191.4520  172.0100  142.3710 C   0  0  0  0  0  3  0  0  0  0  0  0
  193.8190  171.8580  144.9750 C   0  0  0  0  0  3  0  0  0  0  0  0
  193.4920  170.5510  144.8030 N   0  0  0  0  0  0  0  0  0  0  0  0
  192.3310  171.6540  143.3860 C   0  0  0  0  0  0  0  0  0  0  0  0
  193.0700  172.5740  144.0650 C   0  0  0  0  0  0  0  0  0  0  0  0
  192.6050  170.4650  143.8490 O   0  0  0  0  0  0  0  0  0  0  0  0
  191.3300  173.3790  142.0650 C   0  0  0  0  0  0  0  0  0  0  0  0
  191.9060  175.6980  142.5040 O   0  0  0  0  0  1  0  0  0  0  0  0
  192.0900  174.3460  142.7750 C   0  0  0  0  0  0  0  0  0  0  0  0
  190.3970  173.7970  140.9770 C   0  0  0  0  0  2  0  0  0  0  0  0
  188.9510  173.4970  141.3600 C   0  0  2  0  0  3  0  0  0  0  0  0
  188.1600  173.4530  140.2260 F   0  0  0  0  0  0  0  0  0  0  0  0
  188.4150  174.5460  142.3280 C   0  0  0  0  0  0  0  0  0  0  0  0
  188.8080  174.2410  143.6190 F   0  0  0  0  0  0  0  0  0  0  0  0
  187.0330  174.5550  142.2720 F   0  0  0  0  0  0  0  0  0  0  0  0
  188.8890  175.8000  141.9870 F   0  0  0  0  0  0  0  0  0  0  0  0
  193.8100  174.8630  144.5210 N   0  0  0  0  0  2  0  0  0  0  0  0
  193.3930  175.5340  145.7130 C   0  0  0  0  0  0  0  0  0  0  0  0
  194.2430  176.8480  146.1950 S   0  0  0  0  0  0  0  0  0  0  0  0
  192.2580  175.0430  146.4480 N   0  0  0  0  0  2  0  0  0  0  0  0
  188.6280  175.2530  147.2680 C   0  0  0  0  0  3  0  0  0  0  0  0
  190.4310  176.4090  145.4630 C   0  0  0  0  0  3  0  0  0  0  0  0
  186.3720  177.5080  145.3790 C   0  0  0  0  0  0  0  0  0  0  0  0
  186.8290  176.5630  146.3120 C   0  0  0  0  0  3  0  0  0  0  0  0
  188.1760  176.1950  146.3430 C   0  0  0  0  0  0  0  0  0  0  0  0
  188.6320  177.7160  144.5020 C   0  0  0  0  0  3  0  0  0  0  0  0
  189.0840  176.7770  145.4320 C   0  0  0  0  0  0  0  0  0  0  0  0
  187.2820  178.0790  144.4770 C   0  0  0  0  0  3  0  0  0  0  0  0
  190.8900  175.4720  146.4020 C   0  0  0  0  0  0  0  0  0  0  0  0
  189.9780  174.8920  147.2930 C   0  0  0  0  0  3  0  0  0  0  0  0
  184.9520  177.8950  145.3470 C   0  0  0  0  0  0  0  0  0  0  0  0
  184.3580  178.3660  144.1400 N   0  0  0  0  0  1  0  0  0  0  0  0
  184.2460  177.8130  146.3880 O   0  0  0  0  0  0  0  0  0  0  0  0
  1  6  1  0  0  0  0
  1 18  1  0  0  0  0
  2  5  1  0  0  0  0
  4  3  2  0  0  0  0
  5  7  1  0  0  0  0
  5  6  2  0  0  0  0
  6  3  1  0  0  0  0
  7  4  1  0  0  0  0
  8  2  2  0  0  0  0
  8 10  1  0  0  0  0
  9 10  1  0  0  0  0
 10  1  2  0  0  0  0
 11 12  1  0  0  0  0
 11  8  1  0  0  0  0
 12 13  1  6  0  0  0
 12 14  1  0  0  0  0
 14 15  1  0  0  0  0
 16 14  1  0  0  0  0
 17 14  1  0  0  0  0
 18 19  1  0  0  0  0
 19 20  2  0  0  0  0
 19 21  1  0  0  0  0
 22 31  1  0  0  0  0
 23 30  1  0  0  0  0
 24 25  2  0  0  0  0
 25 26  1  0  0  0  0
 26 22  2  0  0  0  0
 27 28  1  0  0  0  0
 28 23  2  0  0  0  0
 28 26  1  0  0  0  0
 29 27  2  0  0  0  0
 29 24  1  0  0  0  0
 30 21  1  0  0  0  0
 30 31  2  0  0  0  0
 32 24  1  0  0  0  0
 32 34  2  0  0  0  0
 33 32  1  0  0  0  0
M  END
>  <MODEL>
4

>  <REMARK>
 VINA RESULT:      -7.3      2.834      4.653
  Name = 
  8 active torsions:
  status: ('A' for Active; 'I' for Inactive)
    1  A    between atoms: C_1  and  N_9
    2  A    between atoms: C_2  and  C_23
    3  A    between atoms: C_2  and  C_32
    4  A    between atoms: C_3  and  C_23
    5  A    between atoms: C_7  and  C_11
    6  A    between atoms: C_8  and  N_9
    7  A    between atoms: C_8  and  N_18
    8  A    between atoms: N_18  and  C_30
                            x       y       z     vdW  Elec       q    Type
                         _______ _______ _______ _____ _____    ______ ____

>  <TORSDO>
F 8

$$$$
=
 OpenBabel11052420283D

 34 37  0  0  1  0  0  0  0  0999 V2000
  193.5490  174.9010  143.7190 C   0  0  0  0  0  0  0  0  0  0  0  0
  192.8380  174.6500  140.9730 C   0  0  0  0  0  3  0  0  0  0  0  0
  195.4950  176.1710  142.7150 C   0  0  0  0  0  3  0  0  0  0  0  0
  195.7950  176.4550  141.4220 N   0  0  0  0  0  0  0  0  0  0  0  0
  193.9800  175.3250  141.3850 C   0  0  0  0  0  0  0  0  0  0  0  0
  194.3270  175.4400  142.6960 C   0  0  0  0  0  0  0  0  0  0  0  0
  194.8730  175.9380  140.6560 O   0  0  0  0  0  0  0  0  0  0  0  0
  192.0360  174.0600  141.9680 C   0  0  0  0  0  0  0  0  0  0  0  0
  191.6250  173.5210  144.3020 O   0  0  0  0  0  1  0  0  0  0  0  0
  192.3940  174.1670  143.3390 C   0  0  0  0  0  0  0  0  0  0  0  0
  190.7980  173.3310  141.5620 C   0  0  0  0  0  2  0  0  0  0  0  0
  189.5990  174.2730  141.5440 C   0  0  2  0  0  3  0  0  0  0  0  0
  190.0070  175.5650  141.8270 F   0  0  0  0  0  0  0  0  0  0  0  0
  188.5400  173.8300  142.5480 C   0  0  0  0  0  0  0  0  0  0  0  0
  188.8120  174.3750  143.7900 F   0  0  0  0  0  0  0  0  0  0  0  0
  188.5560  172.4510  142.6510 F   0  0  0  0  0  0  0  0  0  0  0  0
  187.2850  174.2370  142.1320 F   0  0  0  0  0  0  0  0  0  0  0  0
  193.9560  175.0520  145.0850 N   0  0  0  0  0  2  0  0  0  0  0  0
  193.5270  176.1020  145.9560 C   0  0  0  0  0  0  0  0  0  0  0  0
  194.5540  177.3490  146.2230 S   0  0  0  0  0  0  0  0  0  0  0  0
  192.2260  176.0350  146.5670 N   0  0  0  0  0  2  0  0  0  0  0  0
  189.7330  177.7170  144.3650 C   0  0  0  0  0  3  0  0  0  0  0  0
  189.7510  176.2000  146.7190 C   0  0  0  0  0  3  0  0  0  0  0  0
  186.1140  177.6230  145.1600 C   0  0  0  0  0  0  0  0  0  0  0  0
  187.3220  177.9040  144.5020 C   0  0  0  0  0  3  0  0  0  0  0  0
  188.5320  177.4340  145.0170 C   0  0  0  0  0  0  0  0  0  0  0  0
  187.3410  176.3900  146.8610 C   0  0  0  0  0  3  0  0  0  0  0  0
  188.5420  176.6700  146.2050 C   0  0  0  0  0  0  0  0  0  0  0  0
  186.1330  176.8650  146.3400 C   0  0  0  0  0  3  0  0  0  0  0  0
  190.9590  176.4720  146.0580 C   0  0  0  0  0  0  0  0  0  0  0  0
  190.9400  177.2410  144.8870 C   0  0  0  0  0  3  0  0  0  0  0  0
  184.8380  178.1190  144.6160 C   0  0  0  0  0  0  0  0  0  0  0  0
  183.9120  178.8020  145.4570 N   0  0  0  0  0  1  0  0  0  0  0  0
  184.5540  177.9460  143.4010 O   0  0  0  0  0  0  0  0  0  0  0  0
  1 18  1  0  0  0  0
  2  5  2  0  0  0  0
  2  8  1  0  0  0  0
  4  3  2  0  0  0  0
  5  6  1  0  0  0  0
  6  3  1  0  0  0  0
  6  1  2  0  0  0  0
  7  5  1  0  0  0  0
  7  4  1  0  0  0  0
  8 10  2  0  0  0  0
 10  1  1  0  0  0  0
 10  9  1  0  0  0  0
 11  8  1  0  0  0  0
 12 11  1  0  0  0  0
 12 13  1  1  0  0  0
 12 14  1  0  0  0  0
 14 16  1  0  0  0  0
 14 15  1  0  0  0  0
 17 14  1  0  0  0  0
 18 19  1  0  0  0  0
 19 20  2  0  0  0  0
 19 21  1  0  0  0  0
 22 31  2  0  0  0  0
 22 26  1  0  0  0  0
 24 29  1  0  0  0  0
 25 26  1  0  0  0  0
 25 24  2  0  0  0  0
 26 28  2  0  0  0  0
 28 23  1  0  0  0  0
 28 27  1  0  0  0  0
 29 27  2  0  0  0  0
 30 21  1  0  0  0  0
 30 23  2  0  0  0  0
 31 30  1  0  0  0  0
 32 24  1  0  0  0  0
 32 33  1  0  0  0  0
 34 32  2  0  0  0  0
M  END
>  <MODEL>
5

>  <REMARK>
 VINA RESULT:      -7.3      3.013      4.410
  Name = 
  8 active torsions:
  status: ('A' for Active; 'I' for Inactive)
    1  A    between atoms: C_1  and  N_9
    2  A    between atoms: C_2  and  C_23
    3  A    between atoms: C_2  and  C_32
    4  A    between atoms: C_3  and  C_23
    5  A    between atoms: C_7  and  C_11
    6  A    between atoms: C_8  and  N_9
    7  A    between atoms: C_8  and  N_18
    8  A    between atoms: N_18  and  C_30
                            x       y       z     vdW  Elec       q    Type
                         _______ _______ _______ _____ _____    ______ ____

>  <TORSDO>
F 8

$$$$
=
 OpenBabel11052420283D

 34 37  0  0  1  0  0  0  0  0999 V2000
  193.2620  174.3490  143.8430 C   0  0  0  0  0  0  0  0  0  0  0  0
  191.8400  172.0560  142.9340 C   0  0  0  0  0  3  0  0  0  0  0  0
  194.2710  172.6400  145.4150 C   0  0  0  0  0  3  0  0  0  0  0  0
  194.0510  171.3060  145.5330 N   0  0  0  0  0  0  0  0  0  0  0  0
  192.7690  171.9920  143.9650 C   0  0  0  0  0  0  0  0  0  0  0  0
  193.4450  173.0880  144.4060 C   0  0  0  0  0  0  0  0  0  0  0  0
  193.1520  170.9520  144.6550 O   0  0  0  0  0  0  0  0  0  0  0  0
  191.5980  173.3160  142.3540 C   0  0  0  0  0  0  0  0  0  0  0  0
  191.9890  175.7130  142.2730 O   0  0  0  0  0  1  0  0  0  0  0  0
  192.2910  174.4670  142.8140 C   0  0  0  0  0  0  0  0  0  0  0  0
  190.6080  173.4210  141.2400 C   0  0  0  0  0  2  0  0  0  0  0  0
  189.1940  173.1590  141.7480 C   0  0  2  0  0  3  0  0  0  0  0  0
  188.3920  172.7210  140.7090 F   0  0  0  0  0  0  0  0  0  0  0  0
  188.5970  174.4140  142.3730 C   0  0  0  0  0  0  0  0  0  0  0  0
  187.2210  174.4000  142.2330 F   0  0  0  0  0  0  0  0  0  0  0  0
  189.1010  175.5290  141.7300 F   0  0  0  0  0  0  0  0  0  0  0  0
  188.9210  174.4810  143.7160 F   0  0  0  0  0  0  0  0  0  0  0  0
  194.0020  175.4710  144.3430 N   0  0  0  0  0  2  0  0  0  0  0  0
  193.5880  176.3060  145.4270 C   0  0  0  0  0  0  0  0  0  0  0  0
  194.5810  177.5270  145.8830 S   0  0  0  0  0  0  0  0  0  0  0  0
  192.3310  176.0560  146.0820 N   0  0  0  0  0  2  0  0  0  0  0  0
  189.6260  177.8780  144.2790 C   0  0  0  0  0  3  0  0  0  0  0  0
  189.8810  176.1660  146.4810 C   0  0  0  0  0  3  0  0  0  0  0  0
  186.1000  177.6570  145.4000 C   0  0  0  0  0  0  0  0  0  0  0  0
  187.2370  178.0130  144.6580 C   0  0  0  0  0  3  0  0  0  0  0  0
  188.4950  177.5200  145.0150 C   0  0  0  0  0  0  0  0  0  0  0  0
  187.4940  176.3040  146.8650 C   0  0  0  0  0  3  0  0  0  0  0  0
  188.6240  176.6590  146.1250 C   0  0  0  0  0  0  0  0  0  0  0  0
  186.2380  176.8010  146.5030 C   0  0  0  0  0  3  0  0  0  0  0  0
  191.0170  176.5140  145.7340 C   0  0  0  0  0  0  0  0  0  0  0  0
  190.8810  177.3790  144.6410 C   0  0  0  0  0  3  0  0  0  0  0  0
  184.7740  178.1770  145.0250 C   0  0  0  0  0  0  0  0  0  0  0  0
  184.3730  178.2120  143.6580 N   0  0  0  0  0  1  0  0  0  0  0  0
  183.9810  178.5970  145.9090 O   0  0  0  0  0  0  0  0  0  0  0  0
  1 18  1  0  0  0  0
  1  6  1  0  0  0  0
  2  5  1  0  0  0  0
  3  4  2  0  0  0  0
  5  6  2  0  0  0  0
  5  7  1  0  0  0  0
  6  3  1  0  0  0  0
  7  4  1  0  0  0  0
  8 10  1  0  0  0  0
  8  2  2  0  0  0  0
  9 10  1  0  0  0  0
 10  1  2  0  0  0  0
 11 12  1  0  0  0  0
 11  8  1  0  0  0  0
 12 13  1  6  0  0  0
 12 14  1  0  0  0  0
 14 17  1  0  0  0  0
 15 14  1  0  0  0  0
 16 14  1  0  0  0  0
 18 19  1  0  0  0  0
 19 20  2  0  0  0  0
 19 21  1  0  0  0  0
 22 31  2  0  0  0  0
 22 26  1  0  0  0  0
 24 29  1  0  0  0  0
 25 26  1  0  0  0  0
 25 24  2  0  0  0  0
 26 28  2  0  0  0  0
 28 23  1  0  0  0  0
 28 27  1  0  0  0  0
 29 27  2  0  0  0  0
 30 21  1  0  0  0  0
 30 23  2  0  0  0  0
 31 30  1  0  0  0  0
 32 24  1  0  0  0  0
 32 34  2  0  0  0  0
 33 32  1  0  0  0  0
M  END
>  <MODEL>
6

>  <REMARK>
 VINA RESULT:      -7.1      2.868      4.363
  Name = 
  8 active torsions:
  status: ('A' for Active; 'I' for Inactive)
    1  A    between atoms: C_1  and  N_9
    2  A    between atoms: C_2  and  C_23
    3  A    between atoms: C_2  and  C_32
    4  A    between atoms: C_3  and  C_23
    5  A    between atoms: C_7  and  C_11
    6  A    between atoms: C_8  and  N_9
    7  A    between atoms: C_8  and  N_18
    8  A    between atoms: N_18  and  C_30
                            x       y       z     vdW  Elec       q    Type
                         _______ _______ _______ _____ _____    ______ ____

>  <TORSDO>
F 8

$$$$
=
 OpenBabel11052420283D

 34 37  0  0  1  0  0  0  0  0999 V2000
  186.3360  176.6760  144.4060 C   0  0  0  0  0  0  0  0  0  0  0  0
  186.7700  177.3090  147.1480 C   0  0  0  0  0  3  0  0  0  0  0  0
  184.4420  178.3290  144.7090 C   0  0  0  0  0  3  0  0  0  0  0  0
  184.0570  179.0460  145.7960 N   0  0  0  0  0  0  0  0  0  0  0  0
  185.7410  177.8800  146.4100 C   0  0  0  0  0  0  0  0  0  0  0  0
  185.5270  177.5730  145.1010 C   0  0  0  0  0  0  0  0  0  0  0  0
  184.8510  178.7560  146.7910 O   0  0  0  0  0  0  0  0  0  0  0  0
  187.5960  176.3720  146.4990 C   0  0  0  0  0  0  0  0  0  0  0  0
  188.1590  175.0620  144.5310 O   0  0  0  0  0  1  0  0  0  0  0  0
  187.3740  176.0390  145.1360 C   0  0  0  0  0  0  0  0  0  0  0  0
  188.7150  175.7430  147.2610 C   0  0  0  0  0  2  0  0  0  0  0  0
  189.9030  176.6940  147.3590 C   0  0  2  0  0  3  0  0  0  0  0  0
  189.9160  177.5490  146.2710 F   0  0  0  0  0  0  0  0  0  0  0  0
  191.2160  175.9220  147.4290 C   0  0  0  0  0  0  0  0  0  0  0  0
  191.2950  175.0290  146.3760 F   0  0  0  0  0  0  0  0  0  0  0  0
  191.2700  175.2190  148.6180 F   0  0  0  0  0  0  0  0  0  0  0  0
  192.2880  176.7950  147.3720 F   0  0  0  0  0  0  0  0  0  0  0  0
  186.0690  176.3900  143.0270 N   0  0  0  0  0  2  0  0  0  0  0  0
  186.5650  177.1510  141.9220 C   0  0  0  0  0  0  0  0  0  0  0  0
  185.5820  178.2840  141.2650 S   0  0  0  0  0  0  0  0  0  0  0  0
  187.8910  176.9020  141.4220 N   0  0  0  0  0  2  0  0  0  0  0  0
  190.7950  178.0530  143.4560 C   0  0  0  0  0  3  0  0  0  0  0  0
  189.9510  175.7210  142.1530 C   0  0  0  0  0  3  0  0  0  0  0  0
  193.6280  175.7780  144.1950 C   0  0  0  0  0  0  0  0  0  0  0  0
  192.8180  176.9250  144.1660 C   0  0  0  0  0  3  0  0  0  0  0  0
  191.5970  176.9100  143.4880 C   0  0  0  0  0  0  0  0  0  0  0  0
  191.9760  174.5940  142.8570 C   0  0  0  0  0  3  0  0  0  0  0  0
  191.1720  175.7360  142.8300 C   0  0  0  0  0  0  0  0  0  0  0  0
  193.1980  174.6160  143.5370 C   0  0  0  0  0  3  0  0  0  0  0  0
  189.1370  176.8640  142.1310 C   0  0  0  0  0  0  0  0  0  0  0  0
  189.5730  178.0280  142.7760 C   0  0  0  0  0  3  0  0  0  0  0  0
  194.9150  175.7950  144.9100 C   0  0  0  0  0  0  0  0  0  0  0  0
  196.1190  175.4330  144.2380 N   0  0  0  0  0  1  0  0  0  0  0  0
  194.9650  176.1300  146.1230 O   0  0  0  0  0  0  0  0  0  0  0  0
  1  6  2  0  0  0  0
  1 10  1  0  0  0  0
  3  6  1  0  0  0  0
  3  4  2  0  0  0  0
  4  7  1  0  0  0  0
  5  7  1  0  0  0  0
  5  2  2  0  0  0  0
  6  5  1  0  0  0  0
  8  2  1  0  0  0  0
  8 11  1  0  0  0  0
  9 10  1  0  0  0  0
 10  8  2  0  0  0  0
 11 12  1  0  0  0  0
 12 13  1  6  0  0  0
 12 14  1  0  0  0  0
 14 16  1  0  0  0  0
 15 14  1  0  0  0  0
 17 14  1  0  0  0  0
 18  1  1  0  0  0  0
 19 18  1  0  0  0  0
 20 19  2  0  0  0  0
 21 19  1  0  0  0  0
 21 30  1  0  0  0  0
 22 26  1  0  0  0  0
 23 28  1  0  0  0  0
 24 32  1  0  0  0  0
 25 24  1  0  0  0  0
 26 25  2  0  0  0  0
 27 29  1  0  0  0  0
 28 27  2  0  0  0  0
 28 26  1  0  0  0  0
 29 24  2  0  0  0  0
 30 23  2  0  0  0  0
 30 31  1  0  0  0  0
 31 22  2  0  0  0  0
 32 34  2  0  0  0  0
 33 32  1  0  0  0  0
M  END
>  <MODEL>
7

>  <REMARK>
 VINA RESULT:      -7.1      2.731      6.404
  Name = 
  8 active torsions:
  status: ('A' for Active; 'I' for Inactive)
    1  A    between atoms: C_1  and  N_9
    2  A    between atoms: C_2  and  C_23
    3  A    between atoms: C_2  and  C_32
    4  A    between atoms: C_3  and  C_23
    5  A    between atoms: C_7  and  C_11
    6  A    between atoms: C_8  and  N_9
    7  A    between atoms: C_8  and  N_18
    8  A    between atoms: N_18  and  C_30
                            x       y       z     vdW  Elec       q    Type
                         _______ _______ _______ _____ _____    ______ ____

>  <TORSDO>
F 8

$$$$
=
 OpenBabel11052420283D

 34 37  0  0  1  0  0  0  0  0999 V2000
  187.2580  177.6850  142.5990 C   0  0  0  0  0  0  0  0  0  0  0  0
  184.8450  178.9070  143.4890 C   0  0  0  0  0  3  0  0  0  0  0  0
  185.9500  177.5390  140.4370 C   0  0  0  0  0  3  0  0  0  0  0  0
  184.6920  177.9500  140.1320 N   0  0  0  0  0  0  0  0  0  0  0  0
  185.0060  178.4440  142.1890 C   0  0  0  0  0  0  0  0  0  0  0  0
  186.1560  177.8530  141.7630 C   0  0  0  0  0  0  0  0  0  0  0  0
  184.1580  178.4850  141.1970 O   0  0  0  0  0  0  0  0  0  0  0  0
  185.9200  178.7310  144.3810 C   0  0  0  0  0  0  0  0  0  0  0  0
  188.1460  177.8820  144.8610 O   0  0  0  0  0  1  0  0  0  0  0  0
  187.1210  178.1070  143.9480 C   0  0  0  0  0  0  0  0  0  0  0  0
  185.7840  179.2200  145.7850 C   0  0  0  0  0  2  0  0  0  0  0  0
  185.1610  178.1480  146.6720 C   0  0  2  0  0  3  0  0  0  0  0  0
  184.0660  178.6650  147.3430 F   0  0  0  0  0  0  0  0  0  0  0  0
  186.1760  177.6080  147.6730 C   0  0  0  0  0  0  0  0  0  0  0  0
  185.5670  177.4030  148.8980 F   0  0  0  0  0  0  0  0  0  0  0  0
  187.1970  178.5270  147.8290 F   0  0  0  0  0  0  0  0  0  0  0  0
  186.7090  176.4150  147.2190 F   0  0  0  0  0  0  0  0  0  0  0  0
  188.4480  177.0590  142.1000 N   0  0  0  0  0  2  0  0  0  0  0  0
  188.7540  175.6680  142.2260 C   0  0  0  0  0  0  0  0  0  0  0  0
  188.5800  174.7170  140.9030 S   0  0  0  0  0  0  0  0  0  0  0  0
  189.1990  175.1460  143.4920 N   0  0  0  0  0  2  0  0  0  0  0  0
  192.6910  175.7600  144.6400 C   0  0  0  0  0  3  0  0  0  0  0  0
  191.0330  173.5740  144.0750 C   0  0  0  0  0  3  0  0  0  0  0  0
  194.9950  172.9400  145.3340 C   0  0  0  0  0  0  0  0  0  0  0  0
  194.4980  174.2460  145.1980 C   0  0  0  0  0  3  0  0  0  0  0  0
  193.1830  174.4610  144.7790 C   0  0  0  0  0  0  0  0  0  0  0  0
  192.8400  172.0590  144.6270 C   0  0  0  0  0  3  0  0  0  0  0  0
  192.3470  173.3600  144.4930 C   0  0  0  0  0  0  0  0  0  0  0  0
  194.1580  171.8520  145.0470 C   0  0  0  0  0  3  0  0  0  0  0  0
  190.5320  174.8790  143.9470 C   0  0  0  0  0  0  0  0  0  0  0  0
  191.3730  175.9660  144.2220 C   0  0  0  0  0  3  0  0  0  0  0  0
  196.3820  172.7150  145.7750 C   0  0  0  0  0  0  0  0  0  0  0  0
  197.3140  173.7910  145.8050 N   0  0  0  0  0  1  0  0  0  0  0  0
  196.7580  171.5660  146.1320 O   0  0  0  0  0  0  0  0  0  0  0  0
  1 10  1  0  0  0  0
  2  8  1  0  0  0  0
  3  6  1  0  0  0  0
  4  3  2  0  0  0  0
  4  7  1  0  0  0  0
  5  2  2  0  0  0  0
  6  5  1  0  0  0  0
  6  1  2  0  0  0  0
  7  5  1  0  0  0  0
  8 11  1  0  0  0  0
 10  8  2  0  0  0  0
 10  9  1  0  0  0  0
 11 12  1  0  0  0  0
 12 13  1  1  0  0  0
 12 14  1  0  0  0  0
 14 16  1  0  0  0  0
 14 15  1  0  0  0  0
 17 14  1  0  0  0  0
 18 19  1  0  0  0  0
 18  1  1  0  0  0  0
 19 21  1  0  0  0  0
 20 19  2  0  0  0  0
 21 30  1  0  0  0  0
 22 26  1  0  0  0  0
 23 28  1  0  0  0  0
 24 32  1  0  0  0  0
 25 24  1  0  0  0  0
 26 25  2  0  0  0  0
 27 29  1  0  0  0  0
 28 27  2  0  0  0  0
 28 26  1  0  0  0  0
 29 24  2  0  0  0  0
 30 23  2  0  0  0  0
 30 31  1  0  0  0  0
 31 22  2  0  0  0  0
 32 33  1  0  0  0  0
 32 34  2  0  0  0  0
M  END
>  <MODEL>
8

>  <REMARK>
 VINA RESULT:      -6.9      2.554      7.320
  Name = 
  8 active torsions:
  status: ('A' for Active; 'I' for Inactive)
    1  A    between atoms: C_1  and  N_9
    2  A    between atoms: C_2  and  C_23
    3  A    between atoms: C_2  and  C_32
    4  A    between atoms: C_3  and  C_23
    5  A    between atoms: C_7  and  C_11
    6  A    between atoms: C_8  and  N_9
    7  A    between atoms: C_8  and  N_18
    8  A    between atoms: N_18  and  C_30
                            x       y       z     vdW  Elec       q    Type
                         _______ _______ _______ _____ _____    ______ ____

>  <TORSDO>
F 8

$$$$
=
 OpenBabel11052420283D

 34 37  0  0  1  0  0  0  0  0999 V2000
  192.8820  173.9690  142.6400 C   0  0  0  0  0  0  0  0  0  0  0  0
  194.7150  175.8730  143.6990 C   0  0  0  0  0  3  0  0  0  0  0  0
  193.8430  174.8130  140.4550 C   0  0  0  0  0  3  0  0  0  0  0  0
  194.7970  175.7470  140.2080 N   0  0  0  0  0  0  0  0  0  0  0  0
  194.5750  175.6580  142.3330 C   0  0  0  0  0  0  0  0  0  0  0  0
  193.6940  174.7540  141.8240 C   0  0  0  0  0  0  0  0  0  0  0  0
  195.2120  176.2300  141.3480 O   0  0  0  0  0  0  0  0  0  0  0  0
  193.8920  175.1260  144.5630 C   0  0  0  0  0  0  0  0  0  0  0  0
  192.1140  173.5060  144.9070 O   0  0  0  0  0  1  0  0  0  0  0  0
  192.9640  174.1860  144.0400 C   0  0  0  0  0  0  0  0  0  0  0  0
  194.0190  175.3280  146.0370 C   0  0  0  0  0  2  0  0  0  0  0  0
  193.3610  176.6360  146.4610 C   0  0  2  0  0  3  0  0  0  0  0  0
  194.2240  177.3630  147.2630 F   0  0  0  0  0  0  0  0  0  0  0  0
  192.0560  176.3760  147.2050 C   0  0  0  0  0  0  0  0  0  0  0  0
  190.9810  176.6300  146.3730 F   0  0  0  0  0  0  0  0  0  0  0  0
  191.9810  177.2130  148.3030 F   0  0  0  0  0  0  0  0  0  0  0  0
  192.0030  175.0620  147.6340 F   0  0  0  0  0  0  0  0  0  0  0  0
  191.9730  173.0280  142.0530 N   0  0  0  0  0  2  0  0  0  0  0  0
  190.5620  173.2240  141.9260 C   0  0  0  0  0  0  0  0  0  0  0  0
  189.5880  171.9130  142.0470 S   0  0  0  0  0  0  0  0  0  0  0  0
  190.0430  174.5460  141.6950 N   0  0  0  0  0  2  0  0  0  0  0  0
  187.2360  176.8710  142.4770 C   0  0  0  0  0  3  0  0  0  0  0  0
  189.0820  175.2850  143.8640 C   0  0  0  0  0  3  0  0  0  0  0  0
  186.2830  177.6000  145.9840 C   0  0  0  0  0  0  0  0  0  0  0  0
  186.2940  177.6170  144.5800 C   0  0  0  0  0  3  0  0  0  0  0  0
  187.2230  176.8500  143.8730 C   0  0  0  0  0  0  0  0  0  0  0  0
  188.1450  176.0340  145.9680 C   0  0  0  0  0  3  0  0  0  0  0  0
  188.1540  176.0520  144.5720 C   0  0  0  0  0  0  0  0  0  0  0  0
  187.2130  176.8050  146.6700 C   0  0  0  0  0  3  0  0  0  0  0  0
  189.0880  175.2940  142.4610 C   0  0  0  0  0  0  0  0  0  0  0  0
  188.1680  176.0990  141.7770 C   0  0  0  0  0  3  0  0  0  0  0  0
  185.3040  178.4100  146.7300 C   0  0  0  0  0  0  0  0  0  0  0  0
  185.7410  179.4170  147.6380 N   0  0  0  0  0  1  0  0  0  0  0  0
  184.0680  178.2190  146.5710 O   0  0  0  0  0  0  0  0  0  0  0  0
  1 10  1  0  0  0  0
  2  8  1  0  0  0  0
  3  6  1  0  0  0  0
  4  3  2  0  0  0  0
  4  7  1  0  0  0  0
  5  2  2  0  0  0  0
  6  5  1  0  0  0  0
  6  1  2  0  0  0  0
  7  5  1  0  0  0  0
  8 11  1  0  0  0  0
 10  8  2  0  0  0  0
 10  9  1  0  0  0  0
 11 12  1  0  0  0  0
 12 14  1  0  0  0  0
 12 13  1  1  0  0  0
 14 17  1  0  0  0  0
 14 16  1  0  0  0  0
 15 14  1  0  0  0  0
 18  1  1  0  0  0  0
 19 20  2  0  0  0  0
 19 18  1  0  0  0  0
 21 19  1  0  0  0  0
 21 30  1  0  0  0  0
 22 26  1  0  0  0  0
 23 28  1  0  0  0  0
 24 29  1  0  0  0  0
 24 32  1  0  0  0  0
 25 24  2  0  0  0  0
 26 28  2  0  0  0  0
 26 25  1  0  0  0  0
 27 29  2  0  0  0  0
 28 27  1  0  0  0  0
 30 23  2  0  0  0  0
 31 30  1  0  0  0  0
 31 22  2  0  0  0  0
 32 33  1  0  0  0  0
 34 32  2  0  0  0  0
M  END
>  <MODEL>
9

>  <REMARK>
 VINA RESULT:      -6.8      2.741      4.129
  Name = 
  8 active torsions:
  status: ('A' for Active; 'I' for Inactive)
    1  A    between atoms: C_1  and  N_9
    2  A    between atoms: C_2  and  C_23
    3  A    between atoms: C_2  and  C_32
    4  A    between atoms: C_3  and  C_23
    5  A    between atoms: C_7  and  C_11
    6  A    between atoms: C_8  and  N_9
    7  A    between atoms: C_8  and  N_18
    8  A    between atoms: N_18  and  C_30
                            x       y       z     vdW  Elec       q    Type
                         _______ _______ _______ _____ _____    ______ ____

>  <TORSDO>
F 8

$$$$
