=
 OpenBabel11052417353D

 25 27  0  0  0  0  0  0  0  0999 V2000
  187.2760  177.7980  143.3130 N   0  0  0  0  0  0  0  0  0  0  0  0
  187.1450  177.3600  144.5720 C   0  0  0  0  0  0  0  0  0  0  0  0
  186.3020  178.7360  143.1820 C   0  0  0  0  0  3  0  0  0  0  0  0
  185.5570  178.8820  144.3130 N   0  0  0  0  0  0  0  0  0  0  0  0
  185.7920  177.7660  146.5030 C   0  0  0  0  0  0  0  0  0  0  0  0
  184.6680  178.4680  147.1810 C   0  0  0  0  0  1  0  0  0  0  0  0
  187.9420  176.4830  145.2360 N   0  0  0  0  0  0  0  0  0  0  0  0
  188.2690  177.4630  142.3300 C   0  0  0  0  0  0  0  0  0  0  0  0
  188.6690  178.3570  141.5360 O   0  0  0  0  0  0  0  0  0  0  0  0
  186.5870  176.8410  147.2030 C   0  0  0  0  0  3  0  0  0  0  0  0
  187.6650  176.2020  146.5460 C   0  0  0  0  0  0  0  0  0  0  0  0
  186.1130  178.0040  145.1700 C   0  0  0  0  0  0  0  0  0  0  0  0
  188.8110  176.0940  142.2050 C   0  0  0  0  0  0  0  0  0  0  0  0
  189.7930  173.5080  142.0280 N   0  0  0  0  0  0  0  0  0  0  0  0
  187.9770  175.0430  141.8050 C   0  0  0  0  0  3  0  0  0  0  0  0
  188.4910  173.7470  141.7160 C   0  0  0  0  0  3  0  0  0  0  0  0
  190.6210  174.5070  142.4310 C   0  0  0  0  0  3  0  0  0  0  0  0
  190.1440  175.8150  142.5320 C   0  0  0  0  0  3  0  0  0  0  0  0
  188.5250  175.2460  147.2940 C   0  0  0  0  0  2  0  0  0  0  0  0
  189.7100  174.8380  146.4380 C   0  0  0  0  0  2  0  0  0  0  0  0
  190.9460  175.5100  146.9280 C   0  0  0  0  0  0  0  0  0  0  0  0
  191.3450  175.2910  148.1030 O   0  0  0  0  0  0  0  0  0  0  0  0
  191.6770  176.4420  146.0620 C   0  0  0  0  0  0  0  0  0  0  0  0
  191.0020  177.3510  145.3150 F   0  0  0  0  0  0  0  0  0  0  0  0
  192.9340  176.4040  146.0050 O   0  0  0  0  0  0  0  0  0  0  0  0
  1  2  1  0  0  0  0
  2 12  2  0  0  0  0
  2  7  1  0  0  0  0
  3  1  1  0  0  0  0
  3  4  2  0  0  0  0
  4 12  1  0  0  0  0
  5  6  1  0  0  0  0
  5 10  2  0  0  0  0
  7 11  2  0  0  0  0
  8  1  1  0  0  0  0
  9  8  2  0  0  0  0
 11 10  1  0  0  0  0
 11 19  1  0  0  0  0
 12  5  1  0  0  0  0
 13  8  1  0  0  0  0
 13 18  1  0  0  0  0
 14 17  1  0  0  0  0
 15 13  2  0  0  0  0
 16 15  1  0  0  0  0
 16 14  2  0  0  0  0
 17 18  2  0  0  0  0
 20 21  1  0  0  0  0
 20 19  1  0  0  0  0
 21 22  2  0  0  0  0
 23 21  1  0  0  0  0
 24 23  1  0  0  0  0
 25 23  2  0  0  0  0
M  END
>  <MODEL>
1

>  <REMARK>
 VINA RESULT:      -7.0      0.000      0.000
  Name = 
  5 active torsions:
  status: ('A' for Active; 'I' for Inactive)
    1  A    between atoms: C_2  and  C_21
    2  A    between atoms: C_5  and  C_18
    3  A    between atoms: C_6  and  C_15
    4  A    between atoms: C_6  and  C_23
    5  A    between atoms: C_15  and  C_21
                            x       y       z     vdW  Elec       q    Type
                         _______ _______ _______ _____ _____    ______ ____

>  <TORSDO>
F 5

$$$$
=
 OpenBabel11052417353D

 25 27  0  0  0  0  0  0  0  0999 V2000
  186.5400  176.8370  142.7800 N   0  0  0  0  0  0  0  0  0  0  0  0
  186.6220  176.7710  144.1160 C   0  0  0  0  0  0  0  0  0  0  0  0
  185.3810  177.5070  142.5480 C   0  0  0  0  0  3  0  0  0  0  0  0
  184.7300  177.8450  143.6970 N   0  0  0  0  0  0  0  0  0  0  0  0
  185.3990  177.4790  146.0460 C   0  0  0  0  0  0  0  0  0  0  0  0
  184.2200  178.1390  146.6700 C   0  0  0  0  0  1  0  0  0  0  0  0
  187.6450  176.2820  144.8640 N   0  0  0  0  0  0  0  0  0  0  0  0
  187.4860  176.4090  141.7870 C   0  0  0  0  0  0  0  0  0  0  0  0
  187.6120  177.0870  140.7310 O   0  0  0  0  0  0  0  0  0  0  0  0
  186.4340  176.9560  146.8420 C   0  0  0  0  0  3  0  0  0  0  0  0
  187.5570  176.3530  146.2270 C   0  0  0  0  0  0  0  0  0  0  0  0
  185.5370  177.3690  144.6650 C   0  0  0  0  0  0  0  0  0  0  0  0
  188.2920  175.1830  141.9540 C   0  0  0  0  0  0  0  0  0  0  0  0
  189.7750  172.8710  142.3320 N   0  0  0  0  0  0  0  0  0  0  0  0
  187.6760  173.9260  141.9010 C   0  0  0  0  0  3  0  0  0  0  0  0
  188.4400  172.7720  142.0880 C   0  0  0  0  0  3  0  0  0  0  0  0
  190.3960  174.0780  142.4020 C   0  0  0  0  0  3  0  0  0  0  0  0
  189.6650  175.2540  142.2200 C   0  0  0  0  0  3  0  0  0  0  0  0
  188.6650  175.8260  147.0670 C   0  0  0  0  0  2  0  0  0  0  0  0
  189.6220  175.0160  146.2120 C   0  0  0  0  0  2  0  0  0  0  0  0
  190.9670  175.6560  146.2100 C   0  0  0  0  0  0  0  0  0  0  0  0
  191.8210  175.3050  147.0670 O   0  0  0  0  0  0  0  0  0  0  0  0
  191.2880  176.7060  145.2360 C   0  0  0  0  0  0  0  0  0  0  0  0
  190.4920  177.7990  145.1250 F   0  0  0  0  0  0  0  0  0  0  0  0
  192.3010  176.6000  144.4970 O   0  0  0  0  0  0  0  0  0  0  0  0
  1  2  1  0  0  0  0
  2 12  2  0  0  0  0
  2  7  1  0  0  0  0
  3  1  1  0  0  0  0
  3  4  2  0  0  0  0
  4 12  1  0  0  0  0
  5  6  1  0  0  0  0
  5 10  2  0  0  0  0
  7 11  2  0  0  0  0
  8 13  1  0  0  0  0
  8  1  1  0  0  0  0
  9  8  2  0  0  0  0
 11 10  1  0  0  0  0
 11 19  1  0  0  0  0
 12  5  1  0  0  0  0
 13 18  1  0  0  0  0
 14 17  1  0  0  0  0
 15 13  2  0  0  0  0
 15 16  1  0  0  0  0
 16 14  2  0  0  0  0
 18 17  2  0  0  0  0
 20 19  1  0  0  0  0
 21 20  1  0  0  0  0
 21 22  2  0  0  0  0
 23 21  1  0  0  0  0
 24 23  1  0  0  0  0
 25 23  2  0  0  0  0
M  END
>  <MODEL>
2

>  <REMARK>
 VINA RESULT:      -6.9      1.006      1.037
  Name = 
  5 active torsions:
  status: ('A' for Active; 'I' for Inactive)
    1  A    between atoms: C_2  and  C_21
    2  A    between atoms: C_5  and  C_18
    3  A    between atoms: C_6  and  C_15
    4  A    between atoms: C_6  and  C_23
    5  A    between atoms: C_15  and  C_21
                            x       y       z     vdW  Elec       q    Type
                         _______ _______ _______ _____ _____    ______ ____

>  <TORSDO>
F 5

$$$$
=
 OpenBabel11052417353D

 25 27  0  0  0  0  0  0  0  0999 V2000
  186.5250  177.0450  142.8240 N   0  0  0  0  0  0  0  0  0  0  0  0
  186.5160  176.9180  144.1580 C   0  0  0  0  0  0  0  0  0  0  0  0
  185.4070  177.7680  142.5490 C   0  0  0  0  0  3  0  0  0  0  0  0
  184.6930  178.0780  143.6670 N   0  0  0  0  0  0  0  0  0  0  0  0
  185.1920  177.5860  146.0360 C   0  0  0  0  0  0  0  0  0  0  0  0
  183.9970  178.2610  146.6110 C   0  0  0  0  0  1  0  0  0  0  0  0
  187.4690  176.3600  144.9470 N   0  0  0  0  0  0  0  0  0  0  0  0
  187.5190  176.6270  141.8750 C   0  0  0  0  0  0  0  0  0  0  0  0
  187.7380  177.3450  140.8620 O   0  0  0  0  0  0  0  0  0  0  0  0
  186.1540  176.9910  146.8710 C   0  0  0  0  0  3  0  0  0  0  0  0
  187.2940  176.3740  146.3030 C   0  0  0  0  0  0  0  0  0  0  0  0
  185.4170  177.5320  144.6630 C   0  0  0  0  0  0  0  0  0  0  0  0
  188.2700  175.3660  142.0380 C   0  0  0  0  0  0  0  0  0  0  0  0
  189.7090  173.0090  142.2810 N   0  0  0  0  0  0  0  0  0  0  0  0
  189.6530  175.3960  142.2590 C   0  0  0  0  0  3  0  0  0  0  0  0
  190.3600  174.1980  142.3850 C   0  0  0  0  0  3  0  0  0  0  0  0
  188.3700  172.9490  142.0520 C   0  0  0  0  0  3  0  0  0  0  0  0
  187.6290  174.1260  141.9220 C   0  0  0  0  0  3  0  0  0  0  0  0
  188.3260  175.7710  147.1880 C   0  0  0  0  0  2  0  0  0  0  0  0
  189.3890  175.0850  146.3500 C   0  0  0  0  0  2  0  0  0  0  0  0
  190.7010  175.7610  146.5420 C   0  0  0  0  0  0  0  0  0  0  0  0
  191.3510  176.1510  145.5350 O   0  0  0  0  0  0  0  0  0  0  0  0
  191.2490  175.9490  147.8900 C   0  0  0  0  0  0  0  0  0  0  0  0
  191.4610  174.8780  148.6950 F   0  0  0  0  0  0  0  0  0  0  0  0
  191.5250  177.1030  148.3100 O   0  0  0  0  0  0  0  0  0  0  0  0
  1  2  1  0  0  0  0
  2 12  2  0  0  0  0
  2  7  1  0  0  0  0
  3  1  1  0  0  0  0
  3  4  2  0  0  0  0
  4 12  1  0  0  0  0
  5  6  1  0  0  0  0
  5 10  2  0  0  0  0
  7 11  2  0  0  0  0
  8 13  1  0  0  0  0
  8  1  1  0  0  0  0
  9  8  2  0  0  0  0
 11 10  1  0  0  0  0
 11 19  1  0  0  0  0
 12  5  1  0  0  0  0
 13 15  1  0  0  0  0
 14 16  1  0  0  0  0
 15 16  2  0  0  0  0
 17 14  2  0  0  0  0
 18 13  2  0  0  0  0
 18 17  1  0  0  0  0
 20 21  1  0  0  0  0
 20 19  1  0  0  0  0
 21 23  1  0  0  0  0
 22 21  2  0  0  0  0
 23 25  2  0  0  0  0
 23 24  1  0  0  0  0
M  END
>  <MODEL>
3

>  <REMARK>
 VINA RESULT:      -6.8      1.301      1.746
  Name = 
  5 active torsions:
  status: ('A' for Active; 'I' for Inactive)
    1  A    between atoms: C_2  and  C_21
    2  A    between atoms: C_5  and  C_18
    3  A    between atoms: C_6  and  C_15
    4  A    between atoms: C_6  and  C_23
    5  A    between atoms: C_15  and  C_21
                            x       y       z     vdW  Elec       q    Type
                         _______ _______ _______ _____ _____    ______ ____

>  <TORSDO>
F 5

$$$$
=
 OpenBabel11052417353D

 25 27  0  0  0  0  0  0  0  0999 V2000
  186.2310  177.4280  145.4970 N   0  0  0  0  0  0  0  0  0  0  0  0
  186.5400  177.0960  144.2360 C   0  0  0  0  0  0  0  0  0  0  0  0
  185.2010  178.3060  145.3700 C   0  0  0  0  0  3  0  0  0  0  0  0
  184.8730  178.5450  144.0690 N   0  0  0  0  0  0  0  0  0  0  0  0
  185.8140  177.5690  142.0060 C   0  0  0  0  0  0  0  0  0  0  0  0
  184.9310  178.2910  141.0500 C   0  0  0  0  0  1  0  0  0  0  0  0
  187.4420  176.1720  143.8160 N   0  0  0  0  0  0  0  0  0  0  0  0
  186.7620  176.9170  146.7300 C   0  0  0  0  0  0  0  0  0  0  0  0
  185.9930  176.7880  147.7210 O   0  0  0  0  0  0  0  0  0  0  0  0
  186.7600  176.6350  141.5460 C   0  0  0  0  0  3  0  0  0  0  0  0
  187.5740  175.9440  142.4730 C   0  0  0  0  0  0  0  0  0  0  0  0
  185.7310  177.7690  143.3810 C   0  0  0  0  0  0  0  0  0  0  0  0
  188.1890  176.5660  146.8780 C   0  0  0  0  0  0  0  0  0  0  0  0
  190.8570  175.8960  147.2240 N   0  0  0  0  0  0  0  0  0  0  0  0
  188.5660  175.2340  147.0930 C   0  0  0  0  0  3  0  0  0  0  0  0
  189.9160  174.9160  147.2590 C   0  0  0  0  0  3  0  0  0  0  0  0
  190.5190  177.1980  147.0310 C   0  0  0  0  0  3  0  0  0  0  0  0
  189.1800  177.5570  146.8600 C   0  0  0  0  0  3  0  0  0  0  0  0
  188.5540  174.9350  141.9890 C   0  0  0  0  0  2  0  0  0  0  0  0
  189.4170  174.4570  143.1430 C   0  0  0  0  0  2  0  0  0  0  0  0
  189.3230  172.9760  143.2680 C   0  0  0  0  0  0  0  0  0  0  0  0
  188.6530  172.3250  142.4220 O   0  0  0  0  0  0  0  0  0  0  0  0
  189.9800  172.2820  144.3810 C   0  0  0  0  0  0  0  0  0  0  0  0
  189.3170  172.0840  145.5480 F   0  0  0  0  0  0  0  0  0  0  0  0
  191.1620  171.8670  144.2630 O   0  0  0  0  0  0  0  0  0  0  0  0
  1  8  1  0  0  0  0
  2  1  1  0  0  0  0
  3  1  1  0  0  0  0
  4  3  2  0  0  0  0
  5 12  1  0  0  0  0
  6  5  1  0  0  0  0
  7  2  1  0  0  0  0
  8 13  1  0  0  0  0
  8  9  2  0  0  0  0
 10  5  2  0  0  0  0
 10 11  1  0  0  0  0
 11  7  2  0  0  0  0
 12  4  1  0  0  0  0
 12  2  2  0  0  0  0
 13 15  1  0  0  0  0
 14 16  1  0  0  0  0
 15 16  2  0  0  0  0
 17 14  2  0  0  0  0
 18 13  2  0  0  0  0
 18 17  1  0  0  0  0
 19 11  1  0  0  0  0
 19 20  1  0  0  0  0
 20 21  1  0  0  0  0
 21 23  1  0  0  0  0
 22 21  2  0  0  0  0
 23 24  1  0  0  0  0
 25 23  2  0  0  0  0
M  END
>  <MODEL>
4

>  <REMARK>
 VINA RESULT:      -6.5      2.730      4.716
  Name = 
  5 active torsions:
  status: ('A' for Active; 'I' for Inactive)
    1  A    between atoms: C_2  and  C_21
    2  A    between atoms: C_5  and  C_18
    3  A    between atoms: C_6  and  C_15
    4  A    between atoms: C_6  and  C_23
    5  A    between atoms: C_15  and  C_21
                            x       y       z     vdW  Elec       q    Type
                         _______ _______ _______ _____ _____    ______ ____

>  <TORSDO>
F 5

$$$$
=
 OpenBabel11052417353D

 25 27  0  0  0  0  0  0  0  0999 V2000
  186.1930  177.3710  145.4970 N   0  0  0  0  0  0  0  0  0  0  0  0
  186.5250  177.0730  144.2330 C   0  0  0  0  0  0  0  0  0  0  0  0
  185.1430  178.2250  145.3750 C   0  0  0  0  0  3  0  0  0  0  0  0
  184.8240  178.4820  144.0750 N   0  0  0  0  0  0  0  0  0  0  0  0
  185.8130  177.5720  142.0040 C   0  0  0  0  0  0  0  0  0  0  0  0
  184.9230  178.2910  141.0520 C   0  0  0  0  0  1  0  0  0  0  0  0
  187.4550  176.1810  143.8050 N   0  0  0  0  0  0  0  0  0  0  0  0
  186.7230  176.8480  146.7250 C   0  0  0  0  0  0  0  0  0  0  0  0
  185.9460  176.6800  147.7040 O   0  0  0  0  0  0  0  0  0  0  0  0
  186.7880  176.6730  141.5370 C   0  0  0  0  0  3  0  0  0  0  0  0
  187.6090  175.9840  142.4600 C   0  0  0  0  0  0  0  0  0  0  0  0
  185.7090  177.7420  143.3820 C   0  0  0  0  0  0  0  0  0  0  0  0
  188.1570  176.5320  146.8830 C   0  0  0  0  0  0  0  0  0  0  0  0
  190.8370  175.9220  147.2470 N   0  0  0  0  0  0  0  0  0  0  0  0
  188.5670  175.2040  147.0670 C   0  0  0  0  0  3  0  0  0  0  0  0
  189.9220  174.9170  147.2430 C   0  0  0  0  0  3  0  0  0  0  0  0
  190.4670  177.2200  147.0860 C   0  0  0  0  0  3  0  0  0  0  0  0
  189.1210  177.5470  146.9060 C   0  0  0  0  0  3  0  0  0  0  0  0
  188.6200  175.0100  141.9680 C   0  0  0  0  0  2  0  0  0  0  0  0
  189.6530  174.7460  143.0480 C   0  0  0  0  0  2  0  0  0  0  0  0
  190.8950  175.5170  142.7620 C   0  0  0  0  0  0  0  0  0  0  0  0
  191.7420  175.0500  141.9550 O   0  0  0  0  0  0  0  0  0  0  0  0
  191.1450  176.7970  143.4350 C   0  0  0  0  0  0  0  0  0  0  0  0
  190.2130  177.7820  143.3940 F   0  0  0  0  0  0  0  0  0  0  0  0
  192.2240  176.9910  144.0530 O   0  0  0  0  0  0  0  0  0  0  0  0
  1  8  1  0  0  0  0
  2  1  1  0  0  0  0
  3  1  1  0  0  0  0
  4  3  2  0  0  0  0
  5 12  1  0  0  0  0
  6  5  1  0  0  0  0
  7  2  1  0  0  0  0
  8 13  1  0  0  0  0
  8  9  2  0  0  0  0
 10  5  2  0  0  0  0
 10 11  1  0  0  0  0
 11  7  2  0  0  0  0
 12  4  1  0  0  0  0
 12  2  2  0  0  0  0
 13 18  2  0  0  0  0
 13 15  1  0  0  0  0
 15 16  2  0  0  0  0
 16 14  1  0  0  0  0
 17 14  2  0  0  0  0
 18 17  1  0  0  0  0
 19 11  1  0  0  0  0
 19 20  1  0  0  0  0
 21 20  1  0  0  0  0
 21 23  1  0  0  0  0
 22 21  2  0  0  0  0
 23 25  2  0  0  0  0
 24 23  1  0  0  0  0
M  END
>  <MODEL>
5

>  <REMARK>
 VINA RESULT:      -6.5      2.110      4.380
  Name = 
  5 active torsions:
  status: ('A' for Active; 'I' for Inactive)
    1  A    between atoms: C_2  and  C_21
    2  A    between atoms: C_5  and  C_18
    3  A    between atoms: C_6  and  C_15
    4  A    between atoms: C_6  and  C_23
    5  A    between atoms: C_15  and  C_21
                            x       y       z     vdW  Elec       q    Type
                         _______ _______ _______ _____ _____    ______ ____

>  <TORSDO>
F 5

$$$$
=
 OpenBabel11052417353D

 25 27  0  0  0  0  0  0  0  0999 V2000
  187.9540  176.4640  146.5040 N   0  0  0  0  0  0  0  0  0  0  0  0
  187.6760  177.0540  145.3340 C   0  0  0  0  0  0  0  0  0  0  0  0
  187.0380  176.9810  147.3650 C   0  0  0  0  0  3  0  0  0  0  0  0
  186.2120  177.8870  146.7720 N   0  0  0  0  0  0  0  0  0  0  0  0
  186.1170  178.6200  144.4160 C   0  0  0  0  0  0  0  0  0  0  0  0
  184.9710  179.5580  144.5690 C   0  0  0  0  0  1  0  0  0  0  0  0
  188.2420  176.8110  144.1230 N   0  0  0  0  0  0  0  0  0  0  0  0
  188.9150  175.4380  146.8020 C   0  0  0  0  0  0  0  0  0  0  0  0
  188.6270  174.5630  147.6630 O   0  0  0  0  0  0  0  0  0  0  0  0
  186.7050  178.4040  143.1570 C   0  0  0  0  0  3  0  0  0  0  0  0
  187.7780  177.4900  143.0300 C   0  0  0  0  0  0  0  0  0  0  0  0
  186.6370  177.9100  145.4950 C   0  0  0  0  0  0  0  0  0  0  0  0
  190.2390  175.3980  146.1490 C   0  0  0  0  0  0  0  0  0  0  0  0
  192.7450  175.2710  144.9700 N   0  0  0  0  0  0  0  0  0  0  0  0
  190.5980  174.2990  145.3580 C   0  0  0  0  0  3  0  0  0  0  0  0
  191.8630  174.2560  144.7680 C   0  0  0  0  0  3  0  0  0  0  0  0
  192.4280  176.3420  145.7440 C   0  0  0  0  0  3  0  0  0  0  0  0
  191.1730  176.4220  146.3510 C   0  0  0  0  0  3  0  0  0  0  0  0
  188.3810  177.2390  141.6940 C   0  0  0  0  0  2  0  0  0  0  0  0
  187.5340  176.2440  140.9230 C   0  0  0  0  0  2  0  0  0  0  0  0
  188.3340  175.0260  140.6150 C   0  0  0  0  0  0  0  0  0  0  0  0
  188.3140  174.5510  139.4480 O   0  0  0  0  0  0  0  0  0  0  0  0
  189.1190  174.3680  141.6660 C   0  0  0  0  0  0  0  0  0  0  0  0
  188.5010  173.8690  142.7660 F   0  0  0  0  0  0  0  0  0  0  0  0
  190.3680  174.2630  141.5560 O   0  0  0  0  0  0  0  0  0  0  0  0
  1  8  1  0  0  0  0
  1  3  1  0  0  0  0
  2 12  1  0  0  0  0
  2  1  1  0  0  0  0
  4  3  2  0  0  0  0
  5  6  1  0  0  0  0
  5 12  2  0  0  0  0
  7  2  2  0  0  0  0
  8  9  2  0  0  0  0
 10  5  1  0  0  0  0
 11 10  2  0  0  0  0
 11  7  1  0  0  0  0
 12  4  1  0  0  0  0
 13 18  1  0  0  0  0
 13  8  1  0  0  0  0
 14 17  1  0  0  0  0
 15 13  2  0  0  0  0
 16 14  2  0  0  0  0
 16 15  1  0  0  0  0
 17 18  2  0  0  0  0
 19 11  1  0  0  0  0
 20 19  1  0  0  0  0
 21 20  1  0  0  0  0
 21 23  1  0  0  0  0
 22 21  2  0  0  0  0
 23 24  1  0  0  0  0
 25 23  2  0  0  0  0
M  END
>  <MODEL>
6

>  <REMARK>
 VINA RESULT:      -6.4      2.298      4.773
  Name = 
  5 active torsions:
  status: ('A' for Active; 'I' for Inactive)
    1  A    between atoms: C_2  and  C_21
    2  A    between atoms: C_5  and  C_18
    3  A    between atoms: C_6  and  C_15
    4  A    between atoms: C_6  and  C_23
    5  A    between atoms: C_15  and  C_21
                            x       y       z     vdW  Elec       q    Type
                         _______ _______ _______ _____ _____    ______ ____

>  <TORSDO>
F 5

$$$$
=
 OpenBabel11052417353D

 25 27  0  0  0  0  0  0  0  0999 V2000
  186.3980  177.9860  145.2770 N   0  0  0  0  0  0  0  0  0  0  0  0
  187.3230  177.0710  144.9560 C   0  0  0  0  0  0  0  0  0  0  0  0
  186.2920  177.8960  146.6290 C   0  0  0  0  0  3  0  0  0  0  0  0
  187.1080  176.9400  147.1570 N   0  0  0  0  0  0  0  0  0  0  0  0
  188.7420  175.4710  146.0300 C   0  0  0  0  0  0  0  0  0  0  0  0
  189.2250  174.7730  147.2530 C   0  0  0  0  0  1  0  0  0  0  0  0
  187.8650  176.8270  143.7350 N   0  0  0  0  0  0  0  0  0  0  0  0
  185.7290  178.9380  144.4350 C   0  0  0  0  0  0  0  0  0  0  0  0
  185.4560  180.0790  144.8990 O   0  0  0  0  0  0  0  0  0  0  0  0
  189.2990  175.1840  144.7720 C   0  0  0  0  0  3  0  0  0  0  0  0
  188.8410  175.8750  143.6250 C   0  0  0  0  0  0  0  0  0  0  0  0
  187.7440  176.4410  146.0810 C   0  0  0  0  0  0  0  0  0  0  0  0
  185.3250  178.6090  143.0530 C   0  0  0  0  0  0  0  0  0  0  0  0
  184.5600  177.9240  140.4780 N   0  0  0  0  0  0  0  0  0  0  0  0
  184.0000  178.2480  142.7770 C   0  0  0  0  0  3  0  0  0  0  0  0
  183.6330  177.9110  141.4720 C   0  0  0  0  0  3  0  0  0  0  0  0
  185.8560  178.2570  140.7200 C   0  0  0  0  0  3  0  0  0  0  0  0
  186.2610  178.6000  142.0120 C   0  0  0  0  0  3  0  0  0  0  0  0
  189.4510  175.5930  142.2990 C   0  0  0  0  0  2  0  0  0  0  0  0
  188.3860  175.1050  141.3340 C   0  0  0  0  0  2  0  0  0  0  0  0
  188.5800  173.6540  141.0550 C   0  0  0  0  0  0  0  0  0  0  0  0
  189.1270  173.2980  139.9780 O   0  0  0  0  0  0  0  0  0  0  0  0
  188.1140  172.6460  142.0140 C   0  0  0  0  0  0  0  0  0  0  0  0
  186.7980  172.3230  142.0770 F   0  0  0  0  0  0  0  0  0  0  0  0
  188.9290  172.0760  142.7840 O   0  0  0  0  0  0  0  0  0  0  0  0
  1  3  1  0  0  0  0
  2  1  1  0  0  0  0
  2 12  1  0  0  0  0
  3  4  2  0  0  0  0
  5 12  2  0  0  0  0
  5  6  1  0  0  0  0
  7  2  2  0  0  0  0
  8  9  2  0  0  0  0
  8  1  1  0  0  0  0
 10  5  1  0  0  0  0
 11  7  1  0  0  0  0
 11 10  2  0  0  0  0
 12  4  1  0  0  0  0
 13  8  1  0  0  0  0
 14 17  2  0  0  0  0
 14 16  1  0  0  0  0
 15 13  1  0  0  0  0
 16 15  2  0  0  0  0
 17 18  1  0  0  0  0
 18 13  2  0  0  0  0
 19 11  1  0  0  0  0
 20 19  1  0  0  0  0
 21 20  1  0  0  0  0
 21 23  1  0  0  0  0
 22 21  2  0  0  0  0
 23 24  1  0  0  0  0
 23 25  2  0  0  0  0
M  END
>  <MODEL>
7

>  <REMARK>
 VINA RESULT:      -6.3      2.987      5.162
  Name = 
  5 active torsions:
  status: ('A' for Active; 'I' for Inactive)
    1  A    between atoms: C_2  and  C_21
    2  A    between atoms: C_5  and  C_18
    3  A    between atoms: C_6  and  C_15
    4  A    between atoms: C_6  and  C_23
    5  A    between atoms: C_15  and  C_21
                            x       y       z     vdW  Elec       q    Type
                         _______ _______ _______ _____ _____    ______ ____

>  <TORSDO>
F 5

$$$$
=
 OpenBabel11052417353D

 25 27  0  0  0  0  0  0  0  0999 V2000
  186.1560  177.3140  145.1960 N   0  0  0  0  0  0  0  0  0  0  0  0
  186.6200  177.0900  143.9590 C   0  0  0  0  0  0  0  0  0  0  0  0
  185.0520  178.0820  145.0050 C   0  0  0  0  0  3  0  0  0  0  0  0
  184.8240  178.3600  143.6910 N   0  0  0  0  0  0  0  0  0  0  0  0
  186.0630  177.6090  141.6900 C   0  0  0  0  0  0  0  0  0  0  0  0
  185.2000  178.2860  140.6840 C   0  0  0  0  0  1  0  0  0  0  0  0
  187.6560  176.2940  143.5900 N   0  0  0  0  0  0  0  0  0  0  0  0
  186.6210  176.7930  146.4510 C   0  0  0  0  0  0  0  0  0  0  0  0
  185.7790  176.5270  147.3520 O   0  0  0  0  0  0  0  0  0  0  0  0
  187.1480  176.8100  141.2860 C   0  0  0  0  0  3  0  0  0  0  0  0
  187.9420  176.1580  142.2590 C   0  0  0  0  0  0  0  0  0  0  0  0
  185.8260  177.7200  143.0580 C   0  0  0  0  0  0  0  0  0  0  0  0
  188.0580  176.5900  146.7270 C   0  0  0  0  0  0  0  0  0  0  0  0
  190.7380  176.1900  147.3100 N   0  0  0  0  0  0  0  0  0  0  0  0
  188.5650  175.2940  146.8880 C   0  0  0  0  0  3  0  0  0  0  0  0
  189.9190  175.1120  147.1760 C   0  0  0  0  0  3  0  0  0  0  0  0
  190.2700  177.4580  147.1730 C   0  0  0  0  0  3  0  0  0  0  0  0
  188.9220  177.6810  146.8850 C   0  0  0  0  0  3  0  0  0  0  0  0
  189.0710  175.2900  141.8310 C   0  0  0  0  0  2  0  0  0  0  0  0
  188.9200  173.9080  142.4410 C   0  0  0  0  0  2  0  0  0  0  0  0
  188.1150  173.0390  141.5380 C   0  0  0  0  0  0  0  0  0  0  0  0
  187.1580  172.3720  142.0130 O   0  0  0  0  0  0  0  0  0  0  0  0
  188.4500  172.9380  140.1130 C   0  0  0  0  0  0  0  0  0  0  0  0
  187.8250  173.7330  139.2080 F   0  0  0  0  0  0  0  0  0  0  0  0
  189.3170  172.1150  139.7200 O   0  0  0  0  0  0  0  0  0  0  0  0
  1  8  1  0  0  0  0
  2  1  1  0  0  0  0
  3  1  1  0  0  0  0
  4  3  2  0  0  0  0
  5 12  1  0  0  0  0
  6  5  1  0  0  0  0
  7  2  1  0  0  0  0
  8 13  1  0  0  0  0
  8  9  2  0  0  0  0
 10  5  2  0  0  0  0
 10 11  1  0  0  0  0
 11  7  2  0  0  0  0
 12  4  1  0  0  0  0
 12  2  2  0  0  0  0
 13 18  2  0  0  0  0
 13 15  1  0  0  0  0
 15 16  2  0  0  0  0
 16 14  1  0  0  0  0
 17 14  2  0  0  0  0
 18 17  1  0  0  0  0
 19 11  1  0  0  0  0
 19 20  1  0  0  0  0
 21 22  2  0  0  0  0
 21 20  1  0  0  0  0
 23 21  1  0  0  0  0
 24 23  1  0  0  0  0
 25 23  2  0  0  0  0
M  END
>  <MODEL>
8

>  <REMARK>
 VINA RESULT:      -6.2      3.052      5.370
  Name = 
  5 active torsions:
  status: ('A' for Active; 'I' for Inactive)
    1  A    between atoms: C_2  and  C_21
    2  A    between atoms: C_5  and  C_18
    3  A    between atoms: C_6  and  C_15
    4  A    between atoms: C_6  and  C_23
    5  A    between atoms: C_15  and  C_21
                            x       y       z     vdW  Elec       q    Type
                         _______ _______ _______ _____ _____    ______ ____

>  <TORSDO>
F 5

$$$$
=
 OpenBabel11052417353D

 25 27  0  0  0  0  0  0  0  0999 V2000
  189.2710  176.2400  146.4970 N   0  0  0  0  0  0  0  0  0  0  0  0
  189.2310  175.5710  145.3370 C   0  0  0  0  0  0  0  0  0  0  0  0
  190.2470  175.6180  147.2090 C   0  0  0  0  0  3  0  0  0  0  0  0
  190.8020  174.5710  146.5360 N   0  0  0  0  0  0  0  0  0  0  0  0
  190.3390  173.7460  144.2550 C   0  0  0  0  0  0  0  0  0  0  0  0
  191.3400  172.6450  144.2590 C   0  0  0  0  0  1  0  0  0  0  0  0
  188.4880  175.8550  144.2360 N   0  0  0  0  0  0  0  0  0  0  0  0
  188.5470  177.4150  146.8960 C   0  0  0  0  0  0  0  0  0  0  0  0
  189.1190  178.2650  147.6310 O   0  0  0  0  0  0  0  0  0  0  0  0
  189.5600  174.0060  143.1130 C   0  0  0  0  0  3  0  0  0  0  0  0
  188.6300  175.0720  143.1240 C   0  0  0  0  0  0  0  0  0  0  0  0
  190.1440  174.5690  145.3620 C   0  0  0  0  0  0  0  0  0  0  0  0
  187.1430  177.6400  146.4950 C   0  0  0  0  0  0  0  0  0  0  0  0
  184.5050  178.1150  145.7870 N   0  0  0  0  0  0  0  0  0  0  0  0
  186.8000  178.7750  145.7480 C   0  0  0  0  0  3  0  0  0  0  0  0
  185.4670  178.9940  145.3960 C   0  0  0  0  0  3  0  0  0  0  0  0
  184.8080  177.0130  146.5240 C   0  0  0  0  0  3  0  0  0  0  0  0
  186.1300  176.7600  146.8950 C   0  0  0  0  0  3  0  0  0  0  0  0
  187.8280  175.3650  141.9060 C   0  0  0  0  0  2  0  0  0  0  0  0
  187.9820  176.8260  141.5260 C   0  0  0  0  0  2  0  0  0  0  0  0
  186.6950  177.3500  140.9910 C   0  0  0  0  0  0  0  0  0  0  0  0
  186.5680  177.5330  139.7510 O   0  0  0  0  0  0  0  0  0  0  0  0
  185.5920  177.6780  141.9010 C   0  0  0  0  0  0  0  0  0  0  0  0
  185.2650  176.8320  142.9090 F   0  0  0  0  0  0  0  0  0  0  0  0
  184.9400  178.7450  141.7530 O   0  0  0  0  0  0  0  0  0  0  0  0
  1  8  1  0  0  0  0
  1  3  1  0  0  0  0
  2 12  1  0  0  0  0
  2  1  1  0  0  0  0
  4  3  2  0  0  0  0
  5  6  1  0  0  0  0
  5 12  2  0  0  0  0
  7  2  2  0  0  0  0
  8  9  2  0  0  0  0
 10 11  2  0  0  0  0
 10  5  1  0  0  0  0
 11  7  1  0  0  0  0
 12  4  1  0  0  0  0
 13 18  1  0  0  0  0
 13  8  1  0  0  0  0
 14 17  1  0  0  0  0
 15 13  2  0  0  0  0
 16 15  1  0  0  0  0
 16 14  2  0  0  0  0
 17 18  2  0  0  0  0
 19 11  1  0  0  0  0
 20 19  1  0  0  0  0
 21 20  1  0  0  0  0
 21 23  1  0  0  0  0
 22 21  2  0  0  0  0
 23 24  1  0  0  0  0
 25 23  2  0  0  0  0
M  END
>  <MODEL>
9

>  <REMARK>
 VINA RESULT:      -6.1      2.371      6.449
  Name = 
  5 active torsions:
  status: ('A' for Active; 'I' for Inactive)
    1  A    between atoms: C_2  and  C_21
    2  A    between atoms: C_5  and  C_18
    3  A    between atoms: C_6  and  C_15
    4  A    between atoms: C_6  and  C_23
    5  A    between atoms: C_15  and  C_21
                            x       y       z     vdW  Elec       q    Type
                         _______ _______ _______ _____ _____    ______ ____

>  <TORSDO>
F 5

$$$$
