=
 OpenBabel11052421273D

 32 38  0  0  1  0  0  0  0  0999 V2000
  191.7850  175.0370  147.2440 C   0  0  0  0  0  2  0  0  0  0  0  0
  188.4360  177.5180  144.6420 C   0  0  0  0  0  0  0  0  0  0  0  0
  184.9750  178.3600  147.9950 C   0  0  0  0  0  3  0  0  0  0  0  0
  183.9580  178.3250  146.8900 C   0  0  0  0  0  2  0  0  0  0  0  0
  187.7380  178.3100  142.2970 C   0  0  2  0  0  3  0  0  0  0  0  0
  188.4190  177.0790  141.7990 C   0  0  0  0  0  0  0  0  0  0  0  0
  190.3260  176.1180  145.2980 C   0  0  1  0  0  3  0  0  0  0  0  0
  188.4590  176.5810  146.8710 N   0  0  0  0  0  2  0  0  0  0  0  0
  185.8540  177.7280  140.6510 C   0  0  0  0  0  0  0  0  0  0  0  0
  190.2970  175.0910  147.6040 C   0  0  0  0  0  2  0  0  0  0  0  0
  186.2760  178.2250  147.7280 C   0  0  0  0  0  3  0  0  0  0  0  0
  187.9440  177.4400  146.0380 C   0  0  0  0  0  0  0  0  0  0  0  0
  186.7370  178.1610  146.3700 N   0  0  0  0  0  0  0  0  0  0  0  0
  186.3110  178.6310  144.0430 C   0  0  0  0  0  0  0  0  0  0  0  0
  186.6330  176.7670  140.1290 C   0  0  0  0  0  3  0  0  0  0  0  0
  189.4480  175.5910  146.4380 C   0  0  2  0  0  3  0  0  0  0  0  0
  187.9290  176.3900  140.7560 C   0  0  0  0  0  3  0  0  0  0  0  0
  191.1220  175.0720  144.7870 O   0  0  0  0  0  0  0  0  0  0  0  0
  192.0080  174.5660  145.7850 C   0  0  1  0  0  3  0  0  0  0  0  0
  184.4570  179.0370  145.6330 C   0  0  0  0  0  2  0  0  0  0  0  0
  185.8570  178.6030  145.3040 C   0  0  0  0  0  0  0  0  0  0  0  0
  185.4850  178.6190  142.8840 N   0  0  0  0  0  2  0  0  0  0  0  0
  189.4840  176.7730  144.2350 C   0  0  2  0  0  3  0  0  0  0  0  0
  190.0310  176.7330  142.5020 S   0  0  0  0  0  0  0  0  0  0  0  0
  184.5250  178.0240  140.0500 C   0  0  0  0  0  1  0  0  0  0  0  0
  187.6550  178.3050  143.7390 N   0  0  0  0  0  0  0  0  0  0  0  0
  186.2920  178.3720  141.8950 C   0  0  1  0  0  3  0  0  0  0  0  0
  193.4670  174.7180  145.3580 C   0  0  0  0  0  2  0  0  0  0  0  0
  194.2390  175.7120  146.2180 C   0  0  0  0  0  2  0  0  0  0  0  0
  194.8400  176.7990  145.3930 C   0  0  0  0  0  0  0  0  0  0  0  0
  195.4320  176.5070  144.1700 O   0  0  0  0  0  0  0  0  0  0  0  0
  194.8380  177.9830  145.8190 O   0  0  0  0  0  1  0  0  0  0  0  0
  1 10  1  0  0  0  0
  2 12  2  0  0  0  0
  4  3  1  0  0  0  0
  5  6  1  6  0  0  0
  5 26  1  0  0  0  0
  6 24  1  0  0  0  0
  7 18  1  6  0  0  0
  7 16  1  0  0  0  0
 11  3  2  0  0  0  0
 12 13  1  0  0  0  0
 12  8  1  0  0  0  0
 13 11  1  0  0  0  0
 14 21  2  0  0  0  0
 15  9  2  0  0  0  0
 15 17  1  0  0  0  0
 16  8  1  0  0  0  0
 16 10  1  1  0  0  0
 17  6  2  0  0  0  0
 18 19  1  0  0  0  0
 19 28  1  6  0  0  0
 19  1  1  0  0  0  0
 20  4  1  0  0  0  0
 21 20  1  0  0  0  0
 21 13  1  0  0  0  0
 22 14  1  0  0  0  0
 23 24  1  1  0  0  0
 23  2  1  0  0  0  0
 23  7  1  0  0  0  0
 25  9  1  0  0  0  0
 26 14  1  0  0  0  0
 26  2  1  0  0  0  0
 27  9  1  1  0  0  0
 27  5  1  0  0  0  0
 27 22  1  0  0  0  0
 28 29  1  0  0  0  0
 30 32  1  0  0  0  0
 30 29  1  0  0  0  0
 31 30  2  0  0  0  0
M  END
>  <MODEL>
1

>  <REMARK>
 VINA RESULT:      -8.7      0.000      0.000
  Name = 
  3 active torsions:
  status: ('A' for Active; 'I' for Inactive)
    1  A    between atoms: C_1  and  C_10
    2  A    between atoms: C_10  and  C_19
    3  A    between atoms: C_19  and  C_24
                            x       y       z     vdW  Elec       q    Type
                         _______ _______ _______ _____ _____    ______ ____

>  <TORSDO>
F 3

$$$$
=
 OpenBabel11052421273D

 32 38  0  0  1  0  0  0  0  0999 V2000
  189.8020  173.0560  138.9640 C   0  0  0  0  0  2  0  0  0  0  0  0
  188.2660  176.2030  142.4100 C   0  0  0  0  0  0  0  0  0  0  0  0
  190.0470  174.1780  146.4920 C   0  0  0  0  0  3  0  0  0  0  0  0
  188.8800  174.7610  147.2370 C   0  0  0  0  0  2  0  0  0  0  0  0
  186.7960  178.2570  142.8990 C   0  0  2  0  0  3  0  0  0  0  0  0
  185.9280  177.7610  141.7910 C   0  0  0  0  0  0  0  0  0  0  0  0
  188.5410  174.9650  140.3230 C   0  0  1  0  0  3  0  0  0  0  0  0
  189.3360  174.0350  142.4870 N   0  0  0  0  0  2  0  0  0  0  0  0
  184.6180  178.6870  144.1880 C   0  0  0  0  0  0  0  0  0  0  0  0
  189.5970  172.6750  140.4340 C   0  0  0  0  0  2  0  0  0  0  0  0
  190.2100  174.4150  145.1880 C   0  0  0  0  0  3  0  0  0  0  0  0
  189.0700  175.1600  143.0890 C   0  0  0  0  0  0  0  0  0  0  0  0
  189.3380  175.3250  144.5000 N   0  0  0  0  0  0  0  0  0  0  0  0
  187.7800  177.1620  144.6370 C   0  0  0  0  0  0  0  0  0  0  0  0
  183.9250  178.4180  143.0710 C   0  0  0  0  0  3  0  0  0  0  0  0
  188.7610  173.7130  141.1790 C   0  0  2  0  0  3  0  0  0  0  0  0
  184.5920  177.8830  141.8520 C   0  0  0  0  0  3  0  0  0  0  0  0
  187.8120  174.6280  139.1650 O   0  0  0  0  0  0  0  0  0  0  0  0
  188.5340  173.7020  138.3540 C   0  0  1  0  0  3  0  0  0  0  0  0
  188.5580  176.1810  146.7730 C   0  0  0  0  0  2  0  0  0  0  0  0
  188.5290  176.2500  145.2730 C   0  0  0  0  0  0  0  0  0  0  0  0
  186.6520  177.8210  145.2020 N   0  0  0  0  0  2  0  0  0  0  0  0
  187.8760  176.0510  141.1280 C   0  0  2  0  0  3  0  0  0  0  0  0
  186.7740  177.2370  140.3020 S   0  0  0  0  0  0  0  0  0  0  0  0
  183.9110  179.1420  145.4170 C   0  0  0  0  0  1  0  0  0  0  0  0
  187.8160  177.2870  143.2270 N   0  0  0  0  0  0  0  0  0  0  0  0
  186.0560  178.3920  144.1980 C   0  0  1  0  0  3  0  0  0  0  0  0
  188.8030  174.2760  136.9640 C   0  0  0  0  0  2  0  0  0  0  0  0
  187.8370  175.3930  136.5840 C   0  0  0  0  0  2  0  0  0  0  0  0
  188.3320  176.1690  135.4100 C   0  0  0  0  0  0  0  0  0  0  0  0
  188.0300  177.5200  135.2840 O   0  0  0  0  0  1  0  0  0  0  0  0
  189.0020  175.5920  134.5160 O   0  0  0  0  0  0  0  0  0  0  0  0
  1 10  1  0  0  0  0
  2 12  2  0  0  0  0
  2 26  1  0  0  0  0
  3  4  1  0  0  0  0
  5  6  1  6  0  0  0
  5 26  1  0  0  0  0
  5 27  1  0  0  0  0
  6 17  2  0  0  0  0
  7 18  1  6  0  0  0
  7 23  1  0  0  0  0
  7 16  1  0  0  0  0
  8 12  1  0  0  0  0
  9 25  1  0  0  0  0
 11  3  2  0  0  0  0
 12 13  1  0  0  0  0
 13 11  1  0  0  0  0
 13 21  1  0  0  0  0
 14 22  1  0  0  0  0
 14 21  2  0  0  0  0
 15  9  2  0  0  0  0
 16 10  1  6  0  0  0
 16  8  1  0  0  0  0
 17 15  1  0  0  0  0
 19 28  1  6  0  0  0
 19  1  1  0  0  0  0
 19 18  1  0  0  0  0
 20  4  1  0  0  0  0
 21 20  1  0  0  0  0
 23 24  1  6  0  0  0
 23  2  1  0  0  0  0
 24  6  1  0  0  0  0
 26 14  1  0  0  0  0
 27  9  1  6  0  0  0
 27 22  1  0  0  0  0
 29 28  1  0  0  0  0
 30 29  1  0  0  0  0
 31 30  1  0  0  0  0
 32 30  2  0  0  0  0
M  END
>  <MODEL>
2

>  <REMARK>
 VINA RESULT:      -8.2      3.783      6.460
  Name = 
  3 active torsions:
  status: ('A' for Active; 'I' for Inactive)
    1  A    between atoms: C_1  and  C_10
    2  A    between atoms: C_10  and  C_19
    3  A    between atoms: C_19  and  C_24
                            x       y       z     vdW  Elec       q    Type
                         _______ _______ _______ _____ _____    ______ ____

>  <TORSDO>
F 3

$$$$
=
 OpenBabel11052421273D

 32 38  0  0  1  0  0  0  0  0999 V2000
  190.3240  173.2810  139.2120 C   0  0  0  0  0  2  0  0  0  0  0  0
  189.4980  176.0980  143.1520 C   0  0  0  0  0  0  0  0  0  0  0  0
  193.1810  174.8110  146.1030 C   0  0  0  0  0  3  0  0  0  0  0  0
  192.2880  175.1110  147.2740 C   0  0  0  0  0  2  0  0  0  0  0  0
  187.8610  177.7270  144.2850 C   0  0  2  0  0  3  0  0  0  0  0  0
  186.7880  176.9690  143.5760 C   0  0  0  0  0  0  0  0  0  0  0  0
  189.2470  174.8680  141.0570 C   0  0  1  0  0  3  0  0  0  0  0  0
  191.0300  174.2860  142.6880 N   0  0  0  0  0  2  0  0  0  0  0  0
  186.3240  177.6480  146.3410 C   0  0  0  0  0  0  0  0  0  0  0  0
  190.8120  172.9350  140.6230 C   0  0  0  0  0  2  0  0  0  0  0  0
  192.7560  175.0140  144.8540 C   0  0  0  0  0  3  0  0  0  0  0  0
  190.7410  175.3330  143.4070 C   0  0  0  0  0  0  0  0  0  0  0  0
  191.4840  175.6330  144.6090 N   0  0  0  0  0  0  0  0  0  0  0  0
  189.6880  177.0120  145.4420 C   0  0  0  0  0  0  0  0  0  0  0  0
  185.3460  177.1530  145.5670 C   0  0  0  0  0  3  0  0  0  0  0  0
  190.0960  173.7590  141.6900 C   0  0  2  0  0  3  0  0  0  0  0  0
  185.5990  176.7460  144.1580 C   0  0  0  0  0  3  0  0  0  0  0  0
  188.2380  174.2960  140.2560 O   0  0  0  0  0  0  0  0  0  0  0  0
  188.7980  173.5470  139.1790 C   0  0  1  0  0  3  0  0  0  0  0  0
  191.4590  176.3750  147.0500 C   0  0  0  0  0  2  0  0  0  0  0  0
  190.8320  176.3570  145.6850 C   0  0  0  0  0  0  0  0  0  0  0  0
  188.7410  177.3860  146.4350 N   0  0  0  0  0  2  0  0  0  0  0  0
  188.6930  175.7850  142.1160 C   0  0  2  0  0  3  0  0  0  0  0  0
  187.0930  176.6050  141.8480 S   0  0  0  0  0  0  0  0  0  0  0  0
  186.0600  177.9670  147.7700 C   0  0  0  0  0  1  0  0  0  0  0  0
  189.1390  177.0700  144.1380 N   0  0  0  0  0  0  0  0  0  0  0  0
  187.6760  177.7330  145.7750 C   0  0  1  0  0  3  0  0  0  0  0  0
  188.3490  174.0990  137.8280 C   0  0  0  0  0  2  0  0  0  0  0  0
  187.4180  175.3010  137.9550 C   0  0  0  0  0  2  0  0  0  0  0  0
  187.0040  175.8160  136.6180 C   0  0  0  0  0  0  0  0  0  0  0  0
  185.6580  175.9710  136.3120 O   0  0  0  0  0  1  0  0  0  0  0  0
  187.8770  176.0840  135.7530 O   0  0  0  0  0  0  0  0  0  0  0  0
  1 10  1  0  0  0  0
  2 12  2  0  0  0  0
  2 26  1  0  0  0  0
  3  4  1  0  0  0  0
  5  6  1  6  0  0  0
  5 27  1  0  0  0  0
  6 17  2  0  0  0  0
  7 18  1  1  0  0  0
  7 16  1  0  0  0  0
  7 23  1  0  0  0  0
  8 12  1  0  0  0  0
  9 25  1  0  0  0  0
 11  3  2  0  0  0  0
 12 13  1  0  0  0  0
 13 11  1  0  0  0  0
 13 21  1  0  0  0  0
 14 21  2  0  0  0  0
 14 22  1  0  0  0  0
 15  9  2  0  0  0  0
 16 10  1  6  0  0  0
 16  8  1  0  0  0  0
 17 15  1  0  0  0  0
 19 28  1  6  0  0  0
 19  1  1  0  0  0  0
 19 18  1  0  0  0  0
 20  4  1  0  0  0  0
 21 20  1  0  0  0  0
 23 24  1  6  0  0  0
 23  2  1  0  0  0  0
 24  6  1  0  0  0  0
 26  5  1  0  0  0  0
 26 14  1  0  0  0  0
 27  9  1  6  0  0  0
 27 22  1  0  0  0  0
 28 29  1  0  0  0  0
 30 29  1  0  0  0  0
 31 30  1  0  0  0  0
 32 30  2  0  0  0  0
M  END
>  <MODEL>
3

>  <REMARK>
 VINA RESULT:      -8.0      3.578      6.918
  Name = 
  3 active torsions:
  status: ('A' for Active; 'I' for Inactive)
    1  A    between atoms: C_1  and  C_10
    2  A    between atoms: C_10  and  C_19
    3  A    between atoms: C_19  and  C_24
                            x       y       z     vdW  Elec       q    Type
                         _______ _______ _______ _____ _____    ______ ____

>  <TORSDO>
F 3

$$$$
=
 OpenBabel11052421273D

 32 38  0  0  1  0  0  0  0  0999 V2000
  190.3540  172.6030  139.8700 C   0  0  0  0  0  2  0  0  0  0  0  0
  189.2120  176.0620  143.1670 C   0  0  0  0  0  0  0  0  0  0  0  0
  192.2130  174.9580  146.8690 C   0  0  0  0  0  3  0  0  0  0  0  0
  191.1820  175.5110  147.8110 C   0  0  0  0  0  2  0  0  0  0  0  0
  187.5980  177.9770  143.7550 C   0  0  2  0  0  3  0  0  0  0  0  0
  186.5780  177.2070  142.9840 C   0  0  0  0  0  0  0  0  0  0  0  0
  189.1710  174.5430  141.2560 C   0  0  1  0  0  3  0  0  0  0  0  0
  190.5960  174.0810  143.2390 N   0  0  0  0  0  2  0  0  0  0  0  0
  185.7510  178.3470  145.5010 C   0  0  0  0  0  0  0  0  0  0  0  0
  190.5690  172.4450  141.3790 C   0  0  0  0  0  2  0  0  0  0  0  0
  192.0200  174.9970  145.5490 C   0  0  0  0  0  3  0  0  0  0  0  0
  190.3090  175.2480  143.7410 C   0  0  0  0  0  0  0  0  0  0  0  0
  190.8770  175.6710  145.0010 N   0  0  0  0  0  0  0  0  0  0  0  0
  189.1290  177.3060  145.3030 C   0  0  0  0  0  0  0  0  0  0  0  0
  184.8630  177.8180  144.6450 C   0  0  0  0  0  3  0  0  0  0  0  0
  189.7840  173.4820  142.1770 C   0  0  2  0  0  3  0  0  0  0  0  0
  185.2940  177.1760  143.3740 C   0  0  0  0  0  3  0  0  0  0  0  0
  188.2480  173.9370  140.3790 O   0  0  0  0  0  0  0  0  0  0  0  0
  188.8910  172.9850  139.5330 C   0  0  1  0  0  3  0  0  0  0  0  0
  190.5390  176.7870  147.2700 C   0  0  0  0  0  2  0  0  0  0  0  0
  190.1420  176.6060  145.8330 C   0  0  0  0  0  0  0  0  0  0  0  0
  188.0790  177.9080  146.0530 N   0  0  0  0  0  2  0  0  0  0  0  0
  188.5550  175.6570  142.0610 C   0  0  2  0  0  3  0  0  0  0  0  0
  187.1160  176.5520  141.4050 S   0  0  0  0  0  0  0  0  0  0  0  0
  185.2970  178.9070  146.8020 C   0  0  0  0  0  1  0  0  0  0  0  0
  188.8060  177.2030  143.9280 N   0  0  0  0  0  0  0  0  0  0  0  0
  187.1780  178.2320  145.1740 C   0  0  1  0  0  3  0  0  0  0  0  0
  188.7270  173.3520  138.0600 C   0  0  0  0  0  2  0  0  0  0  0  0
  190.0530  173.6520  137.3700 C   0  0  0  0  0  2  0  0  0  0  0  0
  190.1340  172.9990  136.0310 C   0  0  0  0  0  0  0  0  0  0  0  0
  191.0740  173.4220  135.1000 O   0  0  0  0  0  0  0  0  0  0  0  0
  189.3280  172.0800  135.7340 O   0  0  0  0  0  1  0  0  0  0  0  0
  1 10  1  0  0  0  0
  2 12  2  0  0  0  0
  2 26  1  0  0  0  0
  3  4  1  0  0  0  0
  5  6  1  6  0  0  0
  5 26  1  0  0  0  0
  5 27  1  0  0  0  0
  6 17  2  0  0  0  0
  7 18  1  1  0  0  0
  7 23  1  0  0  0  0
  7 16  1  0  0  0  0
  8 12  1  0  0  0  0
  9 25  1  0  0  0  0
 11  3  2  0  0  0  0
 12 13  1  0  0  0  0
 13 11  1  0  0  0  0
 13 21  1  0  0  0  0
 14 21  2  0  0  0  0
 14 22  1  0  0  0  0
 15  9  2  0  0  0  0
 16 10  1  6  0  0  0
 16  8  1  0  0  0  0
 17 15  1  0  0  0  0
 19 28  1  6  0  0  0
 19  1  1  0  0  0  0
 19 18  1  0  0  0  0
 20  4  1  0  0  0  0
 21 20  1  0  0  0  0
 23 24  1  6  0  0  0
 23  2  1  0  0  0  0
 24  6  1  0  0  0  0
 26 14  1  0  0  0  0
 27  9  1  1  0  0  0
 27 22  1  0  0  0  0
 29 28  1  0  0  0  0
 30 29  1  0  0  0  0
 31 30  2  0  0  0  0
 32 30  1  0  0  0  0
M  END
>  <MODEL>
4

>  <REMARK>
 VINA RESULT:      -7.7      3.756      6.370
  Name = 
  3 active torsions:
  status: ('A' for Active; 'I' for Inactive)
    1  A    between atoms: C_1  and  C_10
    2  A    between atoms: C_10  and  C_19
    3  A    between atoms: C_19  and  C_24
                            x       y       z     vdW  Elec       q    Type
                         _______ _______ _______ _____ _____    ______ ____

>  <TORSDO>
F 3

$$$$
=
 OpenBabel11052421273D

 32 38  0  0  1  0  0  0  0  0999 V2000
  186.1520  176.9190  142.7670 C   0  0  0  0  0  2  0  0  0  0  0  0
  190.9310  175.7800  142.8480 C   0  0  0  0  0  0  0  0  0  0  0  0
  191.0310  171.6590  140.2130 C   0  0  0  0  0  3  0  0  0  0  0  0
  192.2070  171.2150  141.0350 C   0  0  0  0  0  2  0  0  0  0  0  0
  193.2270  176.3510  143.8560 C   0  0  2  0  0  3  0  0  0  0  0  0
  192.4660  176.7910  145.0620 C   0  0  0  0  0  0  0  0  0  0  0  0
  188.7460  176.7520  143.3410 C   0  0  1  0  0  3  0  0  0  0  0  0
  188.9530  174.6260  142.0690 N   0  0  0  0  0  2  0  0  0  0  0  0
  194.8430  175.2160  145.4990 C   0  0  0  0  0  0  0  0  0  0  0  0
  186.6910  175.4970  142.5800 C   0  0  0  0  0  2  0  0  0  0  0  0
  190.4770  172.8570  140.4100 C   0  0  0  0  0  3  0  0  0  0  0  0
  190.2480  174.7650  142.0120 C   0  0  0  0  0  0  0  0  0  0  0  0
  191.0660  173.7900  141.3290 N   0  0  0  0  0  0  0  0  0  0  0  0
  193.0240  174.4970  142.5480 C   0  0  0  0  0  0  0  0  0  0  0  0
  194.2100  175.8270  146.5130 C   0  0  0  0  0  3  0  0  0  0  0  0
  188.1440  175.3760  143.0330 C   0  0  2  0  0  3  0  0  0  0  0  0
  192.9500  176.5890  146.2980 C   0  0  0  0  0  3  0  0  0  0  0  0
  188.0470  177.3480  144.4100 O   0  0  0  0  0  0  0  0  0  0  0  0
  186.6780  177.5680  144.0710 C   0  0  1  0  0  3  0  0  0  0  0  0
  193.1800  172.3620  141.3060 C   0  0  0  0  0  2  0  0  0  0  0  0
  192.4370  173.5850  141.7610 C   0  0  0  0  0  0  0  0  0  0  0  0
  194.1540  174.2470  143.3760 N   0  0  0  0  0  2  0  0  0  0  0  0
  190.2240  176.6400  143.6090 C   0  0  2  0  0  3  0  0  0  0  0  0
  191.0210  177.8050  144.7530 S   0  0  0  0  0  0  0  0  0  0  0  0
  196.0540  174.3920  145.7580 C   0  0  0  0  0  1  0  0  0  0  0  0
  192.3570  175.6930  142.9090 N   0  0  0  0  0  0  0  0  0  0  0  0
  194.2300  175.2770  144.1660 C   0  0  1  0  0  3  0  0  0  0  0  0
  186.3190  179.0500  144.1500 C   0  0  0  0  0  2  0  0  0  0  0  0
  184.9630  179.3010  144.8030 C   0  0  0  0  0  2  0  0  0  0  0  0
  184.9210  178.7760  146.1980 C   0  0  0  0  0  0  0  0  0  0  0  0
  185.8430  179.2160  147.1410 O   0  0  0  0  0  1  0  0  0  0  0  0
  184.0660  177.9100  146.5160 O   0  0  0  0  0  0  0  0  0  0  0  0
  1 19  1  0  0  0  0
  2 26  1  0  0  0  0
  3 11  2  0  0  0  0
  3  4  1  0  0  0  0
  4 20  1  0  0  0  0
  5 27  1  0  0  0  0
  5  6  1  1  0  0  0
  6 17  2  0  0  0  0
  7 23  1  0  0  0  0
  7 18  1  1  0  0  0
  8 16  1  0  0  0  0
  9 25  1  0  0  0  0
  9 15  2  0  0  0  0
 10  1  1  0  0  0  0
 11 13  1  0  0  0  0
 12  8  1  0  0  0  0
 12  2  2  0  0  0  0
 13 21  1  0  0  0  0
 13 12  1  0  0  0  0
 14 26  1  0  0  0  0
 14 22  1  0  0  0  0
 16 10  1  6  0  0  0
 16  7  1  0  0  0  0
 17 15  1  0  0  0  0
 19 28  1  6  0  0  0
 19 18  1  0  0  0  0
 20 21  1  0  0  0  0
 21 14  2  0  0  0  0
 23  2  1  6  0  0  0
 23 24  1  0  0  0  0
 24  6  1  0  0  0  0
 26  5  1  0  0  0  0
 27 22  1  1  0  0  0
 27  9  1  0  0  0  0
 28 29  1  0  0  0  0
 29 30  1  0  0  0  0
 30 32  2  0  0  0  0
 30 31  1  0  0  0  0
M  END
>  <MODEL>
5

>  <REMARK>
 VINA RESULT:      -7.6      3.757      8.288
  Name = 
  3 active torsions:
  status: ('A' for Active; 'I' for Inactive)
    1  A    between atoms: C_1  and  C_10
    2  A    between atoms: C_10  and  C_19
    3  A    between atoms: C_19  and  C_24
                            x       y       z     vdW  Elec       q    Type
                         _______ _______ _______ _____ _____    ______ ____

>  <TORSDO>
F 3

$$$$
=
 OpenBabel11052421273D

 32 38  0  0  1  0  0  0  0  0999 V2000
  188.3220  173.9930  139.3970 C   0  0  0  0  0  2  0  0  0  0  0  0
  188.6050  175.2830  144.1300 C   0  0  0  0  0  0  0  0  0  0  0  0
  184.9680  178.5340  144.5080 C   0  0  0  0  0  3  0  0  0  0  0  0
  185.7590  179.2270  145.5810 C   0  0  0  0  0  2  0  0  0  0  0  0
  189.9730  175.0900  146.2990 C   0  0  2  0  0  3  0  0  0  0  0  0
  191.1630  174.9670  145.4070 C   0  0  0  0  0  0  0  0  0  0  0  0
  189.1050  174.4030  141.9080 C   0  0  1  0  0  3  0  0  0  0  0  0
  187.3300  176.1090  142.2480 N   0  0  0  0  0  2  0  0  0  0  0  0
  191.4060  176.6860  147.7110 C   0  0  0  0  0  0  0  0  0  0  0  0
  187.8120  175.3290  139.9470 C   0  0  0  0  0  2  0  0  0  0  0  0
  185.4240  177.4150  143.9410 C   0  0  0  0  0  3  0  0  0  0  0  0
  187.4530  176.0070  143.5410 C   0  0  0  0  0  0  0  0  0  0  0  0
  186.6220  176.7890  144.4270 N   0  0  0  0  0  0  0  0  0  0  0  0
  188.1930  176.5100  146.2360 C   0  0  0  0  0  0  0  0  0  0  0  0
  192.4740  176.3510  146.9700 C   0  0  0  0  0  3  0  0  0  0  0  0
  188.3690  175.6210  141.3380 C   0  0  2  0  0  3  0  0  0  0  0  0
  192.3410  175.5140  145.7470 C   0  0  0  0  0  3  0  0  0  0  0  0
  190.2140  174.0950  141.0950 O   0  0  0  0  0  0  0  0  0  0  0  0
  189.8030  173.7410  139.7750 C   0  0  1  0  0  3  0  0  0  0  0  0
  186.4380  178.2330  146.5220 C   0  0  0  0  0  2  0  0  0  0  0  0
  187.1270  177.1530  145.7380 C   0  0  0  0  0  0  0  0  0  0  0  0
  189.0380  177.0160  147.2640 N   0  0  0  0  0  2  0  0  0  0  0  0
  189.4910  174.6370  143.3450 C   0  0  2  0  0  3  0  0  0  0  0  0
  190.9900  173.8560  144.0120 S   0  0  0  0  0  0  0  0  0  0  0  0
  191.5590  177.5930  148.8800 C   0  0  0  0  0  1  0  0  0  0  0  0
  188.7930  175.4340  145.5390 N   0  0  0  0  0  0  0  0  0  0  0  0
  190.0830  176.2430  147.2540 C   0  0  1  0  0  3  0  0  0  0  0  0
  190.2460  172.3250  139.4160 C   0  0  0  0  0  2  0  0  0  0  0  0
  191.2700  171.7560  140.3940 C   0  0  0  0  0  2  0  0  0  0  0  0
  190.7160  170.6000  141.1560 C   0  0  0  0  0  0  0  0  0  0  0  0
  190.0660  170.8060  142.3680 O   0  0  0  0  0  1  0  0  0  0  0  0
  190.8640  169.4310  140.7160 O   0  0  0  0  0  0  0  0  0  0  0  0
  1 19  1  0  0  0  0
  1 10  1  0  0  0  0
  2 26  1  0  0  0  0
  3  4  1  0  0  0  0
  4 20  1  0  0  0  0
  5  6  1  6  0  0  0
  5 27  1  0  0  0  0
  6 17  2  0  0  0  0
  7 18  1  6  0  0  0
  7 23  1  0  0  0  0
  8 12  1  0  0  0  0
  9 25  1  0  0  0  0
 11 13  1  0  0  0  0
 11  3  2  0  0  0  0
 12  2  2  0  0  0  0
 12 13  1  0  0  0  0
 13 21  1  0  0  0  0
 14 22  1  0  0  0  0
 15  9  2  0  0  0  0
 16 10  1  6  0  0  0
 16  7  1  0  0  0  0
 16  8  1  0  0  0  0
 17 15  1  0  0  0  0
 19 28  1  1  0  0  0
 19 18  1  0  0  0  0
 21 14  2  0  0  0  0
 21 20  1  0  0  0  0
 23 24  1  1  0  0  0
 23  2  1  0  0  0  0
 24  6  1  0  0  0  0
 26 14  1  0  0  0  0
 26  5  1  0  0  0  0
 27 22  1  6  0  0  0
 27  9  1  0  0  0  0
 28 29  1  0  0  0  0
 29 30  1  0  0  0  0
 30 31  1  0  0  0  0
 32 30  2  0  0  0  0
M  END
>  <MODEL>
6

>  <REMARK>
 VINA RESULT:      -7.6      2.950      6.134
  Name = 
  3 active torsions:
  status: ('A' for Active; 'I' for Inactive)
    1  A    between atoms: C_1  and  C_10
    2  A    between atoms: C_10  and  C_19
    3  A    between atoms: C_19  and  C_24
                            x       y       z     vdW  Elec       q    Type
                         _______ _______ _______ _____ _____    ______ ____

>  <TORSDO>
F 3

$$$$
=
 OpenBabel11052421273D

 32 38  0  0  1  0  0  0  0  0999 V2000
  188.6500  173.1590  139.3120 C   0  0  0  0  0  2  0  0  0  0  0  0
  188.6150  174.9260  143.8970 C   0  0  0  0  0  0  0  0  0  0  0  0
  185.2010  178.4180  143.6060 C   0  0  0  0  0  3  0  0  0  0  0  0
  185.9440  179.1710  144.6730 C   0  0  0  0  0  2  0  0  0  0  0  0
  189.7740  174.8800  146.1930 C   0  0  2  0  0  3  0  0  0  0  0  0
  191.0250  174.5900  145.4320 C   0  0  0  0  0  0  0  0  0  0  0  0
  189.2410  173.7850  141.8310 C   0  0  1  0  0  3  0  0  0  0  0  0
  187.5690  175.6250  141.8310 N   0  0  0  0  0  2  0  0  0  0  0  0
  191.1910  176.5260  147.5640 C   0  0  0  0  0  0  0  0  0  0  0  0
  188.1910  174.5760  139.6750 C   0  0  0  0  0  2  0  0  0  0  0  0
  185.6230  177.2190  143.2000 C   0  0  0  0  0  3  0  0  0  0  0  0
  187.5740  175.6530  143.1340 C   0  0  0  0  0  0  0  0  0  0  0  0
  186.7270  176.5750  143.8550 N   0  0  0  0  0  0  0  0  0  0  0  0
  188.1120  176.3940  145.8220 C   0  0  0  0  0  0  0  0  0  0  0  0
  192.2920  176.0480  146.9630 C   0  0  0  0  0  3  0  0  0  0  0  0
  188.6460  174.9790  141.0750 C   0  0  2  0  0  3  0  0  0  0  0  0
  192.2050  175.0950  145.8240 C   0  0  0  0  0  3  0  0  0  0  0  0
  190.3920  173.3230  141.1590 O   0  0  0  0  0  0  0  0  0  0  0  0
  190.0710  172.8580  139.8490 C   0  0  1  0  0  3  0  0  0  0  0  0
  186.4660  178.2420  145.7690 C   0  0  0  0  0  2  0  0  0  0  0  0
  187.1420  177.0450  145.1650 C   0  0  0  0  0  0  0  0  0  0  0  0
  188.8990  176.9530  146.8670 N   0  0  0  0  0  2  0  0  0  0  0  0
  189.5170  174.1460  143.2660 C   0  0  2  0  0  3  0  0  0  0  0  0
  190.8930  173.3490  144.1460 S   0  0  0  0  0  0  0  0  0  0  0  0
  191.3070  177.5410  148.6460 C   0  0  0  0  0  1  0  0  0  0  0  0
  188.6920  175.2140  145.2950 N   0  0  0  0  0  0  0  0  0  0  0  0
  189.8830  176.1190  147.0330 C   0  0  1  0  0  3  0  0  0  0  0  0
  190.4410  171.3870  139.6780 C   0  0  0  0  0  2  0  0  0  0  0  0
  189.7710  170.7400  138.4690 C   0  0  0  0  0  2  0  0  0  0  0  0
  190.6760  170.7250  137.2840 C   0  0  0  0  0  0  0  0  0  0  0  0
  190.1590  170.8800  136.0040 O   0  0  0  0  0  0  0  0  0  0  0  0
  191.9100  170.5390  137.4420 O   0  0  0  0  0  1  0  0  0  0  0  0
  1 10  1  0  0  0  0
  1 19  1  0  0  0  0
  2 26  1  0  0  0  0
  3  4  1  0  0  0  0
  4 20  1  0  0  0  0
  5  6  1  6  0  0  0
  5 27  1  0  0  0  0
  6 17  2  0  0  0  0
  7 18  1  6  0  0  0
  7 23  1  0  0  0  0
  8 12  1  0  0  0  0
  9 25  1  0  0  0  0
 11  3  2  0  0  0  0
 11 13  1  0  0  0  0
 12 13  1  0  0  0  0
 12  2  2  0  0  0  0
 13 21  1  0  0  0  0
 14 22  1  0  0  0  0
 15  9  2  0  0  0  0
 16 10  1  6  0  0  0
 16  7  1  0  0  0  0
 16  8  1  0  0  0  0
 17 15  1  0  0  0  0
 19 28  1  1  0  0  0
 19 18  1  0  0  0  0
 21 20  1  0  0  0  0
 21 14  2  0  0  0  0
 23  2  1  1  0  0  0
 23 24  1  0  0  0  0
 24  6  1  0  0  0  0
 26 14  1  0  0  0  0
 26  5  1  0  0  0  0
 27 22  1  6  0  0  0
 27  9  1  0  0  0  0
 29 28  1  0  0  0  0
 30 32  1  0  0  0  0
 30 29  1  0  0  0  0
 31 30  2  0  0  0  0
M  END
>  <MODEL>
7

>  <REMARK>
 VINA RESULT:      -7.4      3.686      6.626
  Name = 
  3 active torsions:
  status: ('A' for Active; 'I' for Inactive)
    1  A    between atoms: C_1  and  C_10
    2  A    between atoms: C_10  and  C_19
    3  A    between atoms: C_19  and  C_24
                            x       y       z     vdW  Elec       q    Type
                         _______ _______ _______ _____ _____    ______ ____

>  <TORSDO>
F 3

$$$$
=
 OpenBabel11052421273D

 32 38  0  0  1  0  0  0  0  0999 V2000
  188.7710  177.5170  145.7740 C   0  0  0  0  0  2  0  0  0  0  0  0
  190.6740  174.8300  142.1270 C   0  0  0  0  0  0  0  0  0  0  0  0
  195.3700  176.1980  142.2120 C   0  0  0  0  0  3  0  0  0  0  0  0
  195.4260  175.9380  140.7330 C   0  0  0  0  0  2  0  0  0  0  0  0
  190.1520  173.2450  140.1700 C   0  0  2  0  0  3  0  0  0  0  0  0
  188.8610  173.9840  140.0600 C   0  0  0  0  0  0  0  0  0  0  0  0
  189.1330  175.9930  143.6220 C   0  0  1  0  0  3  0  0  0  0  0  0
  191.5350  176.6210  143.5060 N   0  0  0  0  0  2  0  0  0  0  0  0
  190.2630  173.3950  137.6090 C   0  0  0  0  0  0  0  0  0  0  0  0
  190.0350  177.9060  145.0010 C   0  0  0  0  0  2  0  0  0  0  0  0
  194.2550  175.9560  142.9040 C   0  0  0  0  0  3  0  0  0  0  0  0
  191.7840  175.5980  142.7380 C   0  0  0  0  0  0  0  0  0  0  0  0
  193.1260  175.3350  142.2700 N   0  0  0  0  0  0  0  0  0  0  0  0
  192.2860  173.9890  140.4520 C   0  0  0  0  0  0  0  0  0  0  0  0
  189.0070  173.8690  137.6020 C   0  0  0  0  0  3  0  0  0  0  0  0
  190.1710  177.1190  143.7000 C   0  0  2  0  0  3  0  0  0  0  0  0
  188.3040  174.2290  138.8630 C   0  0  0  0  0  3  0  0  0  0  0  0
  187.8340  176.5430  143.6180 O   0  0  0  0  0  0  0  0  0  0  0  0
  187.5730  177.2560  144.8270 C   0  0  1  0  0  3  0  0  0  0  0  0
  194.6640  174.6710  140.3460 C   0  0  0  0  0  2  0  0  0  0  0  0
  193.3150  174.6470  141.0060 C   0  0  0  0  0  0  0  0  0  0  0  0
  192.1890  173.6500  139.0730 N   0  0  0  0  0  2  0  0  0  0  0  0
  189.3890  175.1130  142.4280 C   0  0  2  0  0  3  0  0  0  0  0  0
  187.9960  174.2910  141.5990 S   0  0  0  0  0  0  0  0  0  0  0  0
  190.9690  173.1230  136.3280 C   0  0  0  0  0  1  0  0  0  0  0  0
  191.0370  173.8920  141.1120 N   0  0  0  0  0  0  0  0  0  0  0  0
  190.9530  173.2870  138.9010 C   0  0  1  0  0  3  0  0  0  0  0  0
  186.3800  176.6630  145.5720 C   0  0  0  0  0  2  0  0  0  0  0  0
  186.2700  177.1600  147.0100 C   0  0  0  0  0  2  0  0  0  0  0  0
  185.4170  178.3800  147.1040 C   0  0  0  0  0  0  0  0  0  0  0  0
  184.1250  178.3750  146.5920 O   0  0  0  0  0  0  0  0  0  0  0  0
  185.8810  179.4280  147.6220 O   0  0  0  0  0  1  0  0  0  0  0  0
  2 23  1  0  0  0  0
  2 12  2  0  0  0  0
  3 11  2  0  0  0  0
  4  3  1  0  0  0  0
  5  6  1  6  0  0  0
  5 26  1  0  0  0  0
  6 24  1  0  0  0  0
  7 18  1  6  0  0  0
  7 16  1  0  0  0  0
  8 16  1  0  0  0  0
 10  1  1  0  0  0  0
 12  8  1  0  0  0  0
 13 12  1  0  0  0  0
 13 11  1  0  0  0  0
 14 21  2  0  0  0  0
 14 26  1  0  0  0  0
 15  9  2  0  0  0  0
 15 17  1  0  0  0  0
 16 10  1  1  0  0  0
 17  6  2  0  0  0  0
 18 19  1  0  0  0  0
 19 28  1  1  0  0  0
 19  1  1  0  0  0  0
 20  4  1  0  0  0  0
 20 21  1  0  0  0  0
 21 13  1  0  0  0  0
 22 14  1  0  0  0  0
 23 24  1  1  0  0  0
 23  7  1  0  0  0  0
 25  9  1  0  0  0  0
 26  2  1  0  0  0  0
 27  9  1  6  0  0  0
 27 22  1  0  0  0  0
 27  5  1  0  0  0  0
 28 29  1  0  0  0  0
 29 30  1  0  0  0  0
 30 32  1  0  0  0  0
 31 30  2  0  0  0  0
M  END
>  <MODEL>
8

>  <REMARK>
 VINA RESULT:      -7.4      4.273      7.468
  Name = 
  3 active torsions:
  status: ('A' for Active; 'I' for Inactive)
    1  A    between atoms: C_1  and  C_10
    2  A    between atoms: C_10  and  C_19
    3  A    between atoms: C_19  and  C_24
                            x       y       z     vdW  Elec       q    Type
                         _______ _______ _______ _____ _____    ______ ____

>  <TORSDO>
F 3

$$$$
=
 OpenBabel11052421273D

 32 38  0  0  1  0  0  0  0  0999 V2000
  188.2670  177.3190  146.4020 C   0  0  0  0  0  2  0  0  0  0  0  0
  190.4090  174.4280  143.0570 C   0  0  0  0  0  0  0  0  0  0  0  0
  195.1560  175.1560  143.9860 C   0  0  0  0  0  3  0  0  0  0  0  0
  195.4340  174.9010  142.5310 C   0  0  0  0  0  2  0  0  0  0  0  0
  190.0340  172.9400  140.9930 C   0  0  2  0  0  3  0  0  0  0  0  0
  188.8880  173.8450  140.6850 C   0  0  0  0  0  0  0  0  0  0  0  0
  188.7960  175.7760  144.3000 C   0  0  1  0  0  3  0  0  0  0  0  0
  191.2430  176.0780  144.6160 N   0  0  0  0  0  2  0  0  0  0  0  0
  190.6070  173.0920  138.4940 C   0  0  0  0  0  0  0  0  0  0  0  0
  189.6860  177.5410  145.8700 C   0  0  0  0  0  2  0  0  0  0  0  0
  193.9160  175.0600  144.4690 C   0  0  0  0  0  3  0  0  0  0  0  0
  191.4870  175.0360  143.8720 C   0  0  0  0  0  0  0  0  0  0  0  0
  192.8430  174.5990  143.6330 N   0  0  0  0  0  0  0  0  0  0  0  0
  192.1650  173.3910  141.6580 C   0  0  0  0  0  0  0  0  0  0  0  0
  189.4440  173.7290  138.2860 C   0  0  0  0  0  3  0  0  0  0  0  0
  189.9420  176.7520  144.5880 C   0  0  2  0  0  3  0  0  0  0  0  0
  188.5850  174.1710  139.4180 C   0  0  0  0  0  3  0  0  0  0  0  0
  187.6010  176.4940  144.0900 O   0  0  0  0  0  0  0  0  0  0  0  0
  187.2290  177.2260  145.2560 C   0  0  1  0  0  3  0  0  0  0  0  0
  194.5930  173.7500  141.9820 C   0  0  0  0  0  2  0  0  0  0  0  0
  193.1580  173.9020  142.3990 C   0  0  0  0  0  0  0  0  0  0  0  0
  192.2650  173.0780  140.2740 N   0  0  0  0  0  2  0  0  0  0  0  0
  189.1400  174.8770  143.1410 C   0  0  2  0  0  3  0  0  0  0  0  0
  187.8170  174.2550  142.0610 S   0  0  0  0  0  0  0  0  0  0  0  0
  191.4830  172.7370  137.3450 C   0  0  0  0  0  1  0  0  0  0  0  0
  190.8180  173.4560  142.0900 N   0  0  0  0  0  0  0  0  0  0  0  0
  191.0410  172.8840  139.8810 C   0  0  1  0  0  3  0  0  0  0  0  0
  185.8570  176.7930  145.7680 C   0  0  0  0  0  2  0  0  0  0  0  0
  184.8270  177.9170  145.7360 C   0  0  0  0  0  2  0  0  0  0  0  0
  184.7780  178.5770  144.3990 C   0  0  0  0  0  0  0  0  0  0  0  0
  185.1560  179.9070  144.2590 O   0  0  0  0  0  1  0  0  0  0  0  0
  184.3650  177.9350  143.3990 O   0  0  0  0  0  0  0  0  0  0  0  0
  2 23  1  0  0  0  0
  2 12  2  0  0  0  0
  3 11  2  0  0  0  0
  4  3  1  0  0  0  0
  5  6  1  6  0  0  0
  5 26  1  0  0  0  0
  6 24  1  0  0  0  0
  7 18  1  6  0  0  0
  7 16  1  0  0  0  0
 10  1  1  0  0  0  0
 12  8  1  0  0  0  0
 13 12  1  0  0  0  0
 13 11  1  0  0  0  0
 14 26  1  0  0  0  0
 14 21  2  0  0  0  0
 15  9  2  0  0  0  0
 15 17  1  0  0  0  0
 16  8  1  0  0  0  0
 16 10  1  1  0  0  0
 17  6  2  0  0  0  0
 18 19  1  0  0  0  0
 19 28  1  1  0  0  0
 19  1  1  0  0  0  0
 20 21  1  0  0  0  0
 20  4  1  0  0  0  0
 21 13  1  0  0  0  0
 22 14  1  0  0  0  0
 23 24  1  1  0  0  0
 23  7  1  0  0  0  0
 25  9  1  0  0  0  0
 26  2  1  0  0  0  0
 27  9  1  6  0  0  0
 27 22  1  0  0  0  0
 27  5  1  0  0  0  0
 29 28  1  0  0  0  0
 30 29  1  0  0  0  0
 31 30  1  0  0  0  0
 32 30  2  0  0  0  0
M  END
>  <MODEL>
9

>  <REMARK>
 VINA RESULT:      -7.3      3.962      7.399
  Name = 
  3 active torsions:
  status: ('A' for Active; 'I' for Inactive)
    1  A    between atoms: C_1  and  C_10
    2  A    between atoms: C_10  and  C_19
    3  A    between atoms: C_19  and  C_24
                            x       y       z     vdW  Elec       q    Type
                         _______ _______ _______ _____ _____    ______ ____

>  <TORSDO>
F 3

$$$$
