=
 OpenBabel11052417473D

 31 34  0  0  1  0  0  0  0  0999 V2000
  194.6600  175.8470  144.8490 C   0  0  0  0  0  0  0  0  0  0  0  0
  191.1360  176.7620  143.7780 C   0  0  2  0  0  3  0  0  0  0  0  0
  190.4710  175.6160  143.0240 C   0  0  0  0  0  0  0  0  0  0  0  0
  191.8940  173.8070  143.8830 O   0  0  0  0  0  1  0  0  0  0  0  0
  192.3100  176.4250  144.6540 C   0  0  0  0  0  0  0  0  0  0  0  0
  194.5210  175.7330  146.2350 C   0  0  0  0  0  3  0  0  0  0  0  0
  190.8540  174.2520  143.0760 C   0  0  0  0  0  0  0  0  0  0  0  0
  189.6980  176.9100  145.8320 C   0  0  2  0  0  3  0  0  0  0  0  0
  195.9800  175.5960  144.2140 C   0  0  0  0  0  1  0  0  0  0  0  0
  188.9030  177.3990  142.2280 C   0  0  0  0  0  2  0  0  0  0  0  0
  190.1680  173.3080  142.3070 C   0  0  0  0  0  3  0  0  0  0  0  0
  190.9020  176.7090  146.7610 C   0  0  0  0  0  2  0  0  0  0  0  0
  190.0900  177.6170  144.5240 C   0  0  2  0  0  3  0  0  0  0  0  0
  193.5600  176.1960  144.0610 C   0  0  0  0  0  3  0  0  0  0  0  0
  189.0960  173.6900  141.5010 C   0  0  0  0  0  3  0  0  0  0  0  0
  192.1720  176.3220  146.0550 C   0  0  0  0  0  0  0  0  0  0  0  0
  193.2830  175.9800  146.8350 C   0  0  0  0  0  3  0  0  0  0  0  0
  188.8370  177.9260  143.6680 C   0  0  0  0  0  2  0  0  0  0  0  0
  189.3670  175.9770  142.2300 C   0  0  0  0  0  0  0  0  0  0  0  0
  188.6910  175.0230  141.4670 C   0  0  0  0  0  3  0  0  0  0  0  0
  186.7220  179.0580  148.1590 C   0  0  0  0  0  1  0  0  0  0  0  0
  186.8540  176.3760  145.6830 O   0  0  0  0  0  0  0  0  0  0  0  0
  187.2400  177.3150  146.4340 C   0  0  0  0  0  0  0  0  0  0  0  0
  186.2800  178.0710  147.1860 N   0  0  0  0  0  0  0  0  0  0  0  0
  188.6370  177.6260  146.5370 N   0  0  0  0  0  2  0  0  0  0  0  0
  184.8500  177.8080  147.0720 C   0  0  0  0  0  2  0  0  0  0  0  0
  184.2180  178.7270  146.0390 C   0  0  0  0  0  2  0  0  0  0  0  0
  184.3210  178.1520  144.7610 O   0  0  0  0  0  0  0  0  0  0  0  0
  184.7320  179.1440  143.8440 C   0  0  1  0  0  3  0  0  0  0  0  0
  185.6620  180.0260  144.4080 O   0  0  0  0  0  1  0  0  0  0  0  0
  185.2520  178.5570  142.5370 C   0  0  0  0  0  1  0  0  0  0  0  0
  1  6  1  0  0  0  0
  2  3  1  1  0  0  0
  2 13  1  0  0  0  0
  2  5  1  0  0  0  0
  3  7  1  0  0  0  0
  5 16  2  0  0  0  0
  6 17  2  0  0  0  0
  7  4  1  0  0  0  0
  8 25  1  1  0  0  0
  8 12  1  0  0  0  0
  9  1  1  0  0  0  0
 10 19  1  0  0  0  0
 10 18  1  0  0  0  0
 11  7  2  0  0  0  0
 13 18  1  6  0  0  0
 13  8  1  0  0  0  0
 14  5  1  0  0  0  0
 14  1  2  0  0  0  0
 15 11  1  0  0  0  0
 16 12  1  0  0  0  0
 16 17  1  0  0  0  0
 19  3  2  0  0  0  0
 20 15  2  0  0  0  0
 20 19  1  0  0  0  0
 22 23  2  0  0  0  0
 23 25  1  0  0  0  0
 23 24  1  0  0  0  0
 24 21  1  0  0  0  0
 26 24  1  0  0  0  0
 27 26  1  0  0  0  0
 28 27  1  0  0  0  0
 29 31  1  6  0  0  0
 29 30  1  0  0  0  0
 29 28  1  0  0  0  0
M  END
>  <MODEL>
1

>  <REMARK>
 VINA RESULT:      -8.0      0.000      0.000
  Name = 
  5 active torsions:
  status: ('A' for Active; 'I' for Inactive)
    1  A    between atoms: C_1  and  O_24
    2  A    between atoms: C_6  and  C_19
    3  A    between atoms: C_6  and  N_22
    4  A    between atoms: C_15  and  N_23
    5  A    between atoms: C_19  and  O_24
                            x       y       z     vdW  Elec       q    Type
                         _______ _______ _______ _____ _____    ______ ____

>  <TORSDO>
F 5

$$$$
=
 OpenBabel11052417473D

 31 34  0  0  1  0  0  0  0  0999 V2000
  191.5620  171.3800  143.0320 C   0  0  0  0  0  0  0  0  0  0  0  0
  191.0550  174.0760  145.6540 C   0  0  2  0  0  3  0  0  0  0  0  0
  192.2300  175.0460  145.6860 C   0  0  0  0  0  0  0  0  0  0  0  0
  193.0760  174.5900  143.4260 O   0  0  0  0  0  1  0  0  0  0  0  0
  190.8680  173.2550  144.4090 C   0  0  0  0  0  0  0  0  0  0  0  0
  190.6050  171.7250  142.0740 C   0  0  0  0  0  3  0  0  0  0  0  0
  193.1670  175.2530  144.6420 C   0  0  0  0  0  0  0  0  0  0  0  0
  189.1890  175.5760  144.8960 C   0  0  2  0  0  3  0  0  0  0  0  0
  192.4440  170.2050  142.8090 C   0  0  0  0  0  1  0  0  0  0  0  0
  191.3270  175.6530  147.9420 C   0  0  0  0  0  2  0  0  0  0  0  0
  194.2160  176.1600  144.8210 C   0  0  0  0  0  3  0  0  0  0  0  0
  188.8800  174.6810  143.6900 C   0  0  0  0  0  2  0  0  0  0  0  0
  189.7470  174.7740  146.0830 C   0  0  2  0  0  3  0  0  0  0  0  0
  191.6910  172.1400  144.1970 C   0  0  0  0  0  3  0  0  0  0  0  0
  194.3420  176.8790  146.0100 C   0  0  0  0  0  3  0  0  0  0  0  0
  189.8930  173.5960  143.4470 C   0  0  0  0  0  0  0  0  0  0  0  0
  189.7670  172.8230  142.2870 C   0  0  0  0  0  3  0  0  0  0  0  0
  189.9210  175.6810  147.3260 C   0  0  0  0  0  2  0  0  0  0  0  0
  192.3540  175.8040  146.8650 C   0  0  0  0  0  0  0  0  0  0  0  0
  193.4080  176.7060  147.0290 C   0  0  0  0  0  3  0  0  0  0  0  0
  185.5340  177.5940  146.1020 C   0  0  0  0  0  1  0  0  0  0  0  0
  188.0160  177.7830  143.4300 O   0  0  0  0  0  0  0  0  0  0  0  0
  187.4540  177.4220  144.5010 C   0  0  0  0  0  0  0  0  0  0  0  0
  186.2670  178.0920  144.9500 N   0  0  0  0  0  0  0  0  0  0  0  0
  187.9990  176.3390  145.2700 N   0  0  0  0  0  2  0  0  0  0  0  0
  185.7120  179.2220  144.2150 C   0  0  0  0  0  2  0  0  0  0  0  0
  184.3140  178.8980  143.7110 C   0  0  0  0  0  2  0  0  0  0  0  0
  184.3680  177.8140  142.8190 O   0  0  0  0  0  0  0  0  0  0  0  0
  184.7360  178.2890  141.5410 C   0  0  1  0  0  3  0  0  0  0  0  0
  185.8180  177.5790  141.0080 O   0  0  0  0  0  1  0  0  0  0  0  0
  183.5650  178.3210  140.5660 C   0  0  0  0  0  1  0  0  0  0  0  0
  1 14  1  0  0  0  0
  2  5  1  6  0  0  0
  2  3  1  0  0  0  0
  2 13  1  0  0  0  0
  3 19  1  0  0  0  0
  4  7  1  0  0  0  0
  6 17  1  0  0  0  0
  6  1  2  0  0  0  0
  7 11  1  0  0  0  0
  7  3  2  0  0  0  0
  8 25  1  1  0  0  0
  8 13  1  0  0  0  0
  9  1  1  0  0  0  0
 11 15  2  0  0  0  0
 12  8  1  0  0  0  0
 13 18  1  1  0  0  0
 14  5  2  0  0  0  0
 15 20  1  0  0  0  0
 16 12  1  0  0  0  0
 16  5  1  0  0  0  0
 17 16  2  0  0  0  0
 18 10  1  0  0  0  0
 19 20  2  0  0  0  0
 19 10  1  0  0  0  0
 22 23  2  0  0  0  0
 23 24  1  0  0  0  0
 23 25  1  0  0  0  0
 24 21  1  0  0  0  0
 26 24  1  0  0  0  0
 27 26  1  0  0  0  0
 28 27  1  0  0  0  0
 29 31  1  6  0  0  0
 29 28  1  0  0  0  0
 30 29  1  0  0  0  0
M  END
>  <MODEL>
2

>  <REMARK>
 VINA RESULT:      -7.6      1.950      4.395
  Name = 
  5 active torsions:
  status: ('A' for Active; 'I' for Inactive)
    1  A    between atoms: C_1  and  O_24
    2  A    between atoms: C_6  and  C_19
    3  A    between atoms: C_6  and  N_22
    4  A    between atoms: C_15  and  N_23
    5  A    between atoms: C_19  and  O_24
                            x       y       z     vdW  Elec       q    Type
                         _______ _______ _______ _____ _____    ______ ____

>  <TORSDO>
F 5

$$$$
=
 OpenBabel11052417473D

 31 34  0  0  1  0  0  0  0  0999 V2000
  185.9540  178.4880  146.7700 C   0  0  0  0  0  0  0  0  0  0  0  0
  188.9110  177.4560  144.6280 C   0  0  2  0  0  3  0  0  0  0  0  0
  189.8910  176.5930  145.4150 C   0  0  0  0  0  0  0  0  0  0  0  0
  188.3270  175.8480  147.1550 O   0  0  0  0  0  1  0  0  0  0  0  0
  187.5060  177.5590  145.1510 C   0  0  0  0  0  0  0  0  0  0  0  0
  184.9150  177.7440  146.2060 C   0  0  0  0  0  3  0  0  0  0  0  0
  189.5990  175.8690  146.5980 C   0  0  0  0  0  0  0  0  0  0  0  0
  188.1020  175.8340  142.8900 C   0  0  2  0  0  3  0  0  0  0  0  0
  185.6850  179.3730  147.9340 C   0  0  0  0  0  1  0  0  0  0  0  0
  191.4900  177.2070  143.5870 C   0  0  0  0  0  2  0  0  0  0  0  0
  190.6070  175.1380  147.2320 C   0  0  0  0  0  3  0  0  0  0  0  0
  186.6390  176.0250  143.3080 C   0  0  0  0  0  2  0  0  0  0  0  0
  188.9410  177.1000  143.1270 C   0  0  2  0  0  3  0  0  0  0  0  0
  187.2450  178.4000  146.2420 C   0  0  0  0  0  3  0  0  0  0  0  0
  191.8970  175.0960  146.7030 C   0  0  0  0  0  3  0  0  0  0  0  0
  186.4540  176.8170  144.5730 C   0  0  0  0  0  0  0  0  0  0  0  0
  185.1630  176.9200  145.1050 C   0  0  0  0  0  3  0  0  0  0  0  0
  190.3760  176.9210  142.5720 C   0  0  0  0  0  2  0  0  0  0  0  0
  191.1900  176.5130  144.8780 C   0  0  0  0  0  0  0  0  0  0  0  0
  192.1870  175.7790  145.5230 C   0  0  0  0  0  3  0  0  0  0  0  0
  188.0790  174.6950  138.6960 C   0  0  0  0  0  1  0  0  0  0  0  0
  188.6870  173.1560  141.9510 O   0  0  0  0  0  0  0  0  0  0  0  0
  188.4570  174.0460  141.0870 C   0  0  0  0  0  0  0  0  0  0  0  0
  188.4810  173.7140  139.6910 N   0  0  0  0  0  0  0  0  0  0  0  0
  188.1700  175.3910  141.4980 N   0  0  0  0  0  2  0  0  0  0  0  0
  188.8100  172.3680  139.2380 C   0  0  0  0  0  2  0  0  0  0  0  0
  190.2530  172.3010  138.7620 C   0  0  0  0  0  2  0  0  0  0  0  0
  191.1100  172.1090  139.8600 O   0  0  0  0  0  0  0  0  0  0  0  0
  192.1120  173.1030  139.8380 C   0  0  1  0  0  3  0  0  0  0  0  0
  192.0140  173.9220  138.7070 O   0  0  0  0  0  1  0  0  0  0  0  0
  192.1450  173.9320  141.1170 C   0  0  0  0  0  1  0  0  0  0  0  0
  1  9  1  0  0  0  0
  2  5  1  1  0  0  0
  2  3  1  0  0  0  0
  3  7  1  0  0  0  0
  5 14  2  0  0  0  0
  6  1  2  0  0  0  0
  7  4  1  0  0  0  0
  7 11  2  0  0  0  0
  8 25  1  6  0  0  0
  8 13  1  0  0  0  0
  8 12  1  0  0  0  0
 10 19  1  0  0  0  0
 12 16  1  0  0  0  0
 13 18  1  1  0  0  0
 13  2  1  0  0  0  0
 14  1  1  0  0  0  0
 15 11  1  0  0  0  0
 16 17  2  0  0  0  0
 16  5  1  0  0  0  0
 17  6  1  0  0  0  0
 18 10  1  0  0  0  0
 19  3  2  0  0  0  0
 19 20  1  0  0  0  0
 20 15  2  0  0  0  0
 21 24  1  0  0  0  0
 23 25  1  0  0  0  0
 23 22  2  0  0  0  0
 24 23  1  0  0  0  0
 26 24  1  0  0  0  0
 27 26  1  0  0  0  0
 27 28  1  0  0  0  0
 29 28  1  0  0  0  0
 29 31  1  1  0  0  0
 30 29  1  0  0  0  0
M  END
>  <MODEL>
3

>  <REMARK>
 VINA RESULT:      -7.4      2.779      7.271
  Name = 
  5 active torsions:
  status: ('A' for Active; 'I' for Inactive)
    1  A    between atoms: C_1  and  O_24
    2  A    between atoms: C_6  and  C_19
    3  A    between atoms: C_6  and  N_22
    4  A    between atoms: C_15  and  N_23
    5  A    between atoms: C_19  and  O_24
                            x       y       z     vdW  Elec       q    Type
                         _______ _______ _______ _____ _____    ______ ____

>  <TORSDO>
F 5

$$$$
=
 OpenBabel11052417473D

 31 34  0  0  1  0  0  0  0  0999 V2000
  186.2130  178.0590  144.5310 C   0  0  0  0  0  0  0  0  0  0  0  0
  189.8560  177.0620  144.1610 C   0  0  2  0  0  3  0  0  0  0  0  0
  190.3840  176.4120  145.4340 C   0  0  0  0  0  0  0  0  0  0  0  0
  188.2140  175.7440  146.3700 O   0  0  0  0  0  1  0  0  0  0  0  0
  188.3660  177.0900  143.9650 C   0  0  0  0  0  0  0  0  0  0  0  0
  185.5770  177.1480  143.6840 C   0  0  0  0  0  3  0  0  0  0  0  0
  189.5980  175.8210  146.4550 C   0  0  0  0  0  0  0  0  0  0  0  0
  189.9930  175.1560  142.5320 C   0  0  2  0  0  3  0  0  0  0  0  0
  185.4090  179.0550  145.2850 C   0  0  0  0  0  1  0  0  0  0  0  0
  192.6290  176.9430  144.4590 C   0  0  0  0  0  2  0  0  0  0  0  0
  190.2180  175.2840  147.5870 C   0  0  0  0  0  3  0  0  0  0  0  0
  188.4990  175.2510  142.2030 C   0  0  0  0  0  2  0  0  0  0  0  0
  190.5890  176.5200  142.9160 C   0  0  2  0  0  3  0  0  0  0  0  0
  187.6030  178.0340  144.6680 C   0  0  0  0  0  3  0  0  0  0  0  0
  191.6070  175.3040  147.7150 C   0  0  0  0  0  3  0  0  0  0  0  0
  187.7240  176.1770  143.1000 C   0  0  0  0  0  0  0  0  0  0  0  0
  186.3320  176.2170  142.9640 C   0  0  0  0  0  3  0  0  0  0  0  0
  192.1220  176.4170  143.1100 C   0  0  0  0  0  2  0  0  0  0  0  0
  191.7850  176.3950  145.5660 C   0  0  0  0  0  0  0  0  0  0  0  0
  192.3910  175.8540  146.7020 C   0  0  0  0  0  3  0  0  0  0  0  0
  191.9580  173.4950  139.0290 C   0  0  0  0  0  1  0  0  0  0  0  0
  190.9780  172.4350  142.3840 O   0  0  0  0  0  0  0  0  0  0  0  0
  191.1730  173.1870  141.3890 C   0  0  0  0  0  0  0  0  0  0  0  0
  191.8540  172.6830  140.2310 N   0  0  0  0  0  0  0  0  0  0  0  0
  190.7130  174.5470  141.4140 N   0  0  0  0  0  2  0  0  0  0  0  0
  192.3700  171.3200  140.1900 C   0  0  0  0  0  2  0  0  0  0  0  0
  191.8680  170.5950  138.9520 C   0  0  0  0  0  2  0  0  0  0  0  0
  190.6490  169.9540  139.2350 O   0  0  0  0  0  0  0  0  0  0  0  0
  189.6800  170.3810  138.3000 C   0  0  1  0  0  3  0  0  0  0  0  0
  189.0400  171.5570  138.7080 O   0  0  0  0  0  1  0  0  0  0  0  0
  190.2440  170.5210  136.8920 C   0  0  0  0  0  1  0  0  0  0  0  0
  1 14  1  0  0  0  0
  1  9  1  0  0  0  0
  2  5  1  6  0  0  0
  2  3  1  0  0  0  0
  3 19  2  0  0  0  0
  3  7  1  0  0  0  0
  4  7  1  0  0  0  0
  5 14  2  0  0  0  0
  6  1  2  0  0  0  0
  7 11  2  0  0  0  0
  8 25  1  6  0  0  0
  8 13  1  0  0  0  0
 10 19  1  0  0  0  0
 11 15  1  0  0  0  0
 12  8  1  0  0  0  0
 12 16  1  0  0  0  0
 13 18  1  1  0  0  0
 13  2  1  0  0  0  0
 16  5  1  0  0  0  0
 17 16  2  0  0  0  0
 17  6  1  0  0  0  0
 18 10  1  0  0  0  0
 19 20  1  0  0  0  0
 20 15  2  0  0  0  0
 21 24  1  0  0  0  0
 23 25  1  0  0  0  0
 23 22  2  0  0  0  0
 24 23  1  0  0  0  0
 26 24  1  0  0  0  0
 27 28  1  0  0  0  0
 27 26  1  0  0  0  0
 29 31  1  6  0  0  0
 29 30  1  0  0  0  0
 29 28  1  0  0  0  0
M  END
>  <MODEL>
4

>  <REMARK>
 VINA RESULT:      -7.4      3.326      7.873
  Name = 
  5 active torsions:
  status: ('A' for Active; 'I' for Inactive)
    1  A    between atoms: C_1  and  O_24
    2  A    between atoms: C_6  and  C_19
    3  A    between atoms: C_6  and  N_22
    4  A    between atoms: C_15  and  N_23
    5  A    between atoms: C_19  and  O_24
                            x       y       z     vdW  Elec       q    Type
                         _______ _______ _______ _____ _____    ______ ____

>  <TORSDO>
F 5

$$$$
=
 OpenBabel11052417473D

 31 34  0  0  1  0  0  0  0  0999 V2000
  192.9340  171.2810  143.1080 C   0  0  0  0  0  0  0  0  0  0  0  0
  191.1420  173.7920  145.3190 C   0  0  2  0  0  3  0  0  0  0  0  0
  192.0960  174.8720  145.8160 C   0  0  0  0  0  0  0  0  0  0  0  0
  193.8090  174.6050  144.0760 O   0  0  0  0  0  1  0  0  0  0  0  0
  191.5530  173.0140  144.1000 C   0  0  0  0  0  0  0  0  0  0  0  0
  192.4000  171.5710  141.8500 C   0  0  0  0  0  3  0  0  0  0  0  0
  193.3390  175.2190  145.2300 C   0  0  0  0  0  0  0  0  0  0  0  0
  189.5740  175.1310  143.8860 C   0  0  2  0  0  3  0  0  0  0  0  0
  193.9550  170.2110  143.2510 C   0  0  0  0  0  1  0  0  0  0  0  0
  190.3160  175.2830  147.5300 C   0  0  0  0  0  2  0  0  0  0  0  0
  194.1270  176.2160  145.8120 C   0  0  0  0  0  3  0  0  0  0  0  0
  189.8650  174.2650  142.6540 C   0  0  0  0  0  2  0  0  0  0  0  0
  189.7040  174.3360  145.1950 C   0  0  2  0  0  3  0  0  0  0  0  0
  192.5090  171.9970  144.2310 C   0  0  0  0  0  3  0  0  0  0  0  0
  193.6950  176.8900  146.9540 C   0  0  0  0  0  3  0  0  0  0  0  0
  191.0050  173.2990  142.8310 C   0  0  0  0  0  0  0  0  0  0  0  0
  191.4320  172.5700  141.7150 C   0  0  0  0  0  3  0  0  0  0  0  0
  189.2730  175.1980  146.4080 C   0  0  0  0  0  2  0  0  0  0  0  0
  191.6620  175.5850  146.9490 C   0  0  0  0  0  0  0  0  0  0  0  0
  192.4590  176.5790  147.5200 C   0  0  0  0  0  3  0  0  0  0  0  0
  185.5960  176.7810  143.3050 C   0  0  0  0  0  1  0  0  0  0  0  0
  188.9810  177.9650  143.9890 O   0  0  0  0  0  0  0  0  0  0  0  0
  188.0200  177.1680  143.8090 C   0  0  0  0  0  0  0  0  0  0  0  0
  186.6870  177.6760  143.6530 N   0  0  0  0  0  0  0  0  0  0  0  0
  188.2570  175.7540  143.7580 N   0  0  0  0  0  2  0  0  0  0  0  0
  186.4050  179.1040  143.7420 C   0  0  0  0  0  2  0  0  0  0  0  0
  185.3140  179.3720  144.7670 C   0  0  0  0  0  2  0  0  0  0  0  0
  185.8650  179.3780  146.0600 O   0  0  0  0  0  0  0  0  0  0  0  0
  185.1820  178.4300  146.8530 C   0  0  1  0  0  3  0  0  0  0  0  0
  183.9370  178.0900  146.3100 O   0  0  0  0  0  1  0  0  0  0  0  0
  186.0190  177.1880  147.1330 C   0  0  0  0  0  1  0  0  0  0  0  0
  1  9  1  0  0  0  0
  1 14  1  0  0  0  0
  2  5  1  6  0  0  0
  2  3  1  0  0  0  0
  3 19  1  0  0  0  0
  4  7  1  0  0  0  0
  5 14  2  0  0  0  0
  6  1  2  0  0  0  0
  7 11  1  0  0  0  0
  7  3  2  0  0  0  0
  8 25  1  6  0  0  0
  8 13  1  0  0  0  0
 11 15  2  0  0  0  0
 12 16  1  0  0  0  0
 12  8  1  0  0  0  0
 13  2  1  0  0  0  0
 13 18  1  1  0  0  0
 15 20  1  0  0  0  0
 16  5  1  0  0  0  0
 17  6  1  0  0  0  0
 17 16  2  0  0  0  0
 18 10  1  0  0  0  0
 19 20  2  0  0  0  0
 19 10  1  0  0  0  0
 21 24  1  0  0  0  0
 23 22  2  0  0  0  0
 24 26  1  0  0  0  0
 24 23  1  0  0  0  0
 25 23  1  0  0  0  0
 26 27  1  0  0  0  0
 27 28  1  0  0  0  0
 28 29  1  0  0  0  0
 29 31  1  6  0  0  0
 30 29  1  0  0  0  0
M  END
>  <MODEL>
5

>  <REMARK>
 VINA RESULT:      -7.3      2.168      4.556
  Name = 
  5 active torsions:
  status: ('A' for Active; 'I' for Inactive)
    1  A    between atoms: C_1  and  O_24
    2  A    between atoms: C_6  and  C_19
    3  A    between atoms: C_6  and  N_22
    4  A    between atoms: C_15  and  N_23
    5  A    between atoms: C_19  and  O_24
                            x       y       z     vdW  Elec       q    Type
                         _______ _______ _______ _____ _____    ______ ____

>  <TORSDO>
F 5

$$$$
=
 OpenBabel11052417473D

 31 34  0  0  1  0  0  0  0  0999 V2000
  185.4040  177.8910  147.0010 C   0  0  0  0  0  0  0  0  0  0  0  0
  187.5680  175.9340  144.5750 C   0  0  2  0  0  3  0  0  0  0  0  0
  187.4790  176.5090  143.1650 C   0  0  0  0  0  0  0  0  0  0  0  0
  186.7040  178.7550  143.7900 O   0  0  0  0  0  1  0  0  0  0  0  0
  187.1660  176.8290  145.7140 C   0  0  0  0  0  0  0  0  0  0  0  0
  186.3620  178.5360  147.7870 C   0  0  0  0  0  3  0  0  0  0  0  0
  187.0570  177.8190  142.8260 C   0  0  0  0  0  0  0  0  0  0  0  0
  189.9770  176.3640  145.1390 C   0  0  2  0  0  3  0  0  0  0  0  0
  183.9580  178.1150  147.2630 C   0  0  0  0  0  1  0  0  0  0  0  0
  188.4030  174.2840  142.4840 C   0  0  0  0  0  2  0  0  0  0  0  0
  186.9980  178.2040  141.4840 C   0  0  0  0  0  3  0  0  0  0  0  0
  189.6020  177.1660  146.3910 C   0  0  0  0  0  2  0  0  0  0  0  0
  188.9410  175.2740  144.8190 C   0  0  2  0  0  3  0  0  0  0  0  0
  185.8040  177.0370  145.9710 C   0  0  0  0  0  3  0  0  0  0  0  0
  187.3700  177.3190  140.4720 C   0  0  0  0  0  3  0  0  0  0  0  0
  188.1350  177.4720  146.5150 C   0  0  0  0  0  0  0  0  0  0  0  0
  187.7220  178.3190  147.5500 C   0  0  0  0  0  3  0  0  0  0  0  0
  189.4130  174.3970  143.6340 C   0  0  0  0  0  2  0  0  0  0  0  0
  187.8800  175.6410  142.1340 C   0  0  0  0  0  0  0  0  0  0  0  0
  187.8160  176.0390  140.7970 C   0  0  0  0  0  3  0  0  0  0  0  0
  193.8900  174.6090  145.8380 C   0  0  0  0  0  1  0  0  0  0  0  0
  192.4590  177.5760  144.2630 O   0  0  0  0  0  0  0  0  0  0  0  0
  192.5210  176.4550  144.8400 C   0  0  0  0  0  0  0  0  0  0  0  0
  193.7940  175.8280  145.0520 N   0  0  0  0  0  0  0  0  0  0  0  0
  191.3210  175.8070  145.2860 N   0  0  0  0  0  2  0  0  0  0  0  0
  195.0290  176.4390  144.5730 C   0  0  0  0  0  2  0  0  0  0  0  0
  195.5370  175.7200  143.3330 C   0  0  0  0  0  2  0  0  0  0  0  0
  194.7480  176.0680  142.2230 O   0  0  0  0  0  0  0  0  0  0  0  0
  194.1990  174.8930  141.6650 C   0  0  1  0  0  3  0  0  0  0  0  0
  194.6760  173.7380  142.2980 O   0  0  0  0  0  1  0  0  0  0  0  0
  192.6750  174.9140  141.6350 C   0  0  0  0  0  1  0  0  0  0  0  0
  1  9  1  0  0  0  0
  1  6  1  0  0  0  0
  2  3  1  6  0  0  0
  2 13  1  0  0  0  0
  2  5  1  0  0  0  0
  5 14  1  0  0  0  0
  5 16  2  0  0  0  0
  7  3  1  0  0  0  0
  7  4  1  0  0  0  0
  8 25  1  1  0  0  0
  8 12  1  0  0  0  0
 10 18  1  0  0  0  0
 11  7  2  0  0  0  0
 12 16  1  0  0  0  0
 13 18  1  6  0  0  0
 13  8  1  0  0  0  0
 14  1  2  0  0  0  0
 15 20  2  0  0  0  0
 15 11  1  0  0  0  0
 16 17  1  0  0  0  0
 17  6  2  0  0  0  0
 19 10  1  0  0  0  0
 19  3  2  0  0  0  0
 20 19  1  0  0  0  0
 22 23  2  0  0  0  0
 23 24  1  0  0  0  0
 23 25  1  0  0  0  0
 24 21  1  0  0  0  0
 26 24  1  0  0  0  0
 27 26  1  0  0  0  0
 28 27  1  0  0  0  0
 29 31  1  1  0  0  0
 29 28  1  0  0  0  0
 29 30  1  0  0  0  0
M  END
>  <MODEL>
6

>  <REMARK>
 VINA RESULT:      -7.3      2.192      7.124
  Name = 
  5 active torsions:
  status: ('A' for Active; 'I' for Inactive)
    1  A    between atoms: C_1  and  O_24
    2  A    between atoms: C_6  and  C_19
    3  A    between atoms: C_6  and  N_22
    4  A    between atoms: C_15  and  N_23
    5  A    between atoms: C_19  and  O_24
                            x       y       z     vdW  Elec       q    Type
                         _______ _______ _______ _____ _____    ______ ____

>  <TORSDO>
F 5

$$$$
=
 OpenBabel11052417473D

 31 34  0  0  1  0  0  0  0  0999 V2000
  185.4900  177.8310  146.8820 C   0  0  0  0  0  0  0  0  0  0  0  0
  187.4790  175.9510  144.2530 C   0  0  2  0  0  3  0  0  0  0  0  0
  187.2830  176.5590  142.8690 C   0  0  0  0  0  0  0  0  0  0  0  0
  186.5430  178.7820  143.6060 O   0  0  0  0  0  1  0  0  0  0  0  0
  187.1590  176.8140  145.4410 C   0  0  0  0  0  0  0  0  0  0  0  0
  186.5010  178.4640  147.6110 C   0  0  0  0  0  3  0  0  0  0  0  0
  186.8280  177.8740  142.5950 C   0  0  0  0  0  0  0  0  0  0  0  0
  189.9210  176.3850  144.6470 C   0  0  2  0  0  3  0  0  0  0  0  0
  184.0670  178.0360  147.2560 C   0  0  0  0  0  1  0  0  0  0  0  0
  188.1670  174.3580  142.0660 C   0  0  0  0  0  2  0  0  0  0  0  0
  186.6680  178.2910  141.2710 C   0  0  0  0  0  3  0  0  0  0  0  0
  189.6360  177.1530  145.9440 C   0  0  0  0  0  2  0  0  0  0  0  0
  188.8710  175.2950  144.3780 C   0  0  2  0  0  3  0  0  0  0  0  0
  185.8180  177.0050  145.8040 C   0  0  0  0  0  3  0  0  0  0  0  0
  186.9680  177.4330  140.2120 C   0  0  0  0  0  3  0  0  0  0  0  0
  188.1800  177.4440  146.1840 C   0  0  0  0  0  0  0  0  0  0  0  0
  187.8410  178.2630  147.2680 C   0  0  0  0  0  3  0  0  0  0  0  0
  189.2590  174.4510  143.1400 C   0  0  0  0  0  2  0  0  0  0  0  0
  187.6110  175.7190  141.7890 C   0  0  0  0  0  0  0  0  0  0  0  0
  187.4450  176.1490  140.4710 C   0  0  0  0  0  3  0  0  0  0  0  0
  193.9240  174.7390  145.0360 C   0  0  0  0  0  1  0  0  0  0  0  0
  192.1440  177.1550  142.9560 O   0  0  0  0  0  0  0  0  0  0  0  0
  192.3450  176.2600  143.8230 C   0  0  0  0  0  0  0  0  0  0  0  0
  193.6450  175.6660  143.9520 N   0  0  0  0  0  0  0  0  0  0  0  0
  191.2760  175.8360  144.6800 N   0  0  0  0  0  2  0  0  0  0  0  0
  194.7420  176.0440  143.0680 C   0  0  0  0  0  2  0  0  0  0  0  0
  195.9540  176.4810  143.8760 C   0  0  0  0  0  2  0  0  0  0  0  0
  197.0330  176.7430  143.0150 O   0  0  0  0  0  0  0  0  0  0  0  0
  197.9090  175.6360  143.0300 C   0  0  1  0  0  3  0  0  0  0  0  0
  197.6340  174.7620  144.0890 O   0  0  0  0  0  1  0  0  0  0  0  0
  197.9410  174.8940  141.6990 C   0  0  0  0  0  1  0  0  0  0  0  0
  1  9  1  0  0  0  0
  1  6  1  0  0  0  0
  2  3  1  6  0  0  0
  2 13  1  0  0  0  0
  2  5  1  0  0  0  0
  5 14  1  0  0  0  0
  5 16  2  0  0  0  0
  7  3  1  0  0  0  0
  7  4  1  0  0  0  0
  8 25  1  1  0  0  0
  8 12  1  0  0  0  0
 10 18  1  0  0  0  0
 11  7  2  0  0  0  0
 12 16  1  0  0  0  0
 13 18  1  6  0  0  0
 13  8  1  0  0  0  0
 14  1  2  0  0  0  0
 15 20  2  0  0  0  0
 15 11  1  0  0  0  0
 16 17  1  0  0  0  0
 17  6  2  0  0  0  0
 19 10  1  0  0  0  0
 19  3  2  0  0  0  0
 20 19  1  0  0  0  0
 22 23  2  0  0  0  0
 23 24  1  0  0  0  0
 23 25  1  0  0  0  0
 24 21  1  0  0  0  0
 26 27  1  0  0  0  0
 26 24  1  0  0  0  0
 28 29  1  0  0  0  0
 28 27  1  0  0  0  0
 29 31  1  6  0  0  0
 29 30  1  0  0  0  0
M  END
>  <MODEL>
7

>  <REMARK>
 VINA RESULT:      -7.3      2.564      7.771
  Name = 
  5 active torsions:
  status: ('A' for Active; 'I' for Inactive)
    1  A    between atoms: C_1  and  O_24
    2  A    between atoms: C_6  and  C_19
    3  A    between atoms: C_6  and  N_22
    4  A    between atoms: C_15  and  N_23
    5  A    between atoms: C_19  and  O_24
                            x       y       z     vdW  Elec       q    Type
                         _______ _______ _______ _____ _____    ______ ____

>  <TORSDO>
F 5

$$$$
=
 OpenBabel11052417473D

 31 34  0  0  1  0  0  0  0  0999 V2000
  186.0480  178.2980  144.9240 C   0  0  0  0  0  0  0  0  0  0  0  0
  189.5910  177.1210  144.2440 C   0  0  2  0  0  3  0  0  0  0  0  0
  190.1970  176.4500  145.4720 C   0  0  0  0  0  0  0  0  0  0  0  0
  188.0880  175.8930  146.6000 O   0  0  0  0  0  1  0  0  0  0  0  0
  188.0930  177.2220  144.1800 C   0  0  0  0  0  0  0  0  0  0  0  0
  185.2960  177.4160  144.1440 C   0  0  0  0  0  3  0  0  0  0  0  0
  189.4760  175.9030  146.5620 C   0  0  0  0  0  0  0  0  0  0  0  0
  189.4920  175.2040  142.6250 C   0  0  2  0  0  3  0  0  0  0  0  0
  185.3640  179.3350  145.7380 C   0  0  0  0  0  1  0  0  0  0  0  0
  192.3710  176.8650  144.2990 C   0  0  0  0  0  2  0  0  0  0  0  0
  190.1660  175.3390  147.6400 C   0  0  0  0  0  3  0  0  0  0  0  0
  187.9800  175.3720  142.4280 C   0  0  0  0  0  2  0  0  0  0  0  0
  190.1850  176.5380  142.9440 C   0  0  2  0  0  3  0  0  0  0  0  0
  187.4420  178.2040  144.9390 C   0  0  0  0  0  3  0  0  0  0  0  0
  191.5610  175.2920  147.6450 C   0  0  0  0  0  3  0  0  0  0  0  0
  187.3340  176.3380  143.3820 C   0  0  0  0  0  0  0  0  0  0  0  0
  185.9390  176.4460  143.3680 C   0  0  0  0  0  3  0  0  0  0  0  0
  191.7220  176.3600  143.0040 C   0  0  0  0  0  2  0  0  0  0  0  0
  191.6020  176.3640  145.4800 C   0  0  0  0  0  0  0  0  0  0  0  0
  192.2780  175.7980  146.5630 C   0  0  0  0  0  3  0  0  0  0  0  0
  191.0450  173.4220  138.9780 C   0  0  0  0  0  1  0  0  0  0  0  0
  190.4460  172.4730  142.4540 O   0  0  0  0  0  0  0  0  0  0  0  0
  190.5300  173.1930  141.4200 C   0  0  0  0  0  0  0  0  0  0  0  0
  191.0750  172.6490  140.2100 N   0  0  0  0  0  0  0  0  0  0  0  0
  190.0790  174.5550  141.4540 N   0  0  0  0  0  2  0  0  0  0  0  0
  191.5800  171.2820  140.1540 C   0  0  0  0  0  2  0  0  0  0  0  0
  193.0970  171.2670  140.2700 C   0  0  0  0  0  2  0  0  0  0  0  0
  193.4720  171.2950  141.6240 O   0  0  0  0  0  0  0  0  0  0  0  0
  194.3180  172.4050  141.8420 C   0  0  1  0  0  3  0  0  0  0  0  0
  194.4780  173.1780  140.6850 O   0  0  0  0  0  1  0  0  0  0  0  0
  193.8690  173.2630  143.0190 C   0  0  0  0  0  1  0  0  0  0  0  0
  1 14  1  0  0  0  0
  1  9  1  0  0  0  0
  2  5  1  6  0  0  0
  2  3  1  0  0  0  0
  3 19  2  0  0  0  0
  3  7  1  0  0  0  0
  5 14  2  0  0  0  0
  6  1  2  0  0  0  0
  7  4  1  0  0  0  0
  7 11  2  0  0  0  0
  8 25  1  6  0  0  0
  8 13  1  0  0  0  0
 10 19  1  0  0  0  0
 11 15  1  0  0  0  0
 12  8  1  0  0  0  0
 12 16  1  0  0  0  0
 13 18  1  1  0  0  0
 13  2  1  0  0  0  0
 16  5  1  0  0  0  0
 17 16  2  0  0  0  0
 17  6  1  0  0  0  0
 18 10  1  0  0  0  0
 19 20  1  0  0  0  0
 20 15  2  0  0  0  0
 21 24  1  0  0  0  0
 23 25  1  0  0  0  0
 23 22  2  0  0  0  0
 24 23  1  0  0  0  0
 26 24  1  0  0  0  0
 26 27  1  0  0  0  0
 27 28  1  0  0  0  0
 28 29  1  0  0  0  0
 29 31  1  1  0  0  0
 30 29  1  0  0  0  0
M  END
>  <MODEL>
8

>  <REMARK>
 VINA RESULT:      -7.3      2.851      7.851
  Name = 
  5 active torsions:
  status: ('A' for Active; 'I' for Inactive)
    1  A    between atoms: C_1  and  O_24
    2  A    between atoms: C_6  and  C_19
    3  A    between atoms: C_6  and  N_22
    4  A    between atoms: C_15  and  N_23
    5  A    between atoms: C_19  and  O_24
                            x       y       z     vdW  Elec       q    Type
                         _______ _______ _______ _____ _____    ______ ____

>  <TORSDO>
F 5

$$$$
=
 OpenBabel11052417473D

 31 34  0  0  1  0  0  0  0  0999 V2000
  185.4980  177.7730  142.7080 C   0  0  0  0  0  0  0  0  0  0  0  0
  188.1530  175.1290  143.3110 C   0  0  2  0  0  3  0  0  0  0  0  0
  188.4980  174.3870  142.0250 C   0  0  0  0  0  0  0  0  0  0  0  0
  187.6990  176.0960  140.4520 O   0  0  0  0  0  1  0  0  0  0  0  0
  187.4940  176.4740  143.1790 C   0  0  0  0  0  0  0  0  0  0  0  0
  186.2270  178.9550  142.8600 C   0  0  0  0  0  3  0  0  0  0  0  0
  188.2600  174.8510  140.7070 C   0  0  0  0  0  0  0  0  0  0  0  0
  190.3230  176.2880  143.8170 C   0  0  2  0  0  3  0  0  0  0  0  0
  184.0510  177.8330  142.3720 C   0  0  0  0  0  1  0  0  0  0  0  0
  189.4560  172.6750  143.5820 C   0  0  0  0  0  2  0  0  0  0  0  0
  188.6050  174.0490  139.6150 C   0  0  0  0  0  3  0  0  0  0  0  0
  189.6520  177.6670  143.8290 C   0  0  0  0  0  2  0  0  0  0  0  0
  189.3630  175.1740  144.2670 C   0  0  2  0  0  3  0  0  0  0  0  0
  186.1270  176.5360  142.8710 C   0  0  0  0  0  3  0  0  0  0  0  0
  189.1990  172.8010  139.8080 C   0  0  0  0  0  3  0  0  0  0  0  0
  188.2280  177.6680  143.3440 C   0  0  0  0  0  0  0  0  0  0  0  0
  187.5850  178.9010  143.1870 C   0  0  0  0  0  3  0  0  0  0  0  0
  190.1040  173.8190  144.3750 C   0  0  0  0  0  2  0  0  0  0  0  0
  189.1280  173.1410  142.1990 C   0  0  0  0  0  0  0  0  0  0  0  0
  189.4660  172.3500  141.0990 C   0  0  0  0  0  3  0  0  0  0  0  0
  193.7950  176.5490  146.4170 C   0  0  0  0  0  1  0  0  0  0  0  0
  193.0530  176.3450  142.8480 O   0  0  0  0  0  0  0  0  0  0  0  0
  192.8700  176.3520  144.0970 C   0  0  0  0  0  0  0  0  0  0  0  0
  193.9960  176.3980  144.9850 N   0  0  0  0  0  0  0  0  0  0  0  0
  191.5380  176.3160  144.6290 N   0  0  0  0  0  2  0  0  0  0  0  0
  195.3620  176.3930  144.4770 C   0  0  0  0  0  2  0  0  0  0  0  0
  196.0440  175.0700  144.7880 C   0  0  0  0  0  2  0  0  0  0  0  0
  195.4340  174.0350  144.0580 O   0  0  0  0  0  0  0  0  0  0  0  0
  195.2400  172.9260  144.9100 C   0  0  1  0  0  3  0  0  0  0  0  0
  196.1940  172.8780  145.9340 O   0  0  0  0  0  1  0  0  0  0  0  0
  193.8250  172.8570  145.4720 C   0  0  0  0  0  1  0  0  0  0  0  0
  1  6  2  0  0  0  0
  1 14  1  0  0  0  0
  2  3  1  6  0  0  0
  2 13  1  0  0  0  0
  3 19  1  0  0  0  0
  4  7  1  0  0  0  0
  5  2  1  0  0  0  0
  5 16  1  0  0  0  0
  6 17  1  0  0  0  0
  7  3  2  0  0  0  0
  8 12  1  0  0  0  0
  8 13  1  0  0  0  0
  8 25  1  1  0  0  0
  9  1  1  0  0  0  0
 10 18  1  0  0  0  0
 11 15  2  0  0  0  0
 11  7  1  0  0  0  0
 13 18  1  6  0  0  0
 14  5  2  0  0  0  0
 15 20  1  0  0  0  0
 16 12  1  0  0  0  0
 17 16  2  0  0  0  0
 19 10  1  0  0  0  0
 20 19  2  0  0  0  0
 22 23  2  0  0  0  0
 23 25  1  0  0  0  0
 23 24  1  0  0  0  0
 24 21  1  0  0  0  0
 26 27  1  0  0  0  0
 26 24  1  0  0  0  0
 28 27  1  0  0  0  0
 28 29  1  0  0  0  0
 29 31  1  1  0  0  0
 29 30  1  0  0  0  0
M  END
>  <MODEL>
9

>  <REMARK>
 VINA RESULT:      -7.0      2.922      7.460
  Name = 
  5 active torsions:
  status: ('A' for Active; 'I' for Inactive)
    1  A    between atoms: C_1  and  O_24
    2  A    between atoms: C_6  and  C_19
    3  A    between atoms: C_6  and  N_22
    4  A    between atoms: C_15  and  N_23
    5  A    between atoms: C_19  and  O_24
                            x       y       z     vdW  Elec       q    Type
                         _______ _______ _______ _____ _____    ______ ____

>  <TORSDO>
F 5

$$$$
