=
 OpenBabel11052420513D

 43 48  0  0  1  0  0  0  0  0999 V2000
  193.0400  171.4740  144.0080 N   0  0  0  0  0  0  0  0  0  0  0  0
  192.3890  172.4010  144.6210 C   0  0  0  0  0  0  0  0  0  0  0  0
  194.4770  171.3680  144.1220 C   0  0  0  0  0  2  0  0  0  0  0  0
  193.1160  173.4120  145.4710 C   0  0  0  0  0  2  0  0  0  0  0  0
  194.4990  173.7790  144.8990 C   0  0  1  0  0  3  0  0  0  0  0  0
  195.1020  172.7460  143.9260 C   0  0  0  0  0  2  0  0  0  0  0  0
  190.9060  172.4880  144.4680 C   0  0  0  0  0  2  0  0  0  0  0  0
  189.3220  172.0920  142.7790 C   0  0  0  0  0  2  0  0  0  0  0  0
  189.2730  173.5070  143.1310 C   0  0  1  0  0  3  0  0  0  0  0  0
  190.5680  172.8090  143.0920 N   0  0  0  0  0  0  0  0  0  0  0  0
  189.1330  174.3560  141.8780 C   0  0  2  0  0  3  0  0  0  0  0  0
  188.1650  175.4760  142.1040 C   0  0  0  0  0  0  0  0  0  0  0  0
  186.1210  176.3570  143.0780 C   0  0  0  0  0  3  0  0  0  0  0  0
  187.5350  177.7890  141.7310 C   0  0  0  0  0  3  0  0  0  0  0  0
  186.3840  177.6030  142.5020 C   0  0  0  0  0  3  0  0  0  0  0  0
  188.4250  176.7280  141.5350 C   0  0  0  0  0  3  0  0  0  0  0  0
  187.0100  175.2960  142.8820 C   0  0  0  0  0  3  0  0  0  0  0  0
  188.6250  173.3190  140.4660 S   0  0  0  0  0  0  0  0  0  0  0  0
  190.1610  173.6430  139.5550 C   0  0  1  0  0  3  0  0  0  0  0  0
  190.9850  173.7710  137.2360 C   0  0  0  0  0  1  0  0  0  0  0  0
  190.8380  172.3280  139.2340 C   0  0  0  0  0  2  0  0  0  0  0  0
  190.0390  173.0460  138.1690 C   0  0  1  0  0  3  0  0  0  0  0  0
  194.5070  175.2170  144.3630 C   0  0  1  0  0  3  0  0  0  0  0  0
  194.3770  175.2420  140.0510 C   0  0  0  0  0  0  0  0  0  0  0  0
  195.5000  175.9260  142.0930 C   0  0  0  0  0  0  0  0  0  0  0  0
  193.3990  174.5900  140.8030 C   0  0  0  0  0  3  0  0  0  0  0  0
  194.3060  175.2280  138.5680 C   0  0  0  0  0  1  0  0  0  0  0  0
  194.5110  175.2620  142.8570 C   0  0  0  0  0  0  0  0  0  0  0  0
  195.4240  175.9070  140.6950 C   0  0  0  0  0  3  0  0  0  0  0  0
  193.4670  174.6010  142.1980 C   0  0  0  0  0  3  0  0  0  0  0  0
  197.7140  175.7800  142.9130 O   0  0  0  0  0  1  0  0  0  0  0  0
  196.6420  176.6530  142.7250 C   0  0  0  0  0  2  0  0  0  0  0  0
  193.5180  176.2010  145.0180 C   0  0  1  0  0  3  0  0  0  0  0  0
  194.1920  177.2130  145.7040 O   0  0  0  0  0  1  0  0  0  0  0  0
  192.5570  176.8150  143.9980 C   0  0  0  0  0  2  0  0  0  0  0  0
  189.5700  175.8370  146.1830 C   0  0  0  0  0  3  0  0  0  0  0  0
  188.7230  176.8260  145.8760 C   0  0  0  0  0  0  0  0  0  0  0  0
  190.3000  177.8310  144.3080 C   0  0  0  0  0  3  0  0  0  0  0  0
  191.0020  175.8920  145.7250 C   0  0  0  0  0  2  0  0  0  0  0  0
  191.0980  176.5520  144.3460 C   0  0  2  0  0  3  0  0  0  0  0  0
  189.1630  177.9330  145.0030 C   0  0  0  0  0  3  0  0  0  0  0  0
  186.2430  176.7660  146.7830 C   0  0  0  0  0  3  0  0  0  0  0  0
  187.3750  176.7900  146.3700 C   0  0  0  0  0  0  0  0  0  0  0  0
  1  3  1  0  0  0  0
  1  2  2  0  0  0  0
  2  4  1  0  0  0  0
  5 23  1  6  0  0  0
  5  4  1  0  0  0  0
  6  3  1  0  0  0  0
  6  5  1  0  0  0  0
  7  2  1  0  0  0  0
  8 10  1  0  0  0  0
  8  9  1  0  0  0  0
  9 11  1  6  0  0  0
 10  9  1  0  0  0  0
 10  7  1  0  0  0  0
 11 18  1  6  0  0  0
 11 12  1  0  0  0  0
 12 17  1  0  0  0  0
 14 15  2  0  0  0  0
 15 13  1  0  0  0  0
 16 14  1  0  0  0  0
 16 12  2  0  0  0  0
 17 13  2  0  0  0  0
 19 18  1  1  0  0  0
 21 19  1  0  0  0  0
 22 20  1  6  0  0  0
 22 21  1  0  0  0  0
 22 19  1  0  0  0  0
 23 33  1  6  0  0  0
 24 29  2  0  0  0  0
 24 26  1  0  0  0  0
 25 32  1  0  0  0  0
 25 28  2  0  0  0  0
 26 30  2  0  0  0  0
 27 24  1  0  0  0  0
 28 23  1  0  0  0  0
 29 25  1  0  0  0  0
 30 28  1  0  0  0  0
 32 31  1  0  0  0  0
 33 34  1  6  0  0  0
 35 33  1  0  0  0  0
 37 36  2  0  0  0  0
 37 43  1  0  0  0  0
 38 40  1  0  0  0  0
 38 41  2  0  0  0  0
 39 36  1  0  0  0  0
 40 35  1  1  0  0  0
 40 39  1  0  0  0  0
 41 37  1  0  0  0  0
 43 42  3  0  0  0  0
M  END
>  <MODEL>
1

>  <REMARK>
 VINA RESULT:      -6.6      0.000      0.000
  Name = 
  13 active torsions:
  status: ('A' for Active; 'I' for Inactive)
    1  A    between atoms: C_1  and  C_8
    2  A    between atoms: C_1  and  C_35
    3  A    between atoms: C_4  and  C_14
    4  A    between atoms: C_6  and  C_17
    5  A    between atoms: C_8  and  C_30
    6  A    between atoms: C_10  and  S_41
    7  A    between atoms: C_11  and  C_14
    8  A    between atoms: N_12  and  C_17
    9  A    between atoms: C_14  and  S_41
   10  A    between atoms: C_16  and  C_43
   11  A    between atoms: C_19  and  C_37
   12  A    between atoms: C_21  and  C_30
   13  A    between atoms: C_27  and  C_30
                            x       y       z     vdW  Elec       q    Type
                         _______ _______ _______ _____ _____    ______ ____

>  <TORSDO>
F 13

$$$$
=
 OpenBabel11052420513D

 43 48  0  0  1  0  0  0  0  0999 V2000
  189.6480  172.6820  141.3250 N   0  0  0  0  0  0  0  0  0  0  0  0
  190.6020  173.1710  142.0390 C   0  0  0  0  0  0  0  0  0  0  0  0
  188.6580  173.5390  140.7120 C   0  0  0  0  0  2  0  0  0  0  0  0
  190.7050  174.6580  142.2620 C   0  0  0  0  0  2  0  0  0  0  0  0
  189.3260  175.3370  142.3660 C   0  0  1  0  0  3  0  0  0  0  0  0
  188.1580  174.5490  141.7410 C   0  0  0  0  0  2  0  0  0  0  0  0
  191.5980  172.2530  142.6680 C   0  0  0  0  0  2  0  0  0  0  0  0
  192.9640  171.8800  144.5420 C   0  0  0  0  0  2  0  0  0  0  0  0
  193.6960  172.7220  143.6020 C   0  0  1  0  0  3  0  0  0  0  0  0
  192.2490  172.9180  143.7840 N   0  0  0  0  0  0  0  0  0  0  0  0
  194.4400  173.8180  144.3470 C   0  0  2  0  0  3  0  0  0  0  0  0
  194.9990  174.8230  143.3880 C   0  0  0  0  0  0  0  0  0  0  0  0
  195.0000  175.9240  141.2220 C   0  0  0  0  0  3  0  0  0  0  0  0
  196.6110  176.5710  142.9110 C   0  0  0  0  0  3  0  0  0  0  0  0
  196.0750  176.7190  141.6280 C   0  0  0  0  0  3  0  0  0  0  0  0
  196.0720  175.6270  143.7890 C   0  0  0  0  0  3  0  0  0  0  0  0
  194.4610  174.9800  142.1010 C   0  0  0  0  0  3  0  0  0  0  0  0
  195.7520  173.0970  145.3880 S   0  0  0  0  0  0  0  0  0  0  0  0
  196.4470  172.1380  144.0130 C   0  0  1  0  0  3  0  0  0  0  0  0
  196.8490  169.7960  143.3620 C   0  0  0  0  0  1  0  0  0  0  0  0
  197.8970  171.8220  144.3070 C   0  0  0  0  0  2  0  0  0  0  0  0
  196.8350  170.7670  144.5240 C   0  0  1  0  0  3  0  0  0  0  0  0
  189.0570  175.8160  143.8000 C   0  0  1  0  0  3  0  0  0  0  0  0
  192.7530  176.4040  145.9440 C   0  0  0  0  0  0  0  0  0  0  0  0
  190.6100  175.2740  145.7830 C   0  0  0  0  0  0  0  0  0  0  0  0
  192.4750  177.1070  144.7700 C   0  0  0  0  0  3  0  0  0  0  0  0
  194.0380  176.6250  146.6560 C   0  0  0  0  0  1  0  0  0  0  0  0
  190.3280  175.9830  144.5910 C   0  0  0  0  0  0  0  0  0  0  0  0
  191.8230  175.4910  146.4470 C   0  0  0  0  0  3  0  0  0  0  0  0
  191.2690  176.8960  144.0990 C   0  0  0  0  0  3  0  0  0  0  0  0
  188.9450  174.8740  147.4150 O   0  0  0  0  0  1  0  0  0  0  0  0
  189.6540  174.2850  146.3690 C   0  0  0  0  0  2  0  0  0  0  0  0
  188.0600  176.9810  143.9590 C   0  0  1  0  0  3  0  0  0  0  0  0
  188.2210  177.6190  145.1900 O   0  0  0  0  0  1  0  0  0  0  0  0
  188.1800  178.0000  142.8240 C   0  0  0  0  0  2  0  0  0  0  0  0
  185.1360  178.0500  140.5040 C   0  0  0  0  0  3  0  0  0  0  0  0
  184.1530  178.0680  141.4100 C   0  0  0  0  0  0  0  0  0  0  0  0
  185.7280  178.0860  143.2730 C   0  0  0  0  0  3  0  0  0  0  0  0
  186.5590  177.8100  140.9300 C   0  0  0  0  0  2  0  0  0  0  0  0
  186.8210  178.4450  142.2990 C   0  0  2  0  0  3  0  0  0  0  0  0
  184.4680  177.9500  142.8480 C   0  0  0  0  0  3  0  0  0  0  0  0
  181.6510  178.3850  140.6230 C   0  0  0  0  0  3  0  0  0  0  0  0
  182.7920  178.2370  140.9830 C   0  0  0  0  0  0  0  0  0  0  0  0
  1  2  2  0  0  0  0
  2  4  1  0  0  0  0
  2  7  1  0  0  0  0
  3  1  1  0  0  0  0
  3  6  1  0  0  0  0
  4  5  1  0  0  0  0
  5 23  1  1  0  0  0
  6  5  1  0  0  0  0
  7 10  1  0  0  0  0
  9 10  1  0  0  0  0
  9 11  1  1  0  0  0
  9  8  1  0  0  0  0
 10  8  1  0  0  0  0
 11 18  1  6  0  0  0
 12 16  1  0  0  0  0
 12 11  1  0  0  0  0
 13 15  2  0  0  0  0
 13 17  1  0  0  0  0
 14 16  2  0  0  0  0
 15 14  1  0  0  0  0
 17 12  2  0  0  0  0
 19 21  1  0  0  0  0
 19 22  1  0  0  0  0
 19 18  1  1  0  0  0
 21 22  1  0  0  0  0
 22 20  1  6  0  0  0
 23 33  1  6  0  0  0
 23 28  1  0  0  0  0
 24 29  1  0  0  0  0
 24 27  1  0  0  0  0
 25 32  1  0  0  0  0
 25 29  2  0  0  0  0
 26 24  2  0  0  0  0
 28 25  1  0  0  0  0
 30 28  2  0  0  0  0
 30 26  1  0  0  0  0
 32 31  1  0  0  0  0
 33 34  1  1  0  0  0
 35 33  1  0  0  0  0
 36 39  1  0  0  0  0
 36 37  2  0  0  0  0
 37 41  1  0  0  0  0
 39 40  1  0  0  0  0
 40 35  1  1  0  0  0
 40 38  1  0  0  0  0
 41 38  2  0  0  0  0
 42 43  3  0  0  0  0
 43 37  1  0  0  0  0
M  END
>  <MODEL>
2

>  <REMARK>
 VINA RESULT:      -6.4      2.792      6.754
  Name = 
  13 active torsions:
  status: ('A' for Active; 'I' for Inactive)
    1  A    between atoms: C_1  and  C_8
    2  A    between atoms: C_1  and  C_35
    3  A    between atoms: C_4  and  C_14
    4  A    between atoms: C_6  and  C_17
    5  A    between atoms: C_8  and  C_30
    6  A    between atoms: C_10  and  S_41
    7  A    between atoms: C_11  and  C_14
    8  A    between atoms: N_12  and  C_17
    9  A    between atoms: C_14  and  S_41
   10  A    between atoms: C_16  and  C_43
   11  A    between atoms: C_19  and  C_37
   12  A    between atoms: C_21  and  C_30
   13  A    between atoms: C_27  and  C_30
                            x       y       z     vdW  Elec       q    Type
                         _______ _______ _______ _____ _____    ______ ____

>  <TORSDO>
F 13

$$$$
=
 OpenBabel11052420513D

 43 48  0  0  1  0  0  0  0  0999 V2000
  190.5090  172.7630  139.7050 N   0  0  0  0  0  0  0  0  0  0  0  0
  191.6760  172.9770  140.2050 C   0  0  0  0  0  0  0  0  0  0  0  0
  189.3790  173.5930  140.0610 C   0  0  0  0  0  2  0  0  0  0  0  0
  191.8940  174.0990  141.1860 C   0  0  0  0  0  2  0  0  0  0  0  0
  190.6810  174.3210  142.1090 C   0  0  1  0  0  3  0  0  0  0  0  0
  189.3420  173.7710  141.5760 C   0  0  0  0  0  2  0  0  0  0  0  0
  192.8160  172.0900  139.8230 C   0  0  0  0  0  2  0  0  0  0  0  0
  194.6630  170.8390  140.5590 C   0  0  0  0  0  2  0  0  0  0  0  0
  194.9320  172.2490  140.8190 C   0  0  1  0  0  3  0  0  0  0  0  0
  193.5730  171.7180  141.0070 N   0  0  0  0  0  0  0  0  0  0  0  0
  195.5880  172.4170  142.1800 C   0  0  2  0  0  3  0  0  0  0  0  0
  195.8920  173.8590  142.4450 C   0  0  0  0  0  0  0  0  0  0  0  0
  195.4710  176.2240  142.0810 C   0  0  0  0  0  3  0  0  0  0  0  0
  197.2170  175.5260  143.6060 C   0  0  0  0  0  3  0  0  0  0  0  0
  196.4960  176.5440  142.9740 C   0  0  0  0  0  3  0  0  0  0  0  0
  196.9140  174.1870  143.3430 C   0  0  0  0  0  3  0  0  0  0  0  0
  195.1670  174.8840  141.8180 C   0  0  0  0  0  3  0  0  0  0  0  0
  197.0930  171.3920  142.2860 S   0  0  0  0  0  0  0  0  0  0  0  0
  196.4790  170.4710  143.7230 C   0  0  1  0  0  3  0  0  0  0  0  0
  196.9820  170.1530  146.1140 C   0  0  0  0  0  1  0  0  0  0  0  0
  197.2590  169.1820  143.8610 C   0  0  0  0  0  2  0  0  0  0  0  0
  197.5910  170.3650  144.7450 C   0  0  1  0  0  3  0  0  0  0  0  0
  191.0000  173.8940  143.5490 C   0  0  1  0  0  3  0  0  0  0  0  0
  193.7830  176.6500  145.3540 C   0  0  0  0  0  0  0  0  0  0  0  0
  193.1100  174.3520  144.9550 C   0  0  0  0  0  0  0  0  0  0  0  0
  192.6880  177.1030  144.6170 C   0  0  0  0  0  3  0  0  0  0  0  0
  194.7260  177.6250  145.9600 C   0  0  0  0  0  1  0  0  0  0  0  0
  192.0010  174.8090  144.2040 C   0  0  0  0  0  0  0  0  0  0  0  0
  193.9920  175.2790  145.5220 C   0  0  0  0  0  3  0  0  0  0  0  0
  191.8030  176.1870  144.0460 C   0  0  0  0  0  3  0  0  0  0  0  0
  194.6670  172.7300  145.6900 O   0  0  0  0  0  1  0  0  0  0  0  0
  193.3850  172.8980  145.1670 C   0  0  0  0  0  2  0  0  0  0  0  0
  189.7950  173.5370  144.4430 C   0  0  1  0  0  3  0  0  0  0  0  0
  189.8070  172.1860  144.7900 O   0  0  0  0  0  1  0  0  0  0  0  0
  189.7420  174.3990  145.7060 C   0  0  0  0  0  2  0  0  0  0  0  0
  187.8890  177.7070  146.2330 C   0  0  0  0  0  3  0  0  0  0  0  0
  187.2280  177.7910  145.0730 C   0  0  0  0  0  0  0  0  0  0  0  0
  188.1280  175.6640  144.2850 C   0  0  0  0  0  3  0  0  0  0  0  0
  188.9480  176.6570  146.4300 C   0  0  0  0  0  2  0  0  0  0  0  0
  188.5660  175.3670  145.6980 C   0  0  2  0  0  3  0  0  0  0  0  0
  187.4640  176.7910  144.0120 C   0  0  0  0  0  3  0  0  0  0  0  0
  185.4530  179.7120  144.7050 C   0  0  0  0  0  3  0  0  0  0  0  0
  186.2630  178.8350  144.8760 C   0  0  0  0  0  0  0  0  0  0  0  0
  1  3  1  0  0  0  0
  1  2  2  0  0  0  0
  2  4  1  0  0  0  0
  3  6  1  0  0  0  0
  4  5  1  0  0  0  0
  5 23  1  1  0  0  0
  6  5  1  0  0  0  0
  7  2  1  0  0  0  0
  7 10  1  0  0  0  0
  8  9  1  0  0  0  0
  8 10  1  0  0  0  0
  9 10  1  0  0  0  0
  9 11  1  1  0  0  0
 11 18  1  6  0  0  0
 11 12  1  0  0  0  0
 12 16  1  0  0  0  0
 13 15  2  0  0  0  0
 15 14  1  0  0  0  0
 16 14  2  0  0  0  0
 17 13  1  0  0  0  0
 17 12  2  0  0  0  0
 19 18  1  6  0  0  0
 19 21  1  0  0  0  0
 19 22  1  0  0  0  0
 21 22  1  0  0  0  0
 22 20  1  1  0  0  0
 23 28  1  0  0  0  0
 23 33  1  1  0  0  0
 24 29  1  0  0  0  0
 24 27  1  0  0  0  0
 25 32  1  0  0  0  0
 25 29  2  0  0  0  0
 26 24  2  0  0  0  0
 28 25  1  0  0  0  0
 30 28  2  0  0  0  0
 30 26  1  0  0  0  0
 32 31  1  0  0  0  0
 33 34  1  1  0  0  0
 33 35  1  0  0  0  0
 36 39  1  0  0  0  0
 37 36  2  0  0  0  0
 38 40  1  0  0  0  0
 40 35  1  6  0  0  0
 40 39  1  0  0  0  0
 41 38  2  0  0  0  0
 41 37  1  0  0  0  0
 42 43  3  0  0  0  0
 43 37  1  0  0  0  0
M  END
>  <MODEL>
3

>  <REMARK>
 VINA RESULT:      -6.3      2.665      6.259
  Name = 
  13 active torsions:
  status: ('A' for Active; 'I' for Inactive)
    1  A    between atoms: C_1  and  C_8
    2  A    between atoms: C_1  and  C_35
    3  A    between atoms: C_4  and  C_14
    4  A    between atoms: C_6  and  C_17
    5  A    between atoms: C_8  and  C_30
    6  A    between atoms: C_10  and  S_41
    7  A    between atoms: C_11  and  C_14
    8  A    between atoms: N_12  and  C_17
    9  A    between atoms: C_14  and  S_41
   10  A    between atoms: C_16  and  C_43
   11  A    between atoms: C_19  and  C_37
   12  A    between atoms: C_21  and  C_30
   13  A    between atoms: C_27  and  C_30
                            x       y       z     vdW  Elec       q    Type
                         _______ _______ _______ _____ _____    ______ ____

>  <TORSDO>
F 13

$$$$
=
 OpenBabel11052420513D

 43 48  0  0  1  0  0  0  0  0999 V2000
  190.3920  171.4980  140.0110 N   0  0  0  0  0  0  0  0  0  0  0  0
  190.2600  171.4590  141.2920 C   0  0  0  0  0  0  0  0  0  0  0  0
  191.2570  170.5670  139.3210 C   0  0  0  0  0  2  0  0  0  0  0  0
  191.0140  170.4410  142.1090 C   0  0  0  0  0  2  0  0  0  0  0  0
  192.4120  170.1420  141.5350 C   0  0  1  0  0  3  0  0  0  0  0  0
  192.5980  170.4910  140.0450 C   0  0  0  0  0  2  0  0  0  0  0  0
  189.3680  172.4460  141.9720 C   0  0  0  0  0  2  0  0  0  0  0  0
  189.0660  174.6690  141.2780 C   0  0  0  0  0  2  0  0  0  0  0  0
  189.1000  174.6450  142.7360 C   0  0  1  0  0  3  0  0  0  0  0  0
  189.9900  173.7590  141.9700 N   0  0  0  0  0  0  0  0  0  0  0  0
  189.9080  175.8200  143.2620 C   0  0  2  0  0  3  0  0  0  0  0  0
  190.0290  175.7520  144.7530 C   0  0  0  0  0  0  0  0  0  0  0  0
  189.6510  174.6180  146.8690 C   0  0  0  0  0  3  0  0  0  0  0  0
  190.7870  176.7560  146.8270 C   0  0  0  0  0  3  0  0  0  0  0  0
  190.2810  175.6670  147.5430 C   0  0  0  0  0  3  0  0  0  0  0  0
  190.6640  176.7970  145.4350 C   0  0  0  0  0  3  0  0  0  0  0  0
  189.5270  174.6590  145.4760 C   0  0  0  0  0  3  0  0  0  0  0  0
  189.1540  177.3940  142.7310 S   0  0  0  0  0  0  0  0  0  0  0  0
  187.5490  176.9840  143.4700 C   0  0  1  0  0  3  0  0  0  0  0  0
  185.1630  177.5510  143.2290 C   0  0  0  0  0  1  0  0  0  0  0  0
  187.2110  178.0090  144.5300 C   0  0  0  0  0  2  0  0  0  0  0  0
  186.5730  178.0990  143.1610 C   0  0  1  0  0  3  0  0  0  0  0  0
  193.5120  170.7030  142.4470 C   0  0  1  0  0  3  0  0  0  0  0  0
  194.7990  174.6080  141.1450 C   0  0  0  0  0  0  0  0  0  0  0  0
  195.2540  172.2300  141.3190 C   0  0  0  0  0  0  0  0  0  0  0  0
  193.5770  174.4260  141.7940 C   0  0  0  0  0  3  0  0  0  0  0  0
  195.2110  175.9660  140.7050 C   0  0  0  0  0  1  0  0  0  0  0  0
  194.0130  172.0420  141.9740 C   0  0  0  0  0  0  0  0  0  0  0  0
  195.6340  173.5130  140.9090 C   0  0  0  0  0  3  0  0  0  0  0  0
  193.1880  173.1500  142.2050 C   0  0  0  0  0  3  0  0  0  0  0  0
  196.9710  170.8390  142.1640 O   0  0  0  0  0  1  0  0  0  0  0  0
  196.1880  171.0970  141.0390 C   0  0  0  0  0  2  0  0  0  0  0  0
  193.2500  170.6300  143.9650 C   0  0  1  0  0  3  0  0  0  0  0  0
  192.5880  169.4500  144.3070 O   0  0  0  0  0  1  0  0  0  0  0  0
  194.5390  170.7590  144.7780 C   0  0  0  0  0  2  0  0  0  0  0  0
  195.6570  174.3410  145.5330 C   0  0  0  0  0  3  0  0  0  0  0  0
  194.4770  174.8950  145.8310 C   0  0  0  0  0  0  0  0  0  0  0  0
  193.2870  172.7910  145.5040 C   0  0  0  0  0  3  0  0  0  0  0  0
  195.7210  172.9560  144.9500 C   0  0  0  0  0  2  0  0  0  0  0  0
  194.6150  172.0760  145.5390 C   0  0  2  0  0  3  0  0  0  0  0  0
  193.2330  174.1140  145.6820 C   0  0  0  0  0  3  0  0  0  0  0  0
  194.3900  177.3700  146.7520 C   0  0  0  0  0  3  0  0  0  0  0  0
  194.4270  176.2410  146.3300 C   0  0  0  0  0  0  0  0  0  0  0  0
  1  2  2  0  0  0  0
  2  7  1  0  0  0  0
  2  4  1  0  0  0  0
  3  1  1  0  0  0  0
  3  6  1  0  0  0  0
  5  4  1  0  0  0  0
  5 23  1  1  0  0  0
  6  5  1  0  0  0  0
  8 10  1  0  0  0  0
  8  9  1  0  0  0  0
  9 11  1  6  0  0  0
 10  7  1  0  0  0  0
 10  9  1  0  0  0  0
 11 18  1  1  0  0  0
 11 12  1  0  0  0  0
 12 16  2  0  0  0  0
 12 17  1  0  0  0  0
 13 15  1  0  0  0  0
 14 15  2  0  0  0  0
 16 14  1  0  0  0  0
 17 13  2  0  0  0  0
 19 18  1  6  0  0  0
 19 21  1  0  0  0  0
 22 20  1  1  0  0  0
 22 19  1  0  0  0  0
 22 21  1  0  0  0  0
 23 33  1  1  0  0  0
 24 26  1  0  0  0  0
 25 28  2  0  0  0  0
 26 30  2  0  0  0  0
 27 24  1  0  0  0  0
 28 30  1  0  0  0  0
 28 23  1  0  0  0  0
 29 24  2  0  0  0  0
 29 25  1  0  0  0  0
 32 25  1  0  0  0  0
 32 31  1  0  0  0  0
 33 34  1  6  0  0  0
 33 35  1  0  0  0  0
 36 37  2  0  0  0  0
 37 43  1  0  0  0  0
 38 40  1  0  0  0  0
 38 41  2  0  0  0  0
 39 36  1  0  0  0  0
 39 40  1  0  0  0  0
 40 35  1  6  0  0  0
 41 37  1  0  0  0  0
 43 42  3  0  0  0  0
M  END
>  <MODEL>
4

>  <REMARK>
 VINA RESULT:      -6.2      2.419      5.288
  Name = 
  13 active torsions:
  status: ('A' for Active; 'I' for Inactive)
    1  A    between atoms: C_1  and  C_8
    2  A    between atoms: C_1  and  C_35
    3  A    between atoms: C_4  and  C_14
    4  A    between atoms: C_6  and  C_17
    5  A    between atoms: C_8  and  C_30
    6  A    between atoms: C_10  and  S_41
    7  A    between atoms: C_11  and  C_14
    8  A    between atoms: N_12  and  C_17
    9  A    between atoms: C_14  and  S_41
   10  A    between atoms: C_16  and  C_43
   11  A    between atoms: C_19  and  C_37
   12  A    between atoms: C_21  and  C_30
   13  A    between atoms: C_27  and  C_30
                            x       y       z     vdW  Elec       q    Type
                         _______ _______ _______ _____ _____    ______ ____

>  <TORSDO>
F 13

$$$$
=
 OpenBabel11052420513D

 43 48  0  0  1  0  0  0  0  0999 V2000
  188.2010  174.3800  139.3910 N   0  0  0  0  0  0  0  0  0  0  0  0
  188.2090  174.5590  140.6670 C   0  0  0  0  0  0  0  0  0  0  0  0
  188.1910  173.0510  138.8220 C   0  0  0  0  0  2  0  0  0  0  0  0
  188.2180  173.3790  141.6040 C   0  0  0  0  0  2  0  0  0  0  0  0
  189.0300  172.1920  141.0530 C   0  0  1  0  0  3  0  0  0  0  0  0
  189.2390  172.1930  139.5250 C   0  0  0  0  0  2  0  0  0  0  0  0
  188.2330  175.9470  141.2170 C   0  0  0  0  0  2  0  0  0  0  0  0
  189.5950  176.9670  142.8360 C   0  0  0  0  0  2  0  0  0  0  0  0
  188.2010  177.2210  143.1840 C   0  0  1  0  0  3  0  0  0  0  0  0
  188.5880  175.9160  142.6260 N   0  0  0  0  0  0  0  0  0  0  0  0
  187.9980  177.0750  144.6830 C   0  0  2  0  0  3  0  0  0  0  0  0
  186.6560  177.6040  145.0880 C   0  0  0  0  0  0  0  0  0  0  0  0
  184.6840  177.5380  146.5050 C   0  0  0  0  0  3  0  0  0  0  0  0
  184.8680  179.2090  144.7630 C   0  0  0  0  0  3  0  0  0  0  0  0
  184.1510  178.6290  145.8130 C   0  0  0  0  0  3  0  0  0  0  0  0
  186.1190  178.6990  144.4030 C   0  0  0  0  0  3  0  0  0  0  0  0
  185.9350  177.0280  146.1460 C   0  0  0  0  0  3  0  0  0  0  0  0
  189.3410  177.9150  145.5880 S   0  0  0  0  0  0  0  0  0  0  0  0
  189.3930  176.6430  146.8810 C   0  0  1  0  0  3  0  0  0  0  0  0
  191.0310  175.2910  148.1300 C   0  0  0  0  0  1  0  0  0  0  0  0
  189.4480  175.2760  146.2350 C   0  0  0  0  0  2  0  0  0  0  0  0
  190.7110  175.9040  146.7830 C   0  0  1  0  0  3  0  0  0  0  0  0
  190.3220  171.9900  141.8570 C   0  0  1  0  0  3  0  0  0  0  0  0
  193.7750  173.2580  139.6040 C   0  0  0  0  0  0  0  0  0  0  0  0
  192.5070  171.4450  140.6050 C   0  0  0  0  0  0  0  0  0  0  0  0
  192.8310  174.1780  140.0650 C   0  0  0  0  0  3  0  0  0  0  0  0
  194.9510  173.7260  138.8260 C   0  0  0  0  0  1  0  0  0  0  0  0
  191.5470  172.3760  141.0700 C   0  0  0  0  0  0  0  0  0  0  0  0
  193.6120  171.8970  139.8730 C   0  0  0  0  0  3  0  0  0  0  0  0
  191.7240  173.7370  140.7930 C   0  0  0  0  0  3  0  0  0  0  0  0
  191.7910  169.3530  139.7660 O   0  0  0  0  0  1  0  0  0  0  0  0
  192.3860  169.9780  140.8620 C   0  0  0  0  0  2  0  0  0  0  0  0
  190.3180  172.5120  143.3080 C   0  0  1  0  0  3  0  0  0  0  0  0
  189.3010  171.9160  144.0560 O   0  0  0  0  0  1  0  0  0  0  0  0
  191.6660  172.3000  143.9990 C   0  0  0  0  0  2  0  0  0  0  0  0
  194.1640  174.6010  145.7640 C   0  0  0  0  0  3  0  0  0  0  0  0
  193.9390  175.7410  145.1020 C   0  0  0  0  0  0  0  0  0  0  0  0
  192.2030  174.7200  143.7240 C   0  0  0  0  0  3  0  0  0  0  0  0
  193.5570  173.3110  145.2860 C   0  0  0  0  0  2  0  0  0  0  0  0
  192.1690  173.5610  144.6890 C   0  0  2  0  0  3  0  0  0  0  0  0
  193.0130  175.7580  143.9510 C   0  0  0  0  0  3  0  0  0  0  0  0
  195.1090  177.9740  145.8920 C   0  0  0  0  0  3  0  0  0  0  0  0
  194.5730  176.9540  145.5340 C   0  0  0  0  0  0  0  0  0  0  0  0
  1  2  2  0  0  0  0
  2  7  1  0  0  0  0
  2  4  1  0  0  0  0
  3  1  1  0  0  0  0
  3  6  1  0  0  0  0
  5  4  1  0  0  0  0
  5 23  1  1  0  0  0
  6  5  1  0  0  0  0
  7 10  1  0  0  0  0
  8  9  1  0  0  0  0
  9 11  1  1  0  0  0
 10  8  1  0  0  0  0
 10  9  1  0  0  0  0
 11 12  1  0  0  0  0
 11 18  1  1  0  0  0
 12 17  1  0  0  0  0
 14 15  2  0  0  0  0
 15 13  1  0  0  0  0
 16 14  1  0  0  0  0
 16 12  2  0  0  0  0
 17 13  2  0  0  0  0
 19 18  1  6  0  0  0
 21 22  1  0  0  0  0
 21 19  1  0  0  0  0
 22 19  1  0  0  0  0
 22 20  1  1  0  0  0
 23 33  1  1  0  0  0
 24 29  2  0  0  0  0
 24 26  1  0  0  0  0
 25 32  1  0  0  0  0
 25 28  2  0  0  0  0
 26 30  2  0  0  0  0
 27 24  1  0  0  0  0
 28 23  1  0  0  0  0
 29 25  1  0  0  0  0
 30 28  1  0  0  0  0
 31 32  1  0  0  0  0
 33 35  1  0  0  0  0
 33 34  1  1  0  0  0
 37 43  1  0  0  0  0
 37 36  2  0  0  0  0
 38 41  2  0  0  0  0
 38 40  1  0  0  0  0
 39 36  1  0  0  0  0
 40 35  1  6  0  0  0
 40 39  1  0  0  0  0
 41 37  1  0  0  0  0
 43 42  3  0  0  0  0
M  END
>  <MODEL>
5

>  <REMARK>
 VINA RESULT:      -6.1      2.915      5.889
  Name = 
  13 active torsions:
  status: ('A' for Active; 'I' for Inactive)
    1  A    between atoms: C_1  and  C_8
    2  A    between atoms: C_1  and  C_35
    3  A    between atoms: C_4  and  C_14
    4  A    between atoms: C_6  and  C_17
    5  A    between atoms: C_8  and  C_30
    6  A    between atoms: C_10  and  S_41
    7  A    between atoms: C_11  and  C_14
    8  A    between atoms: N_12  and  C_17
    9  A    between atoms: C_14  and  S_41
   10  A    between atoms: C_16  and  C_43
   11  A    between atoms: C_19  and  C_37
   12  A    between atoms: C_21  and  C_30
   13  A    between atoms: C_27  and  C_30
                            x       y       z     vdW  Elec       q    Type
                         _______ _______ _______ _____ _____    ______ ____

>  <TORSDO>
F 13

$$$$
=
 OpenBabel11052420513D

 43 48  0  0  1  0  0  0  0  0999 V2000
  192.9360  177.1540  147.4760 N   0  0  0  0  0  0  0  0  0  0  0  0
  193.0070  176.2360  146.5760 C   0  0  0  0  0  0  0  0  0  0  0  0
  191.8640  177.1690  148.4470 C   0  0  0  0  0  2  0  0  0  0  0  0
  191.9630  175.1510  146.5050 C   0  0  0  0  0  2  0  0  0  0  0  0
  190.5590  175.6560  146.8880 C   0  0  1  0  0  3  0  0  0  0  0  0
  190.5330  176.9460  147.7330 C   0  0  0  0  0  2  0  0  0  0  0  0
  194.1210  176.2630  145.5810 C   0  0  0  0  0  2  0  0  0  0  0  0
  194.6610  176.2040  143.2960 C   0  0  0  0  0  2  0  0  0  0  0  0
  194.6010  174.8320  143.7880 C   0  0  1  0  0  3  0  0  0  0  0  0
  193.6370  175.8270  144.2820 N   0  0  0  0  0  0  0  0  0  0  0  0
  193.9090  173.9390  142.7710 C   0  0  2  0  0  3  0  0  0  0  0  0
  193.8790  172.5200  143.2480 C   0  0  0  0  0  0  0  0  0  0  0  0
  193.6170  170.8760  145.0180 C   0  0  0  0  0  3  0  0  0  0  0  0
  194.0630  170.1530  142.7510 C   0  0  0  0  0  3  0  0  0  0  0  0
  193.8300  169.8490  144.0950 C   0  0  0  0  0  3  0  0  0  0  0  0
  194.0850  171.4860  142.3280 C   0  0  0  0  0  3  0  0  0  0  0  0
  193.6400  172.2090  144.5960 C   0  0  0  0  0  3  0  0  0  0  0  0
  194.7320  174.0740  141.1480 S   0  0  0  0  0  0  0  0  0  0  0  0
  193.1770  174.4310  140.2840 C   0  0  1  0  0  3  0  0  0  0  0  0
  191.3830  173.2570  139.0700 C   0  0  0  0  0  1  0  0  0  0  0  0
  193.4510  174.5790  138.8030 C   0  0  0  0  0  2  0  0  0  0  0  0
  192.8720  173.2880  139.3390 C   0  0  1  0  0  3  0  0  0  0  0  0
  189.6370  175.6980  145.6610 C   0  0  1  0  0  3  0  0  0  0  0  0
  190.2220  172.2090  143.1930 C   0  0  0  0  0  0  0  0  0  0  0  0
  190.1740  174.6300  143.3790 C   0  0  0  0  0  0  0  0  0  0  0  0
  189.8970  172.0950  144.5450 C   0  0  0  0  0  3  0  0  0  0  0  0
  190.4210  170.9880  142.3700 C   0  0  0  0  0  1  0  0  0  0  0  0
  189.8490  174.5160  144.7520 C   0  0  0  0  0  0  0  0  0  0  0  0
  190.3600  173.4730  142.6130 C   0  0  0  0  0  3  0  0  0  0  0  0
  189.7120  173.2430  145.3190 C   0  0  0  0  0  3  0  0  0  0  0  0
  189.3150  176.1380  141.7720 O   0  0  0  0  0  1  0  0  0  0  0  0
  190.3360  175.9540  142.7040 C   0  0  0  0  0  2  0  0  0  0  0  0
  188.1550  176.0290  145.9270 C   0  0  1  0  0  3  0  0  0  0  0  0
  187.8410  175.8930  147.2800 O   0  0  0  0  0  1  0  0  0  0  0  0
  187.7840  177.4330  145.4440 C   0  0  0  0  0  2  0  0  0  0  0  0
  184.7160  178.9960  143.7720 C   0  0  0  0  0  3  0  0  0  0  0  0
  184.5710  178.1690  142.7310 C   0  0  0  0  0  0  0  0  0  0  0  0
  186.4710  176.8010  143.4190 C   0  0  0  0  0  3  0  0  0  0  0  0
  185.9440  178.9220  144.6370 C   0  0  0  0  0  2  0  0  0  0  0  0
  186.4190  177.4710  144.7690 C   0  0  2  0  0  3  0  0  0  0  0  0
  185.5710  177.1110  142.4810 C   0  0  0  0  0  3  0  0  0  0  0  0
  182.4560  178.3940  141.1660 C   0  0  0  0  0  3  0  0  0  0  0  0
  183.4230  178.2900  141.8770 C   0  0  0  0  0  0  0  0  0  0  0  0
  1  3  1  0  0  0  0
  2  1  2  0  0  0  0
  4  2  1  0  0  0  0
  4  5  1  0  0  0  0
  5 23  1  6  0  0  0
  5  6  1  0  0  0  0
  6  3  1  0  0  0  0
  7  2  1  0  0  0  0
  8  9  1  0  0  0  0
  8 10  1  0  0  0  0
  9 11  1  6  0  0  0
  9 10  1  0  0  0  0
 10  7  1  0  0  0  0
 11 18  1  6  0  0  0
 11 12  1  0  0  0  0
 12 17  1  0  0  0  0
 14 15  2  0  0  0  0
 15 13  1  0  0  0  0
 16 14  1  0  0  0  0
 16 12  2  0  0  0  0
 17 13  2  0  0  0  0
 19 18  1  1  0  0  0
 21 22  1  0  0  0  0
 21 19  1  0  0  0  0
 22 20  1  6  0  0  0
 22 19  1  0  0  0  0
 23 33  1  1  0  0  0
 24 26  1  0  0  0  0
 25 28  2  0  0  0  0
 26 30  2  0  0  0  0
 27 24  1  0  0  0  0
 28 30  1  0  0  0  0
 28 23  1  0  0  0  0
 29 24  2  0  0  0  0
 29 25  1  0  0  0  0
 31 32  1  0  0  0  0
 32 25  1  0  0  0  0
 33 34  1  1  0  0  0
 35 33  1  0  0  0  0
 36 39  1  0  0  0  0
 37 36  2  0  0  0  0
 38 40  1  0  0  0  0
 39 40  1  0  0  0  0
 40 35  1  6  0  0  0
 41 37  1  0  0  0  0
 41 38  2  0  0  0  0
 42 43  3  0  0  0  0
 43 37  1  0  0  0  0
M  END
>  <MODEL>
6

>  <REMARK>
 VINA RESULT:      -6.1      2.653      6.129
  Name = 
  13 active torsions:
  status: ('A' for Active; 'I' for Inactive)
    1  A    between atoms: C_1  and  C_8
    2  A    between atoms: C_1  and  C_35
    3  A    between atoms: C_4  and  C_14
    4  A    between atoms: C_6  and  C_17
    5  A    between atoms: C_8  and  C_30
    6  A    between atoms: C_10  and  S_41
    7  A    between atoms: C_11  and  C_14
    8  A    between atoms: N_12  and  C_17
    9  A    between atoms: C_14  and  S_41
   10  A    between atoms: C_16  and  C_43
   11  A    between atoms: C_19  and  C_37
   12  A    between atoms: C_21  and  C_30
   13  A    between atoms: C_27  and  C_30
                            x       y       z     vdW  Elec       q    Type
                         _______ _______ _______ _____ _____    ______ ____

>  <TORSDO>
F 13

$$$$
=
 OpenBabel11052420513D

 43 48  0  0  1  0  0  0  0  0999 V2000
  191.1260  172.9700  143.1800 N   0  0  0  0  0  0  0  0  0  0  0  0
  190.6650  173.5560  142.1310 C   0  0  0  0  0  0  0  0  0  0  0  0
  190.3300  172.8510  144.3820 C   0  0  0  0  0  2  0  0  0  0  0  0
  189.2780  174.1460  142.1310 C   0  0  0  0  0  2  0  0  0  0  0  0
  188.8880  174.7370  143.4990 C   0  0  1  0  0  3  0  0  0  0  0  0
  189.6920  174.2010  144.6990 C   0  0  0  0  0  2  0  0  0  0  0  0
  191.5220  173.6720  140.9130 C   0  0  0  0  0  2  0  0  0  0  0  0
  193.0400  172.2530  139.8180 C   0  0  0  0  0  2  0  0  0  0  0  0
  193.7360  173.4870  140.1660 C   0  0  1  0  0  3  0  0  0  0  0  0
  192.7500  172.9180  141.0980 N   0  0  0  0  0  0  0  0  0  0  0  0
  195.1340  173.1770  140.6760 C   0  0  2  0  0  3  0  0  0  0  0  0
  195.7450  174.3870  141.3120 C   0  0  0  0  0  0  0  0  0  0  0  0
  197.4170  175.4270  142.7350 C   0  0  0  0  0  3  0  0  0  0  0  0
  195.7450  176.7910  141.6370 C   0  0  0  0  0  3  0  0  0  0  0  0
  196.8560  176.6810  142.4770 C   0  0  0  0  0  3  0  0  0  0  0  0
  195.1920  175.6470  141.0540 C   0  0  0  0  0  3  0  0  0  0  0  0
  196.8640  174.2820  142.1520 C   0  0  0  0  0  3  0  0  0  0  0  0
  196.1760  172.5440  139.3200 S   0  0  0  0  0  0  0  0  0  0  0  0
  195.8110  173.9640  138.2500 C   0  0  1  0  0  3  0  0  0  0  0  0
  195.8290  174.5810  135.8650 C   0  0  0  0  0  1  0  0  0  0  0  0
  197.0890  174.7290  137.9830 C   0  0  0  0  0  2  0  0  0  0  0  0
  196.5410  173.7830  136.9370 C   0  0  1  0  0  3  0  0  0  0  0  0
  188.8150  176.2690  143.4340 C   0  0  1  0  0  3  0  0  0  0  0  0
  186.2450  177.7930  146.5460 C   0  0  0  0  0  0  0  0  0  0  0  0
  186.8840  177.7930  144.2030 C   0  0  0  0  0  0  0  0  0  0  0  0
  187.2410  176.8550  146.8210 C   0  0  0  0  0  3  0  0  0  0  0  0
  185.3740  178.2950  147.6390 C   0  0  0  0  0  1  0  0  0  0  0  0
  187.8920  176.8380  144.4800 C   0  0  0  0  0  0  0  0  0  0  0  0
  186.0680  178.2590  145.2410 C   0  0  0  0  0  3  0  0  0  0  0  0
  188.0590  176.3810  145.7930 C   0  0  0  0  0  3  0  0  0  0  0  0
  185.6890  177.5500  142.1760 O   0  0  0  0  0  1  0  0  0  0  0  0
  186.6470  178.3270  142.8280 C   0  0  0  0  0  2  0  0  0  0  0  0
  190.1570  177.0170  143.3070 C   0  0  1  0  0  3  0  0  0  0  0  0
  190.0670  178.0630  142.3870 O   0  0  0  0  0  1  0  0  0  0  0  0
  190.6490  177.5490  144.6540 C   0  0  0  0  0  2  0  0  0  0  0  0
  193.4590  175.7740  146.5510 C   0  0  0  0  0  3  0  0  0  0  0  0
  194.1250  175.2320  145.5260 C   0  0  0  0  0  0  0  0  0  0  0  0
  192.5990  176.1980  143.8860 C   0  0  0  0  0  3  0  0  0  0  0  0
  192.1170  176.4160  146.3310 C   0  0  0  0  0  2  0  0  0  0  0  0
  192.0730  177.1100  144.9660 C   0  0  2  0  0  3  0  0  0  0  0  0
  193.5930  175.3450  144.1530 C   0  0  0  0  0  3  0  0  0  0  0  0
  196.4290  174.0140  145.9630 C   0  0  0  0  0  3  0  0  0  0  0  0
  195.3780  174.5680  145.7600 C   0  0  0  0  0  0  0  0  0  0  0  0
  1  3  1  0  0  0  0
  2  4  1  0  0  0  0
  2  1  2  0  0  0  0
  3  6  1  0  0  0  0
  4  5  1  0  0  0  0
  5 23  1  6  0  0  0
  5  6  1  0  0  0  0
  7 10  1  0  0  0  0
  7  2  1  0  0  0  0
  8  9  1  0  0  0  0
  8 10  1  0  0  0  0
  9 11  1  1  0  0  0
  9 10  1  0  0  0  0
 11 18  1  6  0  0  0
 11 12  1  0  0  0  0
 12 17  1  0  0  0  0
 14 15  2  0  0  0  0
 15 13  1  0  0  0  0
 16 12  2  0  0  0  0
 16 14  1  0  0  0  0
 17 13  2  0  0  0  0
 19 18  1  1  0  0  0
 21 19  1  0  0  0  0
 22 20  1  6  0  0  0
 22 21  1  0  0  0  0
 22 19  1  0  0  0  0
 23 33  1  1  0  0  0
 23 28  1  0  0  0  0
 24 26  1  0  0  0  0
 24 27  1  0  0  0  0
 25 28  2  0  0  0  0
 25 29  1  0  0  0  0
 28 30  1  0  0  0  0
 29 24  2  0  0  0  0
 30 26  2  0  0  0  0
 31 32  1  0  0  0  0
 32 25  1  0  0  0  0
 33 34  1  6  0  0  0
 33 35  1  0  0  0  0
 37 43  1  0  0  0  0
 37 36  2  0  0  0  0
 38 41  2  0  0  0  0
 38 40  1  0  0  0  0
 39 36  1  0  0  0  0
 40 35  1  6  0  0  0
 40 39  1  0  0  0  0
 41 37  1  0  0  0  0
 43 42  3  0  0  0  0
M  END
>  <MODEL>
7

>  <REMARK>
 VINA RESULT:      -6.1      2.579      7.187
  Name = 
  13 active torsions:
  status: ('A' for Active; 'I' for Inactive)
    1  A    between atoms: C_1  and  C_8
    2  A    between atoms: C_1  and  C_35
    3  A    between atoms: C_4  and  C_14
    4  A    between atoms: C_6  and  C_17
    5  A    between atoms: C_8  and  C_30
    6  A    between atoms: C_10  and  S_41
    7  A    between atoms: C_11  and  C_14
    8  A    between atoms: N_12  and  C_17
    9  A    between atoms: C_14  and  S_41
   10  A    between atoms: C_16  and  C_43
   11  A    between atoms: C_19  and  C_37
   12  A    between atoms: C_21  and  C_30
   13  A    between atoms: C_27  and  C_30
                            x       y       z     vdW  Elec       q    Type
                         _______ _______ _______ _____ _____    ______ ____

>  <TORSDO>
F 13

$$$$
=
 OpenBabel11052420513D

 43 48  0  0  1  0  0  0  0  0999 V2000
  190.7720  172.3320  140.0110 N   0  0  0  0  0  0  0  0  0  0  0  0
  191.9020  172.6450  140.5450 C   0  0  0  0  0  0  0  0  0  0  0  0
  189.6050  173.1660  140.1900 C   0  0  0  0  0  2  0  0  0  0  0  0
  192.0340  173.8910  141.3820 C   0  0  0  0  0  2  0  0  0  0  0  0
  190.7620  174.1930  142.1960 C   0  0  1  0  0  3  0  0  0  0  0  0
  189.4710  173.5380  141.6640 C   0  0  0  0  0  2  0  0  0  0  0  0
  193.0830  171.7510  140.3490 C   0  0  0  0  0  2  0  0  0  0  0  0
  194.9730  170.7530  141.3240 C   0  0  0  0  0  2  0  0  0  0  0  0
  195.1260  172.2010  141.4060 C   0  0  1  0  0  3  0  0  0  0  0  0
  193.8000  171.5950  141.6040 N   0  0  0  0  0  0  0  0  0  0  0  0
  195.6950  172.5930  142.7600 C   0  0  2  0  0  3  0  0  0  0  0  0
  196.0310  174.0530  142.7890 C   0  0  0  0  0  0  0  0  0  0  0  0
  197.4390  175.8970  143.5080 C   0  0  0  0  0  3  0  0  0  0  0  0
  195.5120  176.3210  142.1040 C   0  0  0  0  0  3  0  0  0  0  0  0
  196.6210  176.7920  142.8130 C   0  0  0  0  0  3  0  0  0  0  0  0
  195.2200  174.9540  142.0900 C   0  0  0  0  0  3  0  0  0  0  0  0
  197.1460  174.5300  143.4950 C   0  0  0  0  0  3  0  0  0  0  0  0
  197.1530  171.5710  143.1530 S   0  0  0  0  0  0  0  0  0  0  0  0
  196.7190  171.4590  144.9100 C   0  0  1  0  0  3  0  0  0  0  0  0
  196.4400  169.7650  146.6780 C   0  0  0  0  0  1  0  0  0  0  0  0
  195.2390  171.1710  145.0420 C   0  0  0  0  0  2  0  0  0  0  0  0
  196.2440  170.0510  145.2050 C   0  0  1  0  0  3  0  0  0  0  0  0
  191.0020  173.9660  143.6950 C   0  0  1  0  0  3  0  0  0  0  0  0
  193.9100  176.6450  145.4190 C   0  0  0  0  0  0  0  0  0  0  0  0
  191.9510  176.3400  144.0160 C   0  0  0  0  0  0  0  0  0  0  0  0
  193.9530  175.2710  145.6640 C   0  0  0  0  0  3  0  0  0  0  0  0
  194.9230  177.5410  146.0320 C   0  0  0  0  0  1  0  0  0  0  0  0
  191.9920  174.9470  144.2670 C   0  0  0  0  0  0  0  0  0  0  0  0
  192.9120  177.1760  144.5980 C   0  0  0  0  0  3  0  0  0  0  0  0
  192.9990  174.4290  145.0910 C   0  0  0  0  0  3  0  0  0  0  0  0
  190.8890  178.3440  143.3480 O   0  0  0  0  0  1  0  0  0  0  0  0
  190.9080  176.9640  143.1480 C   0  0  0  0  0  2  0  0  0  0  0  0
  189.7480  173.7570  144.5680 C   0  0  1  0  0  3  0  0  0  0  0  0
  189.6710  172.4450  145.0370 O   0  0  0  0  0  1  0  0  0  0  0  0
  189.6980  174.7340  145.7450 C   0  0  0  0  0  2  0  0  0  0  0  0
  187.7870  178.0460  145.9080 C   0  0  0  0  0  3  0  0  0  0  0  0
  187.0550  177.9480  144.7930 C   0  0  0  0  0  0  0  0  0  0  0  0
  187.9660  175.7480  144.2630 C   0  0  0  0  0  3  0  0  0  0  0  0
  188.8850  177.0570  146.1860 C   0  0  0  0  0  2  0  0  0  0  0  0
  188.4970  175.6670  145.6720 C   0  0  2  0  0  3  0  0  0  0  0  0
  187.2550  176.8100  143.8730 C   0  0  0  0  0  3  0  0  0  0  0  0
  185.2040  179.7580  144.2670 C   0  0  0  0  0  3  0  0  0  0  0  0
  186.0500  178.9340  144.5100 C   0  0  0  0  0  0  0  0  0  0  0  0
  1  3  1  0  0  0  0
  1  2  2  0  0  0  0
  2  4  1  0  0  0  0
  3  6  1  0  0  0  0
  4  5  1  0  0  0  0
  5 23  1  1  0  0  0
  6  5  1  0  0  0  0
  7  2  1  0  0  0  0
  7 10  1  0  0  0  0
  8  9  1  0  0  0  0
  8 10  1  0  0  0  0
  9 10  1  0  0  0  0
  9 11  1  1  0  0  0
 11 12  1  0  0  0  0
 11 18  1  6  0  0  0
 12 17  1  0  0  0  0
 14 15  2  0  0  0  0
 15 13  1  0  0  0  0
 16 14  1  0  0  0  0
 16 12  2  0  0  0  0
 17 13  2  0  0  0  0
 19 18  1  6  0  0  0
 19 21  1  0  0  0  0
 19 22  1  0  0  0  0
 21 22  1  0  0  0  0
 22 20  1  1  0  0  0
 23 28  1  0  0  0  0
 23 33  1  1  0  0  0
 24 26  1  0  0  0  0
 24 27  1  0  0  0  0
 25 28  2  0  0  0  0
 25 29  1  0  0  0  0
 28 30  1  0  0  0  0
 29 24  2  0  0  0  0
 30 26  2  0  0  0  0
 32 31  1  0  0  0  0
 32 25  1  0  0  0  0
 33 34  1  1  0  0  0
 33 35  1  0  0  0  0
 36 39  1  0  0  0  0
 37 36  2  0  0  0  0
 38 40  1  0  0  0  0
 40 35  1  6  0  0  0
 40 39  1  0  0  0  0
 41 38  2  0  0  0  0
 41 37  1  0  0  0  0
 42 43  3  0  0  0  0
 43 37  1  0  0  0  0
M  END
>  <MODEL>
8

>  <REMARK>
 VINA RESULT:      -6.0      2.569      6.296
  Name = 
  13 active torsions:
  status: ('A' for Active; 'I' for Inactive)
    1  A    between atoms: C_1  and  C_8
    2  A    between atoms: C_1  and  C_35
    3  A    between atoms: C_4  and  C_14
    4  A    between atoms: C_6  and  C_17
    5  A    between atoms: C_8  and  C_30
    6  A    between atoms: C_10  and  S_41
    7  A    between atoms: C_11  and  C_14
    8  A    between atoms: N_12  and  C_17
    9  A    between atoms: C_14  and  S_41
   10  A    between atoms: C_16  and  C_43
   11  A    between atoms: C_19  and  C_37
   12  A    between atoms: C_21  and  C_30
   13  A    between atoms: C_27  and  C_30
                            x       y       z     vdW  Elec       q    Type
                         _______ _______ _______ _____ _____    ______ ____

>  <TORSDO>
F 13

$$$$
=
 OpenBabel11052420513D

 43 48  0  0  1  0  0  0  0  0999 V2000
  190.8050  172.4840  142.6150 N   0  0  0  0  0  0  0  0  0  0  0  0
  190.7680  173.3590  141.6710 C   0  0  0  0  0  0  0  0  0  0  0  0
  189.7010  172.3320  143.5360 C   0  0  0  0  0  2  0  0  0  0  0  0
  189.5700  174.2580  141.5070 C   0  0  0  0  0  2  0  0  0  0  0  0
  188.9350  174.6490  142.8550 C   0  0  1  0  0  3  0  0  0  0  0  0
  189.2630  173.7080  144.0320 C   0  0  0  0  0  2  0  0  0  0  0  0
  191.9330  173.4970  140.7470 C   0  0  0  0  0  2  0  0  0  0  0  0
  193.8020  172.2190  140.1210 C   0  0  0  0  0  2  0  0  0  0  0  0
  194.2760  173.4410  140.7600 C   0  0  1  0  0  3  0  0  0  0  0  0
  193.0740  172.7680  141.2750 N   0  0  0  0  0  0  0  0  0  0  0  0
  195.4460  173.1340  141.6800 C   0  0  2  0  0  3  0  0  0  0  0  0
  196.0630  174.3990  142.1920 C   0  0  0  0  0  0  0  0  0  0  0  0
  197.9410  175.6220  143.1290 C   0  0  0  0  0  3  0  0  0  0  0  0
  195.8570  176.7670  142.6750 C   0  0  0  0  0  3  0  0  0  0  0  0
  197.1750  176.7910  143.1390 C   0  0  0  0  0  3  0  0  0  0  0  0
  195.3030  175.5740  142.2000 C   0  0  0  0  0  3  0  0  0  0  0  0
  197.3880  174.4290  142.6550 C   0  0  0  0  0  3  0  0  0  0  0  0
  196.6760  172.1010  140.8160 S   0  0  0  0  0  0  0  0  0  0  0  0
  196.9300  171.0300  142.2580 C   0  0  1  0  0  3  0  0  0  0  0  0
  196.5480  168.7010  142.9660 C   0  0  0  0  0  1  0  0  0  0  0  0
  195.6660  171.0030  143.0900 C   0  0  0  0  0  2  0  0  0  0  0  0
  195.9840  169.8520  142.1610 C   0  0  1  0  0  3  0  0  0  0  0  0
  189.1700  176.1340  143.1640 C   0  0  1  0  0  3  0  0  0  0  0  0
  186.7720  177.4130  146.5130 C   0  0  0  0  0  0  0  0  0  0  0  0
  187.3140  177.6210  144.1550 C   0  0  0  0  0  0  0  0  0  0  0  0
  187.7520  176.4300  146.6560 C   0  0  0  0  0  3  0  0  0  0  0  0
  185.9590  177.8280  147.6850 C   0  0  0  0  0  1  0  0  0  0  0  0
  188.3060  176.6220  144.2980 C   0  0  0  0  0  0  0  0  0  0  0  0
  186.5540  178.0060  145.2670 C   0  0  0  0  0  3  0  0  0  0  0  0
  188.5140  176.0380  145.5530 C   0  0  0  0  0  3  0  0  0  0  0  0
  185.7310  178.0110  142.4410 O   0  0  0  0  0  1  0  0  0  0  0  0
  187.0360  178.2900  142.8480 C   0  0  0  0  0  2  0  0  0  0  0  0
  190.6390  176.5950  143.2500 C   0  0  1  0  0  3  0  0  0  0  0  0
  190.7890  177.8950  142.7640 O   0  0  0  0  0  1  0  0  0  0  0  0
  191.1870  176.5050  144.6750 C   0  0  0  0  0  2  0  0  0  0  0  0
  194.6480  175.8350  146.1660 C   0  0  0  0  0  3  0  0  0  0  0  0
  194.8410  174.5780  145.7500 C   0  0  0  0  0  0  0  0  0  0  0  0
  192.6990  174.5230  144.5830 C   0  0  0  0  0  3  0  0  0  0  0  0
  193.3040  176.4900  146.0060 C   0  0  0  0  0  2  0  0  0  0  0  0
  192.6320  176.0250  144.7110 C   0  0  2  0  0  3  0  0  0  0  0  0
  193.7630  173.8580  145.0430 C   0  0  0  0  0  3  0  0  0  0  0  0
  197.1810  173.4150  146.1390 C   0  0  0  0  0  3  0  0  0  0  0  0
  196.1120  173.9440  145.9640 C   0  0  0  0  0  0  0  0  0  0  0  0
  1  3  1  0  0  0  0
  2  1  2  0  0  0  0
  3  6  1  0  0  0  0
  4  2  1  0  0  0  0
  4  5  1  0  0  0  0
  5 23  1  1  0  0  0
  5  6  1  0  0  0  0
  7 10  1  0  0  0  0
  7  2  1  0  0  0  0
  8  9  1  0  0  0  0
  8 10  1  0  0  0  0
  9 10  1  0  0  0  0
  9 11  1  1  0  0  0
 11 18  1  6  0  0  0
 11 12  1  0  0  0  0
 12 16  2  0  0  0  0
 12 17  1  0  0  0  0
 13 15  1  0  0  0  0
 14 15  2  0  0  0  0
 16 14  1  0  0  0  0
 17 13  2  0  0  0  0
 19 18  1  6  0  0  0
 19 21  1  0  0  0  0
 22 19  1  0  0  0  0
 22 20  1  1  0  0  0
 22 21  1  0  0  0  0
 23 33  1  1  0  0  0
 23 28  1  0  0  0  0
 24 26  1  0  0  0  0
 24 27  1  0  0  0  0
 25 28  2  0  0  0  0
 25 29  1  0  0  0  0
 28 30  1  0  0  0  0
 29 24  2  0  0  0  0
 30 26  2  0  0  0  0
 31 32  1  0  0  0  0
 32 25  1  0  0  0  0
 33 34  1  1  0  0  0
 33 35  1  0  0  0  0
 37 43  1  0  0  0  0
 37 36  2  0  0  0  0
 38 40  1  0  0  0  0
 38 41  2  0  0  0  0
 39 36  1  0  0  0  0
 40 35  1  1  0  0  0
 40 39  1  0  0  0  0
 41 37  1  0  0  0  0
 43 42  3  0  0  0  0
M  END
>  <MODEL>
9

>  <REMARK>
 VINA RESULT:      -5.9      2.591      7.447
  Name = 
  13 active torsions:
  status: ('A' for Active; 'I' for Inactive)
    1  A    between atoms: C_1  and  C_8
    2  A    between atoms: C_1  and  C_35
    3  A    between atoms: C_4  and  C_14
    4  A    between atoms: C_6  and  C_17
    5  A    between atoms: C_8  and  C_30
    6  A    between atoms: C_10  and  S_41
    7  A    between atoms: C_11  and  C_14
    8  A    between atoms: N_12  and  C_17
    9  A    between atoms: C_14  and  S_41
   10  A    between atoms: C_16  and  C_43
   11  A    between atoms: C_19  and  C_37
   12  A    between atoms: C_21  and  C_30
   13  A    between atoms: C_27  and  C_30
                            x       y       z     vdW  Elec       q    Type
                         _______ _______ _______ _____ _____    ______ ____

>  <TORSDO>
F 13

$$$$
