=
 OpenBabel11052417403D

 31 35  0  0  1  0  0  0  0  0999 V2000
  183.9590  178.0820  141.3400 C   0  0  0  0  0  0  0  0  0  0  0  0
  186.7630  177.2360  143.8020 C   0  0  0  0  0  0  0  0  0  0  0  0
  186.2460  177.5010  145.1080 C   0  0  0  0  0  0  0  0  0  0  0  0
  184.2170  178.6870  146.2950 C   0  0  0  0  0  3  0  0  0  0  0  0
  186.0220  177.5870  142.5430 C   0  0  0  0  0  0  0  0  0  0  0  0
  184.6640  178.1460  140.1380 C   0  0  0  0  0  3  0  0  0  0  0  0
  185.0240  178.2440  145.2050 N   0  0  0  0  0  0  0  0  0  0  0  0
  188.6030  176.3360  142.2890 C   0  0  2  0  0  3  0  0  0  0  0  0
  182.2310  178.3580  141.3580 Cl  0  0  0  0  0  0  0  0  0  0  0  0
  188.1870  176.3920  146.0600 C   0  0  0  0  0  3  0  0  0  0  0  0
  184.4420  178.4910  147.5850 C   0  0  0  0  0  3  0  0  0  0  0  0
  188.1910  177.3990  141.2720 C   0  0  0  0  0  2  0  0  0  0  0  0
  188.0310  176.6200  143.6640 C   0  0  0  0  0  0  0  0  0  0  0  0
  184.6330  177.7990  142.5300 C   0  0  0  0  0  3  0  0  0  0  0  0
  185.5540  177.7900  148.2170 C   0  0  0  0  0  3  0  0  0  0  0  0
  186.7150  177.6220  141.3140 C   0  0  0  0  0  0  0  0  0  0  0  0
  186.0400  177.9160  140.1260 C   0  0  0  0  0  3  0  0  0  0  0  0
  188.7090  176.1730  144.7960 C   0  0  0  0  0  3  0  0  0  0  0  0
  186.9760  177.0570  146.2410 C   0  0  2  0  0  3  0  0  0  0  0  0
  186.5990  177.2020  147.6510 C   0  0  0  0  0  3  0  0  0  0  0  0
  190.1200  173.8610  142.1240 O   0  0  0  0  0  0  0  0  0  0  0  0
  190.7540  174.9460  142.2300 C   0  0  0  0  0  0  0  0  0  0  0  0
  190.0590  176.1960  142.3060 N   0  0  0  0  0  2  0  0  0  0  0  0
  192.2420  174.9250  142.3040 C   0  0  0  0  0  2  0  0  0  0  0  0
  192.9860  175.2090  146.0610 C   0  0  1  0  0  3  0  0  0  0  0  0
  194.7760  176.2880  144.9160 C   0  0  0  0  0  2  0  0  0  0  0  0
  192.0570  175.2910  147.2540 C   0  0  0  0  0  1  0  0  0  0  0  0
  192.1750  174.9020  144.7970 C   0  0  0  0  0  2  0  0  0  0  0  0
  194.2570  175.6760  143.6030 C   0  0  0  0  0  2  0  0  0  0  0  0
  192.7280  175.6210  143.5640 C   0  0  1  0  0  3  0  0  0  0  0  0
  193.7210  176.4640  145.9200 N   0  0  0  0  0  2  0  0  0  0  0  0
  1  9  1  0  0  0  0
  1 14  1  0  0  0  0
  2  3  1  0  0  0  0
  3  7  2  0  0  0  0
  3 19  1  0  0  0  0
  4 11  2  0  0  0  0
  5  2  1  0  0  0  0
  6  1  2  0  0  0  0
  7  4  1  0  0  0  0
  8 23  1  1  0  0  0
  8 13  1  0  0  0  0
 11 15  1  0  0  0  0
 12 16  1  0  0  0  0
 12  8  1  0  0  0  0
 13  2  2  0  0  0  0
 13 18  1  0  0  0  0
 14  5  2  0  0  0  0
 16  5  1  0  0  0  0
 17  6  1  0  0  0  0
 17 16  2  0  0  0  0
 18 10  2  0  0  0  0
 19 10  1  6  0  0  0
 19 20  1  0  0  0  0
 20 15  2  0  0  0  0
 21 22  2  0  0  0  0
 22 24  1  0  0  0  0
 22 23  1  0  0  0  0
 25 27  1  1  0  0  0
 26 31  1  0  0  0  0
 28 25  1  0  0  0  0
 29 26  1  0  0  0  0
 30 24  1  6  0  0  0
 30 29  1  0  0  0  0
 30 28  1  0  0  0  0
 31 25  1  0  0  0  0
M  END
>  <MODEL>
1

>  <REMARK>
 VINA RESULT:      -8.5      0.000      0.000
  Name = 
  3 active torsions:
  status: ('A' for Active; 'I' for Inactive)
    1  A    between atoms: C_3  and  C_9
    2  A    between atoms: C_3  and  C_22
    3  A    between atoms: C_15  and  N_23
                            x       y       z     vdW  Elec       q    Type
                         _______ _______ _______ _____ _____    ______ ____

>  <TORSDO>
F 3

$$$$
=
 OpenBabel11052417403D

 31 35  0  0  1  0  0  0  0  0999 V2000
  191.0090  176.5430  147.5040 C   0  0  0  0  0  0  0  0  0  0  0  0
  188.1390  176.2220  144.9950 C   0  0  0  0  0  0  0  0  0  0  0  0
  187.0540  176.9890  145.5220 C   0  0  0  0  0  0  0  0  0  0  0  0
  186.2940  178.1830  147.7420 C   0  0  0  0  0  3  0  0  0  0  0  0
  189.4070  175.9650  145.7590 C   0  0  0  0  0  0  0  0  0  0  0  0
  191.8430  175.5020  147.0980 C   0  0  0  0  0  3  0  0  0  0  0  0
  187.1430  177.4200  146.8870 N   0  0  0  0  0  2  0  0  0  0  0  0
  189.1700  174.8430  143.1180 C   0  0  2  0  0  3  0  0  0  0  0  0
  191.4710  177.5600  148.8520 Cl  0  0  0  0  0  0  0  0  0  0  0  0
  185.8990  176.7450  143.3990 C   0  0  0  0  0  3  0  0  0  0  0  0
  185.1190  178.7120  147.4330 C   0  0  0  0  0  3  0  0  0  0  0  0
  189.9030  174.0490  144.1980 C   0  0  0  0  0  2  0  0  0  0  0  0
  188.0360  175.6660  143.6960 C   0  0  0  0  0  0  0  0  0  0  0  0
  189.8050  176.7750  146.8360 C   0  0  0  0  0  3  0  0  0  0  0  0
  184.3990  178.6490  146.1670 C   0  0  0  0  0  3  0  0  0  0  0  0
  190.2770  174.9360  145.3390 C   0  0  0  0  0  0  0  0  0  0  0  0
  191.4760  174.6990  146.0170 C   0  0  0  0  0  3  0  0  0  0  0  0
  186.9310  175.9660  142.9020 C   0  0  0  0  0  3  0  0  0  0  0  0
  185.9320  177.2520  144.6970 C   0  0  0  0  0  0  0  0  0  0  0  0
  184.7430  178.0410  145.0400 C   0  0  0  0  0  3  0  0  0  0  0  0
  190.7240  173.9460  140.8310 O   0  0  0  0  0  0  0  0  0  0  0  0
  189.5350  173.5440  140.9400 C   0  0  0  0  0  0  0  0  0  0  0  0
  188.7250  173.9460  142.0510 N   0  0  0  0  0  2  0  0  0  0  0  0
  188.9560  172.6630  139.8880 C   0  0  0  0  0  2  0  0  0  0  0  0
  189.5530  172.2020  136.1220 C   0  0  1  0  0  3  0  0  0  0  0  0
  188.9450  174.4830  136.4540 C   0  0  0  0  0  2  0  0  0  0  0  0
  190.4790  171.2700  135.3710 C   0  0  0  0  0  1  0  0  0  0  0  0
  189.5530  171.8390  137.6120 C   0  0  0  0  0  2  0  0  0  0  0  0
  188.5240  174.1230  137.8900 C   0  0  0  0  0  2  0  0  0  0  0  0
  189.4480  173.0730  138.5100 C   0  0  1  0  0  3  0  0  0  0  0  0
  189.9760  173.5860  135.9210 N   0  0  0  0  0  2  0  0  0  0  0  0
  1  9  1  0  0  0  0
  2  3  1  0  0  0  0
  2  5  1  0  0  0  0
  3  7  1  0  0  0  0
  5 14  1  0  0  0  0
  6  1  1  0  0  0  0
  7  4  1  0  0  0  0
  8 23  1  6  0  0  0
  8 13  1  0  0  0  0
  8 12  1  0  0  0  0
 10 19  1  0  0  0  0
 11  4  2  0  0  0  0
 12 16  1  0  0  0  0
 13  2  2  0  0  0  0
 14  1  2  0  0  0  0
 15 11  1  0  0  0  0
 16  5  2  0  0  0  0
 16 17  1  0  0  0  0
 17  6  2  0  0  0  0
 18 10  2  0  0  0  0
 18 13  1  0  0  0  0
 19 20  1  0  0  0  0
 19  3  2  0  0  0  0
 20 15  2  0  0  0  0
 21 22  2  0  0  0  0
 22 23  1  0  0  0  0
 24 22  1  0  0  0  0
 25 27  1  6  0  0  0
 25 28  1  0  0  0  0
 26 29  1  0  0  0  0
 28 30  1  0  0  0  0
 29 30  1  0  0  0  0
 30 24  1  1  0  0  0
 31 25  1  0  0  0  0
 31 26  1  0  0  0  0
M  END
>  <MODEL>
2

>  <REMARK>
 VINA RESULT:      -8.5      3.894      6.558
  Name = 
  3 active torsions:
  status: ('A' for Active; 'I' for Inactive)
    1  A    between atoms: C_3  and  C_9
    2  A    between atoms: C_3  and  C_22
    3  A    between atoms: C_15  and  N_23
                            x       y       z     vdW  Elec       q    Type
                         _______ _______ _______ _____ _____    ______ ____

>  <TORSDO>
F 3

$$$$
=
 OpenBabel11052417403D

 31 35  0  0  1  0  0  0  0  0999 V2000
  191.0430  176.7160  147.7350 C   0  0  0  0  0  0  0  0  0  0  0  0
  188.2980  176.2620  145.1070 C   0  0  0  0  0  0  0  0  0  0  0  0
  187.1560  176.9700  145.5920 C   0  0  0  0  0  0  0  0  0  0  0  0
  186.2440  178.1130  147.7820 C   0  0  0  0  0  3  0  0  0  0  0  0
  189.5450  176.0660  145.9230 C   0  0  0  0  0  0  0  0  0  0  0  0
  191.9440  175.7200  147.3610 C   0  0  0  0  0  3  0  0  0  0  0  0
  187.1660  177.3980  146.9600 N   0  0  0  0  0  2  0  0  0  0  0  0
  189.4750  174.9470  143.2710 C   0  0  2  0  0  3  0  0  0  0  0  0
  191.3960  177.7480  149.1040 Cl  0  0  0  0  0  0  0  0  0  0  0  0
  186.1030  176.6780  143.4210 C   0  0  0  0  0  3  0  0  0  0  0  0
  185.0580  178.5830  147.4260 C   0  0  0  0  0  3  0  0  0  0  0  0
  190.2020  174.1850  144.3780 C   0  0  0  0  0  2  0  0  0  0  0  0
  188.2780  175.7080  143.8040 C   0  0  0  0  0  0  0  0  0  0  0  0
  189.8570  176.8900  147.0180 C   0  0  0  0  0  3  0  0  0  0  0  0
  184.3950  178.4900  146.1310 C   0  0  0  0  0  3  0  0  0  0  0  0
  190.4830  175.0840  145.5370 C   0  0  0  0  0  0  0  0  0  0  0  0
  191.6640  174.9050  146.2630 C   0  0  0  0  0  3  0  0  0  0  0  0
  187.1920  175.9550  142.9660 C   0  0  0  0  0  3  0  0  0  0  0  0
  186.0560  177.1800  144.7210 C   0  0  0  0  0  0  0  0  0  0  0  0
  184.8160  177.9060  145.0180 C   0  0  0  0  0  3  0  0  0  0  0  0
  191.1600  174.1560  141.0370 O   0  0  0  0  0  0  0  0  0  0  0  0
  189.9920  173.6860  141.1010 C   0  0  0  0  0  0  0  0  0  0  0  0
  189.1210  174.0330  142.1840 N   0  0  0  0  0  2  0  0  0  0  0  0
  189.5020  172.7810  140.0240 C   0  0  0  0  0  2  0  0  0  0  0  0
  190.9600  169.3620  140.9920 C   0  0  1  0  0  3  0  0  0  0  0  0
  190.8110  169.4040  138.6140 C   0  0  0  0  0  2  0  0  0  0  0  0
  191.8200  168.9460  142.1670 C   0  0  0  0  0  1  0  0  0  0  0  0
  190.4830  170.8060  141.1880 C   0  0  0  0  0  2  0  0  0  0  0  0
  189.9540  170.6770  138.7260 C   0  0  0  0  0  2  0  0  0  0  0  0
  190.4220  171.5810  139.8700 C   0  0  1  0  0  3  0  0  0  0  0  0
  191.7200  169.2260  139.7510 N   0  0  0  0  0  2  0  0  0  0  0  0
  1  9  1  0  0  0  0
  2  3  1  0  0  0  0
  2  5  1  0  0  0  0
  3  7  1  0  0  0  0
  5 14  1  0  0  0  0
  6  1  1  0  0  0  0
  7  4  1  0  0  0  0
  8 23  1  6  0  0  0
  8 13  1  0  0  0  0
  8 12  1  0  0  0  0
 10 19  1  0  0  0  0
 11  4  2  0  0  0  0
 12 16  1  0  0  0  0
 13  2  2  0  0  0  0
 14  1  2  0  0  0  0
 15 11  1  0  0  0  0
 16  5  2  0  0  0  0
 16 17  1  0  0  0  0
 17  6  2  0  0  0  0
 18 10  2  0  0  0  0
 18 13  1  0  0  0  0
 19 20  1  0  0  0  0
 19  3  2  0  0  0  0
 20 15  2  0  0  0  0
 21 22  2  0  0  0  0
 22 23  1  0  0  0  0
 24 22  1  0  0  0  0
 25 28  1  0  0  0  0
 25 27  1  1  0  0  0
 26 29  1  0  0  0  0
 26 31  1  0  0  0  0
 29 30  1  0  0  0  0
 30 24  1  1  0  0  0
 30 28  1  0  0  0  0
 31 25  1  0  0  0  0
M  END
>  <MODEL>
3

>  <REMARK>
 VINA RESULT:      -8.2      3.773      6.006
  Name = 
  3 active torsions:
  status: ('A' for Active; 'I' for Inactive)
    1  A    between atoms: C_3  and  C_9
    2  A    between atoms: C_3  and  C_22
    3  A    between atoms: C_15  and  N_23
                            x       y       z     vdW  Elec       q    Type
                         _______ _______ _______ _____ _____    ______ ____

>  <TORSDO>
F 3

$$$$
=
 OpenBabel11052417403D

 31 35  0  0  1  0  0  0  0  0999 V2000
  195.0730  174.7790  145.0670 C   0  0  0  0  0  0  0  0  0  0  0  0
  191.5630  174.9810  143.5570 C   0  0  0  0  0  0  0  0  0  0  0  0
  191.6590  174.4350  142.2400 C   0  0  0  0  0  0  0  0  0  0  0  0
  193.4600  173.7180  140.4570 C   0  0  0  0  0  3  0  0  0  0  0  0
  192.7610  175.2250  144.4300 C   0  0  0  0  0  0  0  0  0  0  0  0
  194.9500  175.6420  146.1560 C   0  0  0  0  0  3  0  0  0  0  0  0
  192.9700  174.2310  141.6950 N   0  0  0  0  0  0  0  0  0  0  0  0
  190.1660  175.9070  145.4740 C   0  0  2  0  0  3  0  0  0  0  0  0
  196.5890  173.9590  144.7660 Cl  0  0  0  0  0  0  0  0  0  0  0  0
  189.2330  174.4420  142.1020 C   0  0  0  0  0  3  0  0  0  0  0  0
  192.7400  173.2740  139.4380 C   0  0  0  0  0  3  0  0  0  0  0  0
  191.3630  176.7880  145.8300 C   0  0  0  0  0  2  0  0  0  0  0  0
  190.2920  175.3190  144.0830 C   0  0  2  0  0  3  0  0  0  0  0  0
  193.9850  174.5690  144.2170 C   0  0  0  0  0  3  0  0  0  0  0  0
  191.2890  173.2000  139.3130 C   0  0  0  0  0  3  0  0  0  0  0  0
  192.6430  176.0700  145.5550 C   0  0  0  0  0  0  0  0  0  0  0  0
  193.7370  176.2870  146.3990 C   0  0  0  0  0  3  0  0  0  0  0  0
  189.1410  175.0110  143.3610 C   0  0  0  0  0  3  0  0  0  0  0  0
  190.4680  174.1580  141.5210 C   0  0  0  0  0  0  0  0  0  0  0  0
  190.3570  173.5710  140.1810 C   0  0  0  0  0  3  0  0  0  0  0  0
  188.0500  175.3340  147.3830 O   0  0  0  0  0  0  0  0  0  0  0  0
  187.9080  176.3200  146.6110 C   0  0  0  0  0  0  0  0  0  0  0  0
  188.9220  176.6550  145.6570 N   0  0  0  0  0  2  0  0  0  0  0  0
  186.6590  177.1300  146.6720 C   0  0  0  0  0  2  0  0  0  0  0  0
  185.4110  177.8900  143.1200 C   0  0  1  0  0  3  0  0  0  0  0  0
  185.2510  179.9190  144.3600 C   0  0  0  0  0  2  0  0  0  0  0  0
  185.7920  177.2870  141.7850 C   0  0  0  0  0  1  0  0  0  0  0  0
  186.0600  177.0840  144.2520 C   0  0  0  0  0  2  0  0  0  0  0  0
  185.5030  179.1110  145.6450 C   0  0  0  0  0  2  0  0  0  0  0  0
  186.5010  177.9730  145.4180 C   0  0  1  0  0  3  0  0  0  0  0  0
  185.8290  179.2890  143.1680 N   0  0  0  0  0  2  0  0  0  0  0  0
  1  6  1  0  0  0  0
  2 13  1  0  0  0  0
  2  5  1  0  0  0  0
  3  2  2  0  0  0  0
  4  7  2  0  0  0  0
  5 16  2  0  0  0  0
  6 17  2  0  0  0  0
  7  3  1  0  0  0  0
  8 23  1  6  0  0  0
  8 12  1  0  0  0  0
  9  1  1  0  0  0  0
 10 18  2  0  0  0  0
 11  4  1  0  0  0  0
 13 18  1  1  0  0  0
 13  8  1  0  0  0  0
 14  5  1  0  0  0  0
 14  1  2  0  0  0  0
 15 11  2  0  0  0  0
 15 20  1  0  0  0  0
 16 12  1  0  0  0  0
 16 17  1  0  0  0  0
 19 10  1  0  0  0  0
 19  3  1  0  0  0  0
 20 19  2  0  0  0  0
 22 24  1  0  0  0  0
 22 21  2  0  0  0  0
 23 22  1  0  0  0  0
 25 27  1  6  0  0  0
 25 31  1  0  0  0  0
 25 28  1  0  0  0  0
 26 29  1  0  0  0  0
 28 30  1  0  0  0  0
 30 29  1  0  0  0  0
 30 24  1  1  0  0  0
 31 26  1  0  0  0  0
M  END
>  <MODEL>
4

>  <REMARK>
 VINA RESULT:      -7.9      3.502      8.606
  Name = 
  3 active torsions:
  status: ('A' for Active; 'I' for Inactive)
    1  A    between atoms: C_3  and  C_9
    2  A    between atoms: C_3  and  C_22
    3  A    between atoms: C_15  and  N_23
                            x       y       z     vdW  Elec       q    Type
                         _______ _______ _______ _____ _____    ______ ____

>  <TORSDO>
F 3

$$$$
=
 OpenBabel11052417403D

 31 35  0  0  1  0  0  0  0  0999 V2000
  191.4270  172.2050  140.6190 C   0  0  0  0  0  0  0  0  0  0  0  0
  190.4410  174.9300  143.1170 C   0  0  0  0  0  0  0  0  0  0  0  0
  191.5180  175.0300  144.0510 C   0  0  0  0  0  0  0  0  0  0  0  0
  193.6910  173.7460  144.8010 C   0  0  0  0  0  3  0  0  0  0  0  0
  190.3700  173.8630  142.0610 C   0  0  0  0  0  0  0  0  0  0  0  0
  190.2020  171.9400  140.0090 C   0  0  0  0  0  3  0  0  0  0  0  0
  192.5030  173.9890  144.0480 N   0  0  0  0  0  0  0  0  0  0  0  0
  188.2210  175.7750  142.1970 C   0  0  2  0  0  3  0  0  0  0  0  0
  192.8620  171.3370  140.1170 Cl  0  0  0  0  0  0  0  0  0  0  0  0
  190.5150  177.0600  144.9320 C   0  0  0  0  0  3  0  0  0  0  0  0
  194.1930  174.5040  145.7640 C   0  0  0  0  0  3  0  0  0  0  0  0
  187.9030  174.3270  141.8260 C   0  0  0  0  0  2  0  0  0  0  0  0
  189.3780  175.8650  143.1720 C   0  0  0  0  0  0  0  0  0  0  0  0
  191.5100  173.1630  141.6320 C   0  0  0  0  0  3  0  0  0  0  0  0
  193.6720  175.7550  146.3000 C   0  0  0  0  0  3  0  0  0  0  0  0
  189.1440  173.6070  141.4110 C   0  0  0  0  0  0  0  0  0  0  0  0
  189.0610  172.6400  140.4050 C   0  0  0  0  0  3  0  0  0  0  0  0
  189.4480  176.9400  144.0570 C   0  0  0  0  0  3  0  0  0  0  0  0
  191.5450  176.1210  144.9560 C   0  0  2  0  0  3  0  0  0  0  0  0
  192.5740  176.4160  145.9600 C   0  0  0  0  0  3  0  0  0  0  0  0
  187.1950  178.3660  141.3700 O   0  0  0  0  0  0  0  0  0  0  0  0
  186.5630  177.7260  142.2530 C   0  0  0  0  0  0  0  0  0  0  0  0
  187.0160  176.4410  142.6930 N   0  0  0  0  0  2  0  0  0  0  0  0
  185.3440  178.3260  142.8670 C   0  0  0  0  0  2  0  0  0  0  0  0
  186.3800  178.3850  146.5650 C   0  0  1  0  0  3  0  0  0  0  0  0
  183.9970  178.3780  146.5120 C   0  0  0  0  0  2  0  0  0  0  0  0
  187.6000  177.8230  147.2630 C   0  0  0  0  0  1  0  0  0  0  0  0
  186.5550  178.2650  145.0460 C   0  0  0  0  0  2  0  0  0  0  0  0
  184.0660  178.6690  145.0020 C   0  0  0  0  0  2  0  0  0  0  0  0
  185.2370  177.9460  144.3340 C   0  0  1  0  0  3  0  0  0  0  0  0
  185.1840  177.6750  147.0110 N   0  0  0  0  0  2  0  0  0  0  0  0
  1 14  1  0  0  0  0
  2 13  2  0  0  0  0
  2  3  1  0  0  0  0
  3 19  1  0  0  0  0
  4 11  2  0  0  0  0
  5  2  1  0  0  0  0
  6 17  1  0  0  0  0
  6  1  2  0  0  0  0
  7  3  2  0  0  0  0
  7  4  1  0  0  0  0
  8 23  1  1  0  0  0
  8 13  1  0  0  0  0
  9  1  1  0  0  0  0
 11 15  1  0  0  0  0
 12  8  1  0  0  0  0
 13 18  1  0  0  0  0
 14  5  2  0  0  0  0
 16 12  1  0  0  0  0
 16  5  1  0  0  0  0
 17 16  2  0  0  0  0
 18 10  2  0  0  0  0
 19 10  1  6  0  0  0
 19 20  1  0  0  0  0
 20 15  2  0  0  0  0
 21 22  2  0  0  0  0
 22 23  1  0  0  0  0
 22 24  1  0  0  0  0
 25 31  1  0  0  0  0
 25 27  1  1  0  0  0
 26 31  1  0  0  0  0
 28 25  1  0  0  0  0
 29 26  1  0  0  0  0
 30 24  1  6  0  0  0
 30 29  1  0  0  0  0
 30 28  1  0  0  0  0
M  END
>  <MODEL>
5

>  <REMARK>
 VINA RESULT:      -7.6      3.102      7.243
  Name = 
  3 active torsions:
  status: ('A' for Active; 'I' for Inactive)
    1  A    between atoms: C_3  and  C_9
    2  A    between atoms: C_3  and  C_22
    3  A    between atoms: C_15  and  N_23
                            x       y       z     vdW  Elec       q    Type
                         _______ _______ _______ _____ _____    ______ ____

>  <TORSDO>
F 3

$$$$
=
 OpenBabel11052417403D

 31 35  0  0  1  0  0  0  0  0999 V2000
  196.5520  171.8320  145.4370 C   0  0  0  0  0  0  0  0  0  0  0  0
  192.9470  172.7500  144.5400 C   0  0  0  0  0  0  0  0  0  0  0  0
  192.4990  171.7620  143.6090 C   0  0  0  0  0  0  0  0  0  0  0  0
  193.4300  169.8240  142.0890 C   0  0  0  0  0  3  0  0  0  0  0  0
  194.3670  172.8350  145.0220 C   0  0  0  0  0  0  0  0  0  0  0  0
  196.9930  173.0160  146.0280 C   0  0  0  0  0  3  0  0  0  0  0  0
  193.4840  170.9000  143.0240 N   0  0  0  0  0  0  0  0  0  0  0  0
  192.4820  174.7660  146.0250 C   0  0  2  0  0  3  0  0  0  0  0  0
  197.6300  170.4600  145.3110 Cl  0  0  0  0  0  0  0  0  0  0  0  0
  190.2370  172.6170  143.8480 C   0  0  0  0  0  3  0  0  0  0  0  0
  192.3500  169.3360  141.4970 C   0  0  0  0  0  3  0  0  0  0  0  0
  193.9220  175.2030  145.7640 C   0  0  0  0  0  2  0  0  0  0  0  0
  192.0290  173.7040  145.0430 C   0  0  2  0  0  3  0  0  0  0  0  0
  195.2480  171.7430  144.9440 C   0  0  0  0  0  3  0  0  0  0  0  0
  190.9650  169.7660  141.6380 C   0  0  0  0  0  3  0  0  0  0  0  0
  194.8190  174.0140  145.6520 C   0  0  0  0  0  0  0  0  0  0  0  0
  196.1280  174.1050  146.1350 C   0  0  0  0  0  3  0  0  0  0  0  0
  190.6780  173.6020  144.7160 C   0  0  0  0  0  3  0  0  0  0  0  0
  191.1210  171.7030  143.2770 C   0  0  0  0  0  0  0  0  0  0  0  0
  190.4660  170.7480  142.3760 C   0  0  0  0  0  3  0  0  0  0  0  0
  190.3400  175.3140  147.9130 O   0  0  0  0  0  0  0  0  0  0  0  0
  190.5510  176.1460  146.9900 C   0  0  0  0  0  0  0  0  0  0  0  0
  191.5990  175.9320  146.0370 N   0  0  0  0  0  2  0  0  0  0  0  0
  189.6840  177.3520  146.8730 C   0  0  0  0  0  2  0  0  0  0  0  0
  186.0300  177.8250  145.7880 C   0  0  1  0  0  3  0  0  0  0  0  0
  187.2800  177.3310  143.8190 C   0  0  0  0  0  2  0  0  0  0  0  0
  184.7340  177.5620  146.5240 C   0  0  0  0  0  1  0  0  0  0  0  0
  187.2120  177.6590  146.7500 C   0  0  0  0  0  2  0  0  0  0  0  0
  188.5710  177.5460  144.6290 C   0  0  0  0  0  2  0  0  0  0  0  0
  188.4340  177.0400  146.0670 C   0  0  1  0  0  3  0  0  0  0  0  0
  186.1480  176.9120  144.6530 N   0  0  0  0  0  2  0  0  0  0  0  0
  1  6  1  0  0  0  0
  2  5  1  0  0  0  0
  2 13  1  0  0  0  0
  3  2  2  0  0  0  0
  4  7  2  0  0  0  0
  5 16  2  0  0  0  0
  6 17  2  0  0  0  0
  7  3  1  0  0  0  0
  8 23  1  6  0  0  0
  9  1  1  0  0  0  0
 10 18  2  0  0  0  0
 11 15  2  0  0  0  0
 11  4  1  0  0  0  0
 12  8  1  0  0  0  0
 13 18  1  1  0  0  0
 13  8  1  0  0  0  0
 14  5  1  0  0  0  0
 14  1  2  0  0  0  0
 15 20  1  0  0  0  0
 16 12  1  0  0  0  0
 16 17  1  0  0  0  0
 19  3  1  0  0  0  0
 19 10  1  0  0  0  0
 20 19  2  0  0  0  0
 22 21  2  0  0  0  0
 23 22  1  0  0  0  0
 24 22  1  0  0  0  0
 25 27  1  1  0  0  0
 25 28  1  0  0  0  0
 26 29  1  0  0  0  0
 26 31  1  0  0  0  0
 29 30  1  0  0  0  0
 30 28  1  0  0  0  0
 30 24  1  1  0  0  0
 31 25  1  0  0  0  0
M  END
>  <MODEL>
6

>  <REMARK>
 VINA RESULT:      -7.6      4.539      9.403
  Name = 
  3 active torsions:
  status: ('A' for Active; 'I' for Inactive)
    1  A    between atoms: C_3  and  C_9
    2  A    between atoms: C_3  and  C_22
    3  A    between atoms: C_15  and  N_23
                            x       y       z     vdW  Elec       q    Type
                         _______ _______ _______ _____ _____    ______ ____

>  <TORSDO>
F 3

$$$$
=
 OpenBabel11052417403D

 31 35  0  0  1  0  0  0  0  0999 V2000
  183.4450  178.2900  141.4780 C   0  0  0  0  0  0  0  0  0  0  0  0
  186.4210  177.0660  143.5480 C   0  0  0  0  0  0  0  0  0  0  0  0
  186.1370  177.4110  144.9060 C   0  0  0  0  0  0  0  0  0  0  0  0
  184.4850  178.8850  146.3310 C   0  0  0  0  0  3  0  0  0  0  0  0
  185.5660  177.5110  142.3950 C   0  0  0  0  0  0  0  0  0  0  0  0
  183.9740  178.2440  140.1890 C   0  0  0  0  0  3  0  0  0  0  0  0
  185.0590  178.3240  145.1520 N   0  0  0  0  0  0  0  0  0  0  0  0
  187.8820  175.9010  141.8180 C   0  0  2  0  0  3  0  0  0  0  0  0
  181.7940  178.8110  141.7290 Cl  0  0  0  0  0  0  0  0  0  0  0  0
  188.0170  176.0410  145.6070 C   0  0  0  0  0  3  0  0  0  0  0  0
  184.8610  178.6670  147.5820 C   0  0  0  0  0  3  0  0  0  0  0  0
  187.4850  177.0050  140.8400 C   0  0  0  0  0  2  0  0  0  0  0  0
  187.5560  176.2730  143.2510 C   0  0  0  0  0  0  0  0  0  0  0  0
  184.2340  177.9210  142.5700 C   0  0  0  0  0  3  0  0  0  0  0  0
  185.9400  177.8180  148.0710 C   0  0  0  0  0  3  0  0  0  0  0  0
  186.0770  177.4380  141.0810 C   0  0  0  0  0  0  0  0  0  0  0  0
  185.2890  177.8180  139.9910 C   0  0  0  0  0  3  0  0  0  0  0  0
  188.3190  175.7410  144.2890 C   0  0  0  0  0  3  0  0  0  0  0  0
  186.9500  176.8750  145.9370 C   0  0  2  0  0  3  0  0  0  0  0  0
  186.8010  177.0810  147.3820 C   0  0  0  0  0  3  0  0  0  0  0  0
  188.9450  173.3710  140.8550 O   0  0  0  0  0  0  0  0  0  0  0  0
  189.7580  174.2830  141.1640 C   0  0  0  0  0  0  0  0  0  0  0  0
  189.2920  175.5530  141.6360 N   0  0  0  0  0  2  0  0  0  0  0  0
  191.2230  174.0280  141.0640 C   0  0  0  0  0  2  0  0  0  0  0  0
  193.6570  171.8520  143.0860 C   0  0  1  0  0  3  0  0  0  0  0  0
  191.5850  171.8520  144.2640 C   0  0  0  0  0  2  0  0  0  0  0  0
  194.8240  170.9950  142.6440 C   0  0  0  0  0  1  0  0  0  0  0  0
  193.1440  172.6760  141.8990 C   0  0  0  0  0  2  0  0  0  0  0  0
  191.1090  172.9970  143.3530 C   0  0  0  0  0  2  0  0  0  0  0  0
  191.6220  172.8380  141.9200 C   0  0  1  0  0  3  0  0  0  0  0  0
  192.5990  171.0030  143.6300 N   0  0  0  0  0  2  0  0  0  0  0  0
  1  9  1  0  0  0  0
  1 14  1  0  0  0  0
  2  3  1  0  0  0  0
  3  7  2  0  0  0  0
  3 19  1  0  0  0  0
  4 11  2  0  0  0  0
  5 14  2  0  0  0  0
  5  2  1  0  0  0  0
  6  1  2  0  0  0  0
  7  4  1  0  0  0  0
  8 23  1  1  0  0  0
  8 13  1  0  0  0  0
 11 15  1  0  0  0  0
 12 16  1  0  0  0  0
 12  8  1  0  0  0  0
 13  2  2  0  0  0  0
 13 18  1  0  0  0  0
 16  5  1  0  0  0  0
 17  6  1  0  0  0  0
 17 16  2  0  0  0  0
 18 10  2  0  0  0  0
 19 10  1  1  0  0  0
 19 20  1  0  0  0  0
 20 15  2  0  0  0  0
 21 22  2  0  0  0  0
 22 23  1  0  0  0  0
 24 22  1  0  0  0  0
 25 27  1  6  0  0  0
 25 31  1  0  0  0  0
 28 30  1  0  0  0  0
 28 25  1  0  0  0  0
 29 26  1  0  0  0  0
 30 24  1  6  0  0  0
 30 29  1  0  0  0  0
 31 26  1  0  0  0  0
M  END
>  <MODEL>
7

>  <REMARK>
 VINA RESULT:      -7.5      2.148      2.511
  Name = 
  3 active torsions:
  status: ('A' for Active; 'I' for Inactive)
    1  A    between atoms: C_3  and  C_9
    2  A    between atoms: C_3  and  C_22
    3  A    between atoms: C_15  and  N_23
                            x       y       z     vdW  Elec       q    Type
                         _______ _______ _______ _____ _____    ______ ____

>  <TORSDO>
F 3

$$$$
=
 OpenBabel11052417403D

 31 35  0  0  1  0  0  0  0  0999 V2000
  185.5610  177.7990  147.0370 C   0  0  0  0  0  0  0  0  0  0  0  0
  187.1440  177.1230  143.6200 C   0  0  0  0  0  0  0  0  0  0  0  0
  186.1610  177.4760  142.6440 C   0  0  0  0  0  0  0  0  0  0  0  0
  183.6000  178.0540  142.4460 C   0  0  0  0  0  3  0  0  0  0  0  0
  186.8580  177.0980  145.0950 C   0  0  0  0  0  0  0  0  0  0  0  0
  186.4230  177.0970  147.8790 C   0  0  0  0  0  3  0  0  0  0  0  0
  184.8180  177.6930  143.0950 N   0  0  0  0  0  0  0  0  0  0  0  0
  189.5070  176.3880  144.2180 C   0  0  2  0  0  3  0  0  0  0  0  0
  184.2010  178.6740  147.7070 Cl  0  0  0  0  0  0  0  0  0  0  0  0
  187.8590  177.2730  140.9170 C   0  0  0  0  0  3  0  0  0  0  0  0
  183.4250  178.2900  141.1550 C   0  0  0  0  0  3  0  0  0  0  0  0
  188.9030  175.6580  145.4170 C   0  0  0  0  0  2  0  0  0  0  0  0
  188.4510  176.7740  143.2020 C   0  0  2  0  0  3  0  0  0  0  0  0
  185.7810  177.8030  145.6580 C   0  0  0  0  0  3  0  0  0  0  0  0
  184.4080  178.2390  140.0800 C   0  0  0  0  0  3  0  0  0  0  0  0
  187.7410  176.4200  145.9630 C   0  0  0  0  0  0  0  0  0  0  0  0
  187.5110  176.4080  147.3420 C   0  0  0  0  0  3  0  0  0  0  0  0
  188.8010  176.8880  141.8580 C   0  0  0  0  0  3  0  0  0  0  0  0
  186.5440  177.5570  141.2800 C   0  0  0  0  0  0  0  0  0  0  0  0
  185.6970  177.9320  140.1420 C   0  0  0  0  0  3  0  0  0  0  0  0
  192.3330  177.0640  144.1210 O   0  0  0  0  0  0  0  0  0  0  0  0
  191.9610  175.9750  143.6070 C   0  0  0  0  0  0  0  0  0  0  0  0
  190.5830  175.5860  143.6330 N   0  0  0  0  0  2  0  0  0  0  0  0
  192.9610  175.0950  142.9390 C   0  0  0  0  0  2  0  0  0  0  0  0
  196.6970  174.6600  143.7200 C   0  0  1  0  0  3  0  0  0  0  0  0
  196.5150  176.4770  142.1870 C   0  0  0  0  0  2  0  0  0  0  0  0
  197.3990  174.1630  144.9650 C   0  0  0  0  0  1  0  0  0  0  0  0
  195.1850  174.4430  143.8590 C   0  0  0  0  0  2  0  0  0  0  0  0
  195.0490  176.0780  141.9440 C   0  0  0  0  0  2  0  0  0  0  0  0
  194.3750  175.5750  143.2230 C   0  0  1  0  0  3  0  0  0  0  0  0
  197.0040  176.0730  143.5100 N   0  0  0  0  0  2  0  0  0  0  0  0
  1  9  1  0  0  0  0
  1  6  1  0  0  0  0
  2  5  1  0  0  0  0
  3  7  1  0  0  0  0
  3  2  2  0  0  0  0
  4  7  2  0  0  0  0
  5 14  1  0  0  0  0
  5 16  2  0  0  0  0
  8 23  1  6  0  0  0
  8 12  1  0  0  0  0
 10 19  1  0  0  0  0
 10 18  2  0  0  0  0
 11  4  1  0  0  0  0
 12 16  1  0  0  0  0
 13 18  1  1  0  0  0
 13  2  1  0  0  0  0
 13  8  1  0  0  0  0
 14  1  2  0  0  0  0
 15 20  1  0  0  0  0
 15 11  2  0  0  0  0
 16 17  1  0  0  0  0
 17  6  2  0  0  0  0
 19  3  1  0  0  0  0
 20 19  2  0  0  0  0
 22 23  1  0  0  0  0
 22 21  2  0  0  0  0
 24 22  1  0  0  0  0
 25 28  1  0  0  0  0
 25 27  1  1  0  0  0
 26 31  1  0  0  0  0
 29 26  1  0  0  0  0
 29 30  1  0  0  0  0
 30 24  1  6  0  0  0
 30 28  1  0  0  0  0
 31 25  1  0  0  0  0
M  END
>  <MODEL>
8

>  <REMARK>
 VINA RESULT:      -7.5      2.066      4.578
  Name = 
  3 active torsions:
  status: ('A' for Active; 'I' for Inactive)
    1  A    between atoms: C_3  and  C_9
    2  A    between atoms: C_3  and  C_22
    3  A    between atoms: C_15  and  N_23
                            x       y       z     vdW  Elec       q    Type
                         _______ _______ _______ _____ _____    ______ ____

>  <TORSDO>
F 3

$$$$
=
 OpenBabel11052417403D

 31 35  0  0  1  0  0  0  0  0999 V2000
  185.4730  178.0500  145.7280 C   0  0  0  0  0  0  0  0  0  0  0  0
  188.4750  176.1390  144.3220 C   0  0  0  0  0  0  0  0  0  0  0  0
  189.4760  176.1540  145.3420 C   0  0  0  0  0  0  0  0  0  0  0  0
  190.0440  177.3410  147.6230 C   0  0  0  0  0  3  0  0  0  0  0  0
  187.1940  176.9170  144.4230 C   0  0  0  0  0  0  0  0  0  0  0  0
  184.7360  178.2880  144.5690 C   0  0  0  0  0  3  0  0  0  0  0  0
  189.2930  177.0510  146.4450 N   0  0  0  0  0  2  0  0  0  0  0  0
  187.6350  175.3400  142.0550 C   0  0  2  0  0  3  0  0  0  0  0  0
  184.8770  178.6090  147.2760 Cl  0  0  0  0  0  0  0  0  0  0  0  0
  190.7450  174.5210  144.0660 C   0  0  0  0  0  3  0  0  0  0  0  0
  191.1910  176.7910  147.9910 C   0  0  0  0  0  3  0  0  0  0  0  0
  186.9090  176.6780  141.9290 C   0  0  0  0  0  2  0  0  0  0  0  0
  188.6790  175.3650  143.1530 C   0  0  0  0  0  0  0  0  0  0  0  0
  186.6880  177.3650  145.6550 C   0  0  0  0  0  3  0  0  0  0  0  0
  191.9730  175.7720  147.3020 C   0  0  0  0  0  3  0  0  0  0  0  0
  186.4200  177.1370  143.2630 C   0  0  0  0  0  0  0  0  0  0  0  0
  185.2090  177.8330  143.3380 C   0  0  0  0  0  3  0  0  0  0  0  0
  189.7960  174.5390  143.0580 C   0  0  0  0  0  3  0  0  0  0  0  0
  190.6150  175.3210  145.2010 C   0  0  0  0  0  0  0  0  0  0  0  0
  191.7270  175.1710  146.1460 C   0  0  0  0  0  3  0  0  0  0  0  0
  187.6760  172.6680  140.9080 O   0  0  0  0  0  0  0  0  0  0  0  0
  188.1920  173.6110  140.2480 C   0  0  0  0  0  0  0  0  0  0  0  0
  188.1920  174.9480  140.7600 N   0  0  0  0  0  2  0  0  0  0  0  0
  188.8330  173.3250  138.9340 C   0  0  0  0  0  2  0  0  0  0  0  0
  192.5920  172.9790  139.6440 C   0  0  1  0  0  3  0  0  0  0  0  0
  192.3820  174.0390  137.5190 C   0  0  0  0  0  2  0  0  0  0  0  0
  193.3590  172.9730  140.9490 C   0  0  0  0  0  1  0  0  0  0  0  0
  191.0860  172.9410  139.9310 C   0  0  0  0  0  2  0  0  0  0  0  0
  190.8850  173.6800  137.5290 C   0  0  0  0  0  2  0  0  0  0  0  0
  190.2830  173.7780  138.9320 C   0  0  1  0  0  3  0  0  0  0  0  0
  192.9460  174.1650  138.8670 N   0  0  0  0  0  2  0  0  0  0  0  0
  1  9  1  0  0  0  0
  2  5  1  0  0  0  0
  2  3  1  0  0  0  0
  3  7  1  0  0  0  0
  4 11  2  0  0  0  0
  5 14  2  0  0  0  0
  6  1  2  0  0  0  0
  7  4  1  0  0  0  0
  8 23  1  6  0  0  0
  8 13  1  0  0  0  0
 10 19  1  0  0  0  0
 12  8  1  0  0  0  0
 12 16  1  0  0  0  0
 13  2  2  0  0  0  0
 14  1  1  0  0  0  0
 15 11  1  0  0  0  0
 16 17  2  0  0  0  0
 16  5  1  0  0  0  0
 17  6  1  0  0  0  0
 18 13  1  0  0  0  0
 18 10  2  0  0  0  0
 19  3  2  0  0  0  0
 19 20  1  0  0  0  0
 20 15  2  0  0  0  0
 22 23  1  0  0  0  0
 22 21  2  0  0  0  0
 24 22  1  0  0  0  0
 25 28  1  0  0  0  0
 25 27  1  1  0  0  0
 26 29  1  0  0  0  0
 26 31  1  0  0  0  0
 29 30  1  0  0  0  0
 30 24  1  6  0  0  0
 30 28  1  0  0  0  0
 31 25  1  0  0  0  0
M  END
>  <MODEL>
9

>  <REMARK>
 VINA RESULT:      -7.5      2.838      4.906
  Name = 
  3 active torsions:
  status: ('A' for Active; 'I' for Inactive)
    1  A    between atoms: C_3  and  C_9
    2  A    between atoms: C_3  and  C_22
    3  A    between atoms: C_15  and  N_23
                            x       y       z     vdW  Elec       q    Type
                         _______ _______ _______ _____ _____    ______ ____

>  <TORSDO>
F 3

$$$$
