=
 OpenBabel11052419153D

 32 36  0  0  0  0  0  0  0  0999 V2000
  187.0780  176.6920  141.8180 C   0  0  0  0  0  0  0  0  0  0  0  0
  186.3800  177.2210  144.4960 C   0  0  0  0  0  0  0  0  0  0  0  0
  187.4570  176.4410  140.4920 C   0  0  0  0  0  3  0  0  0  0  0  0
  185.8970  177.4470  142.0900 C   0  0  0  0  0  0  0  0  0  0  0  0
  184.4000  178.4410  143.8000 C   0  0  0  0  0  3  0  0  0  0  0  0
  186.0320  176.9670  148.2140 N   0  0  0  0  0  2  0  0  0  0  0  0
  185.5500  177.7070  143.4500 C   0  0  0  0  0  0  0  0  0  0  0  0
  184.6220  178.4570  147.4900 O   0  0  0  0  0  0  0  0  0  0  0  0
  184.9070  178.2250  146.1440 C   0  0  0  0  0  0  0  0  0  0  0  0
  185.1200  177.9130  140.9860 C   0  0  0  0  0  0  0  0  0  0  0  0
  184.0770  178.6990  145.1330 C   0  0  0  0  0  3  0  0  0  0  0  0
  185.5360  177.6310  139.6750 C   0  0  0  0  0  3  0  0  0  0  0  0
  187.5230  176.4830  144.1930 C   0  0  0  0  0  3  0  0  0  0  0  0
  187.8750  176.2060  142.8760 C   0  0  0  0  0  0  0  0  0  0  0  0
  186.0420  177.4770  145.8390 C   0  0  0  0  0  0  0  0  0  0  0  0
  186.6940  176.9050  139.4290 C   0  0  0  0  0  3  0  0  0  0  0  0
  185.5660  178.2310  148.4330 O   0  0  0  0  0  0  0  0  0  0  0  0
  186.8610  176.9890  147.0030 C   0  0  0  0  0  2  0  0  0  0  0  0
  191.5070  175.2100  142.3680 C   0  0  0  0  0  0  0  0  0  0  0  0
  192.7730  175.7780  142.3180 O   0  0  0  0  0  1  0  0  0  0  0  0
  189.0980  175.4110  142.6410 C   0  0  0  0  0  0  0  0  0  0  0  0
  191.3680  173.8320  142.1880 C   0  0  0  0  0  3  0  0  0  0  0  0
  188.9740  174.0290  142.4500 C   0  0  0  0  0  3  0  0  0  0  0  0
  190.3750  176.0100  142.5910 C   0  0  0  0  0  0  0  0  0  0  0  0
  190.5710  177.7530  142.7650 Cl  0  0  0  0  0  0  0  0  0  0  0  0
  190.1000  173.2330  142.2260 C   0  0  0  0  0  0  0  0  0  0  0  0
  190.6350  171.1240  141.0500 C   0  0  0  0  0  1  0  0  0  0  0  0
  189.9320  171.8580  142.0440 O   0  0  0  0  0  0  0  0  0  0  0  0
  183.9460  178.6510  141.1880 O   0  0  0  0  0  0  0  0  0  0  0  0
  182.7070  178.3280  140.5700 C   0  0  0  0  0  2  0  0  0  0  0  0
  181.5920  178.6520  141.5030 C   0  0  0  0  0  3  0  0  0  0  0  0
  180.6170  177.9220  141.5630 O   0  0  0  0  0  0  0  0  0  0  0  0
  1  4  2  0  0  0  0
  1 14  1  0  0  0  0
  2 15  1  0  0  0  0
  3  1  1  0  0  0  0
  4  7  1  0  0  0  0
  5 11  2  0  0  0  0
  6 17  1  0  0  0  0
  7  5  1  0  0  0  0
  7  2  2  0  0  0  0
  8 17  1  0  0  0  0
  9  8  1  0  0  0  0
 10 29  1  0  0  0  0
 10  4  1  0  0  0  0
 11  9  1  0  0  0  0
 12 10  2  0  0  0  0
 13  2  1  0  0  0  0
 14 13  2  0  0  0  0
 15  9  2  0  0  0  0
 15 18  1  0  0  0  0
 16 12  1  0  0  0  0
 16  3  2  0  0  0  0
 18  6  1  0  0  0  0
 19 24  1  0  0  0  0
 20 19  1  0  0  0  0
 21 14  1  0  0  0  0
 22 26  1  0  0  0  0
 22 19  2  0  0  0  0
 23 21  1  0  0  0  0
 24 21  2  0  0  0  0
 24 25  1  0  0  0  0
 26 23  2  0  0  0  0
 27 28  1  0  0  0  0
 28 26  1  0  0  0  0
 30 29  1  0  0  0  0
 30 31  1  0  0  0  0
 31 32  2  0  0  0  0
M  END
>  <MODEL>
1

>  <REMARK>
 VINA RESULT:      -7.8      0.000      0.000
  Name = 
  5 active torsions:
  status: ('A' for Active; 'I' for Inactive)
    1  A    between atoms: C_13  and  C_18
    2  A    between atoms: C_14  and  O_29
    3  A    between atoms: O_15  and  C_26
    4  A    between atoms: C_16  and  C_27
    5  A    between atoms: C_18  and  O_29
                            x       y       z     vdW  Elec       q    Type
                         _______ _______ _______ _____ _____    ______ ____

>  <TORSDO>
F 5

$$$$
=
 OpenBabel11052419153D

 32 36  0  0  0  0  0  0  0  0999 V2000
  187.1250  176.7080  141.7390 C   0  0  0  0  0  0  0  0  0  0  0  0
  186.4640  177.1840  144.4360 C   0  0  0  0  0  0  0  0  0  0  0  0
  187.4870  176.4850  140.4030 C   0  0  0  0  0  3  0  0  0  0  0  0
  185.9350  177.4370  142.0420 C   0  0  0  0  0  0  0  0  0  0  0  0
  184.4500  178.3770  143.7920 C   0  0  0  0  0  3  0  0  0  0  0  0
  186.1840  176.8680  148.1550 N   0  0  0  0  0  2  0  0  0  0  0  0
  185.6070  177.6700  143.4110 C   0  0  0  0  0  0  0  0  0  0  0  0
  184.7340  178.3420  147.4780 O   0  0  0  0  0  0  0  0  0  0  0  0
  185.0000  178.1350  146.1240 C   0  0  0  0  0  0  0  0  0  0  0  0
  185.1310  177.9040  140.9580 C   0  0  0  0  0  0  0  0  0  0  0  0
  184.1450  178.6080  145.1340 C   0  0  0  0  0  3  0  0  0  0  0  0
  185.5300  177.6490  139.6370 C   0  0  0  0  0  3  0  0  0  0  0  0
  187.6150  176.4730  144.1020 C   0  0  0  0  0  3  0  0  0  0  0  0
  187.9500  176.2220  142.7760 C   0  0  0  0  0  0  0  0  0  0  0  0
  186.1440  177.4130  145.7880 C   0  0  0  0  0  0  0  0  0  0  0  0
  186.6970  176.9490  139.3600 C   0  0  0  0  0  3  0  0  0  0  0  0
  185.6980  178.1200  148.4010 O   0  0  0  0  0  0  0  0  0  0  0  0
  186.9910  176.9240  146.9300 C   0  0  0  0  0  2  0  0  0  0  0  0
  190.3450  173.4090  141.8900 C   0  0  0  0  0  0  0  0  0  0  0  0
  190.3310  172.0700  141.5200 O   0  0  0  0  0  1  0  0  0  0  0  0
  189.1830  175.4540  142.5080 C   0  0  0  0  0  0  0  0  0  0  0  0
  191.5690  174.0680  142.0200 C   0  0  0  0  0  3  0  0  0  0  0  0
  190.4180  176.1000  142.6430 C   0  0  0  0  0  3  0  0  0  0  0  0
  189.1450  174.0930  142.1370 C   0  0  0  0  0  0  0  0  0  0  0  0
  187.6150  173.2250  142.0140 Cl  0  0  0  0  0  0  0  0  0  0  0  0
  191.6130  175.4180  142.4000 C   0  0  0  0  0  0  0  0  0  0  0  0
  193.4730  176.2580  143.7970 C   0  0  0  0  0  1  0  0  0  0  0  0
  192.8230  176.1010  142.5430 O   0  0  0  0  0  0  0  0  0  0  0  0
  183.9470  178.6160  141.1910 O   0  0  0  0  0  0  0  0  0  0  0  0
  182.7030  178.2780  140.5910 C   0  0  0  0  0  2  0  0  0  0  0  0
  181.6000  178.5610  141.5500 C   0  0  0  0  0  3  0  0  0  0  0  0
  180.5380  177.9700  141.4470 O   0  0  0  0  0  0  0  0  0  0  0  0
  1  4  2  0  0  0  0
  1 14  1  0  0  0  0
  2 15  1  0  0  0  0
  3  1  1  0  0  0  0
  4  7  1  0  0  0  0
  5 11  2  0  0  0  0
  6 17  1  0  0  0  0
  7  5  1  0  0  0  0
  7  2  2  0  0  0  0
  8 17  1  0  0  0  0
  9  8  1  0  0  0  0
 10 29  1  0  0  0  0
 10  4  1  0  0  0  0
 11  9  1  0  0  0  0
 12 10  2  0  0  0  0
 13  2  1  0  0  0  0
 14 13  2  0  0  0  0
 15  9  2  0  0  0  0
 15 18  1  0  0  0  0
 16 12  1  0  0  0  0
 16  3  2  0  0  0  0
 18  6  1  0  0  0  0
 19 22  2  0  0  0  0
 19 24  1  0  0  0  0
 20 19  1  0  0  0  0
 21 23  1  0  0  0  0
 21 14  1  0  0  0  0
 22 26  1  0  0  0  0
 24 21  2  0  0  0  0
 25 24  1  0  0  0  0
 26 28  1  0  0  0  0
 26 23  2  0  0  0  0
 28 27  1  0  0  0  0
 30 29  1  0  0  0  0
 30 31  1  0  0  0  0
 32 31  2  0  0  0  0
M  END
>  <MODEL>
2

>  <REMARK>
 VINA RESULT:      -7.8      1.094      2.113
  Name = 
  5 active torsions:
  status: ('A' for Active; 'I' for Inactive)
    1  A    between atoms: C_13  and  C_18
    2  A    between atoms: C_14  and  O_29
    3  A    between atoms: O_15  and  C_26
    4  A    between atoms: C_16  and  C_27
    5  A    between atoms: C_18  and  O_29
                            x       y       z     vdW  Elec       q    Type
                         _______ _______ _______ _____ _____    ______ ____

>  <TORSDO>
F 5

$$$$
=
 OpenBabel11052419153D

 32 36  0  0  0  0  0  0  0  0999 V2000
  188.7590  175.7410  144.6630 C   0  0  0  0  0  0  0  0  0  0  0  0
  186.8950  176.8250  142.8500 C   0  0  0  0  0  0  0  0  0  0  0  0
  189.6870  175.1710  145.5460 C   0  0  0  0  0  3  0  0  0  0  0  0
  187.5500  176.3070  145.1690 C   0  0  0  0  0  0  0  0  0  0  0  0
  185.4000  177.4350  144.6630 C   0  0  0  0  0  3  0  0  0  0  0  0
  185.3560  178.4100  139.8300 N   0  0  0  0  0  2  0  0  0  0  0  0
  186.6130  176.8560  144.2430 C   0  0  0  0  0  0  0  0  0  0  0  0
  183.8900  178.4240  141.4370 O   0  0  0  0  0  0  0  0  0  0  0  0
  184.7730  177.9100  142.3870 C   0  0  0  0  0  0  0  0  0  0  0  0
  187.3310  176.2900  146.5800 C   0  0  0  0  0  0  0  0  0  0  0  0
  184.4860  177.9600  143.7480 C   0  0  0  0  0  3  0  0  0  0  0  0
  188.2930  175.7160  147.4260 C   0  0  0  0  0  3  0  0  0  0  0  0
  188.0880  176.2690  142.3930 C   0  0  0  0  0  3  0  0  0  0  0  0
  189.0230  175.7380  143.2770 C   0  0  0  0  0  0  0  0  0  0  0  0
  185.9720  177.3650  141.9340 C   0  0  0  0  0  0  0  0  0  0  0  0
  189.4590  175.1590  146.9160 C   0  0  0  0  0  3  0  0  0  0  0  0
  184.0540  178.1280  140.1270 O   0  0  0  0  0  0  0  0  0  0  0  0
  186.2000  177.3810  140.4470 C   0  0  0  0  0  2  0  0  0  0  0  0
  192.6050  175.3520  142.0710 C   0  0  0  0  0  0  0  0  0  0  0  0
  193.7820  176.0810  141.9680 O   0  0  0  0  0  1  0  0  0  0  0  0
  190.2650  175.1740  142.7110 C   0  0  0  0  0  0  0  0  0  0  0  0
  192.5790  174.0290  141.6230 C   0  0  0  0  0  3  0  0  0  0  0  0
  190.2530  173.8520  142.2490 C   0  0  0  0  0  3  0  0  0  0  0  0
  191.4490  175.9350  142.6140 C   0  0  0  0  0  0  0  0  0  0  0  0
  191.4930  177.6210  143.1270 Cl  0  0  0  0  0  0  0  0  0  0  0  0
  191.4020  173.2720  141.7070 C   0  0  0  0  0  0  0  0  0  0  0  0
  190.4660  170.9860  141.8240 C   0  0  0  0  0  1  0  0  0  0  0  0
  191.3470  171.9490  141.2620 O   0  0  0  0  0  0  0  0  0  0  0  0
  186.1690  176.8380  147.1390 O   0  0  0  0  0  0  0  0  0  0  0  0
  186.1870  177.8180  148.1680 C   0  0  0  0  0  2  0  0  0  0  0  0
  185.9600  179.1640  147.5720 C   0  0  0  0  0  3  0  0  0  0  0  0
  186.2800  180.1650  148.1900 O   0  0  0  0  0  0  0  0  0  0  0  0
  1  4  1  0  0  0  0
  1  3  2  0  0  0  0
  2  7  1  0  0  0  0
  3 16  1  0  0  0  0
  4 10  2  0  0  0  0
  6 17  1  0  0  0  0
  6 18  1  0  0  0  0
  7  5  2  0  0  0  0
  7  4  1  0  0  0  0
  8  9  1  0  0  0  0
  9 11  2  0  0  0  0
 10 29  1  0  0  0  0
 10 12  1  0  0  0  0
 11  5  1  0  0  0  0
 13  2  1  0  0  0  0
 13 14  2  0  0  0  0
 14  1  1  0  0  0  0
 15  9  1  0  0  0  0
 15  2  2  0  0  0  0
 16 12  2  0  0  0  0
 17  8  1  0  0  0  0
 18 15  1  0  0  0  0
 19 24  1  0  0  0  0
 20 19  1  0  0  0  0
 21 14  1  0  0  0  0
 22 26  1  0  0  0  0
 22 19  2  0  0  0  0
 23 21  1  0  0  0  0
 24 21  2  0  0  0  0
 24 25  1  0  0  0  0
 26 23  2  0  0  0  0
 28 26  1  0  0  0  0
 28 27  1  0  0  0  0
 29 30  1  0  0  0  0
 31 30  1  0  0  0  0
 31 32  2  0  0  0  0
M  END
>  <MODEL>
3

>  <REMARK>
 VINA RESULT:      -7.6      2.104      4.908
  Name = 
  5 active torsions:
  status: ('A' for Active; 'I' for Inactive)
    1  A    between atoms: C_13  and  C_18
    2  A    between atoms: C_14  and  O_29
    3  A    between atoms: O_15  and  C_26
    4  A    between atoms: C_16  and  C_27
    5  A    between atoms: C_18  and  O_29
                            x       y       z     vdW  Elec       q    Type
                         _______ _______ _______ _____ _____    ______ ____

>  <TORSDO>
F 5

$$$$
=
 OpenBabel11052419153D

 32 36  0  0  0  0  0  0  0  0999 V2000
  189.1880  175.2530  144.8590 C   0  0  0  0  0  0  0  0  0  0  0  0
  187.6110  176.2960  142.7710 C   0  0  0  0  0  0  0  0  0  0  0  0
  189.9720  174.7030  145.8820 C   0  0  0  0  0  3  0  0  0  0  0  0
  188.0050  175.9850  145.1830 C   0  0  0  0  0  0  0  0  0  0  0  0
  186.0370  177.2470  144.3560 C   0  0  0  0  0  3  0  0  0  0  0  0
  186.5120  177.6670  139.4660 N   0  0  0  0  0  2  0  0  0  0  0  0
  187.2150  176.5120  144.1190 C   0  0  0  0  0  0  0  0  0  0  0  0
  184.9230  178.0020  140.9130 O   0  0  0  0  0  0  0  0  0  0  0  0
  185.6620  177.5180  141.9930 C   0  0  0  0  0  0  0  0  0  0  0  0
  187.6660  176.1490  146.5610 C   0  0  0  0  0  0  0  0  0  0  0  0
  185.2660  177.7490  143.3070 C   0  0  0  0  0  3  0  0  0  0  0  0
  188.4860  175.5860  147.5510 C   0  0  0  0  0  3  0  0  0  0  0  0
  188.7740  175.5810  142.4920 C   0  0  0  0  0  3  0  0  0  0  0  0
  189.5680  175.0680  143.5130 C   0  0  0  0  0  0  0  0  0  0  0  0
  186.8320  176.8140  141.7170 C   0  0  0  0  0  0  0  0  0  0  0  0
  189.6260  174.8680  147.2170 C   0  0  0  0  0  3  0  0  0  0  0  0
  185.1670  177.5450  139.6640 O   0  0  0  0  0  0  0  0  0  0  0  0
  187.1880  176.6390  140.2670 C   0  0  0  0  0  2  0  0  0  0  0  0
  191.9630  172.2770  142.5610 C   0  0  0  0  0  0  0  0  0  0  0  0
  191.9740  170.9040  142.3490 O   0  0  0  0  0  1  0  0  0  0  0  0
  190.7890  174.3280  143.1320 C   0  0  0  0  0  0  0  0  0  0  0  0
  193.1480  173.0000  142.4140 C   0  0  0  0  0  3  0  0  0  0  0  0
  191.9870  175.0390  142.9890 C   0  0  0  0  0  3  0  0  0  0  0  0
  190.7770  172.9330  142.9250 C   0  0  0  0  0  0  0  0  0  0  0  0
  189.3040  171.9910  143.1530 Cl  0  0  0  0  0  0  0  0  0  0  0  0
  193.1680  174.3860  142.6300 C   0  0  0  0  0  0  0  0  0  0  0  0
  194.8060  176.0210  143.5020 C   0  0  0  0  0  1  0  0  0  0  0  0
  194.3410  175.1330  142.4940 O   0  0  0  0  0  0  0  0  0  0  0  0
  186.5230  176.8650  146.9430 O   0  0  0  0  0  0  0  0  0  0  0  0
  186.5660  178.0060  147.7900 C   0  0  0  0  0  2  0  0  0  0  0  0
  185.4900  178.9560  147.3930 C   0  0  0  0  0  3  0  0  0  0  0  0
  184.3610  178.5440  147.1840 O   0  0  0  0  0  0  0  0  0  0  0  0
  1  4  1  0  0  0  0
  1  3  2  0  0  0  0
  2  7  1  0  0  0  0
  3 16  1  0  0  0  0
  4 10  2  0  0  0  0
  6 17  1  0  0  0  0
  6 18  1  0  0  0  0
  7  5  2  0  0  0  0
  7  4  1  0  0  0  0
  8  9  1  0  0  0  0
  9 11  2  0  0  0  0
 10 29  1  0  0  0  0
 10 12  1  0  0  0  0
 11  5  1  0  0  0  0
 13  2  1  0  0  0  0
 13 14  2  0  0  0  0
 14  1  1  0  0  0  0
 15  9  1  0  0  0  0
 15  2  2  0  0  0  0
 16 12  2  0  0  0  0
 17  8  1  0  0  0  0
 18 15  1  0  0  0  0
 19 24  1  0  0  0  0
 20 19  1  0  0  0  0
 21 14  1  0  0  0  0
 22 19  2  0  0  0  0
 22 26  1  0  0  0  0
 23 21  1  0  0  0  0
 24 21  2  0  0  0  0
 24 25  1  0  0  0  0
 26 23  2  0  0  0  0
 28 26  1  0  0  0  0
 28 27  1  0  0  0  0
 29 30  1  0  0  0  0
 31 30  1  0  0  0  0
 32 31  2  0  0  0  0
M  END
>  <MODEL>
4

>  <REMARK>
 VINA RESULT:      -7.5      2.544      5.479
  Name = 
  5 active torsions:
  status: ('A' for Active; 'I' for Inactive)
    1  A    between atoms: C_13  and  C_18
    2  A    between atoms: C_14  and  O_29
    3  A    between atoms: O_15  and  C_26
    4  A    between atoms: C_16  and  C_27
    5  A    between atoms: C_18  and  O_29
                            x       y       z     vdW  Elec       q    Type
                         _______ _______ _______ _____ _____    ______ ____

>  <TORSDO>
F 5

$$$$
=
 OpenBabel11052419153D

 32 36  0  0  0  0  0  0  0  0999 V2000
  191.6010  175.1950  145.5170 C   0  0  0  0  0  0  0  0  0  0  0  0
  190.4890  174.6130  142.9950 C   0  0  0  0  0  0  0  0  0  0  0  0
  192.1570  175.4510  146.7780 C   0  0  0  0  0  3  0  0  0  0  0  0
  190.3460  175.7780  145.1620 C   0  0  0  0  0  0  0  0  0  0  0  0
  188.5620  176.0160  143.4550 C   0  0  0  0  0  3  0  0  0  0  0  0
  190.1040  173.6930  139.3880 N   0  0  0  0  0  2  0  0  0  0  0  0
  189.7930  175.4790  143.8810 C   0  0  0  0  0  0  0  0  0  0  0  0
  188.2180  174.5160  140.0940 O   0  0  0  0  0  0  0  0  0  0  0  0
  188.7150  174.8500  141.3540 C   0  0  0  0  0  0  0  0  0  0  0  0
  189.7000  176.6280  146.1100 C   0  0  0  0  0  0  0  0  0  0  0  0
  188.0260  175.7090  142.2040 C   0  0  0  0  0  3  0  0  0  0  0  0
  190.3000  176.8610  147.3580 C   0  0  0  0  0  3  0  0  0  0  0  0
  191.7140  174.0670  143.3740 C   0  0  0  0  0  3  0  0  0  0  0  0
  192.2800  174.3530  144.6120 C   0  0  0  0  0  0  0  0  0  0  0  0
  189.9460  174.3150  141.7300 C   0  0  0  0  0  0  0  0  0  0  0  0
  191.5150  176.2770  147.6910 C   0  0  0  0  0  3  0  0  0  0  0  0
  188.7540  173.4840  139.4030 O   0  0  0  0  0  0  0  0  0  0  0  0
  190.6240  173.4180  140.7320 C   0  0  0  0  0  2  0  0  0  0  0  0
  196.0070  173.8270  145.1290 C   0  0  0  0  0  0  0  0  0  0  0  0
  197.2090  174.5140  145.0160 O   0  0  0  0  0  1  0  0  0  0  0  0
  193.5850  173.7380  144.9330 C   0  0  0  0  0  0  0  0  0  0  0  0
  196.0170  172.4990  145.5610 C   0  0  0  0  0  3  0  0  0  0  0  0
  193.6120  172.4050  145.3600 C   0  0  0  0  0  3  0  0  0  0  0  0
  194.7930  174.4550  144.8080 C   0  0  0  0  0  0  0  0  0  0  0  0
  194.8110  176.1160  144.2170 Cl  0  0  0  0  0  0  0  0  0  0  0  0
  194.8200  171.7790  145.6770 C   0  0  0  0  0  0  0  0  0  0  0  0
  195.9830  169.7330  146.4350 C   0  0  0  0  0  1  0  0  0  0  0  0
  194.8020  170.4480  146.1020 O   0  0  0  0  0  0  0  0  0  0  0  0
  188.4720  177.2370  145.8170 O   0  0  0  0  0  0  0  0  0  0  0  0
  187.4960  177.5370  146.8050 C   0  0  0  0  0  2  0  0  0  0  0  0
  186.2510  176.7710  146.5190 C   0  0  0  0  0  3  0  0  0  0  0  0
  185.7130  176.8700  145.4290 O   0  0  0  0  0  0  0  0  0  0  0  0
  1  3  2  0  0  0  0
  2 13  1  0  0  0  0
  2  7  1  0  0  0  0
  3 16  1  0  0  0  0
  4  1  1  0  0  0  0
  4 10  2  0  0  0  0
  5  7  2  0  0  0  0
  6 17  1  0  0  0  0
  6 18  1  0  0  0  0
  7  4  1  0  0  0  0
  8  9  1  0  0  0  0
  9 15  1  0  0  0  0
  9 11  2  0  0  0  0
 10 12  1  0  0  0  0
 11  5  1  0  0  0  0
 12 16  2  0  0  0  0
 13 14  2  0  0  0  0
 14 21  1  0  0  0  0
 14  1  1  0  0  0  0
 15  2  2  0  0  0  0
 17  8  1  0  0  0  0
 18 15  1  0  0  0  0
 19 22  1  0  0  0  0
 20 19  1  0  0  0  0
 21 23  2  0  0  0  0
 22 26  2  0  0  0  0
 23 26  1  0  0  0  0
 24 21  1  0  0  0  0
 24 19  2  0  0  0  0
 25 24  1  0  0  0  0
 26 28  1  0  0  0  0
 28 27  1  0  0  0  0
 29 10  1  0  0  0  0
 29 30  1  0  0  0  0
 31 30  1  0  0  0  0
 32 31  2  0  0  0  0
M  END
>  <MODEL>
5

>  <REMARK>
 VINA RESULT:      -7.1      4.123      6.868
  Name = 
  5 active torsions:
  status: ('A' for Active; 'I' for Inactive)
    1  A    between atoms: C_13  and  C_18
    2  A    between atoms: C_14  and  O_29
    3  A    between atoms: O_15  and  C_26
    4  A    between atoms: C_16  and  C_27
    5  A    between atoms: C_18  and  O_29
                            x       y       z     vdW  Elec       q    Type
                         _______ _______ _______ _____ _____    ______ ____

>  <TORSDO>
F 5

$$$$
=
 OpenBabel11052419153D

 32 36  0  0  0  0  0  0  0  0999 V2000
  190.7710  176.0940  145.2370 C   0  0  0  0  0  0  0  0  0  0  0  0
  190.3510  174.8430  142.7480 C   0  0  0  0  0  0  0  0  0  0  0  0
  190.9640  176.7460  146.4630 C   0  0  0  0  0  3  0  0  0  0  0  0
  191.8770  175.4780  144.5760 C   0  0  0  0  0  0  0  0  0  0  0  0
  192.6910  174.2130  142.6040 C   0  0  0  0  0  3  0  0  0  0  0  0
  188.7520  173.0680  139.8670 N   0  0  0  0  0  2  0  0  0  0  0  0
  191.6530  174.8450  143.3170 C   0  0  0  0  0  0  0  0  0  0  0  0
  190.9100  173.0270  139.5890 O   0  0  0  0  0  0  0  0  0  0  0  0
  191.1840  173.6240  140.8210 C   0  0  0  0  0  0  0  0  0  0  0  0
  193.1580  175.5320  145.2040 C   0  0  0  0  0  0  0  0  0  0  0  0
  192.4630  173.6060  141.3690 C   0  0  0  0  0  3  0  0  0  0  0  0
  193.3020  176.1900  146.4360 C   0  0  0  0  0  3  0  0  0  0  0  0
  189.2940  175.4490  143.4250 C   0  0  0  0  0  3  0  0  0  0  0  0
  189.4840  176.0630  144.6590 C   0  0  0  0  0  0  0  0  0  0  0  0
  190.1270  174.2200  141.5050 C   0  0  0  0  0  0  0  0  0  0  0  0
  192.2170  176.7930  147.0590 C   0  0  0  0  0  3  0  0  0  0  0  0
  189.7440  173.2870  138.9540 O   0  0  0  0  0  0  0  0  0  0  0  0
  188.7780  174.1650  140.8420 C   0  0  0  0  0  2  0  0  0  0  0  0
  186.7060  176.8290  147.1350 C   0  0  0  0  0  0  0  0  0  0  0  0
  186.2100  176.3880  148.3550 O   0  0  0  0  0  1  0  0  0  0  0  0
  188.3100  176.6760  145.3130 C   0  0  0  0  0  0  0  0  0  0  0  0
  186.0760  177.8940  146.4860 C   0  0  0  0  0  3  0  0  0  0  0  0
  187.6630  177.7400  144.6710 C   0  0  0  0  0  3  0  0  0  0  0  0
  187.8230  176.2100  146.5520 C   0  0  0  0  0  0  0  0  0  0  0  0
  188.5690  174.8350  147.3660 Cl  0  0  0  0  0  0  0  0  0  0  0  0
  186.5500  178.3540  145.2490 C   0  0  0  0  0  0  0  0  0  0  0  0
  184.5490  179.4280  144.2690 C   0  0  0  0  0  1  0  0  0  0  0  0
  185.9360  179.4140  144.5770 O   0  0  0  0  0  0  0  0  0  0  0  0
  194.2800  174.9390  144.6100 O   0  0  0  0  0  0  0  0  0  0  0  0
  195.5890  175.4860  144.6980 C   0  0  0  0  0  2  0  0  0  0  0  0
  195.8280  176.3850  143.5340 C   0  0  0  0  0  3  0  0  0  0  0  0
  196.8160  177.0980  143.5090 O   0  0  0  0  0  0  0  0  0  0  0  0
  1  3  2  0  0  0  0
  2  7  1  0  0  0  0
  2 13  1  0  0  0  0
  3 16  1  0  0  0  0
  4 10  2  0  0  0  0
  4  1  1  0  0  0  0
  5  7  2  0  0  0  0
  6 18  1  0  0  0  0
  7  4  1  0  0  0  0
  8  9  1  0  0  0  0
  9 11  2  0  0  0  0
  9 15  1  0  0  0  0
 10 12  1  0  0  0  0
 11  5  1  0  0  0  0
 12 16  2  0  0  0  0
 13 14  2  0  0  0  0
 14  1  1  0  0  0  0
 14 21  1  0  0  0  0
 15  2  2  0  0  0  0
 17  8  1  0  0  0  0
 17  6  1  0  0  0  0
 18 15  1  0  0  0  0
 19 20  1  0  0  0  0
 21 24  2  0  0  0  0
 22 19  2  0  0  0  0
 23 26  2  0  0  0  0
 23 21  1  0  0  0  0
 24 19  1  0  0  0  0
 24 25  1  0  0  0  0
 26 22  1  0  0  0  0
 27 28  1  0  0  0  0
 28 26  1  0  0  0  0
 29 30  1  0  0  0  0
 29 10  1  0  0  0  0
 31 30  1  0  0  0  0
 32 31  2  0  0  0  0
M  END
>  <MODEL>
6

>  <REMARK>
 VINA RESULT:      -7.1      3.323      8.920
  Name = 
  5 active torsions:
  status: ('A' for Active; 'I' for Inactive)
    1  A    between atoms: C_13  and  C_18
    2  A    between atoms: C_14  and  O_29
    3  A    between atoms: O_15  and  C_26
    4  A    between atoms: C_16  and  C_27
    5  A    between atoms: C_18  and  O_29
                            x       y       z     vdW  Elec       q    Type
                         _______ _______ _______ _____ _____    ______ ____

>  <TORSDO>
F 5

$$$$
=
 OpenBabel11052419153D

 32 36  0  0  0  0  0  0  0  0999 V2000
  189.2550  176.3660  143.4190 C   0  0  0  0  0  0  0  0  0  0  0  0
  189.9290  174.3670  141.5510 C   0  0  0  0  0  0  0  0  0  0  0  0
  188.9210  177.3370  144.3730 C   0  0  0  0  0  3  0  0  0  0  0  0
  188.4220  176.1780  142.2740 C   0  0  0  0  0  0  0  0  0  0  0  0
  188.0050  174.9190  140.1780 C   0  0  0  0  0  3  0  0  0  0  0  0
  191.8590  171.9250  139.4740 N   0  0  0  0  0  2  0  0  0  0  0  0
  188.7730  175.1650  141.3320 C   0  0  0  0  0  0  0  0  0  0  0  0
  189.8670  172.1300  138.6230 O   0  0  0  0  0  0  0  0  0  0  0  0
  189.4810  173.1400  139.5050 C   0  0  0  0  0  0  0  0  0  0  0  0
  187.2700  177.0090  142.1290 C   0  0  0  0  0  0  0  0  0  0  0  0
  188.3530  173.9190  139.2690 C   0  0  0  0  0  3  0  0  0  0  0  0
  186.9810  177.9730  143.1080 C   0  0  0  0  0  3  0  0  0  0  0  0
  190.7220  174.5830  142.6770 C   0  0  0  0  0  3  0  0  0  0  0  0
  190.4070  175.5720  143.6030 C   0  0  0  0  0  0  0  0  0  0  0  0
  190.2790  173.3660  140.6250 C   0  0  0  0  0  0  0  0  0  0  0  0
  187.7960  178.1350  144.2210 C   0  0  0  0  0  3  0  0  0  0  0  0
  190.7920  171.2170  138.9990 O   0  0  0  0  0  0  0  0  0  0  0  0
  191.4900  172.4880  140.7780 C   0  0  0  0  0  2  0  0  0  0  0  0
  191.8340  175.4630  147.1230 C   0  0  0  0  0  0  0  0  0  0  0  0
  191.5030  175.0170  148.3960 O   0  0  0  0  0  1  0  0  0  0  0  0
  191.3030  175.7400  144.7660 C   0  0  0  0  0  0  0  0  0  0  0  0
  193.0590  176.1010  146.9180 C   0  0  0  0  0  3  0  0  0  0  0  0
  192.5310  176.3860  144.5780 C   0  0  0  0  0  3  0  0  0  0  0  0
  190.9450  175.2820  146.0510 C   0  0  0  0  0  0  0  0  0  0  0  0
  189.3830  174.5190  146.3440 Cl  0  0  0  0  0  0  0  0  0  0  0  0
  193.4150  176.5680  145.6450 C   0  0  0  0  0  0  0  0  0  0  0  0
  195.5770  176.7510  144.4590 C   0  0  0  0  0  1  0  0  0  0  0  0
  194.6320  177.2140  145.4140 O   0  0  0  0  0  0  0  0  0  0  0  0
  186.4190  176.8800  141.0240 O   0  0  0  0  0  0  0  0  0  0  0  0
  185.9020  177.9910  140.3040 C   0  0  0  0  0  2  0  0  0  0  0  0
  184.4180  178.0190  140.4380 C   0  0  0  0  0  3  0  0  0  0  0  0
  183.9100  178.2900  141.5120 O   0  0  0  0  0  0  0  0  0  0  0  0
  1 14  1  0  0  0  0
  1  3  2  0  0  0  0
  2 13  1  0  0  0  0
  4  1  1  0  0  0  0
  5  7  2  0  0  0  0
  6 18  1  0  0  0  0
  7  2  1  0  0  0  0
  7  4  1  0  0  0  0
  8 17  1  0  0  0  0
  8  9  1  0  0  0  0
  9 15  1  0  0  0  0
 10  4  2  0  0  0  0
 10 12  1  0  0  0  0
 11  9  2  0  0  0  0
 11  5  1  0  0  0  0
 12 16  2  0  0  0  0
 13 14  2  0  0  0  0
 14 21  1  0  0  0  0
 15 18  1  0  0  0  0
 15  2  2  0  0  0  0
 16  3  1  0  0  0  0
 17  6  1  0  0  0  0
 19 20  1  0  0  0  0
 21 24  1  0  0  0  0
 22 19  1  0  0  0  0
 23 21  2  0  0  0  0
 23 26  1  0  0  0  0
 24 25  1  0  0  0  0
 24 19  2  0  0  0  0
 26 22  2  0  0  0  0
 27 28  1  0  0  0  0
 28 26  1  0  0  0  0
 29 10  1  0  0  0  0
 30 31  1  0  0  0  0
 30 29  1  0  0  0  0
 31 32  2  0  0  0  0
M  END
>  <MODEL>
7

>  <REMARK>
 VINA RESULT:      -6.9      3.538      6.410
  Name = 
  5 active torsions:
  status: ('A' for Active; 'I' for Inactive)
    1  A    between atoms: C_13  and  C_18
    2  A    between atoms: C_14  and  O_29
    3  A    between atoms: O_15  and  C_26
    4  A    between atoms: C_16  and  C_27
    5  A    between atoms: C_18  and  O_29
                            x       y       z     vdW  Elec       q    Type
                         _______ _______ _______ _____ _____    ______ ____

>  <TORSDO>
F 5

$$$$
=
 OpenBabel11052419153D

 32 36  0  0  0  0  0  0  0  0999 V2000
  187.4050  176.5010  142.1430 C   0  0  0  0  0  0  0  0  0  0  0  0
  188.8230  174.0680  142.0590 C   0  0  0  0  0  0  0  0  0  0  0  0
  186.6780  177.6970  142.2090 C   0  0  0  0  0  3  0  0  0  0  0  0
  187.6050  175.8590  140.8830 C   0  0  0  0  0  0  0  0  0  0  0  0
  188.5700  173.9370  139.6480 C   0  0  0  0  0  3  0  0  0  0  0  0
  191.1720  171.2730  142.8800 N   0  0  0  0  0  2  0  0  0  0  0  0
  188.3280  174.6290  140.8500 C   0  0  0  0  0  0  0  0  0  0  0  0
  190.4410  170.9840  140.8510 O   0  0  0  0  0  0  0  0  0  0  0  0
  189.7370  172.1890  140.8230 C   0  0  0  0  0  0  0  0  0  0  0  0
  187.0660  176.4770  139.7130 C   0  0  0  0  0  0  0  0  0  0  0  0
  189.2680  172.7290  139.6290 C   0  0  0  0  0  3  0  0  0  0  0  0
  186.3520  177.6800  139.8290 C   0  0  0  0  0  3  0  0  0  0  0  0
  188.6130  174.7250  143.2690 C   0  0  0  0  0  3  0  0  0  0  0  0
  187.9220  175.9320  143.3260 C   0  0  0  0  0  0  0  0  0  0  0  0
  189.5360  172.8540  142.0300 C   0  0  0  0  0  0  0  0  0  0  0  0
  186.1570  178.2840  141.0640 C   0  0  0  0  0  3  0  0  0  0  0  0
  190.6470  170.3460  142.0260 O   0  0  0  0  0  0  0  0  0  0  0  0
  190.1010  172.2010  143.2620 C   0  0  0  0  0  2  0  0  0  0  0  0
  188.6340  177.5410  146.6930 C   0  0  0  0  0  0  0  0  0  0  0  0
  189.7060  177.9160  147.4930 O   0  0  0  0  0  1  0  0  0  0  0  0
  187.7480  176.5670  144.6480 C   0  0  0  0  0  0  0  0  0  0  0  0
  187.3320  177.7650  147.1460 C   0  0  0  0  0  3  0  0  0  0  0  0
  186.4490  176.7900  145.1200 C   0  0  0  0  0  3  0  0  0  0  0  0
  188.8520  176.9370  145.4450 C   0  0  0  0  0  0  0  0  0  0  0  0
  190.5040  176.6190  144.9170 Cl  0  0  0  0  0  0  0  0  0  0  0  0
  186.2310  177.3890  146.3630 C   0  0  0  0  0  0  0  0  0  0  0  0
  184.0660  178.5750  146.2130 C   0  0  0  0  0  1  0  0  0  0  0  0
  184.9190  177.5970  146.7940 O   0  0  0  0  0  0  0  0  0  0  0  0
  187.2380  175.9010  138.4470 O   0  0  0  0  0  0  0  0  0  0  0  0
  186.3160  176.0790  137.3790 C   0  0  0  0  0  2  0  0  0  0  0  0
  187.0670  176.3140  136.1140 C   0  0  0  0  0  3  0  0  0  0  0  0
  188.0700  175.6650  135.8720 O   0  0  0  0  0  0  0  0  0  0  0  0
  1  3  1  0  0  0  0
  1 14  1  0  0  0  0
  2 13  1  0  0  0  0
  4  1  2  0  0  0  0
  5  7  1  0  0  0  0
  6 18  1  0  0  0  0
  7  4  1  0  0  0  0
  7  2  2  0  0  0  0
  8 17  1  0  0  0  0
  9  8  1  0  0  0  0
  9 15  2  0  0  0  0
 10 12  2  0  0  0  0
 10  4  1  0  0  0  0
 11  5  2  0  0  0  0
 11  9  1  0  0  0  0
 12 16  1  0  0  0  0
 13 14  2  0  0  0  0
 14 21  1  0  0  0  0
 15  2  1  0  0  0  0
 15 18  1  0  0  0  0
 16  3  2  0  0  0  0
 17  6  1  0  0  0  0
 19 22  1  0  0  0  0
 19 20  1  0  0  0  0
 21 23  2  0  0  0  0
 21 24  1  0  0  0  0
 23 26  1  0  0  0  0
 24 19  2  0  0  0  0
 25 24  1  0  0  0  0
 26 28  1  0  0  0  0
 26 22  2  0  0  0  0
 27 28  1  0  0  0  0
 29 10  1  0  0  0  0
 30 29  1  0  0  0  0
 31 30  1  0  0  0  0
 32 31  2  0  0  0  0
M  END
>  <MODEL>
8

>  <REMARK>
 VINA RESULT:      -6.8      2.931      6.614
  Name = 
  5 active torsions:
  status: ('A' for Active; 'I' for Inactive)
    1  A    between atoms: C_13  and  C_18
    2  A    between atoms: C_14  and  O_29
    3  A    between atoms: O_15  and  C_26
    4  A    between atoms: C_16  and  C_27
    5  A    between atoms: C_18  and  O_29
                            x       y       z     vdW  Elec       q    Type
                         _______ _______ _______ _____ _____    ______ ____

>  <TORSDO>
F 5

$$$$
=
 OpenBabel11052419153D

 32 36  0  0  0  0  0  0  0  0999 V2000
  189.2270  174.7510  142.6950 C   0  0  0  0  0  0  0  0  0  0  0  0
  191.7280  175.3620  143.8400 C   0  0  0  0  0  0  0  0  0  0  0  0
  187.9690  174.4460  142.1570 C   0  0  0  0  0  3  0  0  0  0  0  0
  190.3690  173.9820  142.3150 C   0  0  0  0  0  0  0  0  0  0  0  0
  192.8050  173.5920  142.5740 C   0  0  0  0  0  3  0  0  0  0  0  0
  194.5710  177.1920  145.4430 N   0  0  0  0  0  2  0  0  0  0  0  0
  191.6320  174.3010  142.8980 C   0  0  0  0  0  0  0  0  0  0  0  0
  195.3120  175.2880  144.6950 O   0  0  0  0  0  0  0  0  0  0  0  0
  194.1060  174.9390  144.0870 C   0  0  0  0  0  0  0  0  0  0  0  0
  190.1910  172.9240  141.3730 C   0  0  0  0  0  0  0  0  0  0  0  0
  194.0320  173.9050  143.1590 C   0  0  0  0  0  3  0  0  0  0  0  0
  188.9130  172.6600  140.8560 C   0  0  0  0  0  3  0  0  0  0  0  0
  190.5930  176.0940  144.1820 C   0  0  0  0  0  3  0  0  0  0  0  0
  189.3530  175.8110  143.6180 C   0  0  0  0  0  0  0  0  0  0  0  0
  192.9720  175.6780  144.4180 C   0  0  0  0  0  0  0  0  0  0  0  0
  187.8120  173.4110  141.2450 C   0  0  0  0  0  3  0  0  0  0  0  0
  195.3170  176.0990  145.7780 O   0  0  0  0  0  0  0  0  0  0  0  0
  193.1600  176.7910  145.4120 C   0  0  0  0  0  2  0  0  0  0  0  0
  186.5800  178.4080  143.6310 C   0  0  0  0  0  0  0  0  0  0  0  0
  186.0460  179.4050  142.8260 O   0  0  0  0  0  1  0  0  0  0  0  0
  188.2010  176.6400  144.0300 C   0  0  0  0  0  0  0  0  0  0  0  0
  186.0160  178.1690  144.8870 C   0  0  0  0  0  3  0  0  0  0  0  0
  187.6310  176.4170  145.2900 C   0  0  0  0  0  3  0  0  0  0  0  0
  187.6780  177.6500  143.1960 C   0  0  0  0  0  0  0  0  0  0  0  0
  188.4030  178.0030  141.6280 Cl  0  0  0  0  0  0  0  0  0  0  0  0
  186.5400  177.1740  145.7250 C   0  0  0  0  0  0  0  0  0  0  0  0
  185.9450  177.8990  148.0130 C   0  0  0  0  0  1  0  0  0  0  0  0
  185.9990  176.9170  146.9870 O   0  0  0  0  0  0  0  0  0  0  0  0
  191.2740  172.1390  140.9540 O   0  0  0  0  0  0  0  0  0  0  0  0
  191.1800  170.7390  140.7250 C   0  0  0  0  0  2  0  0  0  0  0  0
  191.0840  170.0310  142.0320 C   0  0  0  0  0  3  0  0  0  0  0  0
  191.9480  170.1940  142.8770 O   0  0  0  0  0  0  0  0  0  0  0  0
  1 14  1  0  0  0  0
  2 13  1  0  0  0  0
  2 15  1  0  0  0  0
  3  1  1  0  0  0  0
  4  1  2  0  0  0  0
  4  7  1  0  0  0  0
  5  7  1  0  0  0  0
  5 11  2  0  0  0  0
  6 17  1  0  0  0  0
  7  2  2  0  0  0  0
  8 17  1  0  0  0  0
  9 15  2  0  0  0  0
  9  8  1  0  0  0  0
 10  4  1  0  0  0  0
 11  9  1  0  0  0  0
 12 16  1  0  0  0  0
 12 10  2  0  0  0  0
 14 21  1  0  0  0  0
 14 13  2  0  0  0  0
 15 18  1  0  0  0  0
 16  3  2  0  0  0  0
 18  6  1  0  0  0  0
 19 22  1  0  0  0  0
 20 19  1  0  0  0  0
 21 23  2  0  0  0  0
 22 26  2  0  0  0  0
 23 26  1  0  0  0  0
 24 19  2  0  0  0  0
 24 21  1  0  0  0  0
 25 24  1  0  0  0  0
 26 28  1  0  0  0  0
 28 27  1  0  0  0  0
 29 10  1  0  0  0  0
 30 29  1  0  0  0  0
 30 31  1  0  0  0  0
 31 32  2  0  0  0  0
M  END
>  <MODEL>
9

>  <REMARK>
 VINA RESULT:      -6.8      2.984      7.849
  Name = 
  5 active torsions:
  status: ('A' for Active; 'I' for Inactive)
    1  A    between atoms: C_13  and  C_18
    2  A    between atoms: C_14  and  O_29
    3  A    between atoms: O_15  and  C_26
    4  A    between atoms: C_16  and  C_27
    5  A    between atoms: C_18  and  O_29
                            x       y       z     vdW  Elec       q    Type
                         _______ _______ _______ _____ _____    ______ ____

>  <TORSDO>
F 5

$$$$
