=
 OpenBabel11052420303D

 34 37  0  0  1  0  0  0  0  0999 V2000
  187.4260  176.7900  145.6650 C   0  0  1  0  0  3  0  0  0  0  0  0
  185.0080  177.7890  144.4320 N   0  0  0  0  0  0  0  0  0  0  0  0
  186.3590  177.9410  147.6600 C   0  0  0  0  0  3  0  0  0  0  0  0
  185.1440  178.5910  147.8410 C   0  0  0  0  0  3  0  0  0  0  0  0
  185.3120  178.0470  145.8000 C   0  0  0  0  0  0  0  0  0  0  0  0
  186.4500  177.6330  146.3560 N   0  0  0  0  0  0  0  0  0  0  0  0
  184.4790  178.6500  146.6630 N   0  0  0  0  0  0  0  0  0  0  0  0
  185.9000  177.2490  143.6470 C   0  0  0  0  0  0  0  0  0  0  0  0
  187.8250  175.8400  143.4970 O   0  0  0  0  0  1  0  0  0  0  0  0
  187.3110  176.9670  144.1370 C   0  0  2  0  0  3  0  0  0  0  0  0
  185.5920  176.9840  142.3090 O   0  0  0  0  0  0  0  0  0  0  0  0
  185.8160  177.9260  141.2630 C   0  0  2  0  0  3  0  0  0  0  0  0
  184.5770  178.0300  140.3840 C   0  0  0  0  0  1  0  0  0  0  0  0
  187.0320  177.5120  140.4400 C   0  0  0  0  0  0  0  0  0  0  0  0
  188.1470  178.1910  140.8940 F   0  0  0  0  0  0  0  0  0  0  0  0
  186.8300  177.8270  139.1090 F   0  0  0  0  0  0  0  0  0  0  0  0
  187.2530  176.1500  140.5590 F   0  0  0  0  0  0  0  0  0  0  0  0
  188.8500  177.1220  146.0990 C   0  0  0  0  0  2  0  0  0  0  0  0
  189.6740  175.8600  146.2820 C   0  0  2  0  0  3  0  0  0  0  0  0
  188.9390  174.9170  147.2150 C   0  0  0  0  0  1  0  0  0  0  0  0
  194.5630  176.5110  145.9270 C   0  0  0  0  0  3  0  0  0  0  0  0
  192.1370  175.9090  144.7360 N   0  0  0  0  0  0  0  0  0  0  0  0
  195.6020  175.9150  142.4190 C   0  0  0  0  0  0  0  0  0  0  0  0
  195.6700  176.2160  143.7880 C   0  0  0  0  0  3  0  0  0  0  0  0
  194.5100  176.2140  144.5650 C   0  0  0  0  0  0  0  0  0  0  0  0
  190.9740  176.1950  146.8450 N   0  0  0  0  0  2  0  0  0  0  0  0
  193.1960  175.6110  142.6130 C   0  0  0  0  0  3  0  0  0  0  0  0
  193.2640  175.9100  143.9760 C   0  0  0  0  0  0  0  0  0  0  0  0
  194.3600  175.6140  141.8390 C   0  0  0  0  0  3  0  0  0  0  0  0
  192.1730  176.1960  146.0680 C   0  0  0  0  0  0  0  0  0  0  0  0
  193.3910  176.5030  146.6840 C   0  0  0  0  0  3  0  0  0  0  0  0
  196.8260  175.9180  141.6030 C   0  0  0  0  0  0  0  0  0  0  0  0
  197.9410  175.6460  142.1230 O   0  0  0  0  0  1  0  0  0  0  0  0
  196.7630  176.2220  140.2480 O   0  0  0  0  0  0  0  0  0  0  0  0
  1 18  1  1  0  0  0
  1  6  1  0  0  0  0
  2  5  1  0  0  0  0
  3  4  2  0  0  0  0
  5  6  1  0  0  0  0
  5  7  2  0  0  0  0
  6  3  1  0  0  0  0
  7  4  1  0  0  0  0
  8 10  1  0  0  0  0
  8  2  2  0  0  0  0
 10  9  1  6  0  0  0
 10  1  1  0  0  0  0
 11  8  1  0  0  0  0
 12 13  1  6  0  0  0
 12 11  1  0  0  0  0
 14 17  1  0  0  0  0
 14 15  1  0  0  0  0
 14 12  1  0  0  0  0
 16 14  1  0  0  0  0
 18 19  1  0  0  0  0
 19 26  1  0  0  0  0
 19 20  1  1  0  0  0
 21 31  2  0  0  0  0
 22 30  2  0  0  0  0
 23 24  1  0  0  0  0
 24 25  2  0  0  0  0
 25 21  1  0  0  0  0
 27 28  2  0  0  0  0
 28 25  1  0  0  0  0
 28 22  1  0  0  0  0
 29 23  2  0  0  0  0
 29 27  1  0  0  0  0
 30 31  1  0  0  0  0
 30 26  1  0  0  0  0
 32 33  1  0  0  0  0
 32 23  1  0  0  0  0
 34 32  2  0  0  0  0
M  END
>  <MODEL>
1

>  <REMARK>
 VINA RESULT:      -8.1      0.000      0.000
  Name = 
  7 active torsions:
  status: ('A' for Active; 'I' for Inactive)
    1  A    between atoms: C_1  and  C_9
    2  A    between atoms: O_2  and  C_23
    3  A    between atoms: O_2  and  C_32
    4  A    between atoms: C_3  and  C_23
    5  A    between atoms: C_7  and  C_11
    6  A    between atoms: C_8  and  C_9
    7  A    between atoms: C_8  and  N_18
                            x       y       z     vdW  Elec       q    Type
                         _______ _______ _______ _____ _____    ______ ____

>  <TORSDO>
F 7

$$$$
=
 OpenBabel11052420303D

 34 37  0  0  1  0  0  0  0  0999 V2000
  192.2700  174.7140  146.3190 C   0  0  1  0  0  3  0  0  0  0  0  0
  192.8110  175.2000  143.5190 N   0  0  0  0  0  0  0  0  0  0  0  0
  190.1990  173.6720  145.2840 C   0  0  0  0  0  3  0  0  0  0  0  0
  189.7940  173.4730  143.9690 C   0  0  0  0  0  3  0  0  0  0  0  0
  191.6090  174.5670  143.9500 C   0  0  0  0  0  0  0  0  0  0  0  0
  191.3340  174.3900  145.2420 N   0  0  0  0  0  0  0  0  0  0  0  0
  190.6930  174.0340  143.1260 N   0  0  0  0  0  0  0  0  0  0  0  0
  193.6200  175.7440  144.3870 C   0  0  0  0  0  0  0  0  0  0  0  0
  194.4210  175.7310  146.6400 O   0  0  0  0  0  1  0  0  0  0  0  0
  193.2640  175.8020  145.8640 C   0  0  2  0  0  3  0  0  0  0  0  0
  194.8040  176.3520  143.9610 O   0  0  0  0  0  0  0  0  0  0  0  0
  195.8380  175.6420  143.2840 C   0  0  2  0  0  3  0  0  0  0  0  0
  196.5940  174.7620  144.2700 C   0  0  0  0  0  1  0  0  0  0  0  0
  196.7830  176.6250  142.5990 C   0  0  0  0  0  0  0  0  0  0  0  0
  196.1210  177.2440  141.5540 F   0  0  0  0  0  0  0  0  0  0  0  0
  197.8800  175.9510  142.0940 F   0  0  0  0  0  0  0  0  0  0  0  0
  197.2110  177.5880  143.4970 F   0  0  0  0  0  0  0  0  0  0  0  0
  191.5350  175.1990  147.5640 C   0  0  0  0  0  2  0  0  0  0  0  0
  190.9400  176.5790  147.3440 C   0  0  2  0  0  3  0  0  0  0  0  0
  191.4560  177.5200  148.4150 C   0  0  0  0  0  1  0  0  0  0  0  0
  186.4430  176.9000  145.3100 C   0  0  0  0  0  3  0  0  0  0  0  0
  189.1990  177.0100  145.0550 N   0  0  0  0  0  0  0  0  0  0  0  0
  186.8090  177.6790  141.7060 C   0  0  0  0  0  0  0  0  0  0  0  0
  186.2190  177.4010  142.9470 C   0  0  0  0  0  3  0  0  0  0  0  0
  187.0180  177.1770  144.0700 C   0  0  0  0  0  0  0  0  0  0  0  0
  189.4870  176.5070  147.4100 N   0  0  0  0  0  2  0  0  0  0  0  0
  189.0130  177.5050  142.7230 C   0  0  0  0  0  3  0  0  0  0  0  0
  188.4240  177.2290  143.9590 C   0  0  0  0  0  0  0  0  0  0  0  0
  188.2090  177.7280  141.6010 C   0  0  0  0  0  3  0  0  0  0  0  0
  188.6520  176.7390  146.2730 C   0  0  0  0  0  0  0  0  0  0  0  0
  187.2630  176.6790  146.4190 C   0  0  0  0  0  3  0  0  0  0  0  0
  185.9640  177.9140  140.5240 C   0  0  0  0  0  0  0  0  0  0  0  0
  184.9120  178.6010  140.6180 O   0  0  0  0  0  1  0  0  0  0  0  0
  186.3200  177.3790  139.2910 O   0  0  0  0  0  0  0  0  0  0  0  0
  1 18  1  1  0  0  0
  2  5  1  0  0  0  0
  2  8  2  0  0  0  0
  4  3  2  0  0  0  0
  5  6  1  0  0  0  0
  6  3  1  0  0  0  0
  6  1  1  0  0  0  0
  7  5  2  0  0  0  0
  7  4  1  0  0  0  0
  8 10  1  0  0  0  0
 10  1  1  0  0  0  0
 10  9  1  1  0  0  0
 11  8  1  0  0  0  0
 12 11  1  0  0  0  0
 12 13  1  1  0  0  0
 14 12  1  0  0  0  0
 14 17  1  0  0  0  0
 15 14  1  0  0  0  0
 16 14  1  0  0  0  0
 19 26  1  0  0  0  0
 19 18  1  0  0  0  0
 19 20  1  1  0  0  0
 21 31  2  0  0  0  0
 22 30  2  0  0  0  0
 23 24  1  0  0  0  0
 24 25  2  0  0  0  0
 25 21  1  0  0  0  0
 27 28  2  0  0  0  0
 28 25  1  0  0  0  0
 28 22  1  0  0  0  0
 29 23  2  0  0  0  0
 29 27  1  0  0  0  0
 30 31  1  0  0  0  0
 30 26  1  0  0  0  0
 32 33  1  0  0  0  0
 32 23  1  0  0  0  0
 34 32  2  0  0  0  0
M  END
>  <MODEL>
2

>  <REMARK>
 VINA RESULT:      -8.0      3.447      8.023
  Name = 
  7 active torsions:
  status: ('A' for Active; 'I' for Inactive)
    1  A    between atoms: C_1  and  C_9
    2  A    between atoms: O_2  and  C_23
    3  A    between atoms: O_2  and  C_32
    4  A    between atoms: C_3  and  C_23
    5  A    between atoms: C_7  and  C_11
    6  A    between atoms: C_8  and  C_9
    7  A    between atoms: C_8  and  N_18
                            x       y       z     vdW  Elec       q    Type
                         _______ _______ _______ _____ _____    ______ ____

>  <TORSDO>
F 7

$$$$
=
 OpenBabel11052420303D

 34 37  0  0  1  0  0  0  0  0999 V2000
  194.5130  174.4640  143.8740 C   0  0  1  0  0  3  0  0  0  0  0  0
  192.2860  172.7950  143.0900 N   0  0  0  0  0  0  0  0  0  0  0  0
  194.9290  172.4490  145.3620 C   0  0  0  0  0  3  0  0  0  0  0  0
  194.2980  171.2180  145.4880 C   0  0  0  0  0  3  0  0  0  0  0  0
  193.2060  172.3880  144.0990 C   0  0  0  0  0  0  0  0  0  0  0  0
  194.2020  173.1780  144.5000 N   0  0  0  0  0  0  0  0  0  0  0  0
  193.2120  171.1790  144.6810 N   0  0  0  0  0  0  0  0  0  0  0  0
  192.3160  174.0110  142.6190 C   0  0  0  0  0  0  0  0  0  0  0  0
  193.6510  175.9490  142.1970 O   0  0  0  0  0  1  0  0  0  0  0  0
  193.2610  175.0540  143.1930 C   0  0  2  0  0  3  0  0  0  0  0  0
  191.4200  174.4010  141.6190 O   0  0  0  0  0  0  0  0  0  0  0  0
  190.1370  173.8020  141.4530 C   0  0  2  0  0  3  0  0  0  0  0  0
  189.8280  173.6410  139.9710 C   0  0  0  0  0  1  0  0  0  0  0  0
  189.0720  174.6510  142.1400 C   0  0  0  0  0  0  0  0  0  0  0  0
  187.8340  174.3590  141.6000 F   0  0  0  0  0  0  0  0  0  0  0  0
  189.3400  175.9930  141.9430 F   0  0  0  0  0  0  0  0  0  0  0  0
  189.0470  174.3850  143.4990 F   0  0  0  0  0  0  0  0  0  0  0  0
  195.0410  175.4640  144.8990 C   0  0  0  0  0  2  0  0  0  0  0  0
  193.9320  176.3770  145.3920 C   0  0  2  0  0  3  0  0  0  0  0  0
  194.5470  177.5820  146.0770 C   0  0  0  0  0  1  0  0  0  0  0  0
  189.5230  175.2720  147.3420 C   0  0  0  0  0  3  0  0  0  0  0  0
  191.0380  176.6520  145.4780 N   0  0  0  0  0  0  0  0  0  0  0  0
  186.9000  177.1550  145.5220 C   0  0  0  0  0  0  0  0  0  0  0  0
  187.5140  176.2950  146.4440 C   0  0  0  0  0  3  0  0  0  0  0  0
  188.9000  176.1260  146.4300 C   0  0  0  0  0  0  0  0  0  0  0  0
  193.0800  175.6590  146.3300 N   0  0  0  0  0  2  0  0  0  0  0  0
  189.0780  177.6760  144.5700 C   0  0  0  0  0  3  0  0  0  0  0  0
  189.6880  176.8190  145.4880 C   0  0  0  0  0  0  0  0  0  0  0  0
  187.6900  177.8420  144.5860 C   0  0  0  0  0  3  0  0  0  0  0  0
  191.6610  175.8230  146.3630 C   0  0  0  0  0  0  0  0  0  0  0  0
  190.9100  175.1190  147.3100 C   0  0  0  0  0  3  0  0  0  0  0  0
  185.4400  177.3320  145.5390 C   0  0  0  0  0  0  0  0  0  0  0  0
  184.7680  177.0000  146.5510 O   0  0  0  0  0  1  0  0  0  0  0  0
  184.7860  177.8660  144.4340 O   0  0  0  0  0  0  0  0  0  0  0  0
  1  6  1  0  0  0  0
  1 18  1  1  0  0  0
  2  5  1  0  0  0  0
  3  4  2  0  0  0  0
  5  6  1  0  0  0  0
  5  7  2  0  0  0  0
  6  3  1  0  0  0  0
  7  4  1  0  0  0  0
  8  2  2  0  0  0  0
  8 10  1  0  0  0  0
 10  9  1  6  0  0  0
 10  1  1  0  0  0  0
 11  8  1  0  0  0  0
 12 13  1  6  0  0  0
 12 11  1  0  0  0  0
 12 14  1  0  0  0  0
 14 17  1  0  0  0  0
 15 14  1  0  0  0  0
 16 14  1  0  0  0  0
 18 19  1  0  0  0  0
 19 20  1  1  0  0  0
 19 26  1  0  0  0  0
 22 28  1  0  0  0  0
 22 30  2  0  0  0  0
 23 32  1  0  0  0  0
 23 24  1  0  0  0  0
 25 24  2  0  0  0  0
 25 21  1  0  0  0  0
 26 30  1  0  0  0  0
 27 29  1  0  0  0  0
 27 28  2  0  0  0  0
 28 25  1  0  0  0  0
 29 23  2  0  0  0  0
 30 31  1  0  0  0  0
 31 21  2  0  0  0  0
 32 33  1  0  0  0  0
 34 32  2  0  0  0  0
M  END
>  <MODEL>
3

>  <REMARK>
 VINA RESULT:      -7.7      2.989      7.610
  Name = 
  7 active torsions:
  status: ('A' for Active; 'I' for Inactive)
    1  A    between atoms: C_1  and  C_9
    2  A    between atoms: O_2  and  C_23
    3  A    between atoms: O_2  and  C_32
    4  A    between atoms: C_3  and  C_23
    5  A    between atoms: C_7  and  C_11
    6  A    between atoms: C_8  and  C_9
    7  A    between atoms: C_8  and  N_18
                            x       y       z     vdW  Elec       q    Type
                         _______ _______ _______ _____ _____    ______ ____

>  <TORSDO>
F 7

$$$$
=
 OpenBabel11052420303D

 34 37  0  0  1  0  0  0  0  0999 V2000
  192.8360  175.0850  143.2400 C   0  0  1  0  0  3  0  0  0  0  0  0
  192.4990  174.2470  140.4920 N   0  0  0  0  0  0  0  0  0  0  0  0
  194.9220  176.1030  142.2110 C   0  0  0  0  0  3  0  0  0  0  0  0
  195.4020  176.1670  140.9080 C   0  0  0  0  0  3  0  0  0  0  0  0
  193.6420  174.9870  140.9140 C   0  0  0  0  0  0  0  0  0  0  0  0
  193.8250  175.3280  142.1890 N   0  0  0  0  0  0  0  0  0  0  0  0
  194.5840  175.4660  140.0870 N   0  0  0  0  0  0  0  0  0  0  0  0
  191.6610  173.7680  141.3700 C   0  0  0  0  0  0  0  0  0  0  0  0
  190.7150  174.0040  143.5540 O   0  0  0  0  0  1  0  0  0  0  0  0
  191.9220  173.9010  142.8620 C   0  0  2  0  0  3  0  0  0  0  0  0
  190.5340  173.0540  140.9510 O   0  0  0  0  0  0  0  0  0  0  0  0
  189.3350  173.6890  140.5140 C   0  0  2  0  0  3  0  0  0  0  0  0
  188.1740  173.2780  141.4090 C   0  0  0  0  0  1  0  0  0  0  0  0
  189.0530  173.3250  139.0590 C   0  0  0  0  0  0  0  0  0  0  0  0
  190.1870  172.7660  138.4980 F   0  0  0  0  0  0  0  0  0  0  0  0
  188.7170  174.4600  138.3460 F   0  0  0  0  0  0  0  0  0  0  0  0
  188.0150  172.4120  138.9830 F   0  0  0  0  0  0  0  0  0  0  0  0
  193.5100  174.7870  144.5760 C   0  0  0  0  0  2  0  0  0  0  0  0
  193.0810  175.7840  145.6380 C   0  0  2  0  0  3  0  0  0  0  0  0
  194.2910  176.1910  146.4560 C   0  0  0  0  0  1  0  0  0  0  0  0
  188.4500  175.2990  147.3040 C   0  0  0  0  0  3  0  0  0  0  0  0
  190.2570  176.4760  145.5660 N   0  0  0  0  0  0  0  0  0  0  0  0
  186.2400  177.5760  145.3870 C   0  0  0  0  0  0  0  0  0  0  0  0
  186.6670  176.6190  146.3200 C   0  0  0  0  0  3  0  0  0  0  0  0
  188.0120  176.2500  146.3810 C   0  0  0  0  0  0  0  0  0  0  0  0
  192.0790  175.1810  146.5060 N   0  0  0  0  0  2  0  0  0  0  0  0
  188.5240  177.7910  144.5740 C   0  0  0  0  0  3  0  0  0  0  0  0
  188.9480  176.8380  145.5030 C   0  0  0  0  0  0  0  0  0  0  0  0
  187.1760  178.1570  144.5160 C   0  0  0  0  0  3  0  0  0  0  0  0
  190.7000  175.5500  146.4630 C   0  0  0  0  0  0  0  0  0  0  0  0
  189.8000  174.9460  147.3470 C   0  0  0  0  0  3  0  0  0  0  0  0
  184.8220  177.9620  145.3250 C   0  0  0  0  0  0  0  0  0  0  0  0
  184.1400  178.0600  146.3790 O   0  0  0  0  0  1  0  0  0  0  0  0
  184.2210  178.2250  144.0990 O   0  0  0  0  0  0  0  0  0  0  0  0
  1 18  1  1  0  0  0
  2  5  1  0  0  0  0
  2  8  2  0  0  0  0
  4  3  2  0  0  0  0
  5  6  1  0  0  0  0
  6  3  1  0  0  0  0
  6  1  1  0  0  0  0
  7  4  1  0  0  0  0
  7  5  2  0  0  0  0
  8 10  1  0  0  0  0
 10  1  1  0  0  0  0
 10  9  1  1  0  0  0
 11  8  1  0  0  0  0
 12 11  1  0  0  0  0
 12 13  1  1  0  0  0
 14 12  1  0  0  0  0
 15 14  1  0  0  0  0
 16 14  1  0  0  0  0
 17 14  1  0  0  0  0
 18 19  1  0  0  0  0
 19 20  1  1  0  0  0
 19 26  1  0  0  0  0
 21 31  2  0  0  0  0
 22 30  2  0  0  0  0
 23 24  1  0  0  0  0
 24 25  2  0  0  0  0
 25 21  1  0  0  0  0
 27 28  2  0  0  0  0
 28 22  1  0  0  0  0
 28 25  1  0  0  0  0
 29 27  1  0  0  0  0
 29 23  2  0  0  0  0
 30 26  1  0  0  0  0
 30 31  1  0  0  0  0
 32 23  1  0  0  0  0
 32 33  1  0  0  0  0
 34 32  2  0  0  0  0
M  END
>  <MODEL>
4

>  <REMARK>
 VINA RESULT:      -7.5      3.208      7.790
  Name = 
  7 active torsions:
  status: ('A' for Active; 'I' for Inactive)
    1  A    between atoms: C_1  and  C_9
    2  A    between atoms: O_2  and  C_23
    3  A    between atoms: O_2  and  C_32
    4  A    between atoms: C_3  and  C_23
    5  A    between atoms: C_7  and  C_11
    6  A    between atoms: C_8  and  C_9
    7  A    between atoms: C_8  and  N_18
                            x       y       z     vdW  Elec       q    Type
                         _______ _______ _______ _____ _____    ______ ____

>  <TORSDO>
F 7

$$$$
=
 OpenBabel11052420303D

 34 37  0  0  1  0  0  0  0  0999 V2000
  187.5810  177.3530  145.2520 C   0  0  1  0  0  3  0  0  0  0  0  0
  185.3200  178.5820  143.9320 N   0  0  0  0  0  0  0  0  0  0  0  0
  186.0760  177.7690  147.2540 C   0  0  0  0  0  3  0  0  0  0  0  0
  184.7880  178.2750  147.3830 C   0  0  0  0  0  3  0  0  0  0  0  0
  185.3570  178.4100  145.3460 C   0  0  0  0  0  0  0  0  0  0  0  0
  186.4200  177.8920  145.9610 N   0  0  0  0  0  0  0  0  0  0  0  0
  184.3320  178.6730  146.1710 N   0  0  0  0  0  0  0  0  0  0  0  0
  186.3830  178.3570  143.2100 C   0  0  0  0  0  0  0  0  0  0  0  0
  188.4400  177.1530  143.0200 O   0  0  0  0  0  1  0  0  0  0  0  0
  187.7110  177.9970  143.8570 C   0  0  2  0  0  3  0  0  0  0  0  0
  186.3380  178.5140  141.8210 O   0  0  0  0  0  0  0  0  0  0  0  0
  185.7350  177.5580  140.9540 C   0  0  2  0  0  3  0  0  0  0  0  0
  186.6450  177.2900  139.7640 C   0  0  0  0  0  1  0  0  0  0  0  0
  184.3710  178.0620  140.4910 C   0  0  0  0  0  0  0  0  0  0  0  0
  183.9630  177.3340  139.3880 F   0  0  0  0  0  0  0  0  0  0  0  0
  184.4560  179.3960  140.1370 F   0  0  0  0  0  0  0  0  0  0  0  0
  183.4350  177.9160  141.5010 F   0  0  0  0  0  0  0  0  0  0  0  0
  188.8680  177.5930  146.0350 C   0  0  0  0  0  2  0  0  0  0  0  0
  189.7550  176.3610  146.0180 C   0  0  2  0  0  3  0  0  0  0  0  0
  189.2260  175.3530  147.0190 C   0  0  0  0  0  1  0  0  0  0  0  0
  194.6100  175.4500  146.2660 C   0  0  0  0  0  3  0  0  0  0  0  0
  192.0630  174.6650  145.5120 N   0  0  0  0  0  0  0  0  0  0  0  0
  195.2870  172.1310  144.7620 C   0  0  0  0  0  0  0  0  0  0  0  0
  195.4950  173.3680  145.3900 C   0  0  0  0  0  3  0  0  0  0  0  0
  194.4160  174.2170  145.6420 C   0  0  0  0  0  0  0  0  0  0  0  0
  191.1200  176.7300  146.3660 N   0  0  0  0  0  2  0  0  0  0  0  0
  192.9030  172.6040  144.6390 C   0  0  0  0  0  3  0  0  0  0  0  0
  193.1110  173.8350  145.2650 C   0  0  0  0  0  0  0  0  0  0  0  0
  193.9860  171.7570  144.3880 C   0  0  0  0  0  3  0  0  0  0  0  0
  192.2360  175.8720  146.1220 C   0  0  0  0  0  0  0  0  0  0  0  0
  193.5160  176.2830  146.5080 C   0  0  0  0  0  3  0  0  0  0  0  0
  196.4260  171.2380  144.4970 C   0  0  0  0  0  0  0  0  0  0  0  0
  197.5200  171.4040  145.0980 O   0  0  0  0  0  1  0  0  0  0  0  0
  196.3040  170.2010  143.5790 O   0  0  0  0  0  0  0  0  0  0  0  0
  1  6  1  0  0  0  0
  1 18  1  1  0  0  0
  2  5  1  0  0  0  0
  3  4  2  0  0  0  0
  5  6  1  0  0  0  0
  5  7  2  0  0  0  0
  6  3  1  0  0  0  0
  7  4  1  0  0  0  0
  8 10  1  0  0  0  0
  8  2  2  0  0  0  0
 10  9  1  6  0  0  0
 10  1  1  0  0  0  0
 11  8  1  0  0  0  0
 12 13  1  6  0  0  0
 12 11  1  0  0  0  0
 14 12  1  0  0  0  0
 14 17  1  0  0  0  0
 15 14  1  0  0  0  0
 16 14  1  0  0  0  0
 19 18  1  0  0  0  0
 19 26  1  0  0  0  0
 19 20  1  1  0  0  0
 21 31  2  0  0  0  0
 22 30  2  0  0  0  0
 23 24  1  0  0  0  0
 24 25  2  0  0  0  0
 25 21  1  0  0  0  0
 27 28  2  0  0  0  0
 28 22  1  0  0  0  0
 28 25  1  0  0  0  0
 29 27  1  0  0  0  0
 29 23  2  0  0  0  0
 30 26  1  0  0  0  0
 30 31  1  0  0  0  0
 32 23  1  0  0  0  0
 32 33  1  0  0  0  0
 34 32  2  0  0  0  0
M  END
>  <MODEL>
5

>  <REMARK>
 VINA RESULT:      -7.4      2.488      2.760
  Name = 
  7 active torsions:
  status: ('A' for Active; 'I' for Inactive)
    1  A    between atoms: C_1  and  C_9
    2  A    between atoms: O_2  and  C_23
    3  A    between atoms: O_2  and  C_32
    4  A    between atoms: C_3  and  C_23
    5  A    between atoms: C_7  and  C_11
    6  A    between atoms: C_8  and  C_9
    7  A    between atoms: C_8  and  N_18
                            x       y       z     vdW  Elec       q    Type
                         _______ _______ _______ _____ _____    ______ ____

>  <TORSDO>
F 7

$$$$
=
 OpenBabel11052420303D

 34 37  0  0  1  0  0  0  0  0999 V2000
  190.3360  177.1500  145.5510 C   0  0  1  0  0  3  0  0  0  0  0  0
  190.1340  177.4650  142.6830 N   0  0  0  0  0  0  0  0  0  0  0  0
  192.6730  176.4330  144.8650 C   0  0  0  0  0  3  0  0  0  0  0  0
  193.3290  176.3880  143.6410 C   0  0  0  0  0  3  0  0  0  0  0  0
  191.3220  176.9770  143.3000 C   0  0  0  0  0  0  0  0  0  0  0  0
  191.3990  176.7800  144.6160 N   0  0  0  0  0  0  0  0  0  0  0  0
  192.4740  176.7410  142.6530 N   0  0  0  0  0  0  0  0  0  0  0  0
  189.0400  177.6120  143.3790 C   0  0  0  0  0  0  0  0  0  0  0  0
  188.0930  178.0060  145.5380 O   0  0  0  0  0  1  0  0  0  0  0  0
  188.9700  177.1810  144.8350 C   0  0  2  0  0  3  0  0  0  0  0  0
  187.8810  178.1040  142.7720 O   0  0  0  0  0  0  0  0  0  0  0  0
  186.7910  177.2680  142.3910 C   0  0  2  0  0  3  0  0  0  0  0  0
  186.5820  177.3410  140.8850 C   0  0  0  0  0  1  0  0  0  0  0  0
  185.5280  177.6880  143.1360 C   0  0  0  0  0  0  0  0  0  0  0  0
  184.4340  177.5410  142.3020 F   0  0  0  0  0  0  0  0  0  0  0  0
  185.6230  179.0140  143.5160 F   0  0  0  0  0  0  0  0  0  0  0  0
  185.3470  176.9010  144.2610 F   0  0  0  0  0  0  0  0  0  0  0  0
  190.2630  176.1730  146.7210 C   0  0  0  0  0  2  0  0  0  0  0  0
  189.3600  174.9970  146.3950 C   0  0  2  0  0  3  0  0  0  0  0  0
  188.5600  174.6270  147.6290 C   0  0  0  0  0  1  0  0  0  0  0  0
  190.9170  171.7650  142.9910 C   0  0  0  0  0  3  0  0  0  0  0  0
  189.3870  173.9700  143.6740 N   0  0  0  0  0  0  0  0  0  0  0  0
  189.3150  172.5730  139.7480 C   0  0  0  0  0  0  0  0  0  0  0  0
  190.1080  171.9290  140.7090 C   0  0  0  0  0  3  0  0  0  0  0  0
  190.1320  172.3960  142.0250 C   0  0  0  0  0  0  0  0  0  0  0  0
  190.1630  173.8600  145.9690 N   0  0  0  0  0  2  0  0  0  0  0  0
  188.5710  174.1600  141.4350 C   0  0  0  0  0  3  0  0  0  0  0  0
  189.3600  173.5190  142.3920 C   0  0  0  0  0  0  0  0  0  0  0  0
  188.5490  173.6900  140.1190 C   0  0  0  0  0  3  0  0  0  0  0  0
  190.1470  173.3640  144.6290 C   0  0  0  0  0  0  0  0  0  0  0  0
  190.9260  172.2500  144.3000 C   0  0  0  0  0  3  0  0  0  0  0  0
  189.2910  172.0790  138.3620 C   0  0  0  0  0  0  0  0  0  0  0  0
  189.5280  170.8670  138.1120 O   0  0  0  0  0  1  0  0  0  0  0  0
  189.0060  172.9470  137.3140 O   0  0  0  0  0  0  0  0  0  0  0  0
  1 18  1  1  0  0  0
  2  5  1  0  0  0  0
  2  8  2  0  0  0  0
  4  3  2  0  0  0  0
  5  6  1  0  0  0  0
  6  3  1  0  0  0  0
  6  1  1  0  0  0  0
  7  5  2  0  0  0  0
  7  4  1  0  0  0  0
  8 10  1  0  0  0  0
 10  9  1  1  0  0  0
 10  1  1  0  0  0  0
 11  8  1  0  0  0  0
 12 13  1  6  0  0  0
 12 11  1  0  0  0  0
 12 14  1  0  0  0  0
 14 16  1  0  0  0  0
 14 17  1  0  0  0  0
 15 14  1  0  0  0  0
 19 18  1  0  0  0  0
 19 20  1  1  0  0  0
 21 31  2  0  0  0  0
 22 30  2  0  0  0  0
 23 29  2  0  0  0  0
 23 24  1  0  0  0  0
 24 25  2  0  0  0  0
 25 28  1  0  0  0  0
 25 21  1  0  0  0  0
 26 19  1  0  0  0  0
 27 28  2  0  0  0  0
 28 22  1  0  0  0  0
 29 27  1  0  0  0  0
 30 26  1  0  0  0  0
 31 30  1  0  0  0  0
 32 23  1  0  0  0  0
 33 32  1  0  0  0  0
 34 32  2  0  0  0  0
M  END
>  <MODEL>
6

>  <REMARK>
 VINA RESULT:      -7.4      3.699      5.595
  Name = 
  7 active torsions:
  status: ('A' for Active; 'I' for Inactive)
    1  A    between atoms: C_1  and  C_9
    2  A    between atoms: O_2  and  C_23
    3  A    between atoms: O_2  and  C_32
    4  A    between atoms: C_3  and  C_23
    5  A    between atoms: C_7  and  C_11
    6  A    between atoms: C_8  and  C_9
    7  A    between atoms: C_8  and  N_18
                            x       y       z     vdW  Elec       q    Type
                         _______ _______ _______ _____ _____    ______ ____

>  <TORSDO>
F 7

$$$$
=
 OpenBabel11052420303D

 34 37  0  0  1  0  0  0  0  0999 V2000
  191.0870  174.5590  145.1420 C   0  0  1  0  0  3  0  0  0  0  0  0
  192.1000  172.6390  143.2300 N   0  0  0  0  0  0  0  0  0  0  0  0
  193.5620  174.6500  145.6980 C   0  0  0  0  0  3  0  0  0  0  0  0
  194.6810  174.0410  145.1430 C   0  0  0  0  0  3  0  0  0  0  0  0
  192.9590  173.2930  144.1610 C   0  0  0  0  0  0  0  0  0  0  0  0
  192.4870  174.1380  145.0770 N   0  0  0  0  0  0  0  0  0  0  0  0
  194.2970  173.1880  144.1640 N   0  0  0  0  0  0  0  0  0  0  0  0
  190.8040  172.7510  143.3350 C   0  0  0  0  0  0  0  0  0  0  0  0
  188.9780  174.0950  144.0920 O   0  0  0  0  0  1  0  0  0  0  0  0
  190.1710  173.4970  144.4980 C   0  0  2  0  0  3  0  0  0  0  0  0
  189.9660  172.1180  142.4120 O   0  0  0  0  0  0  0  0  0  0  0  0
  189.7400  172.6240  141.0990 C   0  0  2  0  0  3  0  0  0  0  0  0
  190.6720  173.7960  140.8270 C   0  0  0  0  0  1  0  0  0  0  0  0
  188.2810  173.0440  140.9470 C   0  0  0  0  0  0  0  0  0  0  0  0
  187.8160  172.6450  139.7070 F   0  0  0  0  0  0  0  0  0  0  0  0
  188.1740  174.4200  141.0410 F   0  0  0  0  0  0  0  0  0  0  0  0
  187.5050  172.4560  141.9320 F   0  0  0  0  0  0  0  0  0  0  0  0
  190.6450  174.7900  146.5840 C   0  0  0  0  0  2  0  0  0  0  0  0
  190.3300  176.2550  146.8300 C   0  0  2  0  0  3  0  0  0  0  0  0
  191.2580  176.7900  147.9030 C   0  0  0  0  0  1  0  0  0  0  0  0
  185.5570  177.2290  145.9730 C   0  0  0  0  0  3  0  0  0  0  0  0
  188.1450  176.9320  145.0320 N   0  0  0  0  0  0  0  0  0  0  0  0
  185.1060  177.9350  142.3630 C   0  0  0  0  0  0  0  0  0  0  0  0
  184.8160  177.7510  143.7220 C   0  0  0  0  0  3  0  0  0  0  0  0
  185.8330  177.4150  144.6180 C   0  0  0  0  0  0  0  0  0  0  0  0
  188.9460  176.3980  147.2590 N   0  0  0  0  0  2  0  0  0  0  0  0
  187.4480  177.4420  142.8030 C   0  0  0  0  0  3  0  0  0  0  0  0
  187.1580  177.2590  144.1570 C   0  0  0  0  0  0  0  0  0  0  0  0
  186.4260  177.7780  141.9100 C   0  0  0  0  0  3  0  0  0  0  0  0
  187.8930  176.7480  146.3590 C   0  0  0  0  0  0  0  0  0  0  0  0
  186.5910  176.8930  146.8500 C   0  0  0  0  0  3  0  0  0  0  0  0
  184.0320  178.2890  141.4210 C   0  0  0  0  0  0  0  0  0  0  0  0
  184.3020  178.5940  140.2290 O   0  0  0  0  0  0  0  0  0  0  0  0
  182.7060  178.2910  141.8410 O   0  0  0  0  0  1  0  0  0  0  0  0
  1 18  1  1  0  0  0
  2  8  2  0  0  0  0
  2  5  1  0  0  0  0
  4  3  2  0  0  0  0
  5  7  2  0  0  0  0
  5  6  1  0  0  0  0
  6  1  1  0  0  0  0
  6  3  1  0  0  0  0
  7  4  1  0  0  0  0
  8 10  1  0  0  0  0
 10  9  1  6  0  0  0
 10  1  1  0  0  0  0
 11  8  1  0  0  0  0
 12 13  1  1  0  0  0
 12 11  1  0  0  0  0
 14 16  1  0  0  0  0
 14 12  1  0  0  0  0
 14 17  1  0  0  0  0
 15 14  1  0  0  0  0
 18 19  1  0  0  0  0
 19 26  1  0  0  0  0
 19 20  1  1  0  0  0
 21 31  2  0  0  0  0
 22 30  2  0  0  0  0
 23 24  1  0  0  0  0
 24 25  2  0  0  0  0
 25 21  1  0  0  0  0
 27 28  2  0  0  0  0
 28 25  1  0  0  0  0
 28 22  1  0  0  0  0
 29 23  2  0  0  0  0
 29 27  1  0  0  0  0
 30 31  1  0  0  0  0
 30 26  1  0  0  0  0
 32 34  1  0  0  0  0
 32 23  1  0  0  0  0
 33 32  2  0  0  0  0
M  END
>  <MODEL>
7

>  <REMARK>
 VINA RESULT:      -7.3      3.154      7.785
  Name = 
  7 active torsions:
  status: ('A' for Active; 'I' for Inactive)
    1  A    between atoms: C_1  and  C_9
    2  A    between atoms: O_2  and  C_23
    3  A    between atoms: O_2  and  C_32
    4  A    between atoms: C_3  and  C_23
    5  A    between atoms: C_7  and  C_11
    6  A    between atoms: C_8  and  C_9
    7  A    between atoms: C_8  and  N_18
                            x       y       z     vdW  Elec       q    Type
                         _______ _______ _______ _____ _____    ______ ____

>  <TORSDO>
F 7

$$$$
=
 OpenBabel11052420303D

 34 37  0  0  1  0  0  0  0  0999 V2000
  186.6900  177.6350  144.1450 C   0  0  1  0  0  3  0  0  0  0  0  0
  184.0150  178.6870  144.4710 N   0  0  0  0  0  0  0  0  0  0  0  0
  186.5110  177.6050  146.6780 C   0  0  0  0  0  3  0  0  0  0  0  0
  185.4810  177.9110  147.5590 C   0  0  0  0  0  3  0  0  0  0  0  0
  184.8310  178.3580  145.5920 C   0  0  0  0  0  0  0  0  0  0  0  0
  186.0830  177.9240  145.4450 N   0  0  0  0  0  0  0  0  0  0  0  0
  184.4150  178.3800  146.8680 N   0  0  0  0  0  0  0  0  0  0  0  0
  184.5180  178.6950  143.2670 C   0  0  0  0  0  0  0  0  0  0  0  0
  186.1920  177.8150  141.8040 O   0  0  0  0  0  1  0  0  0  0  0  0
  185.9990  178.4490  143.0310 C   0  0  2  0  0  3  0  0  0  0  0  0
  183.7100  179.0040  142.1690 O   0  0  0  0  0  0  0  0  0  0  0  0
  182.7210  178.1130  141.6600 C   0  0  2  0  0  3  0  0  0  0  0  0
  183.0410  177.7540  140.2150 C   0  0  0  0  0  1  0  0  0  0  0  0
  181.3390  178.7500  141.7680 C   0  0  0  0  0  0  0  0  0  0  0  0
  180.3710  177.7740  141.6190 F   0  0  0  0  0  0  0  0  0  0  0  0
  181.1770  179.6950  140.7710 F   0  0  0  0  0  0  0  0  0  0  0  0
  181.1840  179.3560  143.0030 F   0  0  0  0  0  0  0  0  0  0  0  0
  188.1810  177.9580  144.1470 C   0  0  0  0  0  2  0  0  0  0  0  0
  189.0110  176.7050  143.9350 C   0  0  2  0  0  3  0  0  0  0  0  0
  188.1070  175.5810  143.4690 C   0  0  0  0  0  1  0  0  0  0  0  0
  192.9290  175.1810  146.5410 C   0  0  0  0  0  3  0  0  0  0  0  0
  191.8090  175.9310  144.1220 N   0  0  0  0  0  0  0  0  0  0  0  0
  195.8220  174.8110  144.2530 C   0  0  0  0  0  0  0  0  0  0  0  0
  195.0510  174.8060  145.4250 C   0  0  0  0  0  3  0  0  0  0  0  0
  193.7070  175.1810  145.3820 C   0  0  0  0  0  0  0  0  0  0  0  0
  189.6640  176.3270  145.1810 N   0  0  0  0  0  2  0  0  0  0  0  0
  193.8850  175.5710  142.9920 C   0  0  0  0  0  3  0  0  0  0  0  0
  193.1180  175.5670  144.1590 C   0  0  0  0  0  0  0  0  0  0  0  0
  195.2310  175.1960  143.0390 C   0  0  0  0  0  3  0  0  0  0  0  0
  191.0360  175.9350  145.2440 C   0  0  0  0  0  0  0  0  0  0  0  0
  191.5870  175.5600  146.4740 C   0  0  0  0  0  3  0  0  0  0  0  0
  197.2380  174.4150  144.3020 C   0  0  0  0  0  0  0  0  0  0  0  0
  197.9280  174.3810  143.2490 O   0  0  0  0  0  0  0  0  0  0  0  0
  197.8290  174.0760  145.5140 O   0  0  0  0  0  1  0  0  0  0  0  0
  1 18  1  1  0  0  0
  1  6  1  0  0  0  0
  2  5  1  0  0  0  0
  3  4  2  0  0  0  0
  5  7  2  0  0  0  0
  6  5  1  0  0  0  0
  6  3  1  0  0  0  0
  7  4  1  0  0  0  0
  8  2  2  0  0  0  0
 10  9  1  6  0  0  0
 10  8  1  0  0  0  0
 10  1  1  0  0  0  0
 11  8  1  0  0  0  0
 12 13  1  6  0  0  0
 12 14  1  0  0  0  0
 12 11  1  0  0  0  0
 14 17  1  0  0  0  0
 15 14  1  0  0  0  0
 16 14  1  0  0  0  0
 19 20  1  1  0  0  0
 19 18  1  0  0  0  0
 19 26  1  0  0  0  0
 22 28  1  0  0  0  0
 22 30  2  0  0  0  0
 23 32  1  0  0  0  0
 23 24  1  0  0  0  0
 25 24  2  0  0  0  0
 25 21  1  0  0  0  0
 26 30  1  0  0  0  0
 27 29  1  0  0  0  0
 27 28  2  0  0  0  0
 28 25  1  0  0  0  0
 29 23  2  0  0  0  0
 30 31  1  0  0  0  0
 31 21  2  0  0  0  0
 32 34  1  0  0  0  0
 33 32  2  0  0  0  0
M  END
>  <MODEL>
8

>  <REMARK>
 VINA RESULT:      -7.2      2.594      3.160
  Name = 
  7 active torsions:
  status: ('A' for Active; 'I' for Inactive)
    1  A    between atoms: C_1  and  C_9
    2  A    between atoms: O_2  and  C_23
    3  A    between atoms: O_2  and  C_32
    4  A    between atoms: C_3  and  C_23
    5  A    between atoms: C_7  and  C_11
    6  A    between atoms: C_8  and  C_9
    7  A    between atoms: C_8  and  N_18
                            x       y       z     vdW  Elec       q    Type
                         _______ _______ _______ _____ _____    ______ ____

>  <TORSDO>
F 7

$$$$
=
 OpenBabel11052420303D

 34 37  0  0  1  0  0  0  0  0999 V2000
  194.4010  175.0170  144.9780 C   0  0  1  0  0  3  0  0  0  0  0  0
  196.1510  173.3690  143.3700 N   0  0  0  0  0  0  0  0  0  0  0  0
  195.9470  176.8010  144.0430 C   0  0  0  0  0  3  0  0  0  0  0  0
  197.0000  176.7620  143.1370 C   0  0  0  0  0  3  0  0  0  0  0  0
  196.3430  174.7770  143.4810 C   0  0  0  0  0  0  0  0  0  0  0  0
  195.5700  175.5300  144.2630 N   0  0  0  0  0  0  0  0  0  0  0  0
  197.2430  175.4800  142.7760 N   0  0  0  0  0  0  0  0  0  0  0  0
  195.2910  172.7570  144.1360 C   0  0  0  0  0  0  0  0  0  0  0  0
  193.2760  172.9410  145.4090 O   0  0  0  0  0  1  0  0  0  0  0  0
  194.5400  173.5020  145.2280 C   0  0  2  0  0  3  0  0  0  0  0  0
  195.0970  171.3770  144.0140 O   0  0  0  0  0  0  0  0  0  0  0  0
  196.0940  170.4220  144.3670 C   0  0  2  0  0  3  0  0  0  0  0  0
  195.9710  169.1920  143.4780 C   0  0  0  0  0  1  0  0  0  0  0  0
  195.9560  170.0440  145.8380 C   0  0  0  0  0  0  0  0  0  0  0  0
  196.7980  170.8360  146.5970 F   0  0  0  0  0  0  0  0  0  0  0  0
  196.3070  168.7190  146.0200 F   0  0  0  0  0  0  0  0  0  0  0  0
  194.6520  170.2340  146.2640 F   0  0  0  0  0  0  0  0  0  0  0  0
  194.2140  175.7280  146.3150 C   0  0  0  0  0  2  0  0  0  0  0  0
  192.8200  176.3170  146.4300 C   0  0  2  0  0  3  0  0  0  0  0  0
  191.9360  175.3560  147.2000 C   0  0  0  0  0  1  0  0  0  0  0  0
  189.0960  177.4190  143.3670 C   0  0  0  0  0  3  0  0  0  0  0  0
  190.0530  177.0710  145.9430 N   0  0  0  0  0  0  0  0  0  0  0  0
  186.0590  178.1200  145.3730 C   0  0  0  0  0  0  0  0  0  0  0  0
  186.9060  177.9460  144.2680 C   0  0  0  0  0  3  0  0  0  0  0  0
  188.2440  177.5940  144.4580 C   0  0  0  0  0  0  0  0  0  0  0  0
  192.2650  176.5400  145.1020 N   0  0  0  0  0  2  0  0  0  0  0  0
  187.9070  177.5860  146.8630 C   0  0  0  0  0  3  0  0  0  0  0  0
  188.7500  177.4130  145.7620 C   0  0  0  0  0  0  0  0  0  0  0  0
  186.5690  177.9390  146.6690 C   0  0  0  0  0  3  0  0  0  0  0  0
  190.8980  176.8940  144.8880 C   0  0  0  0  0  0  0  0  0  0  0  0
  190.4300  177.0670  143.5810 C   0  0  0  0  0  3  0  0  0  0  0  0
  184.6500  178.4900  145.1700 C   0  0  0  0  0  0  0  0  0  0  0  0
  183.8720  178.6060  146.1530 O   0  0  0  0  0  1  0  0  0  0  0  0
  184.1630  178.7170  143.8870 O   0  0  0  0  0  0  0  0  0  0  0  0
  1 10  1  0  0  0  0
  1 18  1  1  0  0  0
  2  5  1  0  0  0  0
  2  8  2  0  0  0  0
  3  6  1  0  0  0  0
  4  3  2  0  0  0  0
  5  6  1  0  0  0  0
  6  1  1  0  0  0  0
  7  4  1  0  0  0  0
  7  5  2  0  0  0  0
  8 10  1  0  0  0  0
 10  9  1  6  0  0  0
 11  8  1  0  0  0  0
 11 12  1  0  0  0  0
 12 13  1  6  0  0  0
 12 14  1  0  0  0  0
 14 16  1  0  0  0  0
 14 17  1  0  0  0  0
 14 15  1  0  0  0  0
 18 19  1  0  0  0  0
 19 20  1  1  0  0  0
 21 31  2  0  0  0  0
 21 25  1  0  0  0  0
 23 29  1  0  0  0  0
 24 25  1  0  0  0  0
 24 23  2  0  0  0  0
 25 28  2  0  0  0  0
 26 19  1  0  0  0  0
 28 22  1  0  0  0  0
 28 27  1  0  0  0  0
 29 27  2  0  0  0  0
 30 26  1  0  0  0  0
 30 22  2  0  0  0  0
 31 30  1  0  0  0  0
 32 23  1  0  0  0  0
 32 33  1  0  0  0  0
 34 32  2  0  0  0  0
M  END
>  <MODEL>
9

>  <REMARK>
 VINA RESULT:      -7.2      4.817      9.952
  Name = 
  7 active torsions:
  status: ('A' for Active; 'I' for Inactive)
    1  A    between atoms: C_1  and  C_9
    2  A    between atoms: O_2  and  C_23
    3  A    between atoms: O_2  and  C_32
    4  A    between atoms: C_3  and  C_23
    5  A    between atoms: C_7  and  C_11
    6  A    between atoms: C_8  and  C_9
    7  A    between atoms: C_8  and  N_18
                            x       y       z     vdW  Elec       q    Type
                         _______ _______ _______ _____ _____    ______ ____

>  <TORSDO>
F 7

$$$$
