=
 OpenBabel11052418383D

 34 35  0  0  1  0  0  0  0  0999 V2000
  195.3270  174.2290  145.0600 C   0  0  2  0  0  3  0  0  0  0  0  0
  193.0480  175.2640  144.6740 C   0  0  1  0  0  3  0  0  0  0  0  0
  194.1530  174.9820  145.7100 C   0  0  2  0  0  3  0  0  0  0  0  0
  192.7570  174.0540  143.7500 C   0  0  2  0  0  3  0  0  0  0  0  0
  194.8370  172.9840  144.4850 N   0  0  0  0  0  2  0  0  0  0  0  0
  194.0280  173.3230  143.3240 C   0  0  0  0  0  2  0  0  0  0  0  0
  194.5920  176.1960  146.2570 O   0  0  0  0  0  0  0  0  0  0  0  0
  195.1040  176.9170  145.1730 C   0  0  0  0  0  1  0  0  0  0  0  0
  196.8240  172.4460  145.9550 C   0  0  0  0  0  1  0  0  0  0  0  0
  196.4060  173.9010  146.0770 C   0  0  0  0  0  2  0  0  0  0  0  0
  192.5200  175.3890  141.7530 O   0  0  0  0  0  1  0  0  0  0  0  0
  191.9820  174.4470  142.5680 N   0  0  0  0  0  0  0  0  0  0  0  0
  188.9850  173.2450  140.6340 C   0  0  0  0  0  0  0  0  0  0  0  0
  188.1640  172.7840  141.6680 C   0  0  0  0  0  3  0  0  0  0  0  0
  190.6830  173.8990  142.2560 C   0  0  0  0  0  0  0  0  0  0  0  0
  188.5930  172.8870  142.9940 C   0  0  0  0  0  3  0  0  0  0  0  0
  190.2320  173.8050  140.9270 C   0  0  0  0  0  3  0  0  0  0  0  0
  189.8470  173.4410  143.2860 C   0  0  0  0  0  3  0  0  0  0  0  0
  188.5290  173.1520  139.2220 C   0  0  0  0  0  1  0  0  0  0  0  0
  191.7790  175.8220  145.3620 C   0  0  2  0  0  3  0  0  0  0  0  0
  192.0340  177.8100  144.0190 O   0  0  0  0  0  0  0  0  0  0  0  0
  191.2960  177.1500  144.8010 C   0  0  0  0  0  0  0  0  0  0  0  0
  189.9860  177.6600  145.0830 N   0  0  0  0  0  2  0  0  0  0  0  0
  188.9100  176.9010  145.6980 C   0  0  0  0  0  2  0  0  0  0  0  0
  187.9480  176.3950  144.6330 C   0  0  0  0  0  2  0  0  0  0  0  0
  187.1700  177.4970  144.0650 N   0  0  0  0  0  0  0  0  0  0  0  0
  185.3080  177.3230  145.5900 C   0  0  0  0  0  2  0  0  0  0  0  0
  186.0360  178.0580  144.7580 C   0  0  0  0  0  0  0  0  0  0  0  0
  185.6650  179.4940  144.5870 C   0  0  0  0  0  1  0  0  0  0  0  0
  187.5930  178.0450  142.7790 C   0  0  0  0  0  2  0  0  0  0  0  0
  187.3750  176.5040  140.8560 C   0  0  0  0  0  1  0  0  0  0  0  0
  188.3050  176.9910  141.9480 C   0  0  0  0  0  2  0  0  0  0  0  0
  191.9730  175.8850  146.8730 C   0  0  0  0  0  2  0  0  0  0  0  0
  191.0180  175.0910  147.5160 O   0  0  0  0  0  1  0  0  0  0  0  0
  1  3  1  0  0  0  0
  1 10  1  1  0  0  0
  2 20  1  1  0  0  0
  2  3  1  0  0  0  0
  3  7  1  6  0  0  0
  4 12  1  6  0  0  0
  4  2  1  0  0  0  0
  5  1  1  0  0  0  0
  6  4  1  0  0  0  0
  6  5  1  0  0  0  0
  8  7  1  0  0  0  0
  9 10  1  0  0  0  0
 11 12  1  0  0  0  0
 13 17  2  0  0  0  0
 13 14  1  0  0  0  0
 14 16  2  0  0  0  0
 15 12  1  0  0  0  0
 15 18  2  0  0  0  0
 16 18  1  0  0  0  0
 17 15  1  0  0  0  0
 19 13  1  0  0  0  0
 20 33  1  1  0  0  0
 21 22  2  0  0  0  0
 22 23  1  0  0  0  0
 22 20  1  0  0  0  0
 23 24  1  0  0  0  0
 25 24  1  0  0  0  0
 26 25  1  0  0  0  0
 26 28  1  0  0  0  0
 28 27  2  0  0  0  0
 29 28  1  0  0  0  0
 30 26  1  0  0  0  0
 31 32  1  0  0  0  0
 32 30  1  0  0  0  0
 33 34  1  0  0  0  0
M  END
>  <MODEL>
1

>  <REMARK>
 VINA RESULT:      -5.6      0.000      0.000
  Name = 
  13 active torsions:
  status: ('A' for Active; 'I' for Inactive)
    1  A    between atoms: C_1  and  C_19
    2  A    between atoms: O_2  and  C_15
    3  A    between atoms: C_3  and  N_13
    4  A    between atoms: C_3  and  C_17
    5  A    between atoms: C_4  and  C_31
    6  A    between atoms: C_10  and  C_31
    7  A    between atoms: C_12  and  N_28
    8  A    between atoms: N_13  and  C_14
    9  A    between atoms: N_13  and  C_33
   10  A    between atoms: C_17  and  N_29
   11  A    between atoms: C_18  and  C_31
   12  A    between atoms: C_21  and  N_28
   13  A    between atoms: C_22  and  C_33
                            x       y       z     vdW  Elec       q    Type
                         _______ _______ _______ _____ _____    ______ ____

>  <TORSDO>
F 13

$$$$
=
 OpenBabel11052418383D

 34 35  0  0  1  0  0  0  0  0999 V2000
  195.3330  174.2340  145.1100 C   0  0  2  0  0  3  0  0  0  0  0  0
  193.0580  175.3000  144.7880 C   0  0  1  0  0  3  0  0  0  0  0  0
  194.1760  174.9810  145.7980 C   0  0  2  0  0  3  0  0  0  0  0  0
  192.7410  174.1180  143.8360 C   0  0  2  0  0  3  0  0  0  0  0  0
  194.8230  173.0090  144.5090 N   0  0  0  0  0  2  0  0  0  0  0  0
  193.9980  173.3870  143.3710 C   0  0  0  0  0  2  0  0  0  0  0  0
  194.6350  176.1750  146.3690 O   0  0  0  0  0  0  0  0  0  0  0  0
  195.1100  176.9330  145.2930 C   0  0  0  0  0  1  0  0  0  0  0  0
  196.8440  172.4220  145.9170 C   0  0  0  0  0  1  0  0  0  0  0  0
  196.4250  173.8700  146.1000 C   0  0  0  0  0  2  0  0  0  0  0  0
  192.4550  175.5530  141.9180 O   0  0  0  0  0  1  0  0  0  0  0  0
  191.9520  174.5490  142.6780 N   0  0  0  0  0  0  0  0  0  0  0  0
  188.8740  173.5910  140.7340 C   0  0  0  0  0  0  0  0  0  0  0  0
  188.1970  172.8040  141.6720 C   0  0  0  0  0  3  0  0  0  0  0  0
  190.6710  173.9740  142.3340 C   0  0  0  0  0  0  0  0  0  0  0  0
  188.7480  172.6080  142.9410 C   0  0  0  0  0  3  0  0  0  0  0  0
  190.0990  174.1770  141.0670 C   0  0  0  0  0  3  0  0  0  0  0  0
  189.9800  173.1890  143.2700 C   0  0  0  0  0  3  0  0  0  0  0  0
  188.2860  173.8160  139.3870 C   0  0  0  0  0  1  0  0  0  0  0  0
  191.8060  175.8510  145.5100 C   0  0  2  0  0  3  0  0  0  0  0  0
  192.0700  177.8950  144.2570 O   0  0  0  0  0  0  0  0  0  0  0  0
  191.3150  177.1890  144.9800 C   0  0  0  0  0  0  0  0  0  0  0  0
  189.9820  177.6590  145.2240 N   0  0  0  0  0  2  0  0  0  0  0  0
  188.9000  176.8520  145.7630 C   0  0  0  0  0  2  0  0  0  0  0  0
  188.0740  176.2570  144.6300 C   0  0  0  0  0  2  0  0  0  0  0  0
  187.4970  177.3110  143.7950 N   0  0  0  0  0  0  0  0  0  0  0  0
  188.8760  178.0630  141.9630 C   0  0  0  0  0  2  0  0  0  0  0  0
  187.8000  177.4120  142.3880 C   0  0  0  0  0  0  0  0  0  0  0  0
  186.9310  176.7580  141.3660 C   0  0  0  0  0  1  0  0  0  0  0  0
  186.5680  178.2500  144.4180 C   0  0  0  0  0  2  0  0  0  0  0  0
  184.9450  177.4580  146.1090 C   0  0  0  0  0  1  0  0  0  0  0  0
  185.2070  177.6080  144.6240 C   0  0  0  0  0  2  0  0  0  0  0  0
  192.0310  175.8880  147.0180 C   0  0  0  0  0  2  0  0  0  0  0  0
  191.0600  175.1220  147.6700 O   0  0  0  0  0  1  0  0  0  0  0  0
  1  3  1  0  0  0  0
  1 10  1  1  0  0  0
  2 20  1  1  0  0  0
  2  3  1  0  0  0  0
  3  7  1  6  0  0  0
  4 12  1  6  0  0  0
  4  2  1  0  0  0  0
  5  1  1  0  0  0  0
  6  4  1  0  0  0  0
  6  5  1  0  0  0  0
  8  7  1  0  0  0  0
  9 10  1  0  0  0  0
 11 12  1  0  0  0  0
 13 17  2  0  0  0  0
 13 14  1  0  0  0  0
 14 16  2  0  0  0  0
 15 12  1  0  0  0  0
 15 18  2  0  0  0  0
 16 18  1  0  0  0  0
 17 15  1  0  0  0  0
 19 13  1  0  0  0  0
 20 33  1  1  0  0  0
 21 22  2  0  0  0  0
 22 23  1  0  0  0  0
 22 20  1  0  0  0  0
 23 24  1  0  0  0  0
 25 24  1  0  0  0  0
 26 30  1  0  0  0  0
 26 25  1  0  0  0  0
 27 28  2  0  0  0  0
 28 26  1  0  0  0  0
 29 28  1  0  0  0  0
 30 32  1  0  0  0  0
 32 31  1  0  0  0  0
 33 34  1  0  0  0  0
M  END
>  <MODEL>
2

>  <REMARK>
 VINA RESULT:      -5.6      0.442      1.815
  Name = 
  13 active torsions:
  status: ('A' for Active; 'I' for Inactive)
    1  A    between atoms: C_1  and  C_19
    2  A    between atoms: O_2  and  C_15
    3  A    between atoms: C_3  and  N_13
    4  A    between atoms: C_3  and  C_17
    5  A    between atoms: C_4  and  C_31
    6  A    between atoms: C_10  and  C_31
    7  A    between atoms: C_12  and  N_28
    8  A    between atoms: N_13  and  C_14
    9  A    between atoms: N_13  and  C_33
   10  A    between atoms: C_17  and  N_29
   11  A    between atoms: C_18  and  C_31
   12  A    between atoms: C_21  and  N_28
   13  A    between atoms: C_22  and  C_33
                            x       y       z     vdW  Elec       q    Type
                         _______ _______ _______ _____ _____    ______ ____

>  <TORSDO>
F 13

$$$$
=
 OpenBabel11052418383D

 34 35  0  0  1  0  0  0  0  0999 V2000
  194.4770  174.3710  144.7430 C   0  0  2  0  0  3  0  0  0  0  0  0
  192.0420  175.0540  144.8910 C   0  0  1  0  0  3  0  0  0  0  0  0
  193.4900  175.4350  145.2560 C   0  0  2  0  0  3  0  0  0  0  0  0
  191.7310  173.5530  145.1230 C   0  0  2  0  0  3  0  0  0  0  0  0
  194.1300  173.0790  145.3180 N   0  0  0  0  0  2  0  0  0  0  0  0
  192.8840  172.6440  144.7040 C   0  0  0  0  0  2  0  0  0  0  0  0
  193.7900  176.6870  144.7030 O   0  0  0  0  0  0  0  0  0  0  0  0
  194.5190  177.3550  145.6930 C   0  0  0  0  0  1  0  0  0  0  0  0
  196.4870  173.6090  146.0080 C   0  0  0  0  0  1  0  0  0  0  0  0
  195.9060  174.7070  145.1340 C   0  0  0  0  0  2  0  0  0  0  0  0
  189.6450  172.3400  145.1320 O   0  0  0  0  0  1  0  0  0  0  0  0
  190.4960  173.1440  144.4470 N   0  0  0  0  0  0  0  0  0  0  0  0
  190.6440  173.5440  140.7070 C   0  0  0  0  0  0  0  0  0  0  0  0
  189.4760  174.2750  140.4670 C   0  0  0  0  0  3  0  0  0  0  0  0
  190.1660  173.5370  143.0960 C   0  0  0  0  0  0  0  0  0  0  0  0
  188.6580  174.6460  141.5370 C   0  0  0  0  0  3  0  0  0  0  0  0
  190.9890  173.1840  142.0130 C   0  0  0  0  0  3  0  0  0  0  0  0
  189.0000  174.2780  142.8450 C   0  0  0  0  0  3  0  0  0  0  0  0
  191.5270  173.1580  139.5740 C   0  0  0  0  0  1  0  0  0  0  0  0
  191.0340  175.9980  145.5870 C   0  0  2  0  0  3  0  0  0  0  0  0
  191.3740  177.7040  143.9150 O   0  0  0  0  0  0  0  0  0  0  0  0
  190.5740  177.1650  144.7280 C   0  0  0  0  0  0  0  0  0  0  0  0
  189.2230  177.6450  144.7620 N   0  0  0  0  0  2  0  0  0  0  0  0
  188.1100  176.9580  145.3960 C   0  0  0  0  0  2  0  0  0  0  0  0
  186.9870  176.7400  144.3920 C   0  0  0  0  0  2  0  0  0  0  0  0
  185.7800  177.4650  144.7920 N   0  0  0  0  0  0  0  0  0  0  0  0
  185.6670  179.7370  143.9860 C   0  0  0  0  0  2  0  0  0  0  0  0
  185.2040  178.4930  143.9600 C   0  0  0  0  0  0  0  0  0  0  0  0
  184.0900  178.1830  143.0160 C   0  0  0  0  0  1  0  0  0  0  0  0
  185.1440  177.0960  146.0530 C   0  0  0  0  0  2  0  0  0  0  0  0
  185.7360  178.9260  147.6100 C   0  0  0  0  0  1  0  0  0  0  0  0
  184.6220  178.3260  146.7770 C   0  0  0  0  0  2  0  0  0  0  0  0
  191.5800  176.4670  146.9310 C   0  0  0  0  0  2  0  0  0  0  0  0
  190.9280  175.8030  147.9750 O   0  0  0  0  0  1  0  0  0  0  0  0
  1 10  1  1  0  0  0
  1  3  1  0  0  0  0
  1  5  1  0  0  0  0
  2  4  1  0  0  0  0
  2  3  1  0  0  0  0
  2 20  1  1  0  0  0
  3  7  1  6  0  0  0
  4 12  1  6  0  0  0
  6  4  1  0  0  0  0
  6  5  1  0  0  0  0
  7  8  1  0  0  0  0
 10  9  1  0  0  0  0
 12 11  1  0  0  0  0
 13 17  1  0  0  0  0
 14 13  2  0  0  0  0
 14 16  1  0  0  0  0
 15 12  1  0  0  0  0
 16 18  2  0  0  0  0
 17 15  2  0  0  0  0
 18 15  1  0  0  0  0
 19 13  1  0  0  0  0
 20 33  1  1  0  0  0
 21 22  2  0  0  0  0
 22 23  1  0  0  0  0
 22 20  1  0  0  0  0
 23 24  1  0  0  0  0
 25 26  1  0  0  0  0
 25 24  1  0  0  0  0
 26 30  1  0  0  0  0
 28 27  2  0  0  0  0
 28 26  1  0  0  0  0
 29 28  1  0  0  0  0
 30 32  1  0  0  0  0
 32 31  1  0  0  0  0
 33 34  1  0  0  0  0
M  END
>  <MODEL>
3

>  <REMARK>
 VINA RESULT:      -5.4      1.474      2.527
  Name = 
  13 active torsions:
  status: ('A' for Active; 'I' for Inactive)
    1  A    between atoms: C_1  and  C_19
    2  A    between atoms: O_2  and  C_15
    3  A    between atoms: C_3  and  N_13
    4  A    between atoms: C_3  and  C_17
    5  A    between atoms: C_4  and  C_31
    6  A    between atoms: C_10  and  C_31
    7  A    between atoms: C_12  and  N_28
    8  A    between atoms: N_13  and  C_14
    9  A    between atoms: N_13  and  C_33
   10  A    between atoms: C_17  and  N_29
   11  A    between atoms: C_18  and  C_31
   12  A    between atoms: C_21  and  N_28
   13  A    between atoms: C_22  and  C_33
                            x       y       z     vdW  Elec       q    Type
                         _______ _______ _______ _____ _____    ______ ____

>  <TORSDO>
F 13

$$$$
=
 OpenBabel11052418383D

 34 35  0  0  1  0  0  0  0  0999 V2000
  189.9430  173.7750  141.2580 C   0  0  2  0  0  3  0  0  0  0  0  0
  189.8560  175.5480  143.0660 C   0  0  1  0  0  3  0  0  0  0  0  0
  190.3470  174.1340  142.7000 C   0  0  2  0  0  3  0  0  0  0  0  0
  188.4090  175.8330  142.5870 C   0  0  2  0  0  3  0  0  0  0  0  0
  188.4950  173.8610  141.1310 N   0  0  0  0  0  2  0  0  0  0  0  0
  188.1300  175.2680  141.1970 C   0  0  0  0  0  2  0  0  0  0  0  0
  191.7390  174.0780  142.8470 O   0  0  0  0  0  0  0  0  0  0  0  0
  192.2400  174.9950  141.9160 C   0  0  0  0  0  1  0  0  0  0  0  0
  189.9670  171.3890  141.9820 C   0  0  0  0  0  1  0  0  0  0  0  0
  190.3790  172.3660  140.8960 C   0  0  0  0  0  2  0  0  0  0  0  0
  188.8150  178.0800  141.8090 O   0  0  0  0  0  1  0  0  0  0  0  0
  188.0980  177.2650  142.6210 N   0  0  0  0  0  0  0  0  0  0  0  0
  185.8640  177.8610  145.5920 C   0  0  0  0  0  0  0  0  0  0  0  0
  185.1580  178.9940  145.1760 C   0  0  0  0  0  3  0  0  0  0  0  0
  187.0920  177.8360  143.4870 C   0  0  0  0  0  0  0  0  0  0  0  0
  185.4090  179.5440  143.9160 C   0  0  0  0  0  3  0  0  0  0  0  0
  186.8190  177.2820  144.7510 C   0  0  0  0  0  3  0  0  0  0  0  0
  186.3720  178.9680  143.0770 C   0  0  0  0  0  3  0  0  0  0  0  0
  185.5930  177.2620  146.9260 C   0  0  0  0  0  1  0  0  0  0  0  0
  190.0640  175.8290  144.5730 C   0  0  2  0  0  3  0  0  0  0  0  0
  190.5350  178.1800  144.8390 O   0  0  0  0  0  0  0  0  0  0  0  0
  190.9850  177.0020  144.8690 C   0  0  0  0  0  0  0  0  0  0  0  0
  192.3550  176.8140  145.2480 N   0  0  0  0  0  2  0  0  0  0  0  0
  192.9480  175.5420  145.6280 C   0  0  0  0  0  2  0  0  0  0  0  0
  194.4250  175.7250  145.9440 C   0  0  0  0  0  2  0  0  0  0  0  0
  195.2600  175.1430  144.8920 N   0  0  0  0  0  0  0  0  0  0  0  0
  195.7240  172.8690  144.2310 C   0  0  0  0  0  2  0  0  0  0  0  0
  195.9280  173.8760  145.0710 C   0  0  0  0  0  0  0  0  0  0  0  0
  196.8960  173.6690  146.1870 C   0  0  0  0  0  1  0  0  0  0  0  0
  195.3770  175.8660  143.6300 C   0  0  0  0  0  2  0  0  0  0  0  0
  197.3710  175.8760  142.1640 C   0  0  0  0  0  1  0  0  0  0  0  0
  196.7810  176.4190  143.4500 C   0  0  0  0  0  2  0  0  0  0  0  0
  190.5100  174.5640  145.2960 C   0  0  0  0  0  2  0  0  0  0  0  0
  189.5700  174.2060  146.2680 O   0  0  0  0  0  1  0  0  0  0  0  0
  1 10  1  1  0  0  0
  1  3  1  0  0  0  0
  2 20  1  1  0  0  0
  3  7  1  6  0  0  0
  3  2  1  0  0  0  0
  4 12  1  6  0  0  0
  4  2  1  0  0  0  0
  5  6  1  0  0  0  0
  5  1  1  0  0  0  0
  6  4  1  0  0  0  0
  8  7  1  0  0  0  0
 10  9  1  0  0  0  0
 11 12  1  0  0  0  0
 12 15  1  0  0  0  0
 13 19  1  0  0  0  0
 14 13  1  0  0  0  0
 15 17  1  0  0  0  0
 16 14  2  0  0  0  0
 17 13  2  0  0  0  0
 18 15  2  0  0  0  0
 18 16  1  0  0  0  0
 20 22  1  0  0  0  0
 20 33  1  1  0  0  0
 21 22  2  0  0  0  0
 22 23  1  0  0  0  0
 23 24  1  0  0  0  0
 24 25  1  0  0  0  0
 26 28  1  0  0  0  0
 26 25  1  0  0  0  0
 27 28  2  0  0  0  0
 28 29  1  0  0  0  0
 30 26  1  0  0  0  0
 31 32  1  0  0  0  0
 32 30  1  0  0  0  0
 33 34  1  0  0  0  0
M  END
>  <MODEL>
4

>  <REMARK>
 VINA RESULT:      -5.4      1.877      6.849
  Name = 
  13 active torsions:
  status: ('A' for Active; 'I' for Inactive)
    1  A    between atoms: C_1  and  C_19
    2  A    between atoms: O_2  and  C_15
    3  A    between atoms: C_3  and  N_13
    4  A    between atoms: C_3  and  C_17
    5  A    between atoms: C_4  and  C_31
    6  A    between atoms: C_10  and  C_31
    7  A    between atoms: C_12  and  N_28
    8  A    between atoms: N_13  and  C_14
    9  A    between atoms: N_13  and  C_33
   10  A    between atoms: C_17  and  N_29
   11  A    between atoms: C_18  and  C_31
   12  A    between atoms: C_21  and  N_28
   13  A    between atoms: C_22  and  C_33
                            x       y       z     vdW  Elec       q    Type
                         _______ _______ _______ _____ _____    ______ ____

>  <TORSDO>
F 13

$$$$
=
 OpenBabel11052418383D

 34 35  0  0  1  0  0  0  0  0999 V2000
  194.4460  174.2140  144.5030 C   0  0  2  0  0  3  0  0  0  0  0  0
  192.0270  174.9070  144.7910 C   0  0  1  0  0  3  0  0  0  0  0  0
  193.4940  175.2690  145.0930 C   0  0  2  0  0  3  0  0  0  0  0  0
  191.7170  173.4020  144.9970 C   0  0  2  0  0  3  0  0  0  0  0  0
  194.1180  172.9090  145.0590 N   0  0  0  0  0  2  0  0  0  0  0  0
  192.8400  172.4980  144.4960 C   0  0  0  0  0  2  0  0  0  0  0  0
  193.7740  176.5350  144.5610 O   0  0  0  0  0  0  0  0  0  0  0  0
  194.5200  177.1870  145.5490 C   0  0  0  0  0  1  0  0  0  0  0  0
  196.4170  173.5790  145.8930 C   0  0  0  0  0  1  0  0  0  0  0  0
  195.8950  174.5300  144.8300 C   0  0  0  0  0  2  0  0  0  0  0  0
  189.6120  172.2270  145.0910 O   0  0  0  0  0  1  0  0  0  0  0  0
  190.4460  173.0200  144.3740 N   0  0  0  0  0  0  0  0  0  0  0  0
  190.3600  173.3360  140.6240 C   0  0  0  0  0  0  0  0  0  0  0  0
  189.2720  174.1980  140.4500 C   0  0  0  0  0  3  0  0  0  0  0  0
  190.0640  173.4270  143.0410 C   0  0  0  0  0  0  0  0  0  0  0  0
  188.5860  174.6830  141.5670 C   0  0  0  0  0  3  0  0  0  0  0  0
  190.7570  172.9590  141.9100 C   0  0  0  0  0  3  0  0  0  0  0  0
  188.9800  174.2970  142.8560 C   0  0  0  0  0  3  0  0  0  0  0  0
  191.1040  172.8280  139.4410 C   0  0  0  0  0  1  0  0  0  0  0  0
  191.0620  175.8380  145.5630 C   0  0  2  0  0  3  0  0  0  0  0  0
  191.0540  177.2850  143.6330 O   0  0  0  0  0  0  0  0  0  0  0  0
  190.5310  177.0040  144.7460 C   0  0  0  0  0  0  0  0  0  0  0  0
  189.3980  177.7750  145.1700 N   0  0  0  0  0  2  0  0  0  0  0  0
  188.4970  177.4060  146.2500 C   0  0  0  0  0  2  0  0  0  0  0  0
  187.4600  176.4100  145.7510 C   0  0  0  0  0  2  0  0  0  0  0  0
  186.4020  177.0870  145.0010 N   0  0  0  0  0  0  0  0  0  0  0  0
  185.7420  179.3900  145.2940 C   0  0  0  0  0  2  0  0  0  0  0  0
  185.5820  178.1100  145.6060 C   0  0  0  0  0  0  0  0  0  0  0  0
  184.5060  177.7560  146.5780 C   0  0  0  0  0  1  0  0  0  0  0  0
  186.2130  176.7260  143.5990 C   0  0  0  0  0  2  0  0  0  0  0  0
  186.0440  178.3290  141.7230 C   0  0  0  0  0  1  0  0  0  0  0  0
  186.9970  177.6570  142.6890 C   0  0  0  0  0  2  0  0  0  0  0  0
  191.6970  176.3050  146.8680 C   0  0  0  0  0  2  0  0  0  0  0  0
  191.1800  175.5770  147.9440 O   0  0  0  0  0  1  0  0  0  0  0  0
  1 10  1  1  0  0  0
  1  5  1  0  0  0  0
  1  3  1  0  0  0  0
  2  4  1  0  0  0  0
  2  3  1  0  0  0  0
  2 20  1  1  0  0  0
  3  7  1  6  0  0  0
  4 12  1  6  0  0  0
  6  4  1  0  0  0  0
  6  5  1  0  0  0  0
  7  8  1  0  0  0  0
 10  9  1  0  0  0  0
 12 11  1  0  0  0  0
 13 17  1  0  0  0  0
 14 13  2  0  0  0  0
 14 16  1  0  0  0  0
 15 12  1  0  0  0  0
 16 18  2  0  0  0  0
 17 15  2  0  0  0  0
 18 15  1  0  0  0  0
 19 13  1  0  0  0  0
 20 33  1  1  0  0  0
 21 22  2  0  0  0  0
 22 23  1  0  0  0  0
 22 20  1  0  0  0  0
 23 24  1  0  0  0  0
 25 24  1  0  0  0  0
 26 28  1  0  0  0  0
 26 25  1  0  0  0  0
 27 28  2  0  0  0  0
 28 29  1  0  0  0  0
 30 26  1  0  0  0  0
 31 32  1  0  0  0  0
 32 30  1  0  0  0  0
 33 34  1  0  0  0  0
M  END
>  <MODEL>
5

>  <REMARK>
 VINA RESULT:      -5.3      1.404      1.826
  Name = 
  13 active torsions:
  status: ('A' for Active; 'I' for Inactive)
    1  A    between atoms: C_1  and  C_19
    2  A    between atoms: O_2  and  C_15
    3  A    between atoms: C_3  and  N_13
    4  A    between atoms: C_3  and  C_17
    5  A    between atoms: C_4  and  C_31
    6  A    between atoms: C_10  and  C_31
    7  A    between atoms: C_12  and  N_28
    8  A    between atoms: N_13  and  C_14
    9  A    between atoms: N_13  and  C_33
   10  A    between atoms: C_17  and  N_29
   11  A    between atoms: C_18  and  C_31
   12  A    between atoms: C_21  and  N_28
   13  A    between atoms: C_22  and  C_33
                            x       y       z     vdW  Elec       q    Type
                         _______ _______ _______ _____ _____    ______ ____

>  <TORSDO>
F 13

$$$$
=
 OpenBabel11052418383D

 34 35  0  0  1  0  0  0  0  0999 V2000
  186.7010  177.1480  144.3680 C   0  0  2  0  0  3  0  0  0  0  0  0
  188.9070  175.9080  144.2530 C   0  0  1  0  0  3  0  0  0  0  0  0
  188.1950  177.1850  144.7370 C   0  0  2  0  0  3  0  0  0  0  0  0
  188.4870  175.4830  142.8220 C   0  0  2  0  0  3  0  0  0  0  0  0
  186.5690  177.0070  142.9250 N   0  0  0  0  0  2  0  0  0  0  0  0
  186.9910  175.6590  142.5730 C   0  0  0  0  0  2  0  0  0  0  0  0
  188.3540  177.3020  146.1250 O   0  0  0  0  0  0  0  0  0  0  0  0
  187.5560  176.2900  146.6680 C   0  0  0  0  0  1  0  0  0  0  0  0
  185.7550  179.3240  143.6000 C   0  0  0  0  0  1  0  0  0  0  0  0
  185.9930  178.4210  144.7980 C   0  0  0  0  0  2  0  0  0  0  0  0
  188.9420  173.2320  143.5640 O   0  0  0  0  0  1  0  0  0  0  0  0
  188.8880  174.1040  142.5260 N   0  0  0  0  0  0  0  0  0  0  0  0
  190.8740  173.3930  139.4080 C   0  0  0  0  0  0  0  0  0  0  0  0
  189.9270  172.7150  138.6330 C   0  0  0  0  0  3  0  0  0  0  0  0
  189.2430  173.6500  141.2010 C   0  0  0  0  0  0  0  0  0  0  0  0
  188.6380  172.5120  139.1340 C   0  0  0  0  0  3  0  0  0  0  0  0
  190.5320  173.8630  140.6790 C   0  0  0  0  0  3  0  0  0  0  0  0
  188.2990  172.9760  140.4120 C   0  0  0  0  0  3  0  0  0  0  0  0
  192.2430  173.6260  138.8760 C   0  0  0  0  0  1  0  0  0  0  0  0
  190.4390  176.0340  144.4240 C   0  0  2  0  0  3  0  0  0  0  0  0
  190.5690  175.0610  146.6280 O   0  0  0  0  0  0  0  0  0  0  0  0
  191.0330  175.0880  145.4550 C   0  0  0  0  0  0  0  0  0  0  0  0
  192.0790  174.1640  145.1230 N   0  0  0  0  0  2  0  0  0  0  0  0
  192.5120  173.8460  143.7730 C   0  0  0  0  0  2  0  0  0  0  0  0
  193.6390  174.7770  143.3490 C   0  0  0  0  0  2  0  0  0  0  0  0
  194.8530  174.5140  144.1220 N   0  0  0  0  0  0  0  0  0  0  0  0
  195.9190  172.5670  143.1760 C   0  0  0  0  0  2  0  0  0  0  0  0
  195.4070  173.1860  144.2330 C   0  0  0  0  0  0  0  0  0  0  0  0
  195.4530  172.4800  145.5470 C   0  0  0  0  0  1  0  0  0  0  0  0
  195.5190  175.6450  144.7610 C   0  0  0  0  0  2  0  0  0  0  0  0
  194.1930  176.7330  146.5450 C   0  0  0  0  0  1  0  0  0  0  0  0
  194.5270  176.7550  145.0680 C   0  0  0  0  0  2  0  0  0  0  0  0
  190.8300  177.4820  144.6950 C   0  0  0  0  0  2  0  0  0  0  0  0
  191.5350  178.0040  143.6060 O   0  0  0  0  0  1  0  0  0  0  0  0
  1  3  1  0  0  0  0
  1 10  1  6  0  0  0
  2 20  1  6  0  0  0
  2  3  1  0  0  0  0
  3  7  1  1  0  0  0
  4 12  1  1  0  0  0
  4  2  1  0  0  0  0
  5  1  1  0  0  0  0
  6  4  1  0  0  0  0
  6  5  1  0  0  0  0
  7  8  1  0  0  0  0
  9 10  1  0  0  0  0
 12 11  1  0  0  0  0
 13 17  1  0  0  0  0
 14 16  1  0  0  0  0
 14 13  2  0  0  0  0
 15 12  1  0  0  0  0
 16 18  2  0  0  0  0
 17 15  2  0  0  0  0
 18 15  1  0  0  0  0
 19 13  1  0  0  0  0
 20 33  1  1  0  0  0
 20 22  1  0  0  0  0
 22 21  2  0  0  0  0
 23 22  1  0  0  0  0
 24 23  1  0  0  0  0
 25 24  1  0  0  0  0
 25 26  1  0  0  0  0
 26 28  1  0  0  0  0
 26 30  1  0  0  0  0
 27 28  2  0  0  0  0
 28 29  1  0  0  0  0
 30 32  1  0  0  0  0
 32 31  1  0  0  0  0
 34 33  1  0  0  0  0
M  END
>  <MODEL>
6

>  <REMARK>
 VINA RESULT:      -5.3      1.791      6.872
  Name = 
  13 active torsions:
  status: ('A' for Active; 'I' for Inactive)
    1  A    between atoms: C_1  and  C_19
    2  A    between atoms: O_2  and  C_15
    3  A    between atoms: C_3  and  N_13
    4  A    between atoms: C_3  and  C_17
    5  A    between atoms: C_4  and  C_31
    6  A    between atoms: C_10  and  C_31
    7  A    between atoms: C_12  and  N_28
    8  A    between atoms: N_13  and  C_14
    9  A    between atoms: N_13  and  C_33
   10  A    between atoms: C_17  and  N_29
   11  A    between atoms: C_18  and  C_31
   12  A    between atoms: C_21  and  N_28
   13  A    between atoms: C_22  and  C_33
                            x       y       z     vdW  Elec       q    Type
                         _______ _______ _______ _____ _____    ______ ____

>  <TORSDO>
F 13

$$$$
=
 OpenBabel11052418383D

 34 35  0  0  1  0  0  0  0  0999 V2000
  193.8040  173.8160  144.9570 C   0  0  2  0  0  3  0  0  0  0  0  0
  191.3970  174.0250  144.1970 C   0  0  1  0  0  3  0  0  0  0  0  0
  192.8640  173.9080  143.7420 C   0  0  2  0  0  3  0  0  0  0  0  0
  191.2040  175.0040  145.3840 C   0  0  2  0  0  3  0  0  0  0  0  0
  193.6220  174.9940  145.7940 N   0  0  0  0  0  2  0  0  0  0  0  0
  192.3150  174.8880  146.4250 C   0  0  0  0  0  2  0  0  0  0  0  0
  193.0040  172.7770  142.9270 O   0  0  0  0  0  0  0  0  0  0  0  0
  192.7150  171.6910  143.7610 C   0  0  0  0  0  1  0  0  0  0  0  0
  195.9690  175.0500  144.8500 C   0  0  0  0  0  1  0  0  0  0  0  0
  195.2590  173.7460  144.5280 C   0  0  0  0  0  2  0  0  0  0  0  0
  189.4850  173.5630  146.2730 O   0  0  0  0  0  1  0  0  0  0  0  0
  189.8950  174.8310  146.0220 N   0  0  0  0  0  0  0  0  0  0  0  0
  186.8090  176.9180  146.5620 C   0  0  0  0  0  0  0  0  0  0  0  0
  187.3630  178.0880  147.0910 C   0  0  0  0  0  3  0  0  0  0  0  0
  189.0310  175.9370  146.3680 C   0  0  0  0  0  0  0  0  0  0  0  0
  188.7480  178.1890  147.2510 C   0  0  0  0  0  3  0  0  0  0  0  0
  187.6380  175.8540  146.1960 C   0  0  0  0  0  3  0  0  0  0  0  0
  189.5770  177.1180  146.8920 C   0  0  0  0  0  3  0  0  0  0  0  0
  185.3380  176.8090  146.3750 C   0  0  0  0  0  1  0  0  0  0  0  0
  190.4720  174.3370  142.9960 C   0  0  2  0  0  3  0  0  0  0  0  0
  189.4210  172.1900  143.3180 O   0  0  0  0  0  0  0  0  0  0  0  0
  189.3450  173.3370  142.7990 C   0  0  0  0  0  0  0  0  0  0  0  0
  188.1490  173.6730  142.0830 N   0  0  0  0  0  2  0  0  0  0  0  0
  187.7630  175.0190  141.6920 C   0  0  0  0  0  2  0  0  0  0  0  0
  186.8760  175.6430  142.7600 C   0  0  0  0  0  2  0  0  0  0  0  0
  186.7920  177.0940  142.5880 N   0  0  0  0  0  0  0  0  0  0  0  0
  185.8880  177.9040  140.5030 C   0  0  0  0  0  2  0  0  0  0  0  0
  185.7430  177.7030  141.8070 C   0  0  0  0  0  0  0  0  0  0  0  0
  184.4470  178.0970  142.4350 C   0  0  0  0  0  1  0  0  0  0  0  0
  187.7860  177.9240  143.2610 C   0  0  0  0  0  2  0  0  0  0  0  0
  190.2570  177.9700  143.3870 C   0  0  0  0  0  1  0  0  0  0  0  0
  189.0680  178.0010  142.4490 C   0  0  0  0  0  2  0  0  0  0  0  0
  191.2920  174.5230  141.7240 C   0  0  0  0  0  2  0  0  0  0  0  0
  190.8930  173.5980  140.7530 O   0  0  0  0  0  1  0  0  0  0  0  0
  1 10  1  6  0  0  0
  1  5  1  0  0  0  0
  2 20  1  6  0  0  0
  2  4  1  0  0  0  0
  3  7  1  6  0  0  0
  3  2  1  0  0  0  0
  3  1  1  0  0  0  0
  4 12  1  1  0  0  0
  4  6  1  0  0  0  0
  5  6  1  0  0  0  0
  7  8  1  0  0  0  0
 10  9  1  0  0  0  0
 12 11  1  0  0  0  0
 12 15  1  0  0  0  0
 13 14  1  0  0  0  0
 14 16  2  0  0  0  0
 15 18  2  0  0  0  0
 17 15  1  0  0  0  0
 17 13  2  0  0  0  0
 18 16  1  0  0  0  0
 19 13  1  0  0  0  0
 20 33  1  6  0  0  0
 22 20  1  0  0  0  0
 22 21  2  0  0  0  0
 23 22  1  0  0  0  0
 24 23  1  0  0  0  0
 24 25  1  0  0  0  0
 26 25  1  0  0  0  0
 26 30  1  0  0  0  0
 27 28  2  0  0  0  0
 28 29  1  0  0  0  0
 28 26  1  0  0  0  0
 32 30  1  0  0  0  0
 32 31  1  0  0  0  0
 34 33  1  0  0  0  0
M  END
>  <MODEL>
7

>  <REMARK>
 VINA RESULT:      -5.3      2.236      4.705
  Name = 
  13 active torsions:
  status: ('A' for Active; 'I' for Inactive)
    1  A    between atoms: C_1  and  C_19
    2  A    between atoms: O_2  and  C_15
    3  A    between atoms: C_3  and  N_13
    4  A    between atoms: C_3  and  C_17
    5  A    between atoms: C_4  and  C_31
    6  A    between atoms: C_10  and  C_31
    7  A    between atoms: C_12  and  N_28
    8  A    between atoms: N_13  and  C_14
    9  A    between atoms: N_13  and  C_33
   10  A    between atoms: C_17  and  N_29
   11  A    between atoms: C_18  and  C_31
   12  A    between atoms: C_21  and  N_28
   13  A    between atoms: C_22  and  C_33
                            x       y       z     vdW  Elec       q    Type
                         _______ _______ _______ _____ _____    ______ ____

>  <TORSDO>
F 13

$$$$
=
 OpenBabel11052418383D

 34 35  0  0  1  0  0  0  0  0999 V2000
  186.0570  177.4980  144.6680 C   0  0  2  0  0  3  0  0  0  0  0  0
  188.4220  176.7050  145.1070 C   0  0  1  0  0  3  0  0  0  0  0  0
  187.1700  177.3600  145.7210 C   0  0  2  0  0  3  0  0  0  0  0  0
  188.7700  177.2570  143.7010 C   0  0  2  0  0  3  0  0  0  0  0  0
  186.5510  178.2910  143.5510 N   0  0  0  0  0  2  0  0  0  0  0  0
  187.5310  177.4850  142.8380 C   0  0  0  0  0  2  0  0  0  0  0  0
  186.7290  176.5840  146.8020 O   0  0  0  0  0  0  0  0  0  0  0  0
  186.2320  177.5060  147.7300 C   0  0  0  0  0  1  0  0  0  0  0  0
  184.0390  178.8660  144.1420 C   0  0  0  0  0  1  0  0  0  0  0  0
  184.8300  178.1840  145.2440 C   0  0  0  0  0  2  0  0  0  0  0  0
  190.9330  176.9160  142.6890 O   0  0  0  0  0  1  0  0  0  0  0  0
  189.7210  176.3910  142.9980 N   0  0  0  0  0  0  0  0  0  0  0  0
  188.7530  173.4050  140.9200 C   0  0  0  0  0  0  0  0  0  0  0  0
  188.8740  172.3730  141.8580 C   0  0  0  0  0  3  0  0  0  0  0  0
  189.4170  175.0340  142.6070 C   0  0  0  0  0  0  0  0  0  0  0  0
  189.2550  172.6690  143.1690 C   0  0  0  0  0  3  0  0  0  0  0  0
  189.0160  174.7260  141.2950 C   0  0  0  0  0  3  0  0  0  0  0  0
  189.5270  173.9920  143.5410 C   0  0  0  0  0  3  0  0  0  0  0  0
  188.3340  173.1000  139.5270 C   0  0  0  0  0  1  0  0  0  0  0  0
  189.6120  176.7620  146.0940 C   0  0  2  0  0  3  0  0  0  0  0  0
  189.1450  174.6820  147.2240 O   0  0  0  0  0  0  0  0  0  0  0  0
  190.0120  175.4130  146.6710 C   0  0  0  0  0  0  0  0  0  0  0  0
  191.3470  174.9040  146.5550 N   0  0  0  0  0  2  0  0  0  0  0  0
  192.3790  175.4600  145.6950 C   0  0  0  0  0  2  0  0  0  0  0  0
  193.6930  175.5720  146.4560 C   0  0  0  0  0  2  0  0  0  0  0  0
  194.8300  175.2860  145.5810 N   0  0  0  0  0  0  0  0  0  0  0  0
  196.7980  173.9360  145.9420 C   0  0  0  0  0  2  0  0  0  0  0  0
  195.5130  174.0150  145.6190 C   0  0  0  0  0  0  0  0  0  0  0  0
  194.7870  172.7440  145.3300 C   0  0  0  0  0  1  0  0  0  0  0  0
  195.2430  176.3150  144.6320 C   0  0  0  0  0  2  0  0  0  0  0  0
  196.2840  176.3570  142.3880 C   0  0  0  0  0  1  0  0  0  0  0  0
  195.1300  175.8110  143.2030 C   0  0  0  0  0  2  0  0  0  0  0  0
  189.3510  177.7900  147.1890 C   0  0  0  0  0  2  0  0  0  0  0  0
  190.4240  177.8250  148.0850 O   0  0  0  0  0  1  0  0  0  0  0  0
  1 10  1  1  0  0  0
  1  3  1  0  0  0  0
  2  3  1  0  0  0  0
  2 20  1  1  0  0  0
  3  7  1  1  0  0  0
  4 12  1  6  0  0  0
  4  2  1  0  0  0  0
  5  1  1  0  0  0  0
  6  5  1  0  0  0  0
  6  4  1  0  0  0  0
  7  8  1  0  0  0  0
  9 10  1  0  0  0  0
 11 12  1  0  0  0  0
 13 17  2  0  0  0  0
 13 14  1  0  0  0  0
 14 16  2  0  0  0  0
 15 12  1  0  0  0  0
 15 18  2  0  0  0  0
 16 18  1  0  0  0  0
 17 15  1  0  0  0  0
 19 13  1  0  0  0  0
 20 22  1  0  0  0  0
 20 33  1  1  0  0  0
 22 21  2  0  0  0  0
 23 22  1  0  0  0  0
 24 25  1  0  0  0  0
 24 23  1  0  0  0  0
 26 28  1  0  0  0  0
 26 25  1  0  0  0  0
 28 27  2  0  0  0  0
 29 28  1  0  0  0  0
 30 26  1  0  0  0  0
 31 32  1  0  0  0  0
 32 30  1  0  0  0  0
 33 34  1  0  0  0  0
M  END
>  <MODEL>
8

>  <REMARK>
 VINA RESULT:      -5.3      1.829      6.978
  Name = 
  13 active torsions:
  status: ('A' for Active; 'I' for Inactive)
    1  A    between atoms: C_1  and  C_19
    2  A    between atoms: O_2  and  C_15
    3  A    between atoms: C_3  and  N_13
    4  A    between atoms: C_3  and  C_17
    5  A    between atoms: C_4  and  C_31
    6  A    between atoms: C_10  and  C_31
    7  A    between atoms: C_12  and  N_28
    8  A    between atoms: N_13  and  C_14
    9  A    between atoms: N_13  and  C_33
   10  A    between atoms: C_17  and  N_29
   11  A    between atoms: C_18  and  C_31
   12  A    between atoms: C_21  and  N_28
   13  A    between atoms: C_22  and  C_33
                            x       y       z     vdW  Elec       q    Type
                         _______ _______ _______ _____ _____    ______ ____

>  <TORSDO>
F 13

$$$$
=
 OpenBabel11052418383D

 34 35  0  0  1  0  0  0  0  0999 V2000
  192.6540  170.2700  141.9150 C   0  0  2  0  0  3  0  0  0  0  0  0
  191.2570  172.3770  142.0850 C   0  0  1  0  0  3  0  0  0  0  0  0
  192.2420  171.5760  141.2120 C   0  0  2  0  0  3  0  0  0  0  0  0
  191.6610  172.4130  143.5810 C   0  0  2  0  0  3  0  0  0  0  0  0
  193.2560  170.5890  143.2020 N   0  0  0  0  0  2  0  0  0  0  0  0
  192.1970  171.0720  144.0760 C   0  0  0  0  0  2  0  0  0  0  0  0
  191.6410  171.2990  139.9760 O   0  0  0  0  0  0  0  0  0  0  0  0
  190.6940  170.3060  140.2480 C   0  0  0  0  0  1  0  0  0  0  0  0
  194.8470  170.3690  140.7310 C   0  0  0  0  0  1  0  0  0  0  0  0
  193.6610  169.4900  141.0880 C   0  0  0  0  0  2  0  0  0  0  0  0
  189.3370  172.2930  144.2200 O   0  0  0  0  0  1  0  0  0  0  0  0
  190.5530  172.8570  144.4320 N   0  0  0  0  0  0  0  0  0  0  0  0
  192.0140  175.5810  146.5810 C   0  0  0  0  0  0  0  0  0  0  0  0
  190.9350  175.8700  147.4220 C   0  0  0  0  0  3  0  0  0  0  0  0
  190.6960  173.8690  145.4540 C   0  0  0  0  0  0  0  0  0  0  0  0
  189.7400  175.1560  147.2890 C   0  0  0  0  0  3  0  0  0  0  0  0
  191.8970  174.5830  145.6090 C   0  0  0  0  0  3  0  0  0  0  0  0
  189.6220  174.1610  146.3080 C   0  0  0  0  0  3  0  0  0  0  0  0
  193.2930  176.3260  146.7260 C   0  0  0  0  0  1  0  0  0  0  0  0
  191.0100  173.7820  141.4880 C   0  0  2  0  0  3  0  0  0  0  0  0
  189.4220  173.3180  139.7330 O   0  0  0  0  0  0  0  0  0  0  0  0
  189.6640  173.9430  140.8020 C   0  0  0  0  0  0  0  0  0  0  0  0
  188.6160  174.7450  141.3640 N   0  0  0  0  0  2  0  0  0  0  0  0
  188.6090  175.2760  142.7170 C   0  0  0  0  0  2  0  0  0  0  0  0
  188.0220  176.6800  142.7280 C   0  0  0  0  0  2  0  0  0  0  0  0
  188.1670  177.2980  144.0460 N   0  0  0  0  0  0  0  0  0  0  0  0
  186.2280  178.6520  144.5230 C   0  0  0  0  0  2  0  0  0  0  0  0
  187.0200  177.6400  144.8520 C   0  0  0  0  0  0  0  0  0  0  0  0
  186.6680  176.8420  146.0640 C   0  0  0  0  0  1  0  0  0  0  0  0
  189.5170  177.5340  144.5490 C   0  0  0  0  0  2  0  0  0  0  0  0
  191.6650  177.5160  143.3220 C   0  0  0  0  0  1  0  0  0  0  0  0
  190.3610  178.2620  143.5170 C   0  0  0  0  0  2  0  0  0  0  0  0
  192.1620  174.1850  140.5740 C   0  0  0  0  0  2  0  0  0  0  0  0
  193.0690  174.9930  141.2670 O   0  0  0  0  0  1  0  0  0  0  0  0
  1 10  1  6  0  0  0
  1  5  1  0  0  0  0
  2 20  1  6  0  0  0
  2  4  1  0  0  0  0
  3  7  1  6  0  0  0
  3  1  1  0  0  0  0
  3  2  1  0  0  0  0
  4  6  1  0  0  0  0
  4 12  1  1  0  0  0
  5  6  1  0  0  0  0
  7  8  1  0  0  0  0
  9 10  1  0  0  0  0
 11 12  1  0  0  0  0
 12 15  1  0  0  0  0
 13 19  1  0  0  0  0
 13 14  1  0  0  0  0
 15 17  1  0  0  0  0
 15 18  2  0  0  0  0
 16 14  2  0  0  0  0
 17 13  2  0  0  0  0
 18 16  1  0  0  0  0
 20 33  1  6  0  0  0
 21 22  2  0  0  0  0
 22 23  1  0  0  0  0
 22 20  1  0  0  0  0
 23 24  1  0  0  0  0
 24 25  1  0  0  0  0
 25 26  1  0  0  0  0
 26 30  1  0  0  0  0
 26 28  1  0  0  0  0
 27 28  2  0  0  0  0
 28 29  1  0  0  0  0
 31 32  1  0  0  0  0
 32 30  1  0  0  0  0
 33 34  1  0  0  0  0
M  END
>  <MODEL>
9

>  <REMARK>
 VINA RESULT:      -5.2      2.566      5.219
  Name = 
  13 active torsions:
  status: ('A' for Active; 'I' for Inactive)
    1  A    between atoms: C_1  and  C_19
    2  A    between atoms: O_2  and  C_15
    3  A    between atoms: C_3  and  N_13
    4  A    between atoms: C_3  and  C_17
    5  A    between atoms: C_4  and  C_31
    6  A    between atoms: C_10  and  C_31
    7  A    between atoms: C_12  and  N_28
    8  A    between atoms: N_13  and  C_14
    9  A    between atoms: N_13  and  C_33
   10  A    between atoms: C_17  and  N_29
   11  A    between atoms: C_18  and  C_31
   12  A    between atoms: C_21  and  N_28
   13  A    between atoms: C_22  and  C_33
                            x       y       z     vdW  Elec       q    Type
                         _______ _______ _______ _____ _____    ______ ____

>  <TORSDO>
F 13

$$$$
