=
 OpenBabel11052418593D

 34 40  0  0  1  0  0  0  0  0999 V2000
  191.5410  176.2930  146.3460 N   0  0  0  0  0  0  0  0  0  0  0  0
  192.6620  174.8350  144.8350 C   0  0  2  0  0  3  0  0  0  0  0  0
  190.2610  175.6390  144.4120 C   0  0  0  0  0  0  0  0  0  0  0  0
  188.8010  175.0640  142.4910 C   0  0  0  0  0  0  0  0  0  0  0  0
  192.8710  176.1780  146.9100 C   0  0  1  0  0  3  0  0  0  0  0  0
  193.6370  175.2550  145.9550 C   0  0  2  0  0  3  0  0  0  0  0  0
  191.1120  174.3660  142.3780 C   0  0  0  0  0  3  0  0  0  0  0  0
  191.3980  175.5610  145.1440 C   0  0  0  0  0  0  0  0  0  0  0  0
  190.8780  173.7800  141.1320 C   0  0  0  0  0  3  0  0  0  0  0  0
  188.5660  174.4730  141.2470 C   0  0  0  0  0  3  0  0  0  0  0  0
  193.9040  176.7500  145.9500 C   0  0  0  0  0  2  0  0  0  0  0  0
  189.1160  176.4210  144.9830 C   0  0  0  0  0  0  0  0  0  0  0  0
  190.4770  177.0490  146.9220 C   0  0  0  0  0  3  0  0  0  0  0  0
  192.4440  173.3360  144.9550 C   0  0  0  0  0  1  0  0  0  0  0  0
  187.7610  175.7370  143.1360 O   0  0  0  0  0  0  0  0  0  0  0  0
  187.9230  176.4460  144.3370 C   0  0  0  0  0  0  0  0  0  0  0  0
  189.5980  173.8260  140.5650 C   0  0  0  0  0  0  0  0  0  0  0  0
  190.0750  174.9980  143.0800 C   0  0  0  0  0  0  0  0  0  0  0  0
  189.3100  177.1120  146.2850 C   0  0  0  0  0  3  0  0  0  0  0  0
  185.3940  179.2170  144.8020 C   0  0  0  0  0  0  0  0  0  0  0  0
  184.5620  178.6920  145.7930 C   0  0  0  0  0  3  0  0  0  0  0  0
  186.7330  177.1850  144.8310 C   0  0  0  0  0  0  0  0  0  0  0  0
  184.8160  177.4200  146.3130 C   0  0  0  0  0  3  0  0  0  0  0  0
  186.4780  178.4710  144.3300 C   0  0  0  0  0  3  0  0  0  0  0  0
  185.8990  176.6740  145.8400 C   0  0  0  0  0  3  0  0  0  0  0  0
  185.1480  180.4840  144.2890 O   0  0  0  0  0  1  0  0  0  0  0  0
  189.3360  173.2330  139.2940 N   0  0  0  0  0  2  0  0  0  0  0  0
  189.3010  171.8410  139.1280 N   0  0  0  0  0  2  0  0  0  0  0  0
  189.7700  170.1290  137.4830 C   0  0  0  0  0  2  0  0  0  0  0  0
  191.1040  170.4220  138.1470 C   0  0  1  0  0  3  0  0  0  0  0  0
  190.0740  171.5420  137.9320 C   0  0  2  0  0  3  0  0  0  0  0  0
  191.9470  170.4560  140.5040 O   0  0  0  0  0  1  0  0  0  0  0  0
  191.1440  169.8600  139.5400 C   0  0  0  0  0  0  0  0  0  0  0  0
  190.4940  168.8200  139.8280 O   0  0  0  0  0  0  0  0  0  0  0  0
  1  5  1  0  0  0  0
  1 13  1  0  0  0  0
  2 14  1  1  0  0  0
  2  8  1  0  0  0  0
  2  6  1  0  0  0  0
  3 12  1  0  0  0  0
  3  8  2  0  0  0  0
  4 18  1  0  0  0  0
  4 15  1  0  0  0  0
  5 11  1  6  0  0  0
  6 11  1  6  0  0  0
  6  5  1  0  0  0  0
  7 18  2  0  0  0  0
  8  1  1  0  0  0  0
  9  7  1  0  0  0  0
 10  4  2  0  0  0  0
 12 19  1  0  0  0  0
 15 16  1  0  0  0  0
 16 22  1  0  0  0  0
 16 12  2  0  0  0  0
 17  9  2  0  0  0  0
 17 10  1  0  0  0  0
 18  3  1  0  0  0  0
 19 13  2  0  0  0  0
 20 21  1  0  0  0  0
 21 23  2  0  0  0  0
 22 25  2  0  0  0  0
 24 20  2  0  0  0  0
 24 22  1  0  0  0  0
 25 23  1  0  0  0  0
 26 20  1  0  0  0  0
 27 17  1  0  0  0  0
 28 27  1  0  0  0  0
 29 31  1  0  0  0  0
 29 30  1  0  0  0  0
 30 33  1  1  0  0  0
 31 30  1  0  0  0  0
 31 28  1  1  0  0  0
 33 34  2  0  0  0  0
 33 32  1  0  0  0  0
M  END
>  <MODEL>
1

>  <REMARK>
 VINA RESULT:      -8.2      0.000      0.000
  Name = 
  5 active torsions:
  status: ('A' for Active; 'I' for Inactive)
    1  A    between atoms: N_3  and  N_13
    2  A    between atoms: N_3  and  C_29
    3  A    between atoms: C_12  and  C_28
    4  A    between atoms: N_13  and  C_33
    5  A    between atoms: C_20  and  C_22
                            x       y       z     vdW  Elec       q    Type
                         _______ _______ _______ _____ _____    ______ ____

>  <TORSDO>
F 5

$$$$
=
 OpenBabel11052418593D

 34 40  0  0  1  0  0  0  0  0999 V2000
  190.7840  172.8200  140.7690 N   0  0  0  0  0  0  0  0  0  0  0  0
  188.5090  173.4230  140.4110 C   0  0  2  0  0  3  0  0  0  0  0  0
  190.0030  174.6970  142.0650 C   0  0  0  0  0  0  0  0  0  0  0  0
  189.3690  176.6330  143.4780 C   0  0  0  0  0  0  0  0  0  0  0  0
  190.3580  171.9240  139.7130 C   0  0  1  0  0  3  0  0  0  0  0  0
  188.8950  172.2890  139.4380 C   0  0  2  0  0  3  0  0  0  0  0  0
  187.7770  175.9040  141.8120 C   0  0  0  0  0  3  0  0  0  0  0  0
  189.7590  173.7090  141.1700 C   0  0  0  0  0  0  0  0  0  0  0  0
  186.8910  176.9050  142.2160 C   0  0  0  0  0  3  0  0  0  0  0  0
  188.4800  177.6310  143.8860 C   0  0  0  0  0  3  0  0  0  0  0  0
  189.9840  172.7130  138.4670 C   0  0  0  0  0  2  0  0  0  0  0  0
  191.3560  174.7320  142.7110 C   0  0  0  0  0  0  0  0  0  0  0  0
  192.0830  172.8220  141.3590 C   0  0  0  0  0  3  0  0  0  0  0  0
  187.4440  172.8800  141.3480 C   0  0  0  0  0  1  0  0  0  0  0  0
  190.6190  176.5390  144.0930 O   0  0  0  0  0  0  0  0  0  0  0  0
  191.6170  175.6380  143.6870 C   0  0  0  0  0  0  0  0  0  0  0  0
  187.2380  177.7690  143.2620 C   0  0  0  0  0  0  0  0  0  0  0  0
  189.0170  175.7450  142.4480 C   0  0  0  0  0  0  0  0  0  0  0  0
  192.3680  173.7260  142.2940 C   0  0  0  0  0  3  0  0  0  0  0  0
  195.2880  176.3070  144.2950 C   0  0  0  0  0  0  0  0  0  0  0  0
  195.4510  175.8700  145.6110 C   0  0  0  0  0  3  0  0  0  0  0  0
  192.9230  175.7420  144.3880 C   0  0  0  0  0  0  0  0  0  0  0  0
  194.3590  175.3580  146.3170 C   0  0  0  0  0  3  0  0  0  0  0  0
  194.0330  176.2360  143.6850 C   0  0  0  0  0  3  0  0  0  0  0  0
  193.1030  175.2890  145.7060 C   0  0  0  0  0  3  0  0  0  0  0  0
  196.3740  176.8100  143.5910 O   0  0  0  0  0  1  0  0  0  0  0  0
  186.3470  178.7970  143.6920 N   0  0  0  0  0  2  0  0  0  0  0  0
  185.9400  178.9030  145.0290 N   0  0  0  0  0  2  0  0  0  0  0  0
  184.0940  178.3330  146.4880 C   0  0  0  0  0  2  0  0  0  0  0  0
  184.9470  177.0800  146.4160 C   0  0  1  0  0  3  0  0  0  0  0  0
  184.8080  178.0030  145.1950 C   0  0  2  0  0  3  0  0  0  0  0  0
  187.3000  176.4100  146.9530 O   0  0  0  0  0  0  0  0  0  0  0  0
  186.2210  177.2520  147.1950 C   0  0  0  0  0  0  0  0  0  0  0  0
  186.3000  178.1200  148.1040 O   0  0  0  0  0  1  0  0  0  0  0  0
  1  8  1  0  0  0  0
  1 13  1  0  0  0  0
  2  8  1  0  0  0  0
  2 14  1  1  0  0  0
  3 18  1  0  0  0  0
  3 12  1  0  0  0  0
  4 10  1  0  0  0  0
  4 15  1  0  0  0  0
  5 11  1  6  0  0  0
  5  1  1  0  0  0  0
  6 11  1  6  0  0  0
  6  5  1  0  0  0  0
  6  2  1  0  0  0  0
  7  9  2  0  0  0  0
  7 18  1  0  0  0  0
  8  3  2  0  0  0  0
  9 17  1  0  0  0  0
 12 16  2  0  0  0  0
 13 19  2  0  0  0  0
 16 15  1  0  0  0  0
 16 22  1  0  0  0  0
 17 27  1  0  0  0  0
 17 10  2  0  0  0  0
 18  4  2  0  0  0  0
 19 12  1  0  0  0  0
 20 21  1  0  0  0  0
 21 23  2  0  0  0  0
 22 25  2  0  0  0  0
 24 20  2  0  0  0  0
 24 22  1  0  0  0  0
 25 23  1  0  0  0  0
 26 20  1  0  0  0  0
 27 28  1  0  0  0  0
 30 29  1  0  0  0  0
 30 33  1  1  0  0  0
 31 28  1  1  0  0  0
 31 30  1  0  0  0  0
 31 29  1  0  0  0  0
 32 33  2  0  0  0  0
 33 34  1  0  0  0  0
M  END
>  <MODEL>
2

>  <REMARK>
 VINA RESULT:      -8.1      2.886      8.129
  Name = 
  5 active torsions:
  status: ('A' for Active; 'I' for Inactive)
    1  A    between atoms: N_3  and  N_13
    2  A    between atoms: N_3  and  C_29
    3  A    between atoms: C_12  and  C_28
    4  A    between atoms: N_13  and  C_33
    5  A    between atoms: C_20  and  C_22
                            x       y       z     vdW  Elec       q    Type
                         _______ _______ _______ _____ _____    ______ ____

>  <TORSDO>
F 5

$$$$
=
 OpenBabel11052418593D

 34 40  0  0  1  0  0  0  0  0999 V2000
  191.4900  176.3340  146.3500 N   0  0  0  0  0  0  0  0  0  0  0  0
  192.6050  174.8840  144.8260 C   0  0  2  0  0  3  0  0  0  0  0  0
  190.1980  175.6790  144.4230 C   0  0  0  0  0  0  0  0  0  0  0  0
  188.7270  175.1030  142.5110 C   0  0  0  0  0  0  0  0  0  0  0  0
  192.8240  176.2220  146.9030 C   0  0  1  0  0  3  0  0  0  0  0  0
  193.5860  175.3050  145.9410 C   0  0  2  0  0  3  0  0  0  0  0  0
  191.0400  174.4140  142.3800 C   0  0  0  0  0  3  0  0  0  0  0  0
  191.3410  175.6040  145.1470 C   0  0  0  0  0  0  0  0  0  0  0  0
  190.7990  173.8310  141.1350 C   0  0  0  0  0  3  0  0  0  0  0  0
  188.4850  174.5140  141.2670 C   0  0  0  0  0  3  0  0  0  0  0  0
  193.8480  176.8010  145.9380 C   0  0  0  0  0  2  0  0  0  0  0  0
  189.0540  176.4560  145.0040 C   0  0  0  0  0  0  0  0  0  0  0  0
  190.4270  177.0850  146.9350 C   0  0  0  0  0  3  0  0  0  0  0  0
  192.3940  173.3840  144.9450 C   0  0  0  0  0  1  0  0  0  0  0  0
  187.6890  175.7710  143.1650 O   0  0  0  0  0  0  0  0  0  0  0  0
  187.8570  176.4780  144.3670 C   0  0  0  0  0  0  0  0  0  0  0  0
  189.5150  173.8730  140.5760 C   0  0  0  0  0  0  0  0  0  0  0  0
  190.0050  175.0410  143.0910 C   0  0  0  0  0  0  0  0  0  0  0  0
  189.2540  177.1450  146.3060 C   0  0  0  0  0  3  0  0  0  0  0  0
  185.3000  179.2240  144.8290 C   0  0  0  0  0  0  0  0  0  0  0  0
  184.4970  178.7080  145.8480 C   0  0  0  0  0  3  0  0  0  0  0  0
  186.6670  177.2110  144.8710 C   0  0  0  0  0  0  0  0  0  0  0  0
  184.7790  177.4510  146.3890 C   0  0  0  0  0  3  0  0  0  0  0  0
  186.3830  178.4830  144.3490 C   0  0  0  0  0  3  0  0  0  0  0  0
  185.8620  176.7100  145.9080 C   0  0  0  0  0  3  0  0  0  0  0  0
  185.0250  180.4760  144.2950 O   0  0  0  0  0  1  0  0  0  0  0  0
  189.2460  173.2820  139.3060 N   0  0  0  0  0  2  0  0  0  0  0  0
  189.6610  173.8890  138.1130 N   0  0  0  0  0  2  0  0  0  0  0  0
  191.2880  172.1140  137.8670 C   0  0  0  0  0  2  0  0  0  0  0  0
  191.5310  173.0430  136.6920 C   0  0  1  0  0  3  0  0  0  0  0  0
  190.1090  172.8200  137.2330 C   0  0  2  0  0  3  0  0  0  0  0  0
  192.0490  175.4740  136.3820 O   0  0  0  0  0  0  0  0  0  0  0  0
  192.1840  174.3190  137.1430 C   0  0  0  0  0  0  0  0  0  0  0  0
  192.8990  174.3370  138.1810 O   0  0  0  0  0  1  0  0  0  0  0  0
  1  5  1  0  0  0  0
  1 13  1  0  0  0  0
  2 14  1  1  0  0  0
  2  8  1  0  0  0  0
  2  6  1  0  0  0  0
  3 12  1  0  0  0  0
  3  8  2  0  0  0  0
  4 18  1  0  0  0  0
  4 15  1  0  0  0  0
  5 11  1  6  0  0  0
  6 11  1  6  0  0  0
  6  5  1  0  0  0  0
  7 18  2  0  0  0  0
  8  1  1  0  0  0  0
  9  7  1  0  0  0  0
 10  4  2  0  0  0  0
 12 19  1  0  0  0  0
 15 16  1  0  0  0  0
 16 22  1  0  0  0  0
 16 12  2  0  0  0  0
 17  9  2  0  0  0  0
 17 10  1  0  0  0  0
 18  3  1  0  0  0  0
 19 13  2  0  0  0  0
 20 21  1  0  0  0  0
 21 23  2  0  0  0  0
 22 25  2  0  0  0  0
 24 20  2  0  0  0  0
 24 22  1  0  0  0  0
 25 23  1  0  0  0  0
 26 20  1  0  0  0  0
 27 17  1  0  0  0  0
 28 27  1  0  0  0  0
 30 33  1  1  0  0  0
 30 31  1  0  0  0  0
 30 29  1  0  0  0  0
 31 29  1  0  0  0  0
 31 28  1  1  0  0  0
 32 33  2  0  0  0  0
 33 34  1  0  0  0  0
M  END
>  <MODEL>
3

>  <REMARK>
 VINA RESULT:      -8.1      1.611      1.963
  Name = 
  5 active torsions:
  status: ('A' for Active; 'I' for Inactive)
    1  A    between atoms: N_3  and  N_13
    2  A    between atoms: N_3  and  C_29
    3  A    between atoms: C_12  and  C_28
    4  A    between atoms: N_13  and  C_33
    5  A    between atoms: C_20  and  C_22
                            x       y       z     vdW  Elec       q    Type
                         _______ _______ _______ _____ _____    ______ ____

>  <TORSDO>
F 5

$$$$
=
 OpenBabel11052418593D

 34 40  0  0  1  0  0  0  0  0999 V2000
  185.8750  177.4090  144.0360 N   0  0  0  0  0  0  0  0  0  0  0  0
  186.9140  177.9170  146.1160 C   0  0  2  0  0  3  0  0  0  0  0  0
  188.0820  176.4870  144.3320 C   0  0  0  0  0  0  0  0  0  0  0  0
  190.3330  175.4570  144.4700 C   0  0  0  0  0  0  0  0  0  0  0  0
  184.9270  178.2960  144.6810 C   0  0  1  0  0  3  0  0  0  0  0  0
  185.5660  178.6620  146.0250 C   0  0  2  0  0  3  0  0  0  0  0  0
  189.7070  176.9980  146.2240 C   0  0  0  0  0  3  0  0  0  0  0  0
  187.0340  177.1950  144.8180 C   0  0  0  0  0  0  0  0  0  0  0  0
  190.9420  176.7980  146.8450 C   0  0  0  0  0  3  0  0  0  0  0  0
  191.5670  175.2530  145.0950 C   0  0  0  0  0  3  0  0  0  0  0  0
  185.5460  179.6700  144.8890 C   0  0  0  0  0  2  0  0  0  0  0  0
  187.9180  175.8300  142.9940 C   0  0  0  0  0  0  0  0  0  0  0  0
  185.6810  176.8030  142.7580 C   0  0  0  0  0  3  0  0  0  0  0  0
  186.8090  176.9190  147.2570 C   0  0  0  0  0  1  0  0  0  0  0  0
  190.0640  174.8100  143.2620 O   0  0  0  0  0  0  0  0  0  0  0  0
  188.8990  175.0270  142.5090 C   0  0  0  0  0  0  0  0  0  0  0  0
  191.8740  175.9170  146.2850 C   0  0  0  0  0  0  0  0  0  0  0  0
  189.3810  176.3180  145.0400 C   0  0  0  0  0  0  0  0  0  0  0  0
  186.6470  176.0390  142.2520 C   0  0  0  0  0  3  0  0  0  0  0  0
  189.4440  172.4180  139.8290 C   0  0  0  0  0  0  0  0  0  0  0  0
  188.8120  172.9940  138.7250 C   0  0  0  0  0  3  0  0  0  0  0  0
  188.8210  174.3290  141.2000 C   0  0  0  0  0  0  0  0  0  0  0  0
  188.1920  174.2410  138.8500 C   0  0  0  0  0  3  0  0  0  0  0  0
  189.4550  173.0850  141.0560 C   0  0  0  0  0  3  0  0  0  0  0  0
  188.2030  174.9070  140.0780 C   0  0  0  0  0  3  0  0  0  0  0  0
  190.0650  171.1820  139.7050 O   0  0  0  0  0  1  0  0  0  0  0  0
  193.1410  175.6960  146.9030 N   0  0  0  0  0  2  0  0  0  0  0  0
  194.3410  175.8620  146.1980 N   0  0  0  0  0  2  0  0  0  0  0  0
  196.2520  174.5410  145.5200 C   0  0  0  0  0  2  0  0  0  0  0  0
  195.3120  174.5230  144.3280 C   0  0  1  0  0  3  0  0  0  0  0  0
  194.7580  174.5380  145.7620 C   0  0  2  0  0  3  0  0  0  0  0  0
  194.1800  176.2540  142.9160 O   0  0  0  0  0  0  0  0  0  0  0  0
  195.3010  175.8560  143.6340 C   0  0  0  0  0  0  0  0  0  0  0  0
  196.3220  176.5940  143.6540 O   0  0  0  0  0  1  0  0  0  0  0  0
  1  5  1  0  0  0  0
  1  8  1  0  0  0  0
  2 14  1  1  0  0  0
  3  8  2  0  0  0  0
  3 18  1  0  0  0  0
  4 18  2  0  0  0  0
  4 10  1  0  0  0  0
  5 11  1  6  0  0  0
  5  6  1  0  0  0  0
  6 11  1  6  0  0  0
  6  2  1  0  0  0  0
  7  9  2  0  0  0  0
  8  2  1  0  0  0  0
 10 17  2  0  0  0  0
 12  3  1  0  0  0  0
 13  1  1  0  0  0  0
 15  4  1  0  0  0  0
 16 12  2  0  0  0  0
 16 15  1  0  0  0  0
 17  9  1  0  0  0  0
 17 27  1  0  0  0  0
 18  7  1  0  0  0  0
 19 13  2  0  0  0  0
 19 12  1  0  0  0  0
 20 24  1  0  0  0  0
 21 23  1  0  0  0  0
 21 20  2  0  0  0  0
 22 16  1  0  0  0  0
 23 25  2  0  0  0  0
 24 22  2  0  0  0  0
 25 22  1  0  0  0  0
 26 20  1  0  0  0  0
 28 27  1  0  0  0  0
 29 31  1  0  0  0  0
 30 33  1  6  0  0  0
 30 29  1  0  0  0  0
 30 31  1  0  0  0  0
 31 28  1  6  0  0  0
 32 33  2  0  0  0  0
 33 34  1  0  0  0  0
M  END
>  <MODEL>
4

>  <REMARK>
 VINA RESULT:      -7.7      2.786      7.304
  Name = 
  5 active torsions:
  status: ('A' for Active; 'I' for Inactive)
    1  A    between atoms: N_3  and  N_13
    2  A    between atoms: N_3  and  C_29
    3  A    between atoms: C_12  and  C_28
    4  A    between atoms: N_13  and  C_33
    5  A    between atoms: C_20  and  C_22
                            x       y       z     vdW  Elec       q    Type
                         _______ _______ _______ _____ _____    ______ ____

>  <TORSDO>
F 5

$$$$
=
 OpenBabel11052418593D

 34 40  0  0  1  0  0  0  0  0999 V2000
  190.7820  173.2290  140.5120 N   0  0  0  0  0  0  0  0  0  0  0  0
  188.5260  173.7510  141.0650 C   0  0  2  0  0  3  0  0  0  0  0  0
  190.4910  174.5150  142.5300 C   0  0  0  0  0  0  0  0  0  0  0  0
  190.3750  175.8290  144.6290 C   0  0  0  0  0  0  0  0  0  0  0  0
  190.0280  172.7000  139.3930 C   0  0  1  0  0  3  0  0  0  0  0  0
  188.5630  173.0290  139.7010 C   0  0  2  0  0  3  0  0  0  0  0  0
  188.3320  175.5750  143.3640 C   0  0  0  0  0  3  0  0  0  0  0  0
  189.9550  173.8610  141.4710 C   0  0  0  0  0  0  0  0  0  0  0  0
  187.6420  176.3210  144.3230 C   0  0  0  0  0  3  0  0  0  0  0  0
  189.6840  176.5720  145.5910 C   0  0  0  0  0  3  0  0  0  0  0  0
  189.3210  173.8260  138.6530 C   0  0  0  0  0  2  0  0  0  0  0  0
  191.9760  174.4340  142.7200 C   0  0  0  0  0  0  0  0  0  0  0  0
  192.1980  173.1310  140.6570 C   0  0  0  0  0  3  0  0  0  0  0  0
  187.7770  172.8540  142.0370 C   0  0  0  0  0  1  0  0  0  0  0  0
  191.7500  175.6300  144.7790 O   0  0  0  0  0  0  0  0  0  0  0  0
  192.5490  174.9860  143.8200 C   0  0  0  0  0  0  0  0  0  0  0  0
  188.3160  176.8160  145.4450 C   0  0  0  0  0  0  0  0  0  0  0  0
  189.7010  175.3050  143.5150 C   0  0  0  0  0  0  0  0  0  0  0  0
  192.7810  173.6960  141.7120 C   0  0  0  0  0  3  0  0  0  0  0  0
  196.2210  175.8730  143.6880 C   0  0  0  0  0  0  0  0  0  0  0  0
  196.7920  174.8790  144.4850 C   0  0  0  0  0  3  0  0  0  0  0  0
  194.0080  174.9480  144.0970 C   0  0  0  0  0  0  0  0  0  0  0  0
  195.9780  173.9120  145.0820 C   0  0  0  0  0  3  0  0  0  0  0  0
  194.8380  175.9030  143.4890 C   0  0  0  0  0  3  0  0  0  0  0  0
  194.5950  173.9420  144.8830 C   0  0  0  0  0  3  0  0  0  0  0  0
  197.0290  176.8310  143.0890 O   0  0  0  0  0  1  0  0  0  0  0  0
  187.6310  177.5800  146.4370 N   0  0  0  0  0  2  0  0  0  0  0  0
  186.7770  178.6350  146.0900 N   0  0  0  0  0  2  0  0  0  0  0  0
  184.8080  177.2770  146.4650 C   0  0  0  0  0  2  0  0  0  0  0  0
  184.2810  178.6570  146.1140 C   0  0  1  0  0  3  0  0  0  0  0  0
  185.5850  178.4970  146.9130 C   0  0  2  0  0  3  0  0  0  0  0  0
  184.4460  177.9070  143.7310 O   0  0  0  0  0  0  0  0  0  0  0  0
  184.4680  178.9470  144.6520 C   0  0  0  0  0  0  0  0  0  0  0  0
  184.6990  180.1220  144.2590 O   0  0  0  0  0  1  0  0  0  0  0  0
  1 13  1  0  0  0  0
  1  8  1  0  0  0  0
  2  8  1  0  0  0  0
  2 14  1  1  0  0  0
  3 12  1  0  0  0  0
  3 18  1  0  0  0  0
  4 15  1  0  0  0  0
  4 10  1  0  0  0  0
  5 11  1  6  0  0  0
  5  6  1  0  0  0  0
  5  1  1  0  0  0  0
  6 11  1  6  0  0  0
  6  2  1  0  0  0  0
  7 18  1  0  0  0  0
  7  9  2  0  0  0  0
  8  3  2  0  0  0  0
  9 17  1  0  0  0  0
 12 16  2  0  0  0  0
 13 19  2  0  0  0  0
 16 22  1  0  0  0  0
 16 15  1  0  0  0  0
 17 10  2  0  0  0  0
 17 27  1  0  0  0  0
 18  4  2  0  0  0  0
 19 12  1  0  0  0  0
 20 21  1  0  0  0  0
 21 23  2  0  0  0  0
 22 25  2  0  0  0  0
 24 20  2  0  0  0  0
 24 22  1  0  0  0  0
 25 23  1  0  0  0  0
 26 20  1  0  0  0  0
 28 27  1  0  0  0  0
 29 31  1  0  0  0  0
 30 33  1  6  0  0  0
 30 29  1  0  0  0  0
 30 31  1  0  0  0  0
 31 28  1  6  0  0  0
 32 33  2  0  0  0  0
 34 33  1  0  0  0  0
M  END
>  <MODEL>
5

>  <REMARK>
 VINA RESULT:      -7.7      2.643      8.658
  Name = 
  5 active torsions:
  status: ('A' for Active; 'I' for Inactive)
    1  A    between atoms: N_3  and  N_13
    2  A    between atoms: N_3  and  C_29
    3  A    between atoms: C_12  and  C_28
    4  A    between atoms: N_13  and  C_33
    5  A    between atoms: C_20  and  C_22
                            x       y       z     vdW  Elec       q    Type
                         _______ _______ _______ _____ _____    ______ ____

>  <TORSDO>
F 5

$$$$
=
 OpenBabel11052418593D

 34 40  0  0  1  0  0  0  0  0999 V2000
  194.0760  174.2890  143.7510 N   0  0  0  0  0  0  0  0  0  0  0  0
  193.7050  175.6530  145.6660 C   0  0  2  0  0  3  0  0  0  0  0  0
  191.7920  174.9790  144.0930 C   0  0  0  0  0  0  0  0  0  0  0  0
  189.3990  175.5990  144.2870 C   0  0  0  0  0  0  0  0  0  0  0  0
  195.3770  174.3400  144.3880 C   0  0  1  0  0  3  0  0  0  0  0  0
  195.1810  175.2000  145.6410 C   0  0  2  0  0  3  0  0  0  0  0  0
  190.8470  176.1640  146.1380 C   0  0  0  0  0  3  0  0  0  0  0  0
  193.0920  175.0060  144.4720 C   0  0  0  0  0  0  0  0  0  0  0  0
  189.7660  176.7380  146.8110 C   0  0  0  0  0  3  0  0  0  0  0  0
  188.3190  176.1790  144.9590 C   0  0  0  0  0  3  0  0  0  0  0  0
  195.3180  173.6920  145.7630 C   0  0  0  0  0  2  0  0  0  0  0  0
  191.4540  174.2730  142.8140 C   0  0  0  0  0  0  0  0  0  0  0  0
  193.7950  173.6050  142.5310 C   0  0  0  0  0  3  0  0  0  0  0  0
  193.6870  177.1640  145.5050 C   0  0  0  0  0  1  0  0  0  0  0  0
  189.1870  174.9980  143.0440 O   0  0  0  0  0  0  0  0  0  0  0  0
  190.1830  174.3030  142.3390 C   0  0  0  0  0  0  0  0  0  0  0  0
  188.4980  176.7540  146.2190 C   0  0  0  0  0  0  0  0  0  0  0  0
  190.6800  175.6040  144.8620 C   0  0  0  0  0  0  0  0  0  0  0  0
  192.5470  173.5960  142.0670 C   0  0  0  0  0  3  0  0  0  0  0  0
  188.5500  173.7760  138.9700 C   0  0  0  0  0  0  0  0  0  0  0  0
  188.8240  172.4310  138.7190 C   0  0  0  0  0  3  0  0  0  0  0  0
  189.7580  173.6410  141.0790 C   0  0  0  0  0  0  0  0  0  0  0  0
  189.5540  171.6830  139.6470 C   0  0  0  0  0  3  0  0  0  0  0  0
  189.0080  174.3760  140.1470 C   0  0  0  0  0  3  0  0  0  0  0  0
  190.0120  172.2830  140.8230 C   0  0  0  0  0  3  0  0  0  0  0  0
  187.8190  174.5190  138.0520 O   0  0  0  0  0  1  0  0  0  0  0  0
  187.3810  177.3370  146.8880 N   0  0  0  0  0  2  0  0  0  0  0  0
  186.1020  177.3400  146.3140 N   0  0  0  0  0  2  0  0  0  0  0  0
  184.0840  178.6640  146.1330 C   0  0  0  0  0  2  0  0  0  0  0  0
  185.1050  179.3720  145.2610 C   0  0  1  0  0  3  0  0  0  0  0  0
  185.5390  178.6600  146.5530 C   0  0  2  0  0  3  0  0  0  0  0  0
  186.5940  178.6910  143.3670 O   0  0  0  0  0  0  0  0  0  0  0  0
  185.3600  178.5980  143.9990 C   0  0  0  0  0  0  0  0  0  0  0  0
  184.4450  177.9050  143.4790 O   0  0  0  0  0  1  0  0  0  0  0  0
  1  5  1  0  0  0  0
  1  8  1  0  0  0  0
  2 14  1  6  0  0  0
  3  8  2  0  0  0  0
  3 18  1  0  0  0  0
  4 18  2  0  0  0  0
  4 10  1  0  0  0  0
  5  6  1  0  0  0  0
  5 11  1  1  0  0  0
  6  2  1  0  0  0  0
  6 11  1  1  0  0  0
  7  9  2  0  0  0  0
  8  2  1  0  0  0  0
 10 17  2  0  0  0  0
 12  3  1  0  0  0  0
 13  1  1  0  0  0  0
 15  4  1  0  0  0  0
 16 12  2  0  0  0  0
 16 15  1  0  0  0  0
 17  9  1  0  0  0  0
 17 27  1  0  0  0  0
 18  7  1  0  0  0  0
 19 13  2  0  0  0  0
 19 12  1  0  0  0  0
 20 24  1  0  0  0  0
 21 20  2  0  0  0  0
 21 23  1  0  0  0  0
 22 16  1  0  0  0  0
 23 25  2  0  0  0  0
 24 22  2  0  0  0  0
 25 22  1  0  0  0  0
 26 20  1  0  0  0  0
 28 27  1  0  0  0  0
 29 31  1  0  0  0  0
 30 33  1  6  0  0  0
 30 29  1  0  0  0  0
 30 31  1  0  0  0  0
 31 28  1  6  0  0  0
 32 33  2  0  0  0  0
 34 33  1  0  0  0  0
M  END
>  <MODEL>
6

>  <REMARK>
 VINA RESULT:      -7.5      2.706      7.361
  Name = 
  5 active torsions:
  status: ('A' for Active; 'I' for Inactive)
    1  A    between atoms: N_3  and  N_13
    2  A    between atoms: N_3  and  C_29
    3  A    between atoms: C_12  and  C_28
    4  A    between atoms: N_13  and  C_33
    5  A    between atoms: C_20  and  C_22
                            x       y       z     vdW  Elec       q    Type
                         _______ _______ _______ _____ _____    ______ ____

>  <TORSDO>
F 5

$$$$
=
 OpenBabel11052418593D

 34 40  0  0  1  0  0  0  0  0999 V2000
  185.8500  177.3790  144.1280 N   0  0  0  0  0  0  0  0  0  0  0  0
  186.9710  177.8760  146.1690 C   0  0  2  0  0  3  0  0  0  0  0  0
  188.0790  176.4810  144.3200 C   0  0  0  0  0  0  0  0  0  0  0  0
  190.3470  175.4790  144.3510 C   0  0  0  0  0  0  0  0  0  0  0  0
  184.9210  178.2460  144.8230 C   0  0  1  0  0  3  0  0  0  0  0  0
  185.6110  178.6060  146.1430 C   0  0  2  0  0  3  0  0  0  0  0  0
  189.7770  176.9920  146.1470 C   0  0  0  0  0  3  0  0  0  0  0  0
  187.0440  177.1710  144.8580 C   0  0  0  0  0  0  0  0  0  0  0  0
  191.0390  176.8000  146.7130 C   0  0  0  0  0  3  0  0  0  0  0  0
  191.6080  175.2830  144.9210 C   0  0  0  0  0  3  0  0  0  0  0  0
  185.5300  179.6260  145.0210 C   0  0  0  0  0  2  0  0  0  0  0  0
  187.8670  175.8380  142.9830 C   0  0  0  0  0  0  0  0  0  0  0  0
  185.6100  176.7840  142.8530 C   0  0  0  0  0  3  0  0  0  0  0  0
  186.9270  176.8640  147.3010 C   0  0  0  0  0  1  0  0  0  0  0  0
  190.0350  174.8410  143.1480 O   0  0  0  0  0  0  0  0  0  0  0  0
  188.8360  175.0520  142.4470 C   0  0  0  0  0  0  0  0  0  0  0  0
  191.9580  175.9370  146.1040 C   0  0  0  0  0  0  0  0  0  0  0  0
  189.4090  176.3210  144.9710 C   0  0  0  0  0  0  0  0  0  0  0  0
  186.5630  176.0380  142.2980 C   0  0  0  0  0  3  0  0  0  0  0  0
  188.0160  174.4620  138.8040 C   0  0  0  0  0  0  0  0  0  0  0  0
  188.3450  173.1140  138.6450 C   0  0  0  0  0  3  0  0  0  0  0  0
  188.7110  174.3680  141.1350 C   0  0  0  0  0  0  0  0  0  0  0  0
  188.8460  172.3860  139.7270 C   0  0  0  0  0  3  0  0  0  0  0  0
  188.1920  175.0830  140.0440 C   0  0  0  0  0  3  0  0  0  0  0  0
  189.0220  173.0080  140.9660 C   0  0  0  0  0  3  0  0  0  0  0  0
  187.5120  175.1850  137.7320 O   0  0  0  0  0  1  0  0  0  0  0  0
  193.2520  175.7260  146.6660 N   0  0  0  0  0  2  0  0  0  0  0  0
  194.1380  174.7800  146.1310 N   0  0  0  0  0  2  0  0  0  0  0  0
  195.2750  175.6340  144.1720 C   0  0  0  0  0  2  0  0  0  0  0  0
  196.2520  174.6630  144.8100 C   0  0  1  0  0  3  0  0  0  0  0  0
  195.3120  175.5120  145.6810 C   0  0  2  0  0  3  0  0  0  0  0  0
  196.1900  172.2590  145.5080 O   0  0  0  0  0  1  0  0  0  0  0  0
  195.8090  173.2420  144.6030 C   0  0  0  0  0  0  0  0  0  0  0  0
  195.1380  172.9250  143.5850 O   0  0  0  0  0  0  0  0  0  0  0  0
  1  5  1  0  0  0  0
  1  8  1  0  0  0  0
  2 14  1  1  0  0  0
  3  8  2  0  0  0  0
  3 18  1  0  0  0  0
  4 10  2  0  0  0  0
  4 18  1  0  0  0  0
  5 11  1  6  0  0  0
  5  6  1  0  0  0  0
  6 11  1  6  0  0  0
  6  2  1  0  0  0  0
  7  9  1  0  0  0  0
  8  2  1  0  0  0  0
 10 17  1  0  0  0  0
 12  3  1  0  0  0  0
 13  1  1  0  0  0  0
 15  4  1  0  0  0  0
 16 12  2  0  0  0  0
 16 15  1  0  0  0  0
 17 27  1  0  0  0  0
 17  9  2  0  0  0  0
 18  7  2  0  0  0  0
 19 13  2  0  0  0  0
 19 12  1  0  0  0  0
 20 24  1  0  0  0  0
 21 20  2  0  0  0  0
 21 23  1  0  0  0  0
 22 16  1  0  0  0  0
 23 25  2  0  0  0  0
 24 22  2  0  0  0  0
 25 22  1  0  0  0  0
 26 20  1  0  0  0  0
 28 27  1  0  0  0  0
 29 30  1  0  0  0  0
 29 31  1  0  0  0  0
 30 33  1  6  0  0  0
 30 31  1  0  0  0  0
 31 28  1  6  0  0  0
 33 32  1  0  0  0  0
 34 33  2  0  0  0  0
M  END
>  <MODEL>
7

>  <REMARK>
 VINA RESULT:      -7.5      3.142      6.961
  Name = 
  5 active torsions:
  status: ('A' for Active; 'I' for Inactive)
    1  A    between atoms: N_3  and  N_13
    2  A    between atoms: N_3  and  C_29
    3  A    between atoms: C_12  and  C_28
    4  A    between atoms: N_13  and  C_33
    5  A    between atoms: C_20  and  C_22
                            x       y       z     vdW  Elec       q    Type
                         _______ _______ _______ _____ _____    ______ ____

>  <TORSDO>
F 5

$$$$
=
 OpenBabel11052418593D

 34 40  0  0  1  0  0  0  0  0999 V2000
  188.6730  177.2530  146.3540 N   0  0  0  0  0  0  0  0  0  0  0  0
  186.9160  177.0600  144.7600 C   0  0  2  0  0  3  0  0  0  0  0  0
  189.2550  176.0950  144.3220 C   0  0  0  0  0  0  0  0  0  0  0  0
  190.0260  174.8870  142.2980 C   0  0  0  0  0  0  0  0  0  0  0  0
  187.5340  177.8350  147.0330 C   0  0  1  0  0  3  0  0  0  0  0  0
  186.3690  177.7190  146.0440 C   0  0  2  0  0  3  0  0  0  0  0  0
  187.6630  175.3660  142.4730 C   0  0  0  0  0  3  0  0  0  0  0  0
  188.3470  176.7740  145.0630 C   0  0  0  0  0  0  0  0  0  0  0  0
  187.4450  174.7560  141.2360 C   0  0  0  0  0  3  0  0  0  0  0  0
  189.8070  174.2810  141.0570 C   0  0  0  0  0  3  0  0  0  0  0  0
  186.4500  176.7880  147.2420 C   0  0  0  0  0  2  0  0  0  0  0  0
  190.6500  175.9820  144.8600 C   0  0  0  0  0  0  0  0  0  0  0  0
  189.9880  177.1650  146.9010 C   0  0  0  0  0  3  0  0  0  0  0  0
  186.8170  178.0850  143.6420 C   0  0  0  0  0  1  0  0  0  0  0  0
  191.3160  174.9060  142.8310 O   0  0  0  0  0  0  0  0  0  0  0  0
  191.6200  175.4000  144.1100 C   0  0  0  0  0  0  0  0  0  0  0  0
  188.5200  174.2170  140.5190 C   0  0  0  0  0  0  0  0  0  0  0  0
  188.9570  175.4550  143.0100 C   0  0  0  0  0  0  0  0  0  0  0  0
  190.9450  176.5670  146.1940 C   0  0  0  0  0  3  0  0  0  0  0  0
  195.3420  175.9930  144.4000 C   0  0  0  0  0  0  0  0  0  0  0  0
  195.7350  174.9710  145.2670 C   0  0  0  0  0  3  0  0  0  0  0  0
  193.0290  175.2520  144.5560 C   0  0  0  0  0  0  0  0  0  0  0  0
  194.7830  174.0810  145.7720 C   0  0  0  0  0  3  0  0  0  0  0  0
  193.9980  176.1280  144.0410 C   0  0  0  0  0  3  0  0  0  0  0  0
  193.4390  174.2170  145.4130 C   0  0  0  0  0  3  0  0  0  0  0  0
  196.2880  176.8730  143.8930 O   0  0  0  0  0  1  0  0  0  0  0  0
  188.3190  173.5910  139.2530 N   0  0  0  0  0  2  0  0  0  0  0  0
  188.7310  172.2720  139.0140 N   0  0  0  0  0  2  0  0  0  0  0  0
  189.6930  170.9600  137.2220 C   0  0  0  0  0  2  0  0  0  0  0  0
  190.8710  171.3980  138.0730 C   0  0  1  0  0  3  0  0  0  0  0  0
  189.6530  172.3180  137.8900 C   0  0  2  0  0  3  0  0  0  0  0  0
  191.5040  171.2140  140.4890 O   0  0  0  0  0  1  0  0  0  0  0  0
  190.9030  170.6450  139.3730 C   0  0  0  0  0  0  0  0  0  0  0  0
  190.4350  169.4770  139.4450 O   0  0  0  0  0  0  0  0  0  0  0  0
  1 13  1  0  0  0  0
  1  5  1  0  0  0  0
  2 14  1  6  0  0  0
  2  8  1  0  0  0  0
  2  6  1  0  0  0  0
  3 12  1  0  0  0  0
  3  8  2  0  0  0  0
  4 15  1  0  0  0  0
  4 18  1  0  0  0  0
  5 11  1  1  0  0  0
  6  5  1  0  0  0  0
  6 11  1  1  0  0  0
  7 18  2  0  0  0  0
  8  1  1  0  0  0  0
  9  7  1  0  0  0  0
 10  4  2  0  0  0  0
 12 19  1  0  0  0  0
 15 16  1  0  0  0  0
 16 22  1  0  0  0  0
 16 12  2  0  0  0  0
 17 10  1  0  0  0  0
 17  9  2  0  0  0  0
 18  3  1  0  0  0  0
 19 13  2  0  0  0  0
 20 21  1  0  0  0  0
 21 23  2  0  0  0  0
 22 25  2  0  0  0  0
 24 20  2  0  0  0  0
 24 22  1  0  0  0  0
 25 23  1  0  0  0  0
 26 20  1  0  0  0  0
 27 17  1  0  0  0  0
 28 27  1  0  0  0  0
 29 31  1  0  0  0  0
 29 30  1  0  0  0  0
 30 33  1  1  0  0  0
 31 30  1  0  0  0  0
 31 28  1  1  0  0  0
 33 34  2  0  0  0  0
 33 32  1  0  0  0  0
M  END
>  <MODEL>
8

>  <REMARK>
 VINA RESULT:      -7.3      2.001      5.422
  Name = 
  5 active torsions:
  status: ('A' for Active; 'I' for Inactive)
    1  A    between atoms: N_3  and  N_13
    2  A    between atoms: N_3  and  C_29
    3  A    between atoms: C_12  and  C_28
    4  A    between atoms: N_13  and  C_33
    5  A    between atoms: C_20  and  C_22
                            x       y       z     vdW  Elec       q    Type
                         _______ _______ _______ _____ _____    ______ ____

>  <TORSDO>
F 5

$$$$
=
 OpenBabel11052418593D

 34 40  0  0  1  0  0  0  0  0999 V2000
  193.4810  174.7890  144.2520 N   0  0  0  0  0  0  0  0  0  0  0  0
  192.2320  176.7380  144.8070 C   0  0  2  0  0  3  0  0  0  0  0  0
  191.2180  174.8270  143.4250 C   0  0  0  0  0  0  0  0  0  0  0  0
  188.9240  174.7010  142.4920 C   0  0  0  0  0  0  0  0  0  0  0  0
  194.3850  175.5420  145.0990 C   0  0  1  0  0  3  0  0  0  0  0  0
  193.6120  176.8050  145.4940 C   0  0  2  0  0  3  0  0  0  0  0  0
  189.4090  176.5200  144.0080 C   0  0  0  0  0  3  0  0  0  0  0  0
  192.2320  175.4320  144.0890 C   0  0  0  0  0  0  0  0  0  0  0  0
  188.1030  176.9940  143.8610 C   0  0  0  0  0  3  0  0  0  0  0  0
  187.6190  175.1800  142.3410 C   0  0  0  0  0  3  0  0  0  0  0  0
  193.8050  175.6820  146.4990 C   0  0  0  0  0  2  0  0  0  0  0  0
  191.5060  173.5140  142.7600 C   0  0  0  0  0  0  0  0  0  0  0  0
  193.7950  173.5410  143.6360 C   0  0  0  0  0  3  0  0  0  0  0  0
  192.1620  177.8800  143.8070 C   0  0  0  0  0  1  0  0  0  0  0  0
  189.3030  173.5300  141.8320 O   0  0  0  0  0  0  0  0  0  0  0  0
  190.5550  172.9170  141.9980 C   0  0  0  0  0  0  0  0  0  0  0  0
  187.2050  176.3280  143.0200 C   0  0  0  0  0  0  0  0  0  0  0  0
  189.8400  175.3800  143.3130 C   0  0  0  0  0  0  0  0  0  0  0  0
  192.8620  172.9240  142.9130 C   0  0  0  0  0  3  0  0  0  0  0  0
  191.0940  170.4310  139.2010 C   0  0  0  0  0  0  0  0  0  0  0  0
  191.0290  169.2110  139.8770 C   0  0  0  0  0  3  0  0  0  0  0  0
  190.7530  171.6230  141.2950 C   0  0  0  0  0  0  0  0  0  0  0  0
  190.8160  169.1900  141.2580 C   0  0  0  0  0  3  0  0  0  0  0  0
  190.9490  171.6300  139.9050 C   0  0  0  0  0  3  0  0  0  0  0  0
  190.6730  170.3890  141.9620 C   0  0  0  0  0  3  0  0  0  0  0  0
  191.2990  170.4540  137.8280 O   0  0  0  0  0  1  0  0  0  0  0  0
  185.8670  176.7960  142.8540 N   0  0  0  0  0  2  0  0  0  0  0  0
  185.0850  177.1830  143.9500 N   0  0  0  0  0  2  0  0  0  0  0  0
  185.5680  179.5530  143.8680 C   0  0  0  0  0  2  0  0  0  0  0  0
  184.4150  179.4140  144.8460 C   0  0  1  0  0  3  0  0  0  0  0  0
  184.5230  178.4850  143.6260 C   0  0  2  0  0  3  0  0  0  0  0  0
  186.2250  178.8610  146.4860 O   0  0  0  0  0  0  0  0  0  0  0  0
  184.8800  178.8110  146.1410 C   0  0  0  0  0  0  0  0  0  0  0  0
  184.0670  178.2120  146.8940 O   0  0  0  0  0  1  0  0  0  0  0  0
  1  5  1  0  0  0  0
  2 14  1  6  0  0  0
  2  6  1  0  0  0  0
  3  8  2  0  0  0  0
  4 18  1  0  0  0  0
  5  6  1  0  0  0  0
  5 11  1  1  0  0  0
  6 11  1  1  0  0  0
  8  1  1  0  0  0  0
  8  2  1  0  0  0  0
  9  7  1  0  0  0  0
 10  4  2  0  0  0  0
 10 17  1  0  0  0  0
 12 19  1  0  0  0  0
 12  3  1  0  0  0  0
 13  1  1  0  0  0  0
 15 16  1  0  0  0  0
 15  4  1  0  0  0  0
 16 12  2  0  0  0  0
 17  9  2  0  0  0  0
 18  3  1  0  0  0  0
 18  7  2  0  0  0  0
 19 13  2  0  0  0  0
 20 21  2  0  0  0  0
 20 24  1  0  0  0  0
 21 23  1  0  0  0  0
 22 25  1  0  0  0  0
 22 16  1  0  0  0  0
 23 25  2  0  0  0  0
 24 22  2  0  0  0  0
 26 20  1  0  0  0  0
 27 17  1  0  0  0  0
 27 28  1  0  0  0  0
 29 30  1  0  0  0  0
 30 33  1  1  0  0  0
 31 29  1  0  0  0  0
 31 28  1  1  0  0  0
 31 30  1  0  0  0  0
 33 32  2  0  0  0  0
 33 34  1  0  0  0  0
M  END
>  <MODEL>
9

>  <REMARK>
 VINA RESULT:      -7.3      2.357      7.848
  Name = 
  5 active torsions:
  status: ('A' for Active; 'I' for Inactive)
    1  A    between atoms: N_3  and  N_13
    2  A    between atoms: N_3  and  C_29
    3  A    between atoms: C_12  and  C_28
    4  A    between atoms: N_13  and  C_33
    5  A    between atoms: C_20  and  C_22
                            x       y       z     vdW  Elec       q    Type
                         _______ _______ _______ _____ _____    ______ ____

>  <TORSDO>
F 5

$$$$
