=
 OpenBabel11052420403D

 43 49  0  0  1  0  0  0  0  0999 V2000
  186.9870  176.1550  138.4370 C   0  0  0  0  0  0  0  0  0  0  0  0
  188.1100  176.6260  143.3560 C   0  0  0  0  0  0  0  0  0  0  0  0
  189.6110  174.3550  144.0670 C   0  0  0  0  0  0  0  0  0  0  0  0
  187.1670  176.9380  140.7240 C   0  0  0  0  0  0  0  0  0  0  0  0
  187.7200  175.0110  138.7640 C   0  0  0  0  0  3  0  0  0  0  0  0
  186.4170  176.3850  136.7970 Cl  0  0  0  0  0  0  0  0  0  0  0  0
  187.9150  175.7840  141.0650 C   0  0  0  0  0  0  0  0  0  0  0  0
  186.7100  177.1150  139.4160 C   0  0  0  0  0  3  0  0  0  0  0  0
  188.1820  174.8250  140.0700 C   0  0  0  0  0  3  0  0  0  0  0  0
  189.1230  174.4940  142.7620 C   0  0  0  0  0  3  0  0  0  0  0  0
  188.3840  175.6250  142.3870 C   0  0  0  0  0  0  0  0  0  0  0  0
  187.3600  177.7540  142.9950 C   0  0  0  0  0  3  0  0  0  0  0  0
  188.5930  176.4860  144.6720 C   0  0  0  0  0  0  0  0  0  0  0  0
  189.3400  175.3490  145.0120 C   0  0  0  0  0  3  0  0  0  0  0  0
  186.8910  177.9070  141.6900 C   0  0  0  0  0  3  0  0  0  0  0  0
  188.3100  177.4900  145.6580 N   0  0  0  0  0  2  0  0  0  0  0  0
  185.9720  179.3630  146.0990 C   0  0  0  0  0  2  0  0  0  0  0  0
  184.8810  178.4090  145.6110 C   0  0  1  0  0  0  0  0  0  0  0  0
  183.6030  178.7970  146.0450 O   0  0  0  0  0  0  0  0  0  0  0  0
  186.2050  176.4290  146.2450 C   0  0  0  0  0  3  0  0  0  0  0  0
  186.8040  178.6870  147.1930 C   0  0  0  0  0  2  0  0  0  0  0  0
  187.3270  177.3190  146.7240 C   0  0  2  0  0  3  0  0  0  0  0  0
  183.8740  178.9170  144.6640 C   0  0  0  0  0  2  0  0  0  0  0  0
  185.0800  176.9260  145.7080 C   0  0  0  0  0  3  0  0  0  0  0  0
  190.3940  173.1410  144.4900 C   0  0  1  0  0  3  0  0  0  0  0  0
  190.7950  172.3260  143.2640 C   0  0  0  0  0  2  0  0  0  0  0  0
  189.7110  171.3180  142.9300 C   0  0  0  0  0  1  0  0  0  0  0  0
  191.5830  173.5110  145.2520 N   0  0  0  0  0  2  0  0  0  0  0  0
  192.7070  172.7760  144.6920 C   0  0  0  0  0  2  0  0  0  0  0  0
  193.9500  173.0670  145.5150 C   0  0  0  0  0  2  0  0  0  0  0  0
  195.1120  173.1670  144.6460 N   0  0  0  0  0  0  0  0  0  0  0  0
  197.2240  174.1620  145.3240 C   0  0  0  0  0  2  0  0  0  0  0  0
  196.0360  172.1190  145.0600 C   0  0  0  0  0  2  0  0  0  0  0  0
  195.7720  174.4370  144.9510 C   0  0  1  0  0  3  0  0  0  0  0  0
  197.4330  172.6990  145.0400 C   0  0  0  0  0  2  0  0  0  0  0  0
  195.6560  175.3940  143.7610 C   0  0  2  0  0  3  0  0  0  0  0  0
  196.5870  176.4360  143.8590 O   0  0  0  0  0  1  0  0  0  0  0  0
  194.2990  175.9230  143.6590 N   0  0  0  0  0  0  0  0  0  0  0  0
  192.0600  178.3240  143.9400 F   0  0  0  0  0  0  0  0  0  0  0  0
  192.2980  176.3320  142.7110 C   0  0  0  0  0  3  0  0  0  0  0  0
  192.2270  176.9570  144.0690 C   0  0  1  0  0  3  0  0  0  0  0  0
  193.4730  175.7650  142.5210 C   0  0  0  0  0  3  0  0  0  0  0  0
  193.5950  176.6680  144.6850 C   0  0  0  0  0  2  0  0  0  0  0  0
  1  5  2  0  0  0  0
  1  8  1  0  0  0  0
  2 13  1  0  0  0  0
  3 25  1  0  0  0  0
  3 14  1  0  0  0  0
  4  7  1  0  0  0  0
  4 15  1  0  0  0  0
  5  9  1  0  0  0  0
  6  1  1  0  0  0  0
  7 11  1  0  0  0  0
  8  4  2  0  0  0  0
  9  7  2  0  0  0  0
 10  3  2  0  0  0  0
 11 10  1  0  0  0  0
 11  2  2  0  0  0  0
 12  2  1  0  0  0  0
 13 14  2  0  0  0  0
 13 16  1  0  0  0  0
 15 12  2  0  0  0  0
 17 21  1  0  0  0  0
 18 23  1  6  0  0  0
 18 24  1  0  0  0  0
 18 19  1  0  0  0  0
 18 17  1  0  0  0  0
 20 22  1  0  0  0  0
 22 16  1  6  0  0  0
 22 21  1  0  0  0  0
 23 19  1  0  0  0  0
 24 20  2  0  0  0  0
 25 26  1  6  0  0  0
 25 28  1  0  0  0  0
 27 26  1  0  0  0  0
 29 28  1  0  0  0  0
 29 30  1  0  0  0  0
 31 34  1  0  0  0  0
 31 33  1  0  0  0  0
 31 30  1  0  0  0  0
 34 36  1  6  0  0  0
 34 32  1  0  0  0  0
 35 33  1  0  0  0  0
 35 32  1  0  0  0  0
 36 37  1  1  0  0  0
 38 36  1  0  0  0  0
 38 43  1  0  0  0  0
 40 41  1  0  0  0  0
 41 39  1  6  0  0  0
 41 43  1  0  0  0  0
 42 40  2  0  0  0  0
 42 38  1  0  0  0  0
M  END
>  <MODEL>
1

>  <REMARK>
 VINA RESULT:      -7.6      0.000      0.000
  Name = 
  10 active torsions:
  status: ('A' for Active; 'I' for Inactive)
    1  A    between atoms: N_1  and  C_34
    2  A    between atoms: N_1  and  C_35
    3  A    between atoms: C_2  and  N_6
    4  A    between atoms: C_2  and  C_7
    5  A    between atoms: C_2  and  C_13
    6  A    between atoms: C_3  and  N_4
    7  A    between atoms: C_3  and  C_12
    8  A    between atoms: N_6  and  C_12
    9  A    between atoms: N_11  and  C_14
   10  A    between atoms: C_14  and  C_22
                            x       y       z     vdW  Elec       q    Type
                         _______ _______ _______ _____ _____    ______ ____

>  <TORSDO>
F 10

$$$$
=
 OpenBabel11052420403D

 43 49  0  0  1  0  0  0  0  0999 V2000
  190.5420  171.8400  140.2480 C   0  0  0  0  0  0  0  0  0  0  0  0
  188.9120  176.0350  142.5790 C   0  0  0  0  0  0  0  0  0  0  0  0
  190.4780  176.3360  144.8970 C   0  0  0  0  0  0  0  0  0  0  0  0
  189.3340  173.8530  140.8540 C   0  0  0  0  0  0  0  0  0  0  0  0
  191.3270  171.9580  141.3990 C   0  0  0  0  0  3  0  0  0  0  0  0
  190.8080  170.5070  139.1440 Cl  0  0  0  0  0  0  0  0  0  0  0  0
  190.1280  173.9840  142.0210 C   0  0  0  0  0  0  0  0  0  0  0  0
  189.5460  172.7850  139.9780 C   0  0  0  0  0  3  0  0  0  0  0  0
  191.1220  173.0220  142.2800 C   0  0  0  0  0  3  0  0  0  0  0  0
  190.6760  175.2350  144.0540 C   0  0  0  0  0  3  0  0  0  0  0  0
  189.9130  175.0760  142.8890 C   0  0  0  0  0  0  0  0  0  0  0  0
  188.1350  175.8770  141.4230 C   0  0  0  0  0  3  0  0  0  0  0  0
  188.7060  177.1390  143.4280 C   0  0  0  0  0  0  0  0  0  0  0  0
  189.4950  177.2770  144.5800 C   0  0  0  0  0  3  0  0  0  0  0  0
  188.3430  174.7940  140.5690 C   0  0  0  0  0  3  0  0  0  0  0  0
  187.6890  178.1070  143.1260 N   0  0  0  0  0  2  0  0  0  0  0  0
  186.3590  177.2930  145.7210 C   0  0  0  0  0  2  0  0  0  0  0  0
  185.6340  178.6140  145.9760 C   0  0  1  0  0  0  0  0  0  0  0  0
  184.5850  178.4770  146.9000 O   0  0  0  0  0  0  0  0  0  0  0  0
  185.5270  179.1220  143.5670 C   0  0  0  0  0  3  0  0  0  0  0  0
  186.0090  176.7670  144.3250 C   0  0  0  0  0  2  0  0  0  0  0  0
  186.2600  177.8400  143.2520 C   0  0  2  0  0  3  0  0  0  0  0  0
  185.7140  179.2140  147.3190 C   0  0  0  0  0  2  0  0  0  0  0  0
  185.2550  179.4990  144.8250 C   0  0  0  0  0  3  0  0  0  0  0  0
  191.2790  176.5150  146.1590 C   0  0  1  0  0  3  0  0  0  0  0  0
  190.3730  176.3660  147.3770 C   0  0  0  0  0  2  0  0  0  0  0  0
  189.7380  174.9870  147.3900 C   0  0  0  0  0  1  0  0  0  0  0  0
  192.3770  175.5560  146.2350 N   0  0  0  0  0  2  0  0  0  0  0  0
  193.6170  176.2970  146.0550 C   0  0  0  0  0  2  0  0  0  0  0  0
  194.7900  175.3420  146.1880 C   0  0  0  0  0  2  0  0  0  0  0  0
  195.4840  175.2240  144.9140 N   0  0  0  0  0  0  0  0  0  0  0  0
  194.5470  174.1190  142.9630 C   0  0  0  0  0  2  0  0  0  0  0  0
  194.8970  176.2180  144.0250 C   0  0  0  0  0  2  0  0  0  0  0  0
  195.1380  173.9180  144.3530 C   0  0  1  0  0  3  0  0  0  0  0  0
  194.7370  175.5820  142.6620 C   0  0  0  0  0  2  0  0  0  0  0  0
  196.3710  173.0100  144.3270 C   0  0  2  0  0  3  0  0  0  0  0  0
  196.7570  172.7210  143.0120 O   0  0  0  0  0  1  0  0  0  0  0  0
  196.1190  171.7800  145.0720 N   0  0  0  0  0  0  0  0  0  0  0  0
  196.7000  169.6740  147.5390 F   0  0  0  0  0  0  0  0  0  0  0  0
  194.9000  170.2010  146.1180 C   0  0  0  0  0  3  0  0  0  0  0  0
  196.3190  169.7320  146.2110 C   0  0  1  0  0  3  0  0  0  0  0  0
  194.8320  171.3510  145.4750 C   0  0  0  0  0  3  0  0  0  0  0  0
  197.1200  170.8210  145.4980 C   0  0  0  0  0  2  0  0  0  0  0  0
  1  5  1  0  0  0  0
  2 11  1  0  0  0  0
  2 13  1  0  0  0  0
  3 25  1  0  0  0  0
  4  7  1  0  0  0  0
  5  9  2  0  0  0  0
  6  1  1  0  0  0  0
  7  9  1  0  0  0  0
  7 11  2  0  0  0  0
  8  1  2  0  0  0  0
  8  4  1  0  0  0  0
 10  3  2  0  0  0  0
 11 10  1  0  0  0  0
 12  2  2  0  0  0  0
 13 14  2  0  0  0  0
 14  3  1  0  0  0  0
 15  4  2  0  0  0  0
 15 12  1  0  0  0  0
 16 13  1  0  0  0  0
 17 18  1  0  0  0  0
 18 24  1  6  0  0  0
 18 19  1  0  0  0  0
 18 23  1  0  0  0  0
 19 23  1  0  0  0  0
 20 24  2  0  0  0  0
 21 17  1  0  0  0  0
 22 16  1  1  0  0  0
 22 20  1  0  0  0  0
 22 21  1  0  0  0  0
 25 28  1  0  0  0  0
 25 26  1  1  0  0  0
 26 27  1  0  0  0  0
 29 30  1  0  0  0  0
 29 28  1  0  0  0  0
 31 30  1  0  0  0  0
 32 34  1  0  0  0  0
 33 31  1  0  0  0  0
 34 36  1  6  0  0  0
 34 31  1  0  0  0  0
 35 32  1  0  0  0  0
 35 33  1  0  0  0  0
 36 37  1  6  0  0  0
 36 38  1  0  0  0  0
 38 42  1  0  0  0  0
 38 43  1  0  0  0  0
 40 41  1  0  0  0  0
 41 39  1  1  0  0  0
 42 40  2  0  0  0  0
 43 41  1  0  0  0  0
M  END
>  <MODEL>
2

>  <REMARK>
 VINA RESULT:      -7.5      2.651      4.395
  Name = 
  10 active torsions:
  status: ('A' for Active; 'I' for Inactive)
    1  A    between atoms: N_1  and  C_34
    2  A    between atoms: N_1  and  C_35
    3  A    between atoms: C_2  and  N_6
    4  A    between atoms: C_2  and  C_7
    5  A    between atoms: C_2  and  C_13
    6  A    between atoms: C_3  and  N_4
    7  A    between atoms: C_3  and  C_12
    8  A    between atoms: N_6  and  C_12
    9  A    between atoms: N_11  and  C_14
   10  A    between atoms: C_14  and  C_22
                            x       y       z     vdW  Elec       q    Type
                         _______ _______ _______ _____ _____    ______ ____

>  <TORSDO>
F 10

$$$$
=
 OpenBabel11052420403D

 43 49  0  0  1  0  0  0  0  0999 V2000
  191.2180  177.1410  148.7480 C   0  0  0  0  0  0  0  0  0  0  0  0
  189.5820  176.1360  144.0570 C   0  0  0  0  0  0  0  0  0  0  0  0
  190.2290  173.4490  143.5300 C   0  0  0  0  0  0  0  0  0  0  0  0
  190.2570  177.3000  146.5270 C   0  0  0  0  0  0  0  0  0  0  0  0
  191.5620  175.8070  148.5090 C   0  0  0  0  0  3  0  0  0  0  0  0
  191.6000  177.8770  150.2900 Cl  0  0  0  0  0  0  0  0  0  0  0  0
  190.5980  175.9480  146.2770 C   0  0  0  0  0  0  0  0  0  0  0  0
  190.5680  177.8860  147.7580 C   0  0  0  0  0  3  0  0  0  0  0  0
  191.2550  175.2140  147.2820 C   0  0  0  0  0  3  0  0  0  0  0  0
  190.5890  174.0310  144.7520 C   0  0  0  0  0  3  0  0  0  0  0  0
  190.2640  175.3650  145.0360 C   0  0  0  0  0  0  0  0  0  0  0  0
  189.2650  177.4740  144.3270 C   0  0  0  0  0  3  0  0  0  0  0  0
  189.2250  175.5560  142.8240 C   0  0  0  0  0  0  0  0  0  0  0  0
  189.5540  174.2150  142.5760 C   0  0  0  0  0  3  0  0  0  0  0  0
  189.6010  178.0520  145.5510 C   0  0  0  0  0  3  0  0  0  0  0  0
  188.5460  176.3330  141.8270 N   0  0  0  0  0  2  0  0  0  0  0  0
  186.2110  177.0310  143.6240 C   0  0  0  0  0  2  0  0  0  0  0  0
  185.7290  178.2460  142.8310 C   0  0  1  0  0  0  0  0  0  0  0  0
  184.4070  178.6000  143.1500 O   0  0  0  0  0  0  0  0  0  0  0  0
  186.6300  177.3400  140.7240 C   0  0  0  0  0  3  0  0  0  0  0  0
  186.3060  175.8110  142.7020 C   0  0  0  0  0  2  0  0  0  0  0  0
  187.1500  176.1250  141.4550 C   0  0  2  0  0  3  0  0  0  0  0  0
  185.4250  179.4880  143.5620 C   0  0  0  0  0  2  0  0  0  0  0  0
  185.9920  178.3360  141.3570 C   0  0  0  0  0  3  0  0  0  0  0  0
  190.5830  172.0220  143.2030 C   0  0  1  0  0  3  0  0  0  0  0  0
  191.3900  171.9690  141.9100 C   0  0  0  0  0  2  0  0  0  0  0  0
  190.6240  171.2010  140.8480 C   0  0  0  0  0  1  0  0  0  0  0  0
  191.3350  171.3980  144.2860 N   0  0  0  0  0  2  0  0  0  0  0  0
  192.7200  171.2920  143.8510 C   0  0  0  0  0  2  0  0  0  0  0  0
  193.6320  171.7140  144.9900 C   0  0  0  0  0  2  0  0  0  0  0  0
  195.0120  171.7660  144.5310 N   0  0  0  0  0  0  0  0  0  0  0  0
  196.9110  172.1470  146.0010 C   0  0  0  0  0  2  0  0  0  0  0  0
  195.6200  170.4900  144.8850 C   0  0  0  0  0  2  0  0  0  0  0  0
  195.6960  172.7810  145.3330 C   0  0  1  0  0  3  0  0  0  0  0  0
  197.0130  170.7690  145.4030 C   0  0  0  0  0  2  0  0  0  0  0  0
  196.0800  173.9780  144.4580 C   0  0  2  0  0  3  0  0  0  0  0  0
  197.4650  174.1910  144.4760 O   0  0  0  0  0  1  0  0  0  0  0  0
  195.3680  175.1780  144.8870 N   0  0  0  0  0  0  0  0  0  0  0  0
  192.9830  177.4330  144.5980 F   0  0  0  0  0  0  0  0  0  0  0  0
  194.3430  176.5800  146.3200 C   0  0  0  0  0  3  0  0  0  0  0  0
  194.3000  177.2700  144.9910 C   0  0  1  0  0  3  0  0  0  0  0  0
  194.9480  175.4130  146.2180 C   0  0  0  0  0  3  0  0  0  0  0  0
  194.9970  176.2960  144.0420 C   0  0  0  0  0  2  0  0  0  0  0  0
  1  6  1  0  0  0  0
  2 12  1  0  0  0  0
  2 11  1  0  0  0  0
  3 10  1  0  0  0  0
  4  8  1  0  0  0  0
  5  1  1  0  0  0  0
  7  4  2  0  0  0  0
  7  9  1  0  0  0  0
  8  1  2  0  0  0  0
  9  5  2  0  0  0  0
 10 11  2  0  0  0  0
 11  7  1  0  0  0  0
 12 15  2  0  0  0  0
 13  2  2  0  0  0  0
 14 13  1  0  0  0  0
 14  3  2  0  0  0  0
 15  4  1  0  0  0  0
 16 13  1  0  0  0  0
 18 24  1  6  0  0  0
 18 19  1  0  0  0  0
 18 23  1  0  0  0  0
 18 17  1  0  0  0  0
 19 23  1  0  0  0  0
 20 24  2  0  0  0  0
 20 22  1  0  0  0  0
 21 17  1  0  0  0  0
 22 16  1  1  0  0  0
 22 21  1  0  0  0  0
 25 26  1  6  0  0  0
 25  3  1  0  0  0  0
 25 28  1  0  0  0  0
 27 26  1  0  0  0  0
 29 28  1  0  0  0  0
 29 30  1  0  0  0  0
 31 33  1  0  0  0  0
 31 30  1  0  0  0  0
 31 34  1  0  0  0  0
 33 35  1  0  0  0  0
 34 36  1  6  0  0  0
 34 32  1  0  0  0  0
 35 32  1  0  0  0  0
 36 37  1  1  0  0  0
 36 38  1  0  0  0  0
 38 42  1  0  0  0  0
 41 39  1  6  0  0  0
 41 40  1  0  0  0  0
 42 40  2  0  0  0  0
 43 38  1  0  0  0  0
 43 41  1  0  0  0  0
M  END
>  <MODEL>
3

>  <REMARK>
 VINA RESULT:      -7.3      2.972      4.786
  Name = 
  10 active torsions:
  status: ('A' for Active; 'I' for Inactive)
    1  A    between atoms: N_1  and  C_34
    2  A    between atoms: N_1  and  C_35
    3  A    between atoms: C_2  and  N_6
    4  A    between atoms: C_2  and  C_7
    5  A    between atoms: C_2  and  C_13
    6  A    between atoms: C_3  and  N_4
    7  A    between atoms: C_3  and  C_12
    8  A    between atoms: N_6  and  C_12
    9  A    between atoms: N_11  and  C_14
   10  A    between atoms: C_14  and  C_22
                            x       y       z     vdW  Elec       q    Type
                         _______ _______ _______ _____ _____    ______ ____

>  <TORSDO>
F 10

$$$$
=
 OpenBabel11052420403D

 43 49  0  0  1  0  0  0  0  0999 V2000
  184.9860  178.2850  144.7410 C   0  0  0  0  0  0  0  0  0  0  0  0
  189.0720  175.5010  143.6290 C   0  0  0  0  0  0  0  0  0  0  0  0
  190.9530  175.9720  145.6680 C   0  0  0  0  0  0  0  0  0  0  0  0
  186.5730  176.7920  143.6790 C   0  0  0  0  0  0  0  0  0  0  0  0
  185.9050  178.5470  145.7610 C   0  0  0  0  0  3  0  0  0  0  0  0
  183.4120  179.0540  144.7670 Cl  0  0  0  0  0  0  0  0  0  0  0  0
  187.5110  177.0480  144.7100 C   0  0  0  0  0  0  0  0  0  0  0  0
  185.3200  177.4110  143.7010 C   0  0  0  0  0  3  0  0  0  0  0  0
  187.1600  177.9330  145.7460 C   0  0  0  0  0  3  0  0  0  0  0  0
  189.7200  176.6360  145.6840 C   0  0  0  0  0  3  0  0  0  0  0  0
  188.7660  176.4040  144.6830 C   0  0  0  0  0  0  0  0  0  0  0  0
  188.1310  175.2740  142.6170 C   0  0  0  0  0  3  0  0  0  0  0  0
  190.3140  174.8380  143.6070 C   0  0  0  0  0  0  0  0  0  0  0  0
  191.2420  175.0820  144.6300 C   0  0  0  0  0  3  0  0  0  0  0  0
  186.8920  175.9160  142.6400 C   0  0  0  0  0  3  0  0  0  0  0  0
  190.6330  173.9330  142.5390 N   0  0  0  0  0  2  0  0  0  0  0  0
  189.8870  172.0190  140.3150 C   0  0  0  0  0  2  0  0  0  0  0  0
  191.2990  171.5030  140.0380 C   0  0  1  0  0  0  0  0  0  0  0  0
  191.2930  170.2930  139.3250 O   0  0  0  0  0  0  0  0  0  0  0  0
  192.0100  171.9390  142.3570 C   0  0  0  0  0  3  0  0  0  0  0  0
  189.5530  171.8490  141.8010 C   0  0  0  0  0  2  0  0  0  0  0  0
  190.6390  172.4810  142.6870 C   0  0  2  0  0  3  0  0  0  0  0  0
  191.7620  171.4350  138.6410 C   0  0  0  0  0  2  0  0  0  0  0  0
  192.3290  171.5070  141.1280 C   0  0  0  0  0  3  0  0  0  0  0  0
  191.9950  176.2200  146.7280 C   0  0  1  0  0  3  0  0  0  0  0  0
  191.3490  176.1890  148.1100 C   0  0  0  0  0  2  0  0  0  0  0  0
  191.5460  177.5220  148.8070 C   0  0  0  0  0  1  0  0  0  0  0  0
  193.0700  175.2360  146.6590 N   0  0  0  0  0  2  0  0  0  0  0  0
  194.2960  175.9510  146.3340 C   0  0  0  0  0  2  0  0  0  0  0  0
  195.4190  174.9480  146.1390 C   0  0  0  0  0  2  0  0  0  0  0  0
  195.8730  174.9700  144.7560 N   0  0  0  0  0  0  0  0  0  0  0  0
  194.3920  174.7180  142.8450 C   0  0  0  0  0  2  0  0  0  0  0  0
  195.5320  176.2840  144.2250 C   0  0  0  0  0  2  0  0  0  0  0  0
  195.0560  174.0060  144.0180 C   0  0  1  0  0  3  0  0  0  0  0  0
  195.0060  176.0920  142.8200 C   0  0  0  0  0  2  0  0  0  0  0  0
  195.9150  172.8230  143.5610 C   0  0  2  0  0  3  0  0  0  0  0  0
  195.5650  172.4170  142.2670 O   0  0  0  0  0  1  0  0  0  0  0  0
  195.8000  171.7120  144.5000 N   0  0  0  0  0  0  0  0  0  0  0  0
  196.7050  170.0430  147.1930 F   0  0  0  0  0  0  0  0  0  0  0  0
  194.7680  170.2540  145.8720 C   0  0  0  0  0  3  0  0  0  0  0  0
  196.2170  169.8760  145.9090 C   0  0  1  0  0  3  0  0  0  0  0  0
  194.5780  171.2860  145.0730 C   0  0  0  0  0  3  0  0  0  0  0  0
  196.8900  170.8810  144.9750 C   0  0  0  0  0  2  0  0  0  0  0  0
  1  6  1  0  0  0  0
  1  5  1  0  0  0  0
  2 11  1  0  0  0  0
  3 10  1  0  0  0  0
  3 25  1  0  0  0  0
  4  8  1  0  0  0  0
  4  7  2  0  0  0  0
  7  9  1  0  0  0  0
  8  1  2  0  0  0  0
  9  5  2  0  0  0  0
 11  7  1  0  0  0  0
 11 10  2  0  0  0  0
 12 15  2  0  0  0  0
 12  2  1  0  0  0  0
 13  2  2  0  0  0  0
 13 14  1  0  0  0  0
 14  3  2  0  0  0  0
 15  4  1  0  0  0  0
 16 13  1  0  0  0  0
 17 21  1  0  0  0  0
 18 23  1  6  0  0  0
 18 17  1  0  0  0  0
 18 24  1  0  0  0  0
 19 18  1  0  0  0  0
 20 22  1  0  0  0  0
 21 22  1  0  0  0  0
 22 16  1  6  0  0  0
 23 19  1  0  0  0  0
 24 20  2  0  0  0  0
 25 26  1  1  0  0  0
 26 27  1  0  0  0  0
 28 25  1  0  0  0  0
 29 28  1  0  0  0  0
 30 29  1  0  0  0  0
 31 30  1  0  0  0  0
 32 34  1  0  0  0  0
 33 31  1  0  0  0  0
 34 36  1  6  0  0  0
 34 31  1  0  0  0  0
 35 32  1  0  0  0  0
 35 33  1  0  0  0  0
 36 37  1  6  0  0  0
 36 38  1  0  0  0  0
 38 43  1  0  0  0  0
 38 42  1  0  0  0  0
 40 41  1  0  0  0  0
 41 39  1  1  0  0  0
 42 40  2  0  0  0  0
 43 41  1  0  0  0  0
M  END
>  <MODEL>
4

>  <REMARK>
 VINA RESULT:      -7.3      3.577      6.439
  Name = 
  10 active torsions:
  status: ('A' for Active; 'I' for Inactive)
    1  A    between atoms: N_1  and  C_34
    2  A    between atoms: N_1  and  C_35
    3  A    between atoms: C_2  and  N_6
    4  A    between atoms: C_2  and  C_7
    5  A    between atoms: C_2  and  C_13
    6  A    between atoms: C_3  and  N_4
    7  A    between atoms: C_3  and  C_12
    8  A    between atoms: N_6  and  C_12
    9  A    between atoms: N_11  and  C_14
   10  A    between atoms: C_14  and  C_22
                            x       y       z     vdW  Elec       q    Type
                         _______ _______ _______ _____ _____    ______ ____

>  <TORSDO>
F 10

$$$$
=
 OpenBabel11052420403D

 43 49  0  0  1  0  0  0  0  0999 V2000
  185.4680  177.9410  145.9370 C   0  0  0  0  0  0  0  0  0  0  0  0
  188.7790  175.4330  143.0320 C   0  0  0  0  0  0  0  0  0  0  0  0
  191.1550  175.2050  144.5220 C   0  0  0  0  0  0  0  0  0  0  0  0
  186.5460  176.7580  144.1160 C   0  0  0  0  0  0  0  0  0  0  0  0
  186.6390  177.8520  146.6950 C   0  0  0  0  0  3  0  0  0  0  0  0
  184.0560  178.7340  146.6030 Cl  0  0  0  0  0  0  0  0  0  0  0  0
  187.7370  176.6600  144.8780 C   0  0  0  0  0  0  0  0  0  0  0  0
  185.4230  177.3960  144.6490 C   0  0  0  0  0  3  0  0  0  0  0  0
  187.7670  177.2160  146.1700 C   0  0  0  0  0  3  0  0  0  0  0  0
  190.0540  175.8860  145.0550 C   0  0  0  0  0  3  0  0  0  0  0  0
  188.8580  175.9990  144.3320 C   0  0  0  0  0  0  0  0  0  0  0  0
  187.5920  175.5520  142.2960 C   0  0  0  0  0  3  0  0  0  0  0  0
  189.8860  174.7530  142.4890 C   0  0  0  0  0  0  0  0  0  0  0  0
  191.0640  174.6470  143.2440 C   0  0  0  0  0  3  0  0  0  0  0  0
  186.4860  176.2110  142.8330 C   0  0  0  0  0  3  0  0  0  0  0  0
  189.8150  174.1880  141.1720 N   0  0  0  0  0  2  0  0  0  0  0  0
  191.3550  171.9020  139.9170 C   0  0  0  0  0  2  0  0  0  0  0  0
  191.4490  171.0360  141.1730 C   0  0  1  0  0  0  0  0  0  0  0  0
  191.7580  169.6990  140.8760 O   0  0  0  0  0  0  0  0  0  0  0  0
  189.3680  171.9840  142.0920 C   0  0  0  0  0  3  0  0  0  0  0  0
  189.8910  172.2620  139.6420 C   0  0  0  0  0  2  0  0  0  0  0  0
  189.2310  172.8820  140.8850 C   0  0  2  0  0  3  0  0  0  0  0  0
  192.7550  170.4550  141.5300 C   0  0  0  0  0  2  0  0  0  0  0  0
  190.4040  171.1450  142.2430 C   0  0  0  0  0  3  0  0  0  0  0  0
  192.4510  175.0860  145.2790 C   0  0  1  0  0  3  0  0  0  0  0  0
  192.5710  176.2240  146.2880 C   0  0  0  0  0  2  0  0  0  0  0  0
  193.9210  176.9030  146.1520 C   0  0  0  0  0  1  0  0  0  0  0  0
  192.5530  173.8010  145.9630 N   0  0  0  0  0  2  0  0  0  0  0  0
  193.8590  173.2420  145.6480 C   0  0  0  0  0  2  0  0  0  0  0  0
  193.6750  172.0170  144.7690 C   0  0  0  0  0  2  0  0  0  0  0  0
  194.9550  171.3550  144.5610 N   0  0  0  0  0  0  0  0  0  0  0  0
  196.9870  171.9380  145.7620 C   0  0  0  0  0  2  0  0  0  0  0  0
  195.1390  170.4420  145.6820 C   0  0  0  0  0  2  0  0  0  0  0  0
  195.9950  172.3760  144.6900 C   0  0  1  0  0  3  0  0  0  0  0  0
  196.5850  170.5310  146.1180 C   0  0  0  0  0  2  0  0  0  0  0  0
  196.6760  172.6110  143.3390 C   0  0  2  0  0  3  0  0  0  0  0  0
  197.9360  172.0000  143.2970 O   0  0  0  0  0  1  0  0  0  0  0  0
  196.7860  174.0400  143.0610 N   0  0  0  0  0  0  0  0  0  0  0  0
  196.4860  177.2180  143.8810 F   0  0  0  0  0  0  0  0  0  0  0  0
  197.7530  175.9480  142.3570 C   0  0  0  0  0  3  0  0  0  0  0  0
  196.3830  176.3440  142.8140 C   0  0  1  0  0  3  0  0  0  0  0  0
  197.9390  174.6520  142.5140 C   0  0  0  0  0  3  0  0  0  0  0  0
  195.7540  175.0340  143.2870 C   0  0  0  0  0  2  0  0  0  0  0  0
  1  6  1  0  0  0  0
  1  5  1  0  0  0  0
  2 11  1  0  0  0  0
  3 10  1  0  0  0  0
  3 25  1  0  0  0  0
  4  8  1  0  0  0  0
  4  7  2  0  0  0  0
  7  9  1  0  0  0  0
  8  1  2  0  0  0  0
  9  5  2  0  0  0  0
 11  7  1  0  0  0  0
 11 10  2  0  0  0  0
 12 15  2  0  0  0  0
 12  2  1  0  0  0  0
 13  2  2  0  0  0  0
 13 14  1  0  0  0  0
 14  3  2  0  0  0  0
 15  4  1  0  0  0  0
 16 13  1  0  0  0  0
 18 17  1  6  0  0  0
 18 23  1  0  0  0  0
 18 24  1  0  0  0  0
 19 18  1  0  0  0  0
 19 23  1  0  0  0  0
 20 24  2  0  0  0  0
 21 17  1  0  0  0  0
 21 22  1  0  0  0  0
 22 16  1  1  0  0  0
 22 20  1  0  0  0  0
 25 28  1  0  0  0  0
 25 26  1  1  0  0  0
 27 26  1  0  0  0  0
 29 28  1  0  0  0  0
 30 29  1  0  0  0  0
 31 34  1  0  0  0  0
 31 30  1  0  0  0  0
 31 33  1  0  0  0  0
 32 35  1  0  0  0  0
 33 35  1  0  0  0  0
 34 36  1  6  0  0  0
 34 32  1  0  0  0  0
 36 37  1  1  0  0  0
 38 43  1  0  0  0  0
 38 36  1  0  0  0  0
 40 42  2  0  0  0  0
 40 41  1  0  0  0  0
 41 43  1  0  0  0  0
 41 39  1  1  0  0  0
 42 38  1  0  0  0  0
M  END
>  <MODEL>
5

>  <REMARK>
 VINA RESULT:      -7.1      3.366      5.995
  Name = 
  10 active torsions:
  status: ('A' for Active; 'I' for Inactive)
    1  A    between atoms: N_1  and  C_34
    2  A    between atoms: N_1  and  C_35
    3  A    between atoms: C_2  and  N_6
    4  A    between atoms: C_2  and  C_7
    5  A    between atoms: C_2  and  C_13
    6  A    between atoms: C_3  and  N_4
    7  A    between atoms: C_3  and  C_12
    8  A    between atoms: N_6  and  C_12
    9  A    between atoms: N_11  and  C_14
   10  A    between atoms: C_14  and  C_22
                            x       y       z     vdW  Elec       q    Type
                         _______ _______ _______ _____ _____    ______ ____

>  <TORSDO>
F 10

$$$$
=
 OpenBabel11052420403D

 43 49  0  0  1  0  0  0  0  0999 V2000
  186.0130  177.7170  146.3170 C   0  0  0  0  0  0  0  0  0  0  0  0
  188.8500  175.2130  142.9450 C   0  0  0  0  0  0  0  0  0  0  0  0
  191.3320  174.7240  144.1770 C   0  0  0  0  0  0  0  0  0  0  0  0
  186.8290  176.6000  144.3260 C   0  0  0  0  0  0  0  0  0  0  0  0
  187.2400  177.4980  146.9500 C   0  0  0  0  0  3  0  0  0  0  0  0
  184.7300  178.5510  147.1690 Cl  0  0  0  0  0  0  0  0  0  0  0  0
  188.0750  176.3700  144.9600 C   0  0  0  0  0  0  0  0  0  0  0  0
  185.8100  177.2710  145.0070 C   0  0  0  0  0  3  0  0  0  0  0  0
  188.2660  176.8290  146.2760 C   0  0  0  0  0  3  0  0  0  0  0  0
  190.3380  175.4360  144.8590 C   0  0  0  0  0  3  0  0  0  0  0  0
  189.0910  175.6780  144.2660 C   0  0  0  0  0  0  0  0  0  0  0  0
  187.6120  175.4630  142.3380 C   0  0  0  0  0  3  0  0  0  0  0  0
  189.8500  174.5030  142.2540 C   0  0  0  0  0  0  0  0  0  0  0  0
  191.0830  174.2660  142.8800 C   0  0  0  0  0  3  0  0  0  0  0  0
  186.6110  176.1530  143.0220 C   0  0  0  0  0  3  0  0  0  0  0  0
  189.6170  174.0400  140.9150 N   0  0  0  0  0  2  0  0  0  0  0  0
  188.6930  173.1830  138.1610 C   0  0  0  0  0  2  0  0  0  0  0  0
  189.9200  172.3400  137.8130 C   0  0  1  0  0  0  0  0  0  0  0  0
  189.6710  171.4510  136.7540 O   0  0  0  0  0  0  0  0  0  0  0  0
  190.3650  171.8470  140.1860 C   0  0  0  0  0  3  0  0  0  0  0  0
  188.1030  172.7180  139.4960 C   0  0  0  0  0  2  0  0  0  0  0  0
  189.1780  172.6860  140.5950 C   0  0  2  0  0  3  0  0  0  0  0  0
  190.5500  172.5250  136.4940 C   0  0  0  0  0  2  0  0  0  0  0  0
  190.7290  171.7020  138.9030 C   0  0  0  0  0  3  0  0  0  0  0  0
  192.6810  174.4660  144.7950 C   0  0  1  0  0  3  0  0  0  0  0  0
  192.6510  174.8220  146.2780 C   0  0  0  0  0  2  0  0  0  0  0  0
  193.5460  176.0190  146.5460 C   0  0  0  0  0  1  0  0  0  0  0  0
  193.0890  173.0750  144.6250 N   0  0  0  0  0  2  0  0  0  0  0  0
  194.5410  173.0330  144.7120 C   0  0  0  0  0  2  0  0  0  0  0  0
  195.1140  172.7790  143.3280 C   0  0  0  0  0  2  0  0  0  0  0  0
  196.0570  173.8300  142.9780 N   0  0  0  0  0  0  0  0  0  0  0  0
  195.4220  176.1480  142.6130 C   0  0  0  0  0  2  0  0  0  0  0  0
  196.2950  174.6000  144.1930 C   0  0  0  0  0  2  0  0  0  0  0  0
  195.3740  174.7320  142.0500 C   0  0  1  0  0  3  0  0  0  0  0  0
  196.3250  176.0640  143.8140 C   0  0  0  0  0  2  0  0  0  0  0  0
  196.0120  174.6440  140.6610 C   0  0  2  0  0  3  0  0  0  0  0  0
  196.9270  175.6850  140.4600 O   0  0  0  0  0  1  0  0  0  0  0  0
  194.9850  174.6530  139.6230 N   0  0  0  0  0  0  0  0  0  0  0  0
  193.8550  173.9430  136.6100 F   0  0  0  0  0  0  0  0  0  0  0  0
  192.9350  174.3840  138.7310 C   0  0  0  0  0  3  0  0  0  0  0  0
  193.7900  174.8940  137.6120 C   0  0  1  0  0  3  0  0  0  0  0  0
  193.6420  174.2620  139.8370 C   0  0  0  0  0  3  0  0  0  0  0  0
  195.1710  175.0630  138.2440 C   0  0  0  0  0  2  0  0  0  0  0  0
  1  5  1  0  0  0  0
  1  6  1  0  0  0  0
  2 11  1  0  0  0  0
  3 25  1  0  0  0  0
  3 10  1  0  0  0  0
  4  7  2  0  0  0  0
  4  8  1  0  0  0  0
  7  9  1  0  0  0  0
  8  1  2  0  0  0  0
  9  5  2  0  0  0  0
 11 10  2  0  0  0  0
 11  7  1  0  0  0  0
 12  2  1  0  0  0  0
 12 15  2  0  0  0  0
 13 14  1  0  0  0  0
 13  2  2  0  0  0  0
 14  3  2  0  0  0  0
 15  4  1  0  0  0  0
 16 13  1  0  0  0  0
 17 21  1  0  0  0  0
 18 23  1  6  0  0  0
 18 17  1  0  0  0  0
 18 24  1  0  0  0  0
 19 18  1  0  0  0  0
 20 22  1  0  0  0  0
 21 22  1  0  0  0  0
 22 16  1  6  0  0  0
 23 19  1  0  0  0  0
 24 20  2  0  0  0  0
 25 26  1  1  0  0  0
 26 27  1  0  0  0  0
 28 29  1  0  0  0  0
 28 25  1  0  0  0  0
 30 29  1  0  0  0  0
 31 30  1  0  0  0  0
 31 33  1  0  0  0  0
 32 35  1  0  0  0  0
 34 36  1  6  0  0  0
 34 32  1  0  0  0  0
 34 31  1  0  0  0  0
 35 33  1  0  0  0  0
 36 37  1  6  0  0  0
 38 42  1  0  0  0  0
 38 36  1  0  0  0  0
 40 42  2  0  0  0  0
 41 39  1  6  0  0  0
 41 43  1  0  0  0  0
 41 40  1  0  0  0  0
 43 38  1  0  0  0  0
M  END
>  <MODEL>
6

>  <REMARK>
 VINA RESULT:      -7.1      3.659      6.324
  Name = 
  10 active torsions:
  status: ('A' for Active; 'I' for Inactive)
    1  A    between atoms: N_1  and  C_34
    2  A    between atoms: N_1  and  C_35
    3  A    between atoms: C_2  and  N_6
    4  A    between atoms: C_2  and  C_7
    5  A    between atoms: C_2  and  C_13
    6  A    between atoms: C_3  and  N_4
    7  A    between atoms: C_3  and  C_12
    8  A    between atoms: N_6  and  C_12
    9  A    between atoms: N_11  and  C_14
   10  A    between atoms: C_14  and  C_22
                            x       y       z     vdW  Elec       q    Type
                         _______ _______ _______ _____ _____    ______ ____

>  <TORSDO>
F 10

$$$$
=
 OpenBabel11052420403D

 43 49  0  0  1  0  0  0  0  0999 V2000
  194.8350  174.8750  145.4120 C   0  0  0  0  0  0  0  0  0  0  0  0
  190.1450  176.7020  145.9990 C   0  0  0  0  0  0  0  0  0  0  0  0
  188.8440  176.4080  143.5220 C   0  0  0  0  0  0  0  0  0  0  0  0
  192.8160  175.8740  146.3070 C   0  0  0  0  0  0  0  0  0  0  0  0
  194.2180  174.7270  144.1670 C   0  0  0  0  0  3  0  0  0  0  0  0
  196.4880  174.3380  145.6350 Cl  0  0  0  0  0  0  0  0  0  0  0  0
  192.1800  175.7250  145.0490 C   0  0  0  0  0  0  0  0  0  0  0  0
  194.1360  175.4490  146.4790 C   0  0  0  0  0  3  0  0  0  0  0  0
  192.8990  175.1500  143.9850 C   0  0  0  0  0  3  0  0  0  0  0  0
  190.1810  176.0170  143.6630 C   0  0  0  0  0  3  0  0  0  0  0  0
  190.8410  176.1450  144.8930 C   0  0  0  0  0  0  0  0  0  0  0  0
  190.8010  176.8460  147.2290 C   0  0  0  0  0  3  0  0  0  0  0  0
  188.8020  177.1030  145.8580 C   0  0  0  0  0  0  0  0  0  0  0  0
  188.1660  176.9500  144.6170 C   0  0  0  0  0  3  0  0  0  0  0  0
  192.1260  176.4380  147.3810 C   0  0  0  0  0  3  0  0  0  0  0  0
  188.0970  177.6770  146.9690 N   0  0  0  0  0  2  0  0  0  0  0  0
  185.5750  179.3520  146.9240 C   0  0  0  0  0  2  0  0  0  0  0  0
  184.8860  178.6120  145.7780 C   0  0  1  0  0  0  0  0  0  0  0  0
  183.5050  178.8640  145.7360 O   0  0  0  0  0  0  0  0  0  0  0  0
  186.0700  176.5150  146.3020 C   0  0  0  0  0  3  0  0  0  0  0  0
  185.9780  178.3590  148.0180 C   0  0  0  0  0  2  0  0  0  0  0  0
  186.7990  177.1970  147.4350 C   0  0  2  0  0  3  0  0  0  0  0  0
  184.2840  179.4020  144.6900 C   0  0  0  0  0  2  0  0  0  0  0  0
  185.2010  177.1690  145.5160 C   0  0  0  0  0  3  0  0  0  0  0  0
  188.1240  176.2910  142.2040 C   0  0  1  0  0  3  0  0  0  0  0  0
  188.1000  177.6440  141.5010 C   0  0  0  0  0  2  0  0  0  0  0  0
  186.7420  178.2990  141.6750 C   0  0  0  0  0  1  0  0  0  0  0  0
  188.7480  175.2920  141.3430 N   0  0  0  0  0  2  0  0  0  0  0  0
  188.1120  174.0140  141.6240 C   0  0  0  0  0  2  0  0  0  0  0  0
  188.2090  173.1300  140.3930 C   0  0  0  0  0  2  0  0  0  0  0  0
  189.4380  173.4170  139.6680 N   0  0  0  0  0  0  0  0  0  0  0  0
  190.9290  171.7010  138.8060 C   0  0  0  0  0  2  0  0  0  0  0  0
  189.1550  173.1870  138.2570 C   0  0  0  0  0  2  0  0  0  0  0  0
  190.4170  172.4010  140.0590 C   0  0  1  0  0  3  0  0  0  0  0  0
  190.3480  172.4790  137.6550 C   0  0  0  0  0  2  0  0  0  0  0  0
  191.5520  173.0420  140.8630 C   0  0  2  0  0  3  0  0  0  0  0  0
  192.7680  172.9560  140.1740 O   0  0  0  0  0  1  0  0  0  0  0  0
  191.6600  172.4230  142.1810 N   0  0  0  0  0  0  0  0  0  0  0  0
  193.2340  171.8040  145.0090 F   0  0  0  0  0  0  0  0  0  0  0  0
  191.0060  171.8190  144.2500 C   0  0  0  0  0  3  0  0  0  0  0  0
  192.3760  171.2390  144.0820 C   0  0  1  0  0  3  0  0  0  0  0  0
  190.6440  172.4740  143.1640 C   0  0  0  0  0  3  0  0  0  0  0  0
  192.7940  171.6660  142.6760 C   0  0  0  0  0  2  0  0  0  0  0  0
  1  6  1  0  0  0  0
  1  8  1  0  0  0  0
  2 12  1  0  0  0  0
  3 10  2  0  0  0  0
  3 14  1  0  0  0  0
  4  8  2  0  0  0  0
  4 15  1  0  0  0  0
  5  1  2  0  0  0  0
  7  4  1  0  0  0  0
  9  5  1  0  0  0  0
  9  7  2  0  0  0  0
 10 11  1  0  0  0  0
 11  7  1  0  0  0  0
 11  2  2  0  0  0  0
 12 15  2  0  0  0  0
 13  2  1  0  0  0  0
 13 16  1  0  0  0  0
 14 13  2  0  0  0  0
 17 21  1  0  0  0  0
 18 23  1  6  0  0  0
 18 17  1  0  0  0  0
 19 18  1  0  0  0  0
 20 22  1  0  0  0  0
 22 16  1  6  0  0  0
 22 21  1  0  0  0  0
 23 19  1  0  0  0  0
 24 18  1  0  0  0  0
 24 20  2  0  0  0  0
 25 26  1  6  0  0  0
 25  3  1  0  0  0  0
 26 27  1  0  0  0  0
 28 29  1  0  0  0  0
 28 25  1  0  0  0  0
 30 29  1  0  0  0  0
 31 34  1  0  0  0  0
 31 30  1  0  0  0  0
 32 34  1  0  0  0  0
 33 31  1  0  0  0  0
 34 36  1  6  0  0  0
 35 33  1  0  0  0  0
 35 32  1  0  0  0  0
 36 37  1  6  0  0  0
 36 38  1  0  0  0  0
 38 43  1  0  0  0  0
 38 42  1  0  0  0  0
 41 40  1  0  0  0  0
 41 39  1  1  0  0  0
 42 40  2  0  0  0  0
 43 41  1  0  0  0  0
M  END
>  <MODEL>
7

>  <REMARK>
 VINA RESULT:      -7.1      3.293      6.155
  Name = 
  10 active torsions:
  status: ('A' for Active; 'I' for Inactive)
    1  A    between atoms: N_1  and  C_34
    2  A    between atoms: N_1  and  C_35
    3  A    between atoms: C_2  and  N_6
    4  A    between atoms: C_2  and  C_7
    5  A    between atoms: C_2  and  C_13
    6  A    between atoms: C_3  and  N_4
    7  A    between atoms: C_3  and  C_12
    8  A    between atoms: N_6  and  C_12
    9  A    between atoms: N_11  and  C_14
   10  A    between atoms: C_14  and  C_22
                            x       y       z     vdW  Elec       q    Type
                         _______ _______ _______ _____ _____    ______ ____

>  <TORSDO>
F 10

$$$$
=
 OpenBabel11052420403D

 43 49  0  0  1  0  0  0  0  0999 V2000
  185.4790  177.8380  146.1910 C   0  0  0  0  0  0  0  0  0  0  0  0
  188.5960  175.6370  142.8540 C   0  0  0  0  0  0  0  0  0  0  0  0
  191.0760  175.3230  144.1460 C   0  0  0  0  0  0  0  0  0  0  0  0
  186.4340  176.8300  144.2030 C   0  0  0  0  0  0  0  0  0  0  0  0
  186.7030  177.7050  146.8530 C   0  0  0  0  0  3  0  0  0  0  0  0
  184.1110  178.5500  147.0210 Cl  0  0  0  0  0  0  0  0  0  0  0  0
  187.6780  176.6880  144.8670 C   0  0  0  0  0  0  0  0  0  0  0  0
  185.3460  177.4030  144.8680 C   0  0  0  0  0  3  0  0  0  0  0  0
  187.7960  177.1340  146.1960 C   0  0  0  0  0  3  0  0  0  0  0  0
  190.0100  175.9400  144.8130 C   0  0  0  0  0  3  0  0  0  0  0  0
  188.7640  176.0940  144.1890 C   0  0  0  0  0  0  0  0  0  0  0  0
  187.3580  175.7990  142.2180 C   0  0  0  0  0  3  0  0  0  0  0  0
  189.6680  175.0230  142.1780 C   0  0  0  0  0  0  0  0  0  0  0  0
  190.8980  174.8730  142.8350 C   0  0  0  0  0  3  0  0  0  0  0  0
  186.2870  176.3930  142.8860 C   0  0  0  0  0  3  0  0  0  0  0  0
  189.5070  174.5700  140.8260 N   0  0  0  0  0  2  0  0  0  0  0  0
  188.2080  173.3610  138.3720 C   0  0  0  0  0  2  0  0  0  0  0  0
  189.4750  173.2710  137.5220 C   0  0  1  0  0  0  0  0  0  0  0  0
  189.3300  172.3820  136.4440 O   0  0  0  0  0  0  0  0  0  0  0  0
  190.9080  173.0780  139.5170 C   0  0  0  0  0  3  0  0  0  0  0  0
  188.4310  172.6570  139.7150 C   0  0  0  0  0  2  0  0  0  0  0  0
  189.6960  173.1830  140.4120 C   0  0  2  0  0  3  0  0  0  0  0  0
  189.4250  173.7550  136.1310 C   0  0  0  0  0  2  0  0  0  0  0  0
  190.8160  173.1410  138.1800 C   0  0  0  0  0  3  0  0  0  0  0  0
  192.4240  175.1620  144.7960 C   0  0  1  0  0  3  0  0  0  0  0  0
  192.8870  176.4960  145.3730 C   0  0  0  0  0  2  0  0  0  0  0  0
  192.8420  176.4540  146.8890 C   0  0  0  0  0  1  0  0  0  0  0  0
  192.3920  174.1490  145.8470 N   0  0  0  0  0  2  0  0  0  0  0  0
  193.5370  173.2730  145.6430 C   0  0  0  0  0  2  0  0  0  0  0  0
  193.1850  172.2340  144.5930 C   0  0  0  0  0  2  0  0  0  0  0  0
  194.3560  171.4310  144.2730 N   0  0  0  0  0  0  0  0  0  0  0  0
  196.2410  171.1340  145.7800 C   0  0  0  0  0  2  0  0  0  0  0  0
  194.2100  170.1740  144.9960 C   0  0  0  0  0  2  0  0  0  0  0  0
  195.5150  172.1070  144.8580 C   0  0  1  0  0  3  0  0  0  0  0  0
  195.5650  169.8070  145.5620 C   0  0  0  0  0  2  0  0  0  0  0  0
  196.4300  172.6410  143.7520 C   0  0  2  0  0  3  0  0  0  0  0  0
  197.7790  172.4500  144.0770 O   0  0  0  0  0  1  0  0  0  0  0  0
  196.1560  174.0520  143.4960 N   0  0  0  0  0  0  0  0  0  0  0  0
  197.0700  177.1980  143.1360 F   0  0  0  0  0  0  0  0  0  0  0  0
  195.2810  175.8370  142.4370 C   0  0  0  0  0  3  0  0  0  0  0  0
  196.0400  176.3980  143.5990 C   0  0  1  0  0  3  0  0  0  0  0  0
  195.3730  174.5210  142.4150 C   0  0  0  0  0  3  0  0  0  0  0  0
  196.6230  175.1690  144.2940 C   0  0  0  0  0  2  0  0  0  0  0  0
  1  5  1  0  0  0  0
  1  6  1  0  0  0  0
  2 11  1  0  0  0  0
  3 25  1  0  0  0  0
  3 10  1  0  0  0  0
  4  7  2  0  0  0  0
  4  8  1  0  0  0  0
  7  9  1  0  0  0  0
  8  1  2  0  0  0  0
  9  5  2  0  0  0  0
 11 10  2  0  0  0  0
 11  7  1  0  0  0  0
 12  2  1  0  0  0  0
 12 15  2  0  0  0  0
 13 14  1  0  0  0  0
 13  2  2  0  0  0  0
 14  3  2  0  0  0  0
 15  4  1  0  0  0  0
 16 13  1  0  0  0  0
 17 21  1  0  0  0  0
 18 23  1  6  0  0  0
 18 24  1  0  0  0  0
 18 17  1  0  0  0  0
 19 18  1  0  0  0  0
 20 22  1  0  0  0  0
 21 22  1  0  0  0  0
 22 16  1  6  0  0  0
 23 19  1  0  0  0  0
 24 20  2  0  0  0  0
 25 26  1  1  0  0  0
 25 28  1  0  0  0  0
 26 27  1  0  0  0  0
 29 28  1  0  0  0  0
 30 29  1  0  0  0  0
 31 30  1  0  0  0  0
 31 34  1  0  0  0  0
 31 33  1  0  0  0  0
 33 35  1  0  0  0  0
 34 36  1  6  0  0  0
 34 32  1  0  0  0  0
 35 32  1  0  0  0  0
 36 37  1  1  0  0  0
 38 36  1  0  0  0  0
 38 43  1  0  0  0  0
 40 41  1  0  0  0  0
 41 39  1  6  0  0  0
 41 43  1  0  0  0  0
 42 40  2  0  0  0  0
 42 38  1  0  0  0  0
M  END
>  <MODEL>
8

>  <REMARK>
 VINA RESULT:      -7.1      3.291      5.928
  Name = 
  10 active torsions:
  status: ('A' for Active; 'I' for Inactive)
    1  A    between atoms: N_1  and  C_34
    2  A    between atoms: N_1  and  C_35
    3  A    between atoms: C_2  and  N_6
    4  A    between atoms: C_2  and  C_7
    5  A    between atoms: C_2  and  C_13
    6  A    between atoms: C_3  and  N_4
    7  A    between atoms: C_3  and  C_12
    8  A    between atoms: N_6  and  C_12
    9  A    between atoms: N_11  and  C_14
   10  A    between atoms: C_14  and  C_22
                            x       y       z     vdW  Elec       q    Type
                         _______ _______ _______ _____ _____    ______ ____

>  <TORSDO>
F 10

$$$$
=
 OpenBabel11052420403D

 43 49  0  0  1  0  0  0  0  0999 V2000
  187.6010  176.3350  146.5380 C   0  0  0  0  0  0  0  0  0  0  0  0
  189.9410  174.0630  142.6590 C   0  0  0  0  0  0  0  0  0  0  0  0
  191.7640  172.2320  143.7720 C   0  0  0  0  0  0  0  0  0  0  0  0
  188.3360  175.6600  144.3280 C   0  0  0  0  0  0  0  0  0  0  0  0
  188.5060  175.4420  147.1180 C   0  0  0  0  0  3  0  0  0  0  0  0
  186.5690  177.3170  147.5570 Cl  0  0  0  0  0  0  0  0  0  0  0  0
  189.2540  174.7490  144.9070 C   0  0  0  0  0  0  0  0  0  0  0  0
  187.5180  176.4450  145.1460 C   0  0  0  0  0  3  0  0  0  0  0  0
  189.3280  174.6540  146.3090 C   0  0  0  0  0  3  0  0  0  0  0  0
  190.9850  173.0420  144.6070 C   0  0  0  0  0  3  0  0  0  0  0  0
  190.0630  173.9510  144.0700 C   0  0  0  0  0  0  0  0  0  0  0  0
  189.0320  174.9790  142.1130 C   0  0  0  0  0  3  0  0  0  0  0  0
  190.7290  173.2550  141.8160 C   0  0  0  0  0  0  0  0  0  0  0  0
  191.6330  172.3460  142.3850 C   0  0  0  0  0  3  0  0  0  0  0  0
  188.2370  175.7720  142.9410 C   0  0  0  0  0  3  0  0  0  0  0  0
  190.6190  173.3720  140.3900 N   0  0  0  0  0  2  0  0  0  0  0  0
  188.8250  173.9380  138.0170 C   0  0  0  0  0  2  0  0  0  0  0  0
  189.8440  173.5870  136.9320 C   0  0  1  0  0  0  0  0  0  0  0  0
  189.2360  173.3490  135.6880 O   0  0  0  0  0  0  0  0  0  0  0  0
  191.0160  172.0090  138.4180 C   0  0  0  0  0  3  0  0  0  0  0  0
  188.6830  172.7680  138.9950 C   0  0  0  0  0  2  0  0  0  0  0  0
  190.0540  172.3300  139.5370 C   0  0  2  0  0  3  0  0  0  0  0  0
  190.0190  174.5180  135.8040 C   0  0  0  0  0  2  0  0  0  0  0  0
  190.9390  172.6040  137.2180 C   0  0  0  0  0  3  0  0  0  0  0  0
  192.7690  171.2600  144.3320 C   0  0  1  0  0  3  0  0  0  0  0  0
  192.6320  169.9090  143.6350 C   0  0  0  0  0  2  0  0  0  0  0  0
  193.0950  168.7970  144.5570 C   0  0  0  0  0  1  0  0  0  0  0  0
  194.1330  171.7590  144.1870 N   0  0  0  0  0  2  0  0  0  0  0  0
  194.6370  172.0460  145.5220 C   0  0  0  0  0  2  0  0  0  0  0  0
  195.1150  173.4860  145.5730 C   0  0  0  0  0  2  0  0  0  0  0  0
  195.3350  173.9870  144.2240 N   0  0  0  0  0  0  0  0  0  0  0  0
  195.8600  176.3050  143.7140 C   0  0  0  0  0  2  0  0  0  0  0  0
  196.7760  174.1380  144.0650 C   0  0  0  0  0  2  0  0  0  0  0  0
  194.7740  175.3370  144.1680 C   0  0  1  0  0  3  0  0  0  0  0  0
  197.0260  175.4350  143.3270 C   0  0  0  0  0  2  0  0  0  0  0  0
  193.5550  175.3650  143.2410 C   0  0  2  0  0  3  0  0  0  0  0  0
  193.9440  175.5010  141.9020 O   0  0  0  0  0  1  0  0  0  0  0  0
  192.6430  176.4390  143.6240 N   0  0  0  0  0  0  0  0  0  0  0  0
  189.8790  178.2000  143.2820 F   0  0  0  0  0  0  0  0  0  0  0  0
  191.4050  177.7140  145.0070 C   0  0  0  0  0  3  0  0  0  0  0  0
  191.2100  178.3030  143.6440 C   0  0  1  0  0  3  0  0  0  0  0  0
  192.2120  176.6730  144.9510 C   0  0  0  0  0  3  0  0  0  0  0  0
  192.0570  177.4180  142.7300 C   0  0  0  0  0  2  0  0  0  0  0  0
  1  5  1  0  0  0  0
  1  6  1  0  0  0  0
  2 11  1  0  0  0  0
  3 25  1  0  0  0  0
  3 10  1  0  0  0  0
  4  7  2  0  0  0  0
  4  8  1  0  0  0  0
  7  9  1  0  0  0  0
  8  1  2  0  0  0  0
  9  5  2  0  0  0  0
 11 10  2  0  0  0  0
 11  7  1  0  0  0  0
 12  2  1  0  0  0  0
 12 15  2  0  0  0  0
 13 14  1  0  0  0  0
 13  2  2  0  0  0  0
 14  3  2  0  0  0  0
 15  4  1  0  0  0  0
 16 13  1  0  0  0  0
 17 21  1  0  0  0  0
 18 23  1  6  0  0  0
 18 24  1  0  0  0  0
 18 17  1  0  0  0  0
 19 23  1  0  0  0  0
 19 18  1  0  0  0  0
 20 22  1  0  0  0  0
 21 22  1  0  0  0  0
 22 16  1  6  0  0  0
 24 20  2  0  0  0  0
 25 26  1  6  0  0  0
 26 27  1  0  0  0  0
 28 25  1  0  0  0  0
 28 29  1  0  0  0  0
 29 30  1  0  0  0  0
 31 30  1  0  0  0  0
 32 34  1  0  0  0  0
 33 31  1  0  0  0  0
 34 36  1  6  0  0  0
 34 31  1  0  0  0  0
 35 32  1  0  0  0  0
 35 33  1  0  0  0  0
 36 37  1  6  0  0  0
 36 38  1  0  0  0  0
 38 42  1  0  0  0  0
 41 39  1  6  0  0  0
 41 40  1  0  0  0  0
 42 40  2  0  0  0  0
 43 38  1  0  0  0  0
 43 41  1  0  0  0  0
M  END
>  <MODEL>
9

>  <REMARK>
 VINA RESULT:      -7.1      3.236      6.093
  Name = 
  10 active torsions:
  status: ('A' for Active; 'I' for Inactive)
    1  A    between atoms: N_1  and  C_34
    2  A    between atoms: N_1  and  C_35
    3  A    between atoms: C_2  and  N_6
    4  A    between atoms: C_2  and  C_7
    5  A    between atoms: C_2  and  C_13
    6  A    between atoms: C_3  and  N_4
    7  A    between atoms: C_3  and  C_12
    8  A    between atoms: N_6  and  C_12
    9  A    between atoms: N_11  and  C_14
   10  A    between atoms: C_14  and  C_22
                            x       y       z     vdW  Elec       q    Type
                         _______ _______ _______ _____ _____    ______ ____

>  <TORSDO>
F 10

$$$$
