=
 OpenBabel11052417493D

 31 34  0  0  1  0  0  0  0  0999 V2000
  191.3040  171.0420  142.2480 C   0  0  0  0  0  0  0  0  0  0  0  0
  190.3070  174.6080  143.0800 C   0  0  0  0  0  0  0  0  0  0  0  0
  190.4260  173.2870  142.4130 C   0  0  0  0  0  0  0  0  0  0  0  0
  190.6200  170.8650  141.0860 N   0  0  0  0  0  0  0  0  0  0  0  0
  188.3760  175.1010  141.6830 C   0  0  1  0  0  3  0  0  0  0  0  0
  192.1050  169.9900  142.7690 N   0  0  0  0  0  1  0  0  0  0  0  0
  188.9560  174.1960  140.5900 C   0  0  0  0  0  2  0  0  0  0  0  0
  189.3910  175.4450  142.6810 N   0  0  0  0  0  0  0  0  0  0  0  0
  191.2240  172.2590  142.9300 C   0  0  0  0  0  3  0  0  0  0  0  0
  189.7290  173.0760  141.2120 C   0  0  0  0  0  0  0  0  0  0  0  0
  189.8490  171.8510  140.5540 C   0  0  0  0  0  3  0  0  0  0  0  0
  191.2390  175.0210  144.1530 C   0  0  0  0  0  0  0  0  0  0  0  0
  193.5700  175.7560  144.8070 C   0  0  0  0  0  2  0  0  0  0  0  0
  192.4890  175.7570  143.7330 C   0  0  0  0  0  2  0  0  0  0  0  0
  192.9580  176.2150  146.1170 C   0  0  0  0  0  2  0  0  0  0  0  0
  191.9110  175.2010  146.5590 C   0  0  0  0  0  2  0  0  0  0  0  0
  190.9370  174.8420  145.4640 C   0  0  0  0  0  0  0  0  0  0  0  0
  189.6550  174.1920  145.8950 C   0  0  0  0  0  2  0  0  0  0  0  0
  188.1060  175.4450  147.2200 O   0  0  0  0  0  1  0  0  0  0  0  0
  189.2470  174.6440  147.2890 C   0  0  0  0  0  2  0  0  0  0  0  0
  187.7960  176.3720  141.0840 C   0  0  0  0  0  2  0  0  0  0  0  0
  188.9430  178.3130  141.7990 O   0  0  0  0  0  0  0  0  0  0  0  0
  187.9810  177.5300  142.0140 C   0  0  0  0  0  0  0  0  0  0  0  0
  185.1620  178.1850  145.2030 C   0  0  0  0  0  0  0  0  0  0  0  0
  185.6670  177.8470  142.8660 C   0  0  0  0  0  3  0  0  0  0  0  0
  188.8990  177.8190  144.9050 C   0  0  0  0  0  1  0  0  0  0  0  0
  184.1720  178.4110  146.2870 C   0  0  0  0  0  1  0  0  0  0  0  0
  184.7350  178.0590  143.8830 C   0  0  0  0  0  3  0  0  0  0  0  0
  187.4650  177.8880  144.4950 C   0  0  0  0  0  0  0  0  0  0  0  0
  187.0420  177.7570  143.1460 C   0  0  0  0  0  0  0  0  0  0  0  0
  186.5210  178.1010  145.5060 C   0  0  0  0  0  3  0  0  0  0  0  0
  1  6  1  0  0  0  0
  1  9  1  0  0  0  0
  2 12  1  0  0  0  0
  3  9  2  0  0  0  0
  3  2  1  0  0  0  0
  4  1  2  0  0  0  0
  5 21  1  6  0  0  0
  5  8  1  0  0  0  0
  7 10  1  0  0  0  0
  7  5  1  0  0  0  0
  8  2  2  0  0  0  0
 10  3  1  0  0  0  0
 11  4  1  0  0  0  0
 11 10  2  0  0  0  0
 12 17  2  0  0  0  0
 13 15  1  0  0  0  0
 14 12  1  0  0  0  0
 14 13  1  0  0  0  0
 15 16  1  0  0  0  0
 17 18  1  0  0  0  0
 17 16  1  0  0  0  0
 18 20  1  0  0  0  0
 19 20  1  0  0  0  0
 21 23  1  0  0  0  0
 22 23  2  0  0  0  0
 23 30  1  0  0  0  0
 24 31  1  0  0  0  0
 24 27  1  0  0  0  0
 25 30  2  0  0  0  0
 25 28  1  0  0  0  0
 28 24  2  0  0  0  0
 29 26  1  0  0  0  0
 29 31  2  0  0  0  0
 30 29  1  0  0  0  0
M  END
>  <MODEL>
1

>  <REMARK>
 VINA RESULT:      -7.7      0.000      0.000
  Name = 
  6 active torsions:
  status: ('A' for Active; 'I' for Inactive)
    1  A    between atoms: C_4  and  C_5
    2  A    between atoms: C_9  and  C_22
    3  A    between atoms: C_9  and  C_23
    4  A    between atoms: C_15  and  C_23
    5  A    between atoms: C_29  and  C_31
    6  A    between atoms: C_30  and  C_31
                            x       y       z     vdW  Elec       q    Type
                         _______ _______ _______ _____ _____    ______ ____

>  <TORSDO>
F 6

$$$$
=
 OpenBabel11052417493D

 31 34  0  0  1  0  0  0  0  0999 V2000
  192.6430  171.4750  144.2620 C   0  0  0  0  0  0  0  0  0  0  0  0
  191.6570  175.1390  144.3480 C   0  0  0  0  0  0  0  0  0  0  0  0
  191.6800  173.6820  144.0630 C   0  0  0  0  0  0  0  0  0  0  0  0
  191.6680  170.9810  143.4540 N   0  0  0  0  0  0  0  0  0  0  0  0
  189.3720  175.2300  143.5160 C   0  0  1  0  0  3  0  0  0  0  0  0
  193.6400  170.6070  144.7850 N   0  0  0  0  0  1  0  0  0  0  0  0
  189.6780  174.0480  142.5910 C   0  0  0  0  0  2  0  0  0  0  0  0
  190.6030  175.8350  144.0300 N   0  0  0  0  0  0  0  0  0  0  0  0
  192.6710  172.8360  144.5760 C   0  0  0  0  0  3  0  0  0  0  0  0
  190.6830  173.1440  143.2330 C   0  0  0  0  0  0  0  0  0  0  0  0
  190.7010  171.7810  142.9300 C   0  0  0  0  0  3  0  0  0  0  0  0
  192.8250  175.8310  144.9360 C   0  0  0  0  0  0  0  0  0  0  0  0
  195.1800  176.7040  144.6320 C   0  0  0  0  0  2  0  0  0  0  0  0
  193.8380  176.4090  143.9750 C   0  0  0  0  0  2  0  0  0  0  0  0
  194.9420  177.5190  145.8890 C   0  0  0  0  0  2  0  0  0  0  0  0
  194.1520  176.6790  146.8830 C   0  0  0  0  0  2  0  0  0  0  0  0
  192.9330  176.0320  146.2730 C   0  0  0  0  0  0  0  0  0  0  0  0
  191.8870  175.5400  147.2300 C   0  0  0  0  0  2  0  0  0  0  0  0
  190.2230  177.2580  147.1680 O   0  0  0  0  0  1  0  0  0  0  0  0
  191.2210  176.6940  147.9640 C   0  0  0  0  0  2  0  0  0  0  0  0
  188.5460  176.2840  142.7960 C   0  0  0  0  0  2  0  0  0  0  0  0
  186.2830  175.5960  142.7510 O   0  0  0  0  0  0  0  0  0  0  0  0
  187.1460  176.3140  143.3220 C   0  0  0  0  0  0  0  0  0  0  0  0
  186.1600  178.6480  146.8040 C   0  0  0  0  0  0  0  0  0  0  0  0
  187.0160  176.6340  145.7840 C   0  0  0  0  0  3  0  0  0  0  0  0
  185.9420  179.1020  143.0720 C   0  0  0  0  0  1  0  0  0  0  0  0
  185.8270  179.4350  148.0190 C   0  0  0  0  0  1  0  0  0  0  0  0
  186.7050  177.3720  146.9270 C   0  0  0  0  0  3  0  0  0  0  0  0
  186.2330  178.4550  144.3850 C   0  0  0  0  0  0  0  0  0  0  0  0
  186.7900  177.1550  144.4980 C   0  0  0  0  0  0  0  0  0  0  0  0
  185.9250  179.1860  145.5380 C   0  0  0  0  0  3  0  0  0  0  0  0
  1  9  1  0  0  0  0
  1  6  1  0  0  0  0
  2 12  1  0  0  0  0
  3  2  1  0  0  0  0
  3  9  2  0  0  0  0
  4  1  2  0  0  0  0
  5 21  1  6  0  0  0
  5  8  1  0  0  0  0
  7 10  1  0  0  0  0
  7  5  1  0  0  0  0
  8  2  2  0  0  0  0
 10  3  1  0  0  0  0
 11 10  2  0  0  0  0
 11  4  1  0  0  0  0
 12 17  2  0  0  0  0
 13 15  1  0  0  0  0
 14 13  1  0  0  0  0
 14 12  1  0  0  0  0
 15 16  1  0  0  0  0
 17 16  1  0  0  0  0
 17 18  1  0  0  0  0
 18 20  1  0  0  0  0
 19 20  1  0  0  0  0
 21 23  1  0  0  0  0
 22 23  2  0  0  0  0
 23 30  1  0  0  0  0
 24 28  1  0  0  0  0
 24 27  1  0  0  0  0
 25 28  2  0  0  0  0
 26 29  1  0  0  0  0
 29 30  2  0  0  0  0
 29 31  1  0  0  0  0
 30 25  1  0  0  0  0
 31 24  2  0  0  0  0
M  END
>  <MODEL>
2

>  <REMARK>
 VINA RESULT:      -7.6      1.798      2.465
  Name = 
  6 active torsions:
  status: ('A' for Active; 'I' for Inactive)
    1  A    between atoms: C_4  and  C_5
    2  A    between atoms: C_9  and  C_22
    3  A    between atoms: C_9  and  C_23
    4  A    between atoms: C_15  and  C_23
    5  A    between atoms: C_29  and  C_31
    6  A    between atoms: C_30  and  C_31
                            x       y       z     vdW  Elec       q    Type
                         _______ _______ _______ _____ _____    ______ ____

>  <TORSDO>
F 6

$$$$
=
 OpenBabel11052417493D

 31 34  0  0  1  0  0  0  0  0999 V2000
  191.1240  171.3940  142.7960 C   0  0  0  0  0  0  0  0  0  0  0  0
  189.4500  174.6490  143.8000 C   0  0  0  0  0  0  0  0  0  0  0  0
  189.9010  173.4650  143.0250 C   0  0  0  0  0  0  0  0  0  0  0  0
  190.7250  171.3070  141.4990 N   0  0  0  0  0  0  0  0  0  0  0  0
  187.7900  175.1000  142.0780 C   0  0  1  0  0  3  0  0  0  0  0  0
  191.9530  170.3830  143.3540 N   0  0  0  0  0  1  0  0  0  0  0  0
  188.7100  174.4450  141.0420 C   0  0  0  0  0  2  0  0  0  0  0  0
  188.5180  175.4160  143.3090 N   0  0  0  0  0  0  0  0  0  0  0  0
  190.7240  172.4790  143.5810 C   0  0  0  0  0  3  0  0  0  0  0  0
  189.5020  173.3490  141.6840 C   0  0  0  0  0  0  0  0  0  0  0  0
  189.9370  172.2580  140.9290 C   0  0  0  0  0  3  0  0  0  0  0  0
  190.0720  175.0110  145.0930 C   0  0  0  0  0  0  0  0  0  0  0  0
  189.8420  175.2060  147.6050 C   0  0  0  0  0  2  0  0  0  0  0  0
  189.4300  174.4580  146.3440 C   0  0  0  0  0  2  0  0  0  0  0  0
  191.3560  175.3040  147.6430 C   0  0  0  0  0  2  0  0  0  0  0  0
  191.8290  176.1490  146.4670 C   0  0  0  0  0  2  0  0  0  0  0  0
  191.2260  175.7210  145.1520 C   0  0  0  0  0  0  0  0  0  0  0  0
  191.9200  176.1990  143.9110 C   0  0  0  0  0  2  0  0  0  0  0  0
  190.7810  178.3010  144.0140 O   0  0  0  0  0  1  0  0  0  0  0  0
  192.0420  177.7160  143.8940 C   0  0  0  0  0  2  0  0  0  0  0  0
  187.1580  176.3650  141.5180 C   0  0  0  0  0  2  0  0  0  0  0  0
  188.4150  178.3150  141.9810 O   0  0  0  0  0  0  0  0  0  0  0  0
  187.4940  177.5490  142.3700 C   0  0  0  0  0  0  0  0  0  0  0  0
  185.4510  178.3070  146.0840 C   0  0  0  0  0  0  0  0  0  0  0  0
  187.4390  177.7100  144.8500 C   0  0  0  0  0  3  0  0  0  0  0  0
  184.5460  178.3170  142.4280 C   0  0  0  0  0  1  0  0  0  0  0  0
  184.7670  178.5640  147.3770 C   0  0  0  0  0  1  0  0  0  0  0  0
  186.7980  177.9510  146.0660 C   0  0  0  0  0  3  0  0  0  0  0  0
  185.3770  178.1810  143.6600 C   0  0  0  0  0  0  0  0  0  0  0  0
  186.7490  177.8200  143.6290 C   0  0  0  0  0  0  0  0  0  0  0  0
  184.7450  178.4200  144.8860 C   0  0  0  0  0  3  0  0  0  0  0  0
  1  6  1  0  0  0  0
  1  9  1  0  0  0  0
  2 12  1  0  0  0  0
  3  9  2  0  0  0  0
  3  2  1  0  0  0  0
  4  1  2  0  0  0  0
  5 21  1  6  0  0  0
  5  8  1  0  0  0  0
  7 10  1  0  0  0  0
  7  5  1  0  0  0  0
  8  2  2  0  0  0  0
 10  3  1  0  0  0  0
 11  4  1  0  0  0  0
 11 10  2  0  0  0  0
 12 17  2  0  0  0  0
 12 14  1  0  0  0  0
 13 15  1  0  0  0  0
 14 13  1  0  0  0  0
 16 15  1  0  0  0  0
 17 16  1  0  0  0  0
 18 17  1  0  0  0  0
 20 18  1  0  0  0  0
 20 19  1  0  0  0  0
 21 23  1  0  0  0  0
 22 23  2  0  0  0  0
 23 30  1  0  0  0  0
 24 27  1  0  0  0  0
 25 28  2  0  0  0  0
 26 29  1  0  0  0  0
 28 24  1  0  0  0  0
 29 31  1  0  0  0  0
 30 29  2  0  0  0  0
 30 25  1  0  0  0  0
 31 24  2  0  0  0  0
M  END
>  <MODEL>
3

>  <REMARK>
 VINA RESULT:      -7.4      1.268      2.397
  Name = 
  6 active torsions:
  status: ('A' for Active; 'I' for Inactive)
    1  A    between atoms: C_4  and  C_5
    2  A    between atoms: C_9  and  C_22
    3  A    between atoms: C_9  and  C_23
    4  A    between atoms: C_15  and  C_23
    5  A    between atoms: C_29  and  C_31
    6  A    between atoms: C_30  and  C_31
                            x       y       z     vdW  Elec       q    Type
                         _______ _______ _______ _____ _____    ______ ____

>  <TORSDO>
F 6

$$$$
=
 OpenBabel11052417493D

 31 34  0  0  1  0  0  0  0  0999 V2000
  194.4770  175.3810  145.1650 C   0  0  0  0  0  0  0  0  0  0  0  0
  190.8080  174.5130  144.7310 C   0  0  0  0  0  0  0  0  0  0  0  0
  192.0810  175.0820  145.2420 C   0  0  0  0  0  0  0  0  0  0  0  0
  194.4120  176.1560  146.2810 N   0  0  0  0  0  0  0  0  0  0  0  0
  189.5840  176.0880  146.1260 C   0  0  1  0  0  3  0  0  0  0  0  0
  195.7320  175.1310  144.5460 N   0  0  0  0  0  1  0  0  0  0  0  0
  190.7500  176.0900  147.1200 C   0  0  0  0  0  2  0  0  0  0  0  0
  189.6760  174.9560  145.2010 N   0  0  0  0  0  0  0  0  0  0  0  0
  193.3130  174.8240  144.6290 C   0  0  0  0  0  3  0  0  0  0  0  0
  192.0420  175.8880  146.3910 C   0  0  0  0  0  0  0  0  0  0  0  0
  193.2300  176.4120  146.9050 C   0  0  0  0  0  3  0  0  0  0  0  0
  190.7940  173.4160  143.7380 C   0  0  0  0  0  0  0  0  0  0  0  0
  191.5020  171.0660  143.1260 C   0  0  0  0  0  2  0  0  0  0  0  0
  191.1160  172.0280  144.2410 C   0  0  0  0  0  2  0  0  0  0  0  0
  190.4480  171.1300  142.0360 C   0  0  0  0  0  2  0  0  0  0  0  0
  190.4530  172.5250  141.4230 C   0  0  0  0  0  2  0  0  0  0  0  0
  190.4070  173.6250  142.4540 C   0  0  0  0  0  0  0  0  0  0  0  0
  189.9990  174.9830  141.9660 C   0  0  0  0  0  2  0  0  0  0  0  0
  187.6830  174.5750  142.4110 O   0  0  0  0  0  1  0  0  0  0  0  0
  188.5800  174.9710  141.4170 C   0  0  0  0  0  2  0  0  0  0  0  0
  188.2510  176.0460  146.8540 C   0  0  0  0  0  2  0  0  0  0  0  0
  187.5160  178.1780  147.5710 O   0  0  0  0  0  0  0  0  0  0  0  0
  187.4920  177.3200  146.6490 C   0  0  0  0  0  0  0  0  0  0  0  0
  185.4570  178.0440  142.9240 C   0  0  0  0  0  0  0  0  0  0  0  0
  187.4820  177.6930  144.1910 C   0  0  0  0  0  3  0  0  0  0  0  0
  184.4590  177.5870  146.5270 C   0  0  0  0  0  1  0  0  0  0  0  0
  184.7760  178.2930  141.6270 C   0  0  0  0  0  1  0  0  0  0  0  0
  186.8440  177.9270  142.9720 C   0  0  0  0  0  3  0  0  0  0  0  0
  185.3350  177.6910  145.3230 C   0  0  0  0  0  0  0  0  0  0  0  0
  186.7480  177.5700  145.3840 C   0  0  0  0  0  0  0  0  0  0  0  0
  184.7070  177.9260  144.0940 C   0  0  0  0  0  3  0  0  0  0  0  0
  1  4  1  0  0  0  0
  2  8  2  0  0  0  0
  2  3  1  0  0  0  0
  3 10  2  0  0  0  0
  4 11  2  0  0  0  0
  5 21  1  1  0  0  0
  5  7  1  0  0  0  0
  6  1  1  0  0  0  0
  8  5  1  0  0  0  0
  9  1  2  0  0  0  0
  9  3  1  0  0  0  0
 10 11  1  0  0  0  0
 10  7  1  0  0  0  0
 12 14  1  0  0  0  0
 12  2  1  0  0  0  0
 13 14  1  0  0  0  0
 15 13  1  0  0  0  0
 16 15  1  0  0  0  0
 16 17  1  0  0  0  0
 17 12  2  0  0  0  0
 18 17  1  0  0  0  0
 20 18  1  0  0  0  0
 20 19  1  0  0  0  0
 23 21  1  0  0  0  0
 23 22  2  0  0  0  0
 24 28  2  0  0  0  0
 24 31  1  0  0  0  0
 25 30  2  0  0  0  0
 27 24  1  0  0  0  0
 28 25  1  0  0  0  0
 29 30  1  0  0  0  0
 29 26  1  0  0  0  0
 30 23  1  0  0  0  0
 31 29  2  0  0  0  0
M  END
>  <MODEL>
4

>  <REMARK>
 VINA RESULT:      -7.3      2.137      4.940
  Name = 
  6 active torsions:
  status: ('A' for Active; 'I' for Inactive)
    1  A    between atoms: C_4  and  C_5
    2  A    between atoms: C_9  and  C_22
    3  A    between atoms: C_9  and  C_23
    4  A    between atoms: C_15  and  C_23
    5  A    between atoms: C_29  and  C_31
    6  A    between atoms: C_30  and  C_31
                            x       y       z     vdW  Elec       q    Type
                         _______ _______ _______ _____ _____    ______ ____

>  <TORSDO>
F 6

$$$$
=
 OpenBabel11052417493D

 31 34  0  0  1  0  0  0  0  0999 V2000
  185.5460  178.0450  141.6180 C   0  0  0  0  0  0  0  0  0  0  0  0
  187.9750  175.8740  143.5630 C   0  0  0  0  0  0  0  0  0  0  0  0
  187.0390  176.9590  143.1760 C   0  0  0  0  0  0  0  0  0  0  0  0
  185.3310  179.0380  142.5220 N   0  0  0  0  0  0  0  0  0  0  0  0
  187.8140  176.6070  145.8780 C   0  0  1  0  0  3  0  0  0  0  0  0
  184.8960  178.0830  140.3540 N   0  0  0  0  0  1  0  0  0  0  0  0
  187.5410  178.0340  145.3910 C   0  0  0  0  0  2  0  0  0  0  0  0
  188.3600  175.7750  144.8040 N   0  0  0  0  0  0  0  0  0  0  0  0
  186.4090  176.9910  141.9260 C   0  0  0  0  0  3  0  0  0  0  0  0
  186.7970  177.9950  144.0920 C   0  0  0  0  0  0  0  0  0  0  0  0
  185.9400  179.0400  143.7390 C   0  0  0  0  0  3  0  0  0  0  0  0
  188.5260  174.9330  142.5620 C   0  0  0  0  0  0  0  0  0  0  0  0
  188.3150  172.7230  141.3490 C   0  0  0  0  0  2  0  0  0  0  0  0
  187.5870  173.8850  142.0130 C   0  0  0  0  0  2  0  0  0  0  0  0
  189.3190  173.2770  140.3560 C   0  0  0  0  0  2  0  0  0  0  0  0
  190.3760  174.0730  141.1100 C   0  0  0  0  0  2  0  0  0  0  0  0
  189.7880  175.0670  142.0800 C   0  0  0  0  0  0  0  0  0  0  0  0
  190.6990  176.1600  142.5550 C   0  0  0  0  0  2  0  0  0  0  0  0
  192.9860  176.7920  142.8660 O   0  0  0  0  0  1  0  0  0  0  0  0
  192.1620  175.7730  142.3880 C   0  0  0  0  0  2  0  0  0  0  0  0
  188.7720  176.6120  147.0590 C   0  0  0  0  0  2  0  0  0  0  0  0
  188.9410  174.3000  147.5310 O   0  0  0  0  0  0  0  0  0  0  0  0
  189.5410  175.3300  147.1250 C   0  0  0  0  0  0  0  0  0  0  0  0
  193.6950  175.2750  145.9900 C   0  0  0  0  0  0  0  0  0  0  0  0
  191.8590  176.2210  147.2400 C   0  0  0  0  0  3  0  0  0  0  0  0
  190.6180  173.2700  145.1540 C   0  0  0  0  0  1  0  0  0  0  0  0
  195.1320  175.2750  145.6130 C   0  0  0  0  0  1  0  0  0  0  0  0
  193.2090  176.2230  146.8880 C   0  0  0  0  0  3  0  0  0  0  0  0
  191.4740  174.3140  145.7900 C   0  0  0  0  0  0  0  0  0  0  0  0
  190.9680  175.2740  146.7050 C   0  0  0  0  0  0  0  0  0  0  0  0
  192.8300  174.3260  145.4440 C   0  0  0  0  0  3  0  0  0  0  0  0
  1  9  2  0  0  0  0
  1  4  1  0  0  0  0
  2  8  2  0  0  0  0
  3  2  1  0  0  0  0
  3 10  2  0  0  0  0
  4 11  2  0  0  0  0
  5 21  1  1  0  0  0
  6  1  1  0  0  0  0
  7  5  1  0  0  0  0
  8  5  1  0  0  0  0
  9  3  1  0  0  0  0
 10  7  1  0  0  0  0
 11 10  1  0  0  0  0
 12  2  1  0  0  0  0
 13 14  1  0  0  0  0
 14 12  1  0  0  0  0
 15 16  1  0  0  0  0
 15 13  1  0  0  0  0
 16 17  1  0  0  0  0
 17 18  1  0  0  0  0
 17 12  2  0  0  0  0
 20 18  1  0  0  0  0
 20 19  1  0  0  0  0
 21 23  1  0  0  0  0
 23 22  2  0  0  0  0
 24 28  1  0  0  0  0
 26 29  1  0  0  0  0
 27 24  1  0  0  0  0
 28 25  2  0  0  0  0
 29 30  2  0  0  0  0
 30 23  1  0  0  0  0
 30 25  1  0  0  0  0
 31 29  1  0  0  0  0
 31 24  2  0  0  0  0
M  END
>  <MODEL>
5

>  <REMARK>
 VINA RESULT:      -7.3      2.465      6.884
  Name = 
  6 active torsions:
  status: ('A' for Active; 'I' for Inactive)
    1  A    between atoms: C_4  and  C_5
    2  A    between atoms: C_9  and  C_22
    3  A    between atoms: C_9  and  C_23
    4  A    between atoms: C_15  and  C_23
    5  A    between atoms: C_29  and  C_31
    6  A    between atoms: C_30  and  C_31
                            x       y       z     vdW  Elec       q    Type
                         _______ _______ _______ _____ _____    ______ ____

>  <TORSDO>
F 6

$$$$
=
 OpenBabel11052417493D

 31 34  0  0  1  0  0  0  0  0999 V2000
  195.6770  174.1550  144.0820 C   0  0  0  0  0  0  0  0  0  0  0  0
  191.9060  173.8900  144.4130 C   0  0  0  0  0  0  0  0  0  0  0  0
  193.3320  174.2230  144.6590 C   0  0  0  0  0  0  0  0  0  0  0  0
  195.9710  174.8570  145.2100 N   0  0  0  0  0  0  0  0  0  0  0  0
  191.2690  175.5400  146.0850 C   0  0  1  0  0  3  0  0  0  0  0  0
  196.7210  173.7570  143.2020 N   0  0  0  0  0  1  0  0  0  0  0  0
  192.5990  175.2990  146.8070 C   0  0  0  0  0  2  0  0  0  0  0  0
  190.9830  174.4690  145.1280 N   0  0  0  0  0  0  0  0  0  0  0  0
  194.3530  173.8200  143.7900 C   0  0  0  0  0  3  0  0  0  0  0  0
  193.6630  174.9490  145.8140 C   0  0  0  0  0  0  0  0  0  0  0  0
  195.0010  175.2510  146.0780 C   0  0  0  0  0  3  0  0  0  0  0  0
  191.5090  172.8740  143.4130 C   0  0  0  0  0  0  0  0  0  0  0  0
  191.6460  170.4760  142.6180 C   0  0  0  0  0  2  0  0  0  0  0  0
  191.6530  171.4240  143.8110 C   0  0  0  0  0  2  0  0  0  0  0  0
  190.4430  170.7930  141.7480 C   0  0  0  0  0  2  0  0  0  0  0  0
  190.5970  172.1980  141.1810 C   0  0  0  0  0  2  0  0  0  0  0  0
  190.9430  173.2250  142.2310 C   0  0  0  0  0  0  0  0  0  0  0  0
  190.7130  174.6610  141.8640 C   0  0  0  0  0  2  0  0  0  0  0  0
  188.5410  174.5100  142.8560 O   0  0  0  0  0  1  0  0  0  0  0  0
  189.2290  174.9690  141.7320 C   0  0  0  0  0  2  0  0  0  0  0  0
  190.1250  175.6560  147.0790 C   0  0  0  0  0  2  0  0  0  0  0  0
  189.8270  177.9340  147.6440 O   0  0  0  0  0  0  0  0  0  0  0  0
  189.4270  176.9720  146.9360 C   0  0  0  0  0  0  0  0  0  0  0  0
  186.0960  177.4180  144.2430 C   0  0  0  0  0  0  0  0  0  0  0  0
  187.0020  176.8450  146.4070 C   0  0  0  0  0  3  0  0  0  0  0  0
  189.8250  177.9150  144.0660 C   0  0  0  0  0  1  0  0  0  0  0  0
  184.9320  177.5640  143.3320 C   0  0  0  0  0  1  0  0  0  0  0  0
  185.9070  176.9820  145.5530 C   0  0  0  0  0  3  0  0  0  0  0  0
  188.4870  177.5830  144.6360 C   0  0  0  0  0  0  0  0  0  0  0  0
  188.3060  177.1410  145.9720 C   0  0  0  0  0  0  0  0  0  0  0  0
  187.3810  177.7160  143.7880 C   0  0  0  0  0  3  0  0  0  0  0  0
  1  4  1  0  0  0  0
  2  3  1  0  0  0  0
  2  8  2  0  0  0  0
  3 10  2  0  0  0  0
  4 11  2  0  0  0  0
  5  7  1  0  0  0  0
  5 21  1  1  0  0  0
  6  1  1  0  0  0  0
  8  5  1  0  0  0  0
  9  1  2  0  0  0  0
  9  3  1  0  0  0  0
 10 11  1  0  0  0  0
 10  7  1  0  0  0  0
 12 14  1  0  0  0  0
 12  2  1  0  0  0  0
 13 14  1  0  0  0  0
 15 13  1  0  0  0  0
 16 15  1  0  0  0  0
 16 17  1  0  0  0  0
 17 12  2  0  0  0  0
 18 17  1  0  0  0  0
 20 18  1  0  0  0  0
 20 19  1  0  0  0  0
 23 21  1  0  0  0  0
 23 22  2  0  0  0  0
 24 28  1  0  0  0  0
 26 29  1  0  0  0  0
 27 24  1  0  0  0  0
 28 25  2  0  0  0  0
 29 30  2  0  0  0  0
 30 25  1  0  0  0  0
 30 23  1  0  0  0  0
 31 24  2  0  0  0  0
 31 29  1  0  0  0  0
M  END
>  <MODEL>
6

>  <REMARK>
 VINA RESULT:      -7.2      2.307      4.923
  Name = 
  6 active torsions:
  status: ('A' for Active; 'I' for Inactive)
    1  A    between atoms: C_4  and  C_5
    2  A    between atoms: C_9  and  C_22
    3  A    between atoms: C_9  and  C_23
    4  A    between atoms: C_15  and  C_23
    5  A    between atoms: C_29  and  C_31
    6  A    between atoms: C_30  and  C_31
                            x       y       z     vdW  Elec       q    Type
                         _______ _______ _______ _____ _____    ______ ____

>  <TORSDO>
F 6

$$$$
=
 OpenBabel11052417493D

 31 34  0  0  1  0  0  0  0  0999 V2000
  191.7370  171.1570  143.2430 C   0  0  0  0  0  0  0  0  0  0  0  0
  189.9630  174.4530  143.8650 C   0  0  0  0  0  0  0  0  0  0  0  0
  190.4830  173.2220  143.2190 C   0  0  0  0  0  0  0  0  0  0  0  0
  191.4420  170.9660  141.9290 N   0  0  0  0  0  0  0  0  0  0  0  0
  188.4390  174.7510  141.9900 C   0  0  1  0  0  3  0  0  0  0  0  0
  192.5290  170.2020  143.9380 N   0  0  0  0  0  1  0  0  0  0  0  0
  189.4420  174.0330  141.0810 C   0  0  0  0  0  2  0  0  0  0  0  0
  189.0660  175.1680  143.2460 N   0  0  0  0  0  0  0  0  0  0  0  0
  191.2690  172.2910  143.9100 C   0  0  0  0  0  3  0  0  0  0  0  0
  190.1910  172.9990  141.8640 C   0  0  0  0  0  0  0  0  0  0  0  0
  190.6920  171.8610  141.2290 C   0  0  0  0  0  3  0  0  0  0  0  0
  190.4790  174.9200  145.1710 C   0  0  0  0  0  0  0  0  0  0  0  0
  190.0560  175.2910  147.6370 C   0  0  0  0  0  2  0  0  0  0  0  0
  189.7520  174.4460  146.4070 C   0  0  0  0  0  2  0  0  0  0  0  0
  191.5610  175.4220  147.7820 C   0  0  0  0  0  2  0  0  0  0  0  0
  192.1090  176.1890  146.5860 C   0  0  0  0  0  2  0  0  0  0  0  0
  191.6150  175.6560  145.2640 C   0  0  0  0  0  0  0  0  0  0  0  0
  192.3950  176.0570  144.0470 C   0  0  0  0  0  2  0  0  0  0  0  0
  194.6570  175.9440  143.2740 O   0  0  0  0  0  1  0  0  0  0  0  0
  193.6430  175.2020  143.8820 C   0  0  0  0  0  2  0  0  0  0  0  0
  187.8420  175.9600  141.2900 C   0  0  0  0  0  2  0  0  0  0  0  0
  189.0470  177.9120  141.8690 O   0  0  0  0  0  0  0  0  0  0  0  0
  188.0370  177.1980  142.1070 C   0  0  0  0  0  0  0  0  0  0  0  0
  185.0980  178.2910  145.0590 C   0  0  0  0  0  0  0  0  0  0  0  0
  185.6930  177.6190  142.8170 C   0  0  0  0  0  3  0  0  0  0  0  0
  188.8440  177.9140  144.9570 C   0  0  0  0  0  1  0  0  0  0  0  0
  184.0660  178.6650  146.0600 C   0  0  0  0  0  1  0  0  0  0  0  0
  184.7220  177.9690  143.7560 C   0  0  0  0  0  3  0  0  0  0  0  0
  187.4270  177.9120  144.4880 C   0  0  0  0  0  0  0  0  0  0  0  0
  187.0560  177.5810  143.1590 C   0  0  0  0  0  0  0  0  0  0  0  0
  186.4450  178.2620  145.4210 C   0  0  0  0  0  3  0  0  0  0  0  0
  1  9  1  0  0  0  0
  1  6  1  0  0  0  0
  2 12  1  0  0  0  0
  3  2  1  0  0  0  0
  3  9  2  0  0  0  0
  4  1  2  0  0  0  0
  5 21  1  6  0  0  0
  5  8  1  0  0  0  0
  7 10  1  0  0  0  0
  7  5  1  0  0  0  0
  8  2  2  0  0  0  0
 10  3  1  0  0  0  0
 11 10  2  0  0  0  0
 11  4  1  0  0  0  0
 12 17  2  0  0  0  0
 12 14  1  0  0  0  0
 13 15  1  0  0  0  0
 14 13  1  0  0  0  0
 16 15  1  0  0  0  0
 17 16  1  0  0  0  0
 18 17  1  0  0  0  0
 19 20  1  0  0  0  0
 20 18  1  0  0  0  0
 21 23  1  0  0  0  0
 22 23  2  0  0  0  0
 23 30  1  0  0  0  0
 24 31  1  0  0  0  0
 24 27  1  0  0  0  0
 25 30  2  0  0  0  0
 25 28  1  0  0  0  0
 28 24  2  0  0  0  0
 29 26  1  0  0  0  0
 29 31  2  0  0  0  0
 30 29  1  0  0  0  0
M  END
>  <MODEL>
7

>  <REMARK>
 VINA RESULT:      -7.2      1.363      2.278
  Name = 
  6 active torsions:
  status: ('A' for Active; 'I' for Inactive)
    1  A    between atoms: C_4  and  C_5
    2  A    between atoms: C_9  and  C_22
    3  A    between atoms: C_9  and  C_23
    4  A    between atoms: C_15  and  C_23
    5  A    between atoms: C_29  and  C_31
    6  A    between atoms: C_30  and  C_31
                            x       y       z     vdW  Elec       q    Type
                         _______ _______ _______ _____ _____    ______ ____

>  <TORSDO>
F 6

$$$$
=
 OpenBabel11052417493D

 31 34  0  0  1  0  0  0  0  0999 V2000
  195.9890  176.1050  143.9200 C   0  0  0  0  0  0  0  0  0  0  0  0
  193.0160  174.1820  145.2860 C   0  0  0  0  0  0  0  0  0  0  0  0
  194.0190  175.2450  145.0230 C   0  0  0  0  0  0  0  0  0  0  0  0
  195.8670  177.2670  144.6170 N   0  0  0  0  0  0  0  0  0  0  0  0
  191.6060  175.8330  146.3850 C   0  0  1  0  0  3  0  0  0  0  0  0
  197.0560  175.9410  142.9950 N   0  0  0  0  0  1  0  0  0  0  0  0
  192.8600  176.6210  146.7760 C   0  0  0  0  0  2  0  0  0  0  0  0
  191.9440  174.4700  145.9680 N   0  0  0  0  0  0  0  0  0  0  0  0
  195.0710  175.0700  144.1160 C   0  0  0  0  0  3  0  0  0  0  0  0
  193.9150  176.4550  145.7270 C   0  0  0  0  0  0  0  0  0  0  0  0
  194.8630  177.4580  145.5150 C   0  0  0  0  0  3  0  0  0  0  0  0
  193.2300  172.7870  144.8390 C   0  0  0  0  0  0  0  0  0  0  0  0
  194.6960  170.7260  144.8670 C   0  0  0  0  0  2  0  0  0  0  0  0
  194.2180  171.9570  145.6250 C   0  0  0  0  0  2  0  0  0  0  0  0
  193.4870  169.9710  144.3460 C   0  0  0  0  0  2  0  0  0  0  0  0
  192.7560  170.8440  143.3330 C   0  0  0  0  0  2  0  0  0  0  0  0
  192.4980  172.2430  143.8360 C   0  0  0  0  0  0  0  0  0  0  0  0
  191.4510  173.0330  143.1080 C   0  0  0  0  0  2  0  0  0  0  0  0
  189.7190  172.2290  144.5510 O   0  0  0  0  0  1  0  0  0  0  0  0
  190.0850  172.3700  143.2110 C   0  0  0  0  0  2  0  0  0  0  0  0
  190.6150  175.7840  147.5370 C   0  0  0  0  0  2  0  0  0  0  0  0
  188.9340  174.1520  147.2110 O   0  0  0  0  0  0  0  0  0  0  0  0
  189.2630  175.3580  147.0580 C   0  0  0  0  0  0  0  0  0  0  0  0
  186.5250  178.2280  145.3820 C   0  0  0  0  0  0  0  0  0  0  0  0
  187.5370  177.1330  147.2810 C   0  0  0  0  0  3  0  0  0  0  0  0
  188.9840  175.7090  144.0440 C   0  0  0  0  0  1  0  0  0  0  0  0
  185.5740  179.2250  144.8260 C   0  0  0  0  0  1  0  0  0  0  0  0
  186.6430  178.0700  146.7610 C   0  0  0  0  0  3  0  0  0  0  0  0
  188.2000  176.5060  145.0330 C   0  0  0  0  0  0  0  0  0  0  0  0
  188.3300  176.3370  146.4360 C   0  0  0  0  0  0  0  0  0  0  0  0
  187.3000  177.4490  144.5230 C   0  0  0  0  0  3  0  0  0  0  0  0
  1  9  2  0  0  0  0
  1  4  1  0  0  0  0
  2  8  2  0  0  0  0
  3  2  1  0  0  0  0
  3 10  2  0  0  0  0
  4 11  2  0  0  0  0
  5  7  1  0  0  0  0
  5 21  1  1  0  0  0
  6  1  1  0  0  0  0
  8  5  1  0  0  0  0
  9  3  1  0  0  0  0
 10  7  1  0  0  0  0
 11 10  1  0  0  0  0
 12  2  1  0  0  0  0
 12 14  1  0  0  0  0
 13 14  1  0  0  0  0
 15 13  1  0  0  0  0
 16 17  1  0  0  0  0
 16 15  1  0  0  0  0
 17 12  2  0  0  0  0
 18 20  1  0  0  0  0
 18 17  1  0  0  0  0
 20 19  1  0  0  0  0
 23 22  2  0  0  0  0
 23 21  1  0  0  0  0
 24 28  1  0  0  0  0
 26 29  1  0  0  0  0
 27 24  1  0  0  0  0
 28 25  2  0  0  0  0
 29 30  2  0  0  0  0
 30 23  1  0  0  0  0
 30 25  1  0  0  0  0
 31 29  1  0  0  0  0
 31 24  2  0  0  0  0
M  END
>  <MODEL>
8

>  <REMARK>
 VINA RESULT:      -7.2      2.850      5.339
  Name = 
  6 active torsions:
  status: ('A' for Active; 'I' for Inactive)
    1  A    between atoms: C_4  and  C_5
    2  A    between atoms: C_9  and  C_22
    3  A    between atoms: C_9  and  C_23
    4  A    between atoms: C_15  and  C_23
    5  A    between atoms: C_29  and  C_31
    6  A    between atoms: C_30  and  C_31
                            x       y       z     vdW  Elec       q    Type
                         _______ _______ _______ _____ _____    ______ ____

>  <TORSDO>
F 6

$$$$
=
 OpenBabel11052417493D

 31 34  0  0  1  0  0  0  0  0999 V2000
  186.8920  177.2090  141.2190 C   0  0  0  0  0  0  0  0  0  0  0  0
  188.2030  175.8930  144.5280 C   0  0  0  0  0  0  0  0  0  0  0  0
  187.9120  176.0570  143.0820 C   0  0  0  0  0  0  0  0  0  0  0  0
  187.3890  176.2680  140.3710 N   0  0  0  0  0  0  0  0  0  0  0  0
  189.9360  174.2810  143.9620 C   0  0  1  0  0  3  0  0  0  0  0  0
  186.1160  178.2850  140.7090 N   0  0  0  0  0  1  0  0  0  0  0  0
  189.1530  173.9060  142.7000 C   0  0  0  0  0  2  0  0  0  0  0  0
  189.0990  175.0240  144.9050 N   0  0  0  0  0  0  0  0  0  0  0  0
  187.1400  177.1160  142.5900 C   0  0  0  0  0  3  0  0  0  0  0  0
  188.4140  175.1010  142.1840 C   0  0  0  0  0  0  0  0  0  0  0  0
  188.1300  175.2210  140.8220 C   0  0  0  0  0  3  0  0  0  0  0  0
  187.4630  176.6550  145.5580 C   0  0  0  0  0  0  0  0  0  0  0  0
  185.2410  177.5170  146.4070 C   0  0  0  0  0  2  0  0  0  0  0  0
  185.9740  176.4140  145.6550 C   0  0  0  0  0  2  0  0  0  0  0  0
  185.9440  177.7590  147.7300 C   0  0  0  0  0  2  0  0  0  0  0  0
  187.3480  178.2850  147.4560 C   0  0  0  0  0  2  0  0  0  0  0  0
  188.1030  177.4560  146.4470 C   0  0  0  0  0  0  0  0  0  0  0  0
  189.5930  177.6320  146.4170 C   0  0  0  0  0  2  0  0  0  0  0  0
  190.4450  175.9690  147.9120 O   0  0  0  0  0  1  0  0  0  0  0  0
  190.2130  177.3380  147.7750 C   0  0  0  0  0  2  0  0  0  0  0  0
  190.4950  173.0410  144.6410 C   0  0  0  0  0  2  0  0  0  0  0  0
  192.5790  171.9610  144.3480 O   0  0  0  0  0  0  0  0  0  0  0  0
  191.9910  173.0440  144.6060 C   0  0  0  0  0  0  0  0  0  0  0  0
  194.1870  176.6510  145.4510 C   0  0  0  0  0  0  0  0  0  0  0  0
  192.9050  174.7380  146.1790 C   0  0  0  0  0  3  0  0  0  0  0  0
  193.2440  174.6970  142.3730 C   0  0  0  0  0  1  0  0  0  0  0  0
  194.9400  177.8920  145.7670 C   0  0  0  0  0  1  0  0  0  0  0  0
  193.6130  175.9040  146.4770 C   0  0  0  0  0  3  0  0  0  0  0  0
  193.3460  175.0660  143.8160 C   0  0  0  0  0  0  0  0  0  0  0  0
  192.7580  174.2960  144.8520 C   0  0  0  0  0  0  0  0  0  0  0  0
  194.0520  176.2340  144.1270 C   0  0  0  0  0  3  0  0  0  0  0  0
  1  9  1  0  0  0  0
  2  8  2  0  0  0  0
  2 12  1  0  0  0  0
  3  2  1  0  0  0  0
  4 11  1  0  0  0  0
  4  1  2  0  0  0  0
  5 21  1  1  0  0  0
  5  8  1  0  0  0  0
  6  1  1  0  0  0  0
  7  5  1  0  0  0  0
  9  3  2  0  0  0  0
 10  7  1  0  0  0  0
 10  3  1  0  0  0  0
 11 10  2  0  0  0  0
 12 14  1  0  0  0  0
 12 17  2  0  0  0  0
 13 15  1  0  0  0  0
 14 13  1  0  0  0  0
 16 15  1  0  0  0  0
 17 16  1  0  0  0  0
 18 17  1  0  0  0  0
 18 20  1  0  0  0  0
 20 19  1  0  0  0  0
 22 23  2  0  0  0  0
 23 21  1  0  0  0  0
 23 30  1  0  0  0  0
 24 27  1  0  0  0  0
 24 28  1  0  0  0  0
 25 28  2  0  0  0  0
 26 29  1  0  0  0  0
 29 31  1  0  0  0  0
 29 30  2  0  0  0  0
 30 25  1  0  0  0  0
 31 24  2  0  0  0  0
M  END
>  <MODEL>
9

>  <REMARK>
 VINA RESULT:      -7.0      2.595      6.384
  Name = 
  6 active torsions:
  status: ('A' for Active; 'I' for Inactive)
    1  A    between atoms: C_4  and  C_5
    2  A    between atoms: C_9  and  C_22
    3  A    between atoms: C_9  and  C_23
    4  A    between atoms: C_15  and  C_23
    5  A    between atoms: C_29  and  C_31
    6  A    between atoms: C_30  and  C_31
                            x       y       z     vdW  Elec       q    Type
                         _______ _______ _______ _____ _____    ______ ____

>  <TORSDO>
F 6

$$$$
