=
 OpenBabel11052421363D

 32 37  0  0  1  0  0  0  0  0999 V2000
  182.9160  178.4650  141.7980 C   0  0  0  0  0  0  0  0  0  0  0  0
  187.8210  177.7200  142.3430 C   0  0  0  0  0  0  0  0  0  0  0  0
  188.5420  177.7440  147.2420 C   0  0  0  0  0  2  0  0  0  0  0  0
  189.7330  176.8290  147.0200 C   0  0  0  0  0  2  0  0  0  0  0  0
  185.6710  178.0810  141.4300 C   0  0  0  0  0  0  0  0  0  0  0  0
  185.9390  177.9270  143.8020 N   0  0  0  0  0  0  0  0  0  0  0  0
  183.7500  178.2890  142.9070 C   0  0  0  0  0  3  0  0  0  0  0  0
  187.5150  177.5060  146.1410 C   0  0  0  0  0  2  0  0  0  0  0  0
  187.2790  177.7390  143.6450 C   0  0  0  0  0  0  0  0  0  0  0  0
  188.1200  177.5650  144.7590 C   0  0  0  0  0  0  0  0  0  0  0  0
  190.0360  177.3340  143.2550 C   0  0  0  0  0  0  0  0  0  0  0  0
  183.4670  178.4480  140.5040 C   0  0  0  0  0  3  0  0  0  0  0  0
  185.1230  178.0980  142.7300 C   0  0  0  0  0  0  0  0  0  0  0  0
  184.8400  178.2550  140.3210 C   0  0  0  0  0  3  0  0  0  0  0  0
  190.4470  177.2320  145.7350 C   0  0  0  0  0  2  0  0  0  0  0  0
  189.5060  177.3460  144.5600 C   0  0  0  0  0  0  0  0  0  0  0  0
  187.0050  177.8920  141.2700 N   0  0  0  0  0  0  0  0  0  0  0  0
  189.1870  177.5210  142.1570 C   0  0  0  0  0  3  0  0  0  0  0  0
  181.5470  178.6550  142.0070 O   0  0  0  0  0  0  0  0  0  0  0  0
  180.5650  178.2730  141.0520 C   0  0  0  0  0  2  0  0  0  0  0  0
  178.2510  177.4740  141.0070 C   0  0  0  0  0  2  0  0  0  0  0  0
  178.8300  177.1830  142.2550 O   0  0  0  0  0  0  0  0  0  0  0  0
  179.1870  178.4080  141.6650 C   0  0  1  0  0  3  0  0  0  0  0  0
  191.4440  177.1470  143.0580 N   0  0  0  0  0  2  0  0  0  0  0  0
  192.1190  175.8630  143.1990 C   0  0  2  0  0  3  0  0  0  0  0  0
  194.1060  175.4710  144.7450 C   0  0  1  0  0  3  0  0  0  0  0  0
  193.1030  174.8180  145.4680 O   0  0  0  0  0  1  0  0  0  0  0  0
  193.6120  176.0680  143.4690 C   0  0  2  0  0  3  0  0  0  0  0  0
  193.7860  176.8360  144.6350 O   0  0  0  0  0  0  0  0  0  0  0  0
  191.9020  175.0130  141.9500 C   0  0  0  0  0  2  0  0  0  0  0  0
  190.8660  173.5490  142.2780 S   0  0  0  0  0  0  0  0  0  0  0  0
  189.6770  174.0210  140.9930 C   0  0  0  0  0  1  0  0  0  0  0  0
  1 19  1  0  0  0  0
  1  7  1  0  0  0  0
  2  9  1  0  0  0  0
  4  3  1  0  0  0  0
  5 13  1  0  0  0  0
  8  3  1  0  0  0  0
  9  6  2  0  0  0  0
  9 10  1  0  0  0  0
 10  8  1  0  0  0  0
 11 16  1  0  0  0  0
 12  1  2  0  0  0  0
 13  7  2  0  0  0  0
 13  6  1  0  0  0  0
 14 12  1  0  0  0  0
 14  5  2  0  0  0  0
 15  4  1  0  0  0  0
 16 10  2  0  0  0  0
 16 15  1  0  0  0  0
 17  5  1  0  0  0  0
 17  2  2  0  0  0  0
 18  2  1  0  0  0  0
 18 11  2  0  0  0  0
 20 19  1  0  0  0  0
 21 23  1  0  0  0  0
 21 22  1  0  0  0  0
 23 20  1  6  0  0  0
 23 22  1  0  0  0  0
 24 25  1  0  0  0  0
 24 11  1  0  0  0  0
 25 30  1  6  0  0  0
 26 27  1  1  0  0  0
 28 25  1  1  0  0  0
 28 29  1  0  0  0  0
 28 26  1  0  0  0  0
 29 26  1  0  0  0  0
 30 31  1  0  0  0  0
 32 31  1  0  0  0  0
M  END
>  <MODEL>
1

>  <REMARK>
 VINA RESULT:      -7.1      0.000      0.000
  Name = 
  8 active torsions:
  status: ('A' for Active; 'I' for Inactive)
    1  A    between atoms: C_2  and  O_24
    2  A    between atoms: S_6  and  C_7
    3  A    between atoms: C_7  and  C_32
    4  A    between atoms: C_10  and  C_20
    5  A    between atoms: C_10  and  O_24
    6  A    between atoms: C_16  and  N_27
    7  A    between atoms: C_22  and  C_32
    8  A    between atoms: N_27  and  C_32
                            x       y       z     vdW  Elec       q    Type
                         _______ _______ _______ _____ _____    ______ ____

>  <TORSDO>
F 8

$$$$
=
 OpenBabel11052421363D

 32 37  0  0  1  0  0  0  0  0999 V2000
  184.1130  178.6340  143.2970 C   0  0  0  0  0  0  0  0  0  0  0  0
  188.5350  176.5660  144.3390 C   0  0  0  0  0  0  0  0  0  0  0  0
  188.7580  172.5760  141.4140 C   0  0  0  0  0  2  0  0  0  0  0  0
  190.2700  172.7160  141.4230 C   0  0  0  0  0  2  0  0  0  0  0  0
  186.6260  177.9610  144.3460 C   0  0  0  0  0  0  0  0  0  0  0  0
  186.7610  176.1480  142.7920 N   0  0  0  0  0  0  0  0  0  0  0  0
  184.8180  177.5440  142.7750 C   0  0  0  0  0  3  0  0  0  0  0  0
  188.1250  173.9520  141.5890 C   0  0  0  0  0  2  0  0  0  0  0  0
  187.9830  175.8040  143.2880 C   0  0  0  0  0  0  0  0  0  0  0  0
  188.6910  174.7080  142.7670 C   0  0  0  0  0  0  0  0  0  0  0  0
  190.5100  175.1580  144.3400 C   0  0  0  0  0  0  0  0  0  0  0  0
  184.6720  179.3840  144.3460 C   0  0  0  0  0  3  0  0  0  0  0  0
  186.0700  177.2050  143.2940 C   0  0  0  0  0  0  0  0  0  0  0  0
  185.9250  179.0490  144.8690 C   0  0  0  0  0  3  0  0  0  0  0  0
  190.7260  173.1770  142.8030 C   0  0  0  0  0  2  0  0  0  0  0  0
  189.9720  174.3930  143.2870 C   0  0  0  0  0  0  0  0  0  0  0  0
  187.8440  177.6230  144.8410 N   0  0  0  0  0  0  0  0  0  0  0  0
  189.7860  176.2390  144.8560 C   0  0  0  0  0  3  0  0  0  0  0  0
  182.8630  178.9490  142.7570 O   0  0  0  0  0  0  0  0  0  0  0  0
  182.3050  178.2480  141.6530 C   0  0  0  0  0  2  0  0  0  0  0  0
  179.8740  178.0560  141.4340 C   0  0  0  0  0  2  0  0  0  0  0  0
  180.1900  179.1030  142.3180 O   0  0  0  0  0  0  0  0  0  0  0  0
  181.0350  178.9410  141.2050 C   0  0  1  0  0  3  0  0  0  0  0  0
  191.7900  174.8160  144.8890 N   0  0  0  0  0  2  0  0  0  0  0  0
  193.0130  175.5610  144.6180 C   0  0  2  0  0  3  0  0  0  0  0  0
  194.2390  176.7360  146.5190 C   0  0  1  0  0  3  0  0  0  0  0  0
  195.0120  175.5750  146.4120 O   0  0  0  0  0  1  0  0  0  0  0  0
  193.1130  176.7810  145.5390 C   0  0  2  0  0  3  0  0  0  0  0  0
  192.9240  176.3870  146.8770 O   0  0  0  0  0  0  0  0  0  0  0  0
  193.0620  175.9800  143.1510 C   0  0  0  0  0  2  0  0  0  0  0  0
  194.7460  175.8880  142.4590 S   0  0  0  0  0  0  0  0  0  0  0  0
  194.9980  174.2200  143.1240 C   0  0  0  0  0  1  0  0  0  0  0  0
  1 12  1  0  0  0  0
  2 17  2  0  0  0  0
  2 18  1  0  0  0  0
  3  4  1  0  0  0  0
  3  8  1  0  0  0  0
  4 15  1  0  0  0  0
  5 17  1  0  0  0  0
  5 14  1  0  0  0  0
  6  9  2  0  0  0  0
  6 13  1  0  0  0  0
  7 13  1  0  0  0  0
  7  1  2  0  0  0  0
  8 10  1  0  0  0  0
  9  2  1  0  0  0  0
 10 16  2  0  0  0  0
 10  9  1  0  0  0  0
 11 18  2  0  0  0  0
 11 24  1  0  0  0  0
 12 14  2  0  0  0  0
 13  5  2  0  0  0  0
 15 16  1  0  0  0  0
 16 11  1  0  0  0  0
 19  1  1  0  0  0  0
 20 19  1  0  0  0  0
 21 22  1  0  0  0  0
 23 21  1  0  0  0  0
 23 20  1  1  0  0  0
 23 22  1  0  0  0  0
 25 30  1  6  0  0  0
 25 24  1  0  0  0  0
 26 27  1  6  0  0  0
 26 29  1  0  0  0  0
 28 25  1  6  0  0  0
 28 26  1  0  0  0  0
 28 29  1  0  0  0  0
 31 32  1  0  0  0  0
 31 30  1  0  0  0  0
M  END
>  <MODEL>
2

>  <REMARK>
 VINA RESULT:      -6.8      1.956      3.535
  Name = 
  8 active torsions:
  status: ('A' for Active; 'I' for Inactive)
    1  A    between atoms: C_2  and  O_24
    2  A    between atoms: S_6  and  C_7
    3  A    between atoms: C_7  and  C_32
    4  A    between atoms: C_10  and  C_20
    5  A    between atoms: C_10  and  O_24
    6  A    between atoms: C_16  and  N_27
    7  A    between atoms: C_22  and  C_32
    8  A    between atoms: N_27  and  C_32
                            x       y       z     vdW  Elec       q    Type
                         _______ _______ _______ _____ _____    ______ ____

>  <TORSDO>
F 8

$$$$
=
 OpenBabel11052421363D

 32 37  0  0  1  0  0  0  0  0999 V2000
  183.6470  178.2530  141.7420 C   0  0  0  0  0  0  0  0  0  0  0  0
  188.4970  177.3610  142.5160 C   0  0  0  0  0  0  0  0  0  0  0  0
  189.0030  177.4460  147.4410 C   0  0  0  0  0  2  0  0  0  0  0  0
  190.1720  176.4900  147.2870 C   0  0  0  0  0  2  0  0  0  0  0  0
  186.4010  177.7750  141.5040 C   0  0  0  0  0  0  0  0  0  0  0  0
  186.5600  177.6530  143.8870 N   0  0  0  0  0  0  0  0  0  0  0  0
  184.4260  178.0700  142.8900 C   0  0  0  0  0  3  0  0  0  0  0  0
  188.0170  177.2230  146.2990 C   0  0  0  0  0  2  0  0  0  0  0  0
  187.8990  177.4200  143.7930 C   0  0  0  0  0  0  0  0  0  0  0  0
  188.6840  177.2390  144.9450 C   0  0  0  0  0  0  0  0  0  0  0  0
  190.6560  176.9200  143.5320 C   0  0  0  0  0  0  0  0  0  0  0  0
  184.2540  178.1960  140.4750 C   0  0  0  0  0  3  0  0  0  0  0  0
  185.7980  177.8310  142.7770 C   0  0  0  0  0  0  0  0  0  0  0  0
  185.6260  177.9560  140.3560 C   0  0  0  0  0  3  0  0  0  0  0  0
  190.9540  176.8480  146.0290 C   0  0  0  0  0  2  0  0  0  0  0  0
  190.0700  176.9720  144.8110 C   0  0  0  0  0  0  0  0  0  0  0  0
  187.7350  177.5400  141.4060 N   0  0  0  0  0  0  0  0  0  0  0  0
  189.8620  177.1160  142.3940 C   0  0  0  0  0  3  0  0  0  0  0  0
  182.2770  178.4900  141.8880 O   0  0  0  0  0  0  0  0  0  0  0  0
  181.3860  178.5450  140.7810 C   0  0  0  0  0  2  0  0  0  0  0  0
  179.0090  177.9680  140.6830 C   0  0  0  0  0  2  0  0  0  0  0  0
  179.4830  177.8100  141.9980 O   0  0  0  0  0  0  0  0  0  0  0  0
  179.9970  178.8970  141.2690 C   0  0  1  0  0  3  0  0  0  0  0  0
  192.0640  176.6850  143.4000 N   0  0  0  0  0  2  0  0  0  0  0  0
  192.6360  175.6450  142.5540 C   0  0  2  0  0  3  0  0  0  0  0  0
  192.2270  173.1730  143.0210 C   0  0  1  0  0  3  0  0  0  0  0  0
  191.3310  173.3720  141.9660 O   0  0  0  0  0  1  0  0  0  0  0  0
  192.9840  174.4080  143.3870 C   0  0  2  0  0  3  0  0  0  0  0  0
  191.8530  173.9840  144.1090 O   0  0  0  0  0  0  0  0  0  0  0  0
  193.8670  176.1760  141.8250 C   0  0  0  0  0  2  0  0  0  0  0  0
  195.3870  176.0040  142.8170 S   0  0  0  0  0  0  0  0  0  0  0  0
  196.4120  176.6800  141.4830 C   0  0  0  0  0  1  0  0  0  0  0  0
  1 19  1  0  0  0  0
  1  7  1  0  0  0  0
  2  9  1  0  0  0  0
  4  3  1  0  0  0  0
  5 13  1  0  0  0  0
  8  3  1  0  0  0  0
  9  6  2  0  0  0  0
  9 10  1  0  0  0  0
 10  8  1  0  0  0  0
 11 16  1  0  0  0  0
 12  1  2  0  0  0  0
 13  7  2  0  0  0  0
 13  6  1  0  0  0  0
 14 12  1  0  0  0  0
 14  5  2  0  0  0  0
 15  4  1  0  0  0  0
 16 10  2  0  0  0  0
 16 15  1  0  0  0  0
 17  5  1  0  0  0  0
 17  2  2  0  0  0  0
 18  2  1  0  0  0  0
 18 11  2  0  0  0  0
 20 19  1  0  0  0  0
 21 23  1  0  0  0  0
 21 22  1  0  0  0  0
 23 20  1  6  0  0  0
 23 22  1  0  0  0  0
 24 11  1  0  0  0  0
 25 30  1  1  0  0  0
 25 24  1  0  0  0  0
 26 27  1  6  0  0  0
 26 28  1  0  0  0  0
 26 29  1  0  0  0  0
 28 25  1  6  0  0  0
 28 29  1  0  0  0  0
 30 31  1  0  0  0  0
 32 31  1  0  0  0  0
M  END
>  <MODEL>
3

>  <REMARK>
 VINA RESULT:      -6.7      1.637      2.127
  Name = 
  8 active torsions:
  status: ('A' for Active; 'I' for Inactive)
    1  A    between atoms: C_2  and  O_24
    2  A    between atoms: S_6  and  C_7
    3  A    between atoms: C_7  and  C_32
    4  A    between atoms: C_10  and  C_20
    5  A    between atoms: C_10  and  O_24
    6  A    between atoms: C_16  and  N_27
    7  A    between atoms: C_22  and  C_32
    8  A    between atoms: N_27  and  C_32
                            x       y       z     vdW  Elec       q    Type
                         _______ _______ _______ _____ _____    ______ ____

>  <TORSDO>
F 8

$$$$
=
 OpenBabel11052421363D

 32 37  0  0  1  0  0  0  0  0999 V2000
  181.2520  178.9860  141.5950 C   0  0  0  0  0  0  0  0  0  0  0  0
  185.8560  177.7200  143.0520 C   0  0  0  0  0  0  0  0  0  0  0  0
  186.0930  179.1450  147.7880 C   0  0  0  0  0  2  0  0  0  0  0  0
  187.1080  178.0390  148.0180 C   0  0  0  0  0  2  0  0  0  0  0  0
  183.9090  178.1000  141.7660 C   0  0  0  0  0  0  0  0  0  0  0  0
  183.9140  178.6460  144.0940 N   0  0  0  0  0  0  0  0  0  0  0  0
  181.9290  179.0380  142.8190 C   0  0  0  0  0  3  0  0  0  0  0  0
  185.1510  178.7360  146.6620 C   0  0  0  0  0  2  0  0  0  0  0  0
  185.2050  178.2210  144.1990 C   0  0  0  0  0  0  0  0  0  0  0  0
  185.8860  178.2760  145.4270 C   0  0  0  0  0  0  0  0  0  0  0  0
  187.8620  177.3090  144.3540 C   0  0  0  0  0  0  0  0  0  0  0  0
  181.9130  178.4880  140.4580 C   0  0  0  0  0  3  0  0  0  0  0  0
  183.2520  178.5980  142.9090 C   0  0  0  0  0  0  0  0  0  0  0  0
  183.2370  178.0460  140.5430 C   0  0  0  0  0  3  0  0  0  0  0  0
  188.0050  177.9150  146.7920 C   0  0  0  0  0  2  0  0  0  0  0  0
  187.2200  177.8010  145.5070 C   0  0  0  0  0  0  0  0  0  0  0  0
  185.1940  177.6730  141.8660 N   0  0  0  0  0  0  0  0  0  0  0  0
  187.1720  177.2730  143.1350 C   0  0  0  0  0  3  0  0  0  0  0  0
  179.9300  179.4330  141.5350 O   0  0  0  0  0  0  0  0  0  0  0  0
  178.8630  178.6150  141.0750 C   0  0  0  0  0  2  0  0  0  0  0  0
  177.7920  177.1760  142.7410 C   0  0  0  0  0  2  0  0  0  0  0  0
  178.4130  178.2630  143.3810 O   0  0  0  0  0  0  0  0  0  0  0  0
  177.7960  178.5270  142.1450 C   0  0  1  0  0  3  0  0  0  0  0  0
  189.2220  176.8620  144.4290 N   0  0  0  0  0  2  0  0  0  0  0  0
  189.9840  176.3860  143.2810 C   0  0  2  0  0  3  0  0  0  0  0  0
  189.6780  174.0920  142.2120 C   0  0  1  0  0  3  0  0  0  0  0  0
  189.0790  174.8960  141.2370 O   0  0  0  0  0  1  0  0  0  0  0  0
  190.2030  174.8740  143.3720 C   0  0  2  0  0  3  0  0  0  0  0  0
  188.9620  174.2120  143.4170 O   0  0  0  0  0  0  0  0  0  0  0  0
  191.3150  177.1260  143.1880 C   0  0  0  0  0  2  0  0  0  0  0  0
  192.4190  176.7450  144.5870 S   0  0  0  0  0  0  0  0  0  0  0  0
  193.6710  176.0290  143.4890 C   0  0  0  0  0  1  0  0  0  0  0  0
  1  7  1  0  0  0  0
  2 18  1  0  0  0  0
  2  9  1  0  0  0  0
  3  4  1  0  0  0  0
  5 17  1  0  0  0  0
  5 13  1  0  0  0  0
  6  9  2  0  0  0  0
  7 13  2  0  0  0  0
  8  3  1  0  0  0  0
  9 10  1  0  0  0  0
 10 16  2  0  0  0  0
 10  8  1  0  0  0  0
 11 24  1  0  0  0  0
 11 16  1  0  0  0  0
 12 14  1  0  0  0  0
 12  1  2  0  0  0  0
 13  6  1  0  0  0  0
 14  5  2  0  0  0  0
 15  4  1  0  0  0  0
 16 15  1  0  0  0  0
 17  2  2  0  0  0  0
 18 11  2  0  0  0  0
 19  1  1  0  0  0  0
 20 19  1  0  0  0  0
 21 22  1  0  0  0  0
 23 20  1  6  0  0  0
 23 21  1  0  0  0  0
 23 22  1  0  0  0  0
 25 30  1  1  0  0  0
 25 24  1  0  0  0  0
 26 27  1  6  0  0  0
 26 28  1  0  0  0  0
 26 29  1  0  0  0  0
 28 25  1  6  0  0  0
 28 29  1  0  0  0  0
 30 31  1  0  0  0  0
 32 31  1  0  0  0  0
M  END
>  <MODEL>
4

>  <REMARK>
 VINA RESULT:      -6.7      2.118      2.937
  Name = 
  8 active torsions:
  status: ('A' for Active; 'I' for Inactive)
    1  A    between atoms: C_2  and  O_24
    2  A    between atoms: S_6  and  C_7
    3  A    between atoms: C_7  and  C_32
    4  A    between atoms: C_10  and  C_20
    5  A    between atoms: C_10  and  O_24
    6  A    between atoms: C_16  and  N_27
    7  A    between atoms: C_22  and  C_32
    8  A    between atoms: N_27  and  C_32
                            x       y       z     vdW  Elec       q    Type
                         _______ _______ _______ _____ _____    ______ ____

>  <TORSDO>
F 8

$$$$
=
 OpenBabel11052421363D

 32 37  0  0  1  0  0  0  0  0999 V2000
  195.2150  175.0670  145.5010 C   0  0  0  0  0  0  0  0  0  0  0  0
  190.3690  176.1270  144.9360 C   0  0  0  0  0  0  0  0  0  0  0  0
  189.0290  173.6670  140.8530 C   0  0  0  0  0  2  0  0  0  0  0  0
  187.6240  173.5890  141.4220 C   0  0  0  0  0  2  0  0  0  0  0  0
  192.6010  176.0670  145.7130 C   0  0  0  0  0  0  0  0  0  0  0  0
  191.9640  174.7240  143.8390 N   0  0  0  0  0  0  0  0  0  0  0  0
  194.2290  174.6400  144.6040 C   0  0  0  0  0  3  0  0  0  0  0  0
  190.0340  173.7140  141.9990 C   0  0  0  0  0  2  0  0  0  0  0  0
  190.6890  175.1970  143.9250 C   0  0  0  0  0  0  0  0  0  0  0  0
  189.6980  174.7710  143.0230 C   0  0  0  0  0  0  0  0  0  0  0  0
  188.0690  176.1950  144.1670 C   0  0  0  0  0  0  0  0  0  0  0  0
  194.8860  175.9970  146.5020 C   0  0  0  0  0  3  0  0  0  0  0  0
  192.9260  175.1340  144.7060 C   0  0  0  0  0  0  0  0  0  0  0  0
  193.5830  176.4950  146.6090 C   0  0  0  0  0  3  0  0  0  0  0  0
  187.3060  174.8840  142.1600 C   0  0  0  0  0  2  0  0  0  0  0  0
  188.3750  175.2620  143.1560 C   0  0  0  0  0  0  0  0  0  0  0  0
  191.3320  176.5390  145.8030 N   0  0  0  0  0  0  0  0  0  0  0  0
  189.0710  176.6190  145.0490 C   0  0  0  0  0  3  0  0  0  0  0  0
  196.5090  174.5550  145.3740 O   0  0  0  0  0  0  0  0  0  0  0  0
  196.9620  173.4240  146.1070 C   0  0  0  0  0  2  0  0  0  0  0  0
  196.8340  170.9790  146.1080 C   0  0  0  0  0  2  0  0  0  0  0  0
  195.6400  171.5170  145.5960 O   0  0  0  0  0  0  0  0  0  0  0  0
  196.8300  172.1820  145.2510 C   0  0  1  0  0  3  0  0  0  0  0  0
  186.7390  176.7180  144.2780 N   0  0  0  0  0  2  0  0  0  0  0  0
  186.4130  177.9680  144.9540 C   0  0  2  0  0  3  0  0  0  0  0  0
  185.8140  177.8980  147.4310 C   0  0  1  0  0  3  0  0  0  0  0  0
  187.1660  178.2450  147.5170 O   0  0  0  0  0  1  0  0  0  0  0  0
  185.3420  177.7350  146.0230 C   0  0  2  0  0  3  0  0  0  0  0  0
  185.6960  176.6340  146.8250 O   0  0  0  0  0  0  0  0  0  0  0  0
  185.9550  179.0120  143.9400 C   0  0  0  0  0  2  0  0  0  0  0  0
  185.7050  178.3030  142.2800 S   0  0  0  0  0  0  0  0  0  0  0  0
  183.9060  178.2590  142.4980 C   0  0  0  0  0  1  0  0  0  0  0  0
  1 12  1  0  0  0  0
  2 18  1  0  0  0  0
  2 17  2  0  0  0  0
  3  4  1  0  0  0  0
  3  8  1  0  0  0  0
  4 15  1  0  0  0  0
  5 17  1  0  0  0  0
  5 14  1  0  0  0  0
  6  9  2  0  0  0  0
  6 13  1  0  0  0  0
  7 13  1  0  0  0  0
  7  1  2  0  0  0  0
  8 10  1  0  0  0  0
  9  2  1  0  0  0  0
 10 16  2  0  0  0  0
 10  9  1  0  0  0  0
 11 24  1  0  0  0  0
 11 18  2  0  0  0  0
 12 14  2  0  0  0  0
 13  5  2  0  0  0  0
 15 16  1  0  0  0  0
 16 11  1  0  0  0  0
 19  1  1  0  0  0  0
 19 20  1  0  0  0  0
 22 21  1  0  0  0  0
 23 22  1  0  0  0  0
 23 20  1  1  0  0  0
 23 21  1  0  0  0  0
 24 25  1  0  0  0  0
 25 30  1  6  0  0  0
 26 27  1  6  0  0  0
 28 25  1  6  0  0  0
 28 29  1  0  0  0  0
 28 26  1  0  0  0  0
 29 26  1  0  0  0  0
 31 32  1  0  0  0  0
 31 30  1  0  0  0  0
M  END
>  <MODEL>
5

>  <REMARK>
 VINA RESULT:      -6.7      3.283     10.064
  Name = 
  8 active torsions:
  status: ('A' for Active; 'I' for Inactive)
    1  A    between atoms: C_2  and  O_24
    2  A    between atoms: S_6  and  C_7
    3  A    between atoms: C_7  and  C_32
    4  A    between atoms: C_10  and  C_20
    5  A    between atoms: C_10  and  O_24
    6  A    between atoms: C_16  and  N_27
    7  A    between atoms: C_22  and  C_32
    8  A    between atoms: N_27  and  C_32
                            x       y       z     vdW  Elec       q    Type
                         _______ _______ _______ _____ _____    ______ ____

>  <TORSDO>
F 8

$$$$
=
 OpenBabel11052421363D

 32 37  0  0  1  0  0  0  0  0999 V2000
  181.4640  178.6440  141.2270 C   0  0  0  0  0  0  0  0  0  0  0  0
  186.0490  177.7750  142.9980 C   0  0  0  0  0  0  0  0  0  0  0  0
  185.8240  179.1470  147.7510 C   0  0  0  0  0  2  0  0  0  0  0  0
  186.9150  178.1340  148.0430 C   0  0  0  0  0  2  0  0  0  0  0  0
  184.1710  177.9970  141.5800 C   0  0  0  0  0  0  0  0  0  0  0  0
  183.9630  178.5080  143.9070 N   0  0  0  0  0  0  0  0  0  0  0  0
  182.0450  178.7390  142.4970 C   0  0  0  0  0  3  0  0  0  0  0  0
  185.0030  178.6720  146.5570 C   0  0  0  0  0  2  0  0  0  0  0  0
  185.2760  178.1990  144.1000 C   0  0  0  0  0  0  0  0  0  0  0  0
  185.8620  178.2970  145.3740 C   0  0  0  0  0  0  0  0  0  0  0  0
  187.9870  177.5260  144.4370 C   0  0  0  0  0  0  0  0  0  0  0  0
  182.2450  178.2240  140.1360 C   0  0  0  0  0  3  0  0  0  0  0  0
  183.3930  178.4180  142.6780 C   0  0  0  0  0  0  0  0  0  0  0  0
  183.5940  177.9010  140.3120 C   0  0  0  0  0  3  0  0  0  0  0  0
  187.9040  178.1080  146.8830 C   0  0  0  0  0  2  0  0  0  0  0  0
  187.2240  177.9420  145.5450 C   0  0  0  0  0  0  0  0  0  0  0  0
  185.4790  177.6860  141.7680 N   0  0  0  0  0  0  0  0  0  0  0  0
  187.3910  177.4460  143.1720 C   0  0  0  0  0  3  0  0  0  0  0  0
  180.1140  178.9720  141.0770 O   0  0  0  0  0  0  0  0  0  0  0  0
  179.0980  177.9900  140.9220 C   0  0  0  0  0  2  0  0  0  0  0  0
  178.1800  177.5430  143.1470 C   0  0  0  0  0  2  0  0  0  0  0  0
  178.4900  178.9090  143.0270 O   0  0  0  0  0  0  0  0  0  0  0  0
  177.9650  178.2790  141.8840 C   0  0  1  0  0  3  0  0  0  0  0  0
  189.3740  177.2010  144.6050 N   0  0  0  0  0  2  0  0  0  0  0  0
  189.8740  175.8420  144.7670 C   0  0  2  0  0  3  0  0  0  0  0  0
  190.6070  175.2650  147.1390 C   0  0  1  0  0  3  0  0  0  0  0  0
  189.2640  174.8790  147.1990 O   0  0  0  0  0  1  0  0  0  0  0  0
  191.0010  175.8050  145.8030 C   0  0  2  0  0  3  0  0  0  0  0  0
  190.6830  176.6460  146.8860 O   0  0  0  0  0  0  0  0  0  0  0  0
  190.3480  175.2910  143.4250 C   0  0  0  0  0  2  0  0  0  0  0  0
  189.1360  174.1550  142.6750 S   0  0  0  0  0  0  0  0  0  0  0  0
  190.3880  173.4430  141.5740 C   0  0  0  0  0  1  0  0  0  0  0  0
  1  7  1  0  0  0  0
  2 18  1  0  0  0  0
  2  9  1  0  0  0  0
  3  4  1  0  0  0  0
  5 17  1  0  0  0  0
  5 13  1  0  0  0  0
  6  9  2  0  0  0  0
  7 13  2  0  0  0  0
  8  3  1  0  0  0  0
  9 10  1  0  0  0  0
 10 16  2  0  0  0  0
 10  8  1  0  0  0  0
 11 24  1  0  0  0  0
 11 16  1  0  0  0  0
 12 14  1  0  0  0  0
 12  1  2  0  0  0  0
 13  6  1  0  0  0  0
 14  5  2  0  0  0  0
 15  4  1  0  0  0  0
 16 15  1  0  0  0  0
 17  2  2  0  0  0  0
 18 11  2  0  0  0  0
 19  1  1  0  0  0  0
 20 19  1  0  0  0  0
 22 21  1  0  0  0  0
 23 20  1  6  0  0  0
 23 22  1  0  0  0  0
 23 21  1  0  0  0  0
 24 25  1  0  0  0  0
 25 30  1  6  0  0  0
 26 27  1  6  0  0  0
 28 25  1  6  0  0  0
 28 29  1  0  0  0  0
 28 26  1  0  0  0  0
 29 26  1  0  0  0  0
 31 30  1  0  0  0  0
 32 31  1  0  0  0  0
M  END
>  <MODEL>
6

>  <REMARK>
 VINA RESULT:      -6.7      1.851      2.436
  Name = 
  8 active torsions:
  status: ('A' for Active; 'I' for Inactive)
    1  A    between atoms: C_2  and  O_24
    2  A    between atoms: S_6  and  C_7
    3  A    between atoms: C_7  and  C_32
    4  A    between atoms: C_10  and  C_20
    5  A    between atoms: C_10  and  O_24
    6  A    between atoms: C_16  and  N_27
    7  A    between atoms: C_22  and  C_32
    8  A    between atoms: N_27  and  C_32
                            x       y       z     vdW  Elec       q    Type
                         _______ _______ _______ _____ _____    ______ ____

>  <TORSDO>
F 8

$$$$
=
 OpenBabel11052421363D

 32 37  0  0  1  0  0  0  0  0999 V2000
  195.7100  174.8310  145.0880 C   0  0  0  0  0  0  0  0  0  0  0  0
  191.3970  176.8790  143.6300 C   0  0  0  0  0  0  0  0  0  0  0  0
  188.1910  175.7020  147.2160 C   0  0  0  0  0  2  0  0  0  0  0  0
  187.4210  176.9650  146.8730 C   0  0  0  0  0  2  0  0  0  0  0  0
  193.6410  176.1400  143.7170 C   0  0  0  0  0  0  0  0  0  0  0  0
  192.1770  175.6950  145.5550 N   0  0  0  0  0  0  0  0  0  0  0  0
  194.4430  174.9370  145.6720 C   0  0  0  0  0  3  0  0  0  0  0  0
  189.6660  175.9080  146.8890 C   0  0  0  0  0  2  0  0  0  0  0  0
  191.1590  176.3260  144.9060 C   0  0  0  0  0  0  0  0  0  0  0  0
  189.8840  176.4310  145.4900 C   0  0  0  0  0  0  0  0  0  0  0  0
  189.1030  177.6600  143.5240 C   0  0  0  0  0  0  0  0  0  0  0  0
  195.9350  175.3830  143.8140 C   0  0  0  0  0  3  0  0  0  0  0  0
  193.4090  175.5880  144.9940 C   0  0  0  0  0  0  0  0  0  0  0  0
  194.9040  176.0350  143.1310 C   0  0  0  0  0  3  0  0  0  0  0  0
  187.4550  177.1820  145.3650 C   0  0  0  0  0  2  0  0  0  0  0  0
  188.8540  177.1170  144.8000 C   0  0  0  0  0  0  0  0  0  0  0  0
  192.6290  176.7710  143.0680 N   0  0  0  0  0  0  0  0  0  0  0  0
  190.3740  177.5350  142.9510 C   0  0  0  0  0  3  0  0  0  0  0  0
  196.7240  174.1740  145.7900 O   0  0  0  0  0  0  0  0  0  0  0  0
  197.2870  172.9440  145.3540 C   0  0  0  0  0  2  0  0  0  0  0  0
  196.1260  170.8300  144.9340 C   0  0  0  0  0  2  0  0  0  0  0  0
  197.2450  170.6020  145.7550 O   0  0  0  0  0  0  0  0  0  0  0  0
  196.5290  171.7920  145.9790 C   0  0  1  0  0  3  0  0  0  0  0  0
  188.0490  178.3230  142.8120 N   0  0  0  0  0  2  0  0  0  0  0  0
  187.2230  177.6750  141.8000 C   0  0  2  0  0  3  0  0  0  0  0  0
  184.6920  177.9160  141.6210 C   0  0  1  0  0  3  0  0  0  0  0  0
  185.0870  178.6700  140.5120 O   0  0  0  0  0  1  0  0  0  0  0  0
  185.8440  177.3340  142.3730 C   0  0  2  0  0  3  0  0  0  0  0  0
  185.1950  178.5110  142.7920 O   0  0  0  0  0  0  0  0  0  0  0  0
  187.9190  176.4240  141.2720 C   0  0  0  0  0  2  0  0  0  0  0  0
  187.4370  174.9240  142.1890 S   0  0  0  0  0  0  0  0  0  0  0  0
  189.0670  174.1700  141.9430 C   0  0  0  0  0  1  0  0  0  0  0  0
  1  7  1  0  0  0  0
  1 19  1  0  0  0  0
  2  9  1  0  0  0  0
  4  3  1  0  0  0  0
  5 13  1  0  0  0  0
  8  3  1  0  0  0  0
  9 10  1  0  0  0  0
  9  6  2  0  0  0  0
 10  8  1  0  0  0  0
 11 16  1  0  0  0  0
 12  1  2  0  0  0  0
 13  6  1  0  0  0  0
 13  7  2  0  0  0  0
 14  5  2  0  0  0  0
 14 12  1  0  0  0  0
 15  4  1  0  0  0  0
 16 15  1  0  0  0  0
 16 10  2  0  0  0  0
 17  2  2  0  0  0  0
 17  5  1  0  0  0  0
 18 11  2  0  0  0  0
 18  2  1  0  0  0  0
 20 19  1  0  0  0  0
 21 22  1  0  0  0  0
 21 23  1  0  0  0  0
 22 23  1  0  0  0  0
 23 20  1  6  0  0  0
 24 11  1  0  0  0  0
 25 30  1  1  0  0  0
 25 24  1  0  0  0  0
 26 27  1  6  0  0  0
 26 28  1  0  0  0  0
 26 29  1  0  0  0  0
 28 25  1  6  0  0  0
 28 29  1  0  0  0  0
 30 31  1  0  0  0  0
 32 31  1  0  0  0  0
M  END
>  <MODEL>
7

>  <REMARK>
 VINA RESULT:      -6.5      2.723      9.795
  Name = 
  8 active torsions:
  status: ('A' for Active; 'I' for Inactive)
    1  A    between atoms: C_2  and  O_24
    2  A    between atoms: S_6  and  C_7
    3  A    between atoms: C_7  and  C_32
    4  A    between atoms: C_10  and  C_20
    5  A    between atoms: C_10  and  O_24
    6  A    between atoms: C_16  and  N_27
    7  A    between atoms: C_22  and  C_32
    8  A    between atoms: N_27  and  C_32
                            x       y       z     vdW  Elec       q    Type
                         _______ _______ _______ _____ _____    ______ ____

>  <TORSDO>
F 8

$$$$
=
 OpenBabel11052421363D

 32 37  0  0  1  0  0  0  0  0999 V2000
  184.1810  178.5890  143.3220 C   0  0  0  0  0  0  0  0  0  0  0  0
  188.8040  176.7550  143.7550 C   0  0  0  0  0  0  0  0  0  0  0  0
  189.0970  173.2860  140.2330 C   0  0  0  0  0  2  0  0  0  0  0  0
  190.5920  173.5460  140.1720 C   0  0  0  0  0  2  0  0  0  0  0  0
  186.8060  177.9720  144.0980 C   0  0  0  0  0  0  0  0  0  0  0  0
  186.9560  176.4320  142.2730 N   0  0  0  0  0  0  0  0  0  0  0  0
  184.9220  177.6510  142.5930 C   0  0  0  0  0  3  0  0  0  0  0  0
  188.3810  174.5630  140.6600 C   0  0  0  0  0  2  0  0  0  0  0  0
  188.2320  176.1190  142.6330 C   0  0  0  0  0  0  0  0  0  0  0  0
  188.9770  175.1750  141.9050 C   0  0  0  0  0  0  0  0  0  0  0  0
  190.8700  175.5290  143.4150 C   0  0  0  0  0  0  0  0  0  0  0  0
  184.7600  179.2140  144.4400 C   0  0  0  0  0  3  0  0  0  0  0  0
  186.2300  177.3410  142.9750 C   0  0  0  0  0  0  0  0  0  0  0  0
  186.0690  178.9080  144.8260 C   0  0  0  0  0  3  0  0  0  0  0  0
  191.1130  173.8290  141.5760 C   0  0  0  0  0  2  0  0  0  0  0  0
  190.3110  174.8910  142.2900 C   0  0  0  0  0  0  0  0  0  0  0  0
  188.0780  177.6630  144.4580 N   0  0  0  0  0  0  0  0  0  0  0  0
  190.1090  176.4570  144.1370 C   0  0  0  0  0  3  0  0  0  0  0  0
  182.8760  178.8780  142.9160 O   0  0  0  0  0  0  0  0  0  0  0  0
  182.2810  178.2890  141.7670 C   0  0  0  0  0  2  0  0  0  0  0  0
  180.3480  178.3940  140.2680 C   0  0  0  0  0  2  0  0  0  0  0  0
  179.9500  177.8960  141.5210 O   0  0  0  0  0  0  0  0  0  0  0  0
  180.9220  178.9130  141.5260 C   0  0  1  0  0  3  0  0  0  0  0  0
  192.2070  175.2140  143.8240 N   0  0  0  0  0  2  0  0  0  0  0  0
  193.3430  176.1090  143.6400 C   0  0  2  0  0  3  0  0  0  0  0  0
  195.2880  175.5950  142.0750 C   0  0  1  0  0  3  0  0  0  0  0  0
  194.6190  176.5640  141.3210 O   0  0  0  0  0  1  0  0  0  0  0  0
  194.6210  175.3070  143.3800 C   0  0  2  0  0  3  0  0  0  0  0  0
  194.4470  174.4820  142.2530 O   0  0  0  0  0  0  0  0  0  0  0  0
  193.5050  177.0130  144.8590 C   0  0  0  0  0  2  0  0  0  0  0  0
  193.9860  176.0850  146.3520 S   0  0  0  0  0  0  0  0  0  0  0  0
  192.3730  176.3700  147.1280 C   0  0  0  0  0  1  0  0  0  0  0  0
  1 12  1  0  0  0  0
  2 18  1  0  0  0  0
  2 17  2  0  0  0  0
  3  8  1  0  0  0  0
  4  3  1  0  0  0  0
  4 15  1  0  0  0  0
  5 17  1  0  0  0  0
  5 14  1  0  0  0  0
  6  9  2  0  0  0  0
  6 13  1  0  0  0  0
  7 13  1  0  0  0  0
  7  1  2  0  0  0  0
  8 10  1  0  0  0  0
  9  2  1  0  0  0  0
 10 16  2  0  0  0  0
 10  9  1  0  0  0  0
 11 24  1  0  0  0  0
 11 18  2  0  0  0  0
 12 14  2  0  0  0  0
 13  5  2  0  0  0  0
 15 16  1  0  0  0  0
 16 11  1  0  0  0  0
 19  1  1  0  0  0  0
 20 19  1  0  0  0  0
 21 22  1  0  0  0  0
 21 23  1  0  0  0  0
 22 23  1  0  0  0  0
 23 20  1  6  0  0  0
 25 24  1  0  0  0  0
 25 30  1  1  0  0  0
 26 27  1  6  0  0  0
 26 29  1  0  0  0  0
 26 28  1  0  0  0  0
 28 25  1  6  0  0  0
 29 28  1  0  0  0  0
 30 31  1  0  0  0  0
 31 32  1  0  0  0  0
M  END
>  <MODEL>
8

>  <REMARK>
 VINA RESULT:      -6.5      2.118      3.877
  Name = 
  8 active torsions:
  status: ('A' for Active; 'I' for Inactive)
    1  A    between atoms: C_2  and  O_24
    2  A    between atoms: S_6  and  C_7
    3  A    between atoms: C_7  and  C_32
    4  A    between atoms: C_10  and  C_20
    5  A    between atoms: C_10  and  O_24
    6  A    between atoms: C_16  and  N_27
    7  A    between atoms: C_22  and  C_32
    8  A    between atoms: N_27  and  C_32
                            x       y       z     vdW  Elec       q    Type
                         _______ _______ _______ _____ _____    ______ ____

>  <TORSDO>
F 8

$$$$
=
 OpenBabel11052421363D

 32 37  0  0  1  0  0  0  0  0999 V2000
  184.9630  178.0880  142.0500 C   0  0  0  0  0  0  0  0  0  0  0  0
  189.7480  177.0970  143.0700 C   0  0  0  0  0  0  0  0  0  0  0  0
  190.0790  177.5140  147.9940 C   0  0  0  0  0  2  0  0  0  0  0  0
  191.2190  176.5120  147.9520 C   0  0  0  0  0  2  0  0  0  0  0  0
  187.7060  177.5060  141.9520 C   0  0  0  0  0  0  0  0  0  0  0  0
  187.7750  177.5480  144.3420 N   0  0  0  0  0  0  0  0  0  0  0  0
  185.6940  177.9620  143.2380 C   0  0  0  0  0  3  0  0  0  0  0  0
  189.1280  177.2420  146.8330 C   0  0  0  0  0  2  0  0  0  0  0  0
  189.1080  177.2650  144.3160 C   0  0  0  0  0  0  0  0  0  0  0  0
  189.8430  177.1410  145.5070 C   0  0  0  0  0  0  0  0  0  0  0  0
  191.8530  176.6600  144.1960 C   0  0  0  0  0  0  0  0  0  0  0  0
  185.6140  177.9220  140.8150 C   0  0  0  0  0  3  0  0  0  0  0  0
  187.0600  177.6720  143.1940 C   0  0  0  0  0  0  0  0  0  0  0  0
  186.9800  177.6310  140.7650 C   0  0  0  0  0  3  0  0  0  0  0  0
  192.0580  176.7550  146.7020 C   0  0  0  0  0  2  0  0  0  0  0  0
  191.2230  176.8210  145.4460 C   0  0  0  0  0  0  0  0  0  0  0  0
  189.0340  177.2220  141.9220 N   0  0  0  0  0  0  0  0  0  0  0  0
  191.1080  176.8000  143.0190 C   0  0  0  0  0  3  0  0  0  0  0  0
  183.5990  178.3790  142.1260 O   0  0  0  0  0  0  0  0  0  0  0  0
  182.7230  178.2450  141.0140 C   0  0  0  0  0  2  0  0  0  0  0  0
  180.5990  179.4580  140.9040 C   0  0  0  0  0  2  0  0  0  0  0  0
  180.4330  178.1620  140.3850 O   0  0  0  0  0  0  0  0  0  0  0  0
  181.2870  178.2920  141.4940 C   0  0  1  0  0  3  0  0  0  0  0  0
  193.2560  176.3710  144.1360 N   0  0  0  0  0  2  0  0  0  0  0  0
  193.7990  175.0640  143.7870 C   0  0  2  0  0  3  0  0  0  0  0  0
  196.0650  175.1070  142.6220 C   0  0  1  0  0  3  0  0  0  0  0  0
  196.4790  175.0040  143.9540 O   0  0  0  0  0  1  0  0  0  0  0  0
  194.5800  175.1410  142.4720 C   0  0  2  0  0  3  0  0  0  0  0  0
  195.3600  176.3120  142.4470 O   0  0  0  0  0  0  0  0  0  0  0  0
  192.6770  174.0330  143.6960 C   0  0  0  0  0  2  0  0  0  0  0  0
  193.1530  172.4250  144.4110 S   0  0  0  0  0  0  0  0  0  0  0  0
  193.9750  173.2200  145.8180 C   0  0  0  0  0  1  0  0  0  0  0  0
  1 19  1  0  0  0  0
  1  7  1  0  0  0  0
  2  9  1  0  0  0  0
  4  3  1  0  0  0  0
  5 13  1  0  0  0  0
  8  3  1  0  0  0  0
  9  6  2  0  0  0  0
  9 10  1  0  0  0  0
 10  8  1  0  0  0  0
 11 16  1  0  0  0  0
 12  1  2  0  0  0  0
 13  7  2  0  0  0  0
 13  6  1  0  0  0  0
 14 12  1  0  0  0  0
 14  5  2  0  0  0  0
 15  4  1  0  0  0  0
 16 10  2  0  0  0  0
 16 15  1  0  0  0  0
 17  5  1  0  0  0  0
 17  2  2  0  0  0  0
 18  2  1  0  0  0  0
 18 11  2  0  0  0  0
 20 19  1  0  0  0  0
 21 23  1  0  0  0  0
 22 21  1  0  0  0  0
 22 23  1  0  0  0  0
 23 20  1  6  0  0  0
 24 11  1  0  0  0  0
 25 30  1  6  0  0  0
 25 24  1  0  0  0  0
 26 27  1  1  0  0  0
 28 26  1  0  0  0  0
 28 25  1  1  0  0  0
 29 28  1  0  0  0  0
 29 26  1  0  0  0  0
 30 31  1  0  0  0  0
 31 32  1  0  0  0  0
M  END
>  <MODEL>
9

>  <REMARK>
 VINA RESULT:      -6.4      1.834      2.528
  Name = 
  8 active torsions:
  status: ('A' for Active; 'I' for Inactive)
    1  A    between atoms: C_2  and  O_24
    2  A    between atoms: S_6  and  C_7
    3  A    between atoms: C_7  and  C_32
    4  A    between atoms: C_10  and  C_20
    5  A    between atoms: C_10  and  O_24
    6  A    between atoms: C_16  and  N_27
    7  A    between atoms: C_22  and  C_32
    8  A    between atoms: N_27  and  C_32
                            x       y       z     vdW  Elec       q    Type
                         _______ _______ _______ _____ _____    ______ ____

>  <TORSDO>
F 8

$$$$
