=
 OpenBabel11052418303D

 27 32  0  0  1  0  0  0  0  0999 V2000
  187.6670  177.4580  143.1080 C   0  0  2  0  0  3  0  0  0  0  0  0
  186.5180  177.4560  142.1810 N   0  0  2  0  0  0  0  0  0  0  0  0
  185.7510  178.4240  144.1380 C   0  0  2  0  0  0  0  0  0  0  0  0
  183.0440  177.9340  140.0640 N   0  0  0  0  0  0  0  0  0  0  0  0
  180.7140  178.7180  140.5080 C   0  0  0  0  0  1  0  0  0  0  0  0
  186.7880  177.6280  140.7520 C   0  0  0  0  0  2  0  0  0  0  0  0
  182.7960  178.9310  142.3800 S   0  0  0  0  0  0  0  0  0  0  0  0
  186.0550  176.9210  146.5540 C   0  0  0  0  0  0  0  0  0  0  0  0
  185.3320  179.6510  144.9070 C   0  0  0  0  0  2  0  0  0  0  0  0
  186.3580  176.3570  147.9030 C   0  0  0  0  0  1  0  0  0  0  0  0
  184.3070  178.3190  141.9690 C   0  0  0  0  0  0  0  0  0  0  0  0
  182.1300  178.4890  140.8930 C   0  0  0  0  0  0  0  0  0  0  0  0
  184.2640  177.8640  140.6550 C   0  0  0  0  0  0  0  0  0  0  0  0
  187.1160  177.8530  144.4900 C   0  0  1  0  0  3  0  0  0  0  0  0
  185.6250  178.5090  142.6420 C   0  0  2  0  0  3  0  0  0  0  0  0
  184.9740  177.7040  146.4140 C   0  0  0  0  0  3  0  0  0  0  0  0
  185.4950  177.3280  139.9560 C   0  0  0  0  0  2  0  0  0  0  0  0
  188.1870  176.1420  145.7770 O   0  0  0  0  0  1  0  0  0  0  0  0
  186.9380  176.6130  145.3650 C   0  0  1  0  0  3  0  0  0  0  0  0
  184.5730  178.3330  145.1010 C   0  0  2  0  0  3  0  0  0  0  0  0
  188.8410  178.3540  142.6670 C   0  0  0  0  0  2  0  0  0  0  0  0
  192.2360  176.0760  143.9440 C   0  0  0  0  0  2  0  0  0  0  0  0
  190.2130  177.7170  142.8520 C   0  0  2  0  0  3  0  0  0  0  0  0
  190.1250  176.2140  142.5500 C   0  0  0  0  0  2  0  0  0  0  0  0
  190.9230  175.3870  143.5600 C   0  0  0  0  0  2  0  0  0  0  0  0
  192.0460  177.5890  144.1470 C   0  0  0  0  0  2  0  0  0  0  0  0
  190.6840  177.9450  144.1580 O   0  0  0  0  0  0  0  0  0  0  0  0
  1 21  1  6  0  0  0
  1 14  1  0  0  0  0
  2  6  1  6  0  0  0
  2 15  1  0  0  0  0
  2  1  1  0  0  0  0
  3 14  1  0  0  0  0
  3  9  1  1  0  0  0
  3 20  1  0  0  0  0
  4 13  1  0  0  0  0
  4 12  2  0  0  0  0
  5 12  1  0  0  0  0
  8 10  1  0  0  0  0
  9 20  1  0  0  0  0
 11  7  1  0  0  0  0
 11 15  1  0  0  0  0
 12  7  1  0  0  0  0
 13 11  2  0  0  0  0
 14 19  1  0  0  0  0
 15  3  1  0  0  0  0
 16  8  2  0  0  0  0
 17 13  1  0  0  0  0
 17  6  1  0  0  0  0
 19 18  1  0  0  0  0
 19  8  1  0  0  0  0
 20 16  1  0  0  0  0
 21 23  1  0  0  0  0
 22 26  1  0  0  0  0
 23 27  1  0  0  0  0
 24 23  1  0  0  0  0
 24 25  1  0  0  0  0
 25 22  1  0  0  0  0
 26 27  1  0  0  0  0
M  END
>  <MODEL>
1

>  <REMARK>
 VINA RESULT:      -7.4      0.000      0.000
  Name = 
  2 active torsions:
  status: ('A' for Active; 'I' for Inactive)
    1  A    between atoms: C_1  and  C_15
    2  A    between atoms: C_9  and  C_15
                            x       y       z     vdW  Elec       q    Type
                         _______ _______ _______ _____ _____    ______ ____

>  <TORSDO>
F 2

$$$$
=
 OpenBabel11052418303D

 27 32  0  0  1  0  0  0  0  0999 V2000
  188.6070  176.0550  143.4060 C   0  0  2  0  0  3  0  0  0  0  0  0
  188.9470  175.1660  142.2790 N   0  0  2  0  0  0  0  0  0  0  0  0
  189.7950  174.1420  144.1730 C   0  0  2  0  0  0  0  0  0  0  0  0
  190.0100  172.1980  139.6620 N   0  0  0  0  0  0  0  0  0  0  0  0
  191.3120  170.0670  139.7300 C   0  0  0  0  0  1  0  0  0  0  0  0
  188.0080  175.0850  141.1580 C   0  0  0  0  0  2  0  0  0  0  0  0
  190.6610  171.5500  142.0230 S   0  0  0  0  0  0  0  0  0  0  0  0
  191.5860  175.6680  145.8010 C   0  0  0  0  0  0  0  0  0  0  0  0
  189.7120  173.0540  145.2140 C   0  0  0  0  0  2  0  0  0  0  0  0
  192.3350  176.4170  146.8540 C   0  0  0  0  0  1  0  0  0  0  0  0
  189.8200  172.9940  141.8310 C   0  0  0  0  0  0  0  0  0  0  0  0
  190.6780  171.2520  140.3620 C   0  0  0  0  0  0  0  0  0  0  0  0
  189.5090  173.1550  140.4850 C   0  0  0  0  0  0  0  0  0  0  0  0
  189.3800  175.5310  144.6290 C   0  0  1  0  0  3  0  0  0  0  0  0
  189.1400  173.8420  142.8530 C   0  0  2  0  0  3  0  0  0  0  0  0
  191.7850  174.3450  145.6900 C   0  0  0  0  0  3  0  0  0  0  0  0
  188.6780  174.3210  139.9920 C   0  0  0  0  0  2  0  0  0  0  0  0
  190.2600  177.6240  145.3890 O   0  0  0  0  0  1  0  0  0  0  0  0
  190.6280  176.3800  144.8710 C   0  0  1  0  0  3  0  0  0  0  0  0
  191.0790  173.4860  144.6690 C   0  0  2  0  0  3  0  0  0  0  0  0
  187.0960  176.1870  143.6810 C   0  0  0  0  0  2  0  0  0  0  0  0
  185.1380  179.0240  146.2240 C   0  0  0  0  0  2  0  0  0  0  0  0
  186.7360  177.3090  144.6480 C   0  0  2  0  0  3  0  0  0  0  0  0
  186.1250  176.7100  145.9240 C   0  0  0  0  0  2  0  0  0  0  0  0
  184.9190  177.5190  146.4060 C   0  0  0  0  0  2  0  0  0  0  0  0
  185.8040  179.3420  144.8750 C   0  0  0  0  0  2  0  0  0  0  0  0
  185.8460  178.2120  144.0370 O   0  0  0  0  0  0  0  0  0  0  0  0
  1 21  1  1  0  0  0
  1 14  1  0  0  0  0
  2  6  1  6  0  0  0
  2 15  1  0  0  0  0
  2  1  1  0  0  0  0
  3 14  1  0  0  0  0
  3 20  1  0  0  0  0
  3  9  1  1  0  0  0
  4 12  2  0  0  0  0
  4 13  1  0  0  0  0
  5 12  1  0  0  0  0
  8 10  1  0  0  0  0
 11  7  1  0  0  0  0
 11 15  1  0  0  0  0
 12  7  1  0  0  0  0
 13 11  2  0  0  0  0
 14 19  1  0  0  0  0
 15  3  1  0  0  0  0
 16  8  2  0  0  0  0
 17 13  1  0  0  0  0
 17  6  1  0  0  0  0
 19 18  1  0  0  0  0
 19  8  1  0  0  0  0
 20  9  1  0  0  0  0
 20 16  1  0  0  0  0
 21 23  1  0  0  0  0
 22 25  1  0  0  0  0
 23 24  1  0  0  0  0
 24 25  1  0  0  0  0
 26 22  1  0  0  0  0
 27 23  1  0  0  0  0
 27 26  1  0  0  0  0
M  END
>  <MODEL>
2

>  <REMARK>
 VINA RESULT:      -7.2      3.652      6.801
  Name = 
  2 active torsions:
  status: ('A' for Active; 'I' for Inactive)
    1  A    between atoms: C_1  and  C_15
    2  A    between atoms: C_9  and  C_15
                            x       y       z     vdW  Elec       q    Type
                         _______ _______ _______ _____ _____    ______ ____

>  <TORSDO>
F 2

$$$$
=
 OpenBabel11052418303D

 27 32  0  0  1  0  0  0  0  0999 V2000
  188.4280  176.8170  144.6200 C   0  0  2  0  0  3  0  0  0  0  0  0
  188.2550  176.3210  143.2410 N   0  0  2  0  0  0  0  0  0  0  0  0
  186.7610  178.0720  143.4750 C   0  0  2  0  0  0  0  0  0  0  0  0
  187.4410  175.5740  139.2960 N   0  0  0  0  0  0  0  0  0  0  0  0
  185.8190  176.3710  137.5710 C   0  0  0  0  0  1  0  0  0  0  0  0
  189.4350  175.8000  142.5460 C   0  0  0  0  0  2  0  0  0  0  0  0
  186.0730  177.5440  140.1090 S   0  0  0  0  0  0  0  0  0  0  0  0
  184.8910  177.9220  145.6360 C   0  0  0  0  0  0  0  0  0  0  0  0
  186.3680  179.4970  143.1820 C   0  0  0  0  0  2  0  0  0  0  0  0
  184.0270  178.0860  146.8430 C   0  0  0  0  0  1  0  0  0  0  0  0
  187.1720  176.8780  141.1930 C   0  0  0  0  0  0  0  0  0  0  0  0
  186.4540  176.4160  138.9130 C   0  0  0  0  0  0  0  0  0  0  0  0
  187.8590  175.8490  140.5580 C   0  0  0  0  0  0  0  0  0  0  0  0
  187.2720  177.8000  144.8810 C   0  0  1  0  0  3  0  0  0  0  0  0
  187.6870  177.4250  142.4820 C   0  0  2  0  0  3  0  0  0  0  0  0
  184.5020  178.4940  144.4850 C   0  0  0  0  0  3  0  0  0  0  0  0
  188.9830  175.0990  141.2420 C   0  0  0  0  0  2  0  0  0  0  0  0
  186.5980  176.9620  147.0200 O   0  0  0  0  0  1  0  0  0  0  0  0
  186.1740  177.1220  145.7000 C   0  0  1  0  0  3  0  0  0  0  0  0
  185.2970  178.4000  143.2050 C   0  0  2  0  0  3  0  0  0  0  0  0
  189.8060  177.4440  144.9060 C   0  0  0  0  0  2  0  0  0  0  0  0
  191.1870  175.3150  148.3570 C   0  0  0  0  0  2  0  0  0  0  0  0
  190.6160  176.7090  145.9670 C   0  0  2  0  0  3  0  0  0  0  0  0
  190.1500  175.2470  146.0460 C   0  0  0  0  0  2  0  0  0  0  0  0
  190.0470  174.7650  147.4950 C   0  0  0  0  0  2  0  0  0  0  0  0
  191.4740  176.7930  148.0430 C   0  0  0  0  0  2  0  0  0  0  0  0
  190.4840  177.3500  147.2120 O   0  0  0  0  0  0  0  0  0  0  0  0
  1 14  1  0  0  0  0
  1 21  1  6  0  0  0
  2  6  1  6  0  0  0
  2  1  1  0  0  0  0
  3  9  1  6  0  0  0
  3 14  1  0  0  0  0
  4 13  1  0  0  0  0
  5 12  1  0  0  0  0
  7 11  1  0  0  0  0
  8 19  1  0  0  0  0
  8 10  1  0  0  0  0
  9 20  1  0  0  0  0
 11 15  1  0  0  0  0
 12  4  2  0  0  0  0
 12  7  1  0  0  0  0
 13 11  2  0  0  0  0
 13 17  1  0  0  0  0
 14 19  1  0  0  0  0
 15  2  1  0  0  0  0
 15  3  1  0  0  0  0
 16  8  2  0  0  0  0
 17  6  1  0  0  0  0
 19 18  1  0  0  0  0
 20  3  1  0  0  0  0
 20 16  1  0  0  0  0
 21 23  1  0  0  0  0
 23 24  1  0  0  0  0
 23 27  1  0  0  0  0
 24 25  1  0  0  0  0
 25 22  1  0  0  0  0
 26 22  1  0  0  0  0
 27 26  1  0  0  0  0
M  END
>  <MODEL>
3

>  <REMARK>
 VINA RESULT:      -7.2      2.412      3.401
  Name = 
  2 active torsions:
  status: ('A' for Active; 'I' for Inactive)
    1  A    between atoms: C_1  and  C_15
    2  A    between atoms: C_9  and  C_15
                            x       y       z     vdW  Elec       q    Type
                         _______ _______ _______ _____ _____    ______ ____

>  <TORSDO>
F 2

$$$$
=
 OpenBabel11052418303D

 27 32  0  0  1  0  0  0  0  0999 V2000
  189.1430  175.5420  146.2420 C   0  0  2  0  0  3  0  0  0  0  0  0
  189.0940  174.5230  145.1760 N   0  0  2  0  0  0  0  0  0  0  0  0
  188.7220  176.5530  144.1290 C   0  0  2  0  0  0  0  0  0  0  0  0
  189.0400  172.2550  141.7640 N   0  0  0  0  0  0  0  0  0  0  0  0
  188.5640  172.5980  139.3360 C   0  0  0  0  0  1  0  0  0  0  0  0
  189.9630  173.3510  145.3040 C   0  0  0  0  0  2  0  0  0  0  0  0
  188.7370  174.7030  141.1870 S   0  0  0  0  0  0  0  0  0  0  0  0
  186.5700  178.1620  145.1130 C   0  0  0  0  0  0  0  0  0  0  0  0
  189.2140  177.6770  143.2530 C   0  0  0  0  0  2  0  0  0  0  0  0
  185.6440  179.1950  145.6670 C   0  0  0  0  0  1  0  0  0  0  0  0
  189.0160  174.3270  142.8020 C   0  0  0  0  0  0  0  0  0  0  0  0
  188.7670  173.0790  140.7270 C   0  0  0  0  0  0  0  0  0  0  0  0
  189.2050  172.9540  142.9170 C   0  0  0  0  0  0  0  0  0  0  0  0
  188.6430  176.8560  145.6170 C   0  0  1  0  0  3  0  0  0  0  0  0
  189.3940  175.2220  143.9350 C   0  0  2  0  0  3  0  0  0  0  0  0
  186.8390  178.1810  143.7980 C   0  0  0  0  0  3  0  0  0  0  0  0
  189.5610  172.3050  144.2370 C   0  0  0  0  0  2  0  0  0  0  0  0
  187.1170  177.4900  147.3500 O   0  0  0  0  0  1  0  0  0  0  0  0
  187.1870  177.1100  146.0080 C   0  0  1  0  0  3  0  0  0  0  0  0
  187.7640  177.1920  143.1300 C   0  0  2  0  0  3  0  0  0  0  0  0
  190.5230  175.6990  146.9120 C   0  0  0  0  0  2  0  0  0  0  0  0
  194.1980  176.4340  144.8390 C   0  0  0  0  0  2  0  0  0  0  0  0
  191.6890  175.7350  145.9330 C   0  0  2  0  0  3  0  0  0  0  0  0
  192.9310  175.1140  146.5910 C   0  0  0  0  0  2  0  0  0  0  0  0
  194.1960  175.9170  146.2810 C   0  0  0  0  0  2  0  0  0  0  0  0
  192.8150  176.9610  144.4220 C   0  0  0  0  0  2  0  0  0  0  0  0
  191.9420  177.0560  145.5220 O   0  0  0  0  0  0  0  0  0  0  0  0
  1 21  1  6  0  0  0
  2  6  1  1  0  0  0
  2  1  1  0  0  0  0
  3  9  1  6  0  0  0
  3 14  1  0  0  0  0
  4 13  1  0  0  0  0
  5 12  1  0  0  0  0
  7 11  1  0  0  0  0
  8 10  1  0  0  0  0
  8 19  1  0  0  0  0
 11 13  2  0  0  0  0
 11 15  1  0  0  0  0
 12  7  1  0  0  0  0
 12  4  2  0  0  0  0
 13 17  1  0  0  0  0
 14 19  1  0  0  0  0
 14  1  1  0  0  0  0
 15  3  1  0  0  0  0
 15  2  1  0  0  0  0
 16  8  2  0  0  0  0
 17  6  1  0  0  0  0
 19 18  1  0  0  0  0
 20  9  1  0  0  0  0
 20 16  1  0  0  0  0
 20  3  1  0  0  0  0
 22 25  1  0  0  0  0
 23 24  1  0  0  0  0
 23 21  1  0  0  0  0
 25 24  1  0  0  0  0
 26 22  1  0  0  0  0
 26 27  1  0  0  0  0
 27 23  1  0  0  0  0
M  END
>  <MODEL>
4

>  <REMARK>
 VINA RESULT:      -7.1      3.423      5.282
  Name = 
  2 active torsions:
  status: ('A' for Active; 'I' for Inactive)
    1  A    between atoms: C_1  and  C_15
    2  A    between atoms: C_9  and  C_15
                            x       y       z     vdW  Elec       q    Type
                         _______ _______ _______ _____ _____    ______ ____

>  <TORSDO>
F 2

$$$$
=
 OpenBabel11052418303D

 27 32  0  0  1  0  0  0  0  0999 V2000
  191.5880  174.6660  143.4010 C   0  0  2  0  0  3  0  0  0  0  0  0
  190.3550  174.8750  142.6190 N   0  0  2  0  0  0  0  0  0  0  0  0
  190.6430  176.7990  143.8700 C   0  0  2  0  0  0  0  0  0  0  0  0
  187.0200  176.1520  140.6120 N   0  0  0  0  0  0  0  0  0  0  0  0
  185.4830  178.1210  140.6660 C   0  0  0  0  0  1  0  0  0  0  0  0
  190.2810  174.2800  141.2820 C   0  0  0  0  0  2  0  0  0  0  0  0
  187.8610  177.9790  142.1510 S   0  0  0  0  0  0  0  0  0  0  0  0
  190.8880  176.4990  146.7050 C   0  0  0  0  0  0  0  0  0  0  0  0
  191.0280  178.2550  143.9510 C   0  0  0  0  0  2  0  0  0  0  0  0
  191.2600  176.4700  148.1510 C   0  0  0  0  0  1  0  0  0  0  0  0
  188.7800  176.5730  142.0590 C   0  0  0  0  0  0  0  0  0  0  0  0
  186.7000  177.3790  141.0840 C   0  0  0  0  0  0  0  0  0  0  0  0
  188.1940  175.7140  141.1360 C   0  0  0  0  0  0  0  0  0  0  0  0
  191.6570  175.8120  144.4260 C   0  0  1  0  0  3  0  0  0  0  0  0
  190.1740  176.3160  142.5260 C   0  0  2  0  0  3  0  0  0  0  0  0
  190.2660  177.5870  146.2240 C   0  0  0  0  0  3  0  0  0  0  0  0
  188.8280  174.3920  140.7600 C   0  0  0  0  0  2  0  0  0  0  0  0
  192.1680  174.4990  146.3620 O   0  0  0  0  0  1  0  0  0  0  0  0
  191.1930  175.3260  145.7990 C   0  0  1  0  0  3  0  0  0  0  0  0
  189.8490  177.7300  144.7790 C   0  0  2  0  0  3  0  0  0  0  0  0
  192.8720  174.5590  142.5540 C   0  0  0  0  0  2  0  0  0  0  0  0
  196.5330  176.7070  143.1260 C   0  0  0  0  0  2  0  0  0  0  0  0
  193.9670  175.5380  142.9590 C   0  0  2  0  0  3  0  0  0  0  0  0
  194.4700  176.2870  141.7160 C   0  0  0  0  0  2  0  0  0  0  0  0
  195.9940  176.4280  141.7200 C   0  0  0  0  0  2  0  0  0  0  0  0
  195.8240  175.8490  144.1870 C   0  0  0  0  0  2  0  0  0  0  0  0
  195.0180  174.8560  143.5990 O   0  0  0  0  0  0  0  0  0  0  0  0
  1 21  1  6  0  0  0
  1 14  1  0  0  0  0
  2  6  1  6  0  0  0
  2  1  1  0  0  0  0
  3  9  1  6  0  0  0
  3 14  1  0  0  0  0
  3 20  1  0  0  0  0
  4 12  2  0  0  0  0
  4 13  1  0  0  0  0
  5 12  1  0  0  0  0
  8 10  1  0  0  0  0
  9 20  1  0  0  0  0
 11  7  1  0  0  0  0
 11 15  1  0  0  0  0
 12  7  1  0  0  0  0
 13 11  2  0  0  0  0
 14 19  1  0  0  0  0
 15  2  1  0  0  0  0
 15  3  1  0  0  0  0
 16  8  2  0  0  0  0
 17 13  1  0  0  0  0
 17  6  1  0  0  0  0
 19 18  1  0  0  0  0
 19  8  1  0  0  0  0
 20 16  1  0  0  0  0
 21 23  1  0  0  0  0
 22 26  1  0  0  0  0
 23 27  1  0  0  0  0
 24 25  1  0  0  0  0
 24 23  1  0  0  0  0
 25 22  1  0  0  0  0
 27 26  1  0  0  0  0
M  END
>  <MODEL>
5

>  <REMARK>
 VINA RESULT:      -6.8      3.213      4.881
  Name = 
  2 active torsions:
  status: ('A' for Active; 'I' for Inactive)
    1  A    between atoms: C_1  and  C_15
    2  A    between atoms: C_9  and  C_15
                            x       y       z     vdW  Elec       q    Type
                         _______ _______ _______ _____ _____    ______ ____

>  <TORSDO>
F 2

$$$$
=
 OpenBabel11052418303D

 27 32  0  0  1  0  0  0  0  0999 V2000
  191.2300  174.6620  143.6940 C   0  0  2  0  0  3  0  0  0  0  0  0
  190.2540  175.7450  143.9180 N   0  0  2  0  0  0  0  0  0  0  0  0
  189.2340  174.2680  142.4590 C   0  0  2  0  0  0  0  0  0  0  0  0
  187.0630  178.2910  144.2670 N   0  0  0  0  0  0  0  0  0  0  0  0
  184.8050  178.5600  143.2320 C   0  0  0  0  0  1  0  0  0  0  0  0
  190.2260  176.3830  145.2370 C   0  0  0  0  0  2  0  0  0  0  0  0
  186.4610  176.3410  142.7650 S   0  0  0  0  0  0  0  0  0  0  0  0
  190.6270  173.6380  140.0400 C   0  0  0  0  0  0  0  0  0  0  0  0
  188.2150  173.1870  142.2000 C   0  0  0  0  0  2  0  0  0  0  0  0
  191.3370  173.0470  138.8670 C   0  0  0  0  0  1  0  0  0  0  0  0
  187.9790  176.3090  143.4880 C   0  0  0  0  0  0  0  0  0  0  0  0
  186.0830  177.8360  143.4520 C   0  0  0  0  0  0  0  0  0  0  0  0
  188.1090  177.4260  144.3070 C   0  0  0  0  0  0  0  0  0  0  0  0
  190.6820  173.8100  142.5350 C   0  0  1  0  0  3  0  0  0  0  0  0
  188.9470  175.1810  143.6190 C   0  0  2  0  0  3  0  0  0  0  0  0
  189.2870  173.7010  140.0140 C   0  0  0  0  0  3  0  0  0  0  0  0
  189.3350  177.6470  145.1670 C   0  0  0  0  0  2  0  0  0  0  0  0
  192.6970  173.6580  141.2520 O   0  0  0  0  0  1  0  0  0  0  0  0
  191.3970  174.1660  141.2320 C   0  0  1  0  0  3  0  0  0  0  0  0
  188.4630  174.2710  141.1440 C   0  0  2  0  0  3  0  0  0  0  0  0
  191.5440  173.8160  144.9450 C   0  0  0  0  0  2  0  0  0  0  0  0
  195.6030  174.9120  145.7630 C   0  0  0  0  0  2  0  0  0  0  0  0
  193.0000  173.8810  145.3890 C   0  0  2  0  0  3  0  0  0  0  0  0
  193.1650  174.9820  146.4470 C   0  0  0  0  0  2  0  0  0  0  0  0
  194.4400  175.7970  146.2210 C   0  0  0  0  0  2  0  0  0  0  0  0
  195.1490  173.8660  144.7300 C   0  0  0  0  0  2  0  0  0  0  0  0
  193.8380  174.1130  144.2830 O   0  0  0  0  0  0  0  0  0  0  0  0
  1  2  1  0  0  0  0
  1 21  1  1  0  0  0
  2  6  1  1  0  0  0
  3  9  1  1  0  0  0
  3 14  1  0  0  0  0
  3 15  1  0  0  0  0
  4 13  1  0  0  0  0
  5 12  1  0  0  0  0
  7 12  1  0  0  0  0
  7 11  1  0  0  0  0
  8 19  1  0  0  0  0
 10  8  1  0  0  0  0
 11 15  1  0  0  0  0
 11 13  2  0  0  0  0
 12  4  2  0  0  0  0
 13 17  1  0  0  0  0
 14  1  1  0  0  0  0
 15  2  1  0  0  0  0
 16  8  2  0  0  0  0
 16 20  1  0  0  0  0
 17  6  1  0  0  0  0
 19 18  1  0  0  0  0
 19 14  1  0  0  0  0
 20  9  1  0  0  0  0
 20  3  1  0  0  0  0
 21 23  1  0  0  0  0
 22 25  1  0  0  0  0
 23 24  1  0  0  0  0
 25 24  1  0  0  0  0
 26 22  1  0  0  0  0
 27 26  1  0  0  0  0
 27 23  1  0  0  0  0
M  END
>  <MODEL>
6

>  <REMARK>
 VINA RESULT:      -6.6      3.156      6.047
  Name = 
  2 active torsions:
  status: ('A' for Active; 'I' for Inactive)
    1  A    between atoms: C_1  and  C_15
    2  A    between atoms: C_9  and  C_15
                            x       y       z     vdW  Elec       q    Type
                         _______ _______ _______ _____ _____    ______ ____

>  <TORSDO>
F 2

$$$$
=
 OpenBabel11052418303D

 27 32  0  0  1  0  0  0  0  0999 V2000
  188.9500  175.0870  142.1550 C   0  0  2  0  0  3  0  0  0  0  0  0
  190.3370  175.4480  142.5050 N   0  0  2  0  0  0  0  0  0  0  0  0
  189.0800  175.8560  144.4040 C   0  0  2  0  0  0  0  0  0  0  0  0
  193.9570  176.4180  144.1600 N   0  0  0  0  0  0  0  0  0  0  0  0
  194.8000  177.3640  146.3140 C   0  0  0  0  0  1  0  0  0  0  0  0
  191.4230  174.6770  141.8950 C   0  0  0  0  0  2  0  0  0  0  0  0
  192.1240  176.6220  145.8970 S   0  0  0  0  0  0  0  0  0  0  0  0
  186.8290  177.6030  144.1390 C   0  0  0  0  0  0  0  0  0  0  0  0
  188.6610  175.4640  145.7980 C   0  0  0  0  0  2  0  0  0  0  0  0
  185.5080  178.2990  144.0950 C   0  0  0  0  0  1  0  0  0  0  0  0
  191.6810  176.0420  144.3810 C   0  0  0  0  0  0  0  0  0  0  0  0
  193.7320  176.8310  145.4290 C   0  0  0  0  0  0  0  0  0  0  0  0
  192.8180  175.9540  143.5860 C   0  0  0  0  0  0  0  0  0  0  0  0
  188.0610  175.5920  143.3060 C   0  0  1  0  0  3  0  0  0  0  0  0
  190.4260  175.3580  143.9550 C   0  0  2  0  0  3  0  0  0  0  0  0
  187.5240  177.6170  145.2870 C   0  0  0  0  0  3  0  0  0  0  0  0
  192.7690  175.3850  142.1840 C   0  0  0  0  0  2  0  0  0  0  0  0
  186.3750  176.6570  141.9820 O   0  0  0  0  0  1  0  0  0  0  0  0
  187.3830  176.9050  142.9160 C   0  0  1  0  0  3  0  0  0  0  0  0
  188.8650  176.9430  145.4500 C   0  0  2  0  0  3  0  0  0  0  0  0
  188.7350  173.5890  141.8620 C   0  0  0  0  0  2  0  0  0  0  0  0
  188.9250  173.0300  137.6200 C   0  0  0  0  0  2  0  0  0  0  0  0
  188.4640  173.2760  140.3960 C   0  0  2  0  0  3  0  0  0  0  0  0
  189.3720  172.1220  139.9420 C   0  0  0  0  0  2  0  0  0  0  0  0
  189.9510  172.3740  138.5480 C   0  0  0  0  0  2  0  0  0  0  0  0
  188.1220  174.1250  138.3430 C   0  0  0  0  0  2  0  0  0  0  0  0
  188.6690  174.4220  139.6060 O   0  0  0  0  0  0  0  0  0  0  0  0
  1 21  1  1  0  0  0
  1  2  1  0  0  0  0
  1 14  1  0  0  0  0
  2  6  1  6  0  0  0
  2 15  1  0  0  0  0
  3 20  1  0  0  0  0
  3  9  1  1  0  0  0
  4 12  2  0  0  0  0
  6 17  1  0  0  0  0
  8 16  2  0  0  0  0
 10  8  1  0  0  0  0
 11  7  1  0  0  0  0
 12  7  1  0  0  0  0
 12  5  1  0  0  0  0
 13  4  1  0  0  0  0
 13 11  2  0  0  0  0
 14  3  1  0  0  0  0
 15 11  1  0  0  0  0
 15  3  1  0  0  0  0
 16 20  1  0  0  0  0
 17 13  1  0  0  0  0
 18 19  1  0  0  0  0
 19 14  1  0  0  0  0
 19  8  1  0  0  0  0
 20  9  1  0  0  0  0
 22 26  1  0  0  0  0
 22 25  1  0  0  0  0
 23 21  1  0  0  0  0
 24 23  1  0  0  0  0
 25 24  1  0  0  0  0
 26 27  1  0  0  0  0
 27 23  1  0  0  0  0
M  END
>  <MODEL>
7

>  <REMARK>
 VINA RESULT:      -6.6      3.950      7.053
  Name = 
  2 active torsions:
  status: ('A' for Active; 'I' for Inactive)
    1  A    between atoms: C_1  and  C_15
    2  A    between atoms: C_9  and  C_15
                            x       y       z     vdW  Elec       q    Type
                         _______ _______ _______ _____ _____    ______ ____

>  <TORSDO>
F 2

$$$$
=
 OpenBabel11052418303D

 27 32  0  0  1  0  0  0  0  0999 V2000
  188.6750  176.1780  145.3950 C   0  0  2  0  0  3  0  0  0  0  0  0
  188.4430  176.0180  143.9470 N   0  0  2  0  0  0  0  0  0  0  0  0
  190.1930  174.5970  144.4680 C   0  0  2  0  0  0  0  0  0  0  0  0
  188.1880  174.9690  139.9950 N   0  0  0  0  0  0  0  0  0  0  0  0
  189.4590  173.5420  138.3860 C   0  0  0  0  0  1  0  0  0  0  0  0
  187.0700  176.1430  143.4530 C   0  0  0  0  0  2  0  0  0  0  0  0
  189.9860  173.6030  141.1440 S   0  0  0  0  0  0  0  0  0  0  0  0
  192.4760  175.7420  145.7600 C   0  0  0  0  0  0  0  0  0  0  0  0
  190.7130  173.2010  144.7000 C   0  0  0  0  0  2  0  0  0  0  0  0
  193.6140  176.1550  146.6350 C   0  0  0  0  0  1  0  0  0  0  0  0
  189.0860  174.6460  142.1070 C   0  0  0  0  0  0  0  0  0  0  0  0
  189.1710  174.0740  139.7430 C   0  0  0  0  0  0  0  0  0  0  0  0
  188.1240  175.2680  141.3190 C   0  0  0  0  0  0  0  0  0  0  0  0
  189.9920  175.4470  145.7130 C   0  0  1  0  0  3  0  0  0  0  0  0
  188.9750  174.7100  143.5940 C   0  0  2  0  0  3  0  0  0  0  0  0
  192.6640  174.7330  144.8950 C   0  0  0  0  0  3  0  0  0  0  0  0
  187.0940  176.2080  141.9070 C   0  0  0  0  0  2  0  0  0  0  0  0
  191.0180  177.1630  147.0290 O   0  0  0  0  0  1  0  0  0  0  0  0
  191.1400  176.4490  145.8360 C   0  0  1  0  0  3  0  0  0  0  0  0
  191.5850  174.2280  143.9670 C   0  0  2  0  0  3  0  0  0  0  0  0
  187.5110  175.7000  146.2850 C   0  0  0  0  0  2  0  0  0  0  0  0
  185.6630  179.3290  147.6130 C   0  0  0  0  0  2  0  0  0  0  0  0
  186.8310  176.8140  147.0710 C   0  0  2  0  0  3  0  0  0  0  0  0
  185.4310  177.0690  146.4920 C   0  0  0  0  0  2  0  0  0  0  0  0
  185.1190  178.5650  146.4030 C   0  0  0  0  0  2  0  0  0  0  0  0
  187.0680  178.8440  148.0070 C   0  0  0  0  0  2  0  0  0  0  0  0
  187.6130  177.9840  147.0360 O   0  0  0  0  0  0  0  0  0  0  0  0
  1 14  1  0  0  0  0
  1 21  1  1  0  0  0
  2  6  1  1  0  0  0
  2  1  1  0  0  0  0
  3  9  1  1  0  0  0
  3 14  1  0  0  0  0
  4 13  1  0  0  0  0
  5 12  1  0  0  0  0
  7 11  1  0  0  0  0
  8 19  1  0  0  0  0
  8 10  1  0  0  0  0
 11 15  1  0  0  0  0
 12  4  2  0  0  0  0
 12  7  1  0  0  0  0
 13 17  1  0  0  0  0
 13 11  2  0  0  0  0
 14 19  1  0  0  0  0
 15  2  1  0  0  0  0
 15  3  1  0  0  0  0
 16  8  2  0  0  0  0
 17  6  1  0  0  0  0
 19 18  1  0  0  0  0
 20  3  1  0  0  0  0
 20  9  1  0  0  0  0
 20 16  1  0  0  0  0
 21 23  1  0  0  0  0
 22 26  1  0  0  0  0
 24 23  1  0  0  0  0
 25 24  1  0  0  0  0
 25 22  1  0  0  0  0
 27 23  1  0  0  0  0
 27 26  1  0  0  0  0
M  END
>  <MODEL>
8

>  <REMARK>
 VINA RESULT:      -6.6      3.431      6.285
  Name = 
  2 active torsions:
  status: ('A' for Active; 'I' for Inactive)
    1  A    between atoms: C_1  and  C_15
    2  A    between atoms: C_9  and  C_15
                            x       y       z     vdW  Elec       q    Type
                         _______ _______ _______ _____ _____    ______ ____

>  <TORSDO>
F 2

$$$$
=
 OpenBabel11052418303D

 27 32  0  0  1  0  0  0  0  0999 V2000
  189.3070  177.4110  143.6450 C   0  0  2  0  0  3  0  0  0  0  0  0
  190.7530  177.2140  143.8620 N   0  0  2  0  0  0  0  0  0  0  0  0
  189.7000  175.5490  145.0740 C   0  0  2  0  0  0  0  0  0  0  0  0
  194.5790  176.0110  144.6950 N   0  0  0  0  0  0  0  0  0  0  0  0
  195.6970  174.3040  146.1380 C   0  0  0  0  0  1  0  0  0  0  0  0
  191.6630  177.5410  142.7610 C   0  0  0  0  0  2  0  0  0  0  0  0
  192.9160  174.4250  145.7630 S   0  0  0  0  0  0  0  0  0  0  0  0
  187.7370  176.3620  146.9920 C   0  0  0  0  0  0  0  0  0  0  0  0
  189.3160  174.1000  145.2380 C   0  0  0  0  0  2  0  0  0  0  0  0
  186.5410  176.6240  147.8470 C   0  0  0  0  0  1  0  0  0  0  0  0
  192.2910  175.6560  144.8020 C   0  0  0  0  0  0  0  0  0  0  0  0
  194.5040  174.9510  145.5330 C   0  0  0  0  0  0  0  0  0  0  0  0
  193.3470  176.3870  144.2670 C   0  0  0  0  0  0  0  0  0  0  0  0
  188.5840  176.4870  144.6420 C   0  0  1  0  0  3  0  0  0  0  0  0
  190.9200  175.8180  144.2370 C   0  0  2  0  0  3  0  0  0  0  0  0
  188.4980  175.2900  147.2640 C   0  0  0  0  0  3  0  0  0  0  0  0
  193.1180  177.5180  143.2870 C   0  0  0  0  0  2  0  0  0  0  0  0
  187.0020  178.0750  145.4820 O   0  0  0  0  0  1  0  0  0  0  0  0
  188.0950  177.2860  145.8490 C   0  0  1  0  0  3  0  0  0  0  0  0
  189.7260  174.9240  146.4650 C   0  0  2  0  0  3  0  0  0  0  0  0
  188.8420  177.1850  142.1930 C   0  0  0  0  0  2  0  0  0  0  0  0
  184.8900  178.2900  140.9660 C   0  0  0  0  0  2  0  0  0  0  0  0
  187.3380  177.3250  141.9930 C   0  0  2  0  0  3  0  0  0  0  0  0
  186.9680  176.8990  140.5640 C   0  0  0  0  0  2  0  0  0  0  0  0
  185.9360  177.8430  139.9420 C   0  0  0  0  0  2  0  0  0  0  0  0
  185.5280  178.6170  142.3270 C   0  0  0  0  0  2  0  0  0  0  0  0
  186.9330  178.6490  142.2470 O   0  0  0  0  0  0  0  0  0  0  0  0
  1 21  1  6  0  0  0
  1  2  1  0  0  0  0
  1 14  1  0  0  0  0
  2  6  1  6  0  0  0
  2 15  1  0  0  0  0
  3  9  1  6  0  0  0
  3 20  1  0  0  0  0
  4 12  2  0  0  0  0
  6 17  1  0  0  0  0
  8 16  2  0  0  0  0
  8 10  1  0  0  0  0
  9 20  1  0  0  0  0
 11  7  1  0  0  0  0
 12  7  1  0  0  0  0
 12  5  1  0  0  0  0
 13  4  1  0  0  0  0
 13 11  2  0  0  0  0
 14  3  1  0  0  0  0
 14 19  1  0  0  0  0
 15 11  1  0  0  0  0
 15  3  1  0  0  0  0
 17 13  1  0  0  0  0
 18 19  1  0  0  0  0
 19  8  1  0  0  0  0
 20 16  1  0  0  0  0
 22 26  1  0  0  0  0
 23 21  1  0  0  0  0
 23 27  1  0  0  0  0
 24 23  1  0  0  0  0
 25 24  1  0  0  0  0
 25 22  1  0  0  0  0
 27 26  1  0  0  0  0
M  END
>  <MODEL>
9

>  <REMARK>
 VINA RESULT:      -6.6      3.492      7.297
  Name = 
  2 active torsions:
  status: ('A' for Active; 'I' for Inactive)
    1  A    between atoms: C_1  and  C_15
    2  A    between atoms: C_9  and  C_15
                            x       y       z     vdW  Elec       q    Type
                         _______ _______ _______ _____ _____    ______ ____

>  <TORSDO>
F 2

$$$$
