=
 OpenBabel11052420043D

 37 41  0  0  1  0  0  0  0  0999 V2000
  187.7140  177.8810  144.5160 C   0  0  1  0  0  3  0  0  0  0  0  0
  190.2680  176.0260  146.0710 S   0  0  1  0  0  0  0  0  0  0  0  0
  188.5670  177.4890  142.0500 C   0  0  0  0  0  2  0  0  0  0  0  0
  189.8840  172.4820  143.4460 C   0  0  0  0  0  3  0  0  0  0  0  0
  189.7010  176.2220  144.3550 C   0  0  1  0  0  0  0  0  0  0  0  0
  189.7390  173.6470  144.2050 C   0  0  0  0  0  0  0  0  0  0  0  0
  190.4710  177.4510  143.7790 C   0  0  2  0  0  3  0  0  0  0  0  0
  189.3530  173.4990  145.5440 O   0  0  0  0  0  0  0  0  0  0  0  0
  189.9820  174.9150  143.6060 C   0  0  0  0  0  0  0  0  0  0  0  0
  190.5140  173.7760  141.5120 C   0  0  0  0  0  3  0  0  0  0  0  0
  189.4860  177.0730  146.8550 O   0  0  0  0  0  0  0  0  0  0  0  0
  189.4960  174.4980  146.5040 C   0  0  0  0  0  0  0  0  0  0  0  0
  190.3590  174.9470  142.2500 C   0  0  0  0  0  3  0  0  0  0  0  0
  189.8770  178.1120  142.5260 C   0  0  0  0  0  2  0  0  0  0  0  0
  189.0950  174.3010  147.6800 O   0  0  0  0  0  0  0  0  0  0  0  0
  188.1580  176.4190  144.3740 C   0  0  2  0  0  3  0  0  0  0  0  0
  190.2770  172.5370  142.1040 C   0  0  0  0  0  0  0  0  0  0  0  0
  187.5780  177.1550  143.1730 C   0  0  1  0  0  0  0  0  0  0  0  0
  190.4350  171.3790  141.3370 O   0  0  0  0  0  0  0  0  0  0  0  0
  190.7420  170.1150  141.9090 C   0  0  0  0  0  1  0  0  0  0  0  0
  186.4210  177.9360  145.3130 C   0  0  0  0  0  2  0  0  0  0  0  0
  184.2560  179.1250  145.2250 C   0  0  0  0  0  1  0  0  0  0  0  0
  185.7580  179.2820  145.1100 C   0  0  0  0  0  2  0  0  0  0  0  0
  186.2200  176.6050  142.7530 C   0  0  0  0  0  2  0  0  0  0  0  0
  185.8570  177.1320  141.5130 O   0  0  0  0  0  0  0  0  0  0  0  0
  184.8460  178.0470  141.8040 C   0  0  0  0  0  2  0  0  0  0  0  0
  182.7120  178.1550  140.6230 C   0  0  0  0  0  2  0  0  0  0  0  0
  184.0320  178.2910  140.5810 C   0  0  0  0  0  3  0  0  0  0  0  0
  191.9750  177.2330  143.6390 C   0  0  0  0  0  2  0  0  0  0  0  0
  192.6310  177.1600  145.0060 C   0  0  0  0  0  2  0  0  0  0  0  0
  194.5930  175.9690  146.0010 C   0  0  0  0  0  3  0  0  0  0  0  0
  193.5530  175.9930  145.0640 C   0  0  0  0  0  0  0  0  0  0  0  0
  193.4040  174.9350  144.1610 C   0  0  0  0  0  3  0  0  0  0  0  0
  194.1220  172.7240  143.2460 C   0  0  0  0  0  1  0  0  0  0  0  0
  195.3190  173.8250  145.1410 C   0  0  0  0  0  3  0  0  0  0  0  0
  194.2850  173.8500  144.2010 C   0  0  0  0  0  0  0  0  0  0  0  0
  195.4750  174.8850  146.0400 C   0  0  0  0  0  3  0  0  0  0  0  0
  1 21  1  1  0  0  0
  2 12  1  0  0  0  0
  2 11  2  1  0  0  0
  3 14  1  0  0  0  0
  3 18  1  0  0  0  0
  4  6  1  0  0  0  0
  5  9  1  6  0  0  0
  5 16  1  0  0  0  0
  5  2  1  0  0  0  0
  6  8  1  0  0  0  0
  7 29  1  6  0  0  0
  7  5  1  0  0  0  0
  8 12  1  0  0  0  0
  9  6  2  0  0  0  0
 10 17  1  0  0  0  0
 10 13  2  0  0  0  0
 12 15  2  0  0  0  0
 13  9  1  0  0  0  0
 14  7  1  0  0  0  0
 16  1  1  0  0  0  0
 17  4  2  0  0  0  0
 18 16  1  0  0  0  0
 18  1  1  0  0  0  0
 19 20  1  0  0  0  0
 19 17  1  0  0  0  0
 23 22  1  0  0  0  0
 23 21  1  0  0  0  0
 24 18  1  0  0  0  0
 25 26  1  0  0  0  0
 25 24  1  0  0  0  0
 28 27  2  0  0  0  0
 28 26  1  0  0  0  0
 29 30  1  0  0  0  0
 30 32  1  0  0  0  0
 31 37  1  0  0  0  0
 32 31  2  0  0  0  0
 33 36  2  0  0  0  0
 33 32  1  0  0  0  0
 34 36  1  0  0  0  0
 35 37  2  0  0  0  0
 36 35  1  0  0  0  0
M  END
>  <MODEL>
1

>  <REMARK>
 VINA RESULT:      -7.6      0.000      0.000
  Name = 
  10 active torsions:
  status: ('A' for Active; 'I' for Inactive)
    1  A    between atoms: C_1  and  C_5
    2  A    between atoms: O_3  and  C_32
    3  A    between atoms: C_5  and  C_23
    4  A    between atoms: C_6  and  C_31
    5  A    between atoms: C_14  and  C_37
    6  A    between atoms: O_17  and  C_26
    7  A    between atoms: O_17  and  C_33
    8  A    between atoms: C_26  and  C_34
    9  A    between atoms: C_31  and  C_37
   10  A    between atoms: C_33  and  C_36
                            x       y       z     vdW  Elec       q    Type
                         _______ _______ _______ _____ _____    ______ ____

>  <TORSDO>
F 10

$$$$
=
 OpenBabel11052420043D

 37 41  0  0  1  0  0  0  0  0999 V2000
  195.1830  174.0510  144.4870 C   0  0  1  0  0  3  0  0  0  0  0  0
  194.0760  176.1830  141.9150 S   0  0  1  0  0  0  0  0  0  0  0  0
  192.7940  173.6220  145.5210 C   0  0  0  0  0  2  0  0  0  0  0  0
  190.8040  173.5370  140.5420 C   0  0  0  0  0  3  0  0  0  0  0  0
  193.2490  175.0730  143.0930 C   0  0  1  0  0  0  0  0  0  0  0  0
  191.9510  174.1350  141.0710 C   0  0  0  0  0  0  0  0  0  0  0  0
  192.9850  175.9190  144.3780 C   0  0  2  0  0  3  0  0  0  0  0  0
  193.0430  174.3060  140.2090 O   0  0  0  0  0  0  0  0  0  0  0  0
  191.9710  174.5430  142.4350 C   0  0  0  0  0  0  0  0  0  0  0  0
  189.6780  173.7320  142.6660 C   0  0  0  0  0  3  0  0  0  0  0  0
  195.5290  176.2140  142.3740 O   0  0  0  0  0  0  0  0  0  0  0  0
  194.1030  175.1710  140.4680 C   0  0  0  0  0  0  0  0  0  0  0  0
  190.8200  174.3160  143.2120 C   0  0  0  0  0  3  0  0  0  0  0  0
  192.7130  175.1400  145.6740 C   0  0  0  0  0  2  0  0  0  0  0  0
  195.0650  175.2460  139.6600 O   0  0  0  0  0  0  0  0  0  0  0  0
  194.1790  173.8510  143.3440 C   0  0  2  0  0  3  0  0  0  0  0  0
  189.6630  173.3370  141.3300 C   0  0  0  0  0  0  0  0  0  0  0  0
  193.9710  173.1320  144.6700 C   0  0  1  0  0  0  0  0  0  0  0  0
  188.5070  172.7480  140.8110 O   0  0  0  0  0  0  0  0  0  0  0  0
  188.2360  172.6860  139.4170 C   0  0  0  0  0  1  0  0  0  0  0  0
  196.4680  173.3080  144.1600 C   0  0  0  0  0  2  0  0  0  0  0  0
  197.0210  173.6860  146.5390 C   0  0  0  0  0  1  0  0  0  0  0  0
  197.5570  173.7310  145.1240 C   0  0  0  0  0  2  0  0  0  0  0  0
  194.1510  171.6230  144.5480 C   0  0  0  0  0  2  0  0  0  0  0  0
  194.2780  171.0560  145.8170 O   0  0  0  0  0  0  0  0  0  0  0  0
  195.0570  169.9170  145.6150 C   0  0  0  0  0  2  0  0  0  0  0  0
  197.4970  169.9760  145.5720 C   0  0  0  0  0  2  0  0  0  0  0  0
  196.3780  170.0970  146.2780 C   0  0  0  0  0  3  0  0  0  0  0  0
  191.9810  177.0500  144.1820 C   0  0  0  0  0  2  0  0  0  0  0  0
  191.0640  177.1610  145.3870 C   0  0  0  0  0  2  0  0  0  0  0  0
  189.3550  177.6630  143.6300 C   0  0  0  0  0  3  0  0  0  0  0  0
  189.6470  177.2610  144.9380 C   0  0  0  0  0  0  0  0  0  0  0  0
  188.6070  176.9880  145.8330 C   0  0  0  0  0  3  0  0  0  0  0  0
  186.1740  176.8070  146.3660 C   0  0  0  0  0  1  0  0  0  0  0  0
  186.9870  177.5000  144.1090 C   0  0  0  0  0  3  0  0  0  0  0  0
  187.2770  177.1040  145.4180 C   0  0  0  0  0  0  0  0  0  0  0  0
  188.0250  177.7800  143.2150 C   0  0  0  0  0  3  0  0  0  0  0  0
  1 21  1  6  0  0  0
  1 18  1  0  0  0  0
  2 11  2  1  0  0  0
  2  5  1  0  0  0  0
  3 14  1  0  0  0  0
  4  6  2  0  0  0  0
  4 17  1  0  0  0  0
  5  9  1  6  0  0  0
  5 16  1  0  0  0  0
  5  7  1  0  0  0  0
  6  9  1  0  0  0  0
  7 29  1  6  0  0  0
  7 14  1  0  0  0  0
  8 12  1  0  0  0  0
  8  6  1  0  0  0  0
  9 13  2  0  0  0  0
 10 13  1  0  0  0  0
 12  2  1  0  0  0  0
 15 12  2  0  0  0  0
 16  1  1  0  0  0  0
 16 18  1  0  0  0  0
 17 10  2  0  0  0  0
 18  3  1  0  0  0  0
 19 17  1  0  0  0  0
 20 19  1  0  0  0  0
 21 23  1  0  0  0  0
 23 22  1  0  0  0  0
 24 18  1  0  0  0  0
 24 25  1  0  0  0  0
 26 25  1  0  0  0  0
 26 28  1  0  0  0  0
 27 28  2  0  0  0  0
 29 30  1  0  0  0  0
 31 32  1  0  0  0  0
 32 30  1  0  0  0  0
 32 33  2  0  0  0  0
 35 36  2  0  0  0  0
 36 33  1  0  0  0  0
 36 34  1  0  0  0  0
 37 31  2  0  0  0  0
 37 35  1  0  0  0  0
M  END
>  <MODEL>
2

>  <REMARK>
 VINA RESULT:      -7.5      2.947      8.164
  Name = 
  10 active torsions:
  status: ('A' for Active; 'I' for Inactive)
    1  A    between atoms: C_1  and  C_5
    2  A    between atoms: O_3  and  C_32
    3  A    between atoms: C_5  and  C_23
    4  A    between atoms: C_6  and  C_31
    5  A    between atoms: C_14  and  C_37
    6  A    between atoms: O_17  and  C_26
    7  A    between atoms: O_17  and  C_33
    8  A    between atoms: C_26  and  C_34
    9  A    between atoms: C_31  and  C_37
   10  A    between atoms: C_33  and  C_36
                            x       y       z     vdW  Elec       q    Type
                         _______ _______ _______ _____ _____    ______ ____

>  <TORSDO>
F 10

$$$$
=
 OpenBabel11052420043D

 37 41  0  0  1  0  0  0  0  0999 V2000
  195.2380  173.5740  144.3470 C   0  0  1  0  0  3  0  0  0  0  0  0
  194.1460  176.0330  142.0800 S   0  0  1  0  0  0  0  0  0  0  0  0
  192.8680  173.1260  145.4150 C   0  0  0  0  0  2  0  0  0  0  0  0
  190.7140  173.7010  140.5380 C   0  0  0  0  0  3  0  0  0  0  0  0
  193.3080  174.8290  143.1540 C   0  0  1  0  0  0  0  0  0  0  0  0
  191.9040  174.1860  141.0880 C   0  0  0  0  0  0  0  0  0  0  0  0
  193.1250  175.5300  144.5360 C   0  0  2  0  0  3  0  0  0  0  0  0
  192.9740  174.4110  140.2110 O   0  0  0  0  0  0  0  0  0  0  0  0
  191.9870  174.4310  142.4870 C   0  0  0  0  0  0  0  0  0  0  0  0
  189.6680  173.6940  142.7100 C   0  0  0  0  0  3  0  0  0  0  0  0
  195.6130  175.9510  142.4840 O   0  0  0  0  0  0  0  0  0  0  0  0
  194.0800  175.1960  140.5260 C   0  0  0  0  0  0  0  0  0  0  0  0
  190.8530  174.1640  143.2760 C   0  0  0  0  0  3  0  0  0  0  0  0
  192.8610  174.6180  145.7430 C   0  0  0  0  0  2  0  0  0  0  0  0
  195.0170  175.3230  139.6970 O   0  0  0  0  0  0  0  0  0  0  0  0
  194.1900  173.5480  143.2280 C   0  0  2  0  0  3  0  0  0  0  0  0
  189.5920  173.4580  141.3390 C   0  0  0  0  0  0  0  0  0  0  0  0
  193.9920  172.6890  144.4700 C   0  0  1  0  0  0  0  0  0  0  0  0
  188.3930  172.9820  140.8000 O   0  0  0  0  0  0  0  0  0  0  0  0
  188.2270  172.7130  139.4150 C   0  0  0  0  0  1  0  0  0  0  0  0
  196.4770  172.8210  143.8890 C   0  0  0  0  0  2  0  0  0  0  0  0
  196.9630  173.5600  146.1970 C   0  0  0  0  0  1  0  0  0  0  0  0
  197.4780  172.7540  145.0240 C   0  0  0  0  0  2  0  0  0  0  0  0
  194.1000  171.1990  144.1690 C   0  0  0  0  0  2  0  0  0  0  0  0
  192.9060  170.5600  144.5060 O   0  0  0  0  0  0  0  0  0  0  0  0
  192.6200  169.7500  143.4080 C   0  0  0  0  0  2  0  0  0  0  0  0
  190.7810  170.0910  141.8390 C   0  0  0  0  0  2  0  0  0  0  0  0
  191.9050  170.5510  142.3760 C   0  0  0  0  0  3  0  0  0  0  0  0
  192.1670  176.7170  144.5090 C   0  0  0  0  0  2  0  0  0  0  0  0
  191.3430  176.7630  145.7830 C   0  0  0  0  0  2  0  0  0  0  0  0
  189.5570  177.4720  144.1800 C   0  0  0  0  0  3  0  0  0  0  0  0
  189.9120  177.0100  145.4530 C   0  0  0  0  0  0  0  0  0  0  0  0
  188.9240  176.8120  146.4240 C   0  0  0  0  0  3  0  0  0  0  0  0
  186.5350  176.8490  147.1490 C   0  0  0  0  0  1  0  0  0  0  0  0
  187.2300  177.5210  144.8470 C   0  0  0  0  0  3  0  0  0  0  0  0
  187.5830  177.0650  146.1200 C   0  0  0  0  0  0  0  0  0  0  0  0
  188.2170  177.7260  143.8770 C   0  0  0  0  0  3  0  0  0  0  0  0
  1 21  1  6  0  0  0
  1 18  1  0  0  0  0
  2 11  2  1  0  0  0
  2  5  1  0  0  0  0
  3 14  1  0  0  0  0
  4  6  2  0  0  0  0
  4 17  1  0  0  0  0
  5  9  1  6  0  0  0
  5 16  1  0  0  0  0
  5  7  1  0  0  0  0
  6  9  1  0  0  0  0
  7 29  1  6  0  0  0
  7 14  1  0  0  0  0
  8 12  1  0  0  0  0
  8  6  1  0  0  0  0
  9 13  2  0  0  0  0
 10 13  1  0  0  0  0
 12  2  1  0  0  0  0
 15 12  2  0  0  0  0
 16  1  1  0  0  0  0
 16 18  1  0  0  0  0
 17 10  2  0  0  0  0
 18  3  1  0  0  0  0
 19 17  1  0  0  0  0
 20 19  1  0  0  0  0
 21 23  1  0  0  0  0
 23 22  1  0  0  0  0
 24 18  1  0  0  0  0
 24 25  1  0  0  0  0
 26 25  1  0  0  0  0
 27 28  2  0  0  0  0
 28 26  1  0  0  0  0
 29 30  1  0  0  0  0
 31 32  1  0  0  0  0
 32 30  1  0  0  0  0
 32 33  2  0  0  0  0
 35 36  2  0  0  0  0
 36 33  1  0  0  0  0
 36 34  1  0  0  0  0
 37 31  2  0  0  0  0
 37 35  1  0  0  0  0
M  END
>  <MODEL>
3

>  <REMARK>
 VINA RESULT:      -7.4      2.975      7.535
  Name = 
  10 active torsions:
  status: ('A' for Active; 'I' for Inactive)
    1  A    between atoms: C_1  and  C_5
    2  A    between atoms: O_3  and  C_32
    3  A    between atoms: C_5  and  C_23
    4  A    between atoms: C_6  and  C_31
    5  A    between atoms: C_14  and  C_37
    6  A    between atoms: O_17  and  C_26
    7  A    between atoms: O_17  and  C_33
    8  A    between atoms: C_26  and  C_34
    9  A    between atoms: C_31  and  C_37
   10  A    between atoms: C_33  and  C_36
                            x       y       z     vdW  Elec       q    Type
                         _______ _______ _______ _____ _____    ______ ____

>  <TORSDO>
F 10

$$$$
=
 OpenBabel11052420043D

 37 41  0  0  1  0  0  0  0  0999 V2000
  189.7320  176.4140  145.2040 C   0  0  1  0  0  3  0  0  0  0  0  0
  190.7860  173.1040  144.6470 S   0  0  1  0  0  0  0  0  0  0  0  0
  191.9230  177.5500  144.2710 C   0  0  0  0  0  2  0  0  0  0  0  0
  192.1010  173.7680  140.4730 C   0  0  0  0  0  3  0  0  0  0  0  0
  191.3970  174.7370  144.1350 C   0  0  1  0  0  0  0  0  0  0  0  0
  191.5190  173.7780  141.7440 C   0  0  0  0  0  0  0  0  0  0  0  0
  192.3580  175.2180  145.2660 C   0  0  2  0  0  3  0  0  0  0  0  0
  190.3900  172.9710  141.9410 O   0  0  0  0  0  0  0  0  0  0  0  0
  192.0800  174.5870  142.7720 C   0  0  0  0  0  0  0  0  0  0  0  0
  193.7890  175.3320  141.1930 C   0  0  0  0  0  3  0  0  0  0  0  0
  189.6860  173.4060  145.6590 O   0  0  0  0  0  0  0  0  0  0  0  0
  189.9110  172.6050  143.1960 C   0  0  0  0  0  0  0  0  0  0  0  0
  193.2110  175.3640  142.4610 C   0  0  0  0  0  3  0  0  0  0  0  0
  192.6620  176.7230  145.3200 C   0  0  0  0  0  2  0  0  0  0  0  0
  188.8710  171.9040  143.2920 O   0  0  0  0  0  0  0  0  0  0  0  0
  190.1690  175.6730  143.9340 C   0  0  2  0  0  3  0  0  0  0  0  0
  193.2370  174.5360  140.1910 C   0  0  0  0  0  0  0  0  0  0  0  0
  190.4530  177.1630  144.0770 C   0  0  1  0  0  0  0  0  0  0  0  0
  193.8340  174.5280  138.9270 O   0  0  0  0  0  0  0  0  0  0  0  0
  195.0300  173.8130  138.6470 C   0  0  0  0  0  1  0  0  0  0  0  0
  188.2230  176.5910  145.1860 C   0  0  0  0  0  2  0  0  0  0  0  0
  186.2270  176.8450  146.6220 C   0  0  0  0  0  1  0  0  0  0  0  0
  187.6720  176.3960  146.5830 C   0  0  0  0  0  2  0  0  0  0  0  0
  189.6410  178.0060  143.1000 C   0  0  0  0  0  2  0  0  0  0  0  0
  189.2050  177.2130  142.0380 O   0  0  0  0  0  0  0  0  0  0  0  0
  188.0090  177.8020  141.6290 C   0  0  0  0  0  2  0  0  0  0  0  0
  185.8000  177.1570  142.4430 C   0  0  0  0  0  2  0  0  0  0  0  0
  186.8990  176.8210  141.7770 C   0  0  0  0  0  3  0  0  0  0  0  0
  193.6280  174.3840  145.3990 C   0  0  0  0  0  2  0  0  0  0  0  0
  194.7920  175.2540  145.8370 C   0  0  0  0  0  2  0  0  0  0  0  0
  196.0610  176.6580  144.2000 C   0  0  0  0  0  3  0  0  0  0  0  0
  195.7700  175.3920  144.7230 C   0  0  0  0  0  0  0  0  0  0  0  0
  196.3740  174.2550  144.1750 C   0  0  0  0  0  3  0  0  0  0  0  0
  197.9210  173.1770  142.5380 C   0  0  0  0  0  1  0  0  0  0  0  0
  197.5700  175.6480  142.5970 C   0  0  0  0  0  3  0  0  0  0  0  0
  197.2760  174.3830  143.1140 C   0  0  0  0  0  0  0  0  0  0  0  0
  196.9620  176.7860  143.1390 C   0  0  0  0  0  3  0  0  0  0  0  0
  1 21  1  6  0  0  0
  2 11  2  1  0  0  0
  3 14  1  0  0  0  0
  4  6  1  0  0  0  0
  5  9  1  6  0  0  0
  5  2  1  0  0  0  0
  5  7  1  0  0  0  0
  6  8  1  0  0  0  0
  6  9  2  0  0  0  0
  7 14  1  0  0  0  0
  7 29  1  6  0  0  0
  8 12  1  0  0  0  0
 10 13  2  0  0  0  0
 12 15  2  0  0  0  0
 12  2  1  0  0  0  0
 13  9  1  0  0  0  0
 16 18  1  0  0  0  0
 16  5  1  0  0  0  0
 16  1  1  0  0  0  0
 17  4  2  0  0  0  0
 17 10  1  0  0  0  0
 18  3  1  0  0  0  0
 18  1  1  0  0  0  0
 19 17  1  0  0  0  0
 20 19  1  0  0  0  0
 21 23  1  0  0  0  0
 23 22  1  0  0  0  0
 24 18  1  0  0  0  0
 25 24  1  0  0  0  0
 26 28  1  0  0  0  0
 26 25  1  0  0  0  0
 28 27  2  0  0  0  0
 29 30  1  0  0  0  0
 31 32  1  0  0  0  0
 32 30  1  0  0  0  0
 33 32  2  0  0  0  0
 34 36  1  0  0  0  0
 35 36  2  0  0  0  0
 35 37  1  0  0  0  0
 36 33  1  0  0  0  0
 37 31  2  0  0  0  0
M  END
>  <MODEL>
4

>  <REMARK>
 VINA RESULT:      -7.4      2.295      3.592
  Name = 
  10 active torsions:
  status: ('A' for Active; 'I' for Inactive)
    1  A    between atoms: C_1  and  C_5
    2  A    between atoms: O_3  and  C_32
    3  A    between atoms: C_5  and  C_23
    4  A    between atoms: C_6  and  C_31
    5  A    between atoms: C_14  and  C_37
    6  A    between atoms: O_17  and  C_26
    7  A    between atoms: O_17  and  C_33
    8  A    between atoms: C_26  and  C_34
    9  A    between atoms: C_31  and  C_37
   10  A    between atoms: C_33  and  C_36
                            x       y       z     vdW  Elec       q    Type
                         _______ _______ _______ _____ _____    ______ ____

>  <TORSDO>
F 10

$$$$
=
 OpenBabel11052420043D

 37 41  0  0  1  0  0  0  0  0999 V2000
  192.3330  174.2060  144.2080 C   0  0  1  0  0  3  0  0  0  0  0  0
  190.8640  177.2430  145.2070 S   0  0  1  0  0  0  0  0  0  0  0  0
  190.0630  172.9930  143.6280 C   0  0  0  0  0  2  0  0  0  0  0  0
  188.2390  177.6380  141.6640 C   0  0  0  0  0  3  0  0  0  0  0  0
  190.2590  175.7570  144.3530 C   0  0  1  0  0  0  0  0  0  0  0  0
  189.2270  177.3570  142.6130 C   0  0  0  0  0  0  0  0  0  0  0  0
  189.7990  174.7690  145.4690 C   0  0  2  0  0  3  0  0  0  0  0  0
  190.2780  178.2760  142.7400 O   0  0  0  0  0  0  0  0  0  0  0  0
  189.1330  176.1760  143.4020 C   0  0  0  0  0  0  0  0  0  0  0  0
  187.0530  175.6210  142.2470 C   0  0  0  0  0  3  0  0  0  0  0  0
  192.2690  176.8740  145.6690 O   0  0  0  0  0  0  0  0  0  0  0  0
  191.1300  178.3280  143.8390 C   0  0  0  0  0  0  0  0  0  0  0  0
  188.0370  175.3190  143.1870 C   0  0  0  0  0  3  0  0  0  0  0  0
  189.6660  173.2910  145.0720 C   0  0  0  0  0  2  0  0  0  0  0  0
  192.0730  179.1610  143.8650 O   0  0  0  0  0  0  0  0  0  0  0  0
  191.4170  175.1960  143.4770 C   0  0  2  0  0  3  0  0  0  0  0  0
  187.1490  176.7800  141.4790 C   0  0  0  0  0  0  0  0  0  0  0  0
  191.3330  173.7090  143.1570 C   0  0  1  0  0  0  0  0  0  0  0  0
  186.1500  177.0540  140.5400 O   0  0  0  0  0  0  0  0  0  0  0  0
  185.4090  178.2660  140.5380 C   0  0  0  0  0  1  0  0  0  0  0  0
  193.7500  174.3520  143.6790 C   0  0  0  0  0  2  0  0  0  0  0  0
  193.9360  172.9570  145.7110 C   0  0  0  0  0  1  0  0  0  0  0  0
  194.7140  173.6490  144.6110 C   0  0  0  0  0  2  0  0  0  0  0  0
  191.8240  173.3880  141.7500 C   0  0  0  0  0  2  0  0  0  0  0  0
  191.2560  174.2760  140.8350 O   0  0  0  0  0  0  0  0  0  0  0  0
  190.8110  173.4670  139.7910 C   0  0  0  0  0  2  0  0  0  0  0  0
  188.4490  172.9670  140.1520 C   0  0  0  0  0  2  0  0  0  0  0  0
  189.3640  173.7200  139.5510 C   0  0  0  0  0  3  0  0  0  0  0  0
  188.5860  175.2470  146.2620 C   0  0  0  0  0  2  0  0  0  0  0  0
  188.6370  176.7520  146.4540 C   0  0  0  0  0  2  0  0  0  0  0  0
  186.2230  176.9180  147.0900 C   0  0  0  0  0  3  0  0  0  0  0  0
  187.2790  177.3320  146.2690 C   0  0  0  0  0  0  0  0  0  0  0  0
  187.0480  178.2670  145.2540 C   0  0  0  0  0  3  0  0  0  0  0  0
  185.5240  179.7920  143.9920 C   0  0  0  0  0  1  0  0  0  0  0  0
  184.7150  178.3850  145.8900 C   0  0  0  0  0  3  0  0  0  0  0  0
  185.7670  178.7950  145.0660 C   0  0  0  0  0  0  0  0  0  0  0  0
  184.9420  177.4460  146.9010 C   0  0  0  0  0  3  0  0  0  0  0  0
  1 21  1  6  0  0  0
  2 11  2  6  0  0  0
  3 14  1  0  0  0  0
  4  6  1  0  0  0  0
  5  9  1  6  0  0  0
  5  2  1  0  0  0  0
  5  7  1  0  0  0  0
  6  8  1  0  0  0  0
  6  9  2  0  0  0  0
  7 29  1  6  0  0  0
  8 12  1  0  0  0  0
 10 13  2  0  0  0  0
 12 15  2  0  0  0  0
 12  2  1  0  0  0  0
 13  9  1  0  0  0  0
 14  7  1  0  0  0  0
 16  1  1  0  0  0  0
 16  5  1  0  0  0  0
 17  4  2  0  0  0  0
 17 10  1  0  0  0  0
 18 16  1  0  0  0  0
 18  3  1  0  0  0  0
 18  1  1  0  0  0  0
 19 17  1  0  0  0  0
 20 19  1  0  0  0  0
 21 23  1  0  0  0  0
 23 22  1  0  0  0  0
 24 18  1  0  0  0  0
 25 24  1  0  0  0  0
 26 25  1  0  0  0  0
 28 26  1  0  0  0  0
 28 27  2  0  0  0  0
 29 30  1  0  0  0  0
 32 30  1  0  0  0  0
 32 31  2  0  0  0  0
 33 32  1  0  0  0  0
 34 36  1  0  0  0  0
 35 37  2  0  0  0  0
 36 33  2  0  0  0  0
 36 35  1  0  0  0  0
 37 31  1  0  0  0  0
M  END
>  <MODEL>
5

>  <REMARK>
 VINA RESULT:      -7.4      1.926      6.880
  Name = 
  10 active torsions:
  status: ('A' for Active; 'I' for Inactive)
    1  A    between atoms: C_1  and  C_5
    2  A    between atoms: O_3  and  C_32
    3  A    between atoms: C_5  and  C_23
    4  A    between atoms: C_6  and  C_31
    5  A    between atoms: C_14  and  C_37
    6  A    between atoms: O_17  and  C_26
    7  A    between atoms: O_17  and  C_33
    8  A    between atoms: C_26  and  C_34
    9  A    between atoms: C_31  and  C_37
   10  A    between atoms: C_33  and  C_36
                            x       y       z     vdW  Elec       q    Type
                         _______ _______ _______ _____ _____    ______ ____

>  <TORSDO>
F 10

$$$$
=
 OpenBabel11052420043D

 37 41  0  0  1  0  0  0  0  0999 V2000
  188.2930  177.7360  144.4160 C   0  0  1  0  0  3  0  0  0  0  0  0
  190.1420  176.0040  146.8580 S   0  0  1  0  0  0  0  0  0  0  0  0
  189.8520  177.0820  142.3910 C   0  0  0  0  0  2  0  0  0  0  0  0
  190.4260  172.2200  144.5790 C   0  0  0  0  0  3  0  0  0  0  0  0
  190.1490  176.0350  145.0400 C   0  0  1  0  0  0  0  0  0  0  0  0
  190.1070  173.4590  145.1440 C   0  0  0  0  0  0  0  0  0  0  0  0
  191.1190  177.1860  144.6270 C   0  0  2  0  0  3  0  0  0  0  0  0
  189.3160  173.4540  146.3010 O   0  0  0  0  0  0  0  0  0  0  0  0
  190.5860  174.6550  144.5400 C   0  0  0  0  0  0  0  0  0  0  0  0
  191.6890  173.3000  142.8320 C   0  0  0  0  0  3  0  0  0  0  0  0
  189.2060  177.1390  147.2570 O   0  0  0  0  0  0  0  0  0  0  0  0
  189.2010  174.5410  147.1630 C   0  0  0  0  0  0  0  0  0  0  0  0
  191.3680  174.5430  143.3750 C   0  0  0  0  0  3  0  0  0  0  0  0
  190.9780  177.7270  143.1970 C   0  0  0  0  0  2  0  0  0  0  0  0
  188.4440  174.4710  148.1650 O   0  0  0  0  0  0  0  0  0  0  0  0
  188.6880  176.2600  144.5540 C   0  0  2  0  0  3  0  0  0  0  0  0
  191.2190  172.1320  143.4290 C   0  0  0  0  0  0  0  0  0  0  0  0
  188.5480  176.8810  143.1700 C   0  0  1  0  0  0  0  0  0  0  0  0
  191.5530  170.8990  142.8600 O   0  0  0  0  0  0  0  0  0  0  0  0
  190.9790  170.4340  141.6460 C   0  0  0  0  0  1  0  0  0  0  0  0
  186.8200  177.8940  144.7560 C   0  0  0  0  0  2  0  0  0  0  0  0
  184.8730  179.4090  144.6070 C   0  0  0  0  0  1  0  0  0  0  0  0
  186.2890  179.1660  144.1290 C   0  0  0  0  0  2  0  0  0  0  0  0
  187.3640  176.3150  142.3960 C   0  0  0  0  0  2  0  0  0  0  0  0
  187.8160  175.4330  141.4130 O   0  0  0  0  0  0  0  0  0  0  0  0
  187.7500  174.1770  142.0120 C   0  0  0  0  0  2  0  0  0  0  0  0
  189.0130  173.5660  140.0140 C   0  0  0  0  0  2  0  0  0  0  0  0
  188.4430  173.1800  141.1500 C   0  0  0  0  0  3  0  0  0  0  0  0
  192.5790  176.9290  144.9890 C   0  0  0  0  0  2  0  0  0  0  0  0
  193.4680  177.1230  143.7740 C   0  0  0  0  0  2  0  0  0  0  0  0
  194.9150  175.5410  142.4840 C   0  0  0  0  0  3  0  0  0  0  0  0
  194.4940  176.0440  143.7200 C   0  0  0  0  0  0  0  0  0  0  0  0
  195.0120  175.5090  144.9040 C   0  0  0  0  0  3  0  0  0  0  0  0
  196.5130  173.9180  146.1100 C   0  0  0  0  0  1  0  0  0  0  0  0
  196.3830  173.9840  143.6180 C   0  0  0  0  0  3  0  0  0  0  0  0
  195.9590  174.4810  144.8530 C   0  0  0  0  0  0  0  0  0  0  0  0
  195.8610  174.5130  142.4330 C   0  0  0  0  0  3  0  0  0  0  0  0
  1 16  1  0  0  0  0
  1 21  1  6  0  0  0
  2 12  1  0  0  0  0
  2 11  2  1  0  0  0
  3 18  1  0  0  0  0
  3 14  1  0  0  0  0
  4  6  1  0  0  0  0
  5  9  1  6  0  0  0
  5  2  1  0  0  0  0
  6  8  1  0  0  0  0
  7 29  1  6  0  0  0
  7  5  1  0  0  0  0
  8 12  1  0  0  0  0
  9  6  2  0  0  0  0
 10 13  2  0  0  0  0
 10 17  1  0  0  0  0
 12 15  2  0  0  0  0
 13  9  1  0  0  0  0
 14  7  1  0  0  0  0
 16  5  1  0  0  0  0
 17  4  2  0  0  0  0
 18  1  1  0  0  0  0
 18 16  1  0  0  0  0
 19 17  1  0  0  0  0
 20 19  1  0  0  0  0
 23 22  1  0  0  0  0
 23 21  1  0  0  0  0
 24 18  1  0  0  0  0
 25 26  1  0  0  0  0
 25 24  1  0  0  0  0
 27 28  2  0  0  0  0
 28 26  1  0  0  0  0
 30 29  1  0  0  0  0
 31 32  1  0  0  0  0
 32 30  1  0  0  0  0
 32 33  2  0  0  0  0
 35 36  2  0  0  0  0
 36 33  1  0  0  0  0
 36 34  1  0  0  0  0
 37 31  2  0  0  0  0
 37 35  1  0  0  0  0
M  END
>  <MODEL>
6

>  <REMARK>
 VINA RESULT:      -7.3      1.685      2.477
  Name = 
  10 active torsions:
  status: ('A' for Active; 'I' for Inactive)
    1  A    between atoms: C_1  and  C_5
    2  A    between atoms: O_3  and  C_32
    3  A    between atoms: C_5  and  C_23
    4  A    between atoms: C_6  and  C_31
    5  A    between atoms: C_14  and  C_37
    6  A    between atoms: O_17  and  C_26
    7  A    between atoms: O_17  and  C_33
    8  A    between atoms: C_26  and  C_34
    9  A    between atoms: C_31  and  C_37
   10  A    between atoms: C_33  and  C_36
                            x       y       z     vdW  Elec       q    Type
                         _______ _______ _______ _____ _____    ______ ____

>  <TORSDO>
F 10

$$$$
=
 OpenBabel11052420043D

 37 41  0  0  1  0  0  0  0  0999 V2000
  192.2870  176.0650  142.6830 C   0  0  1  0  0  3  0  0  0  0  0  0
  189.5110  173.9250  142.9990 S   0  0  1  0  0  0  0  0  0  0  0  0
  190.9770  178.2830  143.2510 C   0  0  0  0  0  2  0  0  0  0  0  0
  188.1740  175.5320  146.9010 C   0  0  0  0  0  3  0  0  0  0  0  0
  189.8360  175.6620  143.4280 C   0  0  1  0  0  0  0  0  0  0  0  0
  188.8470  175.1200  145.7470 C   0  0  0  0  0  0  0  0  0  0  0  0
  189.4820  176.4980  142.1580 C   0  0  2  0  0  3  0  0  0  0  0  0
  189.3570  173.8140  145.7310 O   0  0  0  0  0  0  0  0  0  0  0  0
  188.9880  176.0190  144.6530 C   0  0  0  0  0  0  0  0  0  0  0  0
  187.7600  177.7000  145.9310 C   0  0  0  0  0  3  0  0  0  0  0  0
  190.7320  173.4950  142.1930 O   0  0  0  0  0  0  0  0  0  0  0  0
  189.7360  173.1480  144.5690 C   0  0  0  0  0  0  0  0  0  0  0  0
  188.4420  177.3100  144.7800 C   0  0  0  0  0  3  0  0  0  0  0  0
  190.0720  177.9140  142.0780 C   0  0  0  0  0  2  0  0  0  0  0  0
  190.2170  171.9870  144.6390 O   0  0  0  0  0  0  0  0  0  0  0  0
  191.3290  175.7870  143.8480 C   0  0  2  0  0  3  0  0  0  0  0  0
  187.6230  176.8150  146.9990 C   0  0  0  0  0  0  0  0  0  0  0  0
  191.9400  177.1730  143.6840 C   0  0  1  0  0  0  0  0  0  0  0  0
  186.9400  177.2360  148.1430 O   0  0  0  0  0  0  0  0  0  0  0  0
  185.9410  178.2470  148.1130 C   0  0  0  0  0  1  0  0  0  0  0  0
  193.6200  175.3890  142.9590 C   0  0  0  0  0  2  0  0  0  0  0  0
  195.0990  176.4080  141.2610 C   0  0  0  0  0  1  0  0  0  0  0  0
  194.3490  175.1520  141.6540 C   0  0  0  0  0  2  0  0  0  0  0  0
  192.9250  177.5100  144.7970 C   0  0  0  0  0  2  0  0  0  0  0  0
  192.5980  176.7970  145.9520 O   0  0  0  0  0  0  0  0  0  0  0  0
  193.8200  176.5730  146.5840 C   0  0  0  0  0  2  0  0  0  0  0  0
  195.4960  174.9240  145.9270 C   0  0  0  0  0  2  0  0  0  0  0  0
  194.2560  175.1720  146.3360 C   0  0  0  0  0  3  0  0  0  0  0  0
  188.0000  176.4860  141.7990 C   0  0  0  0  0  2  0  0  0  0  0  0
  187.5610  177.8540  141.3100 C   0  0  0  0  0  2  0  0  0  0  0  0
  185.1420  178.0430  140.6990 C   0  0  0  0  0  3  0  0  0  0  0  0
  186.1390  178.0930  141.6810 C   0  0  0  0  0  0  0  0  0  0  0  0
  185.8010  178.4010  143.0030 C   0  0  0  0  0  3  0  0  0  0  0  0
  184.1100  178.9680  144.7510 C   0  0  0  0  0  1  0  0  0  0  0  0
  183.4730  178.5910  142.3670 C   0  0  0  0  0  3  0  0  0  0  0  0
  184.4680  178.6470  143.3470 C   0  0  0  0  0  0  0  0  0  0  0  0
  183.8090  178.2900  141.0430 C   0  0  0  0  0  3  0  0  0  0  0  0
  1 21  1  1  0  0  0
  1 18  1  0  0  0  0
  1 16  1  0  0  0  0
  2 11  2  6  0  0  0
  2  5  1  0  0  0  0
  2 12  1  0  0  0  0
  3 18  1  0  0  0  0
  4 17  1  0  0  0  0
  5 16  1  0  0  0  0
  5  9  1  1  0  0  0
  6  4  2  0  0  0  0
  7 29  1  1  0  0  0
  7  5  1  0  0  0  0
  8  6  1  0  0  0  0
  9 13  2  0  0  0  0
  9  6  1  0  0  0  0
 10 17  2  0  0  0  0
 12 15  2  0  0  0  0
 12  8  1  0  0  0  0
 13 10  1  0  0  0  0
 14  7  1  0  0  0  0
 14  3  1  0  0  0  0
 17 19  1  0  0  0  0
 18 16  1  0  0  0  0
 18 24  1  0  0  0  0
 20 19  1  0  0  0  0
 22 23  1  0  0  0  0
 23 21  1  0  0  0  0
 24 25  1  0  0  0  0
 25 26  1  0  0  0  0
 27 28  2  0  0  0  0
 28 26  1  0  0  0  0
 30 32  1  0  0  0  0
 30 29  1  0  0  0  0
 31 37  2  0  0  0  0
 31 32  1  0  0  0  0
 32 33  2  0  0  0  0
 33 36  1  0  0  0  0
 35 36  2  0  0  0  0
 36 34  1  0  0  0  0
 37 35  1  0  0  0  0
M  END
>  <MODEL>
7

>  <REMARK>
 VINA RESULT:      -7.1      1.990      7.902
  Name = 
  10 active torsions:
  status: ('A' for Active; 'I' for Inactive)
    1  A    between atoms: C_1  and  C_5
    2  A    between atoms: O_3  and  C_32
    3  A    between atoms: C_5  and  C_23
    4  A    between atoms: C_6  and  C_31
    5  A    between atoms: C_14  and  C_37
    6  A    between atoms: O_17  and  C_26
    7  A    between atoms: O_17  and  C_33
    8  A    between atoms: C_26  and  C_34
    9  A    between atoms: C_31  and  C_37
   10  A    between atoms: C_33  and  C_36
                            x       y       z     vdW  Elec       q    Type
                         _______ _______ _______ _____ _____    ______ ____

>  <TORSDO>
F 10

$$$$
=
 OpenBabel11052420043D

 37 41  0  0  1  0  0  0  0  0999 V2000
  194.7550  174.2730  144.3360 C   0  0  1  0  0  3  0  0  0  0  0  0
  194.1850  176.0580  141.3580 S   0  0  1  0  0  0  0  0  0  0  0  0
  192.2290  174.2040  145.0920 C   0  0  0  0  0  2  0  0  0  0  0  0
  190.8540  173.5020  139.9560 C   0  0  0  0  0  3  0  0  0  0  0  0
  193.1150  175.2160  142.5630 C   0  0  1  0  0  0  0  0  0  0  0  0
  191.9830  174.0810  140.5420 C   0  0  0  0  0  0  0  0  0  0  0  0
  192.7840  176.2710  143.6640 C   0  0  2  0  0  3  0  0  0  0  0  0
  193.1830  174.0270  139.8190 O   0  0  0  0  0  0  0  0  0  0  0  0
  191.8790  174.6940  141.8230 C   0  0  0  0  0  0  0  0  0  0  0  0
  189.5060  174.1160  141.8590 C   0  0  0  0  0  3  0  0  0  0  0  0
  195.5680  176.0440  141.9990 O   0  0  0  0  0  0  0  0  0  0  0  0
  194.2850  174.8340  140.0890 C   0  0  0  0  0  0  0  0  0  0  0  0
  190.6260  174.6850  142.4630 C   0  0  0  0  0  3  0  0  0  0  0  0
  192.2820  175.7280  145.0110 C   0  0  0  0  0  2  0  0  0  0  0  0
  195.3390  174.7040  139.4160 O   0  0  0  0  0  0  0  0  0  0  0  0
  193.8820  173.9770  143.1100 C   0  0  2  0  0  3  0  0  0  0  0  0
  189.6130  173.5200  140.6040 C   0  0  0  0  0  0  0  0  0  0  0  0
  193.4440  173.4930  144.4870 C   0  0  1  0  0  0  0  0  0  0  0  0
  188.4740  172.9520  140.0250 O   0  0  0  0  0  0  0  0  0  0  0  0
  188.1860  173.0540  138.6370 C   0  0  0  0  0  1  0  0  0  0  0  0
  195.9900  173.3870  144.2960 C   0  0  0  0  0  2  0  0  0  0  0  0
  197.1830  173.4500  146.4590 C   0  0  0  0  0  1  0  0  0  0  0  0
  197.1120  174.0460  145.0700 C   0  0  0  0  0  2  0  0  0  0  0  0
  193.4860  171.9750  144.6090 C   0  0  0  0  0  2  0  0  0  0  0  0
  192.2360  171.4390  144.2980 O   0  0  0  0  0  0  0  0  0  0  0  0
  192.4310  170.7730  143.0890 C   0  0  0  0  0  2  0  0  0  0  0  0
  191.0470  169.9920  141.2360 C   0  0  0  0  0  2  0  0  0  0  0  0
  191.1500  170.7370  142.3310 C   0  0  0  0  0  3  0  0  0  0  0  0
  191.9280  177.4350  143.1740 C   0  0  0  0  0  2  0  0  0  0  0  0
  191.0960  177.9980  144.3110 C   0  0  0  0  0  2  0  0  0  0  0  0
  188.7570  177.5040  145.0510 C   0  0  0  0  0  3  0  0  0  0  0  0
  189.6470  177.8180  144.0170 C   0  0  0  0  0  0  0  0  0  0  0  0
  189.1790  177.9290  142.7030 C   0  0  0  0  0  3  0  0  0  0  0  0
  187.3260  177.8620  141.0310 C   0  0  0  0  0  1  0  0  0  0  0  0
  186.9340  177.4300  143.4580 C   0  0  0  0  0  3  0  0  0  0  0  0
  187.8230  177.7380  142.4240 C   0  0  0  0  0  0  0  0  0  0  0  0
  187.4010  177.3110  144.7720 C   0  0  0  0  0  3  0  0  0  0  0  0
  1 21  1  6  0  0  0
  1 18  1  0  0  0  0
  2 11  2  1  0  0  0
  2  5  1  0  0  0  0
  4  6  2  0  0  0  0
  4 17  1  0  0  0  0
  5  9  1  6  0  0  0
  5 16  1  0  0  0  0
  5  7  1  0  0  0  0
  6  9  1  0  0  0  0
  7 29  1  6  0  0  0
  7 14  1  0  0  0  0
  8 12  1  0  0  0  0
  8  6  1  0  0  0  0
  9 13  2  0  0  0  0
 10 13  1  0  0  0  0
 12  2  1  0  0  0  0
 14  3  1  0  0  0  0
 15 12  2  0  0  0  0
 16  1  1  0  0  0  0
 16 18  1  0  0  0  0
 17 10  2  0  0  0  0
 18 24  1  0  0  0  0
 18  3  1  0  0  0  0
 19 17  1  0  0  0  0
 20 19  1  0  0  0  0
 21 23  1  0  0  0  0
 23 22  1  0  0  0  0
 25 24  1  0  0  0  0
 26 25  1  0  0  0  0
 27 28  2  0  0  0  0
 28 26  1  0  0  0  0
 29 30  1  0  0  0  0
 32 30  1  0  0  0  0
 32 31  2  0  0  0  0
 33 32  1  0  0  0  0
 34 36  1  0  0  0  0
 35 37  2  0  0  0  0
 36 33  2  0  0  0  0
 36 35  1  0  0  0  0
 37 31  1  0  0  0  0
M  END
>  <MODEL>
8

>  <REMARK>
 VINA RESULT:      -7.0      2.738      7.348
  Name = 
  10 active torsions:
  status: ('A' for Active; 'I' for Inactive)
    1  A    between atoms: C_1  and  C_5
    2  A    between atoms: O_3  and  C_32
    3  A    between atoms: C_5  and  C_23
    4  A    between atoms: C_6  and  C_31
    5  A    between atoms: C_14  and  C_37
    6  A    between atoms: O_17  and  C_26
    7  A    between atoms: O_17  and  C_33
    8  A    between atoms: C_26  and  C_34
    9  A    between atoms: C_31  and  C_37
   10  A    between atoms: C_33  and  C_36
                            x       y       z     vdW  Elec       q    Type
                         _______ _______ _______ _____ _____    ______ ____

>  <TORSDO>
F 10

$$$$
=
 OpenBabel11052420043D

 37 41  0  0  1  0  0  0  0  0999 V2000
  188.9950  176.6610  144.8690 C   0  0  1  0  0  3  0  0  0  0  0  0
  190.7800  173.6690  145.3610 S   0  0  1  0  0  0  0  0  0  0  0  0
  190.3190  177.4080  142.7130 C   0  0  0  0  0  2  0  0  0  0  0  0
  190.4390  172.2720  141.1750 C   0  0  0  0  0  3  0  0  0  0  0  0
  190.6660  174.8750  144.0060 C   0  0  1  0  0  0  0  0  0  0  0  0
  190.3150  172.8580  142.4380 C   0  0  0  0  0  0  0  0  0  0  0  0
  191.7390  175.9690  144.3030 C   0  0  2  0  0  3  0  0  0  0  0  0
  189.6110  172.1400  143.4140 O   0  0  0  0  0  0  0  0  0  0  0  0
  190.8950  174.1340  142.6850 C   0  0  0  0  0  0  0  0  0  0  0  0
  191.7030  174.1650  140.3800 C   0  0  0  0  0  3  0  0  0  0  0  0
  190.0200  174.3150  146.5140 O   0  0  0  0  0  0  0  0  0  0  0  0
  189.6890  172.4090  144.7780 C   0  0  0  0  0  0  0  0  0  0  0  0
  191.5750  174.7700  141.6290 C   0  0  0  0  0  3  0  0  0  0  0  0
  191.5680  177.3170  143.5870 C   0  0  0  0  0  2  0  0  0  0  0  0
  189.0010  171.7400  145.5910 O   0  0  0  0  0  0  0  0  0  0  0  0
  189.2130  175.4340  143.9750 C   0  0  2  0  0  3  0  0  0  0  0  0
  191.1350  172.9150  140.1440 C   0  0  0  0  0  0  0  0  0  0  0  0
  189.0560  176.8120  143.3450 C   0  0  1  0  0  0  0  0  0  0  0  0
  191.2750  172.3360  138.8800 O   0  0  0  0  0  0  0  0  0  0  0  0
  191.4120  173.1050  137.6930 C   0  0  0  0  0  1  0  0  0  0  0  0
  187.5790  176.6310  145.4220 C   0  0  0  0  0  2  0  0  0  0  0  0
  186.2200  177.1580  147.4180 C   0  0  0  0  0  1  0  0  0  0  0  0
  187.6150  176.8470  146.9200 C   0  0  0  0  0  2  0  0  0  0  0  0
  187.7610  176.9450  142.5530 C   0  0  0  0  0  2  0  0  0  0  0  0
  187.5170  178.2880  142.2630 O   0  0  0  0  0  0  0  0  0  0  0  0
  186.1470  178.4460  142.4610 C   0  0  0  0  0  2  0  0  0  0  0  0
  185.1310  179.2750  144.5210 C   0  0  0  0  0  2  0  0  0  0  0  0
  185.9130  179.5130  143.4730 C   0  0  0  0  0  3  0  0  0  0  0  0
  193.1770  175.4680  144.2190 C   0  0  0  0  0  2  0  0  0  0  0  0
  193.8080  175.4280  145.5990 C   0  0  0  0  0  2  0  0  0  0  0  0
  196.1320  174.5440  145.8750 C   0  0  0  0  0  3  0  0  0  0  0  0
  194.7680  174.2940  145.6860 C   0  0  0  0  0  0  0  0  0  0  0  0
  194.3130  172.9780  145.5450 C   0  0  0  0  0  3  0  0  0  0  0  0
  194.7340  170.5170  145.4620 C   0  0  0  0  0  1  0  0  0  0  0  0
  196.5800  172.1650  145.7990 C   0  0  0  0  0  3  0  0  0  0  0  0
  195.2180  171.9140  145.6050 C   0  0  0  0  0  0  0  0  0  0  0  0
  197.0370  173.4800  145.9330 C   0  0  0  0  0  3  0  0  0  0  0  0
  1 21  1  6  0  0  0
  2 11  2  1  0  0  0
  3 18  1  0  0  0  0
  3 14  1  0  0  0  0
  4  6  1  0  0  0  0
  5  9  1  6  0  0  0
  5  7  1  0  0  0  0
  5  2  1  0  0  0  0
  6  9  2  0  0  0  0
  6  8  1  0  0  0  0
  7 29  1  6  0  0  0
  8 12  1  0  0  0  0
 10 13  2  0  0  0  0
 12  2  1  0  0  0  0
 12 15  2  0  0  0  0
 13  9  1  0  0  0  0
 14  7  1  0  0  0  0
 16  5  1  0  0  0  0
 16  1  1  0  0  0  0
 17 10  1  0  0  0  0
 17  4  2  0  0  0  0
 18 16  1  0  0  0  0
 18  1  1  0  0  0  0
 19 17  1  0  0  0  0
 20 19  1  0  0  0  0
 21 23  1  0  0  0  0
 23 22  1  0  0  0  0
 24 18  1  0  0  0  0
 25 26  1  0  0  0  0
 25 24  1  0  0  0  0
 26 28  1  0  0  0  0
 28 27  2  0  0  0  0
 29 30  1  0  0  0  0
 30 32  1  0  0  0  0
 31 37  1  0  0  0  0
 32 31  2  0  0  0  0
 33 36  2  0  0  0  0
 33 32  1  0  0  0  0
 34 36  1  0  0  0  0
 35 37  2  0  0  0  0
 36 35  1  0  0  0  0
M  END
>  <MODEL>
9

>  <REMARK>
 VINA RESULT:      -7.0      1.719      2.562
  Name = 
  10 active torsions:
  status: ('A' for Active; 'I' for Inactive)
    1  A    between atoms: C_1  and  C_5
    2  A    between atoms: O_3  and  C_32
    3  A    between atoms: C_5  and  C_23
    4  A    between atoms: C_6  and  C_31
    5  A    between atoms: C_14  and  C_37
    6  A    between atoms: O_17  and  C_26
    7  A    between atoms: O_17  and  C_33
    8  A    between atoms: C_26  and  C_34
    9  A    between atoms: C_31  and  C_37
   10  A    between atoms: C_33  and  C_36
                            x       y       z     vdW  Elec       q    Type
                         _______ _______ _______ _____ _____    ______ ____

>  <TORSDO>
F 10

$$$$
