=
 OpenBabel11052418093D

 28 30  0  0  1  0  0  0  0  0999 V2000
  185.5440  178.5100  145.4260 C   0  0  0  0  0  0  0  0  0  0  0  0
  185.3530  178.3730  140.6170 O   0  0  0  0  0  0  0  0  0  0  0  0
  187.9310  177.0860  142.8790 C   0  0  1  0  0  3  0  0  0  0  0  0
  187.6050  176.8370  140.5140 O   0  0  0  0  0  1  0  0  0  0  0  0
  185.3890  178.4130  142.9940 C   0  0  0  0  0  0  0  0  0  0  0  0
  187.6170  177.9610  144.0920 C   0  0  0  0  0  2  0  0  0  0  0  0
  183.4370  178.9810  144.3170 C   0  0  0  0  0  3  0  0  0  0  0  0
  186.0120  178.1700  141.6730 C   0  0  0  0  0  0  0  0  0  0  0  0
  184.0360  178.7650  143.0760 C   0  0  0  0  0  3  0  0  0  0  0  0
  187.4510  177.7370  141.5730 C   0  0  1  0  0  3  0  0  0  0  0  0
  184.1860  178.8540  145.4860 C   0  0  0  0  0  3  0  0  0  0  0  0
  186.1470  178.2710  144.1760 C   0  0  0  0  0  0  0  0  0  0  0  0
  190.3160  177.7650  142.9880 C   0  0  0  0  0  3  0  0  0  0  0  0
  189.8590  175.4060  142.6490 C   0  0  0  0  0  0  0  0  0  0  0  0
  192.1480  176.2020  142.7620 C   0  0  0  0  0  0  0  0  0  0  0  0
  189.3910  176.7260  142.8400 C   0  0  0  0  0  0  0  0  0  0  0  0
  191.2350  175.1560  142.6120 C   0  0  0  0  0  3  0  0  0  0  0  0
  188.9280  174.2510  142.4760 C   0  0  0  0  0  1  0  0  0  0  0  0
  193.5110  175.9440  142.7240 O   0  0  0  0  0  1  0  0  0  0  0  0
  191.6880  177.5070  142.9510 C   0  0  0  0  0  3  0  0  0  0  0  0
  186.3410  178.3870  146.6950 C   0  0  1  0  0  3  0  0  0  0  0  0
  187.0210  179.4260  148.6770 C   0  0  0  0  0  1  0  0  0  0  0  0
  186.0230  179.4630  147.6210 N   0  0  0  0  0  2  0  0  0  0  0  0
  186.1660  177.0220  147.3550 C   0  0  0  0  0  2  0  0  0  0  0  0
  186.8820  176.0400  146.6640 O   0  0  0  0  0  0  0  0  0  0  0  0
  188.1990  176.1930  147.0970 C   0  0  0  0  0  2  0  0  0  0  0  0
  189.1070  175.2540  146.3240 C   0  0  0  0  0  2  0  0  0  0  0  0
  190.5260  175.7940  146.2990 C   0  0  0  0  0  1  0  0  0  0  0  0
  1 11  1  0  0  0  0
  1 21  1  0  0  0  0
  2  8  2  0  0  0  0
  3 16  1  6  0  0  0
  3  6  1  0  0  0  0
  5  9  2  0  0  0  0
  5 12  1  0  0  0  0
  6 12  1  0  0  0  0
  7 11  2  0  0  0  0
  8  5  1  0  0  0  0
  9  7  1  0  0  0  0
 10  4  1  6  0  0  0
 10  8  1  0  0  0  0
 10  3  1  0  0  0  0
 12  1  2  0  0  0  0
 14 16  1  0  0  0  0
 15 20  2  0  0  0  0
 16 13  2  0  0  0  0
 17 14  2  0  0  0  0
 17 15  1  0  0  0  0
 18 14  1  0  0  0  0
 19 15  1  0  0  0  0
 20 13  1  0  0  0  0
 21 24  1  1  0  0  0
 21 23  1  0  0  0  0
 23 22  1  0  0  0  0
 25 26  1  0  0  0  0
 25 24  1  0  0  0  0
 27 26  1  0  0  0  0
 28 27  1  0  0  0  0
M  END
>  <MODEL>
1

>  <REMARK>
 VINA RESULT:      -6.7      0.000      0.000
  Name = 
  7 active torsions:
  status: ('A' for Active; 'I' for Inactive)
    1  A    between atoms: C_1  and  C_2
    2  A    between atoms: C_2  and  C_3
    3  A    between atoms: C_2  and  N_11
    4  A    between atoms: C_3  and  O_7
    5  A    between atoms: C_6  and  C_22
    6  A    between atoms: O_7  and  C_22
    7  A    between atoms: C_10  and  C_13
                            x       y       z     vdW  Elec       q    Type
                         _______ _______ _______ _____ _____    ______ ____

>  <TORSDO>
F 7

$$$$
=
 OpenBabel11052418093D

 28 30  0  0  1  0  0  0  0  0999 V2000
  185.3110  178.0320  143.7500 C   0  0  0  0  0  0  0  0  0  0  0  0
  186.9180  178.2070  148.2850 O   0  0  0  0  0  0  0  0  0  0  0  0
  188.6830  177.2250  145.2290 C   0  0  1  0  0  3  0  0  0  0  0  0
  189.4500  177.6040  147.4710 O   0  0  0  0  0  1  0  0  0  0  0  0
  186.1050  178.1820  146.0510 C   0  0  0  0  0  0  0  0  0  0  0  0
  187.4660  176.8730  144.3740 C   0  0  0  0  0  2  0  0  0  0  0  0
  184.0180  179.2390  145.4120 C   0  0  0  0  0  3  0  0  0  0  0  0
  187.1200  177.8760  147.0850 C   0  0  0  0  0  0  0  0  0  0  0  0
  184.9710  178.9330  146.3830 C   0  0  0  0  0  3  0  0  0  0  0  0
  188.3710  177.1160  146.7290 C   0  0  1  0  0  3  0  0  0  0  0  0
  184.1860  178.7920  144.1020 C   0  0  0  0  0  3  0  0  0  0  0  0
  186.2850  177.7380  144.7230 C   0  0  0  0  0  0  0  0  0  0  0  0
  189.8750  175.0480  145.1840 C   0  0  0  0  0  3  0  0  0  0  0  0
  190.9860  176.9330  144.1330 C   0  0  0  0  0  0  0  0  0  0  0  0
  192.0510  174.7530  144.1680 C   0  0  0  0  0  0  0  0  0  0  0  0
  189.8760  176.4020  144.8290 C   0  0  0  0  0  0  0  0  0  0  0  0
  192.0650  176.1020  143.8090 C   0  0  0  0  0  3  0  0  0  0  0  0
  191.0580  178.3700  143.7310 C   0  0  0  0  0  1  0  0  0  0  0  0
  193.1250  173.9370  143.8410 O   0  0  0  0  0  1  0  0  0  0  0  0
  190.9550  174.2260  144.8550 C   0  0  0  0  0  3  0  0  0  0  0  0
  185.4740  177.5490  142.3360 C   0  0  1  0  0  3  0  0  0  0  0  0
  184.3850  178.3860  140.4420 C   0  0  0  0  0  1  0  0  0  0  0  0
  184.2030  177.5640  141.6270 N   0  0  0  0  0  2  0  0  0  0  0  0
  186.5380  178.3360  141.5760 C   0  0  0  0  0  2  0  0  0  0  0  0
  187.7510  177.6420  141.5550 O   0  0  0  0  0  0  0  0  0  0  0  0
  187.4750  176.4720  140.8470 C   0  0  0  0  0  2  0  0  0  0  0  0
  188.5040  175.4090  141.1880 C   0  0  0  0  0  2  0  0  0  0  0  0
  187.8710  174.3130  142.0260 C   0  0  0  0  0  1  0  0  0  0  0  0
  1 11  2  0  0  0  0
  1 12  1  0  0  0  0
  3 16  1  6  0  0  0
  3 10  1  0  0  0  0
  5  9  1  0  0  0  0
  5  8  1  0  0  0  0
  6 12  1  0  0  0  0
  6  3  1  0  0  0  0
  7  9  2  0  0  0  0
  8  2  2  0  0  0  0
 10  8  1  0  0  0  0
 10  4  1  1  0  0  0
 11  7  1  0  0  0  0
 12  5  2  0  0  0  0
 14 16  1  0  0  0  0
 15 20  2  0  0  0  0
 16 13  2  0  0  0  0
 17 14  2  0  0  0  0
 17 15  1  0  0  0  0
 18 14  1  0  0  0  0
 19 15  1  0  0  0  0
 20 13  1  0  0  0  0
 21 24  1  6  0  0  0
 21  1  1  0  0  0  0
 22 23  1  0  0  0  0
 23 21  1  0  0  0  0
 25 24  1  0  0  0  0
 26 27  1  0  0  0  0
 26 25  1  0  0  0  0
 27 28  1  0  0  0  0
M  END
>  <MODEL>
2

>  <REMARK>
 VINA RESULT:      -6.3      1.958      4.548
  Name = 
  7 active torsions:
  status: ('A' for Active; 'I' for Inactive)
    1  A    between atoms: C_1  and  C_2
    2  A    between atoms: C_2  and  C_3
    3  A    between atoms: C_2  and  N_11
    4  A    between atoms: C_3  and  O_7
    5  A    between atoms: C_6  and  C_22
    6  A    between atoms: O_7  and  C_22
    7  A    between atoms: C_10  and  C_13
                            x       y       z     vdW  Elec       q    Type
                         _______ _______ _______ _____ _____    ______ ____

>  <TORSDO>
F 7

$$$$
=
 OpenBabel11052418093D

 28 30  0  0  1  0  0  0  0  0999 V2000
  190.1350  174.5230  141.4410 C   0  0  0  0  0  0  0  0  0  0  0  0
  192.4670  177.5640  144.3560 O   0  0  0  0  0  0  0  0  0  0  0  0
  188.9330  176.6000  144.3490 C   0  0  1  0  0  3  0  0  0  0  0  0
  190.2420  177.8790  145.9010 O   0  0  0  0  0  1  0  0  0  0  0  0
  191.3590  176.0170  142.9310 C   0  0  0  0  0  0  0  0  0  0  0  0
  188.8360  176.1250  142.9000 C   0  0  0  0  0  2  0  0  0  0  0  0
  192.5620  174.4930  141.4770 C   0  0  0  0  0  3  0  0  0  0  0  0
  191.3720  177.0690  143.9730 C   0  0  0  0  0  0  0  0  0  0  0  0
  192.5650  175.4950  142.4470 C   0  0  0  0  0  3  0  0  0  0  0  0
  190.0820  177.6000  144.5400 C   0  0  1  0  0  3  0  0  0  0  0  0
  191.3540  174.0090  140.9760 C   0  0  0  0  0  3  0  0  0  0  0  0
  190.1340  175.5200  142.4350 C   0  0  0  0  0  0  0  0  0  0  0  0
  186.9370  178.0290  143.9810 C   0  0  0  0  0  3  0  0  0  0  0  0
  187.0440  176.8070  146.0750 C   0  0  0  0  0  0  0  0  0  0  0  0
  185.1520  178.2490  145.5980 C   0  0  0  0  0  0  0  0  0  0  0  0
  187.6130  177.1410  144.8250 C   0  0  0  0  0  0  0  0  0  0  0  0
  185.8170  177.3650  146.4510 C   0  0  0  0  0  3  0  0  0  0  0  0
  187.7140  175.8730  147.0290 C   0  0  0  0  0  1  0  0  0  0  0  0
  183.9350  178.7970  145.9800 O   0  0  0  0  0  1  0  0  0  0  0  0
  185.7120  178.5800  144.3630 C   0  0  0  0  0  3  0  0  0  0  0  0
  188.8410  173.9980  140.8840 C   0  0  1  0  0  3  0  0  0  0  0  0
  188.3730  172.9280  138.8570 C   0  0  0  0  0  1  0  0  0  0  0  0
  188.7700  174.1970  139.4440 N   0  0  0  0  0  2  0  0  0  0  0  0
  188.6070  172.5350  141.2510 C   0  0  0  0  0  2  0  0  0  0  0  0
  188.2440  172.4110  142.5950 O   0  0  0  0  0  0  0  0  0  0  0  0
  189.3040  171.7200  143.1840 C   0  0  0  0  0  2  0  0  0  0  0  0
  189.7090  172.4040  144.4770 C   0  0  0  0  0  2  0  0  0  0  0  0
  191.2130  172.6080  144.5170 C   0  0  0  0  0  1  0  0  0  0  0  0
  1 12  1  0  0  0  0
  3 10  1  0  0  0  0
  3 16  1  6  0  0  0
  5  8  1  0  0  0  0
  6  3  1  0  0  0  0
  7  9  2  0  0  0  0
  8  2  2  0  0  0  0
  8 10  1  0  0  0  0
  9  5  1  0  0  0  0
 10  4  1  1  0  0  0
 11  1  2  0  0  0  0
 11  7  1  0  0  0  0
 12  6  1  0  0  0  0
 12  5  2  0  0  0  0
 13 20  2  0  0  0  0
 13 16  1  0  0  0  0
 14 17  1  0  0  0  0
 14 18  1  0  0  0  0
 15 19  1  0  0  0  0
 15 17  2  0  0  0  0
 16 14  2  0  0  0  0
 20 15  1  0  0  0  0
 21 24  1  6  0  0  0
 21  1  1  0  0  0  0
 22 23  1  0  0  0  0
 23 21  1  0  0  0  0
 24 25  1  0  0  0  0
 25 26  1  0  0  0  0
 26 27  1  0  0  0  0
 27 28  1  0  0  0  0
M  END
>  <MODEL>
3

>  <REMARK>
 VINA RESULT:      -6.2      2.920      6.967
  Name = 
  7 active torsions:
  status: ('A' for Active; 'I' for Inactive)
    1  A    between atoms: C_1  and  C_2
    2  A    between atoms: C_2  and  C_3
    3  A    between atoms: C_2  and  N_11
    4  A    between atoms: C_3  and  O_7
    5  A    between atoms: C_6  and  C_22
    6  A    between atoms: O_7  and  C_22
    7  A    between atoms: C_10  and  C_13
                            x       y       z     vdW  Elec       q    Type
                         _______ _______ _______ _____ _____    ______ ____

>  <TORSDO>
F 7

$$$$
=
 OpenBabel11052418093D

 28 30  0  0  1  0  0  0  0  0999 V2000
  185.4930  177.5200  142.8680 C   0  0  0  0  0  0  0  0  0  0  0  0
  185.0320  178.7600  147.4980 O   0  0  0  0  0  0  0  0  0  0  0  0
  187.9700  177.4980  145.7100 C   0  0  1  0  0  3  0  0  0  0  0  0
  187.7010  178.3920  147.9210 O   0  0  0  0  0  1  0  0  0  0  0  0
  185.2360  178.2060  145.1950 C   0  0  0  0  0  0  0  0  0  0  0  0
  187.2460  176.8220  144.5460 C   0  0  0  0  0  2  0  0  0  0  0  0
  183.5560  178.8130  143.5550 C   0  0  0  0  0  3  0  0  0  0  0  0
  185.7380  178.2460  146.5880 C   0  0  0  0  0  0  0  0  0  0  0  0
  184.0280  178.8330  144.8670 C   0  0  0  0  0  3  0  0  0  0  0  0
  187.0620  177.6240  146.9430 C   0  0  1  0  0  3  0  0  0  0  0  0
  184.2840  178.1610  142.5600 C   0  0  0  0  0  3  0  0  0  0  0  0
  185.9820  177.5560  144.1880 C   0  0  0  0  0  0  0  0  0  0  0  0
  189.2420  175.8010  147.0000 C   0  0  0  0  0  3  0  0  0  0  0  0
  190.4850  177.1080  145.3760 C   0  0  0  0  0  0  0  0  0  0  0  0
  191.6130  175.4240  146.7110 C   0  0  0  0  0  0  0  0  0  0  0  0
  189.2640  176.7970  146.0170 C   0  0  0  0  0  0  0  0  0  0  0  0
  191.6500  176.4170  145.7290 C   0  0  0  0  0  3  0  0  0  0  0  0
  190.5840  178.1650  144.3250 C   0  0  0  0  0  1  0  0  0  0  0  0
  192.7740  174.7460  147.0540 O   0  0  0  0  0  1  0  0  0  0  0  0
  190.4090  175.1160  147.3460 C   0  0  0  0  0  3  0  0  0  0  0  0
  186.2610  176.8130  141.7870 C   0  0  1  0  0  3  0  0  0  0  0  0
  188.1880  178.1030  141.4770 C   0  0  0  0  0  1  0  0  0  0  0  0
  186.9020  177.7640  140.8910 N   0  0  0  0  0  2  0  0  0  0  0  0
  187.2740  175.8210  142.3540 C   0  0  0  0  0  2  0  0  0  0  0  0
  187.6980  174.9250  141.3680 O   0  0  0  0  0  0  0  0  0  0  0  0
  188.3200  173.8940  142.0730 C   0  0  0  0  0  2  0  0  0  0  0  0
  189.4670  174.4520  142.8960 C   0  0  0  0  0  2  0  0  0  0  0  0
  189.7700  173.5340  144.0670 C   0  0  0  0  0  1  0  0  0  0  0  0
  1 12  1  0  0  0  0
  3 16  1  1  0  0  0
  3 10  1  0  0  0  0
  5  8  1  0  0  0  0
  6  3  1  0  0  0  0
  7  9  2  0  0  0  0
  8 10  1  0  0  0  0
  8  2  2  0  0  0  0
  9  5  1  0  0  0  0
 10  4  1  1  0  0  0
 11  1  2  0  0  0  0
 11  7  1  0  0  0  0
 12  6  1  0  0  0  0
 12  5  2  0  0  0  0
 13 20  1  0  0  0  0
 14 17  2  0  0  0  0
 14 16  1  0  0  0  0
 15 19  1  0  0  0  0
 15 20  2  0  0  0  0
 16 13  2  0  0  0  0
 17 15  1  0  0  0  0
 18 14  1  0  0  0  0
 21 24  1  1  0  0  0
 21  1  1  0  0  0  0
 23 22  1  0  0  0  0
 23 21  1  0  0  0  0
 25 26  1  0  0  0  0
 25 24  1  0  0  0  0
 26 27  1  0  0  0  0
 27 28  1  0  0  0  0
M  END
>  <MODEL>
4

>  <REMARK>
 VINA RESULT:      -5.8      2.282      4.529
  Name = 
  7 active torsions:
  status: ('A' for Active; 'I' for Inactive)
    1  A    between atoms: C_1  and  C_2
    2  A    between atoms: C_2  and  C_3
    3  A    between atoms: C_2  and  N_11
    4  A    between atoms: C_3  and  O_7
    5  A    between atoms: C_6  and  C_22
    6  A    between atoms: O_7  and  C_22
    7  A    between atoms: C_10  and  C_13
                            x       y       z     vdW  Elec       q    Type
                         _______ _______ _______ _____ _____    ______ ____

>  <TORSDO>
F 7

$$$$
=
 OpenBabel11052418093D

 28 30  0  0  1  0  0  0  0  0999 V2000
  194.2520  175.8860  143.8260 C   0  0  0  0  0  0  0  0  0  0  0  0
  191.1460  176.6840  147.4180 O   0  0  0  0  0  0  0  0  0  0  0  0
  190.4950  176.1980  143.8460 C   0  0  1  0  0  3  0  0  0  0  0  0
  189.0260  176.3310  145.7390 O   0  0  0  0  0  1  0  0  0  0  0  0
  192.7040  176.2400  145.6780 C   0  0  0  0  0  0  0  0  0  0  0  0
  191.8770  176.5770  143.3160 C   0  0  0  0  0  2  0  0  0  0  0  0
  195.0070  175.6190  146.1180 C   0  0  0  0  0  3  0  0  0  0  0  0
  191.3500  176.5700  146.1790 C   0  0  0  0  0  0  0  0  0  0  0  0
  193.7330  175.9470  146.5810 C   0  0  0  0  0  3  0  0  0  0  0  0
  190.2210  176.8340  145.2170 C   0  0  1  0  0  3  0  0  0  0  0  0
  195.2660  175.5880  144.7480 C   0  0  0  0  0  3  0  0  0  0  0  0
  192.9590  176.1970  144.2900 C   0  0  0  0  0  0  0  0  0  0  0  0
  189.2220  177.8690  142.5230 C   0  0  0  0  0  3  0  0  0  0  0  0
  188.6240  175.5370  142.2170 C   0  0  0  0  0  0  0  0  0  0  0  0
  187.4470  177.2700  140.9930 C   0  0  0  0  0  0  0  0  0  0  0  0
  189.4260  176.5210  142.8380 C   0  0  0  0  0  0  0  0  0  0  0  0
  187.6400  175.9210  141.2990 C   0  0  0  0  0  3  0  0  0  0  0  0
  188.7810  174.0810  142.5120 C   0  0  0  0  0  1  0  0  0  0  0  0
  186.4690  177.6420  140.0810 O   0  0  0  0  0  1  0  0  0  0  0  0
  188.2390  178.2440  141.6050 C   0  0  0  0  0  3  0  0  0  0  0  0
  194.5490  175.8580  142.3530 C   0  0  1  0  0  3  0  0  0  0  0  0
  196.5640  175.7670  141.1680 C   0  0  0  0  0  1  0  0  0  0  0  0
  195.7620  176.6010  142.0480 N   0  0  0  0  0  2  0  0  0  0  0  0
  194.6230  174.4340  141.8070 C   0  0  0  0  0  2  0  0  0  0  0  0
  193.3430  173.9280  141.5610 O   0  0  0  0  0  0  0  0  0  0  0  0
  193.3110  172.7070  142.2350 C   0  0  0  0  0  2  0  0  0  0  0  0
  192.2320  172.7370  143.3030 C   0  0  0  0  0  2  0  0  0  0  0  0
  192.8410  172.5020  144.6730 C   0  0  0  0  0  1  0  0  0  0  0  0
  1 12  2  0  0  0  0
  1 11  1  0  0  0  0
  3 16  1  6  0  0  0
  3 10  1  0  0  0  0
  5  8  1  0  0  0  0
  5  9  2  0  0  0  0
  6  3  1  0  0  0  0
  6 12  1  0  0  0  0
  7  9  1  0  0  0  0
  8  2  2  0  0  0  0
 10  4  1  1  0  0  0
 10  8  1  0  0  0  0
 11  7  2  0  0  0  0
 12  5  1  0  0  0  0
 13 16  1  0  0  0  0
 14 18  1  0  0  0  0
 14 16  2  0  0  0  0
 15 17  2  0  0  0  0
 15 20  1  0  0  0  0
 17 14  1  0  0  0  0
 19 15  1  0  0  0  0
 20 13  2  0  0  0  0
 21 24  1  1  0  0  0
 21  1  1  0  0  0  0
 22 23  1  0  0  0  0
 23 21  1  0  0  0  0
 25 24  1  0  0  0  0
 25 26  1  0  0  0  0
 26 27  1  0  0  0  0
 27 28  1  0  0  0  0
M  END
>  <MODEL>
5

>  <REMARK>
 VINA RESULT:      -5.8      3.658      7.573
  Name = 
  7 active torsions:
  status: ('A' for Active; 'I' for Inactive)
    1  A    between atoms: C_1  and  C_2
    2  A    between atoms: C_2  and  C_3
    3  A    between atoms: C_2  and  N_11
    4  A    between atoms: C_3  and  O_7
    5  A    between atoms: C_6  and  C_22
    6  A    between atoms: O_7  and  C_22
    7  A    between atoms: C_10  and  C_13
                            x       y       z     vdW  Elec       q    Type
                         _______ _______ _______ _____ _____    ______ ____

>  <TORSDO>
F 7

$$$$
=
 OpenBabel11052418093D

 28 30  0  0  1  0  0  0  0  0999 V2000
  191.8880  173.3970  143.9290 C   0  0  0  0  0  0  0  0  0  0  0  0
  192.5130  176.7260  147.3510 O   0  0  0  0  0  0  0  0  0  0  0  0
  189.6270  176.1470  145.1700 C   0  0  1  0  0  3  0  0  0  0  0  0
  189.9390  177.5820  147.0680 O   0  0  0  0  0  1  0  0  0  0  0  0
  192.2190  175.0370  145.7040 C   0  0  0  0  0  0  0  0  0  0  0  0
  190.3440  175.3920  144.0510 C   0  0  0  0  0  2  0  0  0  0  0  0
  193.7040  173.1270  145.5180 C   0  0  0  0  0  3  0  0  0  0  0  0
  191.8120  176.2760  146.4040 C   0  0  0  0  0  0  0  0  0  0  0  0
  193.3220  174.3040  146.1610 C   0  0  0  0  0  3  0  0  0  0  0  0
  190.5950  177.0430  145.9570 C   0  0  1  0  0  3  0  0  0  0  0  0
  192.9910  172.6750  144.4080 C   0  0  0  0  0  3  0  0  0  0  0  0
  191.4870  174.5740  144.5890 C   0  0  0  0  0  0  0  0  0  0  0  0
  188.5930  177.5350  143.3910 C   0  0  0  0  0  3  0  0  0  0  0  0
  187.2200  177.0250  145.3260 C   0  0  0  0  0  0  0  0  0  0  0  0
  186.3310  178.3830  143.5220 C   0  0  0  0  0  0  0  0  0  0  0  0
  188.4460  176.9070  144.6330 C   0  0  0  0  0  0  0  0  0  0  0  0
  186.1730  177.7630  144.7630 C   0  0  0  0  0  3  0  0  0  0  0  0
  186.9970  176.3890  146.6590 C   0  0  0  0  0  1  0  0  0  0  0  0
  185.2870  179.1130  142.9720 O   0  0  0  0  0  1  0  0  0  0  0  0
  187.5420  178.2680  142.8360 C   0  0  0  0  0  3  0  0  0  0  0  0
  191.1350  172.9020  142.7260 C   0  0  1  0  0  3  0  0  0  0  0  0
  192.0710  173.6610  140.7210 C   0  0  0  0  0  1  0  0  0  0  0  0
  192.0460  172.5420  141.6490 N   0  0  0  0  0  2  0  0  0  0  0  0
  190.2010  171.7440  143.0660 C   0  0  0  0  0  2  0  0  0  0  0  0
  188.8860  172.1930  143.2160 O   0  0  0  0  0  0  0  0  0  0  0  0
  188.5020  172.5940  141.9360 C   0  0  0  0  0  2  0  0  0  0  0  0
  187.8340  173.9560  142.0020 C   0  0  0  0  0  2  0  0  0  0  0  0
  188.3630  174.8560  140.9000 C   0  0  0  0  0  1  0  0  0  0  0  0
  1 11  2  0  0  0  0
  1 12  1  0  0  0  0
  3 16  1  6  0  0  0
  3 10  1  0  0  0  0
  5  9  1  0  0  0  0
  5  8  1  0  0  0  0
  6 12  1  0  0  0  0
  6  3  1  0  0  0  0
  7  9  2  0  0  0  0
  8  2  2  0  0  0  0
 10  8  1  0  0  0  0
 10  4  1  1  0  0  0
 11  7  1  0  0  0  0
 12  5  2  0  0  0  0
 13 16  1  0  0  0  0
 14 18  1  0  0  0  0
 15 17  2  0  0  0  0
 16 14  2  0  0  0  0
 17 14  1  0  0  0  0
 19 15  1  0  0  0  0
 20 13  2  0  0  0  0
 20 15  1  0  0  0  0
 21 24  1  1  0  0  0
 21  1  1  0  0  0  0
 22 23  1  0  0  0  0
 23 21  1  0  0  0  0
 24 25  1  0  0  0  0
 26 27  1  0  0  0  0
 26 25  1  0  0  0  0
 28 27  1  0  0  0  0
M  END
>  <MODEL>
6

>  <REMARK>
 VINA RESULT:      -5.7      3.221      7.398
  Name = 
  7 active torsions:
  status: ('A' for Active; 'I' for Inactive)
    1  A    between atoms: C_1  and  C_2
    2  A    between atoms: C_2  and  C_3
    3  A    between atoms: C_2  and  N_11
    4  A    between atoms: C_3  and  O_7
    5  A    between atoms: C_6  and  C_22
    6  A    between atoms: O_7  and  C_22
    7  A    between atoms: C_10  and  C_13
                            x       y       z     vdW  Elec       q    Type
                         _______ _______ _______ _____ _____    ______ ____

>  <TORSDO>
F 7

$$$$
=
 OpenBabel11052418093D

 28 30  0  0  1  0  0  0  0  0999 V2000
  192.9570  175.4740  143.7530 C   0  0  0  0  0  0  0  0  0  0  0  0
  190.7880  175.6400  148.0480 O   0  0  0  0  0  0  0  0  0  0  0  0
  189.3580  176.0700  144.7030 C   0  0  1  0  0  3  0  0  0  0  0  0
  188.3400  175.8650  146.8670 O   0  0  0  0  0  1  0  0  0  0  0  0
  191.8830  175.5000  145.9430 C   0  0  0  0  0  0  0  0  0  0  0  0
  190.6390  176.4530  143.9620 C   0  0  0  0  0  2  0  0  0  0  0  0
  194.1270  174.6110  145.6970 C   0  0  0  0  0  3  0  0  0  0  0  0
  190.7160  175.8080  146.8000 C   0  0  0  0  0  0  0  0  0  0  0  0
  193.0290  174.9200  146.5000 C   0  0  0  0  0  3  0  0  0  0  0  0
  189.4580  176.3810  146.2040 C   0  0  1  0  0  3  0  0  0  0  0  0
  194.0920  174.8860  144.3300 C   0  0  0  0  0  3  0  0  0  0  0  0
  191.8390  175.7680  144.5570 C   0  0  0  0  0  0  0  0  0  0  0  0
  187.7190  177.9300  144.5820 C   0  0  0  0  0  3  0  0  0  0  0  0
  187.4530  176.1240  142.9830 C   0  0  0  0  0  0  0  0  0  0  0  0
  185.9090  177.9960  142.9780 C   0  0  0  0  0  0  0  0  0  0  0  0
  188.1560  176.7070  144.0620 C   0  0  0  0  0  0  0  0  0  0  0  0
  186.3340  176.7740  142.4510 C   0  0  0  0  0  3  0  0  0  0  0  0
  187.8580  174.8160  142.3850 C   0  0  0  0  0  1  0  0  0  0  0  0
  184.7990  178.6340  142.4430 O   0  0  0  0  0  1  0  0  0  0  0  0
  186.6020  178.5740  144.0430 C   0  0  0  0  0  3  0  0  0  0  0  0
  192.9380  175.7730  142.2790 C   0  0  1  0  0  3  0  0  0  0  0  0
  194.6550  175.7170  140.6920 C   0  0  0  0  0  1  0  0  0  0  0  0
  194.1680  176.4290  141.8610 N   0  0  0  0  0  2  0  0  0  0  0  0
  192.6660  174.5270  141.4410 C   0  0  0  0  0  2  0  0  0  0  0  0
  191.3130  174.1780  141.4920 O   0  0  0  0  0  0  0  0  0  0  0  0
  191.3110  172.8170  141.7990 C   0  0  0  0  0  2  0  0  0  0  0  0
  190.6230  172.5920  143.1330 C   0  0  0  0  0  2  0  0  0  0  0  0
  191.6090  172.0380  144.1460 C   0  0  0  0  0  1  0  0  0  0  0  0
  1 11  2  0  0  0  0
  1 12  1  0  0  0  0
  3 16  1  6  0  0  0
  3 10  1  0  0  0  0
  5  9  1  0  0  0  0
  5  8  1  0  0  0  0
  6 12  1  0  0  0  0
  6  3  1  0  0  0  0
  7  9  2  0  0  0  0
  8  2  2  0  0  0  0
 10  8  1  0  0  0  0
 10  4  1  1  0  0  0
 11  7  1  0  0  0  0
 12  5  2  0  0  0  0
 14 16  2  0  0  0  0
 15 20  1  0  0  0  0
 16 13  1  0  0  0  0
 17 15  2  0  0  0  0
 17 14  1  0  0  0  0
 18 14  1  0  0  0  0
 19 15  1  0  0  0  0
 20 13  2  0  0  0  0
 21 24  1  6  0  0  0
 21  1  1  0  0  0  0
 22 23  1  0  0  0  0
 23 21  1  0  0  0  0
 24 25  1  0  0  0  0
 25 26  1  0  0  0  0
 26 27  1  0  0  0  0
 27 28  1  0  0  0  0
M  END
>  <MODEL>
7

>  <REMARK>
 VINA RESULT:      -5.7      2.895      7.302
  Name = 
  7 active torsions:
  status: ('A' for Active; 'I' for Inactive)
    1  A    between atoms: C_1  and  C_2
    2  A    between atoms: C_2  and  C_3
    3  A    between atoms: C_2  and  N_11
    4  A    between atoms: C_3  and  O_7
    5  A    between atoms: C_6  and  C_22
    6  A    between atoms: O_7  and  C_22
    7  A    between atoms: C_10  and  C_13
                            x       y       z     vdW  Elec       q    Type
                         _______ _______ _______ _____ _____    ______ ____

>  <TORSDO>
F 7

$$$$
=
 OpenBabel11052418093D

 28 30  0  0  1  0  0  0  0  0999 V2000
  185.7770  178.3040  143.5380 C   0  0  0  0  0  0  0  0  0  0  0  0
  186.8000  178.1040  148.2380 O   0  0  0  0  0  0  0  0  0  0  0  0
  188.9930  177.5520  145.3560 C   0  0  1  0  0  3  0  0  0  0  0  0
  189.4510  177.7430  147.7040 O   0  0  0  0  0  1  0  0  0  0  0  0
  186.2710  178.2620  145.9260 C   0  0  0  0  0  0  0  0  0  0  0  0
  187.9190  177.2190  144.3210 C   0  0  0  0  0  2  0  0  0  0  0  0
  184.2060  179.2530  145.1260 C   0  0  0  0  0  3  0  0  0  0  0  0
  187.1710  177.9120  147.0480 C   0  0  0  0  0  0  0  0  0  0  0  0
  185.0530  178.9050  146.1790 C   0  0  0  0  0  3  0  0  0  0  0  0
  188.5080  177.2700  146.7860 C   0  0  1  0  0  3  0  0  0  0  0  0
  184.5660  178.9550  143.8130 C   0  0  0  0  0  3  0  0  0  0  0  0
  186.6440  177.9700  144.5960 C   0  0  0  0  0  0  0  0  0  0  0  0
  190.4560  175.5560  145.5430 C   0  0  0  0  0  3  0  0  0  0  0  0
  191.3160  177.4340  144.2700 C   0  0  0  0  0  0  0  0  0  0  0  0
  192.6530  175.4270  144.5390 C   0  0  0  0  0  0  0  0  0  0  0  0
  190.2830  176.8490  145.0360 C   0  0  0  0  0  0  0  0  0  0  0  0
  192.4930  176.7170  144.0280 C   0  0  0  0  0  3  0  0  0  0  0  0
  191.2030  178.8130  143.7060 C   0  0  0  0  0  1  0  0  0  0  0  0
  193.8240  174.7240  144.2940 O   0  0  0  0  0  1  0  0  0  0  0  0
  191.6340  174.8460  145.2960 C   0  0  0  0  0  3  0  0  0  0  0  0
  186.1470  177.9800  142.1160 C   0  0  1  0  0  3  0  0  0  0  0  0
  187.4210  176.4090  140.9430 C   0  0  0  0  0  1  0  0  0  0  0  0
  186.3810  176.5540  141.9470 N   0  0  0  0  0  2  0  0  0  0  0  0
  185.1080  178.4910  141.1210 C   0  0  0  0  0  2  0  0  0  0  0  0
  184.0960  177.5460  140.9290 O   0  0  0  0  0  0  0  0  0  0  0  0
  182.9930  178.2910  140.5120 C   0  0  0  0  0  2  0  0  0  0  0  0
  181.9320  178.2920  141.5980 C   0  0  0  0  0  2  0  0  0  0  0  0
  180.5460  178.3190  140.9810 C   0  0  0  0  0  1  0  0  0  0  0  0
  1 11  2  0  0  0  0
  1 12  1  0  0  0  0
  3 16  1  6  0  0  0
  3 10  1  0  0  0  0
  5  9  1  0  0  0  0
  5  8  1  0  0  0  0
  6 12  1  0  0  0  0
  6  3  1  0  0  0  0
  7  9  2  0  0  0  0
  8  2  2  0  0  0  0
 10  8  1  0  0  0  0
 10  4  1  1  0  0  0
 11  7  1  0  0  0  0
 12  5  2  0  0  0  0
 14 16  1  0  0  0  0
 15 20  2  0  0  0  0
 16 13  2  0  0  0  0
 17 14  2  0  0  0  0
 17 15  1  0  0  0  0
 18 14  1  0  0  0  0
 19 15  1  0  0  0  0
 20 13  1  0  0  0  0
 21 24  1  6  0  0  0
 21  1  1  0  0  0  0
 22 23  1  0  0  0  0
 23 21  1  0  0  0  0
 25 24  1  0  0  0  0
 26 25  1  0  0  0  0
 26 27  1  0  0  0  0
 28 27  1  0  0  0  0
M  END
>  <MODEL>
8

>  <REMARK>
 VINA RESULT:      -5.6      2.129      5.345
  Name = 
  7 active torsions:
  status: ('A' for Active; 'I' for Inactive)
    1  A    between atoms: C_1  and  C_2
    2  A    between atoms: C_2  and  C_3
    3  A    between atoms: C_2  and  N_11
    4  A    between atoms: C_3  and  O_7
    5  A    between atoms: C_6  and  C_22
    6  A    between atoms: O_7  and  C_22
    7  A    between atoms: C_10  and  C_13
                            x       y       z     vdW  Elec       q    Type
                         _______ _______ _______ _____ _____    ______ ____

>  <TORSDO>
F 7

$$$$
=
 OpenBabel11052418093D

 28 30  0  0  1  0  0  0  0  0999 V2000
  186.6250  177.3250  144.9390 C   0  0  0  0  0  0  0  0  0  0  0  0
  187.3490  176.1940  140.3150 O   0  0  0  0  0  0  0  0  0  0  0  0
  189.2540  175.1930  143.2800 C   0  0  1  0  0  3  0  0  0  0  0  0
  189.3610  174.4810  140.9910 O   0  0  0  0  0  1  0  0  0  0  0  0
  186.9310  176.7320  142.5930 C   0  0  0  0  0  0  0  0  0  0  0  0
  188.8280  176.3280  144.2110 C   0  0  0  0  0  2  0  0  0  0  0  0
  184.8500  177.7340  143.3340 C   0  0  0  0  0  3  0  0  0  0  0  0
  187.7600  176.1610  141.5070 C   0  0  0  0  0  0  0  0  0  0  0  0
  185.6440  177.2100  142.3150 C   0  0  0  0  0  3  0  0  0  0  0  0
  189.1240  175.5940  141.8030 C   0  0  1  0  0  3  0  0  0  0  0  0
  185.3360  177.7910  144.6400 C   0  0  0  0  0  3  0  0  0  0  0  0
  187.4210  176.7760  143.9160 C   0  0  0  0  0  0  0  0  0  0  0  0
  191.7140  175.5260  143.2760 C   0  0  0  0  0  3  0  0  0  0  0  0
  190.8840  173.4700  144.2620 C   0  0  0  0  0  0  0  0  0  0  0  0
  193.2690  173.9120  144.1850 C   0  0  0  0  0  0  0  0  0  0  0  0
  190.6340  174.7060  143.6250 C   0  0  0  0  0  0  0  0  0  0  0  0
  192.2010  173.0830  144.5370 C   0  0  0  0  0  3  0  0  0  0  0  0
  189.7810  172.5410  144.6540 C   0  0  0  0  0  1  0  0  0  0  0  0
  194.5710  173.5190  144.4610 O   0  0  0  0  0  1  0  0  0  0  0  0
  193.0250  175.1330  143.5550 C   0  0  0  0  0  3  0  0  0  0  0  0
  187.1390  177.4030  146.3500 C   0  0  1  0  0  3  0  0  0  0  0  0
  186.6610  178.9340  148.0520 C   0  0  0  0  0  1  0  0  0  0  0  0
  186.0990  177.8510  147.2630 N   0  0  0  0  0  2  0  0  0  0  0  0
  187.7490  176.0830  146.8140 C   0  0  0  0  0  2  0  0  0  0  0  0
  188.9660  176.3000  147.4670 O   0  0  0  0  0  0  0  0  0  0  0  0
  189.6500  175.0890  147.3500 C   0  0  0  0  0  2  0  0  0  0  0  0
  191.0760  175.2540  147.8410 C   0  0  0  0  0  2  0  0  0  0  0  0
  191.8410  176.1970  146.9300 C   0  0  0  0  0  1  0  0  0  0  0  0
  1 21  1  0  0  0  0
  2  8  2  0  0  0  0
  3 16  1  1  0  0  0
  3  6  1  0  0  0  0
  5 12  1  0  0  0  0
  7 11  2  0  0  0  0
  8 10  1  0  0  0  0
  8  5  1  0  0  0  0
  9  5  2  0  0  0  0
  9  7  1  0  0  0  0
 10  4  1  6  0  0  0
 10  3  1  0  0  0  0
 11  1  1  0  0  0  0
 12  6  1  0  0  0  0
 12  1  2  0  0  0  0
 13 20  2  0  0  0  0
 13 16  1  0  0  0  0
 14 17  1  0  0  0  0
 14 18  1  0  0  0  0
 15 19  1  0  0  0  0
 15 17  2  0  0  0  0
 16 14  2  0  0  0  0
 20 15  1  0  0  0  0
 21 24  1  1  0  0  0
 21 23  1  0  0  0  0
 23 22  1  0  0  0  0
 24 25  1  0  0  0  0
 26 25  1  0  0  0  0
 26 27  1  0  0  0  0
 28 27  1  0  0  0  0
M  END
>  <MODEL>
9

>  <REMARK>
 VINA RESULT:      -5.6      1.768      2.371
  Name = 
  7 active torsions:
  status: ('A' for Active; 'I' for Inactive)
    1  A    between atoms: C_1  and  C_2
    2  A    between atoms: C_2  and  C_3
    3  A    between atoms: C_2  and  N_11
    4  A    between atoms: C_3  and  O_7
    5  A    between atoms: C_6  and  C_22
    6  A    between atoms: O_7  and  C_22
    7  A    between atoms: C_10  and  C_13
                            x       y       z     vdW  Elec       q    Type
                         _______ _______ _______ _____ _____    ______ ____

>  <TORSDO>
F 7

$$$$
