=
 OpenBabel11052417473D

 31 34  0  0  0  0  0  0  0  0999 V2000
  184.7320  178.5790  146.2270 C   0  0  0  0  0  0  0  0  0  0  0  0
  187.4010  176.5220  144.5860 C   0  0  0  0  0  0  0  0  0  0  0  0
  187.1780  176.6700  143.1080 C   0  0  0  0  0  0  0  0  0  0  0  0
  185.7950  177.3440  141.1430 N   0  0  0  0  0  0  0  0  0  0  0  0
  186.5860  177.1400  145.5670 C   0  0  0  0  0  0  0  0  0  0  0  0
  185.0230  178.3520  147.5720 C   0  0  0  0  0  3  0  0  0  0  0  0
  185.7960  176.9520  142.5550 C   0  0  0  0  0  2  0  0  0  0  0  0
  188.7400  175.5630  146.3890 C   0  0  0  0  0  0  0  0  0  0  0  0
  183.6960  179.3790  145.8830 F   0  0  0  0  0  0  0  0  0  0  0  0
  189.5260  175.9560  142.7570 C   0  0  0  0  0  2  0  0  0  0  0  0
  186.7820  177.0970  140.3390 C   0  0  0  0  0  0  0  0  0  0  0  0
  187.9310  176.1580  147.3020 N   0  0  0  0  0  0  0  0  0  0  0  0
  188.5070  175.7500  145.0160 C   0  0  0  0  0  0  0  0  0  0  0  0
  185.5100  177.9790  145.2330 C   0  0  0  0  0  3  0  0  0  0  0  0
  186.6850  177.4540  138.9660 N   0  0  0  0  0  1  0  0  0  0  0  0
  186.8790  176.9310  146.9370 C   0  0  0  0  0  0  0  0  0  0  0  0
  186.0950  177.5320  147.9270 C   0  0  0  0  0  3  0  0  0  0  0  0
  189.3870  175.0790  143.9950 C   0  0  0  0  0  2  0  0  0  0  0  0
  188.1750  176.3650  142.2520 C   0  0  0  0  0  0  0  0  0  0  0  0
  187.9910  176.5330  140.8450 N   0  0  0  0  0  2  0  0  0  0  0  0
  189.8940  174.7490  146.8730 C   0  0  0  0  0  2  0  0  0  0  0  0
  190.7590  175.5760  147.8080 C   0  0  0  0  0  2  0  0  0  0  0  0
  191.8250  176.3180  147.0200 C   0  0  0  0  0  2  0  0  0  0  0  0
  192.5170  175.3940  146.0230 C   0  0  0  0  0  2  0  0  0  0  0  0
  193.0520  176.1500  144.8120 C   0  0  0  0  0  2  0  0  0  0  0  0
  196.4920  174.4200  145.2590 C   0  0  0  0  0  0  0  0  0  0  0  0
  195.0790  176.3290  143.5780 O   0  0  0  0  0  0  0  0  0  0  0  0
  197.2260  174.8700  144.3390 O   0  0  0  0  0  0  0  0  0  0  0  0
  197.0470  173.4350  146.2220 C   0  0  0  0  0  1  0  0  0  0  0  0
  194.4720  175.7860  144.5390 C   0  0  0  0  0  0  0  0  0  0  0  0
  195.1310  174.8440  145.3930 N   0  0  0  0  0  2  0  0  0  0  0  0
  1  6  1  0  0  0  0
  2 13  2  0  0  0  0
  2  5  1  0  0  0  0
  3  2  1  0  0  0  0
  4  7  1  0  0  0  0
  5 16  2  0  0  0  0
  6 17  2  0  0  0  0
  7  3  1  0  0  0  0
  8 21  1  0  0  0  0
  8 12  2  0  0  0  0
  9  1  1  0  0  0  0
 10 18  1  0  0  0  0
 11 20  1  0  0  0  0
 11  4  2  0  0  0  0
 13  8  1  0  0  0  0
 14  5  1  0  0  0  0
 14  1  2  0  0  0  0
 15 11  1  0  0  0  0
 16 12  1  0  0  0  0
 16 17  1  0  0  0  0
 18 13  1  0  0  0  0
 19 10  1  0  0  0  0
 19  3  2  0  0  0  0
 20 19  1  0  0  0  0
 21 22  1  0  0  0  0
 23 22  1  0  0  0  0
 24 23  1  0  0  0  0
 25 24  1  0  0  0  0
 26 31  1  0  0  0  0
 26 29  1  0  0  0  0
 27 30  2  0  0  0  0
 28 26  2  0  0  0  0
 30 25  1  0  0  0  0
 30 31  1  0  0  0  0
M  END
>  <MODEL>
1

>  <REMARK>
 VINA RESULT:      -8.2      0.000      0.000
  Name = 
  6 active torsions:
  status: ('A' for Active; 'I' for Inactive)
    1  A    between atoms: C_3  and  C_19
    2  A    between atoms: C_3  and  C_22
    3  A    between atoms: C_7  and  C_9
    4  A    between atoms: C_7  and  C_22
    5  A    between atoms: C_9  and  C_23
    6  A    between atoms: C_15  and  C_23
                            x       y       z     vdW  Elec       q    Type
                         _______ _______ _______ _____ _____    ______ ____

>  <TORSDO>
F 6

$$$$
=
 OpenBabel11052417473D

 31 34  0  0  0  0  0  0  0  0999 V2000
  184.5790  178.6080  146.2590 C   0  0  0  0  0  0  0  0  0  0  0  0
  187.3040  176.5430  144.7240 C   0  0  0  0  0  0  0  0  0  0  0  0
  187.1220  176.6690  143.2390 C   0  0  0  0  0  0  0  0  0  0  0  0
  185.7910  177.3060  141.2260 N   0  0  0  0  0  0  0  0  0  0  0  0
  186.4580  177.1710  145.6730 C   0  0  0  0  0  0  0  0  0  0  0  0
  184.8320  178.4030  147.6150 C   0  0  0  0  0  3  0  0  0  0  0  0
  185.7550  176.9340  142.6430 C   0  0  0  0  0  2  0  0  0  0  0  0
  188.5960  175.6190  146.5790 C   0  0  0  0  0  0  0  0  0  0  0  0
  183.5480  179.3970  145.8740 F   0  0  0  0  0  0  0  0  0  0  0  0
  189.4830  175.9630  142.9640 C   0  0  0  0  0  2  0  0  0  0  0  0
  186.8030  177.0530  140.4540 C   0  0  0  0  0  0  0  0  0  0  0  0
  187.7590  176.2220  147.4590 N   0  0  0  0  0  0  0  0  0  0  0  0
  188.4010  175.7850  145.1970 C   0  0  0  0  0  0  0  0  0  0  0  0
  185.3870  177.9980  145.2960 C   0  0  0  0  0  3  0  0  0  0  0  0
  186.7430  177.3890  139.0730 N   0  0  0  0  0  1  0  0  0  0  0  0
  186.7140  176.9830  147.0530 C   0  0  0  0  0  0  0  0  0  0  0  0
  185.8980  177.5940  148.0120 C   0  0  0  0  0  3  0  0  0  0  0  0
  189.3130  175.1030  144.2110 C   0  0  0  0  0  2  0  0  0  0  0  0
  188.1440  176.3560  142.4150 C   0  0  0  0  0  0  0  0  0  0  0  0
  187.9990  176.5030  141.0010 N   0  0  0  0  0  2  0  0  0  0  0  0
  189.7400  174.8190  147.1070 C   0  0  0  0  0  2  0  0  0  0  0  0
  190.8210  175.7430  147.6400 C   0  0  0  0  0  2  0  0  0  0  0  0
  192.1580  175.4120  146.9990 C   0  0  0  0  0  2  0  0  0  0  0  0
  192.4910  176.3900  145.8780 C   0  0  0  0  0  2  0  0  0  0  0  0
  193.0830  175.6910  144.6590 C   0  0  0  0  0  2  0  0  0  0  0  0
  196.2700  176.4300  142.5800 C   0  0  0  0  0  0  0  0  0  0  0  0
  195.0310  176.9640  145.1580 O   0  0  0  0  0  0  0  0  0  0  0  0
  196.9980  177.1540  143.3110 O   0  0  0  0  0  0  0  0  0  0  0  0
  196.7440  176.0490  141.2250 C   0  0  0  0  0  1  0  0  0  0  0  0
  194.4180  176.2580  144.3130 C   0  0  0  0  0  0  0  0  0  0  0  0
  194.9930  175.9690  143.0350 N   0  0  0  0  0  2  0  0  0  0  0  0
  1  6  1  0  0  0  0
  2 13  2  0  0  0  0
  2  5  1  0  0  0  0
  3  2  1  0  0  0  0
  4  7  1  0  0  0  0
  5 16  2  0  0  0  0
  6 17  2  0  0  0  0
  7  3  1  0  0  0  0
  8 21  1  0  0  0  0
  8 12  2  0  0  0  0
  9  1  1  0  0  0  0
 10 18  1  0  0  0  0
 11 20  1  0  0  0  0
 11  4  2  0  0  0  0
 13  8  1  0  0  0  0
 14  5  1  0  0  0  0
 14  1  2  0  0  0  0
 15 11  1  0  0  0  0
 16 12  1  0  0  0  0
 16 17  1  0  0  0  0
 18 13  1  0  0  0  0
 19 10  1  0  0  0  0
 19  3  2  0  0  0  0
 20 19  1  0  0  0  0
 21 22  1  0  0  0  0
 23 22  1  0  0  0  0
 24 23  1  0  0  0  0
 25 24  1  0  0  0  0
 26 31  1  0  0  0  0
 26 28  2  0  0  0  0
 29 26  1  0  0  0  0
 30 25  1  0  0  0  0
 30 27  2  0  0  0  0
 31 30  1  0  0  0  0
M  END
>  <MODEL>
2

>  <REMARK>
 VINA RESULT:      -8.2      1.224      1.420
  Name = 
  6 active torsions:
  status: ('A' for Active; 'I' for Inactive)
    1  A    between atoms: C_3  and  C_19
    2  A    between atoms: C_3  and  C_22
    3  A    between atoms: C_7  and  C_9
    4  A    between atoms: C_7  and  C_22
    5  A    between atoms: C_9  and  C_23
    6  A    between atoms: C_15  and  C_23
                            x       y       z     vdW  Elec       q    Type
                         _______ _______ _______ _____ _____    ______ ____

>  <TORSDO>
F 6

$$$$
=
 OpenBabel11052417473D

 31 34  0  0  0  0  0  0  0  0999 V2000
  189.0070  174.1400  140.5560 C   0  0  0  0  0  0  0  0  0  0  0  0
  187.4070  176.2480  143.2090 C   0  0  0  0  0  0  0  0  0  0  0  0
  186.2840  176.9760  142.5280 C   0  0  0  0  0  0  0  0  0  0  0  0
  185.0730  177.7480  140.4870 N   0  0  0  0  0  0  0  0  0  0  0  0
  188.2760  175.3490  142.5410 C   0  0  0  0  0  0  0  0  0  0  0  0
  190.0290  173.5360  141.2880 C   0  0  0  0  0  3  0  0  0  0  0  0
  186.3480  177.2940  141.0490 C   0  0  0  0  0  2  0  0  0  0  0  0
  188.6330  175.8050  145.2740 C   0  0  0  0  0  0  0  0  0  0  0  0
  188.8570  173.8580  139.2400 F   0  0  0  0  0  0  0  0  0  0  0  0
  185.2630  177.3370  144.7580 C   0  0  0  0  0  2  0  0  0  0  0  0
  184.1060  178.2160  141.2140 C   0  0  0  0  0  0  0  0  0  0  0  0
  189.4560  174.9620  144.6020 N   0  0  0  0  0  0  0  0  0  0  0  0
  187.5800  176.4470  144.6000 C   0  0  0  0  0  0  0  0  0  0  0  0
  188.1360  175.0370  141.1800 C   0  0  0  0  0  3  0  0  0  0  0  0
  182.9200  178.6940  140.5930 N   0  0  0  0  0  1  0  0  0  0  0  0
  189.3090  174.7170  143.2770 C   0  0  0  0  0  0  0  0  0  0  0  0
  190.1790  173.8210  142.6460 C   0  0  0  0  0  3  0  0  0  0  0  0
  186.6740  177.4000  145.3330 C   0  0  0  0  0  2  0  0  0  0  0  0
  185.2970  177.5190  143.2710 C   0  0  0  0  0  0  0  0  0  0  0  0
  184.2030  178.1860  142.6360 N   0  0  0  0  0  2  0  0  0  0  0  0
  188.8450  176.0010  146.7390 C   0  0  0  0  0  2  0  0  0  0  0  0
  189.7190  174.8890  147.2920 C   0  0  0  0  0  2  0  0  0  0  0  0
  190.9800  175.4680  147.9100 C   0  0  0  0  0  2  0  0  0  0  0  0
  192.2230  175.0260  147.1450 C   0  0  0  0  0  2  0  0  0  0  0  0
  193.0920  176.2060  146.7250 C   0  0  0  0  0  2  0  0  0  0  0  0
  191.7110  177.4200  143.3130 C   0  0  0  0  0  0  0  0  0  0  0  0
  193.9170  175.9480  144.5080 O   0  0  0  0  0  0  0  0  0  0  0  0
  192.5290  177.0130  142.4450 O   0  0  0  0  0  0  0  0  0  0  0  0
  190.5140  178.1890  142.8850 C   0  0  0  0  0  1  0  0  0  0  0  0
  193.0190  176.4250  145.2520 C   0  0  0  0  0  0  0  0  0  0  0  0
  191.9150  177.1540  144.7040 N   0  0  0  0  0  2  0  0  0  0  0  0
  1 14  2  0  0  0  0
  1  6  1  0  0  0  0
  2 13  1  0  0  0  0
  3  2  1  0  0  0  0
  3 19  2  0  0  0  0
  4  7  1  0  0  0  0
  4 11  2  0  0  0  0
  5  2  2  0  0  0  0
  5 16  1  0  0  0  0
  6 17  2  0  0  0  0
  7  3  1  0  0  0  0
  8 21  1  0  0  0  0
  9  1  1  0  0  0  0
 10 18  1  0  0  0  0
 11 20  1  0  0  0  0
 12  8  1  0  0  0  0
 13  8  2  0  0  0  0
 13 18  1  0  0  0  0
 14  5  1  0  0  0  0
 15 11  1  0  0  0  0
 16 12  2  0  0  0  0
 17 16  1  0  0  0  0
 19 10  1  0  0  0  0
 20 19  1  0  0  0  0
 21 22  1  0  0  0  0
 22 23  1  0  0  0  0
 24 23  1  0  0  0  0
 25 24  1  0  0  0  0
 26 31  1  0  0  0  0
 27 30  2  0  0  0  0
 28 26  2  0  0  0  0
 29 26  1  0  0  0  0
 30 25  1  0  0  0  0
 31 30  1  0  0  0  0
M  END
>  <MODEL>
3

>  <REMARK>
 VINA RESULT:      -8.1      2.749      4.692
  Name = 
  6 active torsions:
  status: ('A' for Active; 'I' for Inactive)
    1  A    between atoms: C_3  and  C_19
    2  A    between atoms: C_3  and  C_22
    3  A    between atoms: C_7  and  C_9
    4  A    between atoms: C_7  and  C_22
    5  A    between atoms: C_9  and  C_23
    6  A    between atoms: C_15  and  C_23
                            x       y       z     vdW  Elec       q    Type
                         _______ _______ _______ _____ _____    ______ ____

>  <TORSDO>
F 6

$$$$
=
 OpenBabel11052417473D

 31 34  0  0  0  0  0  0  0  0999 V2000
  188.9150  174.4240  140.6050 C   0  0  0  0  0  0  0  0  0  0  0  0
  187.4180  176.4300  143.3950 C   0  0  0  0  0  0  0  0  0  0  0  0
  186.1940  177.0800  142.8170 C   0  0  0  0  0  0  0  0  0  0  0  0
  184.7600  177.7630  140.8920 N   0  0  0  0  0  0  0  0  0  0  0  0
  188.2830  175.5880  142.6510 C   0  0  0  0  0  0  0  0  0  0  0  0
  190.0350  173.8910  141.2430 C   0  0  0  0  0  3  0  0  0  0  0  0
  186.1070  177.3960  141.3390 C   0  0  0  0  0  2  0  0  0  0  0  0
  188.8470  176.0750  145.3430 C   0  0  0  0  0  0  0  0  0  0  0  0
  188.6700  174.1290  139.3070 F   0  0  0  0  0  0  0  0  0  0  0  0
  185.3510  177.3780  145.1290 C   0  0  0  0  0  2  0  0  0  0  0  0
  183.8310  178.1680  141.7030 C   0  0  0  0  0  0  0  0  0  0  0  0
  189.6620  175.2870  144.5990 N   0  0  0  0  0  0  0  0  0  0  0  0
  187.6990  176.6430  144.7650 C   0  0  0  0  0  0  0  0  0  0  0  0
  188.0450  175.2630  141.3060 C   0  0  0  0  0  3  0  0  0  0  0  0
  182.5660  178.5640  141.1900 N   0  0  0  0  0  1  0  0  0  0  0  0
  189.4160  175.0280  143.2910 C   0  0  0  0  0  0  0  0  0  0  0  0
  190.2850  174.1900  142.5830 C   0  0  0  0  0  3  0  0  0  0  0  0
  186.7990  177.5360  145.5780 C   0  0  0  0  0  2  0  0  0  0  0  0
  185.2420  177.5580  143.6450 C   0  0  0  0  0  0  0  0  0  0  0  0
  184.0550  178.1490  143.1110 N   0  0  0  0  0  2  0  0  0  0  0  0
  189.1740  176.2890  146.7840 C   0  0  0  0  0  2  0  0  0  0  0  0
  189.9540  175.1030  147.3230 C   0  0  0  0  0  2  0  0  0  0  0  0
  191.3000  175.5590  147.8600 C   0  0  0  0  0  2  0  0  0  0  0  0
  192.4190  175.2650  146.8670 C   0  0  0  0  0  2  0  0  0  0  0  0
  193.3920  176.4310  146.7320 C   0  0  0  0  0  2  0  0  0  0  0  0
  196.3880  174.3040  145.4990 C   0  0  0  0  0  0  0  0  0  0  0  0
  195.0190  176.8300  145.0420 O   0  0  0  0  0  0  0  0  0  0  0  0
  196.9340  174.9770  144.5840 O   0  0  0  0  0  0  0  0  0  0  0  0
  196.9560  172.9850  145.8750 C   0  0  0  0  0  1  0  0  0  0  0  0
  194.5830  176.0430  145.9240 C   0  0  0  0  0  0  0  0  0  0  0  0
  195.2290  174.7920  146.1830 N   0  0  0  0  0  2  0  0  0  0  0  0
  1  6  2  0  0  0  0
  1 14  1  0  0  0  0
  2 13  2  0  0  0  0
  3  2  1  0  0  0  0
  3 19  2  0  0  0  0
  4  7  1  0  0  0  0
  4 11  2  0  0  0  0
  5 16  1  0  0  0  0
  5  2  1  0  0  0  0
  6 17  1  0  0  0  0
  7  3  1  0  0  0  0
  8 21  1  0  0  0  0
  9  1  1  0  0  0  0
 10 18  1  0  0  0  0
 11 20  1  0  0  0  0
 12  8  2  0  0  0  0
 13  8  1  0  0  0  0
 13 18  1  0  0  0  0
 14  5  2  0  0  0  0
 15 11  1  0  0  0  0
 16 12  1  0  0  0  0
 17 16  2  0  0  0  0
 19 10  1  0  0  0  0
 20 19  1  0  0  0  0
 21 22  1  0  0  0  0
 22 23  1  0  0  0  0
 24 23  1  0  0  0  0
 25 24  1  0  0  0  0
 26 29  1  0  0  0  0
 26 31  1  0  0  0  0
 27 30  2  0  0  0  0
 28 26  2  0  0  0  0
 30 31  1  0  0  0  0
 30 25  1  0  0  0  0
M  END
>  <MODEL>
4

>  <REMARK>
 VINA RESULT:      -7.9      2.337      4.082
  Name = 
  6 active torsions:
  status: ('A' for Active; 'I' for Inactive)
    1  A    between atoms: C_3  and  C_19
    2  A    between atoms: C_3  and  C_22
    3  A    between atoms: C_7  and  C_9
    4  A    between atoms: C_7  and  C_22
    5  A    between atoms: C_9  and  C_23
    6  A    between atoms: C_15  and  C_23
                            x       y       z     vdW  Elec       q    Type
                         _______ _______ _______ _____ _____    ______ ____

>  <TORSDO>
F 6

$$$$
=
 OpenBabel11052417473D

 31 34  0  0  0  0  0  0  0  0999 V2000
  190.3820  172.1780  141.1960 C   0  0  0  0  0  0  0  0  0  0  0  0
  190.1310  175.5430  142.8270 C   0  0  0  0  0  0  0  0  0  0  0  0
  191.2270  175.5800  143.8530 C   0  0  0  0  0  0  0  0  0  0  0  0
  192.9740  174.4800  145.2550 N   0  0  0  0  0  0  0  0  0  0  0  0
  189.8750  174.4250  141.9940 C   0  0  0  0  0  0  0  0  0  0  0  0
  189.3210  172.2500  140.2920 C   0  0  0  0  0  3  0  0  0  0  0  0
  191.7300  174.3070  144.4990 C   0  0  0  0  0  2  0  0  0  0  0  0
  188.2820  176.7040  141.7320 C   0  0  0  0  0  0  0  0  0  0  0  0
  191.1440  171.0610  141.2590 F   0  0  0  0  0  0  0  0  0  0  0  0
  191.0720  178.0550  143.8210 C   0  0  0  0  0  2  0  0  0  0  0  0
  193.3920  175.6350  145.6740 C   0  0  0  0  0  0  0  0  0  0  0  0
  188.0560  175.6120  140.9610 N   0  0  0  0  0  0  0  0  0  0  0  0
  189.3350  176.7020  142.6630 C   0  0  0  0  0  0  0  0  0  0  0  0
  190.6570  173.2590  142.0380 C   0  0  0  0  0  3  0  0  0  0  0  0
  194.5770  175.7190  146.4550 N   0  0  0  0  0  1  0  0  0  0  0  0
  188.8120  174.4910  141.0610 C   0  0  0  0  0  0  0  0  0  0  0  0
  188.5390  173.4040  140.2220 C   0  0  0  0  0  3  0  0  0  0  0  0
  189.5820  177.9030  143.5370 C   0  0  0  0  0  2  0  0  0  0  0  0
  191.6380  176.7690  144.3430 C   0  0  0  0  0  0  0  0  0  0  0  0
  192.7030  176.8240  145.2940 N   0  0  0  0  0  2  0  0  0  0  0  0
  187.4210  177.9090  141.5420 C   0  0  0  0  0  2  0  0  0  0  0  0
  185.9660  177.4940  141.4140 C   0  0  0  0  0  2  0  0  0  0  0  0
  185.0940  178.3560  142.3120 C   0  0  0  0  0  2  0  0  0  0  0  0
  185.9400  179.2050  143.2550 C   0  0  0  0  0  2  0  0  0  0  0  0
  185.1660  179.6320  144.4970 C   0  0  0  0  0  2  0  0  0  0  0  0
  186.9560  176.9210  146.6110 C   0  0  0  0  0  0  0  0  0  0  0  0
  184.6340  178.6730  146.6090 O   0  0  0  0  0  0  0  0  0  0  0  0
  186.2560  176.7740  147.6480 O   0  0  0  0  0  0  0  0  0  0  0  0
  188.1820  176.1010  146.4350 C   0  0  0  0  0  1  0  0  0  0  0  0
  185.4360  178.7100  145.6380 C   0  0  0  0  0  0  0  0  0  0  0  0
  186.5880  177.8630  145.5980 N   0  0  0  0  0  2  0  0  0  0  0  0
  1  9  1  0  0  0  0
  1 14  1  0  0  0  0
  2  3  1  0  0  0  0
  3 19  2  0  0  0  0
  3  7  1  0  0  0  0
  4 11  2  0  0  0  0
  5 14  2  0  0  0  0
  5  2  1  0  0  0  0
  6  1  2  0  0  0  0
  7  4  1  0  0  0  0
  8 13  1  0  0  0  0
 10 19  1  0  0  0  0
 11 15  1  0  0  0  0
 12 16  1  0  0  0  0
 12  8  2  0  0  0  0
 13  2  2  0  0  0  0
 13 18  1  0  0  0  0
 16  5  1  0  0  0  0
 17  6  1  0  0  0  0
 17 16  2  0  0  0  0
 18 10  1  0  0  0  0
 19 20  1  0  0  0  0
 20 11  1  0  0  0  0
 21  8  1  0  0  0  0
 22 21  1  0  0  0  0
 22 23  1  0  0  0  0
 23 24  1  0  0  0  0
 24 25  1  0  0  0  0
 25 30  1  0  0  0  0
 26 28  2  0  0  0  0
 29 26  1  0  0  0  0
 30 27  2  0  0  0  0
 31 30  1  0  0  0  0
 31 26  1  0  0  0  0
M  END
>  <MODEL>
5

>  <REMARK>
 VINA RESULT:      -7.9      4.013      8.039
  Name = 
  6 active torsions:
  status: ('A' for Active; 'I' for Inactive)
    1  A    between atoms: C_3  and  C_19
    2  A    between atoms: C_3  and  C_22
    3  A    between atoms: C_7  and  C_9
    4  A    between atoms: C_7  and  C_22
    5  A    between atoms: C_9  and  C_23
    6  A    between atoms: C_15  and  C_23
                            x       y       z     vdW  Elec       q    Type
                         _______ _______ _______ _____ _____    ______ ____

>  <TORSDO>
F 6

$$$$
=
 OpenBabel11052417473D

 31 34  0  0  0  0  0  0  0  0999 V2000
  184.4380  178.4390  146.2990 C   0  0  0  0  0  0  0  0  0  0  0  0
  187.7150  177.5850  144.6930 C   0  0  0  0  0  0  0  0  0  0  0  0
  187.4300  177.4720  143.2230 C   0  0  0  0  0  0  0  0  0  0  0  0
  185.8660  177.2790  141.2880 N   0  0  0  0  0  0  0  0  0  0  0  0
  186.7240  177.8860  145.6620 C   0  0  0  0  0  0  0  0  0  0  0  0
  184.8160  178.4980  147.6410 C   0  0  0  0  0  3  0  0  0  0  0  0
  186.0570  177.0710  142.7260 C   0  0  0  0  0  2  0  0  0  0  0  0
  189.3610  177.4880  146.4940 C   0  0  0  0  0  0  0  0  0  0  0  0
  183.1520  178.6730  145.9470 F   0  0  0  0  0  0  0  0  0  0  0  0
  189.8490  177.8130  142.8030 C   0  0  0  0  0  2  0  0  0  0  0  0
  186.8510  177.4040  140.4540 C   0  0  0  0  0  0  0  0  0  0  0  0
  188.3870  177.7630  147.3960 N   0  0  0  0  0  0  0  0  0  0  0  0
  189.0520  177.4160  145.1250 C   0  0  0  0  0  0  0  0  0  0  0  0
  185.3870  178.1380  145.3180 C   0  0  0  0  0  3  0  0  0  0  0  0
  186.5910  177.5430  139.0630 N   0  0  0  0  0  1  0  0  0  0  0  0
  187.0980  177.9640  147.0260 C   0  0  0  0  0  0  0  0  0  0  0  0
  186.1430  178.2630  148.0040 C   0  0  0  0  0  3  0  0  0  0  0  0
  190.1230  177.0920  144.1180 C   0  0  0  0  0  2  0  0  0  0  0  0
  188.4490  177.5430  142.3410 C   0  0  0  0  0  0  0  0  0  0  0  0
  188.1910  177.4720  140.9370 N   0  0  0  0  0  2  0  0  0  0  0  0
  190.7610  177.3070  146.9800 C   0  0  0  0  0  2  0  0  0  0  0  0
  190.9810  175.8670  147.4090 C   0  0  0  0  0  2  0  0  0  0  0  0
  192.1800  175.2800  146.6840 C   0  0  0  0  0  2  0  0  0  0  0  0
  191.7570  174.1760  145.7210 C   0  0  0  0  0  2  0  0  0  0  0  0
  190.2540  173.9250  145.7560 C   0  0  0  0  0  2  0  0  0  0  0  0
  189.1990  173.2140  142.0950 C   0  0  0  0  0  0  0  0  0  0  0  0
  189.5820  171.9160  144.6710 O   0  0  0  0  0  0  0  0  0  0  0  0
  188.9360  171.9820  142.0450 O   0  0  0  0  0  0  0  0  0  0  0  0
  189.0530  174.0420  140.8710 C   0  0  0  0  0  1  0  0  0  0  0  0
  189.8130  173.1500  144.5610 C   0  0  0  0  0  0  0  0  0  0  0  0
  189.6340  173.8280  143.3130 N   0  0  0  0  0  2  0  0  0  0  0  0
  1  6  1  0  0  0  0
  2 13  2  0  0  0  0
  2  5  1  0  0  0  0
  3  2  1  0  0  0  0
  4  7  1  0  0  0  0
  5 16  2  0  0  0  0
  6 17  2  0  0  0  0
  7  3  1  0  0  0  0
  8 21  1  0  0  0  0
  8 12  2  0  0  0  0
  9  1  1  0  0  0  0
 10 18  1  0  0  0  0
 11 20  1  0  0  0  0
 11  4  2  0  0  0  0
 13  8  1  0  0  0  0
 14  5  1  0  0  0  0
 14  1  2  0  0  0  0
 15 11  1  0  0  0  0
 16 12  1  0  0  0  0
 16 17  1  0  0  0  0
 18 13  1  0  0  0  0
 19 10  1  0  0  0  0
 19  3  2  0  0  0  0
 20 19  1  0  0  0  0
 21 22  1  0  0  0  0
 23 22  1  0  0  0  0
 24 25  1  0  0  0  0
 24 23  1  0  0  0  0
 26 31  1  0  0  0  0
 28 26  2  0  0  0  0
 29 26  1  0  0  0  0
 30 27  2  0  0  0  0
 30 25  1  0  0  0  0
 31 30  1  0  0  0  0
M  END
>  <MODEL>
6

>  <REMARK>
 VINA RESULT:      -7.8      2.823      3.618
  Name = 
  6 active torsions:
  status: ('A' for Active; 'I' for Inactive)
    1  A    between atoms: C_3  and  C_19
    2  A    between atoms: C_3  and  C_22
    3  A    between atoms: C_7  and  C_9
    4  A    between atoms: C_7  and  C_22
    5  A    between atoms: C_9  and  C_23
    6  A    between atoms: C_15  and  C_23
                            x       y       z     vdW  Elec       q    Type
                         _______ _______ _______ _____ _____    ______ ____

>  <TORSDO>
F 6

$$$$
=
 OpenBabel11052417473D

 31 34  0  0  0  0  0  0  0  0999 V2000
  186.5220  178.1370  142.5380 C   0  0  0  0  0  0  0  0  0  0  0  0
  188.7740  175.3100  143.5290 C   0  0  0  0  0  0  0  0  0  0  0  0
  189.1610  174.6300  142.2470 C   0  0  0  0  0  0  0  0  0  0  0  0
  188.8810  174.2060  139.8040 N   0  0  0  0  0  0  0  0  0  0  0  0
  187.9100  176.4330  143.5900 C   0  0  0  0  0  0  0  0  0  0  0  0
  186.2170  178.6750  143.7880 C   0  0  0  0  0  3  0  0  0  0  0  0
  188.2450  174.6660  141.0420 C   0  0  0  0  0  2  0  0  0  0  0  0
  188.9800  175.4130  145.9600 C   0  0  0  0  0  0  0  0  0  0  0  0
  186.0020  178.6910  141.4170 F   0  0  0  0  0  0  0  0  0  0  0  0
  191.1060  173.6560  143.4370 C   0  0  0  0  0  2  0  0  0  0  0  0
  189.9530  173.4760  139.7880 C   0  0  0  0  0  0  0  0  0  0  0  0
  188.1390  176.4770  145.9840 N   0  0  0  0  0  0  0  0  0  0  0  0
  189.3330  174.8230  144.7340 C   0  0  0  0  0  0  0  0  0  0  0  0
  187.3640  177.0270  142.4400 C   0  0  0  0  0  3  0  0  0  0  0  0
  190.4800  173.0160  138.5510 N   0  0  0  0  0  1  0  0  0  0  0  0
  187.6040  176.9970  144.8520 C   0  0  0  0  0  0  0  0  0  0  0  0
  186.7580  178.1080  144.9430 C   0  0  0  0  0  3  0  0  0  0  0  0
  190.2510  173.6300  144.6990 C   0  0  0  0  0  2  0  0  0  0  0  0
  190.2410  173.8210  142.2240 C   0  0  0  0  0  0  0  0  0  0  0  0
  190.6420  173.1930  141.0050 N   0  0  0  0  0  2  0  0  0  0  0  0
  189.5480  174.9160  147.2480 C   0  0  0  0  0  2  0  0  0  0  0  0
  190.6510  175.8450  147.7240 C   0  0  0  0  0  2  0  0  0  0  0  0
  192.0110  175.2060  147.4950 C   0  0  0  0  0  2  0  0  0  0  0  0
  193.0920  176.2630  147.2960 C   0  0  0  0  0  2  0  0  0  0  0  0
  194.1190  175.8470  146.2490 C   0  0  0  0  0  2  0  0  0  0  0  0
  191.9340  177.3180  143.4060 C   0  0  0  0  0  0  0  0  0  0  0  0
  194.0900  175.4300  143.9070 O   0  0  0  0  0  0  0  0  0  0  0  0
  192.3210  176.7560  142.3480 O   0  0  0  0  0  0  0  0  0  0  0  0
  190.8330  178.3130  143.3450 C   0  0  0  0  0  1  0  0  0  0  0  0
  193.6010  176.0780  144.8700 C   0  0  0  0  0  0  0  0  0  0  0  0
  192.5380  177.0140  144.6680 N   0  0  0  0  0  2  0  0  0  0  0  0
  1  6  1  0  0  0  0
  2  5  2  0  0  0  0
  2 13  1  0  0  0  0
  3  2  1  0  0  0  0
  4  7  1  0  0  0  0
  5 16  1  0  0  0  0
  6 17  2  0  0  0  0
  7  3  1  0  0  0  0
  8 12  1  0  0  0  0
  8 21  1  0  0  0  0
  9  1  1  0  0  0  0
 10 18  1  0  0  0  0
 11  4  2  0  0  0  0
 11 20  1  0  0  0  0
 13  8  2  0  0  0  0
 14  1  2  0  0  0  0
 14  5  1  0  0  0  0
 15 11  1  0  0  0  0
 16 17  1  0  0  0  0
 16 12  2  0  0  0  0
 18 13  1  0  0  0  0
 19  3  2  0  0  0  0
 19 10  1  0  0  0  0
 20 19  1  0  0  0  0
 21 22  1  0  0  0  0
 23 22  1  0  0  0  0
 24 23  1  0  0  0  0
 25 24  1  0  0  0  0
 26 31  1  0  0  0  0
 27 30  2  0  0  0  0
 28 26  2  0  0  0  0
 29 26  1  0  0  0  0
 30 25  1  0  0  0  0
 31 30  1  0  0  0  0
M  END
>  <MODEL>
7

>  <REMARK>
 VINA RESULT:      -7.8      2.348      3.588
  Name = 
  6 active torsions:
  status: ('A' for Active; 'I' for Inactive)
    1  A    between atoms: C_3  and  C_19
    2  A    between atoms: C_3  and  C_22
    3  A    between atoms: C_7  and  C_9
    4  A    between atoms: C_7  and  C_22
    5  A    between atoms: C_9  and  C_23
    6  A    between atoms: C_15  and  C_23
                            x       y       z     vdW  Elec       q    Type
                         _______ _______ _______ _____ _____    ______ ____

>  <TORSDO>
F 6

$$$$
=
 OpenBabel11052417473D

 31 34  0  0  0  0  0  0  0  0999 V2000
  186.1880  178.4120  143.3150 C   0  0  0  0  0  0  0  0  0  0  0  0
  188.5660  175.5690  143.8730 C   0  0  0  0  0  0  0  0  0  0  0  0
  188.8310  174.9880  142.5140 C   0  0  0  0  0  0  0  0  0  0  0  0
  188.3140  174.7310  140.0860 N   0  0  0  0  0  0  0  0  0  0  0  0
  187.6970  176.6660  144.1000 C   0  0  0  0  0  0  0  0  0  0  0  0
  186.0030  178.8540  144.6250 C   0  0  0  0  0  3  0  0  0  0  0  0
  187.7990  175.0890  141.4110 C   0  0  0  0  0  2  0  0  0  0  0  0
  189.0140  175.5060  146.2730 C   0  0  0  0  0  0  0  0  0  0  0  0
  185.5510  179.0320  142.2940 F   0  0  0  0  0  0  0  0  0  0  0  0
  190.8990  173.9740  143.4330 C   0  0  0  0  0  2  0  0  0  0  0  0
  189.3890  174.0260  139.9120 C   0  0  0  0  0  0  0  0  0  0  0  0
  188.1640  176.5470  146.4570 N   0  0  0  0  0  0  0  0  0  0  0  0
  189.2500  175.0110  144.9790 C   0  0  0  0  0  0  0  0  0  0  0  0
  187.0310  177.3280  143.0560 C   0  0  0  0  0  3  0  0  0  0  0  0
  189.7960  173.6640  138.5990 N   0  0  0  0  0  1  0  0  0  0  0  0
  187.5120  177.1350  145.4240 C   0  0  0  0  0  0  0  0  0  0  0  0
  186.6640  178.2190  145.6780 C   0  0  0  0  0  3  0  0  0  0  0  0
  190.1750  173.8420  144.7680 C   0  0  0  0  0  2  0  0  0  0  0  0
  189.9150  174.2060  142.3260 C   0  0  0  0  0  0  0  0  0  0  0  0
  190.2010  173.6730  141.0310 N   0  0  0  0  0  2  0  0  0  0  0  0
  189.7140  174.9320  147.4600 C   0  0  0  0  0  2  0  0  0  0  0  0
  190.8790  175.8220  147.8580 C   0  0  0  0  0  2  0  0  0  0  0  0
  192.1680  175.3090  147.2380 C   0  0  0  0  0  2  0  0  0  0  0  0
  192.6970  176.2790  146.1860 C   0  0  0  0  0  2  0  0  0  0  0  0
  194.1530  176.6590  146.4340 C   0  0  0  0  0  2  0  0  0  0  0  0
  196.4820  173.7660  145.3260 C   0  0  0  0  0  0  0  0  0  0  0  0
  195.3930  176.3120  144.4330 O   0  0  0  0  0  0  0  0  0  0  0  0
  196.8920  174.0750  144.1750 O   0  0  0  0  0  0  0  0  0  0  0  0
  196.9400  172.4980  145.9480 C   0  0  0  0  0  1  0  0  0  0  0  0
  195.0680  175.8650  145.5650 C   0  0  0  0  0  0  0  0  0  0  0  0
  195.5840  174.6180  146.0440 N   0  0  0  0  0  2  0  0  0  0  0  0
  1  6  1  0  0  0  0
  2  5  2  0  0  0  0
  2 13  1  0  0  0  0
  3  2  1  0  0  0  0
  4  7  1  0  0  0  0
  5 16  1  0  0  0  0
  6 17  2  0  0  0  0
  7  3  1  0  0  0  0
  8 12  1  0  0  0  0
  8 21  1  0  0  0  0
  9  1  1  0  0  0  0
 10 18  1  0  0  0  0
 11  4  2  0  0  0  0
 11 20  1  0  0  0  0
 13  8  2  0  0  0  0
 14  1  2  0  0  0  0
 14  5  1  0  0  0  0
 15 11  1  0  0  0  0
 16 17  1  0  0  0  0
 16 12  2  0  0  0  0
 18 13  1  0  0  0  0
 19  3  2  0  0  0  0
 19 10  1  0  0  0  0
 20 19  1  0  0  0  0
 21 22  1  0  0  0  0
 23 22  1  0  0  0  0
 24 25  1  0  0  0  0
 24 23  1  0  0  0  0
 26 29  1  0  0  0  0
 26 31  1  0  0  0  0
 27 30  2  0  0  0  0
 28 26  2  0  0  0  0
 30 31  1  0  0  0  0
 30 25  1  0  0  0  0
M  END
>  <MODEL>
8

>  <REMARK>
 VINA RESULT:      -7.7      1.773      2.360
  Name = 
  6 active torsions:
  status: ('A' for Active; 'I' for Inactive)
    1  A    between atoms: C_3  and  C_19
    2  A    between atoms: C_3  and  C_22
    3  A    between atoms: C_7  and  C_9
    4  A    between atoms: C_7  and  C_22
    5  A    between atoms: C_9  and  C_23
    6  A    between atoms: C_15  and  C_23
                            x       y       z     vdW  Elec       q    Type
                         _______ _______ _______ _____ _____    ______ ____

>  <TORSDO>
F 6

$$$$
=
 OpenBabel11052417473D

 31 34  0  0  0  0  0  0  0  0999 V2000
  188.2080  172.9530  141.1760 C   0  0  0  0  0  0  0  0  0  0  0  0
  189.3030  176.0410  142.9950 C   0  0  0  0  0  0  0  0  0  0  0  0
  188.0430  176.6920  143.4860 C   0  0  0  0  0  0  0  0  0  0  0  0
  185.5620  176.9630  143.5020 N   0  0  0  0  0  0  0  0  0  0  0  0
  189.3220  174.8400  142.2400 C   0  0  0  0  0  0  0  0  0  0  0  0
  189.4390  172.4500  140.7560 C   0  0  0  0  0  3  0  0  0  0  0  0
  186.7330  176.5030  142.7500 C   0  0  0  0  0  2  0  0  0  0  0  0
  191.7420  176.0810  142.8780 C   0  0  0  0  0  0  0  0  0  0  0  0
  187.0660  172.2940  140.8670 F   0  0  0  0  0  0  0  0  0  0  0  0
  189.4120  177.9170  145.1510 C   0  0  0  0  0  2  0  0  0  0  0  0
  185.6400  177.7970  144.4930 C   0  0  0  0  0  0  0  0  0  0  0  0
  191.7240  174.9400  142.1450 N   0  0  0  0  0  0  0  0  0  0  0  0
  190.5380  176.6420  143.3370 C   0  0  0  0  0  0  0  0  0  0  0  0
  188.1510  174.1370  141.9150 C   0  0  0  0  0  3  0  0  0  0  0  0
  184.4550  178.2460  145.1370 N   0  0  0  0  0  1  0  0  0  0  0  0
  190.5670  174.3110  141.8210 C   0  0  0  0  0  0  0  0  0  0  0  0
  190.6170  173.1260  141.0790 C   0  0  0  0  0  3  0  0  0  0  0  0
  190.5470  177.9190  144.1340 C   0  0  0  0  0  2  0  0  0  0  0  0
  188.1090  177.6040  144.4780 C   0  0  0  0  0  0  0  0  0  0  0  0
  186.9150  178.2090  144.9800 N   0  0  0  0  0  2  0  0  0  0  0  0
  193.0600  176.6970  143.2160 C   0  0  0  0  0  2  0  0  0  0  0  0
  194.0520  175.6180  143.6160 C   0  0  0  0  0  2  0  0  0  0  0  0
  194.8200  176.0440  144.8560 C   0  0  0  0  0  2  0  0  0  0  0  0
  194.1800  175.4830  146.1210 C   0  0  0  0  0  2  0  0  0  0  0  0
  193.3940  176.5420  146.8870 C   0  0  0  0  0  2  0  0  0  0  0  0
  190.1130  174.5370  146.3990 C   0  0  0  0  0  0  0  0  0  0  0  0
  191.2720  176.7070  147.9520 O   0  0  0  0  0  0  0  0  0  0  0  0
  189.2850  175.0280  147.2120 O   0  0  0  0  0  0  0  0  0  0  0  0
  189.6940  173.4190  145.5150 C   0  0  0  0  0  1  0  0  0  0  0  0
  191.9830  176.1100  147.1000 C   0  0  0  0  0  0  0  0  0  0  0  0
  191.4500  175.0390  146.3130 N   0  0  0  0  0  2  0  0  0  0  0  0
  1 14  1  0  0  0  0
  2 13  2  0  0  0  0
  2  3  1  0  0  0  0
  3 19  2  0  0  0  0
  4 11  2  0  0  0  0
  5  2  1  0  0  0  0
  6 17  1  0  0  0  0
  6  1  2  0  0  0  0
  7  3  1  0  0  0  0
  7  4  1  0  0  0  0
  8 21  1  0  0  0  0
  8 13  1  0  0  0  0
  9  1  1  0  0  0  0
 11 20  1  0  0  0  0
 11 15  1  0  0  0  0
 12  8  2  0  0  0  0
 13 18  1  0  0  0  0
 14  5  2  0  0  0  0
 16 12  1  0  0  0  0
 16  5  1  0  0  0  0
 17 16  2  0  0  0  0
 18 10  1  0  0  0  0
 19 20  1  0  0  0  0
 19 10  1  0  0  0  0
 21 22  1  0  0  0  0
 22 23  1  0  0  0  0
 23 24  1  0  0  0  0
 24 25  1  0  0  0  0
 25 30  1  0  0  0  0
 26 28  2  0  0  0  0
 29 26  1  0  0  0  0
 30 27  2  0  0  0  0
 31 26  1  0  0  0  0
 31 30  1  0  0  0  0
M  END
>  <MODEL>
9

>  <REMARK>
 VINA RESULT:      -7.6      3.238      5.529
  Name = 
  6 active torsions:
  status: ('A' for Active; 'I' for Inactive)
    1  A    between atoms: C_3  and  C_19
    2  A    between atoms: C_3  and  C_22
    3  A    between atoms: C_7  and  C_9
    4  A    between atoms: C_7  and  C_22
    5  A    between atoms: C_9  and  C_23
    6  A    between atoms: C_15  and  C_23
                            x       y       z     vdW  Elec       q    Type
                         _______ _______ _______ _____ _____    ______ ____

>  <TORSDO>
F 6

$$$$
