=
 OpenBabel11052418243D

 27 31  0  0  0  0  0  0  0  0999 V2000
  190.5340  174.3260  143.7230 O   0  0  0  0  0  0  0  0  0  0  0  0
  189.7150  176.1320  145.1290 C   0  0  0  0  0  0  0  0  0  0  0  0
  187.9540  175.6980  143.4530 C   0  0  0  0  0  3  0  0  0  0  0  0
  186.7350  178.1100  147.4040 C   0  0  0  0  0  3  0  0  0  0  0  0
  184.4550  178.6920  147.7720 F   0  0  0  0  0  0  0  0  0  0  0  0
  190.0040  176.8720  146.2930 C   0  0  0  0  0  3  0  0  0  0  0  0
  185.9890  176.7450  145.0880 C   0  0  0  0  0  3  0  0  0  0  0  0
  188.6110  174.4690  140.0400 C   0  0  0  0  0  0  0  0  0  0  0  0
  185.0200  177.3870  145.8630 C   0  0  0  0  0  3  0  0  0  0  0  0
  188.0230  174.5140  138.9290 O   0  0  0  0  0  0  0  0  0  0  0  0
  187.3530  176.7670  145.4570 C   0  0  0  0  0  0  0  0  0  0  0  0
  190.7340  175.3930  144.6020 C   0  0  0  0  0  0  0  0  0  0  0  0
  185.3940  178.0680  147.0210 C   0  0  0  0  0  0  0  0  0  0  0  0
  187.7070  177.4660  146.6340 C   0  0  0  0  0  0  0  0  0  0  0  0
  189.8830  174.4060  142.5030 C   0  0  0  0  0  0  0  0  0  0  0  0
  188.3550  176.1340  144.6620 C   0  0  0  0  0  0  0  0  0  0  0  0
  188.0720  175.0930  141.1200 N   0  0  0  0  0  2  0  0  0  0  0  0
  189.0310  177.5340  147.0270 C   0  0  0  0  0  3  0  0  0  0  0  0
  189.8100  173.7720  140.1670 C   0  0  0  0  0  3  0  0  0  0  0  0
  190.4410  173.7380  141.4100 C   0  0  0  0  0  3  0  0  0  0  0  0
  188.6780  175.0880  142.3400 C   0  0  0  0  0  0  0  0  0  0  0  0
  194.8510  175.7980  145.7650 C   0  0  0  0  0  3  0  0  0  0  0  0
  192.1490  175.5660  145.0320 C   0  0  0  0  0  0  0  0  0  0  0  0
  192.9020  176.6850  144.6360 C   0  0  0  0  0  3  0  0  0  0  0  0
  194.2440  176.8030  145.0060 C   0  0  0  0  0  3  0  0  0  0  0  0
  194.1170  174.6720  146.1450 C   0  0  0  0  0  3  0  0  0  0  0  0
  192.7740  174.5540  145.7750 C   0  0  0  0  0  3  0  0  0  0  0  0
  1 12  1  0  0  0  0
  2  6  1  0  0  0  0
  3 16  2  0  0  0  0
  6 18  2  0  0  0  0
  7 11  2  0  0  0  0
  7  9  1  0  0  0  0
  8 19  1  0  0  0  0
  8 17  1  0  0  0  0
  9 13  2  0  0  0  0
 10  8  2  0  0  0  0
 11 14  1  0  0  0  0
 12 23  1  0  0  0  0
 12  2  2  0  0  0  0
 13  4  1  0  0  0  0
 13  5  1  0  0  0  0
 14 18  1  0  0  0  0
 14  4  2  0  0  0  0
 15  1  1  0  0  0  0
 16  2  1  0  0  0  0
 16 11  1  0  0  0  0
 17 21  1  0  0  0  0
 19 20  2  0  0  0  0
 20 15  1  0  0  0  0
 21 15  2  0  0  0  0
 21  3  1  0  0  0  0
 22 26  1  0  0  0  0
 23 27  1  0  0  0  0
 24 25  1  0  0  0  0
 24 23  2  0  0  0  0
 25 22  2  0  0  0  0
 27 26  2  0  0  0  0
M  END
>  <MODEL>
1

>  <REMARK>
 VINA RESULT:      -8.8      0.000      0.000
  Name = 
  1 active torsions:
  status: ('A' for Active; 'I' for Inactive)
    1  A    between atoms: C_9  and  C_15
                            x       y       z     vdW  Elec       q    Type
                         _______ _______ _______ _____ _____    ______ ____

>  <TORSDO>
F 1

$$$$
=
 OpenBabel11052418243D

 27 31  0  0  0  0  0  0  0  0999 V2000
  188.6970  175.9410  146.0240 O   0  0  0  0  0  0  0  0  0  0  0  0
  188.2680  175.9550  143.6310 C   0  0  0  0  0  0  0  0  0  0  0  0
  190.6220  175.2660  143.9140 C   0  0  0  0  0  3  0  0  0  0  0  0
  188.5000  174.3140  139.7300 C   0  0  0  0  0  3  0  0  0  0  0  0
  189.6670  173.0560  138.0770 F   0  0  0  0  0  0  0  0  0  0  0  0
  187.2470  176.1100  142.6710 C   0  0  0  0  0  3  0  0  0  0  0  0
  190.6460  173.9620  141.4790 C   0  0  0  0  0  3  0  0  0  0  0  0
  192.7770  176.3750  146.6920 C   0  0  0  0  0  0  0  0  0  0  0  0
  190.6930  173.4120  140.1960 C   0  0  0  0  0  3  0  0  0  0  0  0
  194.0140  176.5020  146.8880 O   0  0  0  0  0  0  0  0  0  0  0  0
  189.5210  174.6950  141.9190 C   0  0  0  0  0  0  0  0  0  0  0  0
  187.9850  176.3690  144.9010 C   0  0  0  0  0  0  0  0  0  0  0  0
  189.6200  173.5880  139.3220 C   0  0  0  0  0  0  0  0  0  0  0  0
  188.4460  174.8620  141.0150 C   0  0  0  0  0  0  0  0  0  0  0  0
  190.0600  176.0970  146.2140 C   0  0  0  0  0  0  0  0  0  0  0  0
  189.4690  175.2810  143.2190 C   0  0  0  0  0  0  0  0  0  0  0  0
  192.3210  175.9600  145.4810 N   0  0  0  0  0  2  0  0  0  0  0  0
  187.3310  175.5880  141.3900 C   0  0  0  0  0  3  0  0  0  0  0  0
  191.8760  176.6510  147.7170 C   0  0  0  0  0  3  0  0  0  0  0  0
  190.5120  176.5020  147.4720 C   0  0  0  0  0  3  0  0  0  0  0  0
  190.9920  175.8230  145.2130 C   0  0  0  0  0  0  0  0  0  0  0  0
  184.5900  178.7880  145.9440 C   0  0  0  0  0  3  0  0  0  0  0  0
  186.7950  177.2050  145.2200 C   0  0  0  0  0  0  0  0  0  0  0  0
  186.6890  178.5300  144.7660 C   0  0  0  0  0  3  0  0  0  0  0  0
  185.5890  179.3160  145.1200 C   0  0  0  0  0  3  0  0  0  0  0  0
  184.6970  177.4790  146.4180 C   0  0  0  0  0  3  0  0  0  0  0  0
  185.7980  176.6930  146.0630 C   0  0  0  0  0  3  0  0  0  0  0  0
  1 15  1  0  0  0  0
  2 12  2  0  0  0  0
  3 21  1  0  0  0  0
  4 14  1  0  0  0  0
  5 13  1  0  0  0  0
  6  2  1  0  0  0  0
  7 11  1  0  0  0  0
  8 10  2  0  0  0  0
  8 19  1  0  0  0  0
  9  7  2  0  0  0  0
 11 16  1  0  0  0  0
 12 23  1  0  0  0  0
 12  1  1  0  0  0  0
 13  4  2  0  0  0  0
 13  9  1  0  0  0  0
 14 18  1  0  0  0  0
 14 11  2  0  0  0  0
 15 20  1  0  0  0  0
 16  2  1  0  0  0  0
 16  3  2  0  0  0  0
 17  8  1  0  0  0  0
 18  6  2  0  0  0  0
 20 19  2  0  0  0  0
 21 17  1  0  0  0  0
 21 15  2  0  0  0  0
 22 26  1  0  0  0  0
 23 27  1  0  0  0  0
 24 25  1  0  0  0  0
 24 23  2  0  0  0  0
 25 22  2  0  0  0  0
 27 26  2  0  0  0  0
M  END
>  <MODEL>
2

>  <REMARK>
 VINA RESULT:      -8.7      3.333      7.136
  Name = 
  1 active torsions:
  status: ('A' for Active; 'I' for Inactive)
    1  A    between atoms: C_9  and  C_15
                            x       y       z     vdW  Elec       q    Type
                         _______ _______ _______ _____ _____    ______ ____

>  <TORSDO>
F 1

$$$$
=
 OpenBabel11052418243D

 27 31  0  0  0  0  0  0  0  0999 V2000
  190.8850  176.0920  144.2660 O   0  0  0  0  0  0  0  0  0  0  0  0
  188.5070  176.0040  143.7640 C   0  0  0  0  0  0  0  0  0  0  0  0
  188.7580  177.5170  145.6990 C   0  0  0  0  0  3  0  0  0  0  0  0
  184.6900  177.7530  143.1870 C   0  0  0  0  0  3  0  0  0  0  0  0
  183.0700  179.4150  143.7210 F   0  0  0  0  0  0  0  0  0  0  0  0
  187.5710  175.5120  142.8330 C   0  0  0  0  0  3  0  0  0  0  0  0
  186.3920  178.8210  145.1220 C   0  0  0  0  0  3  0  0  0  0  0  0
  191.4130  177.2000  148.2370 C   0  0  0  0  0  0  0  0  0  0  0  0
  185.1370  179.3950  144.9020 C   0  0  0  0  0  3  0  0  0  0  0  0
  191.5670  177.5410  149.4390 O   0  0  0  0  0  0  0  0  0  0  0  0
  186.8260  177.7040  144.3750 C   0  0  0  0  0  0  0  0  0  0  0  0
  189.7630  175.4690  143.7150 C   0  0  0  0  0  0  0  0  0  0  0  0
  184.2870  178.8610  143.9340 C   0  0  0  0  0  0  0  0  0  0  0  0
  185.9460  177.1780  143.4010 C   0  0  0  0  0  0  0  0  0  0  0  0
  191.0270  176.4540  145.5950 C   0  0  0  0  0  0  0  0  0  0  0  0
  188.0960  177.0940  144.6050 C   0  0  0  0  0  0  0  0  0  0  0  0
  190.2370  177.4570  147.6040 N   0  0  0  0  0  2  0  0  0  0  0  0
  186.3160  176.0730  142.6560 C   0  0  0  0  0  3  0  0  0  0  0  0
  192.4480  176.5690  147.5530 C   0  0  0  0  0  3  0  0  0  0  0  0
  192.2500  176.2030  146.2220 C   0  0  0  0  0  3  0  0  0  0  0  0
  190.0150  177.0940  146.3100 C   0  0  0  0  0  0  0  0  0  0  0  0
  190.5330  171.8890  141.4670 C   0  0  0  0  0  3  0  0  0  0  0  0
  190.0730  174.2350  142.9410 C   0  0  0  0  0  0  0  0  0  0  0  0
  190.6200  174.3010  141.6490 C   0  0  0  0  0  3  0  0  0  0  0  0
  190.8550  173.1330  140.9180 C   0  0  0  0  0  3  0  0  0  0  0  0
  189.9680  171.8150  142.7420 C   0  0  0  0  0  3  0  0  0  0  0  0
  189.7340  172.9830  143.4730 C   0  0  0  0  0  3  0  0  0  0  0  0
  1 15  1  0  0  0  0
  2 16  1  0  0  0  0
  3 21  1  0  0  0  0
  4 14  2  0  0  0  0
  4 13  1  0  0  0  0
  5 13  1  0  0  0  0
  6  2  1  0  0  0  0
  8 10  2  0  0  0  0
  9  7  1  0  0  0  0
 11 16  1  0  0  0  0
 11  7  2  0  0  0  0
 12  2  2  0  0  0  0
 12  1  1  0  0  0  0
 13  9  2  0  0  0  0
 14 11  1  0  0  0  0
 15 20  1  0  0  0  0
 15 21  2  0  0  0  0
 16  3  2  0  0  0  0
 17  8  1  0  0  0  0
 18  6  2  0  0  0  0
 18 14  1  0  0  0  0
 19  8  1  0  0  0  0
 20 19  2  0  0  0  0
 21 17  1  0  0  0  0
 22 26  1  0  0  0  0
 23 27  1  0  0  0  0
 23 12  1  0  0  0  0
 24 23  2  0  0  0  0
 25 22  2  0  0  0  0
 25 24  1  0  0  0  0
 26 27  2  0  0  0  0
M  END
>  <MODEL>
3

>  <REMARK>
 VINA RESULT:      -8.4      2.622      5.194
  Name = 
  1 active torsions:
  status: ('A' for Active; 'I' for Inactive)
    1  A    between atoms: C_9  and  C_15
                            x       y       z     vdW  Elec       q    Type
                         _______ _______ _______ _____ _____    ______ ____

>  <TORSDO>
F 1

$$$$
=
 OpenBabel11052418243D

 27 31  0  0  0  0  0  0  0  0999 V2000
  188.3490  177.5640  144.0470 O   0  0  0  0  0  0  0  0  0  0  0  0
  189.0470  175.4420  143.0880 C   0  0  0  0  0  0  0  0  0  0  0  0
  187.1580  176.2420  141.7140 C   0  0  0  0  0  3  0  0  0  0  0  0
  190.0130  172.8820  139.8510 C   0  0  0  0  0  3  0  0  0  0  0  0
  189.6840  172.1710  137.6010 F   0  0  0  0  0  0  0  0  0  0  0  0
  190.0340  174.4390  143.1710 C   0  0  0  0  0  3  0  0  0  0  0  0
  187.9840  174.7690  139.5280 C   0  0  0  0  0  3  0  0  0  0  0  0
  184.3940  178.3090  143.0090 C   0  0  0  0  0  0  0  0  0  0  0  0
  188.3320  173.9300  138.4670 C   0  0  0  0  0  3  0  0  0  0  0  0
  183.1980  178.5330  142.6870 O   0  0  0  0  0  0  0  0  0  0  0  0
  188.6480  174.6880  140.7720 C   0  0  0  0  0  0  0  0  0  0  0  0
  188.9680  176.3150  144.1350 C   0  0  0  0  0  0  0  0  0  0  0  0
  189.3470  172.9870  138.6290 C   0  0  0  0  0  0  0  0  0  0  0  0
  189.6710  173.7230  140.9140 C   0  0  0  0  0  0  0  0  0  0  0  0
  187.0280  177.7790  143.6920 C   0  0  0  0  0  0  0  0  0  0  0  0
  188.2870  175.5250  141.8710 C   0  0  0  0  0  0  0  0  0  0  0  0
  185.1340  177.4190  142.2960 N   0  0  0  0  0  2  0  0  0  0  0  0
  190.3380  173.5900  142.1180 C   0  0  0  0  0  3  0  0  0  0  0  0
  184.9630  178.9810  144.0880 C   0  0  0  0  0  3  0  0  0  0  0  0
  186.2900  178.7140  144.4220 C   0  0  0  0  0  3  0  0  0  0  0  0
  186.4270  177.1310  142.6140 C   0  0  0  0  0  0  0  0  0  0  0  0
  190.9990  175.4940  147.8320 C   0  0  0  0  0  3  0  0  0  0  0  0
  189.6640  176.0720  145.4290 C   0  0  0  0  0  0  0  0  0  0  0  0
  190.9170  176.6450  145.7040 C   0  0  0  0  0  3  0  0  0  0  0  0
  191.5780  176.3620  146.9020 C   0  0  0  0  0  3  0  0  0  0  0  0
  189.7630  174.9030  147.5580 C   0  0  0  0  0  3  0  0  0  0  0  0
  189.1020  175.1860  146.3590 C   0  0  0  0  0  3  0  0  0  0  0  0
  1 12  1  0  0  0  0
  2  6  1  0  0  0  0
  2 12  2  0  0  0  0
  3 16  2  0  0  0  0
  3 21  1  0  0  0  0
  4 14  1  0  0  0  0
  5 13  1  0  0  0  0
  7 11  1  0  0  0  0
  8 19  1  0  0  0  0
  9 13  1  0  0  0  0
  9  7  2  0  0  0  0
 10  8  2  0  0  0  0
 11 14  2  0  0  0  0
 11 16  1  0  0  0  0
 12 23  1  0  0  0  0
 13  4  2  0  0  0  0
 14 18  1  0  0  0  0
 15  1  1  0  0  0  0
 15 20  1  0  0  0  0
 16  2  1  0  0  0  0
 17 21  1  0  0  0  0
 17  8  1  0  0  0  0
 18  6  2  0  0  0  0
 19 20  2  0  0  0  0
 21 15  2  0  0  0  0
 23 24  2  0  0  0  0
 23 27  1  0  0  0  0
 24 25  1  0  0  0  0
 25 22  2  0  0  0  0
 26 22  1  0  0  0  0
 27 26  2  0  0  0  0
M  END
>  <MODEL>
4

>  <REMARK>
 VINA RESULT:      -8.3      3.543      6.097
  Name = 
  1 active torsions:
  status: ('A' for Active; 'I' for Inactive)
    1  A    between atoms: C_9  and  C_15
                            x       y       z     vdW  Elec       q    Type
                         _______ _______ _______ _____ _____    ______ ____

>  <TORSDO>
F 1

$$$$
=
 OpenBabel11052418243D

 27 31  0  0  0  0  0  0  0  0999 V2000
  190.0930  174.2280  143.2460 O   0  0  0  0  0  0  0  0  0  0  0  0
  189.1480  176.2420  144.2260 C   0  0  0  0  0  0  0  0  0  0  0  0
  187.7570  175.7030  142.2580 C   0  0  0  0  0  3  0  0  0  0  0  0
  185.9280  178.6610  145.5480 C   0  0  0  0  0  3  0  0  0  0  0  0
  183.6790  179.4160  145.3330 F   0  0  0  0  0  0  0  0  0  0  0  0
  189.2420  177.1050  145.3360 C   0  0  0  0  0  3  0  0  0  0  0  0
  185.5830  177.0600  143.2900 C   0  0  0  0  0  3  0  0  0  0  0  0
  189.0230  174.0170  139.2350 C   0  0  0  0  0  0  0  0  0  0  0  0
  184.5280  177.8490  143.7540 C   0  0  0  0  0  3  0  0  0  0  0  0
  188.6910  173.9550  138.0220 O   0  0  0  0  0  0  0  0  0  0  0  0
  186.8320  177.0490  143.9480 C   0  0  0  0  0  0  0  0  0  0  0  0
  190.1900  175.3840  144.0240 C   0  0  0  0  0  0  0  0  0  0  0  0
  184.7010  178.6490  144.8840 C   0  0  0  0  0  0  0  0  0  0  0  0
  186.9850  177.8690  145.0890 C   0  0  0  0  0  0  0  0  0  0  0  0
  189.7280  174.1910  141.9110 C   0  0  0  0  0  0  0  0  0  0  0  0
  187.9250  176.2640  143.4710 C   0  0  0  0  0  0  0  0  0  0  0  0
  188.3190  174.8030  140.0920 N   0  0  0  0  0  2  0  0  0  0  0  0
  188.1950  177.9090  145.7580 C   0  0  0  0  0  3  0  0  0  0  0  0
  190.1040  173.2730  139.7010 C   0  0  0  0  0  3  0  0  0  0  0  0
  190.4480  173.3600  141.0490 C   0  0  0  0  0  3  0  0  0  0  0  0
  188.6470  174.9160  141.4090 C   0  0  0  0  0  0  0  0  0  0  0  0
  193.9070  175.9180  146.1140 C   0  0  0  0  0  3  0  0  0  0  0  0
  191.4900  175.5280  144.7360 C   0  0  0  0  0  0  0  0  0  0  0  0
  191.7620  174.8140  145.9140 C   0  0  0  0  0  3  0  0  0  0  0  0
  192.9670  175.0020  146.5960 C   0  0  0  0  0  3  0  0  0  0  0  0
  193.6360  176.6490  144.9550 C   0  0  0  0  0  3  0  0  0  0  0  0
  192.4310  176.4590  144.2720 C   0  0  0  0  0  3  0  0  0  0  0  0
  1 12  1  0  0  0  0
  2  6  1  0  0  0  0
  3 16  2  0  0  0  0
  6 18  2  0  0  0  0
  7  9  2  0  0  0  0
  7 11  1  0  0  0  0
  8 19  1  0  0  0  0
  8 17  1  0  0  0  0
  9 13  1  0  0  0  0
 10  8  2  0  0  0  0
 11 14  2  0  0  0  0
 12  2  2  0  0  0  0
 12 23  1  0  0  0  0
 13  5  1  0  0  0  0
 13  4  2  0  0  0  0
 14  4  1  0  0  0  0
 14 18  1  0  0  0  0
 15  1  1  0  0  0  0
 16 11  1  0  0  0  0
 16  2  1  0  0  0  0
 17 21  1  0  0  0  0
 19 20  2  0  0  0  0
 20 15  1  0  0  0  0
 21 15  2  0  0  0  0
 21  3  1  0  0  0  0
 22 25  1  0  0  0  0
 23 24  1  0  0  0  0
 24 25  2  0  0  0  0
 26 22  2  0  0  0  0
 27 23  2  0  0  0  0
 27 26  1  0  0  0  0
M  END
>  <MODEL>
5

>  <REMARK>
 VINA RESULT:      -8.3      1.224      1.646
  Name = 
  1 active torsions:
  status: ('A' for Active; 'I' for Inactive)
    1  A    between atoms: C_9  and  C_15
                            x       y       z     vdW  Elec       q    Type
                         _______ _______ _______ _____ _____    ______ ____

>  <TORSDO>
F 1

$$$$
=
 OpenBabel11052418243D

 27 31  0  0  0  0  0  0  0  0999 V2000
  187.8650  177.3530  142.7150 O   0  0  0  0  0  0  0  0  0  0  0  0
  189.1300  176.8080  144.7190 C   0  0  0  0  0  0  0  0  0  0  0  0
  190.2710  175.6780  142.8430 C   0  0  0  0  0  3  0  0  0  0  0  0
  192.7210  176.2920  146.9100 C   0  0  0  0  0  3  0  0  0  0  0  0
  195.0190  175.6710  147.0060 F   0  0  0  0  0  0  0  0  0  0  0  0
  189.2360  177.0930  146.0950 C   0  0  0  0  0  3  0  0  0  0  0  0
  192.6740  175.6140  144.2040 C   0  0  0  0  0  3  0  0  0  0  0  0
  188.5540  174.4500  139.8210 C   0  0  0  0  0  0  0  0  0  0  0  0
  193.8530  175.4710  144.9390 C   0  0  0  0  0  3  0  0  0  0  0  0
  188.7700  173.5710  138.9460 O   0  0  0  0  0  0  0  0  0  0  0  0
  191.4940  176.1060  144.8040 C   0  0  0  0  0  0  0  0  0  0  0  0
  187.9760  177.1960  144.0990 C   0  0  0  0  0  0  0  0  0  0  0  0
  193.8760  175.8110  146.2920 C   0  0  0  0  0  0  0  0  0  0  0  0
  191.5410  176.4410  146.1760 C   0  0  0  0  0  0  0  0  0  0  0  0
  188.1080  176.3650  141.7760 C   0  0  0  0  0  0  0  0  0  0  0  0
  190.2770  176.2360  144.0690 C   0  0  0  0  0  0  0  0  0  0  0  0
  189.4190  174.6030  140.8580 N   0  0  0  0  0  2  0  0  0  0  0  0
  190.4060  176.9080  146.8150 C   0  0  0  0  0  3  0  0  0  0  0  0
  187.4350  175.2730  139.7220 C   0  0  0  0  0  3  0  0  0  0  0  0
  187.2200  176.2380  140.7040 C   0  0  0  0  0  3  0  0  0  0  0  0
  189.2210  175.5280  141.8390 C   0  0  0  0  0  0  0  0  0  0  0  0
  184.4280  178.4410  146.1780 C   0  0  0  0  0  3  0  0  0  0  0  0
  186.7700  177.6260  144.8570 C   0  0  0  0  0  0  0  0  0  0  0  0
  186.0940  176.7460  145.7190 C   0  0  0  0  0  3  0  0  0  0  0  0
  184.9330  177.1540  146.3810 C   0  0  0  0  0  3  0  0  0  0  0  0
  185.0810  179.3170  145.3060 C   0  0  0  0  0  3  0  0  0  0  0  0
  186.2430  178.9090  144.6450 C   0  0  0  0  0  3  0  0  0  0  0  0
  1 12  1  0  0  0  0
  2  6  1  0  0  0  0
  3 16  2  0  0  0  0
  6 18  2  0  0  0  0
  7 11  2  0  0  0  0
  7  9  1  0  0  0  0
  8 17  1  0  0  0  0
  9 13  2  0  0  0  0
 10  8  2  0  0  0  0
 11 14  1  0  0  0  0
 12  2  2  0  0  0  0
 12 23  1  0  0  0  0
 13  4  1  0  0  0  0
 13  5  1  0  0  0  0
 14 18  1  0  0  0  0
 14  4  2  0  0  0  0
 15 21  2  0  0  0  0
 15  1  1  0  0  0  0
 16  2  1  0  0  0  0
 16 11  1  0  0  0  0
 17 21  1  0  0  0  0
 19  8  1  0  0  0  0
 19 20  2  0  0  0  0
 20 15  1  0  0  0  0
 21  3  1  0  0  0  0
 22 25  1  0  0  0  0
 23 24  1  0  0  0  0
 24 25  2  0  0  0  0
 26 22  2  0  0  0  0
 27 23  2  0  0  0  0
 27 26  1  0  0  0  0
M  END
>  <MODEL>
6

>  <REMARK>
 VINA RESULT:      -8.3      2.610      5.878
  Name = 
  1 active torsions:
  status: ('A' for Active; 'I' for Inactive)
    1  A    between atoms: C_9  and  C_15
                            x       y       z     vdW  Elec       q    Type
                         _______ _______ _______ _____ _____    ______ ____

>  <TORSDO>
F 1

$$$$
=
 OpenBabel11052418243D

 27 31  0  0  0  0  0  0  0  0999 V2000
  186.8100  178.6670  143.3770 O   0  0  0  0  0  0  0  0  0  0  0  0
  188.5290  177.4770  144.6180 C   0  0  0  0  0  0  0  0  0  0  0  0
  189.0760  177.2020  142.2260 C   0  0  0  0  0  3  0  0  0  0  0  0
  192.5410  176.3720  145.4230 C   0  0  0  0  0  3  0  0  0  0  0  0
  194.7480  175.8870  144.6700 F   0  0  0  0  0  0  0  0  0  0  0  0
  189.0090  177.2280  145.9190 C   0  0  0  0  0  3  0  0  0  0  0  0
  191.7470  176.7620  142.7770 C   0  0  0  0  0  3  0  0  0  0  0  0
  186.5630  177.1120  139.5300 C   0  0  0  0  0  0  0  0  0  0  0  0
  193.0700  176.4170  143.0660 C   0  0  0  0  0  3  0  0  0  0  0  0
  186.4970  176.6410  138.3650 O   0  0  0  0  0  0  0  0  0  0  0  0
  190.7930  176.9260  143.8060 C   0  0  0  0  0  0  0  0  0  0  0  0
  187.2740  178.0060  144.5170 C   0  0  0  0  0  0  0  0  0  0  0  0
  193.4660  176.2230  144.3890 C   0  0  0  0  0  0  0  0  0  0  0  0
  191.2180  176.7210  145.1390 C   0  0  0  0  0  0  0  0  0  0  0  0
  186.7460  178.1210  142.1060 C   0  0  0  0  0  0  0  0  0  0  0  0
  189.4340  177.2560  143.5230 C   0  0  0  0  0  0  0  0  0  0  0  0
  187.6780  176.9100  140.2820 N   0  0  0  0  0  2  0  0  0  0  0  0
  190.3170  176.8490  146.1810 C   0  0  0  0  0  3  0  0  0  0  0  0
  185.5000  177.8480  140.0470 C   0  0  0  0  0  3  0  0  0  0  0  0
  185.6020  178.3590  141.3400 C   0  0  0  0  0  3  0  0  0  0  0  0
  187.7930  177.3850  141.5530 C   0  0  0  0  0  0  0  0  0  0  0  0
  184.5030  178.2410  147.7920 C   0  0  0  0  0  3  0  0  0  0  0  0
  186.3340  178.0520  145.6700 C   0  0  0  0  0  0  0  0  0  0  0  0
  185.3480  177.0680  145.8500 C   0  0  0  0  0  3  0  0  0  0  0  0
  184.4410  177.1580  146.9100 C   0  0  0  0  0  3  0  0  0  0  0  0
  185.4660  179.2360  147.6090 C   0  0  0  0  0  3  0  0  0  0  0  0
  186.3740  179.1450  146.5490 C   0  0  0  0  0  3  0  0  0  0  0  0
  1 12  1  0  0  0  0
  2  6  1  0  0  0  0
  3 16  2  0  0  0  0
  6 18  2  0  0  0  0
  7  9  2  0  0  0  0
  7 11  1  0  0  0  0
  8 19  1  0  0  0  0
  8 17  1  0  0  0  0
  9 13  1  0  0  0  0
 10  8  2  0  0  0  0
 11 14  2  0  0  0  0
 12  2  2  0  0  0  0
 12 23  1  0  0  0  0
 13  5  1  0  0  0  0
 13  4  2  0  0  0  0
 14  4  1  0  0  0  0
 14 18  1  0  0  0  0
 15  1  1  0  0  0  0
 16 11  1  0  0  0  0
 16  2  1  0  0  0  0
 17 21  1  0  0  0  0
 19 20  2  0  0  0  0
 20 15  1  0  0  0  0
 21 15  2  0  0  0  0
 21  3  1  0  0  0  0
 23 24  2  0  0  0  0
 23 27  1  0  0  0  0
 24 25  1  0  0  0  0
 25 22  2  0  0  0  0
 26 22  1  0  0  0  0
 27 26  2  0  0  0  0
M  END
>  <MODEL>
7

>  <REMARK>
 VINA RESULT:      -8.1      3.159      6.263
  Name = 
  1 active torsions:
  status: ('A' for Active; 'I' for Inactive)
    1  A    between atoms: C_9  and  C_15
                            x       y       z     vdW  Elec       q    Type
                         _______ _______ _______ _____ _____    ______ ____

>  <TORSDO>
F 1

$$$$
=
 OpenBabel11052418243D

 27 31  0  0  0  0  0  0  0  0999 V2000
  188.3130  176.0540  141.2500 O   0  0  0  0  0  0  0  0  0  0  0  0
  188.1720  176.6020  143.6140 C   0  0  0  0  0  0  0  0  0  0  0  0
  189.8560  174.8080  143.4120 C   0  0  0  0  0  3  0  0  0  0  0  0
  189.8470  177.4270  147.4190 C   0  0  0  0  0  3  0  0  0  0  0  0
  191.5460  177.0850  149.0530 F   0  0  0  0  0  0  0  0  0  0  0  0
  187.5930  177.5060  144.5270 C   0  0  0  0  0  3  0  0  0  0  0  0
  191.0940  175.5570  145.7650 C   0  0  0  0  0  3  0  0  0  0  0  0
  189.7810  172.1890  140.8180 C   0  0  0  0  0  0  0  0  0  0  0  0
  191.6410  175.8590  147.0140 C   0  0  0  0  0  3  0  0  0  0  0  0
  190.2310  171.0200  140.6930 O   0  0  0  0  0  0  0  0  0  0  0  0
  189.9140  176.1890  145.3120 C   0  0  0  0  0  0  0  0  0  0  0  0
  187.6380  176.5720  142.3570 C   0  0  0  0  0  0  0  0  0  0  0  0
  191.0170  176.7940  147.8400 C   0  0  0  0  0  0  0  0  0  0  0  0
  189.2990  177.1310  146.1670 C   0  0  0  0  0  0  0  0  0  0  0  0
  188.7960  174.7600  141.1390 C   0  0  0  0  0  0  0  0  0  0  0  0
  189.3330  175.8740  144.0460 C   0  0  0  0  0  0  0  0  0  0  0  0
  189.9750  172.8710  141.9780 N   0  0  0  0  0  2  0  0  0  0  0  0
  188.1310  177.7630  145.7790 C   0  0  0  0  0  3  0  0  0  0  0  0
  189.0940  172.7880  139.7660 C   0  0  0  0  0  3  0  0  0  0  0  0
  188.6070  174.0840  139.9310 C   0  0  0  0  0  3  0  0  0  0  0  0
  189.4950  174.1310  142.1690 C   0  0  0  0  0  0  0  0  0  0  0  0
  183.8640  178.3490  141.3290 C   0  0  0  0  0  3  0  0  0  0  0  0
  186.3400  177.2220  142.0270 C   0  0  0  0  0  0  0  0  0  0  0  0
  185.3120  177.3290  142.9780 C   0  0  0  0  0  3  0  0  0  0  0  0
  184.0830  177.8950  142.6330 C   0  0  0  0  0  3  0  0  0  0  0  0
  184.8730  178.2290  140.3700 C   0  0  0  0  0  3  0  0  0  0  0  0
  186.1030  177.6620  140.7160 C   0  0  0  0  0  3  0  0  0  0  0  0
  1 12  1  0  0  0  0
  2 16  1  0  0  0  0
  2  6  1  0  0  0  0
  3 16  2  0  0  0  0
  4 13  1  0  0  0  0
  6 18  2  0  0  0  0
  7  9  1  0  0  0  0
  8 17  1  0  0  0  0
  9 13  2  0  0  0  0
 10  8  2  0  0  0  0
 11  7  2  0  0  0  0
 11 14  1  0  0  0  0
 12  2  2  0  0  0  0
 13  5  1  0  0  0  0
 14  4  2  0  0  0  0
 15  1  1  0  0  0  0
 15 21  2  0  0  0  0
 16 11  1  0  0  0  0
 17 21  1  0  0  0  0
 18 14  1  0  0  0  0
 19 20  2  0  0  0  0
 19  8  1  0  0  0  0
 20 15  1  0  0  0  0
 21  3  1  0  0  0  0
 22 25  1  0  0  0  0
 23 12  1  0  0  0  0
 23 24  1  0  0  0  0
 25 24  2  0  0  0  0
 26 27  1  0  0  0  0
 26 22  2  0  0  0  0
 27 23  2  0  0  0  0
M  END
>  <MODEL>
8

>  <REMARK>
 VINA RESULT:      -7.7      2.730      5.642
  Name = 
  1 active torsions:
  status: ('A' for Active; 'I' for Inactive)
    1  A    between atoms: C_9  and  C_15
                            x       y       z     vdW  Elec       q    Type
                         _______ _______ _______ _____ _____    ______ ____

>  <TORSDO>
F 1

$$$$
=
 OpenBabel11052418243D

 27 31  0  0  0  0  0  0  0  0999 V2000
  187.6940  177.6340  143.2500 O   0  0  0  0  0  0  0  0  0  0  0  0
  188.7030  175.6790  144.2860 C   0  0  0  0  0  0  0  0  0  0  0  0
  189.0000  175.4110  141.8500 C   0  0  0  0  0  3  0  0  0  0  0  0
  191.7730  172.7940  144.7430 C   0  0  0  0  0  3  0  0  0  0  0  0
  193.4890  171.4270  143.8130 F   0  0  0  0  0  0  0  0  0  0  0  0
  189.0480  175.1170  145.5320 C   0  0  0  0  0  3  0  0  0  0  0  0
  191.1810  173.7500  142.1900 C   0  0  0  0  0  3  0  0  0  0  0  0
  186.6600  176.7330  139.3270 C   0  0  0  0  0  0  0  0  0  0  0  0
  192.2030  172.8140  142.3660 C   0  0  0  0  0  3  0  0  0  0  0  0
  186.3540  176.4560  138.1380 O   0  0  0  0  0  0  0  0  0  0  0  0
  190.4370  174.2340  143.2890 C   0  0  0  0  0  0  0  0  0  0  0  0
  187.8310  176.7300  144.3060 C   0  0  0  0  0  0  0  0  0  0  0  0
  192.4990  172.3370  143.6420 C   0  0  0  0  0  0  0  0  0  0  0  0
  190.7530  173.7340  144.5730 C   0  0  0  0  0  0  0  0  0  0  0  0
  187.3530  177.3000  141.9510 C   0  0  0  0  0  0  0  0  0  0  0  0
  189.3750  175.1740  143.1210 C   0  0  0  0  0  0  0  0  0  0  0  0
  187.5750  175.9740  139.9860 N   0  0  0  0  0  2  0  0  0  0  0  0
  190.0400  174.1610  145.6790 C   0  0  0  0  0  3  0  0  0  0  0  0
  186.0690  177.8210  139.9640 C   0  0  0  0  0  3  0  0  0  0  0  0
  186.4280  178.1050  141.2810 C   0  0  0  0  0  3  0  0  0  0  0  0
  187.9290  176.2220  141.2780 C   0  0  0  0  0  0  0  0  0  0  0  0
  185.5810  177.8980  147.7760 C   0  0  0  0  0  3  0  0  0  0  0  0
  187.0480  177.0920  145.5200 C   0  0  0  0  0  0  0  0  0  0  0  0
  185.6760  176.8070  145.6170 C   0  0  0  0  0  3  0  0  0  0  0  0
  184.9470  177.2030  146.7420 C   0  0  0  0  0  3  0  0  0  0  0  0
  186.9410  178.2050  147.6790 C   0  0  0  0  0  3  0  0  0  0  0  0
  187.6690  177.8090  146.5530 C   0  0  0  0  0  3  0  0  0  0  0  0
  1 12  1  0  0  0  0
  2 12  2  0  0  0  0
  2  6  1  0  0  0  0
  3 16  2  0  0  0  0
  6 18  2  0  0  0  0
  7  9  2  0  0  0  0
  7 11  1  0  0  0  0
  8 19  1  0  0  0  0
  8 17  1  0  0  0  0
  9 13  1  0  0  0  0
 10  8  2  0  0  0  0
 11 14  2  0  0  0  0
 12 23  1  0  0  0  0
 13  5  1  0  0  0  0
 13  4  2  0  0  0  0
 14  4  1  0  0  0  0
 14 18  1  0  0  0  0
 15  1  1  0  0  0  0
 16 11  1  0  0  0  0
 16  2  1  0  0  0  0
 17 21  1  0  0  0  0
 19 20  2  0  0  0  0
 20 15  1  0  0  0  0
 21  3  1  0  0  0  0
 21 15  2  0  0  0  0
 23 24  2  0  0  0  0
 23 27  1  0  0  0  0
 24 25  1  0  0  0  0
 25 22  2  0  0  0  0
 26 22  1  0  0  0  0
 27 26  2  0  0  0  0
M  END
>  <MODEL>
9

>  <REMARK>
 VINA RESULT:      -7.5      3.238      6.125
  Name = 
  1 active torsions:
  status: ('A' for Active; 'I' for Inactive)
    1  A    between atoms: C_9  and  C_15
                            x       y       z     vdW  Elec       q    Type
                         _______ _______ _______ _____ _____    ______ ____

>  <TORSDO>
F 1

$$$$
