=
 OpenBabel11052418233D

 27 32  0  0  1  0  0  0  0  0999 V2000
  187.8650  174.4500  141.4670 C   0  0  1  0  0  3  0  0  0  0  0  0
  189.1700  176.2710  142.2490 N   0  0  0  0  0  0  0  0  0  0  0  0
  188.7310  173.9720  142.6670 C   0  0  2  0  0  3  0  0  0  0  0  0
  190.2790  177.2850  146.1710 C   0  0  0  0  0  2  0  0  0  0  0  0
  190.2990  175.2040  147.6450 C   0  0  0  0  0  2  0  0  0  0  0  0
  189.4320  177.5990  142.6370 N   0  0  0  0  0  0  0  0  0  0  0  0
  190.0900  174.4050  145.3170 N   0  0  0  0  0  2  0  0  0  0  0  0
  191.1420  171.1030  141.8680 C   0  0  0  0  0  3  0  0  0  0  0  0
  189.4280  174.4850  146.6120 C   0  0  0  0  0  2  0  0  0  0  0  0
  190.8630  171.0130  140.4900 C   0  0  0  0  0  3  0  0  0  0  0  0
  189.5620  175.5010  144.5110 C   0  0  1  0  0  3  0  0  0  0  0  0
  188.1460  175.9350  141.2750 C   0  0  2  0  0  3  0  0  0  0  0  0
  191.0940  176.3950  147.1000 C   0  0  0  0  0  2  0  0  0  0  0  0
  190.3880  176.7800  144.7360 C   0  0  1  0  0  3  0  0  0  0  0  0
  188.3210  173.7110  140.3340 O   0  0  0  0  0  0  0  0  0  0  0  0
  189.6350  175.1420  143.0330 C   0  0  2  0  0  3  0  0  0  0  0  0
  190.4790  172.0490  142.6660 C   0  0  0  0  0  3  0  0  0  0  0  0
  189.9800  177.8710  143.7850 C   0  0  0  0  0  3  0  0  0  0  0  0
  189.9170  171.8680  139.9010 C   0  0  0  0  0  3  0  0  0  0  0  0
  189.2750  172.7950  140.7190 C   0  0  0  0  0  0  0  0  0  0  0  0
  189.5440  172.8870  142.0560 C   0  0  0  0  0  0  0  0  0  0  0  0
  184.5600  178.2330  141.8750 C   0  0  0  0  0  3  0  0  0  0  0  0
  186.8940  176.7290  141.5010 C   0  0  0  0  0  0  0  0  0  0  0  0
  186.2200  176.6940  142.7330 C   0  0  0  0  0  3  0  0  0  0  0  0
  185.0560  177.4450  142.9180 C   0  0  0  0  0  3  0  0  0  0  0  0
  185.2270  178.2700  140.6480 C   0  0  0  0  0  3  0  0  0  0  0  0
  186.3910  177.5190  140.4610 C   0  0  0  0  0  3  0  0  0  0  0  0
  1 15  1  6  0  0  0
  1  3  1  0  0  0  0
  2  6  1  0  0  0  0
  3 21  1  6  0  0  0
  3 16  1  0  0  0  0
  4 13  1  0  0  0  0
  6 18  2  0  0  0  0
  7  9  1  0  0  0  0
  8 17  1  0  0  0  0
  9  5  1  0  0  0  0
 10  8  2  0  0  0  0
 11 14  1  0  0  0  0
 11  7  1  1  0  0  0
 12  1  1  0  0  0  0
 12 23  1  1  0  0  0
 12  2  1  0  0  0  0
 13  5  1  0  0  0  0
 14 18  1  6  0  0  0
 14  4  1  0  0  0  0
 15 20  1  0  0  0  0
 16  2  1  6  0  0  0
 16 11  1  0  0  0  0
 19 10  1  0  0  0  0
 19 20  2  0  0  0  0
 20 21  1  0  0  0  0
 21 17  2  0  0  0  0
 22 25  1  0  0  0  0
 23 24  1  0  0  0  0
 24 25  2  0  0  0  0
 26 22  2  0  0  0  0
 27 26  1  0  0  0  0
 27 23  2  0  0  0  0
M  END
>  <MODEL>
1

>  <REMARK>
 VINA RESULT:      -7.9      0.000      0.000
  Name = 
  1 active torsions:
  status: ('A' for Active; 'I' for Inactive)
    1  A    between atoms: C_9  and  C_15
                            x       y       z     vdW  Elec       q    Type
                         _______ _______ _______ _____ _____    ______ ____

>  <TORSDO>
F 1

$$$$
=
 OpenBabel11052418233D

 27 32  0  0  1  0  0  0  0  0999 V2000
  188.0060  175.5940  142.2460 C   0  0  1  0  0  3  0  0  0  0  0  0
  189.7430  177.1210  142.7770 N   0  0  0  0  0  0  0  0  0  0  0  0
  189.3280  174.8020  142.4530 C   0  0  2  0  0  3  0  0  0  0  0  0
  192.9850  176.6800  145.4110 C   0  0  0  0  0  2  0  0  0  0  0  0
  193.5670  174.2120  145.6840 C   0  0  0  0  0  2  0  0  0  0  0  0
  190.3440  178.2190  143.4200 N   0  0  0  0  0  0  0  0  0  0  0  0
  191.9850  174.3480  143.7920 N   0  0  0  0  0  2  0  0  0  0  0  0
  190.4830  172.7760  139.4130 C   0  0  0  0  0  3  0  0  0  0  0  0
  192.1820  173.8430  145.1450 C   0  0  0  0  0  2  0  0  0  0  0  0
  189.4680  173.1880  138.5260 C   0  0  0  0  0  3  0  0  0  0  0  0
  191.2390  175.5950  143.9190 C   0  0  1  0  0  3  0  0  0  0  0  0
  188.3160  177.0620  142.5130 C   0  0  2  0  0  3  0  0  0  0  0  0
  194.0610  175.6080  145.2920 C   0  0  0  0  0  2  0  0  0  0  0  0
  192.2030  176.7810  144.1060 C   0  0  1  0  0  3  0  0  0  0  0  0
  187.6470  175.4080  140.8760 O   0  0  0  0  0  0  0  0  0  0  0  0
  190.4210  175.8430  142.6570 C   0  0  2  0  0  3  0  0  0  0  0  0
  190.5110  173.2550  140.7330 C   0  0  0  0  0  3  0  0  0  0  0  0
  191.4720  178.0950  144.0560 C   0  0  0  0  0  3  0  0  0  0  0  0
  188.4730  174.0810  138.9550 C   0  0  0  0  0  3  0  0  0  0  0  0
  188.5270  174.5380  140.2700 C   0  0  0  0  0  0  0  0  0  0  0  0
  189.5110  174.1420  141.1320 C   0  0  0  0  0  0  0  0  0  0  0  0
  186.0190  178.5000  145.8540 C   0  0  0  0  0  3  0  0  0  0  0  0
  187.5210  177.5500  143.6870 C   0  0  0  0  0  0  0  0  0  0  0  0
  187.6020  176.9140  144.9390 C   0  0  0  0  0  3  0  0  0  0  0  0
  186.8520  177.3890  146.0170 C   0  0  0  0  0  3  0  0  0  0  0  0
  185.9350  179.1340  144.6110 C   0  0  0  0  0  3  0  0  0  0  0  0
  186.6840  178.6600  143.5300 C   0  0  0  0  0  3  0  0  0  0  0  0
  1 15  1  6  0  0  0
  1  3  1  0  0  0  0
  1 12  1  0  0  0  0
  2  6  1  0  0  0  0
  3 21  1  6  0  0  0
  3 16  1  0  0  0  0
  6 18  2  0  0  0  0
  7  9  1  0  0  0  0
  8 17  1  0  0  0  0
  9  5  1  0  0  0  0
 10 19  1  0  0  0  0
 10  8  2  0  0  0  0
 11  7  1  6  0  0  0
 11 14  1  0  0  0  0
 12  2  1  0  0  0  0
 12 23  1  1  0  0  0
 13  4  1  0  0  0  0
 13  5  1  0  0  0  0
 14 18  1  1  0  0  0
 14  4  1  0  0  0  0
 16  2  1  1  0  0  0
 16 11  1  0  0  0  0
 17 21  2  0  0  0  0
 19 20  2  0  0  0  0
 20 15  1  0  0  0  0
 20 21  1  0  0  0  0
 22 25  1  0  0  0  0
 23 24  1  0  0  0  0
 24 25  2  0  0  0  0
 26 22  2  0  0  0  0
 27 23  2  0  0  0  0
 27 26  1  0  0  0  0
M  END
>  <MODEL>
2

>  <REMARK>
 VINA RESULT:      -7.9      2.172      2.625
  Name = 
  1 active torsions:
  status: ('A' for Active; 'I' for Inactive)
    1  A    between atoms: C_9  and  C_15
                            x       y       z     vdW  Elec       q    Type
                         _______ _______ _______ _____ _____    ______ ____

>  <TORSDO>
F 1

$$$$
=
 OpenBabel11052418233D

 27 32  0  0  1  0  0  0  0  0999 V2000
  190.2560  174.8370  144.1580 C   0  0  1  0  0  3  0  0  0  0  0  0
  189.1950  176.6290  143.0220 N   0  0  0  0  0  0  0  0  0  0  0  0
  189.4160  175.6540  145.1800 C   0  0  2  0  0  3  0  0  0  0  0  0
  185.3900  178.3040  143.6230 C   0  0  0  0  0  2  0  0  0  0  0  0
  184.6300  177.9200  146.0270 C   0  0  0  0  0  2  0  0  0  0  0  0
  188.4770  177.2560  141.9870 N   0  0  0  0  0  0  0  0  0  0  0  0
  187.0210  177.3080  145.9480 N   0  0  0  0  0  2  0  0  0  0  0  0
  191.4240  177.1680  148.0710 C   0  0  0  0  0  3  0  0  0  0  0  0
  185.6710  176.8050  146.1600 C   0  0  0  0  0  2  0  0  0  0  0  0
  192.7000  176.7540  147.6390 C   0  0  0  0  0  3  0  0  0  0  0  0
  187.3640  177.0090  144.5620 C   0  0  1  0  0  3  0  0  0  0  0  0
  190.0410  175.4710  142.7900 C   0  0  2  0  0  3  0  0  0  0  0  0
  184.9180  178.9430  144.9230 C   0  0  0  0  0  2  0  0  0  0  0  0
  186.9080  178.1520  143.6380 C   0  0  1  0  0  3  0  0  0  0  0  0
  191.6180  174.9850  144.5620 O   0  0  0  0  0  0  0  0  0  0  0  0
  188.8730  176.8570  144.4190 C   0  0  2  0  0  3  0  0  0  0  0  0
  190.2810  176.8430  147.3220 C   0  0  0  0  0  3  0  0  0  0  0  0
  187.4080  177.9550  142.2320 C   0  0  0  0  0  3  0  0  0  0  0  0
  192.8410  176.0110  146.4550 C   0  0  0  0  0  3  0  0  0  0  0  0
  191.6880  175.7030  145.7360 C   0  0  0  0  0  0  0  0  0  0  0  0
  190.4490  176.1040  146.1500 C   0  0  0  0  0  0  0  0  0  0  0  0
  188.1910  172.6650  140.1050 C   0  0  0  0  0  3  0  0  0  0  0  0
  189.3830  174.4900  141.8660 C   0  0  0  0  0  0  0  0  0  0  0  0
  188.1740  173.8610  142.2090 C   0  0  0  0  0  3  0  0  0  0  0  0
  187.5820  172.9510  141.3300 C   0  0  0  0  0  3  0  0  0  0  0  0
  189.3950  173.2880  139.7600 C   0  0  0  0  0  3  0  0  0  0  0  0
  189.9890  174.1980  140.6390 C   0  0  0  0  0  3  0  0  0  0  0  0
  1 15  1  1  0  0  0
  1  3  1  0  0  0  0
  3 21  1  1  0  0  0
  4 14  1  0  0  0  0
  4 13  1  0  0  0  0
  5  9  1  0  0  0  0
  6 18  2  0  0  0  0
  6  2  1  0  0  0  0
  7  9  1  0  0  0  0
 10  8  1  0  0  0  0
 11  7  1  1  0  0  0
 12 23  1  6  0  0  0
 12  2  1  0  0  0  0
 12  1  1  0  0  0  0
 13  5  1  0  0  0  0
 14 18  1  6  0  0  0
 14 11  1  0  0  0  0
 15 20  1  0  0  0  0
 16  2  1  6  0  0  0
 16 11  1  0  0  0  0
 16  3  1  0  0  0  0
 17  8  2  0  0  0  0
 19 10  2  0  0  0  0
 20 21  2  0  0  0  0
 20 19  1  0  0  0  0
 21 17  1  0  0  0  0
 22 25  1  0  0  0  0
 23 24  1  0  0  0  0
 25 24  2  0  0  0  0
 26 22  2  0  0  0  0
 26 27  1  0  0  0  0
 27 23  2  0  0  0  0
M  END
>  <MODEL>
3

>  <REMARK>
 VINA RESULT:      -7.8      2.105      5.338
  Name = 
  1 active torsions:
  status: ('A' for Active; 'I' for Inactive)
    1  A    between atoms: C_9  and  C_15
                            x       y       z     vdW  Elec       q    Type
                         _______ _______ _______ _____ _____    ______ ____

>  <TORSDO>
F 1

$$$$
=
 OpenBabel11052418233D

 27 32  0  0  1  0  0  0  0  0999 V2000
  188.1100  175.4180  142.5420 C   0  0  1  0  0  3  0  0  0  0  0  0
  189.7910  177.0070  143.0720 N   0  0  0  0  0  0  0  0  0  0  0  0
  189.4810  174.6900  142.6330 C   0  0  2  0  0  3  0  0  0  0  0  0
  193.1910  176.6010  145.5030 C   0  0  0  0  0  2  0  0  0  0  0  0
  193.9170  174.1580  145.6000 C   0  0  0  0  0  2  0  0  0  0  0  0
  190.3670  178.0990  143.7470 N   0  0  0  0  0  0  0  0  0  0  0  0
  192.2280  174.3110  143.8040 N   0  0  0  0  0  2  0  0  0  0  0  0
  190.5730  172.9060  139.4230 C   0  0  0  0  0  3  0  0  0  0  0  0
  192.5260  173.7430  145.1110 C   0  0  0  0  0  2  0  0  0  0  0  0
  189.4900  173.3100  138.6160 C   0  0  0  0  0  3  0  0  0  0  0  0
  191.4250  175.5060  144.0420 C   0  0  1  0  0  3  0  0  0  0  0  0
  188.3560  176.8830  142.8790 C   0  0  2  0  0  3  0  0  0  0  0  0
  194.3140  175.5990  145.2650 C   0  0  0  0  0  2  0  0  0  0  0  0
  192.3340  176.7310  144.2480 C   0  0  1  0  0  3  0  0  0  0  0  0
  187.6860  175.2880  141.1840 O   0  0  0  0  0  0  0  0  0  0  0  0
  190.5270  175.7780  142.8420 C   0  0  2  0  0  3  0  0  0  0  0  0
  190.6480  173.3110  140.7650 C   0  0  0  0  0  3  0  0  0  0  0  0
  191.5330  178.0030  144.3150 C   0  0  0  0  0  3  0  0  0  0  0  0
  188.4740  174.1210  139.1480 C   0  0  0  0  0  3  0  0  0  0  0  0
  188.5760  174.5050  140.4830 C   0  0  0  0  0  0  0  0  0  0  0  0
  189.6260  174.1170  141.2680 C   0  0  0  0  0  0  0  0  0  0  0  0
  186.2140  177.9180  146.4630 C   0  0  0  0  0  3  0  0  0  0  0  0
  187.6030  177.2590  144.1200 C   0  0  0  0  0  0  0  0  0  0  0  0
  186.7460  178.3720  144.1450 C   0  0  0  0  0  3  0  0  0  0  0  0
  186.0540  178.7000  145.3140 C   0  0  0  0  0  3  0  0  0  0  0  0
  187.0660  176.8110  146.4420 C   0  0  0  0  0  3  0  0  0  0  0  0
  187.7590  176.4820  145.2730 C   0  0  0  0  0  3  0  0  0  0  0  0
  1 15  1  6  0  0  0
  1  3  1  0  0  0  0
  1 12  1  0  0  0  0
  2  6  1  0  0  0  0
  3 21  1  6  0  0  0
  3 16  1  0  0  0  0
  6 18  2  0  0  0  0
  7  9  1  0  0  0  0
  8 17  1  0  0  0  0
  9  5  1  0  0  0  0
 10 19  1  0  0  0  0
 10  8  2  0  0  0  0
 11  7  1  6  0  0  0
 11 14  1  0  0  0  0
 12  2  1  0  0  0  0
 12 23  1  1  0  0  0
 13  4  1  0  0  0  0
 13  5  1  0  0  0  0
 14 18  1  1  0  0  0
 14  4  1  0  0  0  0
 16  2  1  1  0  0  0
 16 11  1  0  0  0  0
 17 21  2  0  0  0  0
 19 20  2  0  0  0  0
 20 15  1  0  0  0  0
 20 21  1  0  0  0  0
 23 24  2  0  0  0  0
 23 27  1  0  0  0  0
 24 25  1  0  0  0  0
 25 22  2  0  0  0  0
 26 22  1  0  0  0  0
 27 26  2  0  0  0  0
M  END
>  <MODEL>
4

>  <REMARK>
 VINA RESULT:      -7.8      2.298      2.958
  Name = 
  1 active torsions:
  status: ('A' for Active; 'I' for Inactive)
    1  A    between atoms: C_9  and  C_15
                            x       y       z     vdW  Elec       q    Type
                         _______ _______ _______ _____ _____    ______ ____

>  <TORSDO>
F 1

$$$$
=
 OpenBabel11052418233D

 27 32  0  0  1  0  0  0  0  0999 V2000
  190.1010  176.2350  144.8210 C   0  0  1  0  0  3  0  0  0  0  0  0
  188.1390  175.9710  146.1290 N   0  0  0  0  0  0  0  0  0  0  0  0
  188.8800  176.7490  144.0080 C   0  0  2  0  0  3  0  0  0  0  0  0
  184.7510  178.4370  146.4050 C   0  0  0  0  0  2  0  0  0  0  0  0
  184.4710  179.7910  144.2620 C   0  0  0  0  0  2  0  0  0  0  0  0
  187.3430  176.0280  147.2890 N   0  0  0  0  0  0  0  0  0  0  0  0
  186.1910  178.0830  143.7870 N   0  0  0  0  0  2  0  0  0  0  0  0
  188.2850  174.9390  140.6830 C   0  0  0  0  0  3  0  0  0  0  0  0
  185.9360  179.5120  143.9150 C   0  0  0  0  0  2  0  0  0  0  0  0
  189.3170  173.9870  140.8100 C   0  0  0  0  0  3  0  0  0  0  0  0
  186.7540  177.6450  145.0590 C   0  0  1  0  0  3  0  0  0  0  0  0
  189.5800  175.7970  146.1840 C   0  0  2  0  0  3  0  0  0  0  0  0
  183.8380  178.7930  145.2390 C   0  0  0  0  0  2  0  0  0  0  0  0
  185.6310  177.2480  146.0350 C   0  0  1  0  0  3  0  0  0  0  0  0
  190.6080  175.1100  144.1020 O   0  0  0  0  0  0  0  0  0  0  0  0
  187.6470  176.4300  144.8430 C   0  0  2  0  0  3  0  0  0  0  0  0
  188.0730  175.8950  141.6900 C   0  0  0  0  0  3  0  0  0  0  0  0
  186.1870  176.6230  147.2860 C   0  0  0  0  0  3  0  0  0  0  0  0
  190.1430  173.9850  141.9460 C   0  0  0  0  0  3  0  0  0  0  0  0
  189.9090  174.9470  142.9270 C   0  0  0  0  0  0  0  0  0  0  0  0
  188.9080  175.8700  142.8080 C   0  0  0  0  0  0  0  0  0  0  0  0
  191.3680  178.1750  149.2920 C   0  0  0  0  0  3  0  0  0  0  0  0
  190.1920  176.6390  147.2640 C   0  0  0  0  0  0  0  0  0  0  0  0
  189.6670  177.9010  147.5910 C   0  0  0  0  0  3  0  0  0  0  0  0
  190.2550  178.6660  148.6020 C   0  0  0  0  0  3  0  0  0  0  0  0
  191.8930  176.9200  148.9690 C   0  0  0  0  0  3  0  0  0  0  0  0
  191.3060  176.1550  147.9570 C   0  0  0  0  0  3  0  0  0  0  0  0
  1 15  1  6  0  0  0
  1 12  1  0  0  0  0
  2 12  1  0  0  0  0
  2  6  1  0  0  0  0
  3 21  1  6  0  0  0
  3  1  1  0  0  0  0
  3 16  1  0  0  0  0
  5 13  1  0  0  0  0
  7  9  1  0  0  0  0
  8 10  2  0  0  0  0
  8 17  1  0  0  0  0
  9  5  1  0  0  0  0
 10 19  1  0  0  0  0
 11  7  1  6  0  0  0
 11 14  1  0  0  0  0
 12 23  1  1  0  0  0
 13  4  1  0  0  0  0
 14  4  1  1  0  0  0
 14 18  1  0  0  0  0
 16 11  1  0  0  0  0
 16  2  1  1  0  0  0
 17 21  2  0  0  0  0
 18  6  2  0  0  0  0
 19 20  2  0  0  0  0
 20 15  1  0  0  0  0
 21 20  1  0  0  0  0
 23 24  2  0  0  0  0
 23 27  1  0  0  0  0
 24 25  1  0  0  0  0
 25 22  2  0  0  0  0
 26 22  1  0  0  0  0
 27 26  2  0  0  0  0
M  END
>  <MODEL>
5

>  <REMARK>
 VINA RESULT:      -7.6      2.447      5.957
  Name = 
  1 active torsions:
  status: ('A' for Active; 'I' for Inactive)
    1  A    between atoms: C_9  and  C_15
                            x       y       z     vdW  Elec       q    Type
                         _______ _______ _______ _____ _____    ______ ____

>  <TORSDO>
F 1

$$$$
=
 OpenBabel11052418233D

 27 32  0  0  1  0  0  0  0  0999 V2000
  188.0740  175.6450  141.8720 C   0  0  1  0  0  3  0  0  0  0  0  0
  188.9910  173.9540  143.2600 N   0  0  0  0  0  0  0  0  0  0  0  0
  188.7970  176.3160  143.0730 C   0  0  2  0  0  3  0  0  0  0  0  0
  192.5930  173.9210  145.4190 C   0  0  0  0  0  2  0  0  0  0  0  0
  193.3100  176.3050  145.9700 C   0  0  0  0  0  2  0  0  0  0  0  0
  189.6770  172.7620  143.5600 N   0  0  0  0  0  0  0  0  0  0  0  0
  190.9940  176.4530  145.1270 N   0  0  0  0  0  2  0  0  0  0  0  0
  186.5600  178.5090  145.2800 C   0  0  0  0  0  3  0  0  0  0  0  0
  192.3790  176.8210  144.8700 C   0  0  0  0  0  2  0  0  0  0  0  0
  185.3450  178.2530  144.6130 C   0  0  0  0  0  3  0  0  0  0  0  0
  190.7260  175.2580  144.3340 C   0  0  1  0  0  3  0  0  0  0  0  0
  188.2700  174.1410  142.0130 C   0  0  2  0  0  3  0  0  0  0  0  0
  192.9600  174.9160  146.5130 C   0  0  0  0  0  2  0  0  0  0  0  0
  191.0980  173.9930  145.1270 C   0  0  1  0  0  3  0  0  0  0  0  0
  186.6910  175.9770  142.0110 O   0  0  0  0  0  0  0  0  0  0  0  0
  189.2450  175.1830  143.9880 C   0  0  2  0  0  3  0  0  0  0  0  0
  187.7530  177.9160  144.8350 C   0  0  0  0  0  3  0  0  0  0  0  0
  190.6650  172.7450  144.4060 C   0  0  0  0  0  3  0  0  0  0  0  0
  185.3150  177.4010  143.4970 C   0  0  0  0  0  3  0  0  0  0  0  0
  186.5150  176.8290  143.0790 C   0  0  0  0  0  0  0  0  0  0  0  0
  187.6940  177.0740  143.7230 C   0  0  0  0  0  0  0  0  0  0  0  0
  190.4630  172.5990  138.6490 C   0  0  0  0  0  3  0  0  0  0  0  0
  189.0490  173.6130  140.8450 C   0  0  0  0  0  0  0  0  0  0  0  0
  190.4100  173.9210  140.6750 C   0  0  0  0  0  3  0  0  0  0  0  0
  191.1130  173.4160  139.5800 C   0  0  0  0  0  3  0  0  0  0  0  0
  189.1100  172.2910  138.8130 C   0  0  0  0  0  3  0  0  0  0  0  0
  188.4050  172.7970  139.9090 C   0  0  0  0  0  3  0  0  0  0  0  0
  1 15  1  1  0  0  0
  1 12  1  0  0  0  0
  1  3  1  0  0  0  0
  2  6  1  0  0  0  0
  3 21  1  1  0  0  0
  3 16  1  0  0  0  0
  4 13  1  0  0  0  0
  5 13  1  0  0  0  0
  6 18  2  0  0  0  0
  9  7  1  0  0  0  0
  9  5  1  0  0  0  0
 10  8  2  0  0  0  0
 11 14  1  0  0  0  0
 11  7  1  1  0  0  0
 12 23  1  6  0  0  0
 12  2  1  0  0  0  0
 14 18  1  6  0  0  0
 14  4  1  0  0  0  0
 15 20  1  0  0  0  0
 16  2  1  6  0  0  0
 16 11  1  0  0  0  0
 17  8  1  0  0  0  0
 19 10  1  0  0  0  0
 20 19  2  0  0  0  0
 20 21  1  0  0  0  0
 21 17  2  0  0  0  0
 22 26  2  0  0  0  0
 22 25  1  0  0  0  0
 24 23  1  0  0  0  0
 25 24  2  0  0  0  0
 26 27  1  0  0  0  0
 27 23  2  0  0  0  0
M  END
>  <MODEL>
6

>  <REMARK>
 VINA RESULT:      -7.4      2.068      5.330
  Name = 
  1 active torsions:
  status: ('A' for Active; 'I' for Inactive)
    1  A    between atoms: C_9  and  C_15
                            x       y       z     vdW  Elec       q    Type
                         _______ _______ _______ _____ _____    ______ ____

>  <TORSDO>
F 1

$$$$
=
 OpenBabel11052418233D

 27 32  0  0  1  0  0  0  0  0999 V2000
  187.5950  177.1660  145.7460 C   0  0  1  0  0  3  0  0  0  0  0  0
  189.4190  177.1570  144.2280 N   0  0  0  0  0  0  0  0  0  0  0  0
  187.1520  176.4690  144.4290 C   0  0  2  0  0  3  0  0  0  0  0  0
  190.5820  174.2240  141.4560 C   0  0  0  0  0  2  0  0  0  0  0  0
  188.5700  172.8180  140.7670 C   0  0  0  0  0  2  0  0  0  0  0  0
  190.7570  176.9970  143.8180 N   0  0  0  0  0  0  0  0  0  0  0  0
  187.6720  174.7530  142.0120 N   0  0  0  0  0  2  0  0  0  0  0  0
  184.1950  178.1310  142.6460 C   0  0  0  0  0  3  0  0  0  0  0  0
  187.8250  173.3040  142.0130 C   0  0  0  0  0  2  0  0  0  0  0  0
  184.0500  179.2260  143.5220 C   0  0  0  0  0  3  0  0  0  0  0  0
  188.7420  175.2840  142.8500 C   0  0  1  0  0  3  0  0  0  0  0  0
  189.0630  177.5410  145.5830 C   0  0  2  0  0  3  0  0  0  0  0  0
  189.7170  173.7230  140.3070 C   0  0  0  0  0  2  0  0  0  0  0  0
  190.0110  175.5240  142.0120 C   0  0  1  0  0  3  0  0  0  0  0  0
  186.7950  178.3450  145.8560 O   0  0  0  0  0  0  0  0  0  0  0  0
  188.3160  176.6140  143.4570 C   0  0  2  0  0  3  0  0  0  0  0  0
  185.1910  177.1680  142.8730 C   0  0  0  0  0  3  0  0  0  0  0  0
  191.0680  176.2390  142.8090 C   0  0  0  0  0  3  0  0  0  0  0  0
  184.8990  179.3630  144.6320 C   0  0  0  0  0  3  0  0  0  0  0  0
  185.8760  178.3890  144.8310 C   0  0  0  0  0  0  0  0  0  0  0  0
  186.0220  177.3280  143.9830 C   0  0  0  0  0  0  0  0  0  0  0  0
  191.4260  175.4020  148.4730 C   0  0  0  0  0  3  0  0  0  0  0  0
  189.8950  176.8100  146.5950 C   0  0  0  0  0  0  0  0  0  0  0  0
  190.7900  177.4950  147.4360 C   0  0  0  0  0  3  0  0  0  0  0  0
  191.5530  176.7910  148.3710 C   0  0  0  0  0  3  0  0  0  0  0  0
  190.5380  174.7170  147.6380 C   0  0  0  0  0  3  0  0  0  0  0  0
  189.7750  175.4210  146.7010 C   0  0  0  0  0  3  0  0  0  0  0  0
  1 15  1  6  0  0  0
  2 12  1  0  0  0  0
  3 21  1  6  0  0  0
  3  1  1  0  0  0  0
  5  9  1  0  0  0  0
  6  2  1  0  0  0  0
  7  9  1  0  0  0  0
  8 17  2  0  0  0  0
  8 10  1  0  0  0  0
 10 19  2  0  0  0  0
 11  7  1  6  0  0  0
 11 16  1  0  0  0  0
 12  1  1  0  0  0  0
 12 23  1  1  0  0  0
 13  5  1  0  0  0  0
 13  4  1  0  0  0  0
 14  4  1  1  0  0  0
 14 18  1  0  0  0  0
 14 11  1  0  0  0  0
 16  2  1  1  0  0  0
 16  3  1  0  0  0  0
 17 21  1  0  0  0  0
 18  6  2  0  0  0  0
 19 20  1  0  0  0  0
 20 15  1  0  0  0  0
 21 20  2  0  0  0  0
 23 27  2  0  0  0  0
 23 24  1  0  0  0  0
 24 25  2  0  0  0  0
 25 22  1  0  0  0  0
 26 22  2  0  0  0  0
 27 26  1  0  0  0  0
M  END
>  <MODEL>
7

>  <REMARK>
 VINA RESULT:      -7.4      2.305      6.660
  Name = 
  1 active torsions:
  status: ('A' for Active; 'I' for Inactive)
    1  A    between atoms: C_9  and  C_15
                            x       y       z     vdW  Elec       q    Type
                         _______ _______ _______ _____ _____    ______ ____

>  <TORSDO>
F 1

$$$$
=
 OpenBabel11052418233D

 27 32  0  0  1  0  0  0  0  0999 V2000
  191.6980  174.5660  142.6830 C   0  0  1  0  0  3  0  0  0  0  0  0
  190.5350  174.3590  144.7410 N   0  0  0  0  0  0  0  0  0  0  0  0
  190.2470  175.0940  142.4980 C   0  0  2  0  0  3  0  0  0  0  0  0
  187.6690  176.8980  146.4660 C   0  0  0  0  0  2  0  0  0  0  0  0
  186.4680  178.2300  144.6530 C   0  0  0  0  0  2  0  0  0  0  0  0
  190.3500  174.4480  146.1340 N   0  0  0  0  0  0  0  0  0  0  0  0
  187.7660  176.4810  143.4870 N   0  0  0  0  0  2  0  0  0  0  0  0
  188.1920  173.2540  139.8390 C   0  0  0  0  0  3  0  0  0  0  0  0
  187.6140  177.9160  143.6870 C   0  0  0  0  0  2  0  0  0  0  0  0
  189.1570  172.2820  139.5060 C   0  0  0  0  0  3  0  0  0  0  0  0
  188.8380  176.0480  144.3770 C   0  0  1  0  0  3  0  0  0  0  0  0
  191.8430  174.1560  144.1430 C   0  0  2  0  0  3  0  0  0  0  0  0
  186.3320  177.2580  145.8300 C   0  0  0  0  0  2  0  0  0  0  0  0
  188.2720  175.6870  145.7630 C   0  0  1  0  0  3  0  0  0  0  0  0
  191.8110  173.4210  141.8360 O   0  0  0  0  0  0  0  0  0  0  0  0
  189.5210  174.8120  143.8070 C   0  0  2  0  0  3  0  0  0  0  0  0
  188.4690  174.2270  140.8130 C   0  0  0  0  0  3  0  0  0  0  0  0
  189.3250  175.0670  146.6410 C   0  0  0  0  0  3  0  0  0  0  0  0
  190.4080  172.2780  140.1460 C   0  0  0  0  0  3  0  0  0  0  0  0
  190.6540  173.2570  141.1070 C   0  0  0  0  0  0  0  0  0  0  0  0
  189.7190  174.1990  141.4330 C   0  0  0  0  0  0  0  0  0  0  0  0
  194.8610  176.5330  146.0810 C   0  0  0  0  0  3  0  0  0  0  0  0
  192.8880  175.0000  144.8120 C   0  0  0  0  0  0  0  0  0  0  0  0
  192.8390  176.4030  144.7570 C   0  0  0  0  0  3  0  0  0  0  0  0
  193.8230  177.1660  145.3890 C   0  0  0  0  0  3  0  0  0  0  0  0
  194.9140  175.1370  146.1380 C   0  0  0  0  0  3  0  0  0  0  0  0
  193.9290  174.3730  145.5040 C   0  0  0  0  0  3  0  0  0  0  0  0
  1 15  1  6  0  0  0
  1 12  1  0  0  0  0
  2  6  1  0  0  0  0
  3 21  1  6  0  0  0
  3  1  1  0  0  0  0
  3 16  1  0  0  0  0
  5 13  1  0  0  0  0
  6 18  2  0  0  0  0
  7  9  1  0  0  0  0
  8 17  1  0  0  0  0
  9  5  1  0  0  0  0
 10  8  2  0  0  0  0
 10 19  1  0  0  0  0
 11  7  1  6  0  0  0
 11 14  1  0  0  0  0
 12  2  1  0  0  0  0
 12 23  1  1  0  0  0
 13  4  1  0  0  0  0
 14  4  1  1  0  0  0
 14 18  1  0  0  0  0
 16 11  1  0  0  0  0
 16  2  1  1  0  0  0
 17 21  2  0  0  0  0
 19 20  2  0  0  0  0
 20 21  1  0  0  0  0
 20 15  1  0  0  0  0
 22 26  1  0  0  0  0
 23 27  1  0  0  0  0
 24 23  2  0  0  0  0
 24 25  1  0  0  0  0
 25 22  2  0  0  0  0
 27 26  2  0  0  0  0
M  END
>  <MODEL>
8

>  <REMARK>
 VINA RESULT:      -7.4      2.327      5.423
  Name = 
  1 active torsions:
  status: ('A' for Active; 'I' for Inactive)
    1  A    between atoms: C_9  and  C_15
                            x       y       z     vdW  Elec       q    Type
                         _______ _______ _______ _____ _____    ______ ____

>  <TORSDO>
F 1

$$$$
=
 OpenBabel11052418233D

 27 32  0  0  1  0  0  0  0  0999 V2000
  186.4430  176.7150  142.3060 C   0  0  1  0  0  3  0  0  0  0  0  0
  188.5150  177.2670  143.3210 N   0  0  0  0  0  0  0  0  0  0  0  0
  187.4420  175.5450  142.0820 C   0  0  2  0  0  3  0  0  0  0  0  0
  191.2580  174.7980  145.3260 C   0  0  0  0  0  2  0  0  0  0  0  0
  191.0400  172.3930  144.5060 C   0  0  0  0  0  2  0  0  0  0  0  0
  189.3710  177.7550  144.3280 N   0  0  0  0  0  0  0  0  0  0  0  0
  189.7240  173.7830  142.9440 N   0  0  0  0  0  2  0  0  0  0  0  0
  188.1560  174.7200  138.4090 C   0  0  0  0  0  3  0  0  0  0  0  0
  189.6550  172.7280  143.9460 C   0  0  0  0  0  2  0  0  0  0  0  0
  187.3850  175.7540  137.8400 C   0  0  0  0  0  3  0  0  0  0  0  0
  189.3850  175.0270  143.6260 C   0  0  1  0  0  3  0  0  0  0  0  0
  187.1630  177.7650  143.1440 C   0  0  2  0  0  3  0  0  0  0  0  0
  191.9640  173.5990  144.7050 C   0  0  0  0  0  2  0  0  0  0  0  0
  190.6460  175.6670  144.2330 C   0  0  1  0  0  3  0  0  0  0  0  0
  186.1500  177.2360  141.0090 O   0  0  0  0  0  0  0  0  0  0  0  0
  188.7800  176.0150  142.6370 C   0  0  2  0  0  3  0  0  0  0  0  0
  188.2270  174.5730  139.8040 C   0  0  0  0  0  3  0  0  0  0  0  0
  190.3550  177.0380  144.7830 C   0  0  0  0  0  3  0  0  0  0  0  0
  186.6790  176.6460  138.6630 C   0  0  0  0  0  3  0  0  0  0  0  0
  186.7680  176.4730  140.0430 C   0  0  0  0  0  0  0  0  0  0  0  0
  187.5160  175.4730  140.5980 C   0  0  0  0  0  0  0  0  0  0  0  0
  185.1660  178.2100  146.9290 C   0  0  0  0  0  3  0  0  0  0  0  0
  186.4660  177.9380  144.4610 C   0  0  0  0  0  0  0  0  0  0  0  0
  186.0190  179.1990  144.8910 C   0  0  0  0  0  3  0  0  0  0  0  0
  185.3720  179.3330  146.1220 C   0  0  0  0  0  3  0  0  0  0  0  0
  185.6100  176.9530  146.5050 C   0  0  0  0  0  3  0  0  0  0  0  0
  186.2590  176.8190  145.2740 C   0  0  0  0  0  3  0  0  0  0  0  0
  1 15  1  6  0  0  0
  1 12  1  0  0  0  0
  2  6  1  0  0  0  0
  3 21  1  6  0  0  0
  3  1  1  0  0  0  0
  3 16  1  0  0  0  0
  5 13  1  0  0  0  0
  6 18  2  0  0  0  0
  7  9  1  0  0  0  0
  8 17  1  0  0  0  0
  9  5  1  0  0  0  0
 10  8  2  0  0  0  0
 10 19  1  0  0  0  0
 11  7  1  6  0  0  0
 11 14  1  0  0  0  0
 12  2  1  0  0  0  0
 12 23  1  1  0  0  0
 13  4  1  0  0  0  0
 14 18  1  1  0  0  0
 14  4  1  0  0  0  0
 16  2  1  1  0  0  0
 16 11  1  0  0  0  0
 17 21  2  0  0  0  0
 19 20  2  0  0  0  0
 20 21  1  0  0  0  0
 20 15  1  0  0  0  0
 23 24  2  0  0  0  0
 23 27  1  0  0  0  0
 24 25  1  0  0  0  0
 25 22  2  0  0  0  0
 26 22  1  0  0  0  0
 27 26  2  0  0  0  0
M  END
>  <MODEL>
9

>  <REMARK>
 VINA RESULT:      -7.3      2.338      3.803
  Name = 
  1 active torsions:
  status: ('A' for Active; 'I' for Inactive)
    1  A    between atoms: C_9  and  C_15
                            x       y       z     vdW  Elec       q    Type
                         _______ _______ _______ _____ _____    ______ ____

>  <TORSDO>
F 1

$$$$
