=
 OpenBabel11052419143D

 32 36  0  0  1  0  0  0  0  0999 V2000
  189.3320  175.7890  145.9150 C   0  0  0  0  0  0  0  0  0  0  0  0
  187.7330  177.0830  144.4690 C   0  0  0  0  0  0  0  0  0  0  0  0
  190.1750  175.8940  147.1690 C   0  0  0  0  0  2  0  0  0  0  0  0
  188.2790  176.8060  145.7760 N   0  0  0  0  0  0  0  0  0  0  0  0
  186.8600  178.1670  144.2950 C   0  0  0  0  0  3  0  0  0  0  0  0
  187.3570  176.1530  139.6970 C   0  0  0  0  0  3  0  0  0  0  0  0
  188.0990  176.2980  143.3480 C   0  0  0  0  0  0  0  0  0  0  0  0
  186.1490  178.0080  140.6770 C   0  0  0  0  0  3  0  0  0  0  0  0
  186.6830  177.6980  141.9320 C   0  0  0  0  0  0  0  0  0  0  0  0
  186.3370  178.4710  143.0390 C   0  0  0  0  0  3  0  0  0  0  0  0
  189.0000  175.1020  143.5270 C   0  0  0  0  0  2  0  0  0  0  0  0
  190.0350  175.3410  144.6250 C   0  0  2  0  0  3  0  0  0  0  0  0
  187.5650  176.6010  142.0780 C   0  0  0  0  0  0  0  0  0  0  0  0
  189.1180  174.7960  147.0390 C   0  0  0  0  0  2  0  0  0  0  0  0
  186.4870  177.2380  139.5620 C   0  0  0  0  0  3  0  0  0  0  0  0
  187.8930  175.8360  140.9470 C   0  0  0  0  0  3  0  0  0  0  0  0
  193.5410  173.6720  144.8600 C   0  0  1  0  0  3  0  0  0  0  0  0
  193.1220  170.2530  144.2900 C   0  0  0  0  0  1  0  0  0  0  0  0
  194.1190  174.3270  145.9340 F   0  0  0  0  0  0  0  0  0  0  0  0
  191.2300  171.7910  143.9210 C   0  0  0  0  0  3  0  0  0  0  0  0
  191.0340  174.1770  144.7730 C   0  0  1  0  0  3  0  0  0  0  0  0
  193.0760  172.4150  145.2930 O   0  0  0  0  0  0  0  0  0  0  0  0
  190.5020  172.8940  144.1620 C   0  0  0  0  0  3  0  0  0  0  0  0
  192.4270  174.5430  144.2360 C   0  0  1  0  0  3  0  0  0  0  0  0
  192.7140  175.8870  144.4250 F   0  0  0  0  0  0  0  0  0  0  0  0
  192.7140  171.7040  144.1430 C   0  0  1  0  0  3  0  0  0  0  0  0
  187.9670  177.6190  146.8230 O   0  0  0  0  0  0  0  0  0  0  0  0
  186.5990  177.4230  147.0690 C   0  0  1  0  0  3  0  0  0  0  0  0
  186.4320  176.4360  148.0430 O   0  0  0  0  0  1  0  0  0  0  0  0
  185.9390  178.7220  147.5180 C   0  0  0  0  0  2  0  0  0  0  0  0
  183.9830  178.6350  146.0530 C   0  0  0  0  0  2  0  0  0  0  0  0
  184.4630  178.7030  147.2900 C   0  0  0  0  0  3  0  0  0  0  0  0
  1 14  1  0  0  0  0
  1  3  1  0  0  0  0
  2  4  1  0  0  0  0
  4  1  1  0  0  0  0
  4 27  1  0  0  0  0
  5  2  1  0  0  0  0
  6 16  1  0  0  0  0
  7 11  1  0  0  0  0
  7  2  2  0  0  0  0
  8  9  2  0  0  0  0
  9 13  1  0  0  0  0
  9 10  1  0  0  0  0
 10  5  2  0  0  0  0
 12 11  1  6  0  0  0
 12 21  1  0  0  0  0
 12  1  1  0  0  0  0
 13  7  1  0  0  0  0
 14  3  1  0  0  0  0
 15  6  2  0  0  0  0
 15  8  1  0  0  0  0
 16 13  2  0  0  0  0
 17 22  1  0  0  0  0
 17 19  1  1  0  0  0
 20 26  1  0  0  0  0
 20 23  2  0  0  0  0
 21 23  1  6  0  0  0
 24 25  1  1  0  0  0
 24 21  1  0  0  0  0
 24 17  1  0  0  0  0
 26 18  1  1  0  0  0
 26 22  1  0  0  0  0
 27 28  1  0  0  0  0
 28 30  1  0  0  0  0
 28 29  1  1  0  0  0
 31 32  2  0  0  0  0
 32 30  1  0  0  0  0
M  END
>  <MODEL>
1

>  <REMARK>
 VINA RESULT:      -7.9      0.000      0.000
  Name = 
  5 active torsions:
  status: ('A' for Active; 'I' for Inactive)
    1  A    between atoms: N_5  and  O_14
    2  A    between atoms: C_13  and  C_18
    3  A    between atoms: C_13  and  C_29
    4  A    between atoms: O_14  and  C_18
    5  A    between atoms: C_16  and  C_27
                            x       y       z     vdW  Elec       q    Type
                         _______ _______ _______ _____ _____    ______ ____

>  <TORSDO>
F 5

$$$$
=
 OpenBabel11052419143D

 32 36  0  0  1  0  0  0  0  0999 V2000
  188.7350  175.3380  142.2880 C   0  0  0  0  0  0  0  0  0  0  0  0
  191.1680  174.9000  142.7490 C   0  0  0  0  0  0  0  0  0  0  0  0
  187.7430  175.5480  141.1630 C   0  0  0  0  0  2  0  0  0  0  0  0
  190.0170  174.7350  141.8940 N   0  0  0  0  0  0  0  0  0  0  0  0
  192.4310  174.4840  142.3050 C   0  0  0  0  0  3  0  0  0  0  0  0
  193.2470  176.4280  146.8860 C   0  0  0  0  0  3  0  0  0  0  0  0
  191.0450  175.5140  144.0200 C   0  0  0  0  0  0  0  0  0  0  0  0
  194.5910  175.4070  145.1500 C   0  0  0  0  0  3  0  0  0  0  0  0
  193.4500  175.2470  144.3570 C   0  0  0  0  0  0  0  0  0  0  0  0
  193.5620  174.6530  143.1010 C   0  0  0  0  0  3  0  0  0  0  0  0
  189.6870  175.9240  144.5320 C   0  0  0  0  0  2  0  0  0  0  0  0
  188.7830  176.4010  143.3960 C   0  0  2  0  0  3  0  0  0  0  0  0
  192.1880  175.6790  144.8290 C   0  0  0  0  0  0  0  0  0  0  0  0
  187.5350  174.4210  142.1760 C   0  0  0  0  0  2  0  0  0  0  0  0
  194.4890  175.9970  146.4120 C   0  0  0  0  0  3  0  0  0  0  0  0
  192.1030  176.2700  146.1010 C   0  0  0  0  0  3  0  0  0  0  0  0
  185.6590  178.7180  143.4340 C   0  0  1  0  0  3  0  0  0  0  0  0
  184.0670  178.2930  146.5130 C   0  0  0  0  0  1  0  0  0  0  0  0
  185.1580  178.5770  142.1510 F   0  0  0  0  0  0  0  0  0  0  0  0
  186.2830  177.2800  146.1360 C   0  0  0  0  0  3  0  0  0  0  0  0
  187.4180  176.9170  143.8920 C   0  0  1  0  0  3  0  0  0  0  0  0
  184.8950  177.9210  144.3090 O   0  0  0  0  0  0  0  0  0  0  0  0
  187.2470  176.7190  145.3870 C   0  0  0  0  0  3  0  0  0  0  0  0
  187.1640  178.3720  143.4640 C   0  0  1  0  0  3  0  0  0  0  0  0
  187.7410  178.6550  142.2350 F   0  0  0  0  0  0  0  0  0  0  0  0
  185.2820  178.2670  145.6080 C   0  0  1  0  0  3  0  0  0  0  0  0
  190.1730  174.2070  140.6480 O   0  0  0  0  0  0  0  0  0  0  0  0
  189.6320  172.9130  140.7080 C   0  0  1  0  0  3  0  0  0  0  0  0
  188.9100  172.6490  139.5420 O   0  0  0  0  0  1  0  0  0  0  0  0
  190.7340  171.8750  140.8910 C   0  0  0  0  0  2  0  0  0  0  0  0
  189.7380  171.5410  143.0990 C   0  0  0  0  0  2  0  0  0  0  0  0
  190.5610  171.0990  142.1550 C   0  0  0  0  0  3  0  0  0  0  0  0
  1 12  1  0  0  0  0
  2  7  1  0  0  0  0
  3 14  1  0  0  0  0
  3  1  1  0  0  0  0
  4  1  1  0  0  0  0
  4  2  1  0  0  0  0
  5  2  2  0  0  0  0
  5 10  1  0  0  0  0
  7 11  1  0  0  0  0
  7 13  2  0  0  0  0
  8 15  2  0  0  0  0
  9 13  1  0  0  0  0
  9  8  1  0  0  0  0
 10  9  2  0  0  0  0
 12 21  1  0  0  0  0
 12 11  1  1  0  0  0
 13 16  1  0  0  0  0
 14  1  1  0  0  0  0
 15  6  1  0  0  0  0
 16  6  2  0  0  0  0
 17 19  1  6  0  0  0
 17 24  1  0  0  0  0
 17 22  1  0  0  0  0
 21 23  1  1  0  0  0
 22 26  1  0  0  0  0
 23 20  2  0  0  0  0
 24 25  1  6  0  0  0
 24 21  1  0  0  0  0
 26 20  1  0  0  0  0
 26 18  1  1  0  0  0
 27 28  1  0  0  0  0
 27  4  1  0  0  0  0
 28 29  1  6  0  0  0
 28 30  1  0  0  0  0
 30 32  1  0  0  0  0
 32 31  2  0  0  0  0
M  END
>  <MODEL>
2

>  <REMARK>
 VINA RESULT:      -7.8      3.124      7.845
  Name = 
  5 active torsions:
  status: ('A' for Active; 'I' for Inactive)
    1  A    between atoms: N_5  and  O_14
    2  A    between atoms: C_13  and  C_18
    3  A    between atoms: C_13  and  C_29
    4  A    between atoms: O_14  and  C_18
    5  A    between atoms: C_16  and  C_27
                            x       y       z     vdW  Elec       q    Type
                         _______ _______ _______ _____ _____    ______ ____

>  <TORSDO>
F 5

$$$$
=
 OpenBabel11052419143D

 32 36  0  0  1  0  0  0  0  0999 V2000
  189.8740  173.9440  144.4790 C   0  0  0  0  0  0  0  0  0  0  0  0
  188.5620  175.8830  145.3990 C   0  0  0  0  0  0  0  0  0  0  0  0
  191.1560  173.1600  144.6690 C   0  0  0  0  0  2  0  0  0  0  0  0
  189.4740  174.7840  145.6170 N   0  0  0  0  0  0  0  0  0  0  0  0
  188.3110  176.7940  146.4340 C   0  0  0  0  0  3  0  0  0  0  0  0
  185.5780  178.4710  142.5400 C   0  0  0  0  0  3  0  0  0  0  0  0
  187.9480  176.0750  144.1370 C   0  0  0  0  0  0  0  0  0  0  0  0
  185.9750  179.1560  144.8280 C   0  0  0  0  0  3  0  0  0  0  0  0
  186.8360  178.0700  145.0080 C   0  0  0  0  0  0  0  0  0  0  0  0
  187.4540  177.8770  146.2430 C   0  0  0  0  0  3  0  0  0  0  0  0
  188.1720  175.0780  143.0290 C   0  0  0  0  0  2  0  0  0  0  0  0
  189.5840  174.4990  143.0750 C   0  0  2  0  0  3  0  0  0  0  0  0
  187.0750  177.1670  143.9450 C   0  0  0  0  0  0  0  0  0  0  0  0
  189.8010  172.4520  144.7280 C   0  0  0  0  0  2  0  0  0  0  0  0
  185.3480  179.3560  143.5960 C   0  0  0  0  0  3  0  0  0  0  0  0
  186.4360  177.3820  142.7130 C   0  0  0  0  0  3  0  0  0  0  0  0
  191.7380  172.8710  140.2740 C   0  0  1  0  0  3  0  0  0  0  0  0
  189.5610  171.2430  138.0820 C   0  0  0  0  0  1  0  0  0  0  0  0
  192.8250  172.3750  140.9740 F   0  0  0  0  0  0  0  0  0  0  0  0
  188.6480  172.7040  139.8460 C   0  0  0  0  0  3  0  0  0  0  0  0
  189.8820  173.5450  141.9020 C   0  0  1  0  0  3  0  0  0  0  0  0
  190.8510  171.8100  140.0050 O   0  0  0  0  0  0  0  0  0  0  0  0
  188.6480  173.2860  141.0560 C   0  0  0  0  0  3  0  0  0  0  0  0
  191.0750  174.0250  141.0600 C   0  0  1  0  0  3  0  0  0  0  0  0
  192.0220  174.6770  141.8340 F   0  0  0  0  0  0  0  0  0  0  0  0
  189.8950  172.3040  139.1100 C   0  0  1  0  0  3  0  0  0  0  0  0
  190.1070  174.6620  146.8170 O   0  0  0  0  0  0  0  0  0  0  0  0
  190.9620  175.7700  146.9170 C   0  0  1  0  0  3  0  0  0  0  0  0
  190.9900  176.2270  148.2350 O   0  0  0  0  0  1  0  0  0  0  0  0
  192.3700  175.4080  146.4550 C   0  0  0  0  0  2  0  0  0  0  0  0
  192.1160  176.9400  144.5660 C   0  0  0  0  0  2  0  0  0  0  0  0
  192.9120  176.4090  145.4880 C   0  0  0  0  0  3  0  0  0  0  0  0
  1  3  1  0  0  0  0
  1 14  1  0  0  0  0
  1  4  1  0  0  0  0
  2  4  1  0  0  0  0
  2  5  1  0  0  0  0
  3 14  1  0  0  0  0
  4 27  1  0  0  0  0
  6 16  2  0  0  0  0
  6 15  1  0  0  0  0
  7  2  2  0  0  0  0
  8  9  1  0  0  0  0
  9 10  1  0  0  0  0
 10  5  2  0  0  0  0
 11  7  1  0  0  0  0
 12 11  1  1  0  0  0
 12  1  1  0  0  0  0
 13  7  1  0  0  0  0
 13  9  2  0  0  0  0
 15  8  2  0  0  0  0
 16 13  1  0  0  0  0
 17 19  1  1  0  0  0
 17 24  1  0  0  0  0
 20 23  2  0  0  0  0
 21 23  1  6  0  0  0
 21 12  1  0  0  0  0
 22 17  1  0  0  0  0
 24 25  1  1  0  0  0
 24 21  1  0  0  0  0
 26 18  1  6  0  0  0
 26 20  1  0  0  0  0
 26 22  1  0  0  0  0
 27 28  1  0  0  0  0
 28 29  1  1  0  0  0
 30 28  1  0  0  0  0
 31 32  2  0  0  0  0
 32 30  1  0  0  0  0
M  END
>  <MODEL>
3

>  <REMARK>
 VINA RESULT:      -7.7      2.710      4.497
  Name = 
  5 active torsions:
  status: ('A' for Active; 'I' for Inactive)
    1  A    between atoms: N_5  and  O_14
    2  A    between atoms: C_13  and  C_18
    3  A    between atoms: C_13  and  C_29
    4  A    between atoms: O_14  and  C_18
    5  A    between atoms: C_16  and  C_27
                            x       y       z     vdW  Elec       q    Type
                         _______ _______ _______ _____ _____    ______ ____

>  <TORSDO>
F 5

$$$$
=
 OpenBabel11052419143D

 32 36  0  0  1  0  0  0  0  0999 V2000
  190.6930  176.9750  143.9220 C   0  0  0  0  0  0  0  0  0  0  0  0
  191.9960  174.8250  143.9840 C   0  0  0  0  0  0  0  0  0  0  0  0
  190.4520  178.2580  144.6900 C   0  0  0  0  0  2  0  0  0  0  0  0
  191.9010  176.2290  144.3040 N   0  0  0  0  0  0  0  0  0  0  0  0
  193.0580  174.0650  144.4930 C   0  0  0  0  0  3  0  0  0  0  0  0
  190.2750  170.7920  141.8500 C   0  0  0  0  0  3  0  0  0  0  0  0
  191.0040  174.1940  143.1930 C   0  0  0  0  0  0  0  0  0  0  0  0
  192.3090  170.7060  143.1600 C   0  0  0  0  0  3  0  0  0  0  0  0
  192.1950  172.0730  143.4330 C   0  0  0  0  0  0  0  0  0  0  0  0
  193.1600  172.7020  144.2190 C   0  0  0  0  0  3  0  0  0  0  0  0
  189.8820  175.0060  142.5990 C   0  0  0  0  0  2  0  0  0  0  0  0
  189.4620  176.1430  143.5300 C   0  0  2  0  0  3  0  0  0  0  0  0
  191.1100  172.8160  142.9090 C   0  0  0  0  0  0  0  0  0  0  0  0
  190.9490  178.3050  143.2450 C   0  0  0  0  0  2  0  0  0  0  0  0
  191.3500  170.0680  142.3710 C   0  0  0  0  0  3  0  0  0  0  0  0
  190.1550  172.1580  142.1170 C   0  0  0  0  0  3  0  0  0  0  0  0
  186.0710  178.0340  143.7640 C   0  0  1  0  0  3  0  0  0  0  0  0
  184.7810  178.2910  140.5290 C   0  0  0  0  0  1  0  0  0  0  0  0
  186.3380  179.0260  144.6920 F   0  0  0  0  0  0  0  0  0  0  0  0
  186.7630  176.8830  140.9430 C   0  0  0  0  0  3  0  0  0  0  0  0
  188.2540  176.9390  142.9990 C   0  0  1  0  0  3  0  0  0  0  0  0
  186.1270  178.5960  142.4730 O   0  0  0  0  0  0  0  0  0  0  0  0
  187.8980  176.5470  141.5770 C   0  0  0  0  0  3  0  0  0  0  0  0
  187.0470  176.8500  143.9470 C   0  0  1  0  0  3  0  0  0  0  0  0
  187.4400  176.7610  145.2740 F   0  0  0  0  0  0  0  0  0  0  0  0
  185.6310  177.6270  141.5930 C   0  0  1  0  0  3  0  0  0  0  0  0
  192.8280  176.7980  145.1250 O   0  0  0  0  0  0  0  0  0  0  0  0
  192.8550  176.0050  146.2820 C   0  0  1  0  0  3  0  0  0  0  0  0
  194.1090  176.0960  146.8880 O   0  0  0  0  0  1  0  0  0  0  0  0
  191.7670  176.4400  147.2590 C   0  0  0  0  0  2  0  0  0  0  0  0
  189.7920  175.0160  147.0240 C   0  0  0  0  0  2  0  0  0  0  0  0
  190.9120  175.2910  147.6840 C   0  0  0  0  0  3  0  0  0  0  0  0
  1  4  1  0  0  0  0
  1  3  1  0  0  0  0
  2  4  1  0  0  0  0
  2  5  1  0  0  0  0
  4 27  1  0  0  0  0
  6 16  2  0  0  0  0
  6 15  1  0  0  0  0
  7  2  2  0  0  0  0
  8  9  1  0  0  0  0
  9 10  1  0  0  0  0
 10  5  2  0  0  0  0
 11  7  1  0  0  0  0
 12 11  1  6  0  0  0
 12  1  1  0  0  0  0
 13  7  1  0  0  0  0
 13  9  2  0  0  0  0
 14  1  1  0  0  0  0
 14  3  1  0  0  0  0
 15  8  2  0  0  0  0
 16 13  1  0  0  0  0
 17 24  1  0  0  0  0
 17 19  1  1  0  0  0
 20 23  2  0  0  0  0
 20 26  1  0  0  0  0
 21 23  1  6  0  0  0
 21 12  1  0  0  0  0
 21 24  1  0  0  0  0
 22 17  1  0  0  0  0
 24 25  1  1  0  0  0
 26 18  1  6  0  0  0
 26 22  1  0  0  0  0
 27 28  1  0  0  0  0
 28 29  1  1  0  0  0
 28 30  1  0  0  0  0
 30 32  1  0  0  0  0
 31 32  2  0  0  0  0
M  END
>  <MODEL>
4

>  <REMARK>
 VINA RESULT:      -7.5      2.794      6.855
  Name = 
  5 active torsions:
  status: ('A' for Active; 'I' for Inactive)
    1  A    between atoms: N_5  and  O_14
    2  A    between atoms: C_13  and  C_18
    3  A    between atoms: C_13  and  C_29
    4  A    between atoms: O_14  and  C_18
    5  A    between atoms: C_16  and  C_27
                            x       y       z     vdW  Elec       q    Type
                         _______ _______ _______ _____ _____    ______ ____

>  <TORSDO>
F 5

$$$$
=
 OpenBabel11052419143D

 32 36  0  0  1  0  0  0  0  0999 V2000
  188.8250  175.3210  142.3230 C   0  0  0  0  0  0  0  0  0  0  0  0
  191.2710  174.9200  142.7500 C   0  0  0  0  0  0  0  0  0  0  0  0
  187.8150  175.5190  141.2120 C   0  0  0  0  0  2  0  0  0  0  0  0
  190.1110  174.7400  141.9090 N   0  0  0  0  0  0  0  0  0  0  0  0
  192.5340  174.5250  142.2870 C   0  0  0  0  0  3  0  0  0  0  0  0
  193.3800  176.4630  146.8670 C   0  0  0  0  0  3  0  0  0  0  0  0
  191.1550  175.5270  144.0250 C   0  0  0  0  0  0  0  0  0  0  0  0
  194.7170  175.4710  145.1090 C   0  0  0  0  0  3  0  0  0  0  0  0
  193.5690  175.2960  144.3300 C   0  0  0  0  0  0  0  0  0  0  0  0
  193.6730  174.7090  143.0700 C   0  0  0  0  0  3  0  0  0  0  0  0
  189.7980  175.9130  144.5570 C   0  0  0  0  0  2  0  0  0  0  0  0
  188.8710  176.3800  143.4350 C   0  0  2  0  0  3  0  0  0  0  0  0
  192.3060  175.7060  144.8200 C   0  0  0  0  0  0  0  0  0  0  0  0
  187.6390  174.3850  142.2230 C   0  0  0  0  0  2  0  0  0  0  0  0
  194.6220  176.0550  146.3740 C   0  0  0  0  0  3  0  0  0  0  0  0
  192.2290  176.2910  146.0950 C   0  0  0  0  0  3  0  0  0  0  0  0
  185.7090  178.6430  143.5210 C   0  0  1  0  0  3  0  0  0  0  0  0
  184.1690  178.1880  146.6210 C   0  0  0  0  0  1  0  0  0  0  0  0
  185.1920  178.4950  142.2450 F   0  0  0  0  0  0  0  0  0  0  0  0
  186.3970  177.2140  146.2120 C   0  0  0  0  0  3  0  0  0  0  0  0
  187.5050  176.8720  143.9510 C   0  0  1  0  0  3  0  0  0  0  0  0
  184.9710  177.8320  144.4050 O   0  0  0  0  0  0  0  0  0  0  0  0
  187.3590  176.6700  145.4480 C   0  0  0  0  0  3  0  0  0  0  0  0
  187.2200  178.3230  143.5290 C   0  0  1  0  0  3  0  0  0  0  0  0
  187.7740  178.6170  142.2920 F   0  0  0  0  0  0  0  0  0  0  0  0
  185.3710  178.1840  145.6990 C   0  0  1  0  0  3  0  0  0  0  0  0
  190.2600  174.2190  140.6590 O   0  0  0  0  0  0  0  0  0  0  0  0
  190.2120  172.8260  140.8150 C   0  0  1  0  0  3  0  0  0  0  0  0
  189.0410  172.3260  140.2420 O   0  0  0  0  0  1  0  0  0  0  0  0
  191.4320  172.1700  140.1760 C   0  0  0  0  0  2  0  0  0  0  0  0
  191.6210  172.4640  137.7550 C   0  0  0  0  0  2  0  0  0  0  0  0
  191.8990  172.9210  138.9720 C   0  0  0  0  0  3  0  0  0  0  0  0
  1 12  1  0  0  0  0
  2  7  1  0  0  0  0
  3 14  1  0  0  0  0
  3  1  1  0  0  0  0
  4  1  1  0  0  0  0
  4  2  1  0  0  0  0
  5  2  2  0  0  0  0
  5 10  1  0  0  0  0
  7 11  1  0  0  0  0
  7 13  2  0  0  0  0
  8 15  2  0  0  0  0
  9 13  1  0  0  0  0
  9  8  1  0  0  0  0
 10  9  2  0  0  0  0
 12 21  1  0  0  0  0
 12 11  1  1  0  0  0
 13 16  1  0  0  0  0
 14  1  1  0  0  0  0
 15  6  1  0  0  0  0
 16  6  2  0  0  0  0
 17 19  1  6  0  0  0
 17 24  1  0  0  0  0
 17 22  1  0  0  0  0
 21 23  1  1  0  0  0
 22 26  1  0  0  0  0
 23 20  2  0  0  0  0
 24 25  1  6  0  0  0
 24 21  1  0  0  0  0
 26 20  1  0  0  0  0
 26 18  1  1  0  0  0
 27 28  1  0  0  0  0
 27  4  1  0  0  0  0
 28 29  1  6  0  0  0
 30 28  1  0  0  0  0
 31 32  2  0  0  0  0
 32 30  1  0  0  0  0
M  END
>  <MODEL>
5

>  <REMARK>
 VINA RESULT:      -7.5      3.366      8.062
  Name = 
  5 active torsions:
  status: ('A' for Active; 'I' for Inactive)
    1  A    between atoms: N_5  and  O_14
    2  A    between atoms: C_13  and  C_18
    3  A    between atoms: C_13  and  C_29
    4  A    between atoms: O_14  and  C_18
    5  A    between atoms: C_16  and  C_27
                            x       y       z     vdW  Elec       q    Type
                         _______ _______ _______ _____ _____    ______ ____

>  <TORSDO>
F 5

$$$$
=
 OpenBabel11052419143D

 32 36  0  0  1  0  0  0  0  0999 V2000
  190.2380  176.2170  145.3510 C   0  0  0  0  0  0  0  0  0  0  0  0
  188.6930  175.9190  143.3890 C   0  0  0  0  0  0  0  0  0  0  0  0
  190.5580  177.1520  146.4980 C   0  0  0  0  0  2  0  0  0  0  0  0
  188.9220  176.4140  144.7250 N   0  0  0  0  0  0  0  0  0  0  0  0
  187.5080  176.2510  142.7160 C   0  0  0  0  0  3  0  0  0  0  0  0
  190.1120  173.4390  139.4370 C   0  0  0  0  0  3  0  0  0  0  0  0
  189.6700  175.1310  142.7300 C   0  0  0  0  0  0  0  0  0  0  0  0
  187.9750  174.5760  139.4620 C   0  0  0  0  0  3  0  0  0  0  0  0
  188.2230  175.0220  140.7630 C   0  0  0  0  0  0  0  0  0  0  0  0
  187.2730  175.8060  141.4160 C   0  0  0  0  0  3  0  0  0  0  0  0
  190.9270  174.7260  143.4560 C   0  0  0  0  0  2  0  0  0  0  0  0
  191.3920  175.8170  144.4190 C   0  0  2  0  0  3  0  0  0  0  0  0
  189.4290  174.6750  141.4170 C   0  0  0  0  0  0  0  0  0  0  0  0
  190.1990  175.6900  146.7700 C   0  0  0  0  0  2  0  0  0  0  0  0
  188.9190  173.7870  138.8000 C   0  0  0  0  0  3  0  0  0  0  0  0
  190.3670  173.8800  140.7380 C   0  0  0  0  0  3  0  0  0  0  0  0
  194.8910  176.5570  145.9510 C   0  0  1  0  0  3  0  0  0  0  0  0
  196.5940  173.5190  146.2060 C   0  0  0  0  0  1  0  0  0  0  0  0
  194.6050  177.4960  146.9260 F   0  0  0  0  0  0  0  0  0  0  0  0
  194.4520  173.6170  144.9880 C   0  0  0  0  0  3  0  0  0  0  0  0
  192.7280  175.4790  145.1110 C   0  0  1  0  0  3  0  0  0  0  0  0
  195.0500  175.2990  146.5660 O   0  0  0  0  0  0  0  0  0  0  0  0
  193.2200  174.0910  144.7420 C   0  0  0  0  0  3  0  0  0  0  0  0
  193.7930  176.5590  144.8640 C   0  0  1  0  0  3  0  0  0  0  0  0
  193.2300  177.8230  144.7620 F   0  0  0  0  0  0  0  0  0  0  0  0
  195.5590  174.4370  145.5890 C   0  0  1  0  0  3  0  0  0  0  0  0
  187.9990  177.2280  145.3100 O   0  0  0  0  0  0  0  0  0  0  0  0
  187.0550  176.3760  145.9030 C   0  0  1  0  0  3  0  0  0  0  0  0
  187.2050  176.3990  147.2910 O   0  0  0  0  0  1  0  0  0  0  0  0
  185.6380  176.7910  145.5200 C   0  0  0  0  0  2  0  0  0  0  0  0
  184.3400  178.8480  145.7800 C   0  0  0  0  0  2  0  0  0  0  0  0
  185.4940  178.2760  145.4510 C   0  0  0  0  0  3  0  0  0  0  0  0
  1  3  1  0  0  0  0
  1 14  1  0  0  0  0
  2  4  1  0  0  0  0
  3 14  1  0  0  0  0
  4 27  1  0  0  0  0
  4  1  1  0  0  0  0
  5  2  2  0  0  0  0
  6 16  2  0  0  0  0
  7  2  1  0  0  0  0
  7 11  1  0  0  0  0
  8  9  1  0  0  0  0
  9 10  2  0  0  0  0
  9 13  1  0  0  0  0
 10  5  1  0  0  0  0
 12 11  1  1  0  0  0
 12 21  1  0  0  0  0
 12  1  1  0  0  0  0
 13  7  2  0  0  0  0
 15  6  1  0  0  0  0
 15  8  2  0  0  0  0
 16 13  1  0  0  0  0
 17 22  1  0  0  0  0
 17 19  1  1  0  0  0
 20 26  1  0  0  0  0
 21 23  1  6  0  0  0
 23 20  2  0  0  0  0
 24 25  1  1  0  0  0
 24 21  1  0  0  0  0
 24 17  1  0  0  0  0
 26 18  1  1  0  0  0
 26 22  1  0  0  0  0
 27 28  1  0  0  0  0
 28 29  1  1  0  0  0
 30 28  1  0  0  0  0
 32 30  1  0  0  0  0
 32 31  2  0  0  0  0
M  END
>  <MODEL>
6

>  <REMARK>
 VINA RESULT:      -7.4      2.022      2.824
  Name = 
  5 active torsions:
  status: ('A' for Active; 'I' for Inactive)
    1  A    between atoms: N_5  and  O_14
    2  A    between atoms: C_13  and  C_18
    3  A    between atoms: C_13  and  C_29
    4  A    between atoms: O_14  and  C_18
    5  A    between atoms: C_16  and  C_27
                            x       y       z     vdW  Elec       q    Type
                         _______ _______ _______ _____ _____    ______ ____

>  <TORSDO>
F 5

$$$$
=
 OpenBabel11052419143D

 32 36  0  0  1  0  0  0  0  0999 V2000
  190.5970  176.1630  145.8440 C   0  0  0  0  0  0  0  0  0  0  0  0
  191.6010  174.2350  144.5790 C   0  0  0  0  0  0  0  0  0  0  0  0
  190.5270  176.7930  147.2190 C   0  0  0  0  0  2  0  0  0  0  0  0
  191.6940  175.2040  145.6440 N   0  0  0  0  0  0  0  0  0  0  0  0
  192.5510  173.2080  144.4870 C   0  0  0  0  0  3  0  0  0  0  0  0
  189.3630  172.3690  140.6690 C   0  0  0  0  0  3  0  0  0  0  0  0
  190.5360  174.2850  143.6450 C   0  0  0  0  0  0  0  0  0  0  0  0
  191.3630  171.3230  141.5450 C   0  0  0  0  0  3  0  0  0  0  0  0
  191.4320  172.2910  142.5520 C   0  0  0  0  0  0  0  0  0  0  0  0
  192.4700  172.2450  143.4820 C   0  0  0  0  0  3  0  0  0  0  0  0
  189.5340  175.4090  143.7020 C   0  0  0  0  0  2  0  0  0  0  0  0
  189.2680  175.8480  145.1410 C   0  0  2  0  0  3  0  0  0  0  0  0
  190.4580  173.3150  142.6240 C   0  0  0  0  0  0  0  0  0  0  0  0
  191.0310  177.6030  146.0230 C   0  0  0  0  0  2  0  0  0  0  0  0
  190.3300  171.3620  140.6060 C   0  0  0  0  0  3  0  0  0  0  0  0
  189.4260  173.3400  141.6710 C   0  0  0  0  0  3  0  0  0  0  0  0
  186.2260  177.6900  146.7180 C   0  0  1  0  0  3  0  0  0  0  0  0
  184.8620  179.7660  144.2630 C   0  0  0  0  0  1  0  0  0  0  0  0
  186.6820  178.0010  147.9870 F   0  0  0  0  0  0  0  0  0  0  0  0
  186.6140  178.1420  143.6510 C   0  0  0  0  0  3  0  0  0  0  0  0
  188.1780  176.9330  145.2470 C   0  0  1  0  0  3  0  0  0  0  0  0
  186.3160  178.8410  145.9100 O   0  0  0  0  0  0  0  0  0  0  0  0
  187.7080  177.3970  143.8810 C   0  0  0  0  0  3  0  0  0  0  0  0
  187.0110  176.4890  146.1440 C   0  0  1  0  0  3  0  0  0  0  0  0
  187.4390  175.6660  147.1760 F   0  0  0  0  0  0  0  0  0  0  0  0
  185.6400  178.5490  144.7200 C   0  0  1  0  0  3  0  0  0  0  0  0
  192.6860  175.0930  146.5710 O   0  0  0  0  0  0  0  0  0  0  0  0
  193.7710  175.8240  146.0630 C   0  0  1  0  0  3  0  0  0  0  0  0
  194.0290  176.9210  146.8880 O   0  0  0  0  0  1  0  0  0  0  0  0
  195.0120  174.9430  145.9560 C   0  0  0  0  0  2  0  0  0  0  0  0
  195.1290  175.8080  143.6710 C   0  0  0  0  0  2  0  0  0  0  0  0
  195.7210  175.1400  144.6550 C   0  0  0  0  0  3  0  0  0  0  0  0
  1 14  1  0  0  0  0
  1  3  1  0  0  0  0
  2  4  1  0  0  0  0
  4  1  1  0  0  0  0
  4 27  1  0  0  0  0
  5  2  1  0  0  0  0
  6 16  1  0  0  0  0
  7 11  1  0  0  0  0
  7  2  2  0  0  0  0
  8  9  2  0  0  0  0
  9 13  1  0  0  0  0
  9 10  1  0  0  0  0
 10  5  2  0  0  0  0
 12 11  1  6  0  0  0
 12 21  1  0  0  0  0
 12  1  1  0  0  0  0
 13  7  1  0  0  0  0
 14  3  1  0  0  0  0
 15  6  2  0  0  0  0
 15  8  1  0  0  0  0
 16 13  2  0  0  0  0
 17 19  1  1  0  0  0
 20 23  2  0  0  0  0
 20 26  1  0  0  0  0
 21 23  1  6  0  0  0
 21 24  1  0  0  0  0
 22 17  1  0  0  0  0
 24 17  1  0  0  0  0
 24 25  1  1  0  0  0
 26 18  1  6  0  0  0
 26 22  1  0  0  0  0
 28 27  1  0  0  0  0
 28 29  1  1  0  0  0
 30 28  1  0  0  0  0
 31 32  2  0  0  0  0
 32 30  1  0  0  0  0
M  END
>  <MODEL>
7

>  <REMARK>
 VINA RESULT:      -7.4      2.706      7.103
  Name = 
  5 active torsions:
  status: ('A' for Active; 'I' for Inactive)
    1  A    between atoms: N_5  and  O_14
    2  A    between atoms: C_13  and  C_18
    3  A    between atoms: C_13  and  C_29
    4  A    between atoms: O_14  and  C_18
    5  A    between atoms: C_16  and  C_27
                            x       y       z     vdW  Elec       q    Type
                         _______ _______ _______ _____ _____    ______ ____

>  <TORSDO>
F 5

$$$$
=
 OpenBabel11052419143D

 32 36  0  0  1  0  0  0  0  0999 V2000
  190.5400  176.6450  143.9040 C   0  0  0  0  0  0  0  0  0  0  0  0
  191.3350  174.9490  142.2260 C   0  0  0  0  0  0  0  0  0  0  0  0
  190.8750  177.2550  145.2490 C   0  0  0  0  0  2  0  0  0  0  0  0
  191.6390  175.9220  143.2470 N   0  0  0  0  0  0  0  0  0  0  0  0
  192.3540  174.1310  141.7180 C   0  0  0  0  0  3  0  0  0  0  0  0
  188.1830  172.6560  139.2960 C   0  0  0  0  0  3  0  0  0  0  0  0
  190.0090  174.7810  141.7570 C   0  0  0  0  0  0  0  0  0  0  0  0
  190.5230  172.0340  139.2970 C   0  0  0  0  0  3  0  0  0  0  0  0
  190.7830  173.0000  140.2730 C   0  0  0  0  0  0  0  0  0  0  0  0
  192.0830  173.1660  140.7490 C   0  0  0  0  0  3  0  0  0  0  0  0
  188.9110  175.6840  142.2580 C   0  0  0  0  0  2  0  0  0  0  0  0
  189.1270  176.0680  143.7210 C   0  0  2  0  0  3  0  0  0  0  0  0
  189.7350  173.8100  140.7700 C   0  0  0  0  0  0  0  0  0  0  0  0
  190.7330  178.1430  144.0110 C   0  0  0  0  0  2  0  0  0  0  0  0
  189.2250  171.8620  138.8100 C   0  0  0  0  0  3  0  0  0  0  0  0
  188.4360  173.6250  140.2700 C   0  0  0  0  0  3  0  0  0  0  0  0
  186.6720  177.3380  146.4580 C   0  0  1  0  0  3  0  0  0  0  0  0
  184.0410  178.9680  144.8410 C   0  0  0  0  0  1  0  0  0  0  0  0
  187.5270  177.8000  147.4440 F   0  0  0  0  0  0  0  0  0  0  0  0
  185.6900  177.7010  143.5140 C   0  0  0  0  0  3  0  0  0  0  0  0
  187.9750  176.9150  144.2970 C   0  0  1  0  0  3  0  0  0  0  0  0
  186.1910  178.4410  145.7240 O   0  0  0  0  0  0  0  0  0  0  0  0
  186.9110  177.2050  143.2550 C   0  0  0  0  0  3  0  0  0  0  0  0
  187.3880  176.2920  145.5730 C   0  0  1  0  0  3  0  0  0  0  0  0
  188.3540  175.6270  146.3130 F   0  0  0  0  0  0  0  0  0  0  0  0
  185.1680  177.9580  144.9000 C   0  0  1  0  0  3  0  0  0  0  0  0
  192.9090  176.0160  143.7330 O   0  0  0  0  0  0  0  0  0  0  0  0
  193.1380  174.8270  144.4430 C   0  0  1  0  0  3  0  0  0  0  0  0
  194.3450  174.2580  144.0340 O   0  0  0  0  0  1  0  0  0  0  0  0
  193.1620  175.0920  145.9450 C   0  0  0  0  0  2  0  0  0  0  0  0
  194.3140  177.1070  146.7170 C   0  0  0  0  0  2  0  0  0  0  0  0
  194.3940  175.8300  146.3580 C   0  0  0  0  0  3  0  0  0  0  0  0
  1 14  1  0  0  0  0
  1  3  1  0  0  0  0
  2  4  1  0  0  0  0
  4 27  1  0  0  0  0
  4  1  1  0  0  0  0
  5  2  2  0  0  0  0
  6 16  2  0  0  0  0
  7  2  1  0  0  0  0
  7 11  1  0  0  0  0
  8  9  1  0  0  0  0
  9 10  2  0  0  0  0
  9 13  1  0  0  0  0
 10  5  1  0  0  0  0
 12 11  1  6  0  0  0
 12  1  1  0  0  0  0
 12 21  1  0  0  0  0
 13  7  2  0  0  0  0
 14  3  1  0  0  0  0
 15  6  1  0  0  0  0
 15  8  2  0  0  0  0
 16 13  1  0  0  0  0
 17 19  1  1  0  0  0
 20 26  1  0  0  0  0
 21 23  1  6  0  0  0
 21 24  1  0  0  0  0
 22 17  1  0  0  0  0
 23 20  2  0  0  0  0
 24 25  1  1  0  0  0
 24 17  1  0  0  0  0
 26 18  1  6  0  0  0
 26 22  1  0  0  0  0
 27 28  1  0  0  0  0
 28 29  1  6  0  0  0
 28 30  1  0  0  0  0
 30 32  1  0  0  0  0
 32 31  2  0  0  0  0
M  END
>  <MODEL>
8

>  <REMARK>
 VINA RESULT:      -7.4      2.951      6.769
  Name = 
  5 active torsions:
  status: ('A' for Active; 'I' for Inactive)
    1  A    between atoms: N_5  and  O_14
    2  A    between atoms: C_13  and  C_18
    3  A    between atoms: C_13  and  C_29
    4  A    between atoms: O_14  and  C_18
    5  A    between atoms: C_16  and  C_27
                            x       y       z     vdW  Elec       q    Type
                         _______ _______ _______ _____ _____    ______ ____

>  <TORSDO>
F 5

$$$$
=
 OpenBabel11052419143D

 32 36  0  0  1  0  0  0  0  0999 V2000
  188.8560  174.8280  142.5910 C   0  0  0  0  0  0  0  0  0  0  0  0
  190.5120  174.8680  144.4830 C   0  0  0  0  0  0  0  0  0  0  0  0
  188.7220  174.5080  141.1160 C   0  0  0  0  0  2  0  0  0  0  0  0
  190.0510  174.2790  143.2490 N   0  0  0  0  0  0  0  0  0  0  0  0
  191.7420  174.4720  145.0270 C   0  0  0  0  0  3  0  0  0  0  0  0
  190.0020  177.9920  148.1920 C   0  0  0  0  0  3  0  0  0  0  0  0
  189.7550  175.8730  145.1340 C   0  0  0  0  0  0  0  0  0  0  0  0
  191.9670  176.5870  148.0420 C   0  0  0  0  0  3  0  0  0  0  0  0
  191.4800  176.0250  146.8580 C   0  0  0  0  0  0  0  0  0  0  0  0
  192.2220  175.0420  146.2050 C   0  0  0  0  0  3  0  0  0  0  0  0
  188.4090  176.2770  144.5880 C   0  0  0  0  0  2  0  0  0  0  0  0
  188.3830  176.2120  143.0610 C   0  0  2  0  0  3  0  0  0  0  0  0
  190.2360  176.4460  146.3300 C   0  0  0  0  0  0  0  0  0  0  0  0
  187.8400  173.7970  142.1440 C   0  0  0  0  0  2  0  0  0  0  0  0
  191.2300  177.5700  148.7070 C   0  0  0  0  0  3  0  0  0  0  0  0
  189.5070  177.4340  147.0110 C   0  0  0  0  0  3  0  0  0  0  0  0
  186.1100  178.1540  140.5730 C   0  0  1  0  0  3  0  0  0  0  0  0
  182.9350  178.3900  142.0080 C   0  0  0  0  0  1  0  0  0  0  0  0
  186.4910  177.6390  139.3460 F   0  0  0  0  0  0  0  0  0  0  0  0
  184.8180  177.5290  143.3480 C   0  0  0  0  0  3  0  0  0  0  0  0
  187.0520  176.7070  142.4610 C   0  0  1  0  0  3  0  0  0  0  0  0
  184.9040  177.5410  140.9660 O   0  0  0  0  0  0  0  0  0  0  0  0
  185.9840  176.8870  143.5240 C   0  0  0  0  0  3  0  0  0  0  0  0
  187.2430  177.9710  141.6070 C   0  0  1  0  0  3  0  0  0  0  0  0
  188.4740  177.9800  140.9680 F   0  0  0  0  0  0  0  0  0  0  0  0
  184.4410  178.2470  142.0830 C   0  0  1  0  0  3  0  0  0  0  0  0
  190.8310  173.3650  142.6050 O   0  0  0  0  0  0  0  0  0  0  0  0
  190.4390  172.1100  143.0960 C   0  0  1  0  0  3  0  0  0  0  0  0
  189.9240  171.3360  142.0550 O   0  0  0  0  0  1  0  0  0  0  0  0
  191.6160  171.3960  143.7510 C   0  0  0  0  0  2  0  0  0  0  0  0
  194.0150  171.8740  143.7390 C   0  0  0  0  0  2  0  0  0  0  0  0
  192.9010  171.6780  143.0420 C   0  0  0  0  0  3  0  0  0  0  0  0
  1 12  1  0  0  0  0
  1  4  1  0  0  0  0
  2  5  2  0  0  0  0
  2  7  1  0  0  0  0
  3 14  1  0  0  0  0
  3  1  1  0  0  0  0
  4  2  1  0  0  0  0
  5 10  1  0  0  0  0
  6 15  1  0  0  0  0
  7 13  2  0  0  0  0
  8 15  2  0  0  0  0
  9  8  1  0  0  0  0
 10  9  2  0  0  0  0
 11  7  1  0  0  0  0
 12 11  1  1  0  0  0
 13  9  1  0  0  0  0
 13 16  1  0  0  0  0
 14  1  1  0  0  0  0
 16  6  2  0  0  0  0
 17 19  1  6  0  0  0
 17 22  1  0  0  0  0
 17 24  1  0  0  0  0
 20 23  2  0  0  0  0
 21 12  1  0  0  0  0
 21 23  1  1  0  0  0
 22 26  1  0  0  0  0
 24 25  1  6  0  0  0
 24 21  1  0  0  0  0
 26 18  1  6  0  0  0
 26 20  1  0  0  0  0
 27 28  1  0  0  0  0
 27  4  1  0  0  0  0
 28 29  1  6  0  0  0
 28 30  1  0  0  0  0
 32 31  2  0  0  0  0
 32 30  1  0  0  0  0
M  END
>  <MODEL>
9

>  <REMARK>
 VINA RESULT:      -7.1      3.159      7.922
  Name = 
  5 active torsions:
  status: ('A' for Active; 'I' for Inactive)
    1  A    between atoms: N_5  and  O_14
    2  A    between atoms: C_13  and  C_18
    3  A    between atoms: C_13  and  C_29
    4  A    between atoms: O_14  and  C_18
    5  A    between atoms: C_16  and  C_27
                            x       y       z     vdW  Elec       q    Type
                         _______ _______ _______ _____ _____    ______ ____

>  <TORSDO>
F 5

$$$$
