=
 OpenBabel11052420383D

 34 39  0  0  1  0  0  0  0  0999 V2000
  188.9010  177.5380  143.8950 C   0  0  0  0  0  0  0  0  0  0  0  0
  190.0400  176.8460  146.0290 C   0  0  0  0  0  0  0  0  0  0  0  0
  187.7430  177.5780  146.7630 C   0  0  0  0  0  3  0  0  0  0  0  0
  187.6810  177.6620  141.9490 C   0  0  2  0  0  3  0  0  0  0  0  0
  188.9760  177.4770  142.5120 O   0  0  0  0  0  0  0  0  0  0  0  0
  186.7130  177.5570  143.1300 C   0  0  2  0  0  3  0  0  0  0  0  0
  185.0430  178.4750  144.3430 C   0  0  0  0  0  2  0  0  0  0  0  0
  185.8710  178.6820  143.2150 O   0  0  0  0  0  0  0  0  0  0  0  0
  187.1340  177.9080  145.6200 C   0  0  0  0  0  0  0  0  0  0  0  0
  187.6450  177.5610  144.2890 C   0  0  0  0  0  0  0  0  0  0  0  0
  185.8320  178.6580  145.6590 C   0  0  0  0  0  2  0  0  0  0  0  0
  191.2250  176.0510  146.3850 C   0  0  0  0  0  3  0  0  0  0  0  0
  192.3420  176.0910  145.6510 C   0  0  0  0  0  0  0  0  0  0  0  0
  192.4120  176.9430  144.4490 C   0  0  0  0  0  3  0  0  0  0  0  0
  189.0240  176.8540  146.8990 C   0  0  0  0  0  3  0  0  0  0  0  0
  191.3810  177.6920  144.0540 C   0  0  0  0  0  3  0  0  0  0  0  0
  190.0750  177.7430  144.8070 C   0  0  1  0  0  3  0  0  0  0  0  0
  193.5070  175.2740  146.0290 C   0  0  0  0  0  0  0  0  0  0  0  0
  193.4950  174.0240  145.8700 O   0  0  0  0  0  0  0  0  0  0  0  0
  194.6380  175.8790  146.5650 O   0  0  0  0  0  1  0  0  0  0  0  0
  187.3690  176.6750  140.8180 C   0  0  0  0  0  2  0  0  0  0  0  0
  188.9900  174.8280  140.3880 N   0  0  0  0  0  0  0  0  0  0  0  0
  187.7750  174.8610  142.4360 O   0  0  0  0  0  0  0  0  0  0  0  0
  191.3770  172.7830  142.5280 C   0  0  1  0  0  3  0  0  0  0  0  0
  190.8110  173.2560  143.8130 N   0  0  0  0  0  0  0  0  0  0  0  0
  191.0270  173.7170  141.3450 C   0  0  1  0  0  3  0  0  0  0  0  0
  190.9890  172.2660  144.7210 O   0  0  0  0  0  1  0  0  0  0  0  0
  189.5200  173.8960  141.3440 C   0  0  1  0  0  3  0  0  0  0  0  0
  192.8870  172.6300  142.6320 C   0  0  0  0  0  1  0  0  0  0  0  0
  189.3580  173.4610  143.7110 C   0  0  0  0  0  2  0  0  0  0  0  0
  189.1030  174.4880  142.6310 C   0  0  2  0  0  3  0  0  0  0  0  0
  191.6590  174.9400  141.4780 F   0  0  0  0  0  0  0  0  0  0  0  0
  187.7370  175.2030  141.0570 C   0  0  1  0  0  3  0  0  0  0  0  0
  188.6270  174.0660  139.2060 C   0  0  0  0  0  1  0  0  0  0  0  0
  1 10  2  0  0  0  0
  1 17  1  0  0  0  0
  2 12  1  0  0  0  0
  2 15  2  0  0  0  0
  3 15  1  0  0  0  0
  4 21  1  6  0  0  0
  4  5  1  0  0  0  0
  4  6  1  0  0  0  0
  5  1  1  0  0  0  0
  6  8  1  1  0  0  0
  6 10  1  0  0  0  0
  7 11  1  0  0  0  0
  8  7  1  0  0  0  0
  9 11  1  0  0  0  0
  9  3  2  0  0  0  0
 10  9  1  0  0  0  0
 13 18  1  0  0  0  0
 13 12  2  0  0  0  0
 14 13  1  0  0  0  0
 16 14  2  0  0  0  0
 17 16  1  6  0  0  0
 17  2  1  0  0  0  0
 18 20  1  0  0  0  0
 19 18  2  0  0  0  0
 22 33  1  0  0  0  0
 23 31  1  0  0  0  0
 24 29  1  1  0  0  0
 24 25  1  0  0  0  0
 25 27  1  0  0  0  0
 26 32  1  1  0  0  0
 26 24  1  0  0  0  0
 28 22  1  6  0  0  0
 28 26  1  0  0  0  0
 28 31  1  0  0  0  0
 30 25  1  0  0  0  0
 31 30  1  1  0  0  0
 33 21  1  1  0  0  0
 33 23  1  0  0  0  0
 34 22  1  0  0  0  0
M  END
>  <MODEL>
1

>  <REMARK>
 VINA RESULT:      -8.6      0.000      0.000
  Name = 
  3 active torsions:
  status: ('A' for Active; 'I' for Inactive)
    1  A    between atoms: C_3  and  C_25
    2  A    between atoms: C_8  and  C_18
    3  A    between atoms: C_18  and  C_30
                            x       y       z     vdW  Elec       q    Type
                         _______ _______ _______ _____ _____    ______ ____

>  <TORSDO>
F 3

$$$$
=
 OpenBabel11052420383D

 34 39  0  0  1  0  0  0  0  0999 V2000
  192.6330  175.0180  143.3470 C   0  0  0  0  0  0  0  0  0  0  0  0
  192.7660  172.5080  143.4480 C   0  0  0  0  0  0  0  0  0  0  0  0
  194.0530  173.2770  145.4730 C   0  0  0  0  0  3  0  0  0  0  0  0
  192.0830  177.2400  143.5760 C   0  0  2  0  0  3  0  0  0  0  0  0
  191.9770  176.0830  142.7500 O   0  0  0  0  0  0  0  0  0  0  0  0
  192.6270  176.7290  144.9120 C   0  0  2  0  0  3  0  0  0  0  0  0
  194.1970  176.8570  146.5300 C   0  0  0  0  0  2  0  0  0  0  0  0
  193.7860  177.4260  145.3030 O   0  0  0  0  0  0  0  0  0  0  0  0
  193.9440  174.6090  145.4310 C   0  0  0  0  0  0  0  0  0  0  0  0
  192.9960  175.3280  144.5740 C   0  0  2  0  0  3  0  0  0  0  0  0
  194.8120  175.4550  146.3210 C   0  0  0  0  0  2  0  0  0  0  0  0
  192.0430  171.3850  142.8310 C   0  0  0  0  0  3  0  0  0  0  0  0
  191.6100  171.4390  141.5670 C   0  0  0  0  0  0  0  0  0  0  0  0
  191.8490  172.6440  140.7510 C   0  0  0  0  0  3  0  0  0  0  0  0
  193.2860  172.3070  144.6640 C   0  0  0  0  0  3  0  0  0  0  0  0
  192.4930  173.7080  141.2350 C   0  0  0  0  0  3  0  0  0  0  0  0
  193.0420  173.7600  142.6390 C   0  0  0  0  0  0  0  0  0  0  0  0
  190.8790  170.3020  140.9850 C   0  0  0  0  0  0  0  0  0  0  0  0
  190.5000  170.3280  139.7830 O   0  0  0  0  0  0  0  0  0  0  0  0
  190.6010  169.1810  141.7600 O   0  0  0  0  0  1  0  0  0  0  0  0
  190.7610  178.0060  143.7110 C   0  0  0  0  0  2  0  0  0  0  0  0
  188.4650  177.3970  144.4730 N   0  0  0  0  0  0  0  0  0  0  0  0
  188.9240  177.5270  142.1400 O   0  0  0  0  0  0  0  0  0  0  0  0
  184.9400  178.0610  143.2100 C   0  0  1  0  0  3  0  0  0  0  0  0
  185.3860  178.5830  141.8970 N   0  0  0  0  0  0  0  0  0  0  0  0
  186.0610  178.0940  144.2750 C   0  0  1  0  0  3  0  0  0  0  0  0
  184.4100  178.3070  141.0000 O   0  0  0  0  0  1  0  0  0  0  0  0
  187.2640  177.3790  143.6860 C   0  0  1  0  0  3  0  0  0  0  0  0
  183.7310  178.8360  143.7120 C   0  0  0  0  0  1  0  0  0  0  0  0
  186.5880  177.8790  141.4250 C   0  0  0  0  0  2  0  0  0  0  0  0
  187.6810  178.0730  142.4520 C   0  0  2  0  0  3  0  0  0  0  0  0
  186.3890  179.3950  144.6080 F   0  0  0  0  0  0  0  0  0  0  0  0
  189.4710  177.2260  143.4160 C   0  0  1  0  0  3  0  0  0  0  0  0
  188.4730  176.1800  145.2670 C   0  0  0  0  0  1  0  0  0  0  0  0
  2 15  2  0  0  0  0
  4 21  1  1  0  0  0
  4  6  1  0  0  0  0
  5  1  1  0  0  0  0
  5  4  1  0  0  0  0
  6  8  1  6  0  0  0
  8  7  1  0  0  0  0
  9  3  2  0  0  0  0
  9 11  1  0  0  0  0
 10  1  1  6  0  0  0
 10  6  1  0  0  0  0
 10  9  1  0  0  0  0
 11  7  1  0  0  0  0
 12  2  1  0  0  0  0
 13 12  2  0  0  0  0
 14 16  2  0  0  0  0
 14 13  1  0  0  0  0
 15  3  1  0  0  0  0
 16 17  1  0  0  0  0
 17  1  2  0  0  0  0
 17  2  1  0  0  0  0
 18 13  1  0  0  0  0
 18 20  1  0  0  0  0
 19 18  2  0  0  0  0
 22 34  1  0  0  0  0
 23 31  1  0  0  0  0
 23 33  1  0  0  0  0
 24 29  1  1  0  0  0
 24 26  1  0  0  0  0
 25 24  1  0  0  0  0
 26 32  1  6  0  0  0
 27 25  1  0  0  0  0
 28 26  1  0  0  0  0
 28 22  1  1  0  0  0
 30 25  1  0  0  0  0
 31 30  1  6  0  0  0
 31 28  1  0  0  0  0
 33 21  1  1  0  0  0
 33 22  1  0  0  0  0
M  END
>  <MODEL>
2

>  <REMARK>
 VINA RESULT:      -8.5      2.668      6.794
  Name = 
  3 active torsions:
  status: ('A' for Active; 'I' for Inactive)
    1  A    between atoms: C_3  and  C_25
    2  A    between atoms: C_8  and  C_18
    3  A    between atoms: C_18  and  C_30
                            x       y       z     vdW  Elec       q    Type
                         _______ _______ _______ _____ _____    ______ ____

>  <TORSDO>
F 3

$$$$
=
 OpenBabel11052420383D

 34 39  0  0  1  0  0  0  0  0999 V2000
  189.5600  175.9290  144.0750 C   0  0  0  0  0  0  0  0  0  0  0  0
  187.2860  176.8300  144.6600 C   0  0  0  0  0  0  0  0  0  0  0  0
  188.3630  176.3750  146.8910 C   0  0  0  0  0  3  0  0  0  0  0  0
  191.7880  175.6210  143.5920 C   0  0  2  0  0  3  0  0  0  0  0  0
  190.4820  175.7900  143.0490 O   0  0  0  0  0  0  0  0  0  0  0  0
  191.6500  175.9600  145.0780 C   0  0  2  0  0  3  0  0  0  0  0  0
  191.9370  175.3430  147.2320 C   0  0  0  0  0  2  0  0  0  0  0  0
  192.1330  174.9210  145.8970 O   0  0  0  0  0  0  0  0  0  0  0  0
  189.5830  175.9320  146.5710 C   0  0  0  0  0  0  0  0  0  0  0  0
  190.1730  176.0510  145.2330 C   0  0  2  0  0  3  0  0  0  0  0  0
  190.4440  175.2910  147.6230 C   0  0  0  0  0  2  0  0  0  0  0  0
  186.2330  177.5800  143.9570 C   0  0  0  0  0  3  0  0  0  0  0  0
  185.9550  177.3580  142.6680 C   0  0  0  0  0  0  0  0  0  0  0  0
  186.7090  176.3420  141.9090 C   0  0  0  0  0  3  0  0  0  0  0  0
  187.3940  177.0180  145.9790 C   0  0  0  0  0  3  0  0  0  0  0  0
  187.6820  175.6220  142.4690 C   0  0  0  0  0  3  0  0  0  0  0  0
  188.0770  175.7700  143.9180 C   0  0  0  0  0  0  0  0  0  0  0  0
  184.9020  178.1340  141.9930 C   0  0  0  0  0  0  0  0  0  0  0  0
  185.1130  178.6610  140.8680 O   0  0  0  0  0  0  0  0  0  0  0  0
  183.6580  178.2920  142.5930 O   0  0  0  0  0  1  0  0  0  0  0  0
  192.8530  176.4600  142.8740 C   0  0  0  0  0  2  0  0  0  0  0  0
  194.9930  175.7370  143.9320 N   0  0  0  0  0  0  0  0  0  0  0  0
  194.1610  174.5430  142.0470 O   0  0  0  0  0  0  0  0  0  0  0  0
  196.7050  172.3960  144.5410 C   0  0  1  0  0  3  0  0  0  0  0  0
  195.7920  171.6360  143.6560 N   0  0  0  0  0  0  0  0  0  0  0  0
  196.1090  173.7520  144.9890 C   0  0  1  0  0  3  0  0  0  0  0  0
  196.4910  170.5890  143.1570 O   0  0  0  0  0  1  0  0  0  0  0  0
  195.6840  174.4930  143.7340 C   0  0  1  0  0  3  0  0  0  0  0  0
  197.0770  171.5700  145.7630 C   0  0  0  0  0  1  0  0  0  0  0  0
  195.3800  172.4440  142.4970 C   0  0  0  0  0  2  0  0  0  0  0  0
  194.6830  173.6840  143.0120 C   0  0  2  0  0  3  0  0  0  0  0  0
  195.0270  173.5620  145.8280 F   0  0  0  0  0  0  0  0  0  0  0  0
  194.2320  175.8140  142.6780 C   0  0  1  0  0  3  0  0  0  0  0  0
  195.9910  176.7910  143.8880 C   0  0  0  0  0  1  0  0  0  0  0  0
  2 15  2  0  0  0  0
  4 21  1  6  0  0  0
  4  6  1  0  0  0  0
  5  4  1  0  0  0  0
  5  1  1  0  0  0  0
  6 10  1  0  0  0  0
  6  8  1  1  0  0  0
  7 11  1  0  0  0  0
  8  7  1  0  0  0  0
  9  3  2  0  0  0  0
  9 11  1  0  0  0  0
 10  1  1  6  0  0  0
 10  9  1  0  0  0  0
 12  2  1  0  0  0  0
 13 12  2  0  0  0  0
 14 16  2  0  0  0  0
 14 13  1  0  0  0  0
 15  3  1  0  0  0  0
 16 17  1  0  0  0  0
 17  1  2  0  0  0  0
 17  2  1  0  0  0  0
 18 20  1  0  0  0  0
 18 13  1  0  0  0  0
 19 18  2  0  0  0  0
 23 33  1  0  0  0  0
 23 31  1  0  0  0  0
 24 26  1  0  0  0  0
 24 29  1  1  0  0  0
 25 24  1  0  0  0  0
 26 32  1  1  0  0  0
 27 25  1  0  0  0  0
 28 22  1  1  0  0  0
 28 26  1  0  0  0  0
 30 25  1  0  0  0  0
 31 30  1  6  0  0  0
 31 28  1  0  0  0  0
 33 21  1  1  0  0  0
 33 22  1  0  0  0  0
 34 22  1  0  0  0  0
M  END
>  <MODEL>
3

>  <REMARK>
 VINA RESULT:      -8.5      2.852      6.266
  Name = 
  3 active torsions:
  status: ('A' for Active; 'I' for Inactive)
    1  A    between atoms: C_3  and  C_25
    2  A    between atoms: C_8  and  C_18
    3  A    between atoms: C_18  and  C_30
                            x       y       z     vdW  Elec       q    Type
                         _______ _______ _______ _____ _____    ______ ____

>  <TORSDO>
F 3

$$$$
=
 OpenBabel11052420383D

 34 39  0  0  1  0  0  0  0  0999 V2000
  188.5600  176.8300  143.2640 C   0  0  0  0  0  0  0  0  0  0  0  0
  188.5280  177.5390  145.6780 C   0  0  0  0  0  0  0  0  0  0  0  0
  186.3940  178.4830  144.7270 C   0  0  0  0  0  3  0  0  0  0  0  0
  188.3020  175.7640  141.2420 C   0  0  2  0  0  3  0  0  0  0  0  0
  189.1690  175.9820  142.3510 O   0  0  0  0  0  0  0  0  0  0  0  0
  186.9480  176.3300  141.6750 C   0  0  2  0  0  3  0  0  0  0  0  0
  185.2190  177.7240  141.2640 C   0  0  0  0  0  2  0  0  0  0  0  0
  186.4540  177.2680  140.7490 O   0  0  0  0  0  0  0  0  0  0  0  0
  186.4020  178.0700  143.4560 C   0  0  0  0  0  0  0  0  0  0  0  0
  187.3020  177.0350  142.9360 C   0  0  0  0  0  0  0  0  0  0  0  0
  185.4270  178.6600  142.4750 C   0  0  0  0  0  2  0  0  0  0  0  0
  189.2290  177.1360  146.9070 C   0  0  0  0  0  3  0  0  0  0  0  0
  190.5180  176.7820  146.8950 C   0  0  0  0  0  0  0  0  0  0  0  0
  191.2780  176.7830  145.6300 C   0  0  0  0  0  3  0  0  0  0  0  0
  187.2850  178.0140  145.8100 C   0  0  0  0  0  3  0  0  0  0  0  0
  190.7170  177.1300  144.4710 C   0  0  0  0  0  3  0  0  0  0  0  0
  189.2760  177.5640  144.3590 C   0  0  1  0  0  3  0  0  0  0  0  0
  191.1860  176.3730  148.1420 C   0  0  0  0  0  0  0  0  0  0  0  0
  191.4180  175.1580  148.3800 O   0  0  0  0  0  0  0  0  0  0  0  0
  191.5710  177.3320  149.0720 O   0  0  0  0  0  1  0  0  0  0  0  0
  188.2370  174.2950  140.8080 C   0  0  0  0  0  2  0  0  0  0  0  0
  190.7180  174.0940  140.6470 N   0  0  0  0  0  0  0  0  0  0  0  0
  189.5730  173.0130  142.4340 O   0  0  0  0  0  0  0  0  0  0  0  0
  193.5750  173.8930  143.1500 C   0  0  1  0  0  3  0  0  0  0  0  0
  192.6890  173.6760  144.3170 N   0  0  0  0  0  0  0  0  0  0  0  0
  192.8280  174.5090  141.9430 C   0  0  1  0  0  3  0  0  0  0  0  0
  193.3830  172.9440  145.2210 O   0  0  0  0  0  1  0  0  0  0  0  0
  191.6210  173.6320  141.6650 C   0  0  1  0  0  3  0  0  0  0  0  0
  194.7540  174.7770  143.5300 C   0  0  0  0  0  1  0  0  0  0  0  0
  191.5150  172.8680  143.9510 C   0  0  0  0  0  2  0  0  0  0  0  0
  190.7600  173.6010  142.8640 C   0  0  2  0  0  3  0  0  0  0  0  0
  192.4310  175.8050  142.2170 F   0  0  0  0  0  0  0  0  0  0  0  0
  189.4790  173.4330  141.0800 C   0  0  1  0  0  3  0  0  0  0  0  0
  191.1210  173.4630  139.4020 C   0  0  0  0  0  1  0  0  0  0  0  0
  1 17  1  0  0  0  0
  2 15  2  0  0  0  0
  2 12  1  0  0  0  0
  3 15  1  0  0  0  0
  4 21  1  1  0  0  0
  4  6  1  0  0  0  0
  4  5  1  0  0  0  0
  5  1  1  0  0  0  0
  6  8  1  6  0  0  0
  6 10  1  0  0  0  0
  7 11  1  0  0  0  0
  8  7  1  0  0  0  0
  9  3  2  0  0  0  0
 10  1  2  0  0  0  0
 10  9  1  0  0  0  0
 11  9  1  0  0  0  0
 13 12  2  0  0  0  0
 13 18  1  0  0  0  0
 14 13  1  0  0  0  0
 16 14  2  0  0  0  0
 17 16  1  1  0  0  0
 17  2  1  0  0  0  0
 18 19  2  0  0  0  0
 18 20  1  0  0  0  0
 22 33  1  0  0  0  0
 23 31  1  0  0  0  0
 24 29  1  1  0  0  0
 24 25  1  0  0  0  0
 25 27  1  0  0  0  0
 26 32  1  1  0  0  0
 26 24  1  0  0  0  0
 28 22  1  6  0  0  0
 28 26  1  0  0  0  0
 28 31  1  0  0  0  0
 30 25  1  0  0  0  0
 31 30  1  1  0  0  0
 33 21  1  1  0  0  0
 33 23  1  0  0  0  0
 34 22  1  0  0  0  0
M  END
>  <MODEL>
4

>  <REMARK>
 VINA RESULT:      -8.3      1.750      2.386
  Name = 
  3 active torsions:
  status: ('A' for Active; 'I' for Inactive)
    1  A    between atoms: C_3  and  C_25
    2  A    between atoms: C_8  and  C_18
    3  A    between atoms: C_18  and  C_30
                            x       y       z     vdW  Elec       q    Type
                         _______ _______ _______ _____ _____    ______ ____

>  <TORSDO>
F 3

$$$$
=
 OpenBabel11052420383D

 34 39  0  0  1  0  0  0  0  0999 V2000
  188.4030  176.9280  143.2850 C   0  0  0  0  0  0  0  0  0  0  0  0
  188.4710  177.5760  145.7150 C   0  0  0  0  0  0  0  0  0  0  0  0
  186.3000  178.5430  144.8770 C   0  0  0  0  0  3  0  0  0  0  0  0
  188.0610  175.9130  141.2490 C   0  0  2  0  0  3  0  0  0  0  0  0
  188.9720  176.1030  142.3270 O   0  0  0  0  0  0  0  0  0  0  0  0
  186.7260  176.4670  141.7520 C   0  0  2  0  0  3  0  0  0  0  0  0
  184.9820  177.8700  141.4480 C   0  0  0  0  0  2  0  0  0  0  0  0
  186.1950  177.4280  140.8700 O   0  0  0  0  0  0  0  0  0  0  0  0
  186.2560  178.1620  143.5970 C   0  0  0  0  0  0  0  0  0  0  0  0
  187.1320  177.1400  143.0140 C   0  0  0  0  0  0  0  0  0  0  0  0
  185.2420  178.7760  142.6720 C   0  0  0  0  0  2  0  0  0  0  0  0
  189.2220  177.1430  146.9030 C   0  0  0  0  0  3  0  0  0  0  0  0
  190.5090  176.7890  146.8290 C   0  0  0  0  0  0  0  0  0  0  0  0
  191.2160  176.8220  145.5350 C   0  0  0  0  0  3  0  0  0  0  0  0
  187.2350  178.0480  145.9100 C   0  0  0  0  0  3  0  0  0  0  0  0
  190.6080  177.1980  144.4080 C   0  0  0  0  0  3  0  0  0  0  0  0
  189.1650  177.6340  144.3670 C   0  0  1  0  0  3  0  0  0  0  0  0
  191.2280  176.3490  148.0370 C   0  0  0  0  0  0  0  0  0  0  0  0
  191.5680  177.1790  148.9210 O   0  0  0  0  0  1  0  0  0  0  0  0
  191.5380  175.0050  148.2130 O   0  0  0  0  0  0  0  0  0  0  0  0
  187.9770  174.4550  140.7820 C   0  0  0  0  0  2  0  0  0  0  0  0
  190.1040  173.1550  140.8730 N   0  0  0  0  0  0  0  0  0  0  0  0
  188.8020  173.1240  138.8790 O   0  0  0  0  0  0  0  0  0  0  0  0
  191.3080  169.8500  139.4270 C   0  0  1  0  0  3  0  0  0  0  0  0
  190.1550  169.7000  138.5090 N   0  0  0  0  0  0  0  0  0  0  0  0
  191.0240  170.8370  140.5840 C   0  0  1  0  0  3  0  0  0  0  0  0
  190.5830  168.9990  137.4330 O   0  0  0  0  0  1  0  0  0  0  0  0
  190.5380  172.1330  139.9610 C   0  0  1  0  0  3  0  0  0  0  0  0
  191.7220  168.5000  139.9930 C   0  0  0  0  0  1  0  0  0  0  0  0
  189.7090  171.0050  137.9970 C   0  0  0  0  0  2  0  0  0  0  0  0
  189.3160  171.8650  139.1780 C   0  0  2  0  0  3  0  0  0  0  0  0
  190.0680  170.3270  141.4440 F   0  0  0  0  0  0  0  0  0  0  0  0
  189.1810  173.9010  140.0070 C   0  0  1  0  0  3  0  0  0  0  0  0
  191.2450  174.0190  141.1210 C   0  0  0  0  0  1  0  0  0  0  0  0
  1 17  1  0  0  0  0
  2 15  2  0  0  0  0
  2 12  1  0  0  0  0
  3 15  1  0  0  0  0
  4 21  1  1  0  0  0
  4  6  1  0  0  0  0
  4  5  1  0  0  0  0
  5  1  1  0  0  0  0
  6  8  1  6  0  0  0
  6 10  1  0  0  0  0
  7 11  1  0  0  0  0
  8  7  1  0  0  0  0
  9  3  2  0  0  0  0
 10  1  2  0  0  0  0
 10  9  1  0  0  0  0
 11  9  1  0  0  0  0
 13 12  2  0  0  0  0
 13 18  1  0  0  0  0
 14 13  1  0  0  0  0
 16 14  2  0  0  0  0
 17 16  1  1  0  0  0
 17  2  1  0  0  0  0
 18 20  2  0  0  0  0
 18 19  1  0  0  0  0
 22 34  1  0  0  0  0
 23 31  1  0  0  0  0
 23 33  1  0  0  0  0
 24 29  1  1  0  0  0
 24 26  1  0  0  0  0
 25 24  1  0  0  0  0
 26 32  1  1  0  0  0
 27 25  1  0  0  0  0
 28 26  1  0  0  0  0
 28 22  1  1  0  0  0
 30 25  1  0  0  0  0
 31 30  1  6  0  0  0
 31 28  1  0  0  0  0
 33 21  1  1  0  0  0
 33 22  1  0  0  0  0
M  END
>  <MODEL>
5

>  <REMARK>
 VINA RESULT:      -8.1      2.830      3.455
  Name = 
  3 active torsions:
  status: ('A' for Active; 'I' for Inactive)
    1  A    between atoms: C_3  and  C_25
    2  A    between atoms: C_8  and  C_18
    3  A    between atoms: C_18  and  C_30
                            x       y       z     vdW  Elec       q    Type
                         _______ _______ _______ _____ _____    ______ ____

>  <TORSDO>
F 3

$$$$
=
 OpenBabel11052420383D

 34 39  0  0  1  0  0  0  0  0999 V2000
  188.4460  177.5410  144.8230 C   0  0  0  0  0  0  0  0  0  0  0  0
  190.1260  175.8810  145.6910 C   0  0  0  0  0  0  0  0  0  0  0  0
  188.1910  175.7000  147.2950 C   0  0  0  0  0  3  0  0  0  0  0  0
  186.7140  178.6290  143.7710 C   0  0  2  0  0  3  0  0  0  0  0  0
  188.1060  178.3280  143.7340 O   0  0  0  0  0  0  0  0  0  0  0  0
  186.1340  177.7060  144.8450 C   0  0  2  0  0  3  0  0  0  0  0  0
  184.9500  177.4730  146.7540 C   0  0  0  0  0  2  0  0  0  0  0  0
  185.4170  178.4260  145.8190 O   0  0  0  0  0  0  0  0  0  0  0  0
  187.2910  176.5570  146.8050 C   0  0  0  0  0  0  0  0  0  0  0  0
  187.3660  177.1480  145.4650 C   0  0  2  0  0  3  0  0  0  0  0  0
  186.1000  176.9430  147.6380 C   0  0  0  0  0  2  0  0  0  0  0  0
  191.3190  175.2070  145.1560 C   0  0  0  0  0  3  0  0  0  0  0  0
  192.1700  175.8330  144.3360 C   0  0  0  0  0  0  0  0  0  0  0  0
  191.9270  177.2330  143.9400 C   0  0  0  0  0  3  0  0  0  0  0  0
  189.4150  175.2250  146.6140 C   0  0  0  0  0  3  0  0  0  0  0  0
  190.8670  177.9160  144.3770 C   0  0  0  0  0  3  0  0  0  0  0  0
  189.8470  177.3240  145.3170 C   0  0  0  0  0  0  0  0  0  0  0  0
  193.3490  175.1250  143.8100 C   0  0  0  0  0  0  0  0  0  0  0  0
  194.3390  175.7650  143.3670 O   0  0  0  0  0  0  0  0  0  0  0  0
  193.3790  173.7340  143.7990 O   0  0  0  0  0  1  0  0  0  0  0  0
  186.0290  178.4790  142.4070 C   0  0  0  0  0  2  0  0  0  0  0  0
  187.4280  177.0490  140.9170 N   0  0  0  0  0  0  0  0  0  0  0  0
  186.0660  176.0210  142.5790 O   0  0  0  0  0  0  0  0  0  0  0  0
  189.3500  173.7940  141.3330 C   0  0  1  0  0  3  0  0  0  0  0  0
  188.7470  173.4730  142.6480 N   0  0  0  0  0  0  0  0  0  0  0  0
  189.2200  175.2910  140.9690 C   0  0  1  0  0  3  0  0  0  0  0  0
  188.7220  172.1230  142.7630 O   0  0  0  0  0  1  0  0  0  0  0  0
  187.7540  175.6610  141.1000 C   0  0  1  0  0  3  0  0  0  0  0  0
  190.8140  173.3820  141.3010 C   0  0  0  0  0  1  0  0  0  0  0  0
  187.3460  173.9160  142.7140 C   0  0  0  0  0  2  0  0  0  0  0  0
  187.3140  175.4100  142.4860 C   0  0  2  0  0  3  0  0  0  0  0  0
  189.9920  176.0730  141.8100 F   0  0  0  0  0  0  0  0  0  0  0  0
  186.1830  177.1280  141.6950 C   0  0  1  0  0  3  0  0  0  0  0  0
  187.0660  177.2210  139.5210 C   0  0  0  0  0  1  0  0  0  0  0  0
  1 17  2  0  0  0  0
  2 15  2  0  0  0  0
  4 21  1  6  0  0  0
  4  6  1  0  0  0  0
  5  4  1  0  0  0  0
  5  1  1  0  0  0  0
  6 10  1  0  0  0  0
  6  8  1  1  0  0  0
  7 11  1  0  0  0  0
  8  7  1  0  0  0  0
  9  3  2  0  0  0  0
  9 11  1  0  0  0  0
 10  1  1  1  0  0  0
 10  9  1  0  0  0  0
 12  2  1  0  0  0  0
 13 12  2  0  0  0  0
 14 13  1  0  0  0  0
 14 16  2  0  0  0  0
 15  3  1  0  0  0  0
 16 17  1  0  0  0  0
 17  2  1  0  0  0  0
 18 13  1  0  0  0  0
 19 18  2  0  0  0  0
 20 18  1  0  0  0  0
 22 33  1  0  0  0  0
 24 29  1  1  0  0  0
 24 25  1  0  0  0  0
 25 30  1  0  0  0  0
 25 27  1  0  0  0  0
 26 28  1  0  0  0  0
 26 24  1  0  0  0  0
 26 32  1  1  0  0  0
 28 22  1  1  0  0  0
 28 31  1  0  0  0  0
 31 23  1  0  0  0  0
 31 30  1  6  0  0  0
 33 21  1  1  0  0  0
 33 23  1  0  0  0  0
 34 22  1  0  0  0  0
M  END
>  <MODEL>
6

>  <REMARK>
 VINA RESULT:      -8.1      1.720      2.253
  Name = 
  3 active torsions:
  status: ('A' for Active; 'I' for Inactive)
    1  A    between atoms: C_3  and  C_25
    2  A    between atoms: C_8  and  C_18
    3  A    between atoms: C_18  and  C_30
                            x       y       z     vdW  Elec       q    Type
                         _______ _______ _______ _____ _____    ______ ____

>  <TORSDO>
F 3

$$$$
=
 OpenBabel11052420383D

 34 39  0  0  1  0  0  0  0  0999 V2000
  189.2050  174.5290  143.8650 C   0  0  0  0  0  0  0  0  0  0  0  0
  188.2190  174.9160  141.5840 C   0  0  0  0  0  0  0  0  0  0  0  0
  187.1090  176.6480  143.0390 C   0  0  0  0  0  3  0  0  0  0  0  0
  190.4560  174.5540  145.7960 C   0  0  2  0  0  3  0  0  0  0  0  0
  190.2300  173.8970  144.5520 O   0  0  0  0  0  0  0  0  0  0  0  0
  189.6630  175.8600  145.7070 C   0  0  2  0  0  3  0  0  0  0  0  0
  188.1030  177.2330  146.5910 C   0  0  0  0  0  2  0  0  0  0  0  0
  188.7810  176.0100  146.7950 O   0  0  0  0  0  0  0  0  0  0  0  0
  187.6660  176.4590  144.2390 C   0  0  0  0  0  0  0  0  0  0  0  0
  188.8690  175.6500  144.4670 C   0  0  2  0  0  3  0  0  0  0  0  0
  187.0680  177.1180  145.4510 C   0  0  0  0  0  2  0  0  0  0  0  0
  188.5660  174.5400  140.2040 C   0  0  0  0  0  3  0  0  0  0  0  0
  189.0930  173.3460  139.9150 C   0  0  0  0  0  0  0  0  0  0  0  0
  189.3450  172.3640  140.9870 C   0  0  0  0  0  3  0  0  0  0  0  0
  187.5650  176.0700  141.7570 C   0  0  0  0  0  3  0  0  0  0  0  0
  189.0630  172.6270  142.2650 C   0  0  0  0  0  3  0  0  0  0  0  0
  188.4520  173.9310  142.7130 C   0  0  0  0  0  0  0  0  0  0  0  0
  189.4400  173.0060  138.5250 C   0  0  0  0  0  0  0  0  0  0  0  0
  190.3510  172.1730  138.2740 O   0  0  0  0  0  1  0  0  0  0  0  0
  188.7570  173.6030  137.4710 O   0  0  0  0  0  0  0  0  0  0  0  0
  191.9430  174.7660  146.1030 C   0  0  0  0  0  2  0  0  0  0  0  0
  194.0830  175.9790  145.6890 N   0  0  0  0  0  0  0  0  0  0  0  0
  192.5400  175.6920  143.8980 O   0  0  0  0  0  0  0  0  0  0  0  0
  196.5020  176.2600  142.7680 C   0  0  1  0  0  3  0  0  0  0  0  0
  195.5860  175.6150  141.7990 N   0  0  0  0  0  0  0  0  0  0  0  0
  196.1310  175.9460  144.2370 C   0  0  1  0  0  3  0  0  0  0  0  0
  195.8650  176.1260  140.5760 O   0  0  0  0  0  1  0  0  0  0  0  0
  194.6660  176.3040  144.4170 C   0  0  1  0  0  3  0  0  0  0  0  0
  197.9410  175.8440  142.5020 C   0  0  0  0  0  1  0  0  0  0  0  0
  194.1840  175.9640  142.0780 C   0  0  0  0  0  2  0  0  0  0  0  0
  193.8550  175.5020  143.4800 C   0  0  2  0  0  3  0  0  0  0  0  0
  196.3410  174.6110  144.5250 F   0  0  0  0  0  0  0  0  0  0  0  0
  192.6700  175.8570  145.3040 C   0  0  1  0  0  3  0  0  0  0  0  0
  194.1940  177.1630  146.5240 C   0  0  0  0  0  1  0  0  0  0  0  0
  1  5  1  0  0  0  0
  2 15  2  0  0  0  0
  2 17  1  0  0  0  0
  3  9  2  0  0  0  0
  4 21  1  6  0  0  0
  5  4  1  0  0  0  0
  6  4  1  0  0  0  0
  6  8  1  1  0  0  0
  7  8  1  0  0  0  0
  9 10  1  0  0  0  0
  9 11  1  0  0  0  0
 10  1  1  1  0  0  0
 10  6  1  0  0  0  0
 11  7  1  0  0  0  0
 12  2  1  0  0  0  0
 13 12  2  0  0  0  0
 13 14  1  0  0  0  0
 14 16  2  0  0  0  0
 15  3  1  0  0  0  0
 16 17  1  0  0  0  0
 17  1  2  0  0  0  0
 18 13  1  0  0  0  0
 19 18  1  0  0  0  0
 20 18  2  0  0  0  0
 22 34  1  0  0  0  0
 23 33  1  0  0  0  0
 24 29  1  6  0  0  0
 24 26  1  0  0  0  0
 25 30  1  0  0  0  0
 25 24  1  0  0  0  0
 26 28  1  0  0  0  0
 26 32  1  6  0  0  0
 27 25  1  0  0  0  0
 28 22  1  1  0  0  0
 31 30  1  6  0  0  0
 31 23  1  0  0  0  0
 31 28  1  0  0  0  0
 33 22  1  0  0  0  0
 33 21  1  1  0  0  0
M  END
>  <MODEL>
7

>  <REMARK>
 VINA RESULT:      -8.1      3.102      6.129
  Name = 
  3 active torsions:
  status: ('A' for Active; 'I' for Inactive)
    1  A    between atoms: C_3  and  C_25
    2  A    between atoms: C_8  and  C_18
    3  A    between atoms: C_18  and  C_30
                            x       y       z     vdW  Elec       q    Type
                         _______ _______ _______ _____ _____    ______ ____

>  <TORSDO>
F 3

$$$$
=
 OpenBabel11052420383D

 34 39  0  0  1  0  0  0  0  0999 V2000
  187.0210  176.9490  144.4110 C   0  0  0  0  0  0  0  0  0  0  0  0
  185.6590  177.4800  142.3640 C   0  0  0  0  0  0  0  0  0  0  0  0
  184.2890  178.3910  144.2730 C   0  0  0  0  0  3  0  0  0  0  0  0
  188.4600  176.9600  146.2060 C   0  0  2  0  0  3  0  0  0  0  0  0
  188.2740  176.5530  144.8540 O   0  0  0  0  0  0  0  0  0  0  0  0
  187.3050  177.9210  146.4970 C   0  0  2  0  0  3  0  0  0  0  0  0
  185.5400  178.4800  147.7910 C   0  0  0  0  0  2  0  0  0  0  0  0
  186.5790  177.5330  147.6390 O   0  0  0  0  0  0  0  0  0  0  0  0
  185.0380  178.1380  145.3510 C   0  0  0  0  0  0  0  0  0  0  0  0
  186.4480  177.7390  145.2940 C   0  0  2  0  0  3  0  0  0  0  0  0
  184.4420  178.2840  146.7230 C   0  0  0  0  0  2  0  0  0  0  0  0
  185.9090  177.5480  140.9160 C   0  0  0  0  0  3  0  0  0  0  0  0
  186.7280  176.6860  140.3050 C   0  0  0  0  0  0  0  0  0  0  0  0
  187.4110  175.6320  141.0790 C   0  0  0  0  0  3  0  0  0  0  0  0
  184.7170  178.2880  142.8610 C   0  0  0  0  0  3  0  0  0  0  0  0
  187.2430  175.5030  142.3960 C   0  0  0  0  0  3  0  0  0  0  0  0
  186.3330  176.4040  143.1940 C   0  0  0  0  0  0  0  0  0  0  0  0
  186.9660  176.7900  138.8560 C   0  0  0  0  0  0  0  0  0  0  0  0
  187.0670  177.9160  138.2990 O   0  0  0  0  0  1  0  0  0  0  0  0
  187.0840  175.6390  138.0840 O   0  0  0  0  0  0  0  0  0  0  0  0
  189.8410  177.5750  146.4650 C   0  0  0  0  0  2  0  0  0  0  0  0
  190.8800  175.3400  146.0800 N   0  0  0  0  0  0  0  0  0  0  0  0
  191.4200  177.1440  144.6230 O   0  0  0  0  0  0  0  0  0  0  0  0
  191.9150  173.3400  143.0150 C   0  0  1  0  0  3  0  0  0  0  0  0
  191.7620  174.4780  142.0790 N   0  0  0  0  0  0  0  0  0  0  0  0
  191.1420  173.5500  144.3390 C   0  0  1  0  0  3  0  0  0  0  0  0
  192.6410  174.2900  141.0660 O   0  0  0  0  0  1  0  0  0  0  0  0
  191.5700  174.8940  144.9020 C   0  0  1  0  0  3  0  0  0  0  0  0
  191.4660  172.0430  142.3590 C   0  0  0  0  0  1  0  0  0  0  0  0
  192.1400  175.7480  142.7190 C   0  0  0  0  0  2  0  0  0  0  0  0
  191.2490  175.9520  143.9240 C   0  0  2  0  0  3  0  0  0  0  0  0
  189.7770  173.5310  144.1220 F   0  0  0  0  0  0  0  0  0  0  0  0
  191.0580  176.7930  145.9510 C   0  0  1  0  0  3  0  0  0  0  0  0
  191.6690  174.9160  147.2230 C   0  0  0  0  0  1  0  0  0  0  0  0
  1  5  1  0  0  0  0
  2 15  2  0  0  0  0
  2 17  1  0  0  0  0
  3  9  2  0  0  0  0
  4 21  1  6  0  0  0
  4  6  1  0  0  0  0
  5  4  1  0  0  0  0
  6  8  1  1  0  0  0
  8  7  1  0  0  0  0
  9 11  1  0  0  0  0
 10  1  1  1  0  0  0
 10  9  1  0  0  0  0
 10  6  1  0  0  0  0
 11  7  1  0  0  0  0
 12  2  1  0  0  0  0
 13 12  2  0  0  0  0
 13 14  1  0  0  0  0
 14 16  2  0  0  0  0
 15  3  1  0  0  0  0
 16 17  1  0  0  0  0
 17  1  2  0  0  0  0
 18 13  1  0  0  0  0
 19 18  1  0  0  0  0
 20 18  2  0  0  0  0
 22 34  1  0  0  0  0
 23 33  1  0  0  0  0
 24 29  1  6  0  0  0
 24 26  1  0  0  0  0
 25 30  1  0  0  0  0
 25 24  1  0  0  0  0
 26 32  1  6  0  0  0
 26 28  1  0  0  0  0
 27 25  1  0  0  0  0
 28 22  1  1  0  0  0
 31 30  1  6  0  0  0
 31 23  1  0  0  0  0
 31 28  1  0  0  0  0
 33 22  1  0  0  0  0
 33 21  1  6  0  0  0
M  END
>  <MODEL>
8

>  <REMARK>
 VINA RESULT:      -8.0      2.262      5.468
  Name = 
  3 active torsions:
  status: ('A' for Active; 'I' for Inactive)
    1  A    between atoms: C_3  and  C_25
    2  A    between atoms: C_8  and  C_18
    3  A    between atoms: C_18  and  C_30
                            x       y       z     vdW  Elec       q    Type
                         _______ _______ _______ _____ _____    ______ ____

>  <TORSDO>
F 3

$$$$
=
 OpenBabel11052420383D

 34 39  0  0  1  0  0  0  0  0999 V2000
  188.8850  177.2640  143.6220 C   0  0  0  0  0  0  0  0  0  0  0  0
  189.9180  177.1670  145.9140 C   0  0  0  0  0  0  0  0  0  0  0  0
  187.4720  177.5840  146.3550 C   0  0  0  0  0  3  0  0  0  0  0  0
  187.8500  176.8270  141.6150 C   0  0  2  0  0  3  0  0  0  0  0  0
  189.0990  176.9800  142.2820 O   0  0  0  0  0  0  0  0  0  0  0  0
  186.8060  176.7520  142.7320 C   0  0  2  0  0  3  0  0  0  0  0  0
  184.9000  177.5450  143.6480 C   0  0  0  0  0  2  0  0  0  0  0  0
  185.7830  177.7030  142.5540 O   0  0  0  0  0  0  0  0  0  0  0  0
  186.9270  177.5960  145.1350 C   0  0  0  0  0  0  0  0  0  0  0  0
  187.6120  177.1250  143.9260 C   0  0  0  0  0  0  0  0  0  0  0  0
  185.5200  178.0920  144.9530 C   0  0  0  0  0  2  0  0  0  0  0  0
  191.1820  176.6750  146.4840 C   0  0  0  0  0  3  0  0  0  0  0  0
  192.3400  176.7900  145.8260 C   0  0  0  0  0  0  0  0  0  0  0  0
  192.3790  177.4220  144.4930 C   0  0  0  0  0  3  0  0  0  0  0  0
  188.8390  177.1390  146.7030 C   0  0  0  0  0  3  0  0  0  0  0  0
  191.2780  177.8910  143.9030 C   0  0  0  0  0  3  0  0  0  0  0  0
  189.9170  177.8320  144.5510 C   0  0  1  0  0  3  0  0  0  0  0  0
  193.5850  176.2760  146.4210 C   0  0  0  0  0  0  0  0  0  0  0  0
  193.7900  175.0370  146.5120 O   0  0  0  0  0  0  0  0  0  0  0  0
  194.5520  177.1600  146.8870 O   0  0  0  0  0  1  0  0  0  0  0  0
  187.8160  175.6200  140.6690 C   0  0  0  0  0  2  0  0  0  0  0  0
  188.1430  173.1540  140.4950 N   0  0  0  0  0  0  0  0  0  0  0  0
  190.0420  174.5670  140.7500 O   0  0  0  0  0  0  0  0  0  0  0  0
  190.7830  170.8860  138.9620 C   0  0  1  0  0  3  0  0  0  0  0  0
  191.7550  171.9800  138.7340 N   0  0  0  0  0  0  0  0  0  0  0  0
  189.3370  171.4030  139.1480 C   0  0  1  0  0  3  0  0  0  0  0  0
  192.9950  171.4410  138.8040 O   0  0  0  0  0  1  0  0  0  0  0  0
  189.3730  172.4550  140.2420 C   0  0  1  0  0  3  0  0  0  0  0  0
  190.8260  169.8830  137.8190 C   0  0  0  0  0  1  0  0  0  0  0  0
  191.6840  172.9860  139.8050 C   0  0  0  0  0  2  0  0  0  0  0  0
  190.2800  173.5460  139.8340 C   0  0  2  0  0  3  0  0  0  0  0  0
  188.8510  171.9450  137.9730 F   0  0  0  0  0  0  0  0  0  0  0  0
  188.6660  174.4040  141.0630 C   0  0  1  0  0  3  0  0  0  0  0  0
  187.4660  172.4500  141.5710 C   0  0  0  0  0  1  0  0  0  0  0  0
  1 10  2  0  0  0  0
  1 17  1  0  0  0  0
  2 12  1  0  0  0  0
  2 15  2  0  0  0  0
  3 15  1  0  0  0  0
  4 21  1  1  0  0  0
  4  5  1  0  0  0  0
  4  6  1  0  0  0  0
  5  1  1  0  0  0  0
  6  8  1  6  0  0  0
  6 10  1  0  0  0  0
  7 11  1  0  0  0  0
  8  7  1  0  0  0  0
  9  3  2  0  0  0  0
 10  9  1  0  0  0  0
 11  9  1  0  0  0  0
 13 18  1  0  0  0  0
 13 12  2  0  0  0  0
 14 13  1  0  0  0  0
 16 14  2  0  0  0  0
 17 16  1  6  0  0  0
 17  2  1  0  0  0  0
 18 19  2  0  0  0  0
 18 20  1  0  0  0  0
 22 33  1  0  0  0  0
 22 34  1  0  0  0  0
 23 33  1  0  0  0  0
 24 29  1  6  0  0  0
 24 26  1  0  0  0  0
 25 27  1  0  0  0  0
 25 24  1  0  0  0  0
 25 30  1  0  0  0  0
 26 32  1  6  0  0  0
 26 28  1  0  0  0  0
 28 22  1  6  0  0  0
 31 30  1  1  0  0  0
 31 28  1  0  0  0  0
 31 23  1  0  0  0  0
 33 21  1  6  0  0  0
M  END
>  <MODEL>
9

>  <REMARK>
 VINA RESULT:      -7.8      2.265      2.618
  Name = 
  3 active torsions:
  status: ('A' for Active; 'I' for Inactive)
    1  A    between atoms: C_3  and  C_25
    2  A    between atoms: C_8  and  C_18
    3  A    between atoms: C_18  and  C_30
                            x       y       z     vdW  Elec       q    Type
                         _______ _______ _______ _____ _____    ______ ____

>  <TORSDO>
F 3

$$$$
