=
 OpenBabel11052419263D

 55 63  0  0  1  0  0  0  0  0999 V2000
  195.1190  168.6440  141.8610 C   0  0  0  0  0  2  0  0  0  0  0  0
  186.5730  176.0060  144.9020 O   0  0  0  0  0  1  0  0  0  0  0  0
  192.5080  174.2920  140.4500 C   0  0  0  0  0  2  0  0  0  0  0  0
  191.4040  171.9890  138.7250 C   0  0  0  0  0  1  0  0  0  0  0  0
  189.1550  175.3070  144.3400 O   0  0  0  0  0  0  0  0  0  0  0  0
  191.2510  174.8310  144.1310 C   0  0  2  0  0  3  0  0  0  0  0  0
  193.4470  175.1870  143.1040 C   0  0  0  0  0  2  0  0  0  0  0  0
  192.2410  168.5050  138.1350 O   0  0  0  0  0  0  0  0  0  0  0  0
  188.3940  177.6050  144.8050 C   0  0  0  0  0  2  0  0  0  0  0  0
  188.9970  176.3040  145.3220 C   0  0  1  0  0  0  0  0  0  0  0  0
  191.3110  168.4950  137.0690 C   0  0  0  0  0  2  0  0  0  0  0  0
  194.1700  169.0920  136.8210 C   0  0  1  0  0  3  0  0  0  0  0  0
  193.4680  168.2800  135.7260 C   0  0  0  0  0  2  0  0  0  0  0  0
  192.7220  170.4190  140.2160 C   0  0  0  0  0  2  0  0  0  0  0  0
  192.1360  175.6150  145.0990 C   0  0  1  0  0  3  0  0  0  0  0  0
  193.2860  176.1410  144.2700 C   0  0  0  0  0  2  0  0  0  0  0  0
  191.9610  168.5420  135.6680 C   0  0  0  0  0  2  0  0  0  0  0  0
  194.7140  169.1960  145.5940 C   0  0  0  0  0  3  0  0  0  0  0  0
  193.1480  169.5490  137.8800 C   0  0  2  0  0  3  0  0  0  0  0  0
  193.9580  171.1890  144.4380 C   0  0  0  0  0  0  0  0  0  0  0  0
  195.4270  169.6000  140.8860 O   0  0  0  0  0  0  0  0  0  0  0  0
  194.2990  170.5940  143.2170 C   0  0  0  0  0  3  0  0  0  0  0  0
  195.9250  168.8440  138.6460 C   0  0  2  0  0  3  0  0  0  0  0  0
  191.5360  174.4180  141.6310 C   0  0  0  0  0  2  0  0  0  0  0  0
  195.2520  168.1960  137.4330 C   0  0  0  0  0  2  0  0  0  0  0  0
  193.1390  172.9050  140.3100 C   0  0  0  0  0  2  0  0  0  0  0  0
  187.5570  176.6570  145.6500 C   0  0  2  0  0  0  0  0  0  0  0  0
  192.1030  171.8120  140.0650 C   0  0  1  0  0  3  0  0  0  0  0  0
  195.0340  168.6020  144.3680 C   0  0  0  0  0  3  0  0  0  0  0  0
  191.4480  176.7780  145.8260 C   0  0  0  0  0  2  0  0  0  0  0  0
  192.1850  174.3230  143.0270 C   0  0  2  0  0  0  0  0  0  0  0  0
  194.8370  169.3050  143.1760 C   0  0  0  0  0  0  0  0  0  0  0  0
  193.7920  170.1000  139.1640 C   0  0  2  0  0  3  0  0  0  0  0  0
  190.2200  175.6450  143.6350 O   0  0  0  0  0  0  0  0  0  0  0  0
  194.8450  169.1220  139.7060 C   0  0  2  0  0  3  0  0  0  0  0  0
  192.4980  172.8460  143.2950 C   0  0  0  0  0  2  0  0  0  0  0  0
  190.0700  176.4530  146.4120 C   0  0  2  0  0  3  0  0  0  0  0  0
  193.4260  172.5870  144.4820 C   0  0  0  0  0  2  0  0  0  0  0  0
  194.1810  170.4890  145.6290 C   0  0  0  0  0  3  0  0  0  0  0  0
  190.1040  175.3070  147.3780 C   0  0  0  0  0  0  0  0  0  0  0  0
  189.2360  174.3970  147.3310 O   0  0  0  0  0  0  0  0  0  0  0  0
  191.1270  175.2340  148.3140 O   0  0  0  0  0  1  0  0  0  0  0  0
  187.1850  177.2040  147.0270 C   0  0  1  0  0  3  0  0  0  0  0  0
  187.5910  178.5320  147.1470 O   0  0  0  0  0  1  0  0  0  0  0  0
  185.6900  177.0790  147.3000 C   0  0  0  0  0  2  0  0  0  0  0  0
  185.0350  178.2850  147.0390 O   0  0  0  0  0  1  0  0  0  0  0  0
  197.9410  170.1390  138.9450 O   0  0  0  0  0  1  0  0  0  0  0  0
  196.7350  170.0920  138.2440 C   0  0  1  0  0  3  0  0  0  0  0  0
  197.0250  170.0870  136.7460 C   0  0  0  0  0  2  0  0  0  0  0  0
  196.8650  171.4760  136.1540 C   0  0  0  0  0  2  0  0  0  0  0  0
  196.6410  173.6330  137.3300 C   0  0  1  0  0  3  0  0  0  0  0  0
  194.6540  174.3950  137.0660 N   0  0  0  0  0  2  0  0  0  0  0  0
  195.9520  172.3230  137.0190 C   0  0  1  0  0  3  0  0  0  0  0  0
  195.5710  173.5860  136.2710 C   0  0  2  0  0  3  0  0  0  0  0  0
  195.6730  174.4940  138.0970 C   0  0  0  0  0  2  0  0  0  0  0  0
  1 32  1  0  0  0  0
  3 24  1  0  0  0  0
  5 10  1  0  0  0  0
  6 34  1  6  0  0  0
  6 15  1  0  0  0  0
  7 16  1  0  0  0  0
  9 27  1  0  0  0  0
 10  9  1  6  0  0  0
 10 27  1  0  0  0  0
 10 37  1  0  0  0  0
 11  8  1  0  0  0  0
 12 13  1  6  0  0  0
 12 25  1  0  0  0  0
 12 19  1  0  0  0  0
 15 16  1  6  0  0  0
 15 30  1  0  0  0  0
 17 13  1  0  0  0  0
 17 11  1  0  0  0  0
 18 39  1  0  0  0  0
 19  8  1  1  0  0  0
 19 33  1  0  0  0  0
 20 38  1  0  0  0  0
 20 39  2  0  0  0  0
 21  1  1  0  0  0  0
 22 20  1  0  0  0  0
 23 48  1  6  0  0  0
 23 35  1  0  0  0  0
 25 23  1  0  0  0  0
 26  3  1  0  0  0  0
 27  2  1  6  0  0  0
 27 43  1  0  0  0  0
 28  4  1  6  0  0  0
 28 14  1  0  0  0  0
 28 26  1  0  0  0  0
 29 18  2  0  0  0  0
 30 37  1  0  0  0  0
 31 24  1  6  0  0  0
 31  7  1  0  0  0  0
 31 36  1  0  0  0  0
 31  6  1  0  0  0  0
 32 22  2  0  0  0  0
 32 29  1  0  0  0  0
 33 35  1  0  0  0  0
 33 14  1  1  0  0  0
 34  5  1  0  0  0  0
 35 21  1  1  0  0  0
 36 38  1  0  0  0  0
 37 40  1  6  0  0  0
 40 42  1  0  0  0  0
 41 40  2  0  0  0  0
 43 44  1  6  0  0  0
 43 45  1  0  0  0  0
 46 45  1  0  0  0  0
 48 47  1  1  0  0  0
 49 48  1  0  0  0  0
 50 49  1  0  0  0  0
 51 55  1  1  0  0  0
 52 55  1  0  0  0  0
 53 50  1  6  0  0  0
 53 51  1  0  0  0  0
 54 53  1  0  0  0  0
 54 52  1  1  0  0  0
 54 51  1  0  0  0  0
M  END
>  <MODEL>
1

>  <REMARK>
 VINA RESULT:      -6.4      0.000      0.000
  Name = 
  7 active torsions:
  status: ('A' for Active; 'I' for Inactive)
    1  A    between atoms: C_1  and  C_53
    2  A    between atoms: C_11  and  C_29
    3  A    between atoms: C_13  and  C_48
    4  A    between atoms: C_13  and  C_52
    5  A    between atoms: C_29  and  C_38
    6  A    between atoms: C_32  and  C_48
    7  A    between atoms: C_33  and  C_52
                            x       y       z     vdW  Elec       q    Type
                         _______ _______ _______ _____ _____    ______ ____

>  <TORSDO>
F 7

$$$$
=
 OpenBabel11052419263D

 55 63  0  0  1  0  0  0  0  0999 V2000
  195.1910  168.6180  141.8760 C   0  0  0  0  0  2  0  0  0  0  0  0
  186.6840  176.0450  144.8660 O   0  0  0  0  0  1  0  0  0  0  0  0
  192.6630  174.3070  140.4800 C   0  0  0  0  0  2  0  0  0  0  0  0
  191.5580  172.0320  138.7190 C   0  0  0  0  0  1  0  0  0  0  0  0
  189.2660  175.3230  144.3330 O   0  0  0  0  0  0  0  0  0  0  0  0
  191.3590  174.8260  144.1490 C   0  0  2  0  0  3  0  0  0  0  0  0
  193.5730  175.1670  143.1560 C   0  0  0  0  0  2  0  0  0  0  0  0
  192.3650  168.5440  138.1090 O   0  0  0  0  0  0  0  0  0  0  0  0
  188.5240  177.6250  144.8090 C   0  0  0  0  0  2  0  0  0  0  0  0
  189.1060  176.3120  145.3210 C   0  0  1  0  0  0  0  0  0  0  0  0
  191.4500  168.5540  137.0300 C   0  0  0  0  0  2  0  0  0  0  0  0
  194.3190  169.1220  136.8270 C   0  0  1  0  0  3  0  0  0  0  0  0
  193.6230  168.3280  135.7150 C   0  0  0  0  0  2  0  0  0  0  0  0
  192.8370  170.4340  140.2140 C   0  0  0  0  0  2  0  0  0  0  0  0
  192.2400  175.5920  145.1360 C   0  0  1  0  0  3  0  0  0  0  0  0
  193.4070  176.1120  144.3280 C   0  0  0  0  0  2  0  0  0  0  0  0
  192.1200  168.6070  135.6390 C   0  0  0  0  0  2  0  0  0  0  0  0
  194.7400  169.1400  145.6080 C   0  0  0  0  0  3  0  0  0  0  0  0
  193.2860  169.5800  137.8770 C   0  0  2  0  0  3  0  0  0  0  0  0
  194.0230  171.1520  144.4590 C   0  0  0  0  0  0  0  0  0  0  0  0
  195.5240  169.5790  140.9140 O   0  0  0  0  0  0  0  0  0  0  0  0
  194.3740  170.5650  143.2380 C   0  0  0  0  0  3  0  0  0  0  0  0
  196.0450  168.8380  138.6740 C   0  0  2  0  0  3  0  0  0  0  0  0
  191.6760  174.4330  141.6500 C   0  0  0  0  0  2  0  0  0  0  0  0
  195.3820  168.2090  137.4460 C   0  0  0  0  0  2  0  0  0  0  0  0
  193.2800  172.9140  140.3370 C   0  0  0  0  0  2  0  0  0  0  0  0
  187.6650  176.6790  145.6330 C   0  0  2  0  0  0  0  0  0  0  0  0
  192.2360  171.8350  140.0680 C   0  0  1  0  0  3  0  0  0  0  0  0
  195.0710  168.5540  144.3800 C   0  0  0  0  0  3  0  0  0  0  0  0
  191.5540  176.7550  145.8650 C   0  0  0  0  0  2  0  0  0  0  0  0
  192.3040  174.3170  143.0530 C   0  0  2  0  0  0  0  0  0  0  0  0
  194.8980  169.2690  143.1930 C   0  0  0  0  0  0  0  0  0  0  0  0
  193.9190  170.1130  139.1740 C   0  0  2  0  0  3  0  0  0  0  0  0
  190.3450  175.6560  143.6460 O   0  0  0  0  0  0  0  0  0  0  0  0
  194.9540  169.1180  139.7220 C   0  0  2  0  0  3  0  0  0  0  0  0
  192.5970  172.8350  143.3120 C   0  0  0  0  0  2  0  0  0  0  0  0
  190.1650  176.4400  146.4280 C   0  0  2  0  0  3  0  0  0  0  0  0
  193.5060  172.5550  144.5090 C   0  0  0  0  0  2  0  0  0  0  0  0
  194.2210  170.4390  145.6470 C   0  0  0  0  0  3  0  0  0  0  0  0
  190.1730  175.2850  147.3830 C   0  0  0  0  0  0  0  0  0  0  0  0
  191.0660  175.1810  148.2640 O   0  0  0  0  0  1  0  0  0  0  0  0
  189.1610  174.3360  147.3150 O   0  0  0  0  0  0  0  0  0  0  0  0
  187.2790  177.2170  147.0100 C   0  0  1  0  0  3  0  0  0  0  0  0
  187.8320  178.4810  147.2080 O   0  0  0  0  0  1  0  0  0  0  0  0
  185.7670  177.2640  147.1950 C   0  0  0  0  0  2  0  0  0  0  0  0
  185.3600  178.5210  147.6470 O   0  0  0  0  0  1  0  0  0  0  0  0
  197.0640  170.1400  136.9130 O   0  0  0  0  0  1  0  0  0  0  0  0
  196.8740  170.0810  138.2950 C   0  0  1  0  0  3  0  0  0  0  0  0
  196.1790  171.3550  138.7610 C   0  0  0  0  0  2  0  0  0  0  0  0
  197.1870  172.3790  139.2530 C   0  0  0  0  0  2  0  0  0  0  0  0
  197.3120  172.4170  141.7160 C   0  0  1  0  0  3  0  0  0  0  0  0
  197.3660  174.4470  142.4040 N   0  0  0  0  0  2  0  0  0  0  0  0
  196.6810  173.0670  140.5060 C   0  0  1  0  0  3  0  0  0  0  0  0
  197.8380  173.7390  141.2200 C   0  0  2  0  0  3  0  0  0  0  0  0
  196.8770  173.1870  142.9350 C   0  0  0  0  0  2  0  0  0  0  0  0
  1 32  1  0  0  0  0
  3 24  1  0  0  0  0
  5 10  1  0  0  0  0
  6 34  1  6  0  0  0
  6 15  1  0  0  0  0
  7 16  1  0  0  0  0
  9 27  1  0  0  0  0
 10  9  1  6  0  0  0
 10 27  1  0  0  0  0
 10 37  1  0  0  0  0
 11  8  1  0  0  0  0
 12 13  1  6  0  0  0
 12 25  1  0  0  0  0
 12 19  1  0  0  0  0
 15 16  1  6  0  0  0
 15 30  1  0  0  0  0
 17 13  1  0  0  0  0
 17 11  1  0  0  0  0
 18 39  1  0  0  0  0
 19  8  1  1  0  0  0
 19 33  1  0  0  0  0
 20 38  1  0  0  0  0
 20 39  2  0  0  0  0
 21  1  1  0  0  0  0
 22 20  1  0  0  0  0
 23 48  1  6  0  0  0
 23 35  1  0  0  0  0
 25 23  1  0  0  0  0
 26  3  1  0  0  0  0
 27  2  1  6  0  0  0
 27 43  1  0  0  0  0
 28  4  1  6  0  0  0
 28 14  1  0  0  0  0
 28 26  1  0  0  0  0
 29 18  2  0  0  0  0
 30 37  1  0  0  0  0
 31 24  1  6  0  0  0
 31  7  1  0  0  0  0
 31 36  1  0  0  0  0
 31  6  1  0  0  0  0
 32 22  2  0  0  0  0
 32 29  1  0  0  0  0
 33 35  1  0  0  0  0
 33 14  1  1  0  0  0
 34  5  1  0  0  0  0
 35 21  1  1  0  0  0
 36 38  1  0  0  0  0
 37 40  1  6  0  0  0
 40 41  1  0  0  0  0
 42 40  2  0  0  0  0
 43 45  1  0  0  0  0
 43 44  1  6  0  0  0
 45 46  1  0  0  0  0
 48 47  1  6  0  0  0
 48 49  1  0  0  0  0
 49 50  1  0  0  0  0
 51 55  1  1  0  0  0
 52 55  1  0  0  0  0
 53 50  1  6  0  0  0
 53 54  1  0  0  0  0
 53 51  1  0  0  0  0
 54 51  1  0  0  0  0
 54 52  1  1  0  0  0
M  END
>  <MODEL>
2

>  <REMARK>
 VINA RESULT:      -5.6      1.360      1.706
  Name = 
  7 active torsions:
  status: ('A' for Active; 'I' for Inactive)
    1  A    between atoms: C_1  and  C_53
    2  A    between atoms: C_11  and  C_29
    3  A    between atoms: C_13  and  C_48
    4  A    between atoms: C_13  and  C_52
    5  A    between atoms: C_29  and  C_38
    6  A    between atoms: C_32  and  C_48
    7  A    between atoms: C_33  and  C_52
                            x       y       z     vdW  Elec       q    Type
                         _______ _______ _______ _____ _____    ______ ____

>  <TORSDO>
F 7

$$$$
=
 OpenBabel11052419263D

 55 63  0  0  1  0  0  0  0  0999 V2000
  191.2510  177.4050  144.6580 C   0  0  0  0  0  2  0  0  0  0  0  0
  195.0210  170.6350  135.9160 O   0  0  0  0  0  1  0  0  0  0  0  0
  190.0550  171.9730  141.5330 C   0  0  0  0  0  2  0  0  0  0  0  0
  188.4490  174.3680  140.4450 C   0  0  0  0  0  1  0  0  0  0  0  0
  194.2290  171.1550  138.4800 O   0  0  0  0  0  0  0  0  0  0  0  0
  193.8340  171.4830  140.5770 C   0  0  2  0  0  3  0  0  0  0  0  0
  192.6090  170.9840  142.6400 C   0  0  0  0  0  2  0  0  0  0  0  0
  187.8020  177.7910  141.4730 O   0  0  0  0  0  0  0  0  0  0  0  0
  194.7510  168.9120  137.6020 C   0  0  0  0  0  2  0  0  0  0  0  0
  195.2160  170.1610  138.3410 C   0  0  1  0  0  0  0  0  0  0  0  0
  186.8250  177.8780  140.4540 C   0  0  0  0  0  2  0  0  0  0  0  0
  186.3160  177.0830  143.2290 C   0  0  1  0  0  3  0  0  0  0  0  0
  185.2930  177.9550  142.4900 C   0  0  0  0  0  2  0  0  0  0  0  0
  189.8220  175.8230  142.0020 C   0  0  0  0  0  2  0  0  0  0  0  0
  194.7130  170.6270  141.4880 C   0  0  1  0  0  3  0  0  0  0  0  0
  193.7800  170.0300  142.5170 C   0  0  0  0  0  2  0  0  0  0  0  0
  185.3710  177.8010  140.9690 C   0  0  0  0  0  2  0  0  0  0  0  0
  195.0030  176.8410  144.5540 C   0  0  0  0  0  3  0  0  0  0  0  0
  187.4620  176.6880  142.2760 C   0  0  2  0  0  3  0  0  0  0  0  0
  193.9100  174.9200  143.5560 C   0  0  0  0  0  0  0  0  0  0  0  0
  190.2470  176.4410  144.8080 O   0  0  0  0  0  0  0  0  0  0  0  0
  192.6660  175.5030  143.8270 C   0  0  0  0  0  3  0  0  0  0  0  0
  187.9740  177.1850  145.1540 C   0  0  2  0  0  3  0  0  0  0  0  0
  191.3200  171.9030  140.6650 C   0  0  0  0  0  2  0  0  0  0  0  0
  186.8310  177.8920  144.4230 C   0  0  0  0  0  2  0  0  0  0  0  0
  189.8660  173.3140  142.2460 C   0  0  0  0  0  2  0  0  0  0  0  0
  195.6720  169.9070  136.9140 C   0  0  2  0  0  0  0  0  0  0  0  0
  189.7210  174.4800  141.2730 C   0  0  1  0  0  3  0  0  0  0  0  0
  193.7550  177.4240  144.8040 C   0  0  0  0  0  3  0  0  0  0  0  0
  195.4940  169.5080  140.7870 C   0  0  0  0  0  2  0  0  0  0  0  0
  192.6510  171.9370  141.4420 C   0  0  2  0  0  0  0  0  0  0  0  0
  192.5830  176.7510  144.4500 C   0  0  0  0  0  0  0  0  0  0  0  0
  188.6780  176.0780  142.9920 C   0  0  2  0  0  3  0  0  0  0  0  0
  193.4290  170.7500  139.4510 O   0  0  0  0  0  0  0  0  0  0  0  0
  189.1280  176.9730  144.1580 C   0  0  2  0  0  3  0  0  0  0  0  0
  192.8970  173.3840  141.8830 C   0  0  0  0  0  2  0  0  0  0  0  0
  196.2040  169.9240  139.4940 C   0  0  2  0  0  3  0  0  0  0  0  0
  193.9960  173.5630  142.9310 C   0  0  0  0  0  2  0  0  0  0  0  0
  195.0800  175.5880  143.9350 C   0  0  0  0  0  3  0  0  0  0  0  0
  197.1680  171.0540  139.6970 C   0  0  0  0  0  0  0  0  0  0  0  0
  197.2630  171.9810  138.8520 O   0  0  0  0  0  0  0  0  0  0  0  0
  197.9410  171.0910  140.8500 O   0  0  0  0  0  1  0  0  0  0  0  0
  197.0750  169.3730  136.6290 C   0  0  1  0  0  3  0  0  0  0  0  0
  197.0030  168.1880  135.8970 O   0  0  0  0  0  1  0  0  0  0  0  0
  197.9320  170.3990  135.8970 C   0  0  0  0  0  2  0  0  0  0  0  0
  197.8090  170.2520  134.5130 O   0  0  0  0  0  1  0  0  0  0  0  0
  188.5680  175.0200  146.0460 O   0  0  0  0  0  1  0  0  0  0  0  0
  187.4940  175.8870  145.8340 C   0  0  1  0  0  3  0  0  0  0  0  0
  186.8240  176.1930  147.1690 C   0  0  0  0  0  2  0  0  0  0  0  0
  185.5920  177.0600  146.9750 C   0  0  0  0  0  2  0  0  0  0  0  0
  187.0120  178.6470  148.2190 C   0  0  1  0  0  3  0  0  0  0  0  0
  186.0980  180.5870  148.2170 N   0  0  0  0  0  2  0  0  0  0  0  0
  185.5870  178.2090  147.9640 C   0  0  1  0  0  3  0  0  0  0  0  0
  186.1370  179.4560  147.2970 C   0  0  2  0  0  3  0  0  0  0  0  0
  186.9710  179.8550  149.1180 C   0  0  0  0  0  2  0  0  0  0  0  0
  1 21  1  0  0  0  0
  3 26  1  0  0  0  0
  5 34  1  0  0  0  0
  6 34  1  6  0  0  0
  6 31  1  0  0  0  0
  6 15  1  0  0  0  0
 10  9  1  1  0  0  0
 10  5  1  0  0  0  0
 10 37  1  0  0  0  0
 11 17  1  0  0  0  0
 11  8  1  0  0  0  0
 12 13  1  6  0  0  0
 12 25  1  0  0  0  0
 15 30  1  6  0  0  0
 15 16  1  0  0  0  0
 16  7  1  0  0  0  0
 17 13  1  0  0  0  0
 18 29  1  0  0  0  0
 19  8  1  1  0  0  0
 19 33  1  0  0  0  0
 19 12  1  0  0  0  0
 20 22  2  0  0  0  0
 20 39  1  0  0  0  0
 22 32  1  0  0  0  0
 23 48  1  6  0  0  0
 24  3  1  0  0  0  0
 25 23  1  0  0  0  0
 27  2  1  6  0  0  0
 27  9  1  0  0  0  0
 27 10  1  0  0  0  0
 28  4  1  1  0  0  0
 28 14  1  0  0  0  0
 28 26  1  0  0  0  0
 31 24  1  6  0  0  0
 31 36  1  0  0  0  0
 31  7  1  0  0  0  0
 32  1  1  0  0  0  0
 32 29  2  0  0  0  0
 33 14  1  6  0  0  0
 33 35  1  0  0  0  0
 35 21  1  1  0  0  0
 35 23  1  0  0  0  0
 36 38  1  0  0  0  0
 37 40  1  1  0  0  0
 37 30  1  0  0  0  0
 38 20  1  0  0  0  0
 39 18  2  0  0  0  0
 40 42  1  0  0  0  0
 41 40  2  0  0  0  0
 43 44  1  6  0  0  0
 43 27  1  0  0  0  0
 45 43  1  0  0  0  0
 46 45  1  0  0  0  0
 48 47  1  1  0  0  0
 48 49  1  0  0  0  0
 50 49  1  0  0  0  0
 51 55  1  1  0  0  0
 52 55  1  0  0  0  0
 53 50  1  6  0  0  0
 53 51  1  0  0  0  0
 54 53  1  0  0  0  0
 54 52  1  1  0  0  0
 54 51  1  0  0  0  0
M  END
>  <MODEL>
3

>  <REMARK>
 VINA RESULT:      -4.7      3.069     11.230
  Name = 
  7 active torsions:
  status: ('A' for Active; 'I' for Inactive)
    1  A    between atoms: C_1  and  C_53
    2  A    between atoms: C_11  and  C_29
    3  A    between atoms: C_13  and  C_48
    4  A    between atoms: C_13  and  C_52
    5  A    between atoms: C_29  and  C_38
    6  A    between atoms: C_32  and  C_48
    7  A    between atoms: C_33  and  C_52
                            x       y       z     vdW  Elec       q    Type
                         _______ _______ _______ _____ _____    ______ ____

>  <TORSDO>
F 7

$$$$
=
 OpenBabel11052419263D

 55 63  0  0  1  0  0  0  0  0999 V2000
  190.6190  177.9130  144.4040 C   0  0  0  0  0  2  0  0  0  0  0  0
  193.6130  170.4660  135.9160 O   0  0  0  0  0  1  0  0  0  0  0  0
  189.0580  172.3380  141.7240 C   0  0  0  0  0  2  0  0  0  0  0  0
  187.4620  174.7130  140.5800 C   0  0  0  0  0  1  0  0  0  0  0  0
  193.0020  171.1780  138.4830 O   0  0  0  0  0  0  0  0  0  0  0  0
  192.7510  171.6540  140.5740 C   0  0  2  0  0  3  0  0  0  0  0  0
  191.6440  171.3320  142.7370 C   0  0  0  0  0  2  0  0  0  0  0  0
  186.9890  178.2160  141.4160 O   0  0  0  0  0  0  0  0  0  0  0  0
  193.3970  168.8660  137.7250 C   0  0  0  0  0  2  0  0  0  0  0  0
  193.9470  170.1430  138.3500 C   0  0  1  0  0  0  0  0  0  0  0  0
  185.9530  178.2720  140.4550 C   0  0  0  0  0  2  0  0  0  0  0  0
  185.5950  177.6760  143.3030 C   0  0  1  0  0  3  0  0  0  0  0  0
  184.5560  178.5340  142.5720 C   0  0  0  0  0  2  0  0  0  0  0  0
  188.9760  176.2160  141.9500 C   0  0  0  0  0  2  0  0  0  0  0  0
  193.6590  170.8270  141.4840 C   0  0  1  0  0  3  0  0  0  0  0  0
  192.7740  170.3320  142.6060 C   0  0  0  0  0  2  0  0  0  0  0  0
  184.5330  178.2800  141.0620 C   0  0  0  0  0  2  0  0  0  0  0  0
  194.3370  177.2120  144.1080 C   0  0  0  0  0  3  0  0  0  0  0  0
  186.6660  177.1800  142.3100 C   0  0  2  0  0  3  0  0  0  0  0  0
  193.1230  175.2700  143.3080 C   0  0  0  0  0  0  0  0  0  0  0  0
  189.5960  176.9970  144.6780 O   0  0  0  0  0  0  0  0  0  0  0  0
  191.9180  175.9130  143.6150 C   0  0  0  0  0  3  0  0  0  0  0  0
  187.3750  177.8420  145.1120 C   0  0  2  0  0  3  0  0  0  0  0  0
  190.2620  172.1680  140.7870 C   0  0  0  0  0  2  0  0  0  0  0  0
  186.2100  178.5410  144.4070 C   0  0  0  0  0  2  0  0  0  0  0  0
  188.9560  173.7280  142.3570 C   0  0  0  0  0  2  0  0  0  0  0  0
  194.3040  169.7810  136.9180 C   0  0  2  0  0  0  0  0  0  0  0  0
  188.7870  174.8330  141.3190 C   0  0  1  0  0  3  0  0  0  0  0  0
  193.1260  177.8530  144.3940 C   0  0  0  0  0  3  0  0  0  0  0  0
  194.3580  169.6380  140.8120 C   0  0  0  0  0  2  0  0  0  0  0  0
  191.6400  172.2040  141.4780 C   0  0  2  0  0  0  0  0  0  0  0  0
  191.9130  177.2010  144.1580 C   0  0  0  0  0  0  0  0  0  0  0  0
  187.9050  176.5740  142.9900 C   0  0  2  0  0  3  0  0  0  0  0  0
  192.2530  170.8640  139.5250 O   0  0  0  0  0  0  0  0  0  0  0  0
  188.4550  177.5250  144.0640 C   0  0  2  0  0  3  0  0  0  0  0  0
  191.9590  173.6660  141.8060 C   0  0  0  0  0  2  0  0  0  0  0  0
  194.9980  169.9450  139.4540 C   0  0  2  0  0  3  0  0  0  0  0  0
  193.1270  173.8740  142.7710 C   0  0  0  0  0  2  0  0  0  0  0  0
  194.3350  175.9200  143.5700 C   0  0  0  0  0  3  0  0  0  0  0  0
  196.0080  171.0510  139.5230 C   0  0  0  0  0  0  0  0  0  0  0  0
  197.0770  170.9100  140.1720 O   0  0  0  0  0  1  0  0  0  0  0  0
  195.7730  172.2330  138.8330 O   0  0  0  0  0  0  0  0  0  0  0  0
  195.6680  169.1810  136.5850 C   0  0  1  0  0  3  0  0  0  0  0  0
  195.5330  168.1660  135.6380 O   0  0  0  0  0  1  0  0  0  0  0  0
  196.6470  170.2400  136.0900 C   0  0  0  0  0  2  0  0  0  0  0  0
  197.8870  170.1030  136.7180 O   0  0  0  0  0  1  0  0  0  0  0  0
  187.1110  175.4420  145.1680 O   0  0  0  0  0  1  0  0  0  0  0  0
  186.8980  176.6080  145.9040 C   0  0  1  0  0  3  0  0  0  0  0  0
  187.6360  176.5040  147.2340 C   0  0  0  0  0  2  0  0  0  0  0  0
  188.5460  175.2890  147.2610 C   0  0  0  0  0  2  0  0  0  0  0  0
  190.6170  176.4010  148.0080 C   0  0  1  0  0  3  0  0  0  0  0  0
  192.3180  175.2700  147.3560 N   0  0  0  0  0  2  0  0  0  0  0  0
  189.9580  175.6700  146.8600 C   0  0  1  0  0  3  0  0  0  0  0  0
  190.9510  174.9540  147.7540 C   0  0  2  0  0  3  0  0  0  0  0  0
  192.0470  176.6720  147.6240 C   0  0  0  0  0  2  0  0  0  0  0  0
  1 21  1  0  0  0  0
  3 26  1  0  0  0  0
  5 34  1  0  0  0  0
  6 34  1  6  0  0  0
  6 31  1  0  0  0  0
  6 15  1  0  0  0  0
 10  9  1  1  0  0  0
 10  5  1  0  0  0  0
 10 37  1  0  0  0  0
 11 17  1  0  0  0  0
 11  8  1  0  0  0  0
 12 13  1  6  0  0  0
 12 25  1  0  0  0  0
 15 30  1  6  0  0  0
 15 16  1  0  0  0  0
 16  7  1  0  0  0  0
 17 13  1  0  0  0  0
 18 29  1  0  0  0  0
 19  8  1  1  0  0  0
 19 33  1  0  0  0  0
 19 12  1  0  0  0  0
 20 39  1  0  0  0  0
 20 22  2  0  0  0  0
 22 32  1  0  0  0  0
 23 48  1  6  0  0  0
 24  3  1  0  0  0  0
 25 23  1  0  0  0  0
 27  2  1  6  0  0  0
 27  9  1  0  0  0  0
 27 10  1  0  0  0  0
 28  4  1  1  0  0  0
 28 14  1  0  0  0  0
 28 26  1  0  0  0  0
 31 24  1  6  0  0  0
 31 36  1  0  0  0  0
 31  7  1  0  0  0  0
 32 29  2  0  0  0  0
 32  1  1  0  0  0  0
 33 14  1  6  0  0  0
 33 35  1  0  0  0  0
 35 21  1  1  0  0  0
 35 23  1  0  0  0  0
 36 38  1  0  0  0  0
 37 40  1  1  0  0  0
 37 30  1  0  0  0  0
 38 20  1  0  0  0  0
 39 18  2  0  0  0  0
 40 41  1  0  0  0  0
 42 40  2  0  0  0  0
 43 44  1  6  0  0  0
 43 27  1  0  0  0  0
 45 43  1  0  0  0  0
 45 46  1  0  0  0  0
 48 47  1  6  0  0  0
 48 49  1  0  0  0  0
 49 50  1  0  0  0  0
 51 55  1  6  0  0  0
 52 55  1  0  0  0  0
 53 50  1  1  0  0  0
 53 54  1  0  0  0  0
 53 51  1  0  0  0  0
 54 52  1  6  0  0  0
 54 51  1  0  0  0  0
M  END
>  <MODEL>
4

>  <REMARK>
 VINA RESULT:      -4.6      2.723     10.787
  Name = 
  7 active torsions:
  status: ('A' for Active; 'I' for Inactive)
    1  A    between atoms: C_1  and  C_53
    2  A    between atoms: C_11  and  C_29
    3  A    between atoms: C_13  and  C_48
    4  A    between atoms: C_13  and  C_52
    5  A    between atoms: C_29  and  C_38
    6  A    between atoms: C_32  and  C_48
    7  A    between atoms: C_33  and  C_52
                            x       y       z     vdW  Elec       q    Type
                         _______ _______ _______ _____ _____    ______ ____

>  <TORSDO>
F 7

$$$$
=
 OpenBabel11052419263D

 55 63  0  0  1  0  0  0  0  0999 V2000
  191.0070  173.3690  136.2540 C   0  0  0  0  0  2  0  0  0  0  0  0
  192.9060  177.4390  147.0380 O   0  0  0  0  0  1  0  0  0  0  0  0
  193.8790  172.0110  141.7860 C   0  0  0  0  0  2  0  0  0  0  0  0
  195.7550  173.3750  139.7580 C   0  0  0  0  0  1  0  0  0  0  0  0
  192.1260  175.5750  145.1970 O   0  0  0  0  0  0  0  0  0  0  0  0
  191.2820  174.1100  143.8540 C   0  0  2  0  0  3  0  0  0  0  0  0
  191.1670  171.8380  142.9450 C   0  0  0  0  0  2  0  0  0  0  0  0
  195.6320  174.2600  136.2380 O   0  0  0  0  0  0  0  0  0  0  0  0
  192.2390  175.1830  147.6280 C   0  0  0  0  0  2  0  0  0  0  0  0
  191.4090  175.5670  146.4080 C   0  0  1  0  0  0  0  0  0  0  0  0
  197.0080  174.5820  136.3030 C   0  0  0  0  0  2  0  0  0  0  0  0
  195.9110  171.9690  135.5540 C   0  0  1  0  0  3  0  0  0  0  0  0
  197.1490  172.5080  134.8270 C   0  0  0  0  0  2  0  0  0  0  0  0
  193.7110  173.7100  138.2960 C   0  0  0  0  0  2  0  0  0  0  0  0
  190.0670  173.3940  144.4450 C   0  0  1  0  0  3  0  0  0  0  0  0
  190.2870  171.9230  144.1750 C   0  0  0  0  0  2  0  0  0  0  0  0
  197.9330  173.5230  135.6620 C   0  0  0  0  0  2  0  0  0  0  0  0
  187.9610  174.8190  137.9920 C   0  0  0  0  0  3  0  0  0  0  0  0
  195.4990  172.9330  136.6840 C   0  0  2  0  0  3  0  0  0  0  0  0
  189.4740  173.9620  139.6830 C   0  0  0  0  0  0  0  0  0  0  0  0
  191.7840  172.2780  136.6620 O   0  0  0  0  0  0  0  0  0  0  0  0
  190.3420  173.5350  138.6710 C   0  0  0  0  0  3  0  0  0  0  0  0
  193.4610  171.4240  135.1460 C   0  0  2  0  0  3  0  0  0  0  0  0
  193.3110  173.1490  142.6460 C   0  0  0  0  0  2  0  0  0  0  0  0
  194.7990  171.8130  134.5130 C   0  0  0  0  0  2  0  0  0  0  0  0
  193.6050  172.1680  140.2890 C   0  0  0  0  0  2  0  0  0  0  0  0
  191.8290  176.6300  147.4080 C   0  0  2  0  0  0  0  0  0  0  0  0
  194.2350  173.4310  139.7080 C   0  0  1  0  0  3  0  0  0  0  0  0
  188.8440  174.4050  136.9880 C   0  0  0  0  0  3  0  0  0  0  0  0
  189.8370  173.6170  145.9450 C   0  0  0  0  0  2  0  0  0  0  0  0
  191.7720  173.2230  142.7030 C   0  0  2  0  0  0  0  0  0  0  0  0
  190.0330  173.7530  137.3250 C   0  0  0  0  0  0  0  0  0  0  0  0
  194.1050  172.6410  137.2670 C   0  0  2  0  0  3  0  0  0  0  0  0
  192.2630  174.3110  144.8380 O   0  0  0  0  0  0  0  0  0  0  0  0
  193.0610  172.5230  136.1460 C   0  0  2  0  0  3  0  0  0  0  0  0
  191.2850  173.8260  141.3810 C   0  0  0  0  0  2  0  0  0  0  0  0
  189.9530  175.0730  146.4100 C   0  0  2  0  0  3  0  0  0  0  0  0
  189.7850  173.6870  141.1200 C   0  0  0  0  0  2  0  0  0  0  0  0
  188.2740  174.5940  139.3370 C   0  0  0  0  0  3  0  0  0  0  0  0
  189.0090  175.9900  145.6930 C   0  0  0  0  0  0  0  0  0  0  0  0
  189.3620  176.5860  144.6420 O   0  0  0  0  0  0  0  0  0  0  0  0
  187.7190  176.1570  146.1790 O   0  0  0  0  0  1  0  0  0  0  0  0
  190.8350  177.1660  148.4370 C   0  0  1  0  0  3  0  0  0  0  0  0
  191.5030  177.5660  149.5940 O   0  0  0  0  0  1  0  0  0  0  0  0
  190.0060  178.3170  147.8780 C   0  0  0  0  0  2  0  0  0  0  0  0
  189.3260  178.9830  148.9000 O   0  0  0  0  0  1  0  0  0  0  0  0
  194.4260  169.2110  135.0740 O   0  0  0  0  0  1  0  0  0  0  0  0
  193.5170  170.0130  135.7650 C   0  0  1  0  0  3  0  0  0  0  0  0
  193.9240  170.0840  137.2330 C   0  0  0  0  0  2  0  0  0  0  0  0
  195.1170  169.1870  137.5130 C   0  0  0  0  0  2  0  0  0  0  0  0
  195.3250  168.8000  139.9400 C   0  0  1  0  0  3  0  0  0  0  0  0
  197.3910  168.8900  140.5090 N   0  0  0  0  0  2  0  0  0  0  0  0
  195.8290  169.6250  138.7780 C   0  0  1  0  0  3  0  0  0  0  0  0
  196.6590  168.4760  139.3180 C   0  0  2  0  0  3  0  0  0  0  0  0
  196.1240  169.1810  141.1580 C   0  0  0  0  0  2  0  0  0  0  0  0
  1 21  1  0  0  0  0
  1 32  1  0  0  0  0
  3 24  1  0  0  0  0
  5 10  1  0  0  0  0
  6 15  1  0  0  0  0
  6 34  1  1  0  0  0
  7 16  1  0  0  0  0
  8 11  1  0  0  0  0
 10 37  1  0  0  0  0
 10 27  1  0  0  0  0
 10  9  1  1  0  0  0
 12 25  1  6  0  0  0
 12 19  1  0  0  0  0
 13 12  1  0  0  0  0
 13 17  1  0  0  0  0
 14 28  1  0  0  0  0
 15 16  1  1  0  0  0
 15 30  1  0  0  0  0
 17 11  1  0  0  0  0
 18 39  1  0  0  0  0
 19  8  1  6  0  0  0
 19 33  1  0  0  0  0
 20 38  1  0  0  0  0
 22 20  1  0  0  0  0
 23 48  1  1  0  0  0
 23 35  1  0  0  0  0
 24 31  1  0  0  0  0
 25 23  1  0  0  0  0
 26  3  1  0  0  0  0
 27  2  1  6  0  0  0
 27  9  1  0  0  0  0
 27 43  1  0  0  0  0
 28  4  1  6  0  0  0
 28 26  1  0  0  0  0
 29 32  1  0  0  0  0
 29 18  2  0  0  0  0
 30 37  1  0  0  0  0
 31 36  1  6  0  0  0
 31  7  1  0  0  0  0
 31  6  1  0  0  0  0
 32 22  2  0  0  0  0
 33 14  1  1  0  0  0
 34  5  1  0  0  0  0
 35 21  1  1  0  0  0
 35 33  1  0  0  0  0
 37 40  1  6  0  0  0
 38 36  1  0  0  0  0
 39 20  2  0  0  0  0
 40 42  1  0  0  0  0
 41 40  2  0  0  0  0
 43 44  1  1  0  0  0
 45 43  1  0  0  0  0
 45 46  1  0  0  0  0
 48 47  1  6  0  0  0
 48 49  1  0  0  0  0
 49 50  1  0  0  0  0
 51 55  1  1  0  0  0
 52 55  1  0  0  0  0
 53 50  1  6  0  0  0
 53 54  1  0  0  0  0
 53 51  1  0  0  0  0
 54 51  1  0  0  0  0
 54 52  1  1  0  0  0
M  END
>  <MODEL>
5

>  <REMARK>
 VINA RESULT:      -3.7      2.504      5.374
  Name = 
  7 active torsions:
  status: ('A' for Active; 'I' for Inactive)
    1  A    between atoms: C_1  and  C_53
    2  A    between atoms: C_11  and  C_29
    3  A    between atoms: C_13  and  C_48
    4  A    between atoms: C_13  and  C_52
    5  A    between atoms: C_29  and  C_38
    6  A    between atoms: C_32  and  C_48
    7  A    between atoms: C_33  and  C_52
                            x       y       z     vdW  Elec       q    Type
                         _______ _______ _______ _____ _____    ______ ____

>  <TORSDO>
F 7

$$$$
