=
 OpenBabel11052418293D

 27 30  0  0  1  0  0  0  0  0999 V2000
  188.7180  176.3710  144.9070 C   0  0  2  0  0  3  0  0  0  0  0  0
  188.5620  175.4610  142.5980 N   0  0  0  0  0  0  0  0  0  0  0  0
  189.5700  172.2760  141.0740 C   0  0  0  0  0  3  0  0  0  0  0  0
  189.3720  171.5020  138.7980 O   0  0  0  0  0  1  0  0  0  0  0  0
  189.5420  174.0890  144.2960 C   0  0  0  0  0  3  0  0  0  0  0  0
  188.3620  174.7010  140.3400 C   0  0  0  0  0  3  0  0  0  0  0  0
  188.5690  173.7000  139.3850 C   0  0  0  0  0  3  0  0  0  0  0  0
  188.7580  174.4930  141.6650 C   0  0  0  0  0  0  0  0  0  0  0  0
  189.1710  172.4910  139.7510 C   0  0  0  0  0  0  0  0  0  0  0  0
  189.3650  173.2730  142.0320 C   0  0  0  0  0  0  0  0  0  0  0  0
  188.9370  175.2850  143.8970 C   0  0  0  0  0  0  0  0  0  0  0  0
  189.7560  173.0790  143.3570 C   0  0  0  0  0  3  0  0  0  0  0  0
  184.8170  178.0880  145.7360 C   0  0  0  0  0  3  0  0  0  0  0  0
  187.2350  176.7450  145.0230 C   0  0  1  0  0  3  0  0  0  0  0  0
  186.7570  176.6590  146.4730 C   0  0  0  0  0  2  0  0  0  0  0  0
  185.2450  176.8740  146.5210 C   0  0  0  0  0  2  0  0  0  0  0  0
  185.5950  178.6480  144.7960 C   0  0  0  0  0  3  0  0  0  0  0  0
  187.0010  178.1760  144.5280 C   0  0  0  0  0  2  0  0  0  0  0  0
  189.7280  177.8300  144.4640 S   0  0  0  0  0  0  0  0  0  0  0  0
  192.2410  177.3110  142.8480 F   0  0  0  0  0  0  0  0  0  0  0  0
  193.6210  175.8750  145.9140 C   0  0  0  0  0  0  0  0  0  0  0  0
  194.7950  175.2860  146.3590 O   0  0  0  0  0  1  0  0  0  0  0  0
  191.2520  177.0690  145.0180 C   0  0  0  0  0  0  0  0  0  0  0  0
  193.5120  176.3040  144.5880 C   0  0  0  0  0  3  0  0  0  0  0  0
  192.5450  176.0390  146.7920 C   0  0  0  0  0  3  0  0  0  0  0  0
  191.3620  176.6330  146.3440 C   0  0  0  0  0  3  0  0  0  0  0  0
  192.3300  176.8990  144.1360 C   0  0  0  0  0  0  0  0  0  0  0  0
  1 19  1  6  0  0  0
  2 11  1  0  0  0  0
  3 10  1  0  0  0  0
  4  9  1  0  0  0  0
  6  8  1  0  0  0  0
  7  9  1  0  0  0  0
  7  6  2  0  0  0  0
  8 10  1  0  0  0  0
  8  2  2  0  0  0  0
  9  3  2  0  0  0  0
 10 12  2  0  0  0  0
 11  5  2  0  0  0  0
 11  1  1  0  0  0  0
 12  5  1  0  0  0  0
 13 16  1  0  0  0  0
 14  1  1  1  0  0  0
 14 15  1  0  0  0  0
 15 16  1  0  0  0  0
 17 13  2  0  0  0  0
 18 17  1  0  0  0  0
 18 14  1  0  0  0  0
 19 23  1  0  0  0  0
 20 27  1  0  0  0  0
 21 22  1  0  0  0  0
 21 25  1  0  0  0  0
 23 26  1  0  0  0  0
 24 21  2  0  0  0  0
 26 25  2  0  0  0  0
 27 24  1  0  0  0  0
 27 23  2  0  0  0  0
M  END
>  <MODEL>
1

>  <REMARK>
 VINA RESULT:      -7.5      0.000      0.000
  Name = 
  4 active torsions:
  status: ('A' for Active; 'I' for Inactive)
    1  A    between atoms: S_1  and  C_15
    2  A    between atoms: S_1  and  C_18
    3  A    between atoms: C_9  and  C_15
    4  A    between atoms: C_15  and  C_19
                            x       y       z     vdW  Elec       q    Type
                         _______ _______ _______ _____ _____    ______ ____

>  <TORSDO>
F 4

$$$$
=
 OpenBabel11052418293D

 27 30  0  0  1  0  0  0  0  0999 V2000
  190.8860  175.0590  144.4470 C   0  0  2  0  0  3  0  0  0  0  0  0
  188.9400  176.5870  144.6880 N   0  0  0  0  0  0  0  0  0  0  0  0
  186.3920  177.0270  147.2950 C   0  0  0  0  0  3  0  0  0  0  0  0
  184.5290  178.5540  147.4160 O   0  0  0  0  0  1  0  0  0  0  0  0
  189.3800  175.0240  146.4450 C   0  0  0  0  0  3  0  0  0  0  0  0
  187.0950  178.1040  144.8010 C   0  0  0  0  0  3  0  0  0  0  0  0
  185.9840  178.5960  145.4910 C   0  0  0  0  0  3  0  0  0  0  0  0
  187.8590  177.0720  145.3540 C   0  0  0  0  0  0  0  0  0  0  0  0
  185.6330  178.0600  146.7360 C   0  0  0  0  0  0  0  0  0  0  0  0
  187.5050  176.5320  146.6090 C   0  0  0  0  0  0  0  0  0  0  0  0
  189.7030  175.5820  145.2040 C   0  0  0  0  0  0  0  0  0  0  0  0
  188.2750  175.5020  147.1490 C   0  0  0  0  0  3  0  0  0  0  0  0
  194.8710  175.5310  146.1050 C   0  0  0  0  0  3  0  0  0  0  0  0
  192.1660  175.1090  145.2900 C   0  0  1  0  0  3  0  0  0  0  0  0
  193.2510  174.2070  144.7010 C   0  0  0  0  0  2  0  0  0  0  0  0
  194.4420  174.1560  145.6560 C   0  0  0  0  0  2  0  0  0  0  0  0
  194.0680  176.6020  146.0110 C   0  0  0  0  0  3  0  0  0  0  0  0
  192.7150  176.5380  145.3500 C   0  0  0  0  0  2  0  0  0  0  0  0
  191.0870  176.0060  142.8960 S   0  0  0  0  0  0  0  0  0  0  0  0
  188.3820  174.8200  142.2090 F   0  0  0  0  0  0  0  0  0  0  0  0
  190.2360  172.3560  140.2450 C   0  0  0  0  0  0  0  0  0  0  0  0
  189.9860  171.2530  139.4410 O   0  0  0  0  0  1  0  0  0  0  0  0
  190.7420  174.5830  141.8630 C   0  0  0  0  0  0  0  0  0  0  0  0
  189.1740  173.0470  140.8350 C   0  0  0  0  0  3  0  0  0  0  0  0
  191.5520  172.7750  140.4660 C   0  0  0  0  0  3  0  0  0  0  0  0
  191.8040  173.8860  141.2760 C   0  0  0  0  0  3  0  0  0  0  0  0
  189.4230  174.1590  141.6460 C   0  0  0  0  0  0  0  0  0  0  0  0
  1 19  1  6  0  0  0
  1 11  1  0  0  0  0
  2 11  2  0  0  0  0
  2  8  1  0  0  0  0
  5 12  2  0  0  0  0
  6  8  2  0  0  0  0
  6  7  1  0  0  0  0
  7  9  2  0  0  0  0
  8 10  1  0  0  0  0
  9  3  1  0  0  0  0
  9  4  1  0  0  0  0
 10 12  1  0  0  0  0
 10  3  2  0  0  0  0
 11  5  1  0  0  0  0
 14  1  1  6  0  0  0
 14 18  1  0  0  0  0
 15 14  1  0  0  0  0
 15 16  1  0  0  0  0
 16 13  1  0  0  0  0
 17 13  2  0  0  0  0
 18 17  1  0  0  0  0
 21 25  2  0  0  0  0
 21 24  1  0  0  0  0
 22 21  1  0  0  0  0
 23 19  1  0  0  0  0
 24 27  2  0  0  0  0
 25 26  1  0  0  0  0
 26 23  2  0  0  0  0
 27 23  1  0  0  0  0
 27 20  1  0  0  0  0
M  END
>  <MODEL>
2

>  <REMARK>
 VINA RESULT:      -7.4      2.743      6.785
  Name = 
  4 active torsions:
  status: ('A' for Active; 'I' for Inactive)
    1  A    between atoms: S_1  and  C_15
    2  A    between atoms: S_1  and  C_18
    3  A    between atoms: C_9  and  C_15
    4  A    between atoms: C_15  and  C_19
                            x       y       z     vdW  Elec       q    Type
                         _______ _______ _______ _____ _____    ______ ____

>  <TORSDO>
F 4

$$$$
=
 OpenBabel11052418293D

 27 30  0  0  1  0  0  0  0  0999 V2000
  190.5700  175.7150  145.1190 C   0  0  2  0  0  3  0  0  0  0  0  0
  188.5560  177.0760  144.5970 N   0  0  0  0  0  0  0  0  0  0  0  0
  185.4050  177.6940  146.3780 C   0  0  0  0  0  3  0  0  0  0  0  0
  183.5010  179.0410  145.7630 O   0  0  0  0  0  1  0  0  0  0  0  0
  188.6050  175.8640  146.6590 C   0  0  0  0  0  3  0  0  0  0  0  0
  186.6730  178.4150  143.9800 C   0  0  0  0  0  3  0  0  0  0  0  0
  185.3990  178.9070  144.2780 C   0  0  0  0  0  3  0  0  0  0  0  0
  187.3180  177.5600  144.8800 C   0  0  0  0  0  0  0  0  0  0  0  0
  184.7660  178.5480  145.4740 C   0  0  0  0  0  0  0  0  0  0  0  0
  186.6790  177.1990  146.0860 C   0  0  0  0  0  0  0  0  0  0  0  0
  189.2080  176.2420  145.4560 C   0  0  0  0  0  0  0  0  0  0  0  0
  187.3340  176.3460  146.9740 C   0  0  0  0  0  3  0  0  0  0  0  0
  189.5050  172.0990  142.9630 C   0  0  0  0  0  3  0  0  0  0  0  0
  190.4900  174.4450  144.2630 C   0  0  1  0  0  3  0  0  0  0  0  0
  190.1620  173.2220  145.1210 C   0  0  0  0  0  2  0  0  0  0  0  0
  190.2560  171.9610  144.2640 C   0  0  0  0  0  2  0  0  0  0  0  0
  189.1600  173.2920  142.4550 C   0  0  0  0  0  3  0  0  0  0  0  0
  189.4000  174.5830  143.1950 C   0  0  0  0  0  2  0  0  0  0  0  0
  191.5050  175.4070  146.6600 S   0  0  0  0  0  0  0  0  0  0  0  0
  193.4410  173.1340  146.1370 F   0  0  0  0  0  0  0  0  0  0  0  0
  195.5680  175.6390  144.5360 C   0  0  0  0  0  0  0  0  0  0  0  0
  196.7950  175.7150  143.8910 O   0  0  0  0  0  1  0  0  0  0  0  0
  193.0930  175.4850  145.8320 C   0  0  0  0  0  0  0  0  0  0  0  0
  195.1100  174.4110  145.0220 C   0  0  0  0  0  3  0  0  0  0  0  0
  194.7930  176.7900  144.6990 C   0  0  0  0  0  3  0  0  0  0  0  0
  193.5570  176.7140  145.3490 C   0  0  0  0  0  3  0  0  0  0  0  0
  193.8740  174.3310  145.6720 C   0  0  0  0  0  0  0  0  0  0  0  0
  1 11  1  0  0  0  0
  1 19  1  1  0  0  0
  2  8  2  0  0  0  0
  2 11  1  0  0  0  0
  5 12  1  0  0  0  0
  6  7  2  0  0  0  0
  6  8  1  0  0  0  0
  7  9  1  0  0  0  0
  8 10  1  0  0  0  0
  9  4  1  0  0  0  0
  9  3  2  0  0  0  0
 10  3  1  0  0  0  0
 10 12  2  0  0  0  0
 11  5  2  0  0  0  0
 13 16  1  0  0  0  0
 14  1  1  1  0  0  0
 14 15  1  0  0  0  0
 16 15  1  0  0  0  0
 17 13  2  0  0  0  0
 17 18  1  0  0  0  0
 18 14  1  0  0  0  0
 21 25  2  0  0  0  0
 21 24  1  0  0  0  0
 22 21  1  0  0  0  0
 23 19  1  0  0  0  0
 24 27  2  0  0  0  0
 25 26  1  0  0  0  0
 26 23  2  0  0  0  0
 27 23  1  0  0  0  0
 27 20  1  0  0  0  0
M  END
>  <MODEL>
3

>  <REMARK>
 VINA RESULT:      -7.4      2.939      5.568
  Name = 
  4 active torsions:
  status: ('A' for Active; 'I' for Inactive)
    1  A    between atoms: S_1  and  C_15
    2  A    between atoms: S_1  and  C_18
    3  A    between atoms: C_9  and  C_15
    4  A    between atoms: C_15  and  C_19
                            x       y       z     vdW  Elec       q    Type
                         _______ _______ _______ _____ _____    ______ ____

>  <TORSDO>
F 4

$$$$
=
 OpenBabel11052418293D

 27 30  0  0  1  0  0  0  0  0999 V2000
  190.6710  175.5920  144.6210 C   0  0  2  0  0  3  0  0  0  0  0  0
  188.6200  176.9600  144.3070 N   0  0  0  0  0  0  0  0  0  0  0  0
  185.6290  177.5200  146.3620 C   0  0  0  0  0  3  0  0  0  0  0  0
  183.6780  178.8770  145.9460 O   0  0  0  0  0  1  0  0  0  0  0  0
  188.8420  175.6930  146.3250 C   0  0  0  0  0  3  0  0  0  0  0  0
  186.6900  178.3080  143.8870 C   0  0  0  0  0  3  0  0  0  0  0  0
  185.4440  178.7880  144.3030 C   0  0  0  0  0  3  0  0  0  0  0  0
  187.4090  177.4320  144.7060 C   0  0  0  0  0  0  0  0  0  0  0  0
  184.9150  178.3960  145.5380 C   0  0  0  0  0  0  0  0  0  0  0  0
  186.8740  177.0370  145.9510 C   0  0  0  0  0  0  0  0  0  0  0  0
  189.3420  176.1060  145.0860 C   0  0  0  0  0  0  0  0  0  0  0  0
  187.6010  176.1630  146.7580 C   0  0  0  0  0  3  0  0  0  0  0  0
  194.4070  176.9590  146.3600 C   0  0  0  0  0  3  0  0  0  0  0  0
  191.8320  176.3350  145.2930 C   0  0  1  0  0  3  0  0  0  0  0  0
  192.2860  175.6150  146.5640 C   0  0  0  0  0  2  0  0  0  0  0  0
  193.3230  176.4710  147.2890 C   0  0  0  0  0  2  0  0  0  0  0  0
  194.2550  176.9850  145.0270 C   0  0  0  0  0  3  0  0  0  0  0  0
  193.0320  176.4290  144.3450 C   0  0  0  0  0  2  0  0  0  0  0  0
  190.7750  175.7260  142.8000 S   0  0  0  0  0  0  0  0  0  0  0  0
  188.2980  173.9790  142.7220 F   0  0  0  0  0  0  0  0  0  0  0  0
  190.5880  171.1790  142.1920 C   0  0  0  0  0  0  0  0  0  0  0  0
  190.5380  169.8050  142.0060 O   0  0  0  0  0  1  0  0  0  0  0  0
  190.6890  173.9520  142.5630 C   0  0  0  0  0  0  0  0  0  0  0  0
  189.4060  171.9050  142.3680 C   0  0  0  0  0  3  0  0  0  0  0  0
  191.8210  171.8380  142.2060 C   0  0  0  0  0  3  0  0  0  0  0  0
  191.8720  173.2220  142.3930 C   0  0  0  0  0  3  0  0  0  0  0  0
  189.4530  173.2890  142.5550 C   0  0  0  0  0  0  0  0  0  0  0  0
  1 19  1  6  0  0  0
  1 11  1  0  0  0  0
  2  8  2  0  0  0  0
  2 11  1  0  0  0  0
  5 12  1  0  0  0  0
  6  7  2  0  0  0  0
  6  8  1  0  0  0  0
  7  9  1  0  0  0  0
  8 10  1  0  0  0  0
  9  4  1  0  0  0  0
  9  3  2  0  0  0  0
 10  3  1  0  0  0  0
 10 12  2  0  0  0  0
 11  5  2  0  0  0  0
 13 16  1  0  0  0  0
 14  1  1  6  0  0  0
 14 15  1  0  0  0  0
 15 16  1  0  0  0  0
 17 13  2  0  0  0  0
 18 17  1  0  0  0  0
 18 14  1  0  0  0  0
 21 25  2  0  0  0  0
 21 24  1  0  0  0  0
 22 21  1  0  0  0  0
 23 19  1  0  0  0  0
 24 27  2  0  0  0  0
 25 26  1  0  0  0  0
 26 23  2  0  0  0  0
 27 23  1  0  0  0  0
 27 20  1  0  0  0  0
M  END
>  <MODEL>
4

>  <REMARK>
 VINA RESULT:      -7.4      2.895      6.408
  Name = 
  4 active torsions:
  status: ('A' for Active; 'I' for Inactive)
    1  A    between atoms: S_1  and  C_15
    2  A    between atoms: S_1  and  C_18
    3  A    between atoms: C_9  and  C_15
    4  A    between atoms: C_15  and  C_19
                            x       y       z     vdW  Elec       q    Type
                         _______ _______ _______ _____ _____    ______ ____

>  <TORSDO>
F 4

$$$$
=
 OpenBabel11052418293D

 27 30  0  0  1  0  0  0  0  0999 V2000
  189.8920  174.7770  143.6760 C   0  0  2  0  0  3  0  0  0  0  0  0
  188.3410  176.1400  145.0600 N   0  0  0  0  0  0  0  0  0  0  0  0
  185.0970  177.7220  144.3870 C   0  0  0  0  0  3  0  0  0  0  0  0
  183.6740  179.0410  145.8210 O   0  0  0  0  0  1  0  0  0  0  0  0
  187.7260  175.6670  142.7960 C   0  0  0  0  0  3  0  0  0  0  0  0
  186.9360  177.4450  146.4880 C   0  0  0  0  0  3  0  0  0  0  0  0
  185.7590  178.1760  146.6760 C   0  0  0  0  0  3  0  0  0  0  0  0
  187.1980  176.8500  145.2510 C   0  0  0  0  0  0  0  0  0  0  0  0
  184.8410  178.3140  145.6280 C   0  0  0  0  0  0  0  0  0  0  0  0
  186.2720  176.9900  144.1950 C   0  0  0  0  0  0  0  0  0  0  0  0
  188.6210  175.5490  143.8640 C   0  0  0  0  0  0  0  0  0  0  0  0
  186.5450  176.3920  142.9650 C   0  0  0  0  0  3  0  0  0  0  0  0
  190.3000  171.5140  140.8410 C   0  0  0  0  0  3  0  0  0  0  0  0
  189.7430  173.6930  142.6010 C   0  0  1  0  0  3  0  0  0  0  0  0
  190.7190  173.9230  141.4460 C   0  0  0  0  0  2  0  0  0  0  0  0
  190.4240  172.9260  140.3270 C   0  0  0  0  0  2  0  0  0  0  0  0
  190.0680  171.2350  142.1330 C   0  0  0  0  0  3  0  0  0  0  0  0
  190.0220  172.3070  143.1920 C   0  0  0  0  0  2  0  0  0  0  0  0
  190.4060  174.0480  145.2720 S   0  0  0  0  0  0  0  0  0  0  0  0
  191.7270  174.9260  147.8570 F   0  0  0  0  0  0  0  0  0  0  0  0
  193.8870  177.0000  145.7610 C   0  0  0  0  0  0  0  0  0  0  0  0
  194.9420  177.8920  145.9010 O   0  0  0  0  0  1  0  0  0  0  0  0
  191.7650  175.1980  145.4760 C   0  0  0  0  0  0  0  0  0  0  0  0
  193.3240  176.4000  146.8910 C   0  0  0  0  0  3  0  0  0  0  0  0
  193.3890  176.7030  144.4890 C   0  0  0  0  0  3  0  0  0  0  0  0
  192.3280  175.8040  144.3470 C   0  0  0  0  0  3  0  0  0  0  0  0
  192.2620  175.5010  146.7520 C   0  0  0  0  0  0  0  0  0  0  0  0
  1 11  1  0  0  0  0
  1 19  1  1  0  0  0
  2  8  1  0  0  0  0
  3  9  1  0  0  0  0
  5 12  2  0  0  0  0
  5 11  1  0  0  0  0
  6  7  1  0  0  0  0
  8  6  2  0  0  0  0
  9  4  1  0  0  0  0
  9  7  2  0  0  0  0
 10  3  2  0  0  0  0
 10  8  1  0  0  0  0
 11  2  2  0  0  0  0
 12 10  1  0  0  0  0
 13 17  2  0  0  0  0
 14 18  1  0  0  0  0
 14  1  1  1  0  0  0
 15 14  1  0  0  0  0
 16 13  1  0  0  0  0
 16 15  1  0  0  0  0
 17 18  1  0  0  0  0
 19 23  1  0  0  0  0
 21 22  1  0  0  0  0
 21 24  1  0  0  0  0
 23 27  1  0  0  0  0
 25 21  2  0  0  0  0
 26 25  1  0  0  0  0
 26 23  2  0  0  0  0
 27 24  2  0  0  0  0
 27 20  1  0  0  0  0
M  END
>  <MODEL>
5

>  <REMARK>
 VINA RESULT:      -7.3      2.910      5.981
  Name = 
  4 active torsions:
  status: ('A' for Active; 'I' for Inactive)
    1  A    between atoms: S_1  and  C_15
    2  A    between atoms: S_1  and  C_18
    3  A    between atoms: C_9  and  C_15
    4  A    between atoms: C_15  and  C_19
                            x       y       z     vdW  Elec       q    Type
                         _______ _______ _______ _____ _____    ______ ____

>  <TORSDO>
F 4

$$$$
=
 OpenBabel11052418293D

 27 30  0  0  1  0  0  0  0  0999 V2000
  190.7150  175.8220  144.5030 C   0  0  2  0  0  3  0  0  0  0  0  0
  188.5460  176.3690  145.5880 N   0  0  0  0  0  0  0  0  0  0  0  0
  185.7200  178.5080  144.6300 C   0  0  0  0  0  3  0  0  0  0  0  0
  183.6510  178.9720  145.7800 O   0  0  0  0  0  1  0  0  0  0  0  0
  189.0350  177.3600  143.4660 C   0  0  0  0  0  3  0  0  0  0  0  0
  186.4970  176.8220  146.7340 C   0  0  0  0  0  3  0  0  0  0  0  0
  185.2640  177.4810  146.7790 C   0  0  0  0  0  3  0  0  0  0  0  0
  187.3450  177.0040  145.6380 C   0  0  0  0  0  0  0  0  0  0  0  0
  184.8760  178.3220  145.7290 C   0  0  0  0  0  0  0  0  0  0  0  0
  186.9530  177.8520  144.5800 C   0  0  0  0  0  0  0  0  0  0  0  0
  189.3920  176.5270  144.5320 C   0  0  0  0  0  0  0  0  0  0  0  0
  187.8090  178.0250  143.4930 C   0  0  0  0  0  3  0  0  0  0  0  0
  189.4860  171.8860  143.1430 C   0  0  0  0  0  3  0  0  0  0  0  0
  190.5830  174.3930  143.9620 C   0  0  1  0  0  3  0  0  0  0  0  0
  190.0590  173.4420  145.0390 C   0  0  0  0  0  2  0  0  0  0  0  0
  190.1020  172.0080  144.5140 C   0  0  0  0  0  2  0  0  0  0  0  0
  189.3100  172.9440  142.3360 C   0  0  0  0  0  3  0  0  0  0  0  0
  189.6110  174.3530  142.7780 C   0  0  0  0  0  2  0  0  0  0  0  0
  191.4430  175.8220  146.1800 S   0  0  0  0  0  0  0  0  0  0  0  0
  193.1760  173.3340  146.1650 F   0  0  0  0  0  0  0  0  0  0  0  0
  195.7320  175.4210  144.5920 C   0  0  0  0  0  0  0  0  0  0  0  0
  197.0270  175.3060  144.1070 O   0  0  0  0  0  1  0  0  0  0  0  0
  193.1170  175.6530  145.5630 C   0  0  0  0  0  0  0  0  0  0  0  0
  195.0910  174.3090  145.1450 C   0  0  0  0  0  3  0  0  0  0  0  0
  195.0680  176.6500  144.5260 C   0  0  0  0  0  3  0  0  0  0  0  0
  193.7630  176.7660  145.0130 C   0  0  0  0  0  3  0  0  0  0  0  0
  193.7850  174.4220  145.6330 C   0  0  0  0  0  0  0  0  0  0  0  0
  1 11  1  0  0  0  0
  1 19  1  1  0  0  0
  2  8  1  0  0  0  0
  3  9  1  0  0  0  0
  5 12  2  0  0  0  0
  5 11  1  0  0  0  0
  6  7  1  0  0  0  0
  8  6  2  0  0  0  0
  9  4  1  0  0  0  0
  9  7  2  0  0  0  0
 10  3  2  0  0  0  0
 10  8  1  0  0  0  0
 11  2  2  0  0  0  0
 12 10  1  0  0  0  0
 13 16  1  0  0  0  0
 14  1  1  1  0  0  0
 14 15  1  0  0  0  0
 16 15  1  0  0  0  0
 17 18  1  0  0  0  0
 17 13  2  0  0  0  0
 18 14  1  0  0  0  0
 21 24  1  0  0  0  0
 22 21  1  0  0  0  0
 23 27  1  0  0  0  0
 23 19  1  0  0  0  0
 24 27  2  0  0  0  0
 25 21  2  0  0  0  0
 25 26  1  0  0  0  0
 26 23  2  0  0  0  0
 27 20  1  0  0  0  0
M  END
>  <MODEL>
6

>  <REMARK>
 VINA RESULT:      -7.3      2.911      5.667
  Name = 
  4 active torsions:
  status: ('A' for Active; 'I' for Inactive)
    1  A    between atoms: S_1  and  C_15
    2  A    between atoms: S_1  and  C_18
    3  A    between atoms: C_9  and  C_15
    4  A    between atoms: C_15  and  C_19
                            x       y       z     vdW  Elec       q    Type
                         _______ _______ _______ _____ _____    ______ ____

>  <TORSDO>
F 4

$$$$
=
 OpenBabel11052418293D

 27 30  0  0  1  0  0  0  0  0999 V2000
  190.8200  174.8160  144.0580 C   0  0  2  0  0  3  0  0  0  0  0  0
  188.9370  176.3950  144.4290 N   0  0  0  0  0  0  0  0  0  0  0  0
  186.6730  176.9930  147.2570 C   0  0  0  0  0  3  0  0  0  0  0  0
  184.8590  178.5630  147.5020 O   0  0  0  0  0  1  0  0  0  0  0  0
  189.5230  174.8920  146.1960 C   0  0  0  0  0  3  0  0  0  0  0  0
  187.1400  177.9560  144.6640 C   0  0  0  0  0  3  0  0  0  0  0  0
  186.1130  178.4990  145.4410 C   0  0  0  0  0  3  0  0  0  0  0  0
  187.9370  176.9300  145.1790 C   0  0  0  0  0  0  0  0  0  0  0  0
  185.8800  178.0190  146.7350 C   0  0  0  0  0  0  0  0  0  0  0  0
  187.7010  176.4460  146.4850 C   0  0  0  0  0  0  0  0  0  0  0  0
  189.7290  175.3950  144.9070 C   0  0  0  0  0  0  0  0  0  0  0  0
  188.5030  175.4220  146.9870 C   0  0  0  0  0  3  0  0  0  0  0  0
  190.0300  172.0350  140.8180 C   0  0  0  0  0  3  0  0  0  0  0  0
  190.2560  173.9560  142.9190 C   0  0  1  0  0  3  0  0  0  0  0  0
  190.9960  174.2230  141.6080 C   0  0  0  0  0  2  0  0  0  0  0  0
  190.2990  173.4780  140.4720 C   0  0  0  0  0  2  0  0  0  0  0  0
  190.0250  171.5870  142.0830 C   0  0  0  0  0  3  0  0  0  0  0  0
  190.3960  172.4670  143.2500 C   0  0  0  0  0  2  0  0  0  0  0  0
  191.9610  173.8450  145.1070 S   0  0  0  0  0  0  0  0  0  0  0  0
  193.0290  176.3400  146.4580 F   0  0  0  0  0  0  0  0  0  0  0  0
  195.6190  176.3320  143.8780 C   0  0  0  0  0  0  0  0  0  0  0  0
  196.7270  177.0780  143.5020 O   0  0  0  0  0  1  0  0  0  0  0  0
  193.3870  174.8230  144.6370 C   0  0  0  0  0  0  0  0  0  0  0  0
  194.8660  176.7110  144.9930 C   0  0  0  0  0  3  0  0  0  0  0  0
  195.2560  175.2010  143.1400 C   0  0  0  0  0  3  0  0  0  0  0  0
  194.1400  174.4490  143.5180 C   0  0  0  0  0  3  0  0  0  0  0  0
  193.7490  175.9610  145.3740 C   0  0  0  0  0  0  0  0  0  0  0  0
  1 11  1  0  0  0  0
  1 19  1  1  0  0  0
  2 11  2  0  0  0  0
  2  8  1  0  0  0  0
  5 12  2  0  0  0  0
  6  8  2  0  0  0  0
  6  7  1  0  0  0  0
  7  9  2  0  0  0  0
  8 10  1  0  0  0  0
  9  3  1  0  0  0  0
  9  4  1  0  0  0  0
 10 12  1  0  0  0  0
 10  3  2  0  0  0  0
 11  5  1  0  0  0  0
 13 17  2  0  0  0  0
 14 18  1  0  0  0  0
 14  1  1  1  0  0  0
 15 14  1  0  0  0  0
 16 13  1  0  0  0  0
 16 15  1  0  0  0  0
 17 18  1  0  0  0  0
 21 24  1  0  0  0  0
 22 21  1  0  0  0  0
 23 19  1  0  0  0  0
 23 27  1  0  0  0  0
 24 27  2  0  0  0  0
 25 26  1  0  0  0  0
 25 21  2  0  0  0  0
 26 23  2  0  0  0  0
 27 20  1  0  0  0  0
M  END
>  <MODEL>
7

>  <REMARK>
 VINA RESULT:      -7.3      2.822      5.969
  Name = 
  4 active torsions:
  status: ('A' for Active; 'I' for Inactive)
    1  A    between atoms: S_1  and  C_15
    2  A    between atoms: S_1  and  C_18
    3  A    between atoms: C_9  and  C_15
    4  A    between atoms: C_15  and  C_19
                            x       y       z     vdW  Elec       q    Type
                         _______ _______ _______ _____ _____    ______ ____

>  <TORSDO>
F 4

$$$$
=
 OpenBabel11052418293D

 27 30  0  0  1  0  0  0  0  0999 V2000
  188.2360  176.5190  144.5580 C   0  0  2  0  0  3  0  0  0  0  0  0
  188.9360  174.5910  143.1520 N   0  0  0  0  0  0  0  0  0  0  0  0
  188.5560  173.8080  139.5850 C   0  0  0  0  0  3  0  0  0  0  0  0
  189.2760  171.8830  138.3230 O   0  0  0  0  0  1  0  0  0  0  0  0
  187.7680  176.3980  142.1030 C   0  0  0  0  0  3  0  0  0  0  0  0
  189.6540  172.6800  141.9090 C   0  0  0  0  0  3  0  0  0  0  0  0
  189.7370  172.0000  140.6890 C   0  0  0  0  0  3  0  0  0  0  0  0
  189.0220  173.9250  141.9710 C   0  0  0  0  0  0  0  0  0  0  0  0
  189.1890  172.5630  139.5300 C   0  0  0  0  0  0  0  0  0  0  0  0
  188.4700  174.4920  140.8010 C   0  0  0  0  0  0  0  0  0  0  0  0
  188.3260  175.8070  143.2420 C   0  0  0  0  0  0  0  0  0  0  0  0
  187.8420  175.7350  140.8770 C   0  0  0  0  0  3  0  0  0  0  0  0
  184.5900  178.4470  145.9140 C   0  0  0  0  0  3  0  0  0  0  0  0
  186.8080  177.0000  144.8460 C   0  0  1  0  0  3  0  0  0  0  0  0
  186.4390  176.7830  146.3140 C   0  0  0  0  0  2  0  0  0  0  0  0
  184.9620  177.1170  146.5190 C   0  0  0  0  0  2  0  0  0  0  0  0
  185.3400  179.0470  144.9780 C   0  0  0  0  0  3  0  0  0  0  0  0
  186.6710  178.4940  144.5350 C   0  0  0  0  0  2  0  0  0  0  0  0
  189.4130  177.9180  144.5770 S   0  0  0  0  0  0  0  0  0  0  0  0
  189.9340  176.6560  147.2840 F   0  0  0  0  0  0  0  0  0  0  0  0
  192.9620  175.2670  145.7810 C   0  0  0  0  0  0  0  0  0  0  0  0
  194.0370  174.4640  146.1370 O   0  0  0  0  0  1  0  0  0  0  0  0
  190.7940  176.8820  145.0580 C   0  0  0  0  0  0  0  0  0  0  0  0
  191.9720  175.5670  146.7200 C   0  0  0  0  0  3  0  0  0  0  0  0
  192.8720  175.7750  144.4820 C   0  0  0  0  0  3  0  0  0  0  0  0
  191.7900  176.5840  144.1220 C   0  0  0  0  0  3  0  0  0  0  0  0
  190.8880  176.3750  146.3630 C   0  0  0  0  0  0  0  0  0  0  0  0
  1 19  1  6  0  0  0
  2 11  1  0  0  0  0
  3 10  1  0  0  0  0
  4  9  1  0  0  0  0
  5 11  2  0  0  0  0
  6  8  1  0  0  0  0
  7  6  2  0  0  0  0
  8  2  2  0  0  0  0
  9  3  2  0  0  0  0
  9  7  1  0  0  0  0
 10 12  2  0  0  0  0
 10  8  1  0  0  0  0
 11  1  1  0  0  0  0
 12  5  1  0  0  0  0
 13 16  1  0  0  0  0
 14  1  1  1  0  0  0
 14 15  1  0  0  0  0
 15 16  1  0  0  0  0
 17 13  2  0  0  0  0
 18 14  1  0  0  0  0
 18 17  1  0  0  0  0
 19 23  1  0  0  0  0
 21 22  1  0  0  0  0
 21 24  1  0  0  0  0
 23 27  1  0  0  0  0
 25 21  2  0  0  0  0
 26 25  1  0  0  0  0
 26 23  2  0  0  0  0
 27 24  2  0  0  0  0
 27 20  1  0  0  0  0
M  END
>  <MODEL>
8

>  <REMARK>
 VINA RESULT:      -7.2      1.269      2.035
  Name = 
  4 active torsions:
  status: ('A' for Active; 'I' for Inactive)
    1  A    between atoms: S_1  and  C_15
    2  A    between atoms: S_1  and  C_18
    3  A    between atoms: C_9  and  C_15
    4  A    between atoms: C_15  and  C_19
                            x       y       z     vdW  Elec       q    Type
                         _______ _______ _______ _____ _____    ______ ____

>  <TORSDO>
F 4

$$$$
=
 OpenBabel11052418293D

 27 30  0  0  1  0  0  0  0  0999 V2000
  190.7470  175.7020  144.1990 C   0  0  2  0  0  3  0  0  0  0  0  0
  188.6520  176.3030  145.3940 N   0  0  0  0  0  0  0  0  0  0  0  0
  185.7340  178.3410  144.4900 C   0  0  0  0  0  3  0  0  0  0  0  0
  183.7440  178.8650  145.7470 O   0  0  0  0  0  1  0  0  0  0  0  0
  188.9770  177.1450  143.1780 C   0  0  0  0  0  3  0  0  0  0  0  0
  186.6820  176.8180  146.6480 C   0  0  0  0  0  3  0  0  0  0  0  0
  185.4450  177.4650  146.7330 C   0  0  0  0  0  3  0  0  0  0  0  0
  187.4490  176.9290  145.4840 C   0  0  0  0  0  0  0  0  0  0  0  0
  184.9720  178.2250  145.6560 C   0  0  0  0  0  0  0  0  0  0  0  0
  186.9700  177.6950  144.3990 C   0  0  0  0  0  0  0  0  0  0  0  0
  189.4200  176.3940  144.2720 C   0  0  0  0  0  0  0  0  0  0  0  0
  187.7460  177.7980  143.2440 C   0  0  0  0  0  3  0  0  0  0  0  0
  194.1830  176.9170  146.5600 C   0  0  0  0  0  3  0  0  0  0  0  0
  191.7910  176.3840  145.0920 C   0  0  1  0  0  3  0  0  0  0  0  0
  192.0770  175.5510  146.3420 C   0  0  0  0  0  2  0  0  0  0  0  0
  192.9890  176.3400  147.2800 C   0  0  0  0  0  2  0  0  0  0  0  0
  194.2160  177.0670  145.2270 C   0  0  0  0  0  3  0  0  0  0  0  0
  193.1090  176.5710  144.3330 C   0  0  0  0  0  2  0  0  0  0  0  0
  191.3110  175.6430  142.4610 S   0  0  0  0  0  0  0  0  0  0  0  0
  193.0280  173.4400  143.6410 F   0  0  0  0  0  0  0  0  0  0  0  0
  190.6560  171.1120  142.1200 C   0  0  0  0  0  0  0  0  0  0  0  0
  190.4510  169.7440  142.0140 O   0  0  0  0  0  1  0  0  0  0  0  0
  191.0660  173.8730  142.3350 C   0  0  0  0  0  0  0  0  0  0  0  0
  191.7530  171.6020  142.8350 C   0  0  0  0  0  3  0  0  0  0  0  0
  189.7660  172.0010  141.5090 C   0  0  0  0  0  3  0  0  0  0  0  0
  189.9720  173.3790  141.6150 C   0  0  0  0  0  3  0  0  0  0  0  0
  191.9620  172.9800  142.9430 C   0  0  0  0  0  0  0  0  0  0  0  0
  1 19  1  6  0  0  0
  1 11  1  0  0  0  0
  2  8  1  0  0  0  0
  3  9  1  0  0  0  0
  5 12  2  0  0  0  0
  5 11  1  0  0  0  0
  6  7  1  0  0  0  0
  8  6  2  0  0  0  0
  9  4  1  0  0  0  0
  9  7  2  0  0  0  0
 10  3  2  0  0  0  0
 10  8  1  0  0  0  0
 11  2  2  0  0  0  0
 12 10  1  0  0  0  0
 13 16  1  0  0  0  0
 14  1  1  6  0  0  0
 14 15  1  0  0  0  0
 15 16  1  0  0  0  0
 17 13  2  0  0  0  0
 18 14  1  0  0  0  0
 18 17  1  0  0  0  0
 21 24  1  0  0  0  0
 22 21  1  0  0  0  0
 23 19  1  0  0  0  0
 23 27  1  0  0  0  0
 24 27  2  0  0  0  0
 25 26  1  0  0  0  0
 25 21  2  0  0  0  0
 26 23  2  0  0  0  0
 27 20  1  0  0  0  0
M  END
>  <MODEL>
9

>  <REMARK>
 VINA RESULT:      -7.0      2.859      6.448
  Name = 
  4 active torsions:
  status: ('A' for Active; 'I' for Inactive)
    1  A    between atoms: S_1  and  C_15
    2  A    between atoms: S_1  and  C_18
    3  A    between atoms: C_9  and  C_15
    4  A    between atoms: C_15  and  C_19
                            x       y       z     vdW  Elec       q    Type
                         _______ _______ _______ _____ _____    ______ ____

>  <TORSDO>
F 4

$$$$
