=
 OpenBabel11052418053D

 28 30  0  0  1  0  0  0  0  0999 V2000
  185.9970  177.9920  142.2870 C   0  0  1  0  0  3  0  0  0  0  0  0
  182.4210  178.2120  141.5220 C   0  0  0  0  0  3  0  0  0  0  0  0
  184.6160  178.0760  141.7230 C   0  0  0  0  0  0  0  0  0  0  0  0
  182.9660  178.2570  140.1550 N   0  0  0  0  0  0  0  0  0  0  0  0
  183.5520  178.1040  142.4360 N   0  0  0  0  0  0  0  0  0  0  0  0
  184.3500  178.1700  140.3470 N   0  0  0  0  0  2  0  0  0  0  0  0
  187.0540  177.7680  141.2030 C   0  0  1  0  0  3  0  0  0  0  0  0
  188.4100  178.3520  141.5720 C   0  0  0  0  0  1  0  0  0  0  0  0
  187.1860  176.3450  140.9290 N   0  0  0  0  0  2  0  0  0  0  0  0
  187.5500  175.6810  142.1740 C   0  0  1  0  0  3  0  0  0  0  0  0
  186.4230  175.1200  142.7440 F   0  0  0  0  0  0  0  0  0  0  0  0
  189.8620  174.9030  142.1590 C   0  0  0  0  0  2  0  0  0  0  0  0
  188.5780  174.6160  141.9350 C   0  0  0  0  0  0  0  0  0  0  0  0
  188.1510  173.2190  141.5780 C   0  0  1  0  0  3  0  0  0  0  0  0
  188.4020  172.9270  140.1080 C   0  0  0  0  0  1  0  0  0  0  0  0
  188.8490  172.2460  142.3990 N   0  0  0  0  0  1  0  0  0  0  0  0
  186.3130  179.1720  143.2040 C   0  0  0  0  0  2  0  0  0  0  0  0
  188.1370  177.6240  144.8730 C   0  0  0  0  0  3  0  0  0  0  0  0
  186.5200  177.8700  146.8390 C   0  0  2  0  0  3  0  0  0  0  0  0
  185.9860  178.8170  144.6180 C   0  0  0  0  0  0  0  0  0  0  0  0
  188.2180  176.0710  146.7700 C   0  0  0  0  0  0  0  0  0  0  0  0
  186.8440  178.1210  145.3820 C   0  0  0  0  0  0  0  0  0  0  0  0
  184.2440  178.6400  146.3360 C   0  0  0  0  0  3  0  0  0  0  0  0
  187.1250  176.5910  147.3440 C   0  0  0  0  0  3  0  0  0  0  0  0
  185.0570  177.9740  147.1560 C   0  0  0  0  0  3  0  0  0  0  0  0
  188.9350  174.6210  147.4340 Cl  0  0  0  0  0  0  0  0  0  0  0  0
  188.7870  176.6650  145.5390 C   0  0  0  0  0  3  0  0  0  0  0  0
  184.7220  179.1560  145.1220 O   0  0  0  0  0  0  0  0  0  0  0  0
  1 17  1  6  0  0  0
  2  5  1  0  0  0  0
  3  1  1  0  0  0  0
  3  5  2  0  0  0  0
  4  6  1  0  0  0  0
  4  2  2  0  0  0  0
  6  3  1  0  0  0  0
  7  8  1  1  0  0  0
  7  1  1  0  0  0  0
  9  7  1  0  0  0  0
  9 10  1  0  0  0  0
 10 11  1  6  0  0  0
 13 12  2  0  0  0  0
 13 10  1  0  0  0  0
 14 15  1  6  0  0  0
 14 13  1  0  0  0  0
 14 16  1  0  0  0  0
 17 20  1  0  0  0  0
 18 22  1  0  0  0  0
 18 27  2  0  0  0  0
 19 25  1  6  0  0  0
 19 24  1  0  0  0  0
 20 28  1  0  0  0  0
 20 22  2  0  0  0  0
 21 24  2  0  0  0  0
 21 26  1  0  0  0  0
 22 19  1  0  0  0  0
 23 25  2  0  0  0  0
 27 21  1  0  0  0  0
 28 23  1  0  0  0  0
M  END
>  <MODEL>
1

>  <REMARK>
 VINA RESULT:      -7.6      0.000      0.000
  Name = 
  8 active torsions:
  status: ('A' for Active; 'I' for Inactive)
    1  A    between atoms: C_1  and  N_2
    2  A    between atoms: C_1  and  C_27
    3  A    between atoms: N_2  and  C_3
    4  A    between atoms: C_3  and  C_11
    5  A    between atoms: C_6  and  C_11
    6  A    between atoms: C_10  and  C_17
    7  A    between atoms: C_16  and  C_27
    8  A    between atoms: C_17  and  C_27
                            x       y       z     vdW  Elec       q    Type
                         _______ _______ _______ _____ _____    ______ ____

>  <TORSDO>
F 8

$$$$
=
 OpenBabel11052418053D

 28 30  0  0  1  0  0  0  0  0999 V2000
  188.4590  176.7560  144.1720 C   0  0  1  0  0  3  0  0  0  0  0  0
  185.4270  176.9450  146.2200 C   0  0  0  0  0  3  0  0  0  0  0  0
  187.1180  176.9570  144.8000 C   0  0  0  0  0  0  0  0  0  0  0  0
  184.9720  177.6990  145.0400 N   0  0  0  0  0  0  0  0  0  0  0  0
  186.8010  176.5280  145.9640 N   0  0  0  0  0  0  0  0  0  0  0  0
  186.0790  177.6740  144.1830 N   0  0  0  0  0  2  0  0  0  0  0  0
  188.3900  176.7500  142.6440 C   0  0  1  0  0  3  0  0  0  0  0  0
  188.7570  178.0950  142.0320 C   0  0  0  0  0  1  0  0  0  0  0  0
  189.2610  175.7120  142.1140 N   0  0  0  0  0  2  0  0  0  0  0  0
  189.0920  174.5220  142.9380 C   0  0  1  0  0  3  0  0  0  0  0  0
  188.0690  173.7470  142.4230 F   0  0  0  0  0  0  0  0  0  0  0  0
  191.1290  173.6700  141.9030 C   0  0  0  0  0  2  0  0  0  0  0  0
  190.3570  173.7180  142.9900 C   0  0  0  0  0  0  0  0  0  0  0  0
  190.8040  173.0940  144.2830 C   0  0  1  0  0  3  0  0  0  0  0  0
  189.7140  173.1770  145.3370 C   0  0  0  0  0  1  0  0  0  0  0  0
  191.1850  171.7070  144.0750 N   0  0  0  0  0  1  0  0  0  0  0  0
  189.5010  177.7250  144.7260 C   0  0  0  0  0  2  0  0  0  0  0  0
  192.1470  176.9160  143.8000 C   0  0  0  0  0  3  0  0  0  0  0  0
  192.6600  175.9910  146.1280 C   0  0  2  0  0  3  0  0  0  0  0  0
  190.4600  176.9900  145.6070 C   0  0  0  0  0  0  0  0  0  0  0  0
  193.9120  175.2450  144.1280 C   0  0  0  0  0  0  0  0  0  0  0  0
  191.6830  176.6410  145.1740 C   0  0  0  0  0  0  0  0  0  0  0  0
  190.7700  175.6890  147.6640 C   0  0  0  0  0  3  0  0  0  0  0  0
  193.6170  175.0710  145.4220 C   0  0  0  0  0  3  0  0  0  0  0  0
  192.0040  175.3360  147.3080 C   0  0  0  0  0  3  0  0  0  0  0  0
  195.0860  174.1990  143.3620 Cl  0  0  0  0  0  0  0  0  0  0  0  0
  193.2070  176.2630  143.3160 C   0  0  0  0  0  3  0  0  0  0  0  0
  190.0340  176.5950  146.8840 O   0  0  0  0  0  0  0  0  0  0  0  0
  1 17  1  6  0  0  0
  1  3  1  0  0  0  0
  3  5  2  0  0  0  0
  4  2  2  0  0  0  0
  5  2  1  0  0  0  0
  6  3  1  0  0  0  0
  6  4  1  0  0  0  0
  7  8  1  6  0  0  0
  7  1  1  0  0  0  0
  9  7  1  0  0  0  0
  9 10  1  0  0  0  0
 10 11  1  6  0  0  0
 10 13  1  0  0  0  0
 12 13  2  0  0  0  0
 13 14  1  0  0  0  0
 14 15  1  1  0  0  0
 16 14  1  0  0  0  0
 17 20  1  0  0  0  0
 18 22  1  0  0  0  0
 19 24  1  6  0  0  0
 19 25  1  0  0  0  0
 20 28  1  0  0  0  0
 21 24  2  0  0  0  0
 22 20  2  0  0  0  0
 22 19  1  0  0  0  0
 25 23  2  0  0  0  0
 26 21  1  0  0  0  0
 27 18  2  0  0  0  0
 27 21  1  0  0  0  0
 28 23  1  0  0  0  0
M  END
>  <MODEL>
2

>  <REMARK>
 VINA RESULT:      -7.0      3.352      4.821
  Name = 
  8 active torsions:
  status: ('A' for Active; 'I' for Inactive)
    1  A    between atoms: C_1  and  N_2
    2  A    between atoms: C_1  and  C_27
    3  A    between atoms: N_2  and  C_3
    4  A    between atoms: C_3  and  C_11
    5  A    between atoms: C_6  and  C_11
    6  A    between atoms: C_10  and  C_17
    7  A    between atoms: C_16  and  C_27
    8  A    between atoms: C_17  and  C_27
                            x       y       z     vdW  Elec       q    Type
                         _______ _______ _______ _____ _____    ______ ____

>  <TORSDO>
F 8

$$$$
=
 OpenBabel11052418053D

 28 30  0  0  1  0  0  0  0  0999 V2000
  187.6180  177.1560  143.6780 C   0  0  1  0  0  3  0  0  0  0  0  0
  184.5790  179.1000  144.3200 C   0  0  0  0  0  3  0  0  0  0  0  0
  186.2660  177.7890  143.7630 C   0  0  0  0  0  0  0  0  0  0  0  0
  184.0790  178.2080  143.2610 N   0  0  0  0  0  0  0  0  0  0  0  0
  185.9760  178.7520  144.5550 N   0  0  0  0  0  0  0  0  0  0  0  0
  185.1860  177.4090  142.9500 N   0  0  0  0  0  2  0  0  0  0  0  0
  188.0850  176.9770  142.2320 C   0  0  1  0  0  3  0  0  0  0  0  0
  188.5940  178.2710  141.6130 C   0  0  0  0  0  1  0  0  0  0  0  0
  189.1230  175.9590  142.1710 N   0  0  0  0  0  2  0  0  0  0  0  0
  188.6080  174.7560  142.8120 C   0  0  1  0  0  3  0  0  0  0  0  0
  187.6330  174.1890  142.0130 F   0  0  0  0  0  0  0  0  0  0  0  0
  189.7740  173.1590  144.2400 C   0  0  0  0  0  2  0  0  0  0  0  0
  189.7050  173.7620  143.0510 C   0  0  0  0  0  0  0  0  0  0  0  0
  190.6210  173.3620  141.9280 C   0  0  1  0  0  3  0  0  0  0  0  0
  192.0780  173.5380  142.3200 C   0  0  0  0  0  1  0  0  0  0  0  0
  190.3790  171.9840  141.5380 N   0  0  0  0  0  1  0  0  0  0  0  0
  188.6400  177.8700  144.5590 C   0  0  0  0  0  2  0  0  0  0  0  0
  191.4540  177.1190  144.7230 C   0  0  0  0  0  3  0  0  0  0  0  0
  190.9470  175.7390  146.8160 C   0  0  2  0  0  3  0  0  0  0  0  0
  189.1510  176.9320  145.6050 C   0  0  0  0  0  0  0  0  0  0  0  0
  192.9660  175.3280  145.4460 C   0  0  0  0  0  0  0  0  0  0  0  0
  190.4530  176.6100  145.6820 C   0  0  0  0  0  0  0  0  0  0  0  0
  188.5910  175.2460  147.2980 C   0  0  0  0  0  3  0  0  0  0  0  0
  192.1480  174.9250  146.4270 C   0  0  0  0  0  3  0  0  0  0  0  0
  189.8700  174.9050  147.4460 C   0  0  0  0  0  3  0  0  0  0  0  0
  194.3940  174.3890  145.0730 Cl  0  0  0  0  0  0  0  0  0  0  0  0
  192.6430  176.5170  144.6260 C   0  0  0  0  0  3  0  0  0  0  0  0
  188.2310  176.3210  146.4700 O   0  0  0  0  0  0  0  0  0  0  0  0
  1  3  1  0  0  0  0
  1 17  1  1  0  0  0
  2  5  1  0  0  0  0
  3  5  2  0  0  0  0
  4  2  2  0  0  0  0
  6  4  1  0  0  0  0
  6  3  1  0  0  0  0
  7  8  1  1  0  0  0
  7  1  1  0  0  0  0
  9  7  1  0  0  0  0
  9 10  1  0  0  0  0
 10 11  1  6  0  0  0
 10 13  1  0  0  0  0
 13 12  2  0  0  0  0
 14 15  1  1  0  0  0
 14 13  1  0  0  0  0
 16 14  1  0  0  0  0
 17 20  1  0  0  0  0
 18 22  1  0  0  0  0
 19 24  1  6  0  0  0
 19 25  1  0  0  0  0
 20 22  2  0  0  0  0
 20 28  1  0  0  0  0
 21 24  2  0  0  0  0
 22 19  1  0  0  0  0
 23 25  2  0  0  0  0
 26 21  1  0  0  0  0
 27 18  2  0  0  0  0
 27 21  1  0  0  0  0
 28 23  1  0  0  0  0
M  END
>  <MODEL>
3

>  <REMARK>
 VINA RESULT:      -7.0      2.581      3.649
  Name = 
  8 active torsions:
  status: ('A' for Active; 'I' for Inactive)
    1  A    between atoms: C_1  and  N_2
    2  A    between atoms: C_1  and  C_27
    3  A    between atoms: N_2  and  C_3
    4  A    between atoms: C_3  and  C_11
    5  A    between atoms: C_6  and  C_11
    6  A    between atoms: C_10  and  C_17
    7  A    between atoms: C_16  and  C_27
    8  A    between atoms: C_17  and  C_27
                            x       y       z     vdW  Elec       q    Type
                         _______ _______ _______ _____ _____    ______ ____

>  <TORSDO>
F 8

$$$$
=
 OpenBabel11052418053D

 28 30  0  0  1  0  0  0  0  0999 V2000
  189.8780  175.8570  145.2770 C   0  0  1  0  0  3  0  0  0  0  0  0
  188.4470  176.6310  141.9950 C   0  0  0  0  0  3  0  0  0  0  0  0
  189.4150  176.4060  143.9660 C   0  0  0  0  0  0  0  0  0  0  0  0
  189.0860  177.9240  142.2930 N   0  0  0  0  0  0  0  0  0  0  0  0
  188.7120  175.7460  143.1230 N   0  0  0  0  0  0  0  0  0  0  0  0
  189.6760  177.7200  143.5470 N   0  0  0  0  0  2  0  0  0  0  0  0
  188.7200  175.6140  146.2480 C   0  0  1  0  0  3  0  0  0  0  0  0
  189.1110  174.7280  147.4220 C   0  0  0  0  0  1  0  0  0  0  0  0
  188.2100  176.8870  146.7360 N   0  0  0  0  0  2  0  0  0  0  0  0
  186.7550  176.8400  146.6750 C   0  0  1  0  0  3  0  0  0  0  0  0
  186.2510  176.5580  147.9310 F   0  0  0  0  0  0  0  0  0  0  0  0
  185.7720  179.0330  147.0860 C   0  0  0  0  0  2  0  0  0  0  0  0
  186.1950  178.1430  146.1870 C   0  0  0  0  0  0  0  0  0  0  0  0
  186.2350  178.4830  144.7230 C   0  0  1  0  0  3  0  0  0  0  0  0
  185.5080  177.4350  143.8970 C   0  0  0  0  0  1  0  0  0  0  0  0
  185.6480  179.7900  144.4860 N   0  0  0  0  0  1  0  0  0  0  0  0
  190.7830  174.6400  145.1000 C   0  0  0  0  0  2  0  0  0  0  0  0
  192.9760  172.7410  144.7850 C   0  0  0  0  0  3  0  0  0  0  0  0
  194.6430  174.6050  145.3250 C   0  0  2  0  0  3  0  0  0  0  0  0
  192.2070  175.0260  145.3400 C   0  0  0  0  0  0  0  0  0  0  0  0
  195.2400  172.2150  145.5680 C   0  0  0  0  0  0  0  0  0  0  0  0
  193.2090  174.1470  145.1720 C   0  0  0  0  0  0  0  0  0  0  0  0
  193.7500  176.6650  146.3160 C   0  0  0  0  0  3  0  0  0  0  0  0
  195.5450  173.4990  145.7960 C   0  0  0  0  0  3  0  0  0  0  0  0
  194.7920  175.8530  146.1440 C   0  0  0  0  0  3  0  0  0  0  0  0
  196.3530  170.9620  146.0680 Cl  0  0  0  0  0  0  0  0  0  0  0  0
  193.9430  171.8370  144.9630 C   0  0  0  0  0  3  0  0  0  0  0  0
  192.4830  176.3130  145.8250 O   0  0  0  0  0  0  0  0  0  0  0  0
  1 17  1  6  0  0  0
  1  7  1  0  0  0  0
  2  4  2  0  0  0  0
  2  5  1  0  0  0  0
  3  1  1  0  0  0  0
  4  6  1  0  0  0  0
  5  3  2  0  0  0  0
  6  3  1  0  0  0  0
  7  9  1  0  0  0  0
  7  8  1  1  0  0  0
 10  9  1  0  0  0  0
 10 11  1  1  0  0  0
 13 10  1  0  0  0  0
 13 12  2  0  0  0  0
 14 15  1  6  0  0  0
 14 13  1  0  0  0  0
 16 14  1  0  0  0  0
 17 20  1  0  0  0  0
 18 27  2  0  0  0  0
 18 22  1  0  0  0  0
 19 24  1  1  0  0  0
 19 25  1  0  0  0  0
 20 28  1  0  0  0  0
 21 24  2  0  0  0  0
 21 26  1  0  0  0  0
 22 19  1  0  0  0  0
 22 20  2  0  0  0  0
 25 23  2  0  0  0  0
 27 21  1  0  0  0  0
 28 23  1  0  0  0  0
M  END
>  <MODEL>
4

>  <REMARK>
 VINA RESULT:      -6.9      4.434      7.176
  Name = 
  8 active torsions:
  status: ('A' for Active; 'I' for Inactive)
    1  A    between atoms: C_1  and  N_2
    2  A    between atoms: C_1  and  C_27
    3  A    between atoms: N_2  and  C_3
    4  A    between atoms: C_3  and  C_11
    5  A    between atoms: C_6  and  C_11
    6  A    between atoms: C_10  and  C_17
    7  A    between atoms: C_16  and  C_27
    8  A    between atoms: C_17  and  C_27
                            x       y       z     vdW  Elec       q    Type
                         _______ _______ _______ _____ _____    ______ ____

>  <TORSDO>
F 8

$$$$
=
 OpenBabel11052418053D

 28 30  0  0  1  0  0  0  0  0999 V2000
  188.8840  174.5250  142.4190 C   0  0  1  0  0  3  0  0  0  0  0  0
  188.6540  172.5950  139.3130 C   0  0  0  0  0  3  0  0  0  0  0  0
  189.0490  173.7850  141.1300 C   0  0  0  0  0  0  0  0  0  0  0  0
  190.0710  172.9910  139.2500 N   0  0  0  0  0  0  0  0  0  0  0  0
  188.1020  173.1570  140.5400 N   0  0  0  0  0  0  0  0  0  0  0  0
  190.2590  173.7390  140.4190 N   0  0  0  0  0  2  0  0  0  0  0  0
  189.4950  173.7720  143.6030 C   0  0  1  0  0  3  0  0  0  0  0  0
  189.3800  172.2610  143.4620 C   0  0  0  0  0  1  0  0  0  0  0  0
  190.8910  174.1500  143.7610 N   0  0  0  0  0  2  0  0  0  0  0  0
  191.2170  174.0790  145.1790 C   0  0  1  0  0  3  0  0  0  0  0  0
  192.4880  173.5590  145.3340 F   0  0  0  0  0  0  0  0  0  0  0  0
  191.6510  176.4790  145.1580 C   0  0  0  0  0  2  0  0  0  0  0  0
  191.1450  175.4350  145.8170 C   0  0  0  0  0  0  0  0  0  0  0  0
  190.3990  175.6240  147.1080 C   0  0  1  0  0  3  0  0  0  0  0  0
  189.1800  174.7200  147.1760 C   0  0  0  0  0  1  0  0  0  0  0  0
  191.2680  175.3640  148.2430 N   0  0  0  0  0  1  0  0  0  0  0  0
  189.3610  175.9720  142.3130 C   0  0  0  0  0  2  0  0  0  0  0  0
  188.1120  177.3620  144.5530 C   0  0  0  0  0  3  0  0  0  0  0  0
  186.5160  178.5190  142.9230 C   0  0  2  0  0  3  0  0  0  0  0  0
  188.1880  176.8800  142.1280 C   0  0  0  0  0  0  0  0  0  0  0  0
  185.9900  178.3130  145.3330 C   0  0  0  0  0  0  0  0  0  0  0  0
  187.6350  177.5300  143.1660 C   0  0  0  0  0  0  0  0  0  0  0  0
  186.3710  177.6080  140.6490 C   0  0  0  0  0  3  0  0  0  0  0  0
  185.5790  178.6160  144.0940 C   0  0  0  0  0  3  0  0  0  0  0  0
  185.7910  178.3010  141.6280 C   0  0  0  0  0  3  0  0  0  0  0  0
  184.8900  178.5090  146.6780 Cl  0  0  0  0  0  0  0  0  0  0  0  0
  187.3360  177.7450  145.5710 C   0  0  0  0  0  3  0  0  0  0  0  0
  187.6140  176.9890  140.8530 O   0  0  0  0  0  0  0  0  0  0  0  0
  1 17  1  6  0  0  0
  1  7  1  0  0  0  0
  2  5  1  0  0  0  0
  3  1  1  0  0  0  0
  4  2  2  0  0  0  0
  4  6  1  0  0  0  0
  5  3  2  0  0  0  0
  6  3  1  0  0  0  0
  7  8  1  6  0  0  0
  7  9  1  0  0  0  0
  9 10  1  0  0  0  0
 10 11  1  6  0  0  0
 10 13  1  0  0  0  0
 12 13  2  0  0  0  0
 13 14  1  0  0  0  0
 14 15  1  6  0  0  0
 14 16  1  0  0  0  0
 18 27  2  0  0  0  0
 19 25  1  6  0  0  0
 19 22  1  0  0  0  0
 19 24  1  0  0  0  0
 20 17  1  0  0  0  0
 20 22  2  0  0  0  0
 21 27  1  0  0  0  0
 21 26  1  0  0  0  0
 22 18  1  0  0  0  0
 23 28  1  0  0  0  0
 23 25  2  0  0  0  0
 24 21  2  0  0  0  0
 28 20  1  0  0  0  0
M  END
>  <MODEL>
5

>  <REMARK>
 VINA RESULT:      -6.9      3.326      5.628
  Name = 
  8 active torsions:
  status: ('A' for Active; 'I' for Inactive)
    1  A    between atoms: C_1  and  N_2
    2  A    between atoms: C_1  and  C_27
    3  A    between atoms: N_2  and  C_3
    4  A    between atoms: C_3  and  C_11
    5  A    between atoms: C_6  and  C_11
    6  A    between atoms: C_10  and  C_17
    7  A    between atoms: C_16  and  C_27
    8  A    between atoms: C_17  and  C_27
                            x       y       z     vdW  Elec       q    Type
                         _______ _______ _______ _____ _____    ______ ____

>  <TORSDO>
F 8

$$$$
=
 OpenBabel11052418053D

 28 30  0  0  1  0  0  0  0  0999 V2000
  189.0930  176.2150  142.8780 C   0  0  1  0  0  3  0  0  0  0  0  0
  189.3930  173.3290  140.6410 C   0  0  0  0  0  3  0  0  0  0  0  0
  188.9650  174.9900  142.0310 C   0  0  0  0  0  0  0  0  0  0  0  0
  188.0250  173.1100  141.1400 N   0  0  0  0  0  0  0  0  0  0  0  0
  189.8960  174.5420  141.2750 N   0  0  0  0  0  0  0  0  0  0  0  0
  187.8140  174.1850  142.0120 N   0  0  0  0  0  2  0  0  0  0  0  0
  190.3410  176.1800  143.7640 C   0  0  1  0  0  3  0  0  0  0  0  0
  191.1780  177.4460  143.6530 C   0  0  0  0  0  1  0  0  0  0  0  0
  189.9550  175.9610  145.1500 N   0  0  0  0  0  2  0  0  0  0  0  0
  190.8290  176.7700  145.9910 C   0  0  1  0  0  3  0  0  0  0  0  0
  190.0640  177.6430  146.7430 F   0  0  0  0  0  0  0  0  0  0  0  0
  191.0440  175.2910  147.9190 C   0  0  0  0  0  2  0  0  0  0  0  0
  191.6500  175.9060  146.9010 C   0  0  0  0  0  0  0  0  0  0  0  0
  193.0970  175.6390  146.5890 C   0  0  1  0  0  3  0  0  0  0  0  0
  193.2490  174.4130  145.7060 C   0  0  0  0  0  1  0  0  0  0  0  0
  193.7000  176.7910  145.9410 N   0  0  0  0  0  1  0  0  0  0  0  0
  188.9730  177.4950  142.0550 C   0  0  0  0  0  2  0  0  0  0  0  0
  187.3880  178.2850  144.3720 C   0  0  0  0  0  3  0  0  0  0  0  0
  185.4020  178.7590  142.8310 C   0  0  2  0  0  3  0  0  0  0  0  0
  187.5360  177.8880  141.9350 C   0  0  0  0  0  0  0  0  0  0  0  0
  185.0990  178.3480  145.2530 C   0  0  0  0  0  0  0  0  0  0  0  0
  186.8230  178.2700  143.0080 C   0  0  0  0  0  0  0  0  0  0  0  0
  185.5160  177.8780  140.5420 C   0  0  0  0  0  3  0  0  0  0  0  0
  184.5510  178.4820  144.0380 C   0  0  0  0  0  3  0  0  0  0  0  0
  184.7590  178.2890  141.5590 C   0  0  0  0  0  3  0  0  0  0  0  0
  184.0670  178.0990  146.6420 Cl  0  0  0  0  0  0  0  0  0  0  0  0
  186.5690  178.3350  145.4270 C   0  0  0  0  0  3  0  0  0  0  0  0
  186.9090  177.7790  140.6860 O   0  0  0  0  0  0  0  0  0  0  0  0
  1 17  1  6  0  0  0
  1  7  1  0  0  0  0
  2  4  2  0  0  0  0
  2  5  1  0  0  0  0
  3  1  1  0  0  0  0
  4  6  1  0  0  0  0
  5  3  2  0  0  0  0
  6  3  1  0  0  0  0
  7  8  1  1  0  0  0
  7  9  1  0  0  0  0
  9 10  1  0  0  0  0
 10 11  1  1  0  0  0
 10 13  1  0  0  0  0
 13 12  2  0  0  0  0
 14 15  1  6  0  0  0
 14 13  1  0  0  0  0
 16 14  1  0  0  0  0
 18 27  2  0  0  0  0
 19 25  1  6  0  0  0
 19 22  1  0  0  0  0
 19 24  1  0  0  0  0
 20 17  1  0  0  0  0
 20 22  2  0  0  0  0
 21 27  1  0  0  0  0
 21 26  1  0  0  0  0
 22 18  1  0  0  0  0
 23 28  1  0  0  0  0
 23 25  2  0  0  0  0
 24 21  2  0  0  0  0
 28 20  1  0  0  0  0
M  END
>  <MODEL>
6

>  <REMARK>
 VINA RESULT:      -6.8      3.241      5.464
  Name = 
  8 active torsions:
  status: ('A' for Active; 'I' for Inactive)
    1  A    between atoms: C_1  and  N_2
    2  A    between atoms: C_1  and  C_27
    3  A    between atoms: N_2  and  C_3
    4  A    between atoms: C_3  and  C_11
    5  A    between atoms: C_6  and  C_11
    6  A    between atoms: C_10  and  C_17
    7  A    between atoms: C_16  and  C_27
    8  A    between atoms: C_17  and  C_27
                            x       y       z     vdW  Elec       q    Type
                         _______ _______ _______ _____ _____    ______ ____

>  <TORSDO>
F 8

$$$$
=
 OpenBabel11052418053D

 28 30  0  0  1  0  0  0  0  0999 V2000
  188.9420  175.8920  145.0370 C   0  0  1  0  0  3  0  0  0  0  0  0
  190.2170  173.8680  142.2630 C   0  0  0  0  0  3  0  0  0  0  0  0
  189.6380  175.2600  143.8750 C   0  0  0  0  0  0  0  0  0  0  0  0
  191.0930  175.0440  142.1300 N   0  0  0  0  0  0  0  0  0  0  0  0
  189.3310  174.1140  143.3940 N   0  0  0  0  0  0  0  0  0  0  0  0
  190.6790  175.8850  143.1700 N   0  0  0  0  0  2  0  0  0  0  0  0
  189.6350  175.5840  146.3670 C   0  0  1  0  0  3  0  0  0  0  0  0
  188.6980  174.9550  147.3880 C   0  0  0  0  0  1  0  0  0  0  0  0
  190.7750  174.7100  146.1370 N   0  0  0  0  0  2  0  0  0  0  0  0
  191.9360  175.3080  146.7840 C   0  0  1  0  0  3  0  0  0  0  0  0
  191.9330  174.9810  148.1280 F   0  0  0  0  0  0  0  0  0  0  0  0
  193.1540  173.8150  145.2890 C   0  0  0  0  0  2  0  0  0  0  0  0
  193.2100  174.8310  146.1520 C   0  0  0  0  0  0  0  0  0  0  0  0
  194.4950  175.5740  146.3890 C   0  0  1  0  0  3  0  0  0  0  0  0
  195.4940  175.3110  145.2750 C   0  0  0  0  0  1  0  0  0  0  0  0
  194.2480  177.0010  146.5020 N   0  0  0  0  0  1  0  0  0  0  0  0
  188.6960  177.3830  144.8160 C   0  0  0  0  0  2  0  0  0  0  0  0
  186.7660  177.1700  142.6390 C   0  0  0  0  0  3  0  0  0  0  0  0
  184.8910  177.7930  144.2630 C   0  0  2  0  0  3  0  0  0  0  0  0
  187.2460  177.6920  145.0080 C   0  0  0  0  0  0  0  0  0  0  0  0
  184.6330  178.0590  141.8160 C   0  0  0  0  0  0  0  0  0  0  0  0
  186.3640  177.5700  144.0020 C   0  0  0  0  0  0  0  0  0  0  0  0
  185.5450  178.7450  146.4290 C   0  0  0  0  0  3  0  0  0  0  0  0
  184.1690  178.3050  143.0480 C   0  0  0  0  0  3  0  0  0  0  0  0
  184.6150  178.6220  145.4820 C   0  0  0  0  0  3  0  0  0  0  0  0
  183.7250  178.6090  140.4260 Cl  0  0  0  0  0  0  0  0  0  0  0  0
  185.9390  177.3920  141.6130 C   0  0  0  0  0  3  0  0  0  0  0  0
  186.8230  178.1930  146.2480 O   0  0  0  0  0  0  0  0  0  0  0  0
  1 17  1  6  0  0  0
  1  7  1  0  0  0  0
  2  5  1  0  0  0  0
  3  1  1  0  0  0  0
  4  2  2  0  0  0  0
  4  6  1  0  0  0  0
  5  3  2  0  0  0  0
  6  3  1  0  0  0  0
  7  8  1  1  0  0  0
  9  7  1  0  0  0  0
  9 10  1  0  0  0  0
 10 11  1  1  0  0  0
 12 13  2  0  0  0  0
 13 14  1  0  0  0  0
 13 10  1  0  0  0  0
 14 15  1  6  0  0  0
 14 16  1  0  0  0  0
 17 20  1  0  0  0  0
 18 22  1  0  0  0  0
 19 24  1  6  0  0  0
 19 25  1  0  0  0  0
 20 28  1  0  0  0  0
 21 24  2  0  0  0  0
 22 19  1  0  0  0  0
 22 20  2  0  0  0  0
 25 23  2  0  0  0  0
 26 21  1  0  0  0  0
 27 21  1  0  0  0  0
 27 18  2  0  0  0  0
 28 23  1  0  0  0  0
M  END
>  <MODEL>
7

>  <REMARK>
 VINA RESULT:      -6.7      3.969      6.161
  Name = 
  8 active torsions:
  status: ('A' for Active; 'I' for Inactive)
    1  A    between atoms: C_1  and  N_2
    2  A    between atoms: C_1  and  C_27
    3  A    between atoms: N_2  and  C_3
    4  A    between atoms: C_3  and  C_11
    5  A    between atoms: C_6  and  C_11
    6  A    between atoms: C_10  and  C_17
    7  A    between atoms: C_16  and  C_27
    8  A    between atoms: C_17  and  C_27
                            x       y       z     vdW  Elec       q    Type
                         _______ _______ _______ _____ _____    ______ ____

>  <TORSDO>
F 8

$$$$
=
 OpenBabel11052418053D

 28 30  0  0  1  0  0  0  0  0999 V2000
  189.2620  176.4630  144.9310 C   0  0  1  0  0  3  0  0  0  0  0  0
  188.4270  177.8880  141.6600 C   0  0  0  0  0  3  0  0  0  0  0  0
  188.7780  176.8260  143.5640 C   0  0  0  0  0  0  0  0  0  0  0  0
  187.7290  176.5970  141.5490 N   0  0  0  0  0  0  0  0  0  0  0  0
  189.0630  177.9250  142.9720 N   0  0  0  0  0  0  0  0  0  0  0  0
  187.9880  175.9730  142.7750 N   0  0  0  0  0  2  0  0  0  0  0  0
  188.1120  176.1330  145.8850 C   0  0  1  0  0  3  0  0  0  0  0  0
  188.5770  175.4070  147.1390 C   0  0  0  0  0  1  0  0  0  0  0  0
  187.4090  177.3530  146.2510 N   0  0  0  0  0  2  0  0  0  0  0  0
  185.9950  177.0310  146.3890 C   0  0  1  0  0  3  0  0  0  0  0  0
  185.6290  177.1200  147.7190 F   0  0  0  0  0  0  0  0  0  0  0  0
  184.0710  178.5090  146.1340 C   0  0  0  0  0  2  0  0  0  0  0  0
  185.1490  177.9620  145.5700 C   0  0  0  0  0  0  0  0  0  0  0  0
  185.5890  178.3670  144.1910 C   0  0  1  0  0  3  0  0  0  0  0  0
  184.5820  177.9230  143.1430 C   0  0  0  0  0  1  0  0  0  0  0  0
  185.7760  179.8050  144.1160 N   0  0  0  0  0  1  0  0  0  0  0  0
  190.3410  175.3830  144.8870 C   0  0  0  0  0  2  0  0  0  0  0  0
  192.5690  175.8340  143.0600 C   0  0  0  0  0  3  0  0  0  0  0  0
  193.9210  176.8390  144.9860 C   0  0  2  0  0  3  0  0  0  0  0  0
  191.6440  175.9480  145.3510 C   0  0  0  0  0  0  0  0  0  0  0  0
  195.0160  175.9610  142.9470 C   0  0  0  0  0  0  0  0  0  0  0  0
  192.6560  176.1710  144.4950 C   0  0  0  0  0  0  0  0  0  0  0  0
  193.0940  176.4570  147.2640 C   0  0  0  0  0  3  0  0  0  0  0  0
  195.1310  176.4080  144.2040 C   0  0  0  0  0  3  0  0  0  0  0  0
  194.1270  176.7240  146.4670 C   0  0  0  0  0  3  0  0  0  0  0  0
  196.4550  175.5390  142.0470 Cl  0  0  0  0  0  0  0  0  0  0  0  0
  193.6870  175.7490  142.3320 C   0  0  0  0  0  3  0  0  0  0  0  0
  191.8300  176.1760  146.7230 O   0  0  0  0  0  0  0  0  0  0  0  0
  1 17  1  6  0  0  0
  1  7  1  0  0  0  0
  2  5  1  0  0  0  0
  3  1  1  0  0  0  0
  4  2  2  0  0  0  0
  4  6  1  0  0  0  0
  5  3  2  0  0  0  0
  6  3  1  0  0  0  0
  7  9  1  0  0  0  0
  7  8  1  1  0  0  0
  9 10  1  0  0  0  0
 10 11  1  1  0  0  0
 13 12  2  0  0  0  0
 13 10  1  0  0  0  0
 14 15  1  6  0  0  0
 14 13  1  0  0  0  0
 16 14  1  0  0  0  0
 17 20  1  0  0  0  0
 18 22  1  0  0  0  0
 19 24  1  6  0  0  0
 19 25  1  0  0  0  0
 20 28  1  0  0  0  0
 21 24  2  0  0  0  0
 22 19  1  0  0  0  0
 22 20  2  0  0  0  0
 25 23  2  0  0  0  0
 26 21  1  0  0  0  0
 27 21  1  0  0  0  0
 27 18  2  0  0  0  0
 28 23  1  0  0  0  0
M  END
>  <MODEL>
8

>  <REMARK>
 VINA RESULT:      -6.7      3.948      6.676
  Name = 
  8 active torsions:
  status: ('A' for Active; 'I' for Inactive)
    1  A    between atoms: C_1  and  N_2
    2  A    between atoms: C_1  and  C_27
    3  A    between atoms: N_2  and  C_3
    4  A    between atoms: C_3  and  C_11
    5  A    between atoms: C_6  and  C_11
    6  A    between atoms: C_10  and  C_17
    7  A    between atoms: C_16  and  C_27
    8  A    between atoms: C_17  and  C_27
                            x       y       z     vdW  Elec       q    Type
                         _______ _______ _______ _____ _____    ______ ____

>  <TORSDO>
F 8

$$$$
=
 OpenBabel11052418053D

 28 30  0  0  1  0  0  0  0  0999 V2000
  191.0300  176.0810  145.3740 C   0  0  1  0  0  3  0  0  0  0  0  0
  194.5670  175.3110  145.9380 C   0  0  0  0  0  3  0  0  0  0  0  0
  192.5160  176.0150  145.5250 C   0  0  0  0  0  0  0  0  0  0  0  0
  194.6970  176.6780  145.4060 N   0  0  0  0  0  0  0  0  0  0  0  0
  193.1450  174.9900  145.9640 N   0  0  0  0  0  0  0  0  0  0  0  0
  193.3740  177.0660  145.1640 N   0  0  0  0  0  2  0  0  0  0  0  0
  190.3150  176.2300  146.7190 C   0  0  1  0  0  3  0  0  0  0  0  0
  191.2110  176.8160  147.8010 C   0  0  0  0  0  1  0  0  0  0  0  0
  189.1280  177.0560  146.5580 N   0  0  0  0  0  2  0  0  0  0  0  0
  187.9820  176.1690  146.4090 C   0  0  1  0  0  3  0  0  0  0  0  0
  187.8610  175.3790  147.5370 F   0  0  0  0  0  0  0  0  0  0  0  0
  185.7680  176.4370  145.4220 C   0  0  0  0  0  2  0  0  0  0  0  0
  186.7190  176.9510  146.2040 C   0  0  0  0  0  0  0  0  0  0  0  0
  186.4840  178.2230  146.9700 C   0  0  1  0  0  3  0  0  0  0  0  0
  185.6180  179.1880  146.1790 C   0  0  0  0  0  1  0  0  0  0  0  0
  185.8620  177.9400  148.2520 N   0  0  0  0  0  1  0  0  0  0  0  0
  190.6060  177.1270  144.3450 C   0  0  0  0  0  2  0  0  0  0  0  0
  188.2200  178.2880  143.1320 C   0  0  0  0  0  3  0  0  0  0  0  0
  188.1680  176.3690  141.4410 C   0  0  2  0  0  3  0  0  0  0  0  0
  189.8890  176.4640  143.2140 C   0  0  0  0  0  0  0  0  0  0  0  0
  186.1540  177.7200  141.9380 C   0  0  0  0  0  0  0  0  0  0  0  0
  188.8030  177.0200  142.6510 C   0  0  0  0  0  0  0  0  0  0  0  0
  189.5590  174.4040  141.9220 C   0  0  0  0  0  3  0  0  0  0  0  0
  186.6910  176.6360  141.3630 C   0  0  0  0  0  3  0  0  0  0  0  0
  188.4930  174.9110  141.3020 C   0  0  0  0  0  3  0  0  0  0  0  0
  184.4430  178.0330  141.7610 Cl  0  0  0  0  0  0  0  0  0  0  0  0
  186.9740  178.6180  142.7820 C   0  0  0  0  0  3  0  0  0  0  0  0
  190.3230  175.1990  142.7900 O   0  0  0  0  0  0  0  0  0  0  0  0
  1 17  1  6  0  0  0
  1  3  1  0  0  0  0
  1  7  1  0  0  0  0
  2  5  1  0  0  0  0
  3  5  2  0  0  0  0
  4  2  2  0  0  0  0
  6  4  1  0  0  0  0
  6  3  1  0  0  0  0
  7  8  1  1  0  0  0
  9  7  1  0  0  0  0
 10  9  1  0  0  0  0
 10 11  1  1  0  0  0
 12 13  2  0  0  0  0
 13 10  1  0  0  0  0
 13 14  1  0  0  0  0
 14 15  1  6  0  0  0
 14 16  1  0  0  0  0
 19 25  1  1  0  0  0
 19 22  1  0  0  0  0
 20 17  1  0  0  0  0
 21 27  1  0  0  0  0
 22 18  1  0  0  0  0
 22 20  2  0  0  0  0
 23 28  1  0  0  0  0
 24 19  1  0  0  0  0
 24 21  2  0  0  0  0
 25 23  2  0  0  0  0
 26 21  1  0  0  0  0
 27 18  2  0  0  0  0
 28 20  1  0  0  0  0
M  END
>  <MODEL>
9

>  <REMARK>
 VINA RESULT:      -6.6      4.080      7.424
  Name = 
  8 active torsions:
  status: ('A' for Active; 'I' for Inactive)
    1  A    between atoms: C_1  and  N_2
    2  A    between atoms: C_1  and  C_27
    3  A    between atoms: N_2  and  C_3
    4  A    between atoms: C_3  and  C_11
    5  A    between atoms: C_6  and  C_11
    6  A    between atoms: C_10  and  C_17
    7  A    between atoms: C_16  and  C_27
    8  A    between atoms: C_17  and  C_27
                            x       y       z     vdW  Elec       q    Type
                         _______ _______ _______ _____ _____    ______ ____

>  <TORSDO>
F 8

$$$$
