=
 OpenBabel11052420403D

 34 34  0  0  1  0  0  0  0  0999 V2000
  192.6280  175.9300  143.4260 O   0  0  0  0  0  0  0  0  0  0  0  0
  192.7880  176.9720  144.3420 C   0  0  0  0  0  2  0  0  0  0  0  0
  192.2220  176.5800  145.6990 C   0  0  2  0  0  3  0  0  0  0  0  0
  193.3840  176.2100  146.6050 C   0  0  0  0  0  2  0  0  0  0  0  0
  194.4230  177.1270  146.4550 O   0  0  0  0  0  1  0  0  0  0  0  0
  191.3670  175.4770  145.5450 O   0  0  0  0  0  0  0  0  0  0  0  0
  190.0230  175.2210  147.5450 C   0  0  0  0  0  2  0  0  0  0  0  0
  189.1650  174.6690  146.4160 C   0  0  0  0  0  2  0  0  0  0  0  0
  190.1400  175.8010  146.1520 C   0  0  0  0  0  0  0  0  0  0  0  0
  189.5860  177.2170  146.0200 C   0  0  0  0  0  2  0  0  0  0  0  0
  188.0660  177.2310  146.0790 C   0  0  0  0  0  2  0  0  0  0  0  0
  187.3620  177.6600  144.4590 S   0  0  0  0  0  0  0  0  0  0  0  0
  185.6650  177.2850  145.0080 C   0  0  1  0  0  3  0  0  0  0  0  0
  185.6730  176.9380  146.4840 C   0  0  0  0  0  1  0  0  0  0  0  0
  184.7000  178.4410  144.7440 C   0  0  1  0  0  3  0  0  0  0  0  0
  183.9350  178.7300  145.8770 O   0  0  0  0  0  1  0  0  0  0  0  0
  185.4430  179.6810  144.2890 C   0  0  0  0  0  1  0  0  0  0  0  0
  193.8700  175.8070  142.7980 C   0  0  0  0  0  2  0  0  0  0  0  0
  194.7130  174.7470  143.4900 C   0  0  2  0  0  3  0  0  0  0  0  0
  196.0030  175.3190  143.9810 C   0  0  0  0  0  0  0  0  0  0  0  0
  196.3180  176.4970  143.6710 O   0  0  0  0  0  0  0  0  0  0  0  0
  196.8680  174.5530  144.8150 N   0  0  0  0  0  1  0  0  0  0  0  0
  195.0390  173.3740  142.3410 S   0  0  0  0  0  0  0  0  0  0  0  0
  193.7210  172.3330  143.0450 C   0  0  1  0  0  3  0  0  0  0  0  0
  193.8140  171.5670  145.3120 O   0  0  0  0  0  1  0  0  0  0  0  0
  193.5200  172.6750  144.5170 C   0  0  0  0  0  2  0  0  0  0  0  0
  192.3940  171.3670  141.3000 O   0  0  0  0  0  1  0  0  0  0  0  0
  192.4250  172.4150  142.2210 C   0  0  1  0  0  3  0  0  0  0  0  0
  191.1470  172.4060  143.0840 C   0  0  2  0  0  3  0  0  0  0  0  0
  190.3460  171.2880  142.8130 O   0  0  0  0  0  1  0  0  0  0  0  0
  190.4040  173.6040  142.9910 O   0  0  0  0  0  0  0  0  0  0  0  0
  189.0360  173.2840  142.9420 C   0  0  0  0  0  2  0  0  0  0  0  0
  188.2730  174.3710  142.2090 C   0  0  0  0  0  2  0  0  0  0  0  0
  188.7230  174.4480  140.7620 C   0  0  0  0  0  1  0  0  0  0  0  0
  1  2  1  0  0  0  0
  3  2  1  6  0  0  0
  3  4  1  0  0  0  0
  5  4  1  0  0  0  0
  6  3  1  0  0  0  0
  6  9  1  0  0  0  0
  8  7  1  0  0  0  0
  9  8  1  0  0  0  0
  9  7  1  0  0  0  0
 10 11  1  0  0  0  0
 10  9  1  0  0  0  0
 12 13  1  0  0  0  0
 12 11  1  0  0  0  0
 13 14  1  1  0  0  0
 15 17  1  1  0  0  0
 15 13  1  0  0  0  0
 15 16  1  0  0  0  0
 18  1  1  0  0  0  0
 19 18  1  6  0  0  0
 19 20  1  0  0  0  0
 20 22  1  0  0  0  0
 21 20  2  0  0  0  0
 23 24  1  0  0  0  0
 23 19  1  0  0  0  0
 24 26  1  1  0  0  0
 26 25  1  0  0  0  0
 28 27  1  6  0  0  0
 28 24  1  0  0  0  0
 28 29  1  0  0  0  0
 29 30  1  6  0  0  0
 31 29  1  0  0  0  0
 32 31  1  0  0  0  0
 33 32  1  0  0  0  0
 34 33  1  0  0  0  0
M  END
>  <MODEL>
1

>  <REMARK>
 VINA RESULT:      -4.6      0.000      0.000
  Name = 
  21 active torsions:
  status: ('A' for Active; 'I' for Inactive)
    1  A    between atoms: O_2  and  C_23
    2  A    between atoms: O_2  and  C_32
    3  A    between atoms: C_3  and  C_25
    4  A    between atoms: C_4  and  C_30
    5  A    between atoms: C_7  and  O_16
    6  A    between atoms: C_7  and  C_29
    7  A    between atoms: C_8  and  C_10
    8  A    between atoms: C_10  and  S_17
    9  A    between atoms: C_11  and  C_26
   10  A    between atoms: C_12  and  S_17
   11  A    between atoms: C_12  and  C_22
   12  A    between atoms: O_16  and  C_30
   13  A    between atoms: C_19  and  C_22
   14  A    between atoms: C_19  and  O_28
   15  A    between atoms: C_23  and  C_25
   16  A    between atoms: C_25  and  S_27
   17  A    between atoms: C_26  and  O_28
   18  A    between atoms: C_26  and  C_32
   19  A    between atoms: S_27  and  C_33
   20  A    between atoms: C_29  and  C_33
   21  A    between atoms: C_33  and  C_34
                            x       y       z     vdW  Elec       q    Type
                         _______ _______ _______ _____ _____    ______ ____

>  <TORSDO>
F 21

$$$$
=
 OpenBabel11052420403D

 34 34  0  0  1  0  0  0  0  0999 V2000
  191.6330  177.4690  143.8670 O   0  0  0  0  0  0  0  0  0  0  0  0
  192.6570  176.7210  143.2810 C   0  0  0  0  0  2  0  0  0  0  0  0
  193.3740  175.8840  144.3300 C   0  0  2  0  0  3  0  0  0  0  0  0
  194.4160  176.7620  145.0010 C   0  0  0  0  0  2  0  0  0  0  0  0
  195.5770  176.8060  144.2300 O   0  0  0  0  0  1  0  0  0  0  0  0
  194.0000  174.7930  143.7060 O   0  0  0  0  0  0  0  0  0  0  0  0
  192.8650  173.5730  145.4660 C   0  0  0  0  0  2  0  0  0  0  0  0
  193.8810  172.5950  144.8950 C   0  0  0  0  0  2  0  0  0  0  0  0
  193.2450  173.6430  144.0020 C   0  0  0  0  0  0  0  0  0  0  0  0
  192.1340  173.2060  143.0510 C   0  0  0  0  0  2  0  0  0  0  0  0
  190.8030  173.0660  143.7730 C   0  0  0  0  0  2  0  0  0  0  0  0
  189.7970  171.7520  143.0210 S   0  0  0  0  0  0  0  0  0  0  0  0
  189.8530  172.5410  141.3780 C   0  0  1  0  0  3  0  0  0  0  0  0
  190.4050  171.5610  140.3620 C   0  0  0  0  0  1  0  0  0  0  0  0
  188.4810  173.0460  140.9290 C   0  0  1  0  0  3  0  0  0  0  0  0
  187.5170  172.8350  141.9170 O   0  0  0  0  0  1  0  0  0  0  0  0
  188.5330  174.5160  140.5610 C   0  0  0  0  0  1  0  0  0  0  0  0
  191.0300  176.6020  144.7800 C   0  0  0  0  0  2  0  0  0  0  0  0
  189.5950  177.0280  145.0490 C   0  0  2  0  0  3  0  0  0  0  0  0
  189.2330  176.8310  146.4860 C   0  0  0  0  0  0  0  0  0  0  0  0
  188.5730  175.8150  146.8250 O   0  0  0  0  0  0  0  0  0  0  0  0
  189.6460  177.7680  147.4750 N   0  0  0  0  0  1  0  0  0  0  0  0
  188.4610  176.0810  143.9870 S   0  0  0  0  0  0  0  0  0  0  0  0
  187.7200  177.5780  143.2620 C   0  0  1  0  0  3  0  0  0  0  0  0
  187.8910  177.9620  140.9040 O   0  0  0  0  0  1  0  0  0  0  0  0
  188.5840  178.0790  142.1100 C   0  0  0  0  0  2  0  0  0  0  0  0
  185.9140  176.0170  143.0630 O   0  0  0  0  0  1  0  0  0  0  0  0
  186.2510  177.3560  142.8660 C   0  0  1  0  0  3  0  0  0  0  0  0
  185.2670  178.2720  143.6210 C   0  0  2  0  0  3  0  0  0  0  0  0
  185.8180  179.5380  143.8630 O   0  0  0  0  0  1  0  0  0  0  0  0
  184.7680  177.6940  144.8100 O   0  0  0  0  0  0  0  0  0  0  0  0
  184.3410  178.7230  145.6670 C   0  0  0  0  0  2  0  0  0  0  0  0
  184.7140  178.3940  147.1000 C   0  0  0  0  0  2  0  0  0  0  0  0
  185.8990  179.2310  147.5430 C   0  0  0  0  0  1  0  0  0  0  0  0
  1 18  1  0  0  0  0
  2  1  1  0  0  0  0
  3  2  1  6  0  0  0
  3  4  1  0  0  0  0
  5  4  1  0  0  0  0
  6  9  1  0  0  0  0
  6  3  1  0  0  0  0
  8  7  1  0  0  0  0
  9  8  1  0  0  0  0
  9  7  1  0  0  0  0
 10 11  1  0  0  0  0
 10  9  1  0  0  0  0
 12 11  1  0  0  0  0
 13 14  1  6  0  0  0
 13 12  1  0  0  0  0
 15 17  1  1  0  0  0
 15 13  1  0  0  0  0
 15 16  1  0  0  0  0
 19 18  1  1  0  0  0
 19 20  1  0  0  0  0
 20 21  2  0  0  0  0
 20 22  1  0  0  0  0
 23 19  1  0  0  0  0
 24 26  1  6  0  0  0
 24 23  1  0  0  0  0
 25 26  1  0  0  0  0
 28 27  1  1  0  0  0
 28 24  1  0  0  0  0
 28 29  1  0  0  0  0
 29 30  1  1  0  0  0
 29 31  1  0  0  0  0
 31 32  1  0  0  0  0
 32 33  1  0  0  0  0
 33 34  1  0  0  0  0
M  END
>  <MODEL>
2

>  <REMARK>
 VINA RESULT:      -4.6      2.765      6.756
  Name = 
  21 active torsions:
  status: ('A' for Active; 'I' for Inactive)
    1  A    between atoms: O_2  and  C_23
    2  A    between atoms: O_2  and  C_32
    3  A    between atoms: C_3  and  C_25
    4  A    between atoms: C_4  and  C_30
    5  A    between atoms: C_7  and  O_16
    6  A    between atoms: C_7  and  C_29
    7  A    between atoms: C_8  and  C_10
    8  A    between atoms: C_10  and  S_17
    9  A    between atoms: C_11  and  C_26
   10  A    between atoms: C_12  and  S_17
   11  A    between atoms: C_12  and  C_22
   12  A    between atoms: O_16  and  C_30
   13  A    between atoms: C_19  and  C_22
   14  A    between atoms: C_19  and  O_28
   15  A    between atoms: C_23  and  C_25
   16  A    between atoms: C_25  and  S_27
   17  A    between atoms: C_26  and  O_28
   18  A    between atoms: C_26  and  C_32
   19  A    between atoms: S_27  and  C_33
   20  A    between atoms: C_29  and  C_33
   21  A    between atoms: C_33  and  C_34
                            x       y       z     vdW  Elec       q    Type
                         _______ _______ _______ _____ _____    ______ ____

>  <TORSDO>
F 21

$$$$
=
 OpenBabel11052420403D

 34 34  0  0  1  0  0  0  0  0999 V2000
  187.6980  174.5660  141.9790 O   0  0  0  0  0  0  0  0  0  0  0  0
  188.0700  173.2200  141.9570 C   0  0  0  0  0  2  0  0  0  0  0  0
  189.1740  172.9880  140.9350 C   0  0  2  0  0  3  0  0  0  0  0  0
  188.5210  172.7660  139.5800 C   0  0  0  0  0  2  0  0  0  0  0  0
  188.6340  173.9130  138.7980 O   0  0  0  0  0  1  0  0  0  0  0  0
  189.9140  171.8520  141.2990 O   0  0  0  0  0  0  0  0  0  0  0  0
  191.6950  173.4770  141.0490 C   0  0  0  0  0  2  0  0  0  0  0  0
  192.3780  172.1200  140.9530 C   0  0  0  0  0  2  0  0  0  0  0  0
  191.1450  172.2960  141.8190 C   0  0  0  0  0  0  0  0  0  0  0  0
  191.3300  172.3980  143.3310 C   0  0  0  0  0  2  0  0  0  0  0  0
  192.1640  173.6130  143.7100 C   0  0  0  0  0  2  0  0  0  0  0  0
  193.8450  173.1150  144.1880 S   0  0  0  0  0  0  0  0  0  0  0  0
  193.8230  174.1770  145.6700 C   0  0  1  0  0  3  0  0  0  0  0  0
  195.1320  174.9330  145.7730 C   0  0  0  0  0  1  0  0  0  0  0  0
  192.6490  175.1550  145.6670 C   0  0  1  0  0  3  0  0  0  0  0  0
  191.9140  175.0670  146.8520 O   0  0  0  0  0  1  0  0  0  0  0  0
  193.1230  176.5800  145.4550 C   0  0  0  0  0  1  0  0  0  0  0  0
  188.8350  175.2470  142.4190 C   0  0  0  0  0  2  0  0  0  0  0  0
  188.4440  176.3920  143.3420 C   0  0  2  0  0  3  0  0  0  0  0  0
  189.0180  176.2040  144.7090 C   0  0  0  0  0  0  0  0  0  0  0  0
  189.1230  175.0440  145.1840 O   0  0  0  0  0  0  0  0  0  0  0  0
  189.4660  177.3220  145.4690 N   0  0  0  0  0  1  0  0  0  0  0  0
  186.6310  176.5110  143.4400 S   0  0  0  0  0  0  0  0  0  0  0  0
  186.6310  178.3160  143.2020 C   0  0  1  0  0  3  0  0  0  0  0  0
  185.4170  177.5530  141.2840 O   0  0  0  0  0  1  0  0  0  0  0  0
  186.0750  178.6580  141.8240 C   0  0  0  0  0  2  0  0  0  0  0  0
  185.6430  180.3620  143.9630 O   0  0  0  0  0  1  0  0  0  0  0  0
  185.9070  179.0460  144.3450 C   0  0  1  0  0  3  0  0  0  0  0  0
  184.6070  178.3490  144.7930 C   0  0  2  0  0  3  0  0  0  0  0  0
  183.4760  178.9400  144.2140 O   0  0  0  0  0  1  0  0  0  0  0  0
  184.4780  178.2610  146.1970 O   0  0  0  0  0  0  0  0  0  0  0  0
  184.8760  176.9770  146.6070 C   0  0  0  0  0  2  0  0  0  0  0  0
  186.2420  177.0400  147.2640 C   0  0  0  0  0  2  0  0  0  0  0  0
  186.4290  178.3730  147.9650 C   0  0  0  0  0  1  0  0  0  0  0  0
  1 18  1  0  0  0  0
  2  1  1  0  0  0  0
  3  4  1  6  0  0  0
  3  6  1  0  0  0  0
  3  2  1  0  0  0  0
  5  4  1  0  0  0  0
  6  9  1  0  0  0  0
  7  9  1  0  0  0  0
  8  7  1  0  0  0  0
  8  9  1  0  0  0  0
  9 10  1  0  0  0  0
 10 11  1  0  0  0  0
 11 12  1  0  0  0  0
 12 13  1  0  0  0  0
 13 14  1  6  0  0  0
 15 17  1  1  0  0  0
 15 13  1  0  0  0  0
 15 16  1  0  0  0  0
 19 18  1  6  0  0  0
 19 23  1  0  0  0  0
 19 20  1  0  0  0  0
 20 21  2  0  0  0  0
 20 22  1  0  0  0  0
 24 26  1  6  0  0  0
 24 23  1  0  0  0  0
 24 28  1  0  0  0  0
 25 26  1  0  0  0  0
 28 27  1  6  0  0  0
 28 29  1  0  0  0  0
 29 30  1  1  0  0  0
 29 31  1  0  0  0  0
 31 32  1  0  0  0  0
 32 33  1  0  0  0  0
 33 34  1  0  0  0  0
M  END
>  <MODEL>
3

>  <REMARK>
 VINA RESULT:      -4.5      2.591      8.131
  Name = 
  21 active torsions:
  status: ('A' for Active; 'I' for Inactive)
    1  A    between atoms: O_2  and  C_23
    2  A    between atoms: O_2  and  C_32
    3  A    between atoms: C_3  and  C_25
    4  A    between atoms: C_4  and  C_30
    5  A    between atoms: C_7  and  O_16
    6  A    between atoms: C_7  and  C_29
    7  A    between atoms: C_8  and  C_10
    8  A    between atoms: C_10  and  S_17
    9  A    between atoms: C_11  and  C_26
   10  A    between atoms: C_12  and  S_17
   11  A    between atoms: C_12  and  C_22
   12  A    between atoms: O_16  and  C_30
   13  A    between atoms: C_19  and  C_22
   14  A    between atoms: C_19  and  O_28
   15  A    between atoms: C_23  and  C_25
   16  A    between atoms: C_25  and  S_27
   17  A    between atoms: C_26  and  O_28
   18  A    between atoms: C_26  and  C_32
   19  A    between atoms: S_27  and  C_33
   20  A    between atoms: C_29  and  C_33
   21  A    between atoms: C_33  and  C_34
                            x       y       z     vdW  Elec       q    Type
                         _______ _______ _______ _____ _____    ______ ____

>  <TORSDO>
F 21

$$$$
=
 OpenBabel11052420403D

 34 34  0  0  1  0  0  0  0  0999 V2000
  192.0280  175.3980  145.6310 O   0  0  0  0  0  0  0  0  0  0  0  0
  193.1250  174.8810  146.3250 C   0  0  0  0  0  2  0  0  0  0  0  0
  194.4000  175.6060  145.9220 C   0  0  2  0  0  3  0  0  0  0  0  0
  194.3610  176.9990  146.5260 C   0  0  0  0  0  2  0  0  0  0  0  0
  194.9390  177.9190  145.6530 O   0  0  0  0  0  1  0  0  0  0  0  0
  194.4620  175.6950  144.5220 O   0  0  0  0  0  0  0  0  0  0  0  0
  196.5150  174.5280  145.0680 C   0  0  0  0  0  2  0  0  0  0  0  0
  196.7900  175.2170  143.7390 C   0  0  0  0  0  2  0  0  0  0  0  0
  195.3910  174.7360  144.0760 C   0  0  0  0  0  0  0  0  0  0  0  0
  194.8910  173.4500  143.4240 C   0  0  0  0  0  2  0  0  0  0  0  0
  195.4500  172.2180  144.1200 C   0  0  0  0  0  2  0  0  0  0  0  0
  194.2650  171.5720  145.3360 S   0  0  0  0  0  0  0  0  0  0  0  0
  193.4450  170.5170  144.0950 C   0  0  1  0  0  3  0  0  0  0  0  0
  193.3250  169.1040  144.6290 C   0  0  0  0  0  1  0  0  0  0  0  0
  192.0670  171.0490  143.7000 C   0  0  1  0  0  3  0  0  0  0  0  0
  191.7180  172.1640  144.4640 O   0  0  0  0  0  1  0  0  0  0  0  0
  192.0170  171.3940  142.2250 C   0  0  0  0  0  1  0  0  0  0  0  0
  191.0940  175.7170  146.6190 C   0  0  0  0  0  2  0  0  0  0  0  0
  189.7680  176.1140  145.9880 C   0  0  2  0  0  3  0  0  0  0  0  0
  188.6150  175.5910  146.7820 C   0  0  0  0  0  0  0  0  0  0  0  0
  187.4700  176.0870  146.6150 O   0  0  0  0  0  0  0  0  0  0  0  0
  188.7930  174.5230  147.7070 N   0  0  0  0  0  1  0  0  0  0  0  0
  189.6850  175.4850  144.2830 S   0  0  0  0  0  0  0  0  0  0  0  0
  189.1080  177.0760  143.6120 C   0  0  1  0  0  3  0  0  0  0  0  0
  191.3210  176.8880  142.7170 O   0  0  0  0  0  1  0  0  0  0  0  0
  190.2340  177.7540  142.8410 C   0  0  0  0  0  2  0  0  0  0  0  0
  187.3770  175.5960  142.8670 O   0  0  0  0  0  1  0  0  0  0  0  0
  187.8200  176.9170  142.7870 C   0  0  1  0  0  3  0  0  0  0  0  0
  186.6960  177.8840  143.2110 C   0  0  2  0  0  3  0  0  0  0  0  0
  186.4070  178.8150  142.2050 O   0  0  0  0  0  1  0  0  0  0  0  0
  186.9480  178.5240  144.4450 O   0  0  0  0  0  0  0  0  0  0  0  0
  185.7700  179.1630  144.8710 C   0  0  0  0  0  2  0  0  0  0  0  0
  184.7130  178.1300  145.2160 C   0  0  0  0  0  2  0  0  0  0  0  0
  184.4270  178.1470  146.7060 C   0  0  0  0  0  1  0  0  0  0  0  0
  1  2  1  0  0  0  0
  1 18  1  0  0  0  0
  3  2  1  6  0  0  0
  3  4  1  0  0  0  0
  5  4  1  0  0  0  0
  6  3  1  0  0  0  0
  8  9  1  0  0  0  0
  8  7  1  0  0  0  0
  9  6  1  0  0  0  0
  9  7  1  0  0  0  0
 10  9  1  0  0  0  0
 10 11  1  0  0  0  0
 11 12  1  0  0  0  0
 13 14  1  1  0  0  0
 13 12  1  0  0  0  0
 15 17  1  6  0  0  0
 15 13  1  0  0  0  0
 15 16  1  0  0  0  0
 19 18  1  1  0  0  0
 19 20  1  0  0  0  0
 20 22  1  0  0  0  0
 21 20  2  0  0  0  0
 23 19  1  0  0  0  0
 24 26  1  6  0  0  0
 24 23  1  0  0  0  0
 25 26  1  0  0  0  0
 28 27  1  1  0  0  0
 28 29  1  0  0  0  0
 28 24  1  0  0  0  0
 29 30  1  6  0  0  0
 29 31  1  0  0  0  0
 31 32  1  0  0  0  0
 32 33  1  0  0  0  0
 33 34  1  0  0  0  0
M  END
>  <MODEL>
4

>  <REMARK>
 VINA RESULT:      -4.5      2.670      7.279
  Name = 
  21 active torsions:
  status: ('A' for Active; 'I' for Inactive)
    1  A    between atoms: O_2  and  C_23
    2  A    between atoms: O_2  and  C_32
    3  A    between atoms: C_3  and  C_25
    4  A    between atoms: C_4  and  C_30
    5  A    between atoms: C_7  and  O_16
    6  A    between atoms: C_7  and  C_29
    7  A    between atoms: C_8  and  C_10
    8  A    between atoms: C_10  and  S_17
    9  A    between atoms: C_11  and  C_26
   10  A    between atoms: C_12  and  S_17
   11  A    between atoms: C_12  and  C_22
   12  A    between atoms: O_16  and  C_30
   13  A    between atoms: C_19  and  C_22
   14  A    between atoms: C_19  and  O_28
   15  A    between atoms: C_23  and  C_25
   16  A    between atoms: C_25  and  S_27
   17  A    between atoms: C_26  and  O_28
   18  A    between atoms: C_26  and  C_32
   19  A    between atoms: S_27  and  C_33
   20  A    between atoms: C_29  and  C_33
   21  A    between atoms: C_33  and  C_34
                            x       y       z     vdW  Elec       q    Type
                         _______ _______ _______ _____ _____    ______ ____

>  <TORSDO>
F 21

$$$$
=
 OpenBabel11052420403D

 34 34  0  0  1  0  0  0  0  0999 V2000
  190.9250  174.5150  142.4910 O   0  0  0  0  0  0  0  0  0  0  0  0
  189.7130  174.0940  143.0420 C   0  0  0  0  0  2  0  0  0  0  0  0
  188.5790  174.2860  142.0450 C   0  0  2  0  0  3  0  0  0  0  0  0
  188.6300  173.1400  141.0490 C   0  0  0  0  0  2  0  0  0  0  0  0
  188.3920  173.6120  139.7590 O   0  0  0  0  0  1  0  0  0  0  0  0
  188.7500  175.5080  141.3750 O   0  0  0  0  0  0  0  0  0  0  0  0
  187.0540  177.0020  140.5020 C   0  0  0  0  0  2  0  0  0  0  0  0
  187.8310  177.8300  141.5150 C   0  0  0  0  0  2  0  0  0  0  0  0
  187.6650  176.3360  141.7160 C   0  0  0  0  0  0  0  0  0  0  0  0
  186.6420  175.8530  142.7410 C   0  0  0  0  0  2  0  0  0  0  0  0
  185.9610  177.0180  143.4420 C   0  0  0  0  0  2  0  0  0  0  0  0
  186.6020  177.2180  145.1310 S   0  0  0  0  0  0  0  0  0  0  0  0
  186.0240  178.9440  145.2320 C   0  0  1  0  0  3  0  0  0  0  0  0
  185.5700  179.4090  143.8630 C   0  0  0  0  0  1  0  0  0  0  0  0
  184.8960  179.1210  146.2490 C   0  0  1  0  0  3  0  0  0  0  0  0
  183.6570  178.7980  145.6900 O   0  0  0  0  0  1  0  0  0  0  0  0
  185.1400  178.2830  147.4880 C   0  0  0  0  0  1  0  0  0  0  0  0
  191.9040  173.7960  143.1800 C   0  0  0  0  0  2  0  0  0  0  0  0
  192.8340  173.0930  142.2040 C   0  0  2  0  0  3  0  0  0  0  0  0
  192.6100  171.6150  142.2130 C   0  0  0  0  0  0  0  0  0  0  0  0
  192.9080  170.9360  141.1970 O   0  0  0  0  0  0  0  0  0  0  0  0
  192.0820  170.9670  143.3660 N   0  0  0  0  0  1  0  0  0  0  0  0
  194.5650  173.4620  142.6270 S   0  0  0  0  0  0  0  0  0  0  0  0
  194.1480  173.9930  144.3190 C   0  0  1  0  0  3  0  0  0  0  0  0
  195.7410  173.0760  145.8540 O   0  0  0  0  0  1  0  0  0  0  0  0
  194.4730  172.8790  145.3070 C   0  0  0  0  0  2  0  0  0  0  0  0
  195.3160  175.9270  143.5210 O   0  0  0  0  0  1  0  0  0  0  0  0
  194.8090  175.3340  144.6780 C   0  0  1  0  0  3  0  0  0  0  0  0
  193.8630  176.3080  145.4080 C   0  0  2  0  0  3  0  0  0  0  0  0
  193.4350  175.7910  146.6380 O   0  0  0  0  0  1  0  0  0  0  0  0
  192.7690  176.7210  144.6160 O   0  0  0  0  0  0  0  0  0  0  0  0
  191.6020  176.6740  145.4000 C   0  0  0  0  0  2  0  0  0  0  0  0
  190.4860  177.4430  144.7180 C   0  0  0  0  0  2  0  0  0  0  0  0
  190.9430  177.9440  143.3610 C   0  0  0  0  0  1  0  0  0  0  0  0
  1  2  1  0  0  0  0
  1 18  1  0  0  0  0
  3  4  1  6  0  0  0
  3  2  1  0  0  0  0
  5  4  1  0  0  0  0
  6  9  1  0  0  0  0
  6  3  1  0  0  0  0
  7  8  1  0  0  0  0
  7  9  1  0  0  0  0
  8  9  1  0  0  0  0
  9 10  1  0  0  0  0
 10 11  1  0  0  0  0
 11 12  1  0  0  0  0
 12 13  1  0  0  0  0
 13 14  1  6  0  0  0
 13 15  1  0  0  0  0
 15 17  1  1  0  0  0
 16 15  1  0  0  0  0
 19 20  1  0  0  0  0
 19 23  1  0  0  0  0
 19 18  1  1  0  0  0
 20 22  1  0  0  0  0
 21 20  2  0  0  0  0
 23 24  1  0  0  0  0
 24 28  1  0  0  0  0
 24 26  1  1  0  0  0
 26 25  1  0  0  0  0
 28 27  1  6  0  0  0
 28 29  1  0  0  0  0
 29 30  1  1  0  0  0
 31 32  1  0  0  0  0
 31 29  1  0  0  0  0
 33 32  1  0  0  0  0
 34 33  1  0  0  0  0
M  END
>  <MODEL>
5

>  <REMARK>
 VINA RESULT:      -4.4      2.038      4.800
  Name = 
  21 active torsions:
  status: ('A' for Active; 'I' for Inactive)
    1  A    between atoms: O_2  and  C_23
    2  A    between atoms: O_2  and  C_32
    3  A    between atoms: C_3  and  C_25
    4  A    between atoms: C_4  and  C_30
    5  A    between atoms: C_7  and  O_16
    6  A    between atoms: C_7  and  C_29
    7  A    between atoms: C_8  and  C_10
    8  A    between atoms: C_10  and  S_17
    9  A    between atoms: C_11  and  C_26
   10  A    between atoms: C_12  and  S_17
   11  A    between atoms: C_12  and  C_22
   12  A    between atoms: O_16  and  C_30
   13  A    between atoms: C_19  and  C_22
   14  A    between atoms: C_19  and  O_28
   15  A    between atoms: C_23  and  C_25
   16  A    between atoms: C_25  and  S_27
   17  A    between atoms: C_26  and  O_28
   18  A    between atoms: C_26  and  C_32
   19  A    between atoms: S_27  and  C_33
   20  A    between atoms: C_29  and  C_33
   21  A    between atoms: C_33  and  C_34
                            x       y       z     vdW  Elec       q    Type
                         _______ _______ _______ _____ _____    ______ ____

>  <TORSDO>
F 21

$$$$
=
 OpenBabel11052420403D

 34 34  0  0  1  0  0  0  0  0999 V2000
  192.5520  173.1890  143.7400 O   0  0  0  0  0  0  0  0  0  0  0  0
  191.5120  173.6000  144.5780 C   0  0  0  0  0  2  0  0  0  0  0  0
  190.5030  174.4360  143.8050 C   0  0  2  0  0  3  0  0  0  0  0  0
  190.2250  173.7370  142.4850 C   0  0  0  0  0  2  0  0  0  0  0  0
  189.0830  172.9440  142.5910 O   0  0  0  0  0  1  0  0  0  0  0  0
  191.0410  175.7100  143.5650 O   0  0  0  0  0  0  0  0  0  0  0  0
  189.7870  177.6920  142.9570 C   0  0  0  0  0  2  0  0  0  0  0  0
  190.5820  178.0890  144.1920 C   0  0  0  0  0  2  0  0  0  0  0  0
  190.1050  176.6600  144.0160 C   0  0  0  0  0  0  0  0  0  0  0  0
  188.8910  176.1980  144.8180 C   0  0  0  0  0  2  0  0  0  0  0  0
  187.6140  176.8680  144.3350 C   0  0  0  0  0  2  0  0  0  0  0  0
  186.8070  177.7700  145.6900 S   0  0  0  0  0  0  0  0  0  0  0  0
  186.0440  178.9670  144.5460 C   0  0  1  0  0  3  0  0  0  0  0  0
  186.1640  178.4570  143.1240 C   0  0  0  0  0  1  0  0  0  0  0  0
  184.5790  179.2430  144.8850 C   0  0  1  0  0  3  0  0  0  0  0  0
  183.7420  178.9140  143.8160 O   0  0  0  0  0  1  0  0  0  0  0  0
  184.1540  178.4880  146.1290 C   0  0  0  0  0  1  0  0  0  0  0  0
  193.5580  172.7480  144.6020 C   0  0  0  0  0  2  0  0  0  0  0  0
  194.2520  171.5230  144.0270 C   0  0  2  0  0  3  0  0  0  0  0  0
  194.0640  170.3320  144.9090 C   0  0  0  0  0  0  0  0  0  0  0  0
  194.4810  170.3670  146.0960 O   0  0  0  0  0  0  0  0  0  0  0  0
  193.4000  169.1680  144.4280 N   0  0  0  0  0  1  0  0  0  0  0  0
  196.0260  171.8650  143.8120 S   0  0  0  0  0  0  0  0  0  0  0  0
  195.9040  173.5240  144.5530 C   0  0  1  0  0  3  0  0  0  0  0  0
  196.9950  172.2570  146.2670 O   0  0  0  0  0  1  0  0  0  0  0  0
  196.6360  173.5510  145.8890 C   0  0  0  0  0  2  0  0  0  0  0  0
  196.6220  174.0580  142.3300 O   0  0  0  0  0  1  0  0  0  0  0  0
  196.3730  174.6210  143.5830 C   0  0  1  0  0  3  0  0  0  0  0  0
  195.3800  175.7930  143.4540 C   0  0  2  0  0  3  0  0  0  0  0  0
  195.6100  176.5430  142.2930 O   0  0  0  0  0  1  0  0  0  0  0  0
  195.3430  176.6200  144.6000 O   0  0  0  0  0  0  0  0  0  0  0  0
  194.0060  176.7660  145.0080 C   0  0  0  0  0  2  0  0  0  0  0  0
  193.9060  176.6520  146.5170 C   0  0  0  0  0  2  0  0  0  0  0  0
  192.5200  176.1860  146.9210 C   0  0  0  0  0  1  0  0  0  0  0  0
  1  2  1  0  0  0  0
  1 18  1  0  0  0  0
  3  4  1  6  0  0  0
  3  2  1  0  0  0  0
  4  5  1  0  0  0  0
  6  3  1  0  0  0  0
  6  9  1  0  0  0  0
  7  9  1  0  0  0  0
  7  8  1  0  0  0  0
  9  8  1  0  0  0  0
  9 10  1  0  0  0  0
 11 10  1  0  0  0  0
 11 12  1  0  0  0  0
 13 14  1  6  0  0  0
 13 15  1  0  0  0  0
 13 12  1  0  0  0  0
 15 17  1  1  0  0  0
 16 15  1  0  0  0  0
 19 18  1  1  0  0  0
 19 20  1  0  0  0  0
 20 21  2  0  0  0  0
 22 20  1  0  0  0  0
 23 19  1  0  0  0  0
 23 24  1  0  0  0  0
 24 26  1  1  0  0  0
 26 25  1  0  0  0  0
 28 27  1  6  0  0  0
 28 24  1  0  0  0  0
 29 30  1  6  0  0  0
 29 28  1  0  0  0  0
 29 31  1  0  0  0  0
 31 32  1  0  0  0  0
 32 33  1  0  0  0  0
 33 34  1  0  0  0  0
M  END
>  <MODEL>
6

>  <REMARK>
 VINA RESULT:      -4.4      2.138      4.596
  Name = 
  21 active torsions:
  status: ('A' for Active; 'I' for Inactive)
    1  A    between atoms: O_2  and  C_23
    2  A    between atoms: O_2  and  C_32
    3  A    between atoms: C_3  and  C_25
    4  A    between atoms: C_4  and  C_30
    5  A    between atoms: C_7  and  O_16
    6  A    between atoms: C_7  and  C_29
    7  A    between atoms: C_8  and  C_10
    8  A    between atoms: C_10  and  S_17
    9  A    between atoms: C_11  and  C_26
   10  A    between atoms: C_12  and  S_17
   11  A    between atoms: C_12  and  C_22
   12  A    between atoms: O_16  and  C_30
   13  A    between atoms: C_19  and  C_22
   14  A    between atoms: C_19  and  O_28
   15  A    between atoms: C_23  and  C_25
   16  A    between atoms: C_25  and  S_27
   17  A    between atoms: C_26  and  O_28
   18  A    between atoms: C_26  and  C_32
   19  A    between atoms: S_27  and  C_33
   20  A    between atoms: C_29  and  C_33
   21  A    between atoms: C_33  and  C_34
                            x       y       z     vdW  Elec       q    Type
                         _______ _______ _______ _____ _____    ______ ____

>  <TORSDO>
F 21

$$$$
=
 OpenBabel11052420403D

 34 34  0  0  1  0  0  0  0  0999 V2000
  190.3950  173.7430  145.2640 O   0  0  0  0  0  0  0  0  0  0  0  0
  190.0820  172.8480  144.2380 C   0  0  0  0  0  2  0  0  0  0  0  0
  191.3470  172.3880  143.5280 C   0  0  2  0  0  3  0  0  0  0  0  0
  190.9400  171.7340  142.2180 C   0  0  0  0  0  2  0  0  0  0  0  0
  189.7730  172.3180  141.7300 O   0  0  0  0  0  1  0  0  0  0  0  0
  192.0220  171.4590  144.3350 O   0  0  0  0  0  0  0  0  0  0  0  0
  194.3580  170.9250  143.9730 C   0  0  0  0  0  2  0  0  0  0  0  0
  194.2320  171.1640  145.4710 C   0  0  0  0  0  2  0  0  0  0  0  0
  193.3430  171.9170  144.4990 C   0  0  0  0  0  0  0  0  0  0  0  0
  193.6780  173.3730  144.1890 C   0  0  0  0  0  2  0  0  0  0  0  0
  194.4310  174.0290  145.3360 C   0  0  0  0  0  2  0  0  0  0  0  0
  196.1080  174.5020  144.8190 S   0  0  0  0  0  0  0  0  0  0  0  0
  195.5140  176.0230  144.0070 C   0  0  1  0  0  3  0  0  0  0  0  0
  195.0360  177.0060  145.0570 C   0  0  0  0  0  1  0  0  0  0  0  0
  196.5860  176.6700  143.1300 C   0  0  1  0  0  3  0  0  0  0  0  0
  197.8060  176.0010  143.2470 O   0  0  0  0  0  1  0  0  0  0  0  0
  196.1540  176.7110  141.6780 C   0  0  0  0  0  1  0  0  0  0  0  0
  189.3920  174.7130  145.2140 C   0  0  0  0  0  2  0  0  0  0  0  0
  189.7200  175.7640  144.1640 C   0  0  2  0  0  3  0  0  0  0  0  0
  191.1030  176.2990  144.3490 C   0  0  0  0  0  0  0  0  0  0  0  0
  191.4860  176.6460  145.4960 O   0  0  0  0  0  0  0  0  0  0  0  0
  191.9980  176.3990  143.2460 N   0  0  0  0  0  1  0  0  0  0  0  0
  188.5110  177.1210  144.2530 S   0  0  0  0  0  0  0  0  0  0  0  0
  187.8710  176.8010  142.5780 C   0  0  1  0  0  3  0  0  0  0  0  0
  188.0500  175.2720  140.7450 O   0  0  0  0  0  1  0  0  0  0  0  0
  188.6800  175.6920  141.9160 C   0  0  0  0  0  2  0  0  0  0  0  0
  185.9990  175.9350  143.7970 O   0  0  0  0  0  1  0  0  0  0  0  0
  186.3580  176.5270  142.5850 C   0  0  1  0  0  3  0  0  0  0  0  0
  185.5040  177.7850  142.3300 C   0  0  2  0  0  3  0  0  0  0  0  0
  186.2850  178.8600  141.8870 O   0  0  0  0  0  1  0  0  0  0  0  0
  184.7080  178.1510  143.4390 O   0  0  0  0  0  0  0  0  0  0  0  0
  185.2230  179.3370  143.9910 C   0  0  0  0  0  2  0  0  0  0  0  0
  185.3930  179.1820  145.4900 C   0  0  0  0  0  2  0  0  0  0  0  0
  184.3640  178.2140  146.0410 C   0  0  0  0  0  1  0  0  0  0  0  0
  2  1  1  0  0  0  0
  3  4  1  6  0  0  0
  3  2  1  0  0  0  0
  3  6  1  0  0  0  0
  5  4  1  0  0  0  0
  6  9  1  0  0  0  0
  7  9  1  0  0  0  0
  7  8  1  0  0  0  0
  9  8  1  0  0  0  0
 10  9  1  0  0  0  0
 10 11  1  0  0  0  0
 12 11  1  0  0  0  0
 13 12  1  0  0  0  0
 13 14  1  1  0  0  0
 15 17  1  6  0  0  0
 15 16  1  0  0  0  0
 15 13  1  0  0  0  0
 18  1  1  0  0  0  0
 19 23  1  0  0  0  0
 19 20  1  0  0  0  0
 19 18  1  1  0  0  0
 20 21  2  0  0  0  0
 22 20  1  0  0  0  0
 24 26  1  1  0  0  0
 24 28  1  0  0  0  0
 24 23  1  0  0  0  0
 25 26  1  0  0  0  0
 28 27  1  1  0  0  0
 29 30  1  1  0  0  0
 29 28  1  0  0  0  0
 29 31  1  0  0  0  0
 31 32  1  0  0  0  0
 32 33  1  0  0  0  0
 33 34  1  0  0  0  0
M  END
>  <MODEL>
7

>  <REMARK>
 VINA RESULT:      -4.3      2.292      7.627
  Name = 
  21 active torsions:
  status: ('A' for Active; 'I' for Inactive)
    1  A    between atoms: O_2  and  C_23
    2  A    between atoms: O_2  and  C_32
    3  A    between atoms: C_3  and  C_25
    4  A    between atoms: C_4  and  C_30
    5  A    between atoms: C_7  and  O_16
    6  A    between atoms: C_7  and  C_29
    7  A    between atoms: C_8  and  C_10
    8  A    between atoms: C_10  and  S_17
    9  A    between atoms: C_11  and  C_26
   10  A    between atoms: C_12  and  S_17
   11  A    between atoms: C_12  and  C_22
   12  A    between atoms: O_16  and  C_30
   13  A    between atoms: C_19  and  C_22
   14  A    between atoms: C_19  and  O_28
   15  A    between atoms: C_23  and  C_25
   16  A    between atoms: C_25  and  S_27
   17  A    between atoms: C_26  and  O_28
   18  A    between atoms: C_26  and  C_32
   19  A    between atoms: S_27  and  C_33
   20  A    between atoms: C_29  and  C_33
   21  A    between atoms: C_33  and  C_34
                            x       y       z     vdW  Elec       q    Type
                         _______ _______ _______ _____ _____    ______ ____

>  <TORSDO>
F 21

$$$$
=
 OpenBabel11052420403D

 34 34  0  0  1  0  0  0  0  0999 V2000
  191.9180  175.3360  142.4990 O   0  0  0  0  0  0  0  0  0  0  0  0
  193.0590  175.2920  141.6950 C   0  0  0  0  0  2  0  0  0  0  0  0
  194.2930  175.0020  142.5370 C   0  0  2  0  0  3  0  0  0  0  0  0
  195.4090  174.5660  141.6030 C   0  0  0  0  0  2  0  0  0  0  0  0
  196.3730  175.5690  141.5040 O   0  0  0  0  0  1  0  0  0  0  0  0
  194.0040  173.9720  143.4470 O   0  0  0  0  0  0  0  0  0  0  0  0
  195.8820  173.6790  144.9510 C   0  0  0  0  0  2  0  0  0  0  0  0
  194.6590  173.2630  145.7550 C   0  0  0  0  0  2  0  0  0  0  0  0
  194.5450  174.3400  144.6930 C   0  0  0  0  0  0  0  0  0  0  0  0
  194.4740  175.7970  145.1430 C   0  0  0  0  0  2  0  0  0  0  0  0
  193.4400  175.9920  146.2410 C   0  0  0  0  0  2  0  0  0  0  0  0
  191.8220  176.4210  145.5330 S   0  0  0  0  0  0  0  0  0  0  0  0
  190.9240  175.7120  146.9520 C   0  0  1  0  0  3  0  0  0  0  0  0
  191.2070  176.5320  148.1940 C   0  0  0  0  0  1  0  0  0  0  0  0
  189.4170  175.6330  146.7060 C   0  0  1  0  0  3  0  0  0  0  0  0
  188.8210  174.6710  147.5240 O   0  0  0  0  0  1  0  0  0  0  0  0
  188.7550  176.9800  146.9220 C   0  0  0  0  0  1  0  0  0  0  0  0
  190.9180  174.7250  141.7390 C   0  0  0  0  0  2  0  0  0  0  0  0
  189.5890  174.7650  142.4780 C   0  0  2  0  0  3  0  0  0  0  0  0
  189.2230  173.4150  143.0050 C   0  0  0  0  0  0  0  0  0  0  0  0
  188.5070  172.6500  142.3090 O   0  0  0  0  0  0  0  0  0  0  0  0
  189.6960  172.9790  144.2760 N   0  0  0  0  0  1  0  0  0  0  0  0
  188.2840  175.3720  141.3650 S   0  0  0  0  0  0  0  0  0  0  0  0
  187.7280  176.6470  142.5400 C   0  0  1  0  0  3  0  0  0  0  0  0
  189.5430  178.2070  142.4720 O   0  0  0  0  0  1  0  0  0  0  0  0
  188.9280  177.2410  143.2680 C   0  0  0  0  0  2  0  0  0  0  0  0
  186.4100  177.2270  140.6250 O   0  0  0  0  0  1  0  0  0  0  0  0
  186.8450  177.7070  141.8620 C   0  0  1  0  0  3  0  0  0  0  0  0
  185.6410  178.1440  142.7190 C   0  0  2  0  0  3  0  0  0  0  0  0
  184.4440  178.1010  141.9910 O   0  0  0  0  0  1  0  0  0  0  0  0
  185.8220  179.4030  143.3330 O   0  0  0  0  0  0  0  0  0  0  0  0
  185.1040  179.4230  144.5420 C   0  0  0  0  0  2  0  0  0  0  0  0
  185.5290  178.2600  145.4190 C   0  0  0  0  0  2  0  0  0  0  0  0
  185.0370  178.4630  146.8390 C   0  0  0  0  0  1  0  0  0  0  0  0
  2  1  1  0  0  0  0
  2  3  1  0  0  0  0
  3  4  1  6  0  0  0
  3  6  1  0  0  0  0
  5  4  1  0  0  0  0
  6  9  1  0  0  0  0
  7  8  1  0  0  0  0
  9  7  1  0  0  0  0
  9 10  1  0  0  0  0
  9  8  1  0  0  0  0
 10 11  1  0  0  0  0
 12 11  1  0  0  0  0
 12 13  1  0  0  0  0
 13 14  1  1  0  0  0
 15 17  1  1  0  0  0
 15 13  1  0  0  0  0
 15 16  1  0  0  0  0
 18  1  1  0  0  0  0
 19 18  1  6  0  0  0
 19 20  1  0  0  0  0
 20 22  1  0  0  0  0
 21 20  2  0  0  0  0
 23 19  1  0  0  0  0
 23 24  1  0  0  0  0
 24 26  1  6  0  0  0
 25 26  1  0  0  0  0
 28 27  1  6  0  0  0
 28 24  1  0  0  0  0
 28 29  1  0  0  0  0
 29 30  1  6  0  0  0
 29 31  1  0  0  0  0
 31 32  1  0  0  0  0
 32 33  1  0  0  0  0
 33 34  1  0  0  0  0
M  END
>  <MODEL>
8

>  <REMARK>
 VINA RESULT:      -4.3      2.798      6.369
  Name = 
  21 active torsions:
  status: ('A' for Active; 'I' for Inactive)
    1  A    between atoms: O_2  and  C_23
    2  A    between atoms: O_2  and  C_32
    3  A    between atoms: C_3  and  C_25
    4  A    between atoms: C_4  and  C_30
    5  A    between atoms: C_7  and  O_16
    6  A    between atoms: C_7  and  C_29
    7  A    between atoms: C_8  and  C_10
    8  A    between atoms: C_10  and  S_17
    9  A    between atoms: C_11  and  C_26
   10  A    between atoms: C_12  and  S_17
   11  A    between atoms: C_12  and  C_22
   12  A    between atoms: O_16  and  C_30
   13  A    between atoms: C_19  and  C_22
   14  A    between atoms: C_19  and  O_28
   15  A    between atoms: C_23  and  C_25
   16  A    between atoms: C_25  and  S_27
   17  A    between atoms: C_26  and  O_28
   18  A    between atoms: C_26  and  C_32
   19  A    between atoms: S_27  and  C_33
   20  A    between atoms: C_29  and  C_33
   21  A    between atoms: C_33  and  C_34
                            x       y       z     vdW  Elec       q    Type
                         _______ _______ _______ _____ _____    ______ ____

>  <TORSDO>
F 21

$$$$
=
 OpenBabel11052420403D

 34 34  0  0  1  0  0  0  0  0999 V2000
  190.4170  174.0720  145.0110 O   0  0  0  0  0  0  0  0  0  0  0  0
  189.7320  173.6220  143.8790 C   0  0  0  0  0  2  0  0  0  0  0  0
  190.6020  173.7620  142.6390 C   0  0  2  0  0  3  0  0  0  0  0  0
  189.6870  173.8350  141.4280 C   0  0  0  0  0  2  0  0  0  0  0  0
  188.4290  174.3030  141.8030 O   0  0  0  0  0  1  0  0  0  0  0  0
  191.4440  172.6430  142.5330 O   0  0  0  0  0  0  0  0  0  0  0  0
  193.3400  172.5090  141.0290 C   0  0  0  0  0  2  0  0  0  0  0  0
  193.8860  172.1180  142.3950 C   0  0  0  0  0  2  0  0  0  0  0  0
  192.7470  173.1130  142.2840 C   0  0  0  0  0  0  0  0  0  0  0  0
  193.0600  174.5960  142.4670 C   0  0  0  0  0  2  0  0  0  0  0  0
  194.2490  175.0240  141.6200 C   0  0  0  0  0  2  0  0  0  0  0  0
  195.2900  176.2090  142.5230 S   0  0  0  0  0  0  0  0  0  0  0  0
  194.7960  175.5300  144.1420 C   0  0  1  0  0  3  0  0  0  0  0  0
  195.9580  174.7710  144.7500 C   0  0  0  0  0  1  0  0  0  0  0  0
  194.3140  176.6160  145.1050 C   0  0  1  0  0  3  0  0  0  0  0  0
  193.0910  177.1490  144.6940 O   0  0  0  0  0  1  0  0  0  0  0  0
  194.1980  176.0810  146.5190 C   0  0  0  0  0  1  0  0  0  0  0  0
  189.4260  174.5770  145.8550 C   0  0  0  0  0  2  0  0  0  0  0  0
  189.4260  176.0980  145.8240 C   0  0  2  0  0  3  0  0  0  0  0  0
  190.1670  176.6620  146.9920 C   0  0  0  0  0  0  0  0  0  0  0  0
  190.0920  177.8930  147.2400 O   0  0  0  0  0  0  0  0  0  0  0  0
  190.9390  175.8170  147.8400 N   0  0  0  0  0  1  0  0  0  0  0  0
  187.7140  176.7140  145.8170 S   0  0  0  0  0  0  0  0  0  0  0  0
  187.8990  177.5230  144.1960 C   0  0  1  0  0  3  0  0  0  0  0  0
  189.3740  177.6050  142.3110 O   0  0  0  0  0  1  0  0  0  0  0  0
  189.3190  177.3240  143.6760 C   0  0  0  0  0  2  0  0  0  0  0  0
  186.2310  175.8890  143.6610 O   0  0  0  0  0  1  0  0  0  0  0  0
  186.8200  177.0680  143.2010 C   0  0  1  0  0  3  0  0  0  0  0  0
  185.7410  178.1360  142.9330 C   0  0  2  0  0  3  0  0  0  0  0  0
  186.2920  179.4230  142.8670 O   0  0  0  0  0  1  0  0  0  0  0  0
  184.6660  178.0830  143.8480 O   0  0  0  0  0  0  0  0  0  0  0  0
  184.5580  179.3300  144.4890 C   0  0  0  0  0  2  0  0  0  0  0  0
  184.8710  179.1840  145.9660 C   0  0  0  0  0  2  0  0  0  0  0  0
  184.2330  177.9220  146.5180 C   0  0  0  0  0  1  0  0  0  0  0  0
  1 18  1  0  0  0  0
  2  1  1  0  0  0  0
  3  4  1  6  0  0  0
  3  2  1  0  0  0  0
  4  5  1  0  0  0  0
  6  3  1  0  0  0  0
  7  9  1  0  0  0  0
  7  8  1  0  0  0  0
  9  8  1  0  0  0  0
  9 10  1  0  0  0  0
  9  6  1  0  0  0  0
 11 10  1  0  0  0  0
 11 12  1  0  0  0  0
 12 13  1  0  0  0  0
 13 14  1  1  0  0  0
 13 15  1  0  0  0  0
 15 17  1  1  0  0  0
 16 15  1  0  0  0  0
 19 18  1  1  0  0  0
 19 20  1  0  0  0  0
 20 21  2  0  0  0  0
 20 22  1  0  0  0  0
 23 19  1  0  0  0  0
 24 26  1  6  0  0  0
 24 23  1  0  0  0  0
 25 26  1  0  0  0  0
 28 27  1  1  0  0  0
 28 24  1  0  0  0  0
 29 30  1  1  0  0  0
 29 28  1  0  0  0  0
 29 31  1  0  0  0  0
 31 32  1  0  0  0  0
 32 33  1  0  0  0  0
 33 34  1  0  0  0  0
M  END
>  <MODEL>
9

>  <REMARK>
 VINA RESULT:      -4.3      2.304      7.478
  Name = 
  21 active torsions:
  status: ('A' for Active; 'I' for Inactive)
    1  A    between atoms: O_2  and  C_23
    2  A    between atoms: O_2  and  C_32
    3  A    between atoms: C_3  and  C_25
    4  A    between atoms: C_4  and  C_30
    5  A    between atoms: C_7  and  O_16
    6  A    between atoms: C_7  and  C_29
    7  A    between atoms: C_8  and  C_10
    8  A    between atoms: C_10  and  S_17
    9  A    between atoms: C_11  and  C_26
   10  A    between atoms: C_12  and  S_17
   11  A    between atoms: C_12  and  C_22
   12  A    between atoms: O_16  and  C_30
   13  A    between atoms: C_19  and  C_22
   14  A    between atoms: C_19  and  O_28
   15  A    between atoms: C_23  and  C_25
   16  A    between atoms: C_25  and  S_27
   17  A    between atoms: C_26  and  O_28
   18  A    between atoms: C_26  and  C_32
   19  A    between atoms: S_27  and  C_33
   20  A    between atoms: C_29  and  C_33
   21  A    between atoms: C_33  and  C_34
                            x       y       z     vdW  Elec       q    Type
                         _______ _______ _______ _____ _____    ______ ____

>  <TORSDO>
F 21

$$$$
