=
 OpenBabel11052417553D

 31 34  0  0  1  0  0  0  0  0999 V2000
  184.6540  178.1840  146.7000 C   0  0  0  0  0  0  0  0  0  0  0  0
  187.1180  177.7970  143.8900 C   0  0  0  0  0  0  0  0  0  0  0  0
  186.3200  177.9150  142.6200 C   0  0  0  0  0  0  0  0  0  0  0  0
  184.2620  178.4190  141.4100 C   0  0  0  0  0  3  0  0  0  0  0  0
  186.5490  177.8850  145.1910 C   0  0  0  0  0  0  0  0  0  0  0  0
  185.4940  178.0330  147.8040 C   0  0  0  0  0  3  0  0  0  0  0  0
  184.9930  178.3780  142.6000 C   0  0  0  0  0  3  0  0  0  0  0  0
  189.2890  177.3890  144.9410 C   0  0  0  0  0  0  0  0  0  0  0  0
  183.3300  178.4050  146.8820 F   0  0  0  0  0  0  0  0  0  0  0  0
  188.2700  177.0950  141.3840 N   0  0  0  0  0  2  0  0  0  0  0  0
  184.8470  177.9920  140.2180 C   0  0  0  0  0  3  0  0  0  0  0  0
  188.7100  177.4880  146.1650 N   0  0  0  0  0  0  0  0  0  0  0  0
  188.5070  177.5290  143.7840 C   0  0  0  0  0  0  0  0  0  0  0  0
  185.1780  178.1090  145.4080 C   0  0  0  0  0  3  0  0  0  0  0  0
  186.7400  177.1200  139.0170 O   0  0  0  0  0  1  0  0  0  0  0  0
  187.3860  177.7250  146.3210 C   0  0  0  0  0  0  0  0  0  0  0  0
  186.8570  177.8030  147.6130 C   0  0  0  0  0  3  0  0  0  0  0  0
  189.1890  177.4930  142.4410 C   0  0  0  0  0  2  0  0  0  0  0  0
  186.9080  177.5190  141.4020 C   0  0  0  0  0  0  0  0  0  0  0  0
  186.1660  177.5380  140.2110 C   0  0  0  0  0  0  0  0  0  0  0  0
  190.6970  174.8710  145.3920 O   0  0  0  0  0  0  0  0  0  0  0  0
  191.3580  175.8890  145.0500 C   0  0  0  0  0  0  0  0  0  0  0  0
  190.6990  177.1430  144.8240 N   0  0  0  0  0  2  0  0  0  0  0  0
  193.3950  176.2060  143.7580 C   0  0  0  0  0  2  0  0  0  0  0  0
  192.8180  175.7810  144.8800 C   0  0  0  0  0  0  0  0  0  0  0  0
  194.3640  176.2050  146.6350 O   0  0  0  0  0  1  0  0  0  0  0  0
  193.6560  175.1960  145.9810 C   0  0  2  0  0  3  0  0  0  0  0  0
  194.6290  174.1350  145.4640 C   0  0  0  0  0  2  0  0  0  0  0  0
  196.0980  174.5120  145.6580 C   0  0  1  0  0  3  0  0  0  0  0  0
  196.9100  173.3410  146.1830 C   0  0  0  0  0  1  0  0  0  0  0  0
  196.6530  174.9910  144.4730 O   0  0  0  0  0  1  0  0  0  0  0  0
  1  9  1  0  0  0  0
  1  6  1  0  0  0  0
  2  5  1  0  0  0  0
  3  2  1  0  0  0  0
  4  7  2  0  0  0  0
  5 14  1  0  0  0  0
  5 16  2  0  0  0  0
  7  3  1  0  0  0  0
  8 12  2  0  0  0  0
 10 19  1  0  0  0  0
 10 18  1  0  0  0  0
 11  4  1  0  0  0  0
 12 16  1  0  0  0  0
 13  2  2  0  0  0  0
 13  8  1  0  0  0  0
 14  1  2  0  0  0  0
 15 20  1  0  0  0  0
 16 17  1  0  0  0  0
 17  6  2  0  0  0  0
 18 13  1  0  0  0  0
 19  3  2  0  0  0  0
 20 11  2  0  0  0  0
 20 19  1  0  0  0  0
 22 21  2  0  0  0  0
 23  8  1  0  0  0  0
 23 22  1  0  0  0  0
 24 25  2  0  0  0  0
 25 22  1  0  0  0  0
 25 27  1  0  0  0  0
 27 26  1  6  0  0  0
 28 29  1  0  0  0  0
 28 27  1  0  0  0  0
 29 30  1  6  0  0  0
 31 29  1  0  0  0  0
M  END
>  <MODEL>
1

>  <REMARK>
 VINA RESULT:      -8.5      0.000      0.000
  Name = 
  5 active torsions:
  status: ('A' for Active; 'I' for Inactive)
    1  A    between atoms: C_1  and  C_24
    2  A    between atoms: C_9  and  C_22
    3  A    between atoms: C_15  and  N_23
    4  A    between atoms: C_19  and  C_22
    5  A    between atoms: C_19  and  C_24
                            x       y       z     vdW  Elec       q    Type
                         _______ _______ _______ _____ _____    ______ ____

>  <TORSDO>
F 5

$$$$
=
 OpenBabel11052417553D

 31 34  0  0  1  0  0  0  0  0999 V2000
  184.6150  178.2260  140.7910 C   0  0  0  0  0  0  0  0  0  0  0  0
  186.7920  177.3460  143.7240 C   0  0  0  0  0  0  0  0  0  0  0  0
  186.0330  177.7780  144.9480 C   0  0  0  0  0  0  0  0  0  0  0  0
  184.0180  178.5950  146.0540 C   0  0  0  0  0  3  0  0  0  0  0  0
  186.3080  177.5080  142.3960 C   0  0  0  0  0  0  0  0  0  0  0  0
  185.4230  177.8080  139.7330 C   0  0  0  0  0  3  0  0  0  0  0  0
  184.6760  178.1420  144.9090 C   0  0  0  0  0  3  0  0  0  0  0  0
  188.8430  176.3970  142.7860 C   0  0  0  0  0  0  0  0  0  0  0  0
  183.4020  178.7740  140.5410 F   0  0  0  0  0  0  0  0  0  0  0  0
  188.0730  177.4410  146.2640 N   0  0  0  0  0  2  0  0  0  0  0  0
  184.7090  178.6960  147.2610 C   0  0  0  0  0  3  0  0  0  0  0  0
  188.3420  176.5610  141.5360 N   0  0  0  0  0  0  0  0  0  0  0  0
  188.0880  176.7950  143.9010 C   0  0  0  0  0  0  0  0  0  0  0  0
  185.0550  178.0780  142.1080 C   0  0  0  0  0  3  0  0  0  0  0  0
  186.7320  178.4320  148.5360 O   0  0  0  0  0  1  0  0  0  0  0  0
  187.1200  177.0970  141.3110 C   0  0  0  0  0  0  0  0  0  0  0  0
  186.6740  177.2460  139.9940 C   0  0  0  0  0  3  0  0  0  0  0  0
  188.6350  176.5290  145.2790 C   0  0  0  0  0  2  0  0  0  0  0  0
  186.7090  177.8540  146.1830 C   0  0  0  0  0  0  0  0  0  0  0  0
  186.0540  178.3320  147.3280 C   0  0  0  0  0  0  0  0  0  0  0  0
  191.3980  177.7940  143.0080 O   0  0  0  0  0  0  0  0  0  0  0  0
  191.3800  176.5360  143.0840 C   0  0  0  0  0  0  0  0  0  0  0  0
  190.1440  175.8170  142.9760 N   0  0  0  0  0  2  0  0  0  0  0  0
  193.5700  175.7850  142.3350 C   0  0  0  0  0  2  0  0  0  0  0  0
  192.6430  175.8040  143.2910 C   0  0  0  0  0  0  0  0  0  0  0  0
  191.9250  174.0860  144.7690 O   0  0  0  0  0  1  0  0  0  0  0  0
  192.8840  175.0840  144.5870 C   0  0  2  0  0  3  0  0  0  0  0  0
  192.8730  176.0340  145.7860 C   0  0  0  0  0  2  0  0  0  0  0  0
  194.2690  176.3560  146.3180 C   0  0  1  0  0  3  0  0  0  0  0  0
  195.2490  175.2330  146.0290 C   0  0  0  0  0  1  0  0  0  0  0  0
  194.7430  177.5560  145.7900 O   0  0  0  0  0  1  0  0  0  0  0  0
  1 14  1  0  0  0  0
  2 13  2  0  0  0  0
  2  3  1  0  0  0  0
  3 19  1  0  0  0  0
  4 11  2  0  0  0  0
  5  2  1  0  0  0  0
  6 17  1  0  0  0  0
  6  1  2  0  0  0  0
  7  3  2  0  0  0  0
  7  4  1  0  0  0  0
  8 23  1  0  0  0  0
  8 13  1  0  0  0  0
  9  1  1  0  0  0  0
 11 20  1  0  0  0  0
 12  8  2  0  0  0  0
 13 18  1  0  0  0  0
 14  5  2  0  0  0  0
 16 12  1  0  0  0  0
 16  5  1  0  0  0  0
 17 16  2  0  0  0  0
 18 10  1  0  0  0  0
 19 10  1  0  0  0  0
 19 20  2  0  0  0  0
 20 15  1  0  0  0  0
 21 22  2  0  0  0  0
 22 25  1  0  0  0  0
 23 22  1  0  0  0  0
 24 25  2  0  0  0  0
 25 27  1  0  0  0  0
 27 26  1  1  0  0  0
 27 28  1  0  0  0  0
 28 29  1  0  0  0  0
 29 30  1  6  0  0  0
 31 29  1  0  0  0  0
M  END
>  <MODEL>
2

>  <REMARK>
 VINA RESULT:      -8.4      2.021      4.520
  Name = 
  5 active torsions:
  status: ('A' for Active; 'I' for Inactive)
    1  A    between atoms: C_1  and  C_24
    2  A    between atoms: C_9  and  C_22
    3  A    between atoms: C_15  and  N_23
    4  A    between atoms: C_19  and  C_22
    5  A    between atoms: C_19  and  C_24
                            x       y       z     vdW  Elec       q    Type
                         _______ _______ _______ _____ _____    ______ ____

>  <TORSDO>
F 5

$$$$
=
 OpenBabel11052417553D

 31 34  0  0  1  0  0  0  0  0999 V2000
  184.4450  178.4420  146.4700 C   0  0  0  0  0  0  0  0  0  0  0  0
  187.0590  177.7930  143.8500 C   0  0  0  0  0  0  0  0  0  0  0  0
  186.3500  177.8800  142.5270 C   0  0  0  0  0  0  0  0  0  0  0  0
  184.4000  178.4130  141.1610 C   0  0  0  0  0  3  0  0  0  0  0  0
  186.4140  177.9760  145.1060 C   0  0  0  0  0  0  0  0  0  0  0  0
  185.2050  178.3110  147.6330 C   0  0  0  0  0  3  0  0  0  0  0  0
  185.0510  178.4020  142.3960 C   0  0  0  0  0  3  0  0  0  0  0  0
  189.1370  177.3420  145.0610 C   0  0  0  0  0  0  0  0  0  0  0  0
  183.1250  178.7330  146.5540 F   0  0  0  0  0  0  0  0  0  0  0  0
  188.3310  176.9070  141.4630 N   0  0  0  0  0  2  0  0  0  0  0  0
  185.0370  177.8980  140.0330 C   0  0  0  0  0  3  0  0  0  0  0  0
  188.4870  177.5320  146.2370 N   0  0  0  0  0  0  0  0  0  0  0  0
  188.4380  177.4560  143.8490 C   0  0  0  0  0  0  0  0  0  0  0  0
  185.0450  178.2740  145.2200 C   0  0  0  0  0  3  0  0  0  0  0  0
  186.9570  176.8770  139.0030 O   0  0  0  0  0  1  0  0  0  0  0  0
  187.1700  177.8380  146.2950 C   0  0  0  0  0  0  0  0  0  0  0  0
  186.5650  178.0080  147.5440 C   0  0  0  0  0  3  0  0  0  0  0  0
  189.2000  177.3180  142.5570 C   0  0  0  0  0  2  0  0  0  0  0  0
  186.9940  177.3940  141.3700 C   0  0  0  0  0  0  0  0  0  0  0  0
  186.3300  177.3840  140.1350 C   0  0  0  0  0  0  0  0  0  0  0  0
  190.3860  174.7810  145.7020 O   0  0  0  0  0  0  0  0  0  0  0  0
  191.1170  175.7520  145.3670 C   0  0  0  0  0  0  0  0  0  0  0  0
  190.5380  177.0250  145.0490 N   0  0  0  0  0  2  0  0  0  0  0  0
  193.1680  174.6170  146.0200 C   0  0  0  0  0  2  0  0  0  0  0  0
  192.5790  175.5700  145.3000 C   0  0  0  0  0  0  0  0  0  0  0  0
  193.3580  175.9960  143.0950 O   0  0  0  0  0  1  0  0  0  0  0  0
  193.4010  176.4590  144.4110 C   0  0  2  0  0  3  0  0  0  0  0  0
  194.8540  176.5560  144.8770 C   0  0  0  0  0  2  0  0  0  0  0  0
  195.8400  175.8580  143.9390 C   0  0  1  0  0  3  0  0  0  0  0  0
  196.7930  176.8490  143.2940 C   0  0  0  0  0  1  0  0  0  0  0  0
  196.5560  174.8680  144.6100 O   0  0  0  0  0  1  0  0  0  0  0  0
  1  9  1  0  0  0  0
  1  6  1  0  0  0  0
  2  5  1  0  0  0  0
  3  2  1  0  0  0  0
  4  7  2  0  0  0  0
  5 14  1  0  0  0  0
  5 16  2  0  0  0  0
  7  3  1  0  0  0  0
  8 12  2  0  0  0  0
 10 18  1  0  0  0  0
 11 20  2  0  0  0  0
 11  4  1  0  0  0  0
 12 16  1  0  0  0  0
 13  2  2  0  0  0  0
 13  8  1  0  0  0  0
 14  1  2  0  0  0  0
 15 20  1  0  0  0  0
 16 17  1  0  0  0  0
 17  6  2  0  0  0  0
 18 13  1  0  0  0  0
 19 10  1  0  0  0  0
 19  3  2  0  0  0  0
 20 19  1  0  0  0  0
 22 21  2  0  0  0  0
 23  8  1  0  0  0  0
 23 22  1  0  0  0  0
 25 22  1  0  0  0  0
 25 24  2  0  0  0  0
 27 26  1  6  0  0  0
 27 28  1  0  0  0  0
 27 25  1  0  0  0  0
 29 30  1  1  0  0  0
 29 31  1  0  0  0  0
 29 28  1  0  0  0  0
M  END
>  <MODEL>
3

>  <REMARK>
 VINA RESULT:      -8.4      1.090      1.385
  Name = 
  5 active torsions:
  status: ('A' for Active; 'I' for Inactive)
    1  A    between atoms: C_1  and  C_24
    2  A    between atoms: C_9  and  C_22
    3  A    between atoms: C_15  and  N_23
    4  A    between atoms: C_19  and  C_22
    5  A    between atoms: C_19  and  C_24
                            x       y       z     vdW  Elec       q    Type
                         _______ _______ _______ _____ _____    ______ ____

>  <TORSDO>
F 5

$$$$
=
 OpenBabel11052417553D

 31 34  0  0  1  0  0  0  0  0999 V2000
  191.0350  173.0700  141.0790 C   0  0  0  0  0  0  0  0  0  0  0  0
  189.8080  175.5020  143.6670 C   0  0  0  0  0  0  0  0  0  0  0  0
  190.9440  175.6840  144.6360 C   0  0  0  0  0  0  0  0  0  0  0  0
  193.2660  175.3670  145.3140 C   0  0  0  0  0  3  0  0  0  0  0  0
  189.8680  174.6470  142.5310 C   0  0  0  0  0  0  0  0  0  0  0  0
  189.9050  172.9640  140.2670 C   0  0  0  0  0  3  0  0  0  0  0  0
  192.2480  175.2330  144.3680 C   0  0  0  0  0  3  0  0  0  0  0  0
  187.4940  176.0220  143.0680 C   0  0  0  0  0  0  0  0  0  0  0  0
  192.1530  172.3660  140.7800 F   0  0  0  0  0  0  0  0  0  0  0  0
  189.3930  176.8190  146.1560 N   0  0  0  0  0  2  0  0  0  0  0  0
  192.9950  175.9520  146.5510 C   0  0  0  0  0  3  0  0  0  0  0  0
  187.5940  175.2030  141.9900 N   0  0  0  0  0  0  0  0  0  0  0  0
  188.5890  176.1780  143.9320 C   0  0  0  0  0  0  0  0  0  0  0  0
  191.0140  173.9030  142.2000 C   0  0  0  0  0  3  0  0  0  0  0  0
  191.4530  177.0030  148.0700 O   0  0  0  0  0  1  0  0  0  0  0  0
  188.7280  174.5220  141.7020 C   0  0  0  0  0  0  0  0  0  0  0  0
  188.7540  173.6880  140.5800 C   0  0  0  0  0  3  0  0  0  0  0  0
  188.4760  177.1520  145.0760 C   0  0  0  0  0  2  0  0  0  0  0  0
  190.6940  176.3040  145.8770 C   0  0  0  0  0  0  0  0  0  0  0  0
  191.7110  176.4170  146.8370 C   0  0  0  0  0  0  0  0  0  0  0  0
  186.5390  178.4610  141.7770 O   0  0  0  0  0  0  0  0  0  0  0  0
  185.8310  177.9250  142.6730 C   0  0  0  0  0  0  0  0  0  0  0  0
  186.2720  176.7290  143.3300 N   0  0  0  0  0  2  0  0  0  0  0  0
  183.4530  178.2910  142.3120 C   0  0  0  0  0  2  0  0  0  0  0  0
  184.5410  178.5370  143.0390 C   0  0  0  0  0  0  0  0  0  0  0  0
  185.6730  180.0870  144.4410 O   0  0  0  0  0  1  0  0  0  0  0  0
  184.4560  179.4340  144.2410 C   0  0  2  0  0  3  0  0  0  0  0  0
  184.0700  178.6670  145.5080 C   0  0  0  0  0  2  0  0  0  0  0  0
  185.2740  178.1650  146.3050 C   0  0  1  0  0  3  0  0  0  0  0  0
  185.4010  178.8850  147.6360 C   0  0  0  0  0  1  0  0  0  0  0  0
  185.2020  176.7880  146.5080 O   0  0  0  0  0  1  0  0  0  0  0  0
  1 14  1  0  0  0  0
  2 13  2  0  0  0  0
  2  3  1  0  0  0  0
  3 19  1  0  0  0  0
  4 11  2  0  0  0  0
  5  2  1  0  0  0  0
  6 17  1  0  0  0  0
  6  1  2  0  0  0  0
  7  3  2  0  0  0  0
  7  4  1  0  0  0  0
  8 23  1  0  0  0  0
  8 13  1  0  0  0  0
  9  1  1  0  0  0  0
 11 20  1  0  0  0  0
 12  8  2  0  0  0  0
 13 18  1  0  0  0  0
 14  5  2  0  0  0  0
 16 12  1  0  0  0  0
 16  5  1  0  0  0  0
 17 16  2  0  0  0  0
 18 10  1  0  0  0  0
 19 10  1  0  0  0  0
 19 20  2  0  0  0  0
 20 15  1  0  0  0  0
 21 22  2  0  0  0  0
 22 25  1  0  0  0  0
 22 23  1  0  0  0  0
 24 25  2  0  0  0  0
 25 27  1  0  0  0  0
 27 26  1  1  0  0  0
 27 28  1  0  0  0  0
 28 29  1  0  0  0  0
 29 31  1  0  0  0  0
 29 30  1  1  0  0  0
M  END
>  <MODEL>
4

>  <REMARK>
 VINA RESULT:      -8.0      3.521      8.445
  Name = 
  5 active torsions:
  status: ('A' for Active; 'I' for Inactive)
    1  A    between atoms: C_1  and  C_24
    2  A    between atoms: C_9  and  C_22
    3  A    between atoms: C_15  and  N_23
    4  A    between atoms: C_19  and  C_22
    5  A    between atoms: C_19  and  C_24
                            x       y       z     vdW  Elec       q    Type
                         _______ _______ _______ _____ _____    ______ ____

>  <TORSDO>
F 5

$$$$
=
 OpenBabel11052417553D

 31 34  0  0  1  0  0  0  0  0999 V2000
  184.9630  178.0980  140.7700 C   0  0  0  0  0  0  0  0  0  0  0  0
  186.9750  177.3200  143.8460 C   0  0  0  0  0  0  0  0  0  0  0  0
  186.1520  177.7960  145.0110 C   0  0  0  0  0  0  0  0  0  0  0  0
  184.0820  178.6540  145.9770 C   0  0  0  0  0  3  0  0  0  0  0  0
  186.5640  177.4360  142.4890 C   0  0  0  0  0  0  0  0  0  0  0  0
  185.8260  177.6420  139.7730 C   0  0  0  0  0  3  0  0  0  0  0  0
  184.8000  178.1600  144.8850 C   0  0  0  0  0  3  0  0  0  0  0  0
  189.0710  176.3350  143.0560 C   0  0  0  0  0  0  0  0  0  0  0  0
  183.7670  178.6390  140.4350 F   0  0  0  0  0  0  0  0  0  0  0  0
  188.1160  177.5030  146.4470 N   0  0  0  0  0  2  0  0  0  0  0  0
  184.7070  178.7970  147.2150 C   0  0  0  0  0  3  0  0  0  0  0  0
  188.6390  176.4560  141.7750 N   0  0  0  0  0  0  0  0  0  0  0  0
  188.2580  176.7740  144.1130 C   0  0  0  0  0  0  0  0  0  0  0  0
  185.3310  177.9970  142.1130 C   0  0  0  0  0  3  0  0  0  0  0  0
  186.6570  178.5750  148.6070 O   0  0  0  0  0  1  0  0  0  0  0  0
  187.4320  176.9860  141.4650 C   0  0  0  0  0  0  0  0  0  0  0  0
  187.0590  177.0890  140.1210 C   0  0  0  0  0  3  0  0  0  0  0  0
  188.7280  176.5560  145.5270 C   0  0  0  0  0  2  0  0  0  0  0  0
  186.7600  177.9140  146.2780 C   0  0  0  0  0  0  0  0  0  0  0  0
  186.0450  178.4330  147.3670 C   0  0  0  0  0  0  0  0  0  0  0  0
  191.6450  177.7100  143.1730 O   0  0  0  0  0  0  0  0  0  0  0  0
  191.6040  176.4690  143.3890 C   0  0  0  0  0  0  0  0  0  0  0  0
  190.3570  175.7610  143.3360 N   0  0  0  0  0  2  0  0  0  0  0  0
  192.8980  174.9140  144.7410 C   0  0  0  0  0  2  0  0  0  0  0  0
  192.8500  175.7450  143.7020 C   0  0  0  0  0  0  0  0  0  0  0  0
  193.7590  175.6660  141.5080 O   0  0  0  0  0  1  0  0  0  0  0  0
  194.0640  175.9450  142.8410 C   0  0  2  0  0  3  0  0  0  0  0  0
  195.2410  175.0800  143.2930 C   0  0  0  0  0  2  0  0  0  0  0  0
  196.4160  175.8910  143.8400 C   0  0  1  0  0  3  0  0  0  0  0  0
  197.5290  176.0210  142.8150 C   0  0  0  0  0  1  0  0  0  0  0  0
  196.0010  177.1530  144.2620 O   0  0  0  0  0  1  0  0  0  0  0  0
  1 14  1  0  0  0  0
  2 13  2  0  0  0  0
  2  3  1  0  0  0  0
  3 19  1  0  0  0  0
  4 11  2  0  0  0  0
  5  2  1  0  0  0  0
  6 17  1  0  0  0  0
  6  1  2  0  0  0  0
  7  3  2  0  0  0  0
  7  4  1  0  0  0  0
  8 23  1  0  0  0  0
  8 13  1  0  0  0  0
  9  1  1  0  0  0  0
 11 20  1  0  0  0  0
 12  8  2  0  0  0  0
 13 18  1  0  0  0  0
 14  5  2  0  0  0  0
 16 12  1  0  0  0  0
 16  5  1  0  0  0  0
 17 16  2  0  0  0  0
 18 10  1  0  0  0  0
 19 10  1  0  0  0  0
 19 20  2  0  0  0  0
 20 15  1  0  0  0  0
 21 22  2  0  0  0  0
 22 25  1  0  0  0  0
 23 22  1  0  0  0  0
 25 24  2  0  0  0  0
 27 26  1  6  0  0  0
 27 28  1  0  0  0  0
 27 25  1  0  0  0  0
 28 29  1  0  0  0  0
 29 30  1  6  0  0  0
 29 31  1  0  0  0  0
M  END
>  <MODEL>
5

>  <REMARK>
 VINA RESULT:      -7.9      2.294      4.592
  Name = 
  5 active torsions:
  status: ('A' for Active; 'I' for Inactive)
    1  A    between atoms: C_1  and  C_24
    2  A    between atoms: C_9  and  C_22
    3  A    between atoms: C_15  and  N_23
    4  A    between atoms: C_19  and  C_22
    5  A    between atoms: C_19  and  C_24
                            x       y       z     vdW  Elec       q    Type
                         _______ _______ _______ _____ _____    ______ ____

>  <TORSDO>
F 5

$$$$
=
 OpenBabel11052417553D

 31 34  0  0  1  0  0  0  0  0999 V2000
  185.1960  177.7670  146.8080 C   0  0  0  0  0  0  0  0  0  0  0  0
  187.3320  176.8330  143.8620 C   0  0  0  0  0  0  0  0  0  0  0  0
  186.6130  177.3520  142.6470 C   0  0  0  0  0  0  0  0  0  0  0  0
  184.8530  178.6660  141.5870 C   0  0  0  0  0  3  0  0  0  0  0  0
  186.8460  176.9790  145.1910 C   0  0  0  0  0  0  0  0  0  0  0  0
  185.9410  177.2190  147.8530 C   0  0  0  0  0  3  0  0  0  0  0  0
  185.5350  178.2500  142.7320 C   0  0  0  0  0  3  0  0  0  0  0  0
  189.2320  175.5850  144.7690 C   0  0  0  0  0  0  0  0  0  0  0  0
  184.0380  178.4180  147.0720 F   0  0  0  0  0  0  0  0  0  0  0  0
  188.1340  176.0320  141.2510 N   0  0  0  0  0  2  0  0  0  0  0  0
  185.2350  178.1860  140.3350 C   0  0  0  0  0  3  0  0  0  0  0  0
  188.7380  175.7530  146.0220 N   0  0  0  0  0  0  0  0  0  0  0  0
  188.5360  176.1070  143.6670 C   0  0  0  0  0  0  0  0  0  0  0  0
  185.6450  177.6460  145.4920 C   0  0  0  0  0  3  0  0  0  0  0  0
  186.6850  176.8350  138.9710 O   0  0  0  0  0  1  0  0  0  0  0  0
  187.5860  176.4220  146.2610 C   0  0  0  0  0  0  0  0  0  0  0  0
  187.1330  176.5460  147.5790 C   0  0  0  0  0  3  0  0  0  0  0  0
  189.1460  175.9730  142.2960 C   0  0  0  0  0  2  0  0  0  0  0  0
  187.0100  176.9030  141.3710 C   0  0  0  0  0  0  0  0  0  0  0  0
  186.3090  177.3020  140.2240 C   0  0  0  0  0  0  0  0  0  0  0  0
  189.6890  172.7120  145.0290 O   0  0  0  0  0  0  0  0  0  0  0  0
  190.6510  173.4570  144.6970 C   0  0  0  0  0  0  0  0  0  0  0  0
  190.4620  174.8730  144.5640 N   0  0  0  0  0  2  0  0  0  0  0  0
  192.0960  171.5490  144.2620 C   0  0  0  0  0  2  0  0  0  0  0  0
  191.9750  172.8620  144.4420 C   0  0  0  0  0  0  0  0  0  0  0  0
  194.2470  173.0670  143.7740 O   0  0  0  0  0  1  0  0  0  0  0  0
  193.1890  173.7450  144.3800 C   0  0  2  0  0  3  0  0  0  0  0  0
  193.6170  174.2360  145.7640 C   0  0  0  0  0  2  0  0  0  0  0  0
  193.6720  175.7600  145.8780 C   0  0  1  0  0  3  0  0  0  0  0  0
  192.6650  176.2810  146.8890 C   0  0  0  0  0  1  0  0  0  0  0  0
  194.9550  176.1920  146.2100 O   0  0  0  0  0  1  0  0  0  0  0  0
  1  9  1  0  0  0  0
  1  6  1  0  0  0  0
  2  5  1  0  0  0  0
  3  7  1  0  0  0  0
  3  2  1  0  0  0  0
  4  7  2  0  0  0  0
  5 14  1  0  0  0  0
  5 16  2  0  0  0  0
  8 12  2  0  0  0  0
 10 19  1  0  0  0  0
 10 18  1  0  0  0  0
 11  4  1  0  0  0  0
 12 16  1  0  0  0  0
 13  2  2  0  0  0  0
 13  8  1  0  0  0  0
 14  1  2  0  0  0  0
 15 20  1  0  0  0  0
 16 17  1  0  0  0  0
 17  6  2  0  0  0  0
 18 13  1  0  0  0  0
 19  3  2  0  0  0  0
 20 11  2  0  0  0  0
 20 19  1  0  0  0  0
 22 21  2  0  0  0  0
 23 22  1  0  0  0  0
 23  8  1  0  0  0  0
 24 25  2  0  0  0  0
 25 22  1  0  0  0  0
 27 26  1  1  0  0  0
 27 25  1  0  0  0  0
 27 28  1  0  0  0  0
 28 29  1  0  0  0  0
 29 31  1  0  0  0  0
 29 30  1  1  0  0  0
M  END
>  <MODEL>
6

>  <REMARK>
 VINA RESULT:      -7.9      1.618      2.111
  Name = 
  5 active torsions:
  status: ('A' for Active; 'I' for Inactive)
    1  A    between atoms: C_1  and  C_24
    2  A    between atoms: C_9  and  C_22
    3  A    between atoms: C_15  and  N_23
    4  A    between atoms: C_19  and  C_22
    5  A    between atoms: C_19  and  C_24
                            x       y       z     vdW  Elec       q    Type
                         _______ _______ _______ _____ _____    ______ ____

>  <TORSDO>
F 5

$$$$
=
 OpenBabel11052417553D

 31 34  0  0  1  0  0  0  0  0999 V2000
  184.4770  178.3680  146.5390 C   0  0  0  0  0  0  0  0  0  0  0  0
  186.9720  177.8480  143.7780 C   0  0  0  0  0  0  0  0  0  0  0  0
  186.1910  177.9220  142.4950 C   0  0  0  0  0  0  0  0  0  0  0  0
  184.1540  178.3960  141.2390 C   0  0  0  0  0  3  0  0  0  0  0  0
  186.3880  177.9920  145.0680 C   0  0  0  0  0  0  0  0  0  0  0  0
  185.3010  178.2530  147.6590 C   0  0  0  0  0  3  0  0  0  0  0  0
  184.8690  178.3960  142.4390 C   0  0  0  0  0  3  0  0  0  0  0  0
  189.1260  177.4620  144.8730 C   0  0  0  0  0  0  0  0  0  0  0  0
  183.1530  178.6080  146.6950 F   0  0  0  0  0  0  0  0  0  0  0  0
  188.1490  177.0360  141.3170 N   0  0  0  0  0  2  0  0  0  0  0  0
  184.7500  177.9180  140.0730 C   0  0  0  0  0  3  0  0  0  0  0  0
  188.5320  177.6140  146.0840 N   0  0  0  0  0  0  0  0  0  0  0  0
  188.3600  177.5630  143.7010 C   0  0  0  0  0  0  0  0  0  0  0  0
  185.0160  178.2370  145.2570 C   0  0  0  0  0  3  0  0  0  0  0  0
  186.6500  176.9810  138.9320 O   0  0  0  0  0  1  0  0  0  0  0  0
  187.2090  177.8700  146.2140 C   0  0  0  0  0  0  0  0  0  0  0  0
  186.6640  178.0030  147.4950 C   0  0  0  0  0  3  0  0  0  0  0  0
  189.0580  177.4680  142.3690 C   0  0  0  0  0  2  0  0  0  0  0  0
  186.7910  177.4730  141.3000 C   0  0  0  0  0  0  0  0  0  0  0  0
  186.0640  177.4520  140.1010 C   0  0  0  0  0  0  0  0  0  0  0  0
  190.6140  175.3010  146.1550 O   0  0  0  0  0  0  0  0  0  0  0  0
  191.2340  176.1230  145.4260 C   0  0  0  0  0  0  0  0  0  0  0  0
  190.5350  177.1980  144.7840 N   0  0  0  0  0  2  0  0  0  0  0  0
  193.3420  176.7790  144.4050 C   0  0  0  0  0  2  0  0  0  0  0  0
  192.6870  175.9690  145.2340 C   0  0  0  0  0  0  0  0  0  0  0  0
  194.5390  175.4410  146.6270 O   0  0  0  0  0  1  0  0  0  0  0  0
  193.4280  174.8970  145.9810 C   0  0  2  0  0  3  0  0  0  0  0  0
  193.8730  173.7560  145.0640 C   0  0  0  0  0  2  0  0  0  0  0  0
  192.7210  173.1150  144.2900 C   0  0  1  0  0  3  0  0  0  0  0  0
  192.8520  173.3550  142.7960 C   0  0  0  0  0  1  0  0  0  0  0  0
  192.6400  171.7480  144.5520 O   0  0  0  0  0  1  0  0  0  0  0  0
  1  9  1  0  0  0  0
  1  6  1  0  0  0  0
  2  5  1  0  0  0  0
  3  2  1  0  0  0  0
  4  7  2  0  0  0  0
  5 14  1  0  0  0  0
  5 16  2  0  0  0  0
  7  3  1  0  0  0  0
  8 12  2  0  0  0  0
 10 18  1  0  0  0  0
 11 20  2  0  0  0  0
 11  4  1  0  0  0  0
 12 16  1  0  0  0  0
 13  2  2  0  0  0  0
 13  8  1  0  0  0  0
 14  1  2  0  0  0  0
 15 20  1  0  0  0  0
 16 17  1  0  0  0  0
 17  6  2  0  0  0  0
 18 13  1  0  0  0  0
 19 10  1  0  0  0  0
 19  3  2  0  0  0  0
 20 19  1  0  0  0  0
 22 21  2  0  0  0  0
 23  8  1  0  0  0  0
 23 22  1  0  0  0  0
 24 25  2  0  0  0  0
 25 22  1  0  0  0  0
 25 27  1  0  0  0  0
 27 26  1  6  0  0  0
 28 27  1  0  0  0  0
 29 30  1  6  0  0  0
 29 31  1  0  0  0  0
 29 28  1  0  0  0  0
M  END
>  <MODEL>
7

>  <REMARK>
 VINA RESULT:      -7.9      1.051      1.549
  Name = 
  5 active torsions:
  status: ('A' for Active; 'I' for Inactive)
    1  A    between atoms: C_1  and  C_24
    2  A    between atoms: C_9  and  C_22
    3  A    between atoms: C_15  and  N_23
    4  A    between atoms: C_19  and  C_22
    5  A    between atoms: C_19  and  C_24
                            x       y       z     vdW  Elec       q    Type
                         _______ _______ _______ _____ _____    ______ ____

>  <TORSDO>
F 5

$$$$
=
 OpenBabel11052417553D

 31 34  0  0  1  0  0  0  0  0999 V2000
  193.4510  174.5160  145.6410 C   0  0  0  0  0  0  0  0  0  0  0  0
  190.2530  174.7400  143.6820 C   0  0  0  0  0  0  0  0  0  0  0  0
  190.3050  173.6240  142.6750 C   0  0  0  0  0  0  0  0  0  0  0  0
  191.3080  171.5990  141.7560 C   0  0  0  0  0  3  0  0  0  0  0  0
  191.2870  175.0040  144.6230 C   0  0  0  0  0  0  0  0  0  0  0  0
  193.3000  175.5980  146.5090 C   0  0  0  0  0  3  0  0  0  0  0  0
  191.2520  172.5880  142.7410 C   0  0  0  0  0  3  0  0  0  0  0  0
  189.0520  176.6820  144.5610 C   0  0  0  0  0  0  0  0  0  0  0  0
  194.5650  173.7470  145.7050 F   0  0  0  0  0  0  0  0  0  0  0  0
  188.3850  174.6350  141.5370 N   0  0  0  0  0  2  0  0  0  0  0  0
  190.4190  171.6330  140.6830 C   0  0  0  0  0  3  0  0  0  0  0  0
  190.0560  176.8950  145.4490 N   0  0  0  0  0  0  0  0  0  0  0  0
  189.1340  175.6130  143.6550 C   0  0  0  0  0  0  0  0  0  0  0  0
  192.4550  174.2240  144.7070 C   0  0  0  0  0  3  0  0  0  0  0  0
  188.5790  172.6680  139.5290 O   0  0  0  0  0  1  0  0  0  0  0  0
  191.1530  176.1030  145.5050 C   0  0  0  0  0  0  0  0  0  0  0  0
  192.1530  176.3900  146.4390 C   0  0  0  0  0  3  0  0  0  0  0  0
  187.9710  175.3530  142.7340 C   0  0  0  0  0  2  0  0  0  0  0  0
  189.3900  173.6260  141.6020 C   0  0  0  0  0  0  0  0  0  0  0  0
  189.4630  172.6460  140.6000 C   0  0  0  0  0  0  0  0  0  0  0  0
  186.7330  176.5930  146.3340 O   0  0  0  0  0  0  0  0  0  0  0  0
  186.7820  177.4750  145.4340 C   0  0  0  0  0  0  0  0  0  0  0  0
  187.9050  177.5450  144.5440 N   0  0  0  0  0  2  0  0  0  0  0  0
  184.8500  178.6540  146.3260 C   0  0  0  0  0  2  0  0  0  0  0  0
  185.6760  178.4420  145.3040 C   0  0  0  0  0  0  0  0  0  0  0  0
  185.1720  180.5250  144.2760 O   0  0  0  0  0  1  0  0  0  0  0  0
  185.4890  179.1910  144.0160 C   0  0  2  0  0  3  0  0  0  0  0  0
  184.4040  178.5650  143.1370 C   0  0  0  0  0  2  0  0  0  0  0  0
  184.9480  177.9420  141.8520 C   0  0  1  0  0  3  0  0  0  0  0  0
  184.0910  178.3020  140.6510 C   0  0  0  0  0  1  0  0  0  0  0  0
  186.2710  178.3230  141.6300 O   0  0  0  0  0  1  0  0  0  0  0  0
  1  9  1  0  0  0  0
  1  6  1  0  0  0  0
  2  5  1  0  0  0  0
  3  7  1  0  0  0  0
  3  2  1  0  0  0  0
  4  7  2  0  0  0  0
  5 14  1  0  0  0  0
  5 16  2  0  0  0  0
  8 12  2  0  0  0  0
 10 19  1  0  0  0  0
 10 18  1  0  0  0  0
 11  4  1  0  0  0  0
 12 16  1  0  0  0  0
 13  2  2  0  0  0  0
 13  8  1  0  0  0  0
 14  1  2  0  0  0  0
 15 20  1  0  0  0  0
 16 17  1  0  0  0  0
 17  6  2  0  0  0  0
 18 13  1  0  0  0  0
 19  3  2  0  0  0  0
 20 11  2  0  0  0  0
 20 19  1  0  0  0  0
 22 21  2  0  0  0  0
 23  8  1  0  0  0  0
 23 22  1  0  0  0  0
 25 22  1  0  0  0  0
 25 24  2  0  0  0  0
 27 26  1  1  0  0  0
 27 25  1  0  0  0  0
 28 27  1  0  0  0  0
 29 30  1  6  0  0  0
 29 28  1  0  0  0  0
 31 29  1  0  0  0  0
M  END
>  <MODEL>
8

>  <REMARK>
 VINA RESULT:      -7.8      3.681      7.765
  Name = 
  5 active torsions:
  status: ('A' for Active; 'I' for Inactive)
    1  A    between atoms: C_1  and  C_24
    2  A    between atoms: C_9  and  C_22
    3  A    between atoms: C_15  and  N_23
    4  A    between atoms: C_19  and  C_22
    5  A    between atoms: C_19  and  C_24
                            x       y       z     vdW  Elec       q    Type
                         _______ _______ _______ _____ _____    ______ ____

>  <TORSDO>
F 5

$$$$
=
 OpenBabel11052417553D

 31 34  0  0  1  0  0  0  0  0999 V2000
  185.0780  178.0220  140.8260 C   0  0  0  0  0  0  0  0  0  0  0  0
  187.0140  177.3000  143.9640 C   0  0  0  0  0  0  0  0  0  0  0  0
  186.1600  177.7930  145.1000 C   0  0  0  0  0  0  0  0  0  0  0  0
  184.0640  178.6590  145.9980 C   0  0  0  0  0  3  0  0  0  0  0  0
  186.6370  177.3930  142.5950 C   0  0  0  0  0  0  0  0  0  0  0  0
  185.9680  177.5530  139.8590 C   0  0  0  0  0  3  0  0  0  0  0  0
  184.8110  178.1500  144.9340 C   0  0  0  0  0  3  0  0  0  0  0  0
  189.1320  176.3100  143.2430 C   0  0  0  0  0  0  0  0  0  0  0  0
  183.8900  178.5530  140.4510 F   0  0  0  0  0  0  0  0  0  0  0  0
  188.0880  177.5300  146.5900 N   0  0  0  0  0  2  0  0  0  0  0  0
  184.6570  178.8250  147.2490 C   0  0  0  0  0  3  0  0  0  0  0  0
  188.7320  176.4080  141.9500 N   0  0  0  0  0  0  0  0  0  0  0  0
  188.2910  176.7630  144.2710 C   0  0  0  0  0  0  0  0  0  0  0  0
  185.4120  177.9430  142.1790 C   0  0  0  0  0  3  0  0  0  0  0  0
  186.5710  178.6320  148.6940 O   0  0  0  0  0  1  0  0  0  0  0  0
  187.5320  176.9290  141.6010 C   0  0  0  0  0  0  0  0  0  0  0  0
  187.1930  177.0090  140.2470 C   0  0  0  0  0  3  0  0  0  0  0  0
  188.7260  176.5700  145.7010 C   0  0  0  0  0  2  0  0  0  0  0  0
  186.7360  177.9340  146.3790 C   0  0  0  0  0  0  0  0  0  0  0  0
  185.9920  178.4680  147.4420 C   0  0  0  0  0  0  0  0  0  0  0  0
  191.7210  177.6600  143.2490 O   0  0  0  0  0  0  0  0  0  0  0  0
  191.6670  176.4400  143.5610 C   0  0  0  0  0  0  0  0  0  0  0  0
  190.4120  175.7450  143.5650 N   0  0  0  0  0  2  0  0  0  0  0  0
  193.4470  175.9050  145.1310 C   0  0  0  0  0  2  0  0  0  0  0  0
  192.9050  175.7290  143.9280 C   0  0  0  0  0  0  0  0  0  0  0  0
  193.2310  175.1840  141.6370 O   0  0  0  0  0  1  0  0  0  0  0  0
  193.5510  174.8000  142.9400 C   0  0  2  0  0  3  0  0  0  0  0  0
  193.1380  173.3440  143.1630 C   0  0  0  0  0  2  0  0  0  0  0  0
  192.1430  172.8280  142.1220 C   0  0  1  0  0  3  0  0  0  0  0  0
  192.6980  171.6370  141.3620 C   0  0  0  0  0  1  0  0  0  0  0  0
  190.9250  172.4970  142.7140 O   0  0  0  0  0  1  0  0  0  0  0  0
  1 14  1  0  0  0  0
  2 13  2  0  0  0  0
  2  3  1  0  0  0  0
  3 19  1  0  0  0  0
  4 11  2  0  0  0  0
  5  2  1  0  0  0  0
  6 17  1  0  0  0  0
  6  1  2  0  0  0  0
  7  3  2  0  0  0  0
  7  4  1  0  0  0  0
  8 23  1  0  0  0  0
  8 13  1  0  0  0  0
  9  1  1  0  0  0  0
 11 20  1  0  0  0  0
 12  8  2  0  0  0  0
 13 18  1  0  0  0  0
 14  5  2  0  0  0  0
 16 12  1  0  0  0  0
 16  5  1  0  0  0  0
 17 16  2  0  0  0  0
 18 10  1  0  0  0  0
 19 10  1  0  0  0  0
 19 20  2  0  0  0  0
 20 15  1  0  0  0  0
 21 22  2  0  0  0  0
 22 23  1  0  0  0  0
 22 25  1  0  0  0  0
 25 24  2  0  0  0  0
 27 26  1  6  0  0  0
 27 28  1  0  0  0  0
 27 25  1  0  0  0  0
 29 30  1  1  0  0  0
 29 31  1  0  0  0  0
 29 28  1  0  0  0  0
M  END
>  <MODEL>
9

>  <REMARK>
 VINA RESULT:      -7.5      2.563      4.886
  Name = 
  5 active torsions:
  status: ('A' for Active; 'I' for Inactive)
    1  A    between atoms: C_1  and  C_24
    2  A    between atoms: C_9  and  C_22
    3  A    between atoms: C_15  and  N_23
    4  A    between atoms: C_19  and  C_22
    5  A    between atoms: C_19  and  C_24
                            x       y       z     vdW  Elec       q    Type
                         _______ _______ _______ _____ _____    ______ ____

>  <TORSDO>
F 5

$$$$
