=
 OpenBabel11052419243D

 55 59  0  0  1  0  0  0  0  0999 V2000
  190.4460  174.1120  144.0470 C   0  0  0  0  0  2  0  0  0  0  0  0
  195.2510  175.1800  142.4640 C   0  0  0  0  0  2  0  0  0  0  0  0
  193.6580  174.5120  139.8900 C   0  0  0  0  0  1  0  0  0  0  0  0
  191.2940  172.3330  138.8450 C   0  0  0  0  0  2  0  0  0  0  0  0
  190.9320  172.2860  137.3640 C   0  0  0  0  0  2  0  0  0  0  0  0
  189.2020  173.7340  139.1310 C   0  0  0  0  0  0  0  0  0  0  0  0
  188.7210  173.3500  137.7590 C   0  0  0  0  0  2  0  0  0  0  0  0
  192.2570  173.3600  141.3900 C   0  0  0  0  0  2  0  0  0  0  0  0
  189.4280  172.1100  137.2210 C   0  0  0  0  0  2  0  0  0  0  0  0
  189.9820  175.6860  145.9580 C   0  0  0  0  0  2  0  0  0  0  0  0
  190.4650  173.3340  139.6170 C   0  0  0  0  0  0  0  0  0  0  0  0
  192.8430  175.6560  146.6730 C   0  0  1  0  0  3  0  0  0  0  0  0
  190.5750  175.1750  142.9600 C   0  0  0  0  0  2  0  0  0  0  0  0
  192.3550  175.1470  145.3170 C   0  0  0  0  0  2  0  0  0  0  0  0
  188.8160  175.0480  141.1420 C   0  0  0  0  0  0  0  0  0  0  0  0
  194.9990  175.4990  143.8640 N   0  0  0  0  0  0  0  0  0  0  0  0
  188.4090  174.5930  139.8840 C   0  0  0  0  0  3  0  0  0  0  0  0
  194.4060  173.9880  142.0340 C   0  0  0  0  0  2  0  0  0  0  0  0
  193.2400  174.4330  141.2840 N   0  0  0  0  0  0  0  0  0  0  0  0
  190.4720  176.1570  147.3240 C   0  0  0  0  0  2  0  0  0  0  0  0
  195.5450  174.8720  144.8690 C   0  0  0  0  0  0  0  0  0  0  0  0
  190.9240  174.6170  145.4050 C   0  0  2  0  0  3  0  0  0  0  0  0
  190.9050  173.7920  140.8770 C   0  0  0  0  0  0  0  0  0  0  0  0
  190.0820  174.6520  141.6430 C   0  0  0  0  0  0  0  0  0  0  0  0
  195.2200  175.2480  146.2110 N   0  0  0  0  0  2  0  0  0  0  0  0
  194.2310  176.2680  146.5370 C   0  0  0  0  0  2  0  0  0  0  0  0
  191.8870  176.7190  147.2100 C   0  0  0  0  0  2  0  0  0  0  0  0
  187.9280  177.3320  141.6420 C   0  0  0  0  0  3  0  0  0  0  0  0
  186.1240  177.6760  143.2310 C   0  0  0  0  0  0  0  0  0  0  0  0
  186.9560  175.4400  142.7890 C   0  0  0  0  0  3  0  0  0  0  0  0
  186.0800  176.2950  143.4610 C   0  0  0  0  0  3  0  0  0  0  0  0
  187.0510  178.1890  142.3140 C   0  0  0  0  0  3  0  0  0  0  0  0
  187.8980  175.9500  141.8820 C   0  0  0  0  0  0  0  0  0  0  0  0
  185.2020  178.5740  143.9430 C   0  0  0  0  0  0  0  0  0  0  0  0
  185.6670  179.3780  144.9770 O   0  0  0  0  0  1  0  0  0  0  0  0
  183.9850  178.6230  143.6240 O   0  0  0  0  0  0  0  0  0  0  0  0
  196.5350  173.7660  144.6610 C   0  0  0  0  0  2  0  0  0  0  0  0
  196.5350  172.7850  145.8310 C   0  0  0  0  0  2  0  0  0  0  0  0
  197.1470  171.2310  144.1320 F   0  0  0  0  0  0  0  0  0  0  0  0
  196.5610  171.3240  145.3830 C   0  0  0  0  0  0  0  0  0  0  0  0
  197.3000  170.5650  146.2760 F   0  0  0  0  0  0  0  0  0  0  0  0
  195.1460  170.7980  145.3230 C   0  0  0  0  0  0  0  0  0  0  0  0
  194.2620  171.4050  145.9120 O   0  0  0  0  0  0  0  0  0  0  0  0
  194.0130  168.6240  145.5180 C   0  0  0  0  0  1  0  0  0  0  0  0
  195.9470  168.8520  144.2020 F   0  0  0  0  0  0  0  0  0  0  0  0
  194.7970  169.5250  144.5770 C   0  0  2  0  0  0  0  0  0  0  0  0
  193.9470  169.8650  143.3290 C   0  0  2  0  0  3  0  0  0  0  0  0
  192.4310  169.6240  143.4060 C   0  0  1  0  0  3  0  0  0  0  0  0
  191.7310  170.8060  143.6650 O   0  0  0  0  0  1  0  0  0  0  0  0
  191.9590  169.0300  142.1660 N   0  0  0  0  0  2  0  0  0  0  0  0
  190.8680  169.8590  141.6780 C   0  0  0  0  0  1  0  0  0  0  0  0
  194.5140  169.3860  142.1050 O   0  0  0  0  0  0  0  0  0  0  0  0
  195.1610  170.1860  141.1560 C   0  0  0  0  0  0  0  0  0  0  0  0
  194.4750  170.8110  140.3070 O   0  0  0  0  0  0  0  0  0  0  0  0
  196.5460  170.2970  141.1240 O   0  0  0  0  0  1  0  0  0  0  0  0
  2 16  1  0  0  0  0
  3 19  1  0  0  0  0
  4 11  1  0  0  0  0
  5  4  1  0  0  0  0
  6 11  2  0  0  0  0
  6 17  1  0  0  0  0
  7  6  1  0  0  0  0
  9  5  1  0  0  0  0
  9  7  1  0  0  0  0
 10 20  1  0  0  0  0
 11 23  1  0  0  0  0
 12 14  1  6  0  0  0
 12 27  1  0  0  0  0
 13  1  1  0  0  0  0
 14 22  1  0  0  0  0
 15 24  1  0  0  0  0
 15 33  1  0  0  0  0
 16 21  2  0  0  0  0
 17 15  2  0  0  0  0
 18  2  1  0  0  0  0
 19  8  1  0  0  0  0
 19 18  1  0  0  0  0
 21 25  1  0  0  0  0
 22  1  1  6  0  0  0
 22 10  1  0  0  0  0
 23  8  1  0  0  0  0
 23 24  2  0  0  0  0
 24 13  1  0  0  0  0
 25 26  1  0  0  0  0
 26 12  1  0  0  0  0
 27 20  1  0  0  0  0
 28 33  2  0  0  0  0
 28 32  1  0  0  0  0
 29 31  1  0  0  0  0
 29 34  1  0  0  0  0
 30 31  2  0  0  0  0
 32 29  2  0  0  0  0
 33 30  1  0  0  0  0
 34 35  1  0  0  0  0
 36 34  2  0  0  0  0
 37 21  1  0  0  0  0
 37 38  1  0  0  0  0
 39 40  1  0  0  0  0
 40 38  1  0  0  0  0
 40 41  1  0  0  0  0
 42 40  1  0  0  0  0
 42 43  2  0  0  0  0
 45 46  1  0  0  0  0
 46 42  1  0  0  0  0
 46 44  1  1  0  0  0
 47 52  1  6  0  0  0
 47 48  1  0  0  0  0
 47 46  1  0  0  0  0
 48 49  1  6  0  0  0
 50 48  1  0  0  0  0
 51 50  1  0  0  0  0
 53 52  1  0  0  0  0
 54 53  2  0  0  0  0
 55 53  1  0  0  0  0
M  END
>  <MODEL>
1

>  <REMARK>
 VINA RESULT:      -7.7      0.000      0.000
  Name = 
  12 active torsions:
  status: ('A' for Active; 'I' for Inactive)
    1  A    between atoms: C_1  and  O_53
    2  A    between atoms: C_6  and  C_14
    3  A    between atoms: C_6  and  C_20
    4  A    between atoms: C_8  and  C_22
    5  A    between atoms: C_8  and  C_43
    6  A    between atoms: C_10  and  C_32
    7  A    between atoms: N_11  and  C_29
    8  A    between atoms: C_14  and  C_38
    9  A    between atoms: C_20  and  C_22
   10  A    between atoms: C_29  and  C_38
   11  A    between atoms: C_33  and  C_52
   12  A    between atoms: C_38  and  O_53
                            x       y       z     vdW  Elec       q    Type
                         _______ _______ _______ _____ _____    ______ ____

>  <TORSDO>
F 12

$$$$
=
 OpenBabel11052419243D

 55 59  0  0  1  0  0  0  0  0999 V2000
  190.2060  174.2750  144.2560 C   0  0  0  0  0  2  0  0  0  0  0  0
  195.0390  175.1820  142.6600 C   0  0  0  0  0  2  0  0  0  0  0  0
  193.4190  174.5620  140.0910 C   0  0  0  0  0  1  0  0  0  0  0  0
  190.9820  172.4600  139.0550 C   0  0  0  0  0  2  0  0  0  0  0  0
  190.6150  172.4220  137.5760 C   0  0  0  0  0  2  0  0  0  0  0  0
  188.9370  173.9290  139.3440 C   0  0  0  0  0  0  0  0  0  0  0  0
  188.4410  173.5580  137.9740 C   0  0  0  0  0  2  0  0  0  0  0  0
  191.9850  173.4590  141.5970 C   0  0  0  0  0  2  0  0  0  0  0  0
  189.1060  172.2950  137.4360 C   0  0  0  0  0  2  0  0  0  0  0  0
  189.7980  175.8660  146.1650 C   0  0  0  0  0  2  0  0  0  0  0  0
  190.1880  173.4890  139.8270 C   0  0  0  0  0  0  0  0  0  0  0  0
  192.6590  175.7440  146.8730 C   0  0  1  0  0  3  0  0  0  0  0  0
  190.3670  175.3320  143.1670 C   0  0  0  0  0  2  0  0  0  0  0  0
  192.1500  175.2490  145.5200 C   0  0  0  0  0  2  0  0  0  0  0  0
  188.6000  175.2590  141.3540 C   0  0  0  0  0  0  0  0  0  0  0  0
  194.8010  175.5120  144.0600 N   0  0  0  0  0  0  0  0  0  0  0  0
  188.1750  174.8150  140.0980 C   0  0  0  0  0  3  0  0  0  0  0  0
  194.1540  174.0180  142.2340 C   0  0  0  0  0  2  0  0  0  0  0  0
  193.0020  174.4990  141.4860 N   0  0  0  0  0  0  0  0  0  0  0  0
  190.3060  176.3240  147.5290 C   0  0  0  0  0  2  0  0  0  0  0  0
  195.3290  174.8690  145.0640 C   0  0  0  0  0  0  0  0  0  0  0  0
  190.7030  174.7660  145.6120 C   0  0  2  0  0  3  0  0  0  0  0  0
  190.6460  173.9340  141.0860 C   0  0  0  0  0  0  0  0  0  0  0  0
  189.8530  174.8220  141.8520 C   0  0  0  0  0  0  0  0  0  0  0  0
  195.0200  175.2570  146.4070 N   0  0  0  0  0  2  0  0  0  0  0  0
  194.0650  176.3100  146.7330 C   0  0  0  0  0  2  0  0  0  0  0  0
  191.7390  176.8380  147.4110 C   0  0  0  0  0  2  0  0  0  0  0  0
  186.7240  175.6860  142.9510 C   0  0  0  0  0  3  0  0  0  0  0  0
  186.0580  177.9420  143.5560 C   0  0  0  0  0  0  0  0  0  0  0  0
  187.8780  177.5820  141.9930 C   0  0  0  0  0  3  0  0  0  0  0  0
  187.0550  178.4490  142.7150 C   0  0  0  0  0  3  0  0  0  0  0  0
  185.9000  176.5540  143.6740 C   0  0  0  0  0  3  0  0  0  0  0  0
  187.7140  176.1910  142.0940 C   0  0  0  0  0  0  0  0  0  0  0  0
  185.1900  178.8590  144.3110 C   0  0  0  0  0  0  0  0  0  0  0  0
  184.3880  178.3790  145.3390 O   0  0  0  0  0  1  0  0  0  0  0  0
  185.1660  180.0880  144.0340 O   0  0  0  0  0  0  0  0  0  0  0  0
  196.2810  173.7300  144.8560 C   0  0  0  0  0  2  0  0  0  0  0  0
  195.6740  172.4020  145.2990 C   0  0  0  0  0  2  0  0  0  0  0  0
  197.9410  171.7420  144.9790 F   0  0  0  0  0  0  0  0  0  0  0  0
  196.7080  171.2810  145.4090 C   0  0  0  0  0  0  0  0  0  0  0  0
  196.8240  170.8690  146.7260 F   0  0  0  0  0  0  0  0  0  0  0  0
  196.2730  170.1170  144.5500 C   0  0  0  0  0  0  0  0  0  0  0  0
  195.9270  169.0760  145.0930 O   0  0  0  0  0  0  0  0  0  0  0  0
  197.3240  169.2160  142.5170 C   0  0  0  0  0  1  0  0  0  0  0  0
  196.6410  171.4620  142.6160 F   0  0  0  0  0  0  0  0  0  0  0  0
  196.2810  170.1930  143.0360 C   0  0  2  0  0  0  0  0  0  0  0  0
  194.8820  169.8260  142.4860 C   0  0  2  0  0  3  0  0  0  0  0  0
  194.7390  169.6220  140.9690 C   0  0  1  0  0  3  0  0  0  0  0  0
  194.0510  168.4430  140.6670 O   0  0  0  0  0  1  0  0  0  0  0  0
  194.0560  170.7600  140.3760 N   0  0  0  0  0  2  0  0  0  0  0  0
  194.3560  170.7500  138.9530 C   0  0  0  0  0  1  0  0  0  0  0  0
  193.8260  170.6250  143.0300 O   0  0  0  0  0  0  0  0  0  0  0  0
  192.6590  170.1190  143.6130 C   0  0  0  0  0  0  0  0  0  0  0  0
  191.5560  170.6670  143.3570 O   0  0  0  0  0  0  0  0  0  0  0  0
  192.6930  169.0300  144.4750 O   0  0  0  0  0  1  0  0  0  0  0  0
  2 16  1  0  0  0  0
  3 19  1  0  0  0  0
  4 11  1  0  0  0  0
  5  4  1  0  0  0  0
  6 11  2  0  0  0  0
  6 17  1  0  0  0  0
  7  6  1  0  0  0  0
  9  5  1  0  0  0  0
  9  7  1  0  0  0  0
 10 20  1  0  0  0  0
 11 23  1  0  0  0  0
 12 14  1  6  0  0  0
 12 27  1  0  0  0  0
 13  1  1  0  0  0  0
 14 22  1  0  0  0  0
 15 24  1  0  0  0  0
 15 33  1  0  0  0  0
 16 21  2  0  0  0  0
 17 15  2  0  0  0  0
 18  2  1  0  0  0  0
 19  8  1  0  0  0  0
 19 18  1  0  0  0  0
 21 25  1  0  0  0  0
 22  1  1  6  0  0  0
 22 10  1  0  0  0  0
 23  8  1  0  0  0  0
 23 24  2  0  0  0  0
 24 13  1  0  0  0  0
 25 26  1  0  0  0  0
 26 12  1  0  0  0  0
 27 20  1  0  0  0  0
 28 32  1  0  0  0  0
 29 32  2  0  0  0  0
 29 34  1  0  0  0  0
 30 33  1  0  0  0  0
 30 31  2  0  0  0  0
 31 29  1  0  0  0  0
 33 28  2  0  0  0  0
 34 35  1  0  0  0  0
 36 34  2  0  0  0  0
 37 21  1  0  0  0  0
 37 38  1  0  0  0  0
 38 40  1  0  0  0  0
 39 40  1  0  0  0  0
 40 41  1  0  0  0  0
 42 43  2  0  0  0  0
 42 40  1  0  0  0  0
 45 46  1  0  0  0  0
 46 44  1  6  0  0  0
 46 42  1  0  0  0  0
 47 52  1  6  0  0  0
 47 46  1  0  0  0  0
 48 49  1  1  0  0  0
 48 47  1  0  0  0  0
 50 48  1  0  0  0  0
 51 50  1  0  0  0  0
 52 53  1  0  0  0  0
 53 55  1  0  0  0  0
 54 53  2  0  0  0  0
M  END
>  <MODEL>
2

>  <REMARK>
 VINA RESULT:      -7.3      1.226      1.946
  Name = 
  12 active torsions:
  status: ('A' for Active; 'I' for Inactive)
    1  A    between atoms: C_1  and  O_53
    2  A    between atoms: C_6  and  C_14
    3  A    between atoms: C_6  and  C_20
    4  A    between atoms: C_8  and  C_22
    5  A    between atoms: C_8  and  C_43
    6  A    between atoms: C_10  and  C_32
    7  A    between atoms: N_11  and  C_29
    8  A    between atoms: C_14  and  C_38
    9  A    between atoms: C_20  and  C_22
   10  A    between atoms: C_29  and  C_38
   11  A    between atoms: C_33  and  C_52
   12  A    between atoms: C_38  and  O_53
                            x       y       z     vdW  Elec       q    Type
                         _______ _______ _______ _____ _____    ______ ____

>  <TORSDO>
F 12

$$$$
=
 OpenBabel11052419243D

 55 59  0  0  1  0  0  0  0  0999 V2000
  193.3530  173.9330  141.5940 C   0  0  0  0  0  2  0  0  0  0  0  0
  188.3410  175.0330  142.2270 C   0  0  0  0  0  2  0  0  0  0  0  0
  188.4120  172.3430  140.6880 C   0  0  0  0  0  1  0  0  0  0  0  0
  190.1760  170.8670  138.2100 C   0  0  0  0  0  2  0  0  0  0  0  0
  189.7020  169.5260  137.6600 C   0  0  0  0  0  2  0  0  0  0  0  0
  191.8490  169.5230  139.5580 C   0  0  0  0  0  0  0  0  0  0  0  0
  191.5850  168.3000  138.7230 C   0  0  0  0  0  2  0  0  0  0  0  0
  190.5570  173.0810  140.0580 C   0  0  0  0  0  2  0  0  0  0  0  0
  190.9070  168.6360  137.3980 C   0  0  0  0  0  2  0  0  0  0  0  0
  194.5000  174.7040  143.7000 C   0  0  0  0  0  2  0  0  0  0  0  0
  191.1170  170.7160  139.3840 C   0  0  0  0  0  0  0  0  0  0  0  0
  192.4980  176.8480  144.0020 C   0  0  1  0  0  3  0  0  0  0  0  0
  192.5010  172.8420  142.2380 C   0  0  0  0  0  2  0  0  0  0  0  0
  192.2690  175.6710  143.0550 C   0  0  0  0  0  2  0  0  0  0  0  0
  193.0260  170.4910  141.4550 C   0  0  0  0  0  0  0  0  0  0  0  0
  189.2400  175.8920  142.9870 N   0  0  0  0  0  0  0  0  0  0  0  0
  192.7720  169.4200  140.5930 C   0  0  0  0  0  3  0  0  0  0  0  0
  189.0070  174.5830  140.9340 C   0  0  0  0  0  2  0  0  0  0  0  0
  189.5100  173.2240  141.0650 N   0  0  0  0  0  0  0  0  0  0  0  0
  194.7400  175.9010  144.6150 C   0  0  0  0  0  2  0  0  0  0  0  0
  189.4160  177.1620  142.7490 C   0  0  0  0  0  0  0  0  0  0  0  0
  193.5930  175.1070  142.5390 C   0  0  2  0  0  3  0  0  0  0  0  0
  191.3440  171.8070  140.2500 C   0  0  0  0  0  0  0  0  0  0  0  0
  192.2990  171.6970  141.2890 C   0  0  0  0  0  0  0  0  0  0  0  0
  190.3380  177.9190  143.5400 N   0  0  0  0  0  2  0  0  0  0  0  0
  191.1730  177.3270  144.5780 C   0  0  0  0  0  2  0  0  0  0  0  0
  193.4110  176.4270  145.1520 C   0  0  0  0  0  2  0  0  0  0  0  0
  195.3260  170.8360  142.3740 C   0  0  0  0  0  3  0  0  0  0  0  0
  195.9630  169.9900  144.5590 C   0  0  0  0  0  0  0  0  0  0  0  0
  193.7200  169.6200  143.7090 C   0  0  0  0  0  3  0  0  0  0  0  0
  194.6750  169.4650  144.7180 C   0  0  0  0  0  3  0  0  0  0  0  0
  196.2820  170.6810  143.3820 C   0  0  0  0  0  3  0  0  0  0  0  0
  194.0390  170.2960  142.5220 C   0  0  0  0  0  0  0  0  0  0  0  0
  196.9660  169.8210  145.6220 C   0  0  0  0  0  0  0  0  0  0  0  0
  197.9410  168.8360  145.5140 O   0  0  0  0  0  0  0  0  0  0  0  0
  196.9520  170.5650  146.6370 O   0  0  0  0  0  1  0  0  0  0  0  0
  188.6570  177.8720  141.6690 C   0  0  0  0  0  2  0  0  0  0  0  0
  187.5520  178.7530  142.2450 C   0  0  0  0  0  2  0  0  0  0  0  0
  185.2460  179.0580  141.7270 F   0  0  0  0  0  0  0  0  0  0  0  0
  186.1670  178.1120  142.1460 C   0  0  0  0  0  0  0  0  0  0  0  0
  186.1860  177.0760  141.2270 F   0  0  0  0  0  0  0  0  0  0  0  0
  185.7680  177.5790  143.5020 C   0  0  0  0  0  0  0  0  0  0  0  0
  185.6380  176.3710  143.6510 O   0  0  0  0  0  0  0  0  0  0  0  0
  183.9890  178.6350  144.8330 C   0  0  0  0  0  1  0  0  0  0  0  0
  186.0120  179.7620  144.4300 F   0  0  0  0  0  0  0  0  0  0  0  0
  185.4960  178.5000  144.6750 C   0  0  2  0  0  0  0  0  0  0  0  0
  186.1190  177.9090  145.9610 C   0  0  2  0  0  3  0  0  0  0  0  0
  185.5470  178.3680  147.3120 C   0  0  1  0  0  3  0  0  0  0  0  0
  185.8310  177.4550  148.3320 O   0  0  0  0  0  1  0  0  0  0  0  0
  186.0750  179.6780  147.6570 N   0  0  0  0  0  2  0  0  0  0  0  0
  186.9500  179.5020  148.8050 C   0  0  0  0  0  1  0  0  0  0  0  0
  187.5500  177.9000  145.9510 O   0  0  0  0  0  0  0  0  0  0  0  0
  188.3500  176.9270  146.5610 C   0  0  0  0  0  0  0  0  0  0  0  0
  189.3160  177.2870  147.2810 O   0  0  0  0  0  1  0  0  0  0  0  0
  188.1040  175.5710  146.3810 O   0  0  0  0  0  0  0  0  0  0  0  0
  1 13  1  0  0  0  0
  2 16  1  0  0  0  0
  3 19  1  0  0  0  0
  4 11  1  0  0  0  0
  5  4  1  0  0  0  0
  6 17  1  0  0  0  0
  7  6  1  0  0  0  0
  8 23  1  0  0  0  0
  8 19  1  0  0  0  0
  9  5  1  0  0  0  0
  9  7  1  0  0  0  0
 10 20  1  0  0  0  0
 11  6  2  0  0  0  0
 11 23  1  0  0  0  0
 12 14  1  6  0  0  0
 12 26  1  0  0  0  0
 12 27  1  0  0  0  0
 15 33  1  0  0  0  0
 17 15  2  0  0  0  0
 18 19  1  0  0  0  0
 18  2  1  0  0  0  0
 20 27  1  0  0  0  0
 21 16  2  0  0  0  0
 21 25  1  0  0  0  0
 22  1  1  6  0  0  0
 22 14  1  0  0  0  0
 22 10  1  0  0  0  0
 23 24  2  0  0  0  0
 24 15  1  0  0  0  0
 24 13  1  0  0  0  0
 25 26  1  0  0  0  0
 28 33  2  0  0  0  0
 28 32  1  0  0  0  0
 29 31  1  0  0  0  0
 29 34  1  0  0  0  0
 30 31  2  0  0  0  0
 32 29  2  0  0  0  0
 33 30  1  0  0  0  0
 34 36  1  0  0  0  0
 35 34  2  0  0  0  0
 37 38  1  0  0  0  0
 37 21  1  0  0  0  0
 39 40  1  0  0  0  0
 40 38  1  0  0  0  0
 40 42  1  0  0  0  0
 41 40  1  0  0  0  0
 42 43  2  0  0  0  0
 42 46  1  0  0  0  0
 45 46  1  0  0  0  0
 46 44  1  1  0  0  0
 46 47  1  0  0  0  0
 47 52  1  1  0  0  0
 47 48  1  0  0  0  0
 48 50  1  0  0  0  0
 48 49  1  1  0  0  0
 50 51  1  0  0  0  0
 52 53  1  0  0  0  0
 53 54  1  0  0  0  0
 55 53  2  0  0  0  0
M  END
>  <MODEL>
3

>  <REMARK>
 VINA RESULT:      -6.6      4.258      9.330
  Name = 
  12 active torsions:
  status: ('A' for Active; 'I' for Inactive)
    1  A    between atoms: C_1  and  O_53
    2  A    between atoms: C_6  and  C_14
    3  A    between atoms: C_6  and  C_20
    4  A    between atoms: C_8  and  C_22
    5  A    between atoms: C_8  and  C_43
    6  A    between atoms: C_10  and  C_32
    7  A    between atoms: N_11  and  C_29
    8  A    between atoms: C_14  and  C_38
    9  A    between atoms: C_20  and  C_22
   10  A    between atoms: C_29  and  C_38
   11  A    between atoms: C_33  and  C_52
   12  A    between atoms: C_38  and  O_53
                            x       y       z     vdW  Elec       q    Type
                         _______ _______ _______ _____ _____    ______ ____

>  <TORSDO>
F 12

$$$$
=
 OpenBabel11052419243D

 55 59  0  0  1  0  0  0  0  0999 V2000
  191.9890  174.0010  141.0080 C   0  0  0  0  0  2  0  0  0  0  0  0
  193.1170  169.0000  140.3400 C   0  0  0  0  0  2  0  0  0  0  0  0
  194.9180  169.9520  142.6770 C   0  0  0  0  0  1  0  0  0  0  0  0
  196.7520  172.6550  143.5470 C   0  0  0  0  0  2  0  0  0  0  0  0
  197.6430  172.5800  144.7820 C   0  0  0  0  0  2  0  0  0  0  0  0
  195.1040  173.8870  145.0260 C   0  0  0  0  0  0  0  0  0  0  0  0
  196.1580  174.0940  146.0780 C   0  0  0  0  0  2  0  0  0  0  0  0
  194.5740  172.0700  141.7090 C   0  0  0  0  0  2  0  0  0  0  0  0
  197.5700  173.9000  145.5350 C   0  0  0  0  0  2  0  0  0  0  0  0
  189.5150  174.2130  140.5910 C   0  0  0  0  0  2  0  0  0  0  0  0
  195.3510  173.1240  143.8650 C   0  0  0  0  0  0  0  0  0  0  0  0
  189.6520  171.9860  138.6630 C   0  0  1  0  0  3  0  0  0  0  0  0
  191.8910  173.1180  142.2490 C   0  0  0  0  0  2  0  0  0  0  0  0
  190.7880  172.2590  139.6480 C   0  0  0  0  0  2  0  0  0  0  0  0
  192.7780  174.1770  144.3730 C   0  0  0  0  0  0  0  0  0  0  0  0
  191.9510  169.4530  139.5920 N   0  0  0  0  0  0  0  0  0  0  0  0
  193.8290  174.3840  145.2720 C   0  0  0  0  0  3  0  0  0  0  0  0
  194.1200  170.1350  140.4950 C   0  0  0  0  0  2  0  0  0  0  0  0
  194.0240  170.7240  141.8230 N   0  0  0  0  0  0  0  0  0  0  0  0
  188.4000  173.9590  139.5800 C   0  0  0  0  0  2  0  0  0  0  0  0
  191.9030  169.5440  138.2930 C   0  0  0  0  0  0  0  0  0  0  0  0
  190.8520  173.7390  140.0250 C   0  0  2  0  0  3  0  0  0  0  0  0
  194.3040  172.8880  142.9490 C   0  0  0  0  0  0  0  0  0  0  0  0
  193.0130  173.4130  143.2010 C   0  0  0  0  0  0  0  0  0  0  0  0
  190.7160  170.0190  137.6490 N   0  0  0  0  0  2  0  0  0  0  0  0
  189.5470  170.4930  138.3800 C   0  0  0  0  0  2  0  0  0  0  0  0
  188.3250  172.4710  139.2440 C   0  0  0  0  0  2  0  0  0  0  0  0
  190.6040  174.0900  145.6050 C   0  0  0  0  0  3  0  0  0  0  0  0
  188.9610  175.8670  145.4120 C   0  0  0  0  0  0  0  0  0  0  0  0
  191.0510  175.9950  144.1870 C   0  0  0  0  0  3  0  0  0  0  0  0
  189.8140  176.5440  144.5320 C   0  0  0  0  0  3  0  0  0  0  0  0
  189.3650  174.6380  145.9500 C   0  0  0  0  0  3  0  0  0  0  0  0
  191.4540  174.7570  144.7100 C   0  0  0  0  0  0  0  0  0  0  0  0
  187.6570  176.4460  145.7690 C   0  0  0  0  0  0  0  0  0  0  0  0
  186.7140  176.7110  144.7820 O   0  0  0  0  0  0  0  0  0  0  0  0
  187.3810  176.7080  146.9700 O   0  0  0  0  0  1  0  0  0  0  0  0
  193.0630  169.1400  137.4330 C   0  0  0  0  0  2  0  0  0  0  0  0
  193.1970  170.0420  136.2100 C   0  0  0  0  0  2  0  0  0  0  0  0
  195.1680  170.7050  137.3750 F   0  0  0  0  0  0  0  0  0  0  0  0
  194.5530  170.7460  136.1340 C   0  0  0  0  0  0  0  0  0  0  0  0
  195.3690  170.1090  135.2150 F   0  0  0  0  0  0  0  0  0  0  0  0
  194.3440  172.1820  135.7170 C   0  0  0  0  0  0  0  0  0  0  0  0
  194.4240  172.4730  134.5310 O   0  0  0  0  0  0  0  0  0  0  0  0
  195.4010  173.8090  137.2290 C   0  0  0  0  0  1  0  0  0  0  0  0
  193.3760  172.7690  137.8150 F   0  0  0  0  0  0  0  0  0  0  0  0
  194.0670  173.2770  136.7280 C   0  0  2  0  0  0  0  0  0  0  0  0
  193.2540  174.4120  136.0620 C   0  0  2  0  0  3  0  0  0  0  0  0
  193.9670  175.7500  135.8050 C   0  0  1  0  0  3  0  0  0  0  0  0
  194.4990  175.8130  134.5130 O   0  0  0  0  0  1  0  0  0  0  0  0
  193.0460  176.8540  136.0170 N   0  0  0  0  0  2  0  0  0  0  0  0
  193.4860  177.9520  135.1710 C   0  0  0  0  0  1  0  0  0  0  0  0
  191.9510  174.5890  136.6280 O   0  0  0  0  0  0  0  0  0  0  0  0
  190.7700  174.0540  136.1010 C   0  0  0  0  0  0  0  0  0  0  0  0
  189.6890  174.6770  136.2570 O   0  0  0  0  0  1  0  0  0  0  0  0
  190.7650  172.8440  135.4180 O   0  0  0  0  0  0  0  0  0  0  0  0
  1 13  1  0  0  0  0
  2 18  1  0  0  0  0
  4 11  1  0  0  0  0
  4  5  1  0  0  0  0
  5  9  1  0  0  0  0
  6 17  1  0  0  0  0
  6  7  1  0  0  0  0
  8 19  1  0  0  0  0
  8 23  1  0  0  0  0
  9  7  1  0  0  0  0
 11  6  2  0  0  0  0
 12 26  1  1  0  0  0
 12 27  1  0  0  0  0
 12 14  1  0  0  0  0
 13 24  1  0  0  0  0
 15 33  1  0  0  0  0
 15 17  2  0  0  0  0
 16  2  1  0  0  0  0
 18 19  1  0  0  0  0
 19  3  1  0  0  0  0
 20 10  1  0  0  0  0
 21 16  2  0  0  0  0
 22 14  1  1  0  0  0
 22 10  1  0  0  0  0
 22  1  1  0  0  0  0
 23 24  2  0  0  0  0
 23 11  1  0  0  0  0
 24 15  1  0  0  0  0
 25 21  1  0  0  0  0
 25 26  1  0  0  0  0
 27 20  1  0  0  0  0
 28 32  1  0  0  0  0
 29 34  1  0  0  0  0
 29 32  2  0  0  0  0
 30 31  2  0  0  0  0
 30 33  1  0  0  0  0
 31 29  1  0  0  0  0
 33 28  2  0  0  0  0
 34 36  1  0  0  0  0
 35 34  2  0  0  0  0
 37 21  1  0  0  0  0
 38 37  1  0  0  0  0
 40 38  1  0  0  0  0
 40 39  1  0  0  0  0
 41 40  1  0  0  0  0
 42 40  1  0  0  0  0
 42 46  1  0  0  0  0
 43 42  2  0  0  0  0
 46 44  1  1  0  0  0
 46 45  1  0  0  0  0
 47 52  1  1  0  0  0
 47 46  1  0  0  0  0
 48 49  1  6  0  0  0
 48 50  1  0  0  0  0
 48 47  1  0  0  0  0
 51 50  1  0  0  0  0
 53 54  1  0  0  0  0
 53 52  1  0  0  0  0
 55 53  2  0  0  0  0
M  END
>  <MODEL>
4

>  <REMARK>
 VINA RESULT:      -5.6      3.742      7.847
  Name = 
  12 active torsions:
  status: ('A' for Active; 'I' for Inactive)
    1  A    between atoms: C_1  and  O_53
    2  A    between atoms: C_6  and  C_14
    3  A    between atoms: C_6  and  C_20
    4  A    between atoms: C_8  and  C_22
    5  A    between atoms: C_8  and  C_43
    6  A    between atoms: C_10  and  C_32
    7  A    between atoms: N_11  and  C_29
    8  A    between atoms: C_14  and  C_38
    9  A    between atoms: C_20  and  C_22
   10  A    between atoms: C_29  and  C_38
   11  A    between atoms: C_33  and  C_52
   12  A    between atoms: C_38  and  O_53
                            x       y       z     vdW  Elec       q    Type
                         _______ _______ _______ _____ _____    ______ ____

>  <TORSDO>
F 12

$$$$
=
 OpenBabel11052419243D

 55 59  0  0  1  0  0  0  0  0999 V2000
  191.0100  174.4670  140.5690 C   0  0  0  0  0  2  0  0  0  0  0  0
  192.1550  169.7580  142.3730 C   0  0  0  0  0  2  0  0  0  0  0  0
  192.9040  171.7240  144.6500 C   0  0  0  0  0  1  0  0  0  0  0  0
  194.3230  174.7690  145.0280 C   0  0  0  0  0  2  0  0  0  0  0  0
  194.6440  175.2680  146.4330 C   0  0  0  0  0  2  0  0  0  0  0  0
  192.2610  176.2360  145.1690 C   0  0  0  0  0  0  0  0  0  0  0  0
  192.8130  176.9480  146.3730 C   0  0  0  0  0  2  0  0  0  0  0  0
  193.0410  173.2760  142.8860 C   0  0  0  0  0  2  0  0  0  0  0  0
  194.3180  176.7500  146.5260 C   0  0  0  0  0  2  0  0  0  0  0  0
  188.9150  174.1910  139.1990 C   0  0  0  0  0  2  0  0  0  0  0  0
  192.9260  175.1380  144.5830 C   0  0  0  0  0  0  0  0  0  0  0  0
  189.7410  171.4490  138.4940 C   0  0  1  0  0  3  0  0  0  0  0  0
  190.3980  174.0960  141.9170 C   0  0  0  0  0  2  0  0  0  0  0  0
  190.3980  172.2080  139.6460 C   0  0  0  0  0  2  0  0  0  0  0  0
  190.3980  175.9640  143.6280 C   0  0  0  0  0  0  0  0  0  0  0  0
  191.3990  169.7520  141.1270 N   0  0  0  0  0  0  0  0  0  0  0  0
  191.0090  176.6190  144.7010 C   0  0  0  0  0  3  0  0  0  0  0  0
  193.0480  170.9900  142.4430 C   0  0  0  0  0  2  0  0  0  0  0  0
  192.4490  172.0070  143.2950 N   0  0  0  0  0  0  0  0  0  0  0  0
  188.2890  173.4420  138.0260 C   0  0  0  0  0  2  0  0  0  0  0  0
  191.8760  169.3520  139.9810 C   0  0  0  0  0  0  0  0  0  0  0  0
  190.3520  173.7180  139.4140 C   0  0  2  0  0  3  0  0  0  0  0  0
  192.3240  174.4500  143.5080 C   0  0  0  0  0  0  0  0  0  0  0  0
  191.0570  174.8610  143.0280 C   0  0  0  0  0  0  0  0  0  0  0  0
  191.0590  169.4010  138.8070 N   0  0  0  0  0  2  0  0  0  0  0  0
  189.7110  169.9570  138.7950 C   0  0  0  0  0  2  0  0  0  0  0  0
  188.3080  171.9390  138.2920 C   0  0  0  0  0  2  0  0  0  0  0  0
  187.9010  175.8310  143.6560 C   0  0  0  0  0  3  0  0  0  0  0  0
  186.5300  177.3970  142.4060 C   0  0  0  0  0  0  0  0  0  0  0  0
  188.9500  177.5640  142.3370 C   0  0  0  0  0  3  0  0  0  0  0  0
  187.6920  178.0300  141.9480 C   0  0  0  0  0  3  0  0  0  0  0  0
  186.6420  176.2970  143.2670 C   0  0  0  0  0  3  0  0  0  0  0  0
  189.0680  176.4520  143.1850 C   0  0  0  0  0  0  0  0  0  0  0  0
  185.2070  177.8900  141.9900 C   0  0  0  0  0  0  0  0  0  0  0  0
  184.2840  178.3090  142.9410 O   0  0  0  0  0  1  0  0  0  0  0  0
  184.8990  177.9370  140.7700 O   0  0  0  0  0  0  0  0  0  0  0  0
  193.2690  168.8140  139.8550 C   0  0  0  0  0  2  0  0  0  0  0  0
  194.0470  169.5210  138.7480 C   0  0  0  0  0  2  0  0  0  0  0  0
  195.6630  169.6090  140.4970 F   0  0  0  0  0  0  0  0  0  0  0  0
  195.3820  170.0910  139.2290 C   0  0  0  0  0  0  0  0  0  0  0  0
  196.4000  169.7040  138.3730 F   0  0  0  0  0  0  0  0  0  0  0  0
  195.2950  171.5980  139.2640 C   0  0  0  0  0  0  0  0  0  0  0  0
  194.1930  172.1280  139.3000 O   0  0  0  0  0  0  0  0  0  0  0  0
  196.6730  173.0410  137.8250 C   0  0  0  0  0  1  0  0  0  0  0  0
  197.6650  171.7210  139.4970 F   0  0  0  0  0  0  0  0  0  0  0  0
  196.5330  172.4720  139.2280 C   0  0  2  0  0  0  0  0  0  0  0  0
  196.3970  173.6170  140.2590 C   0  0  2  0  0  3  0  0  0  0  0  0
  196.1380  175.0360  139.7250 C   0  0  1  0  0  3  0  0  0  0  0  0
  194.7720  175.2830  139.5550 O   0  0  0  0  0  1  0  0  0  0  0  0
  196.7110  176.0200  140.6290 N   0  0  0  0  0  2  0  0  0  0  0  0
  195.6290  176.5270  141.4580 C   0  0  0  0  0  1  0  0  0  0  0  0
  197.4030  173.5930  141.2760 O   0  0  0  0  0  0  0  0  0  0  0  0
  197.2540  173.0020  142.5360 C   0  0  0  0  0  0  0  0  0  0  0  0
  197.1640  171.7500  142.6220 O   0  0  0  0  0  0  0  0  0  0  0  0
  197.1950  173.7680  143.6940 O   0  0  0  0  0  1  0  0  0  0  0  0
  1 13  1  0  0  0  0
  2 18  1  0  0  0  0
  4  5  1  0  0  0  0
  5  9  1  0  0  0  0
  6  7  1  0  0  0  0
  7  9  1  0  0  0  0
  8 19  1  0  0  0  0
  8 23  1  0  0  0  0
 11  4  1  0  0  0  0
 11  6  2  0  0  0  0
 12 27  1  1  0  0  0
 12 26  1  0  0  0  0
 12 14  1  0  0  0  0
 13 24  1  0  0  0  0
 15 17  2  0  0  0  0
 16  2  1  0  0  0  0
 17  6  1  0  0  0  0
 18 19  1  0  0  0  0
 19  3  1  0  0  0  0
 20 27  1  0  0  0  0
 20 10  1  0  0  0  0
 21 16  2  0  0  0  0
 22 10  1  1  0  0  0
 22 14  1  0  0  0  0
 22  1  1  0  0  0  0
 23 11  1  0  0  0  0
 24 23  2  0  0  0  0
 24 15  1  0  0  0  0
 25 21  1  0  0  0  0
 26 25  1  0  0  0  0
 29 32  2  0  0  0  0
 30 33  1  0  0  0  0
 31 30  2  0  0  0  0
 31 29  1  0  0  0  0
 32 28  1  0  0  0  0
 33 15  1  0  0  0  0
 33 28  2  0  0  0  0
 34 29  1  0  0  0  0
 34 35  1  0  0  0  0
 36 34  2  0  0  0  0
 37 21  1  0  0  0  0
 38 40  1  0  0  0  0
 38 37  1  0  0  0  0
 40 42  1  0  0  0  0
 40 39  1  0  0  0  0
 41 40  1  0  0  0  0
 42 43  2  0  0  0  0
 46 44  1  6  0  0  0
 46 42  1  0  0  0  0
 46 45  1  0  0  0  0
 46 47  1  0  0  0  0
 47 52  1  6  0  0  0
 48 49  1  1  0  0  0
 48 47  1  0  0  0  0
 48 50  1  0  0  0  0
 50 51  1  0  0  0  0
 52 53  1  0  0  0  0
 53 54  2  0  0  0  0
 53 55  1  0  0  0  0
M  END
>  <MODEL>
5

>  <REMARK>
 VINA RESULT:      -5.4      2.422      6.495
  Name = 
  12 active torsions:
  status: ('A' for Active; 'I' for Inactive)
    1  A    between atoms: C_1  and  O_53
    2  A    between atoms: C_6  and  C_14
    3  A    between atoms: C_6  and  C_20
    4  A    between atoms: C_8  and  C_22
    5  A    between atoms: C_8  and  C_43
    6  A    between atoms: C_10  and  C_32
    7  A    between atoms: N_11  and  C_29
    8  A    between atoms: C_14  and  C_38
    9  A    between atoms: C_20  and  C_22
   10  A    between atoms: C_29  and  C_38
   11  A    between atoms: C_33  and  C_52
   12  A    between atoms: C_38  and  O_53
                            x       y       z     vdW  Elec       q    Type
                         _______ _______ _______ _____ _____    ______ ____

>  <TORSDO>
F 12

$$$$
=
 OpenBabel11052419243D

 55 59  0  0  1  0  0  0  0  0999 V2000
  192.2200  171.4060  141.2750 C   0  0  0  0  0  2  0  0  0  0  0  0
  190.4390  176.1330  142.3770 C   0  0  0  0  0  2  0  0  0  0  0  0
  193.1680  175.9150  143.8310 C   0  0  0  0  0  1  0  0  0  0  0  0
  194.9540  173.6360  145.5750 C   0  0  0  0  0  2  0  0  0  0  0  0
  196.2390  174.0750  146.2700 C   0  0  0  0  0  2  0  0  0  0  0  0
  196.4600  172.7210  143.7540 C   0  0  0  0  0  0  0  0  0  0  0  0
  197.6660  172.8520  144.6430 C   0  0  0  0  0  2  0  0  0  0  0  0
  192.7460  173.6040  143.6830 C   0  0  0  0  0  2  0  0  0  0  0  0
  197.2910  172.9870  146.1160 C   0  0  0  0  0  2  0  0  0  0  0  0
  191.5340  170.9470  138.8950 C   0  0  0  0  0  2  0  0  0  0  0  0
  195.1870  173.1790  144.1530 C   0  0  0  0  0  0  0  0  0  0  0  0
  189.1330  172.6170  139.2680 C   0  0  1  0  0  3  0  0  0  0  0  0
  193.1640  172.5670  140.9730 C   0  0  0  0  0  2  0  0  0  0  0  0
  190.3020  172.6710  140.2510 C   0  0  0  0  0  2  0  0  0  0  0  0
  195.5900  172.1370  141.5580 C   0  0  0  0  0  0  0  0  0  0  0  0
  189.6810  175.4360  141.3460 N   0  0  0  0  0  0  0  0  0  0  0  0
  196.6490  172.2280  142.4670 C   0  0  0  0  0  3  0  0  0  0  0  0
  191.0200  175.1360  143.3700 C   0  0  0  0  0  2  0  0  0  0  0  0
  192.4290  174.8990  143.0920 N   0  0  0  0  0  0  0  0  0  0  0  0
  190.3480  170.8690  137.9390 C   0  0  0  0  0  2  0  0  0  0  0  0
  188.4550  175.0160  141.4940 C   0  0  0  0  0  0  0  0  0  0  0  0
  191.0550  171.3420  140.2910 C   0  0  2  0  0  3  0  0  0  0  0  0
  194.1060  173.1120  143.2490 C   0  0  0  0  0  0  0  0  0  0  0  0
  194.3050  172.5910  141.9470 C   0  0  0  0  0  0  0  0  0  0  0  0
  187.8000  174.3230  140.4270 N   0  0  0  0  0  2  0  0  0  0  0  0
  188.4610  173.9800  139.1730 C   0  0  0  0  0  2  0  0  0  0  0  0
  189.6310  172.2160  137.8810 C   0  0  0  0  0  2  0  0  0  0  0  0
  196.3840  172.4180  139.2030 C   0  0  0  0  0  3  0  0  0  0  0  0
  196.4950  170.5430  137.6660 C   0  0  0  0  0  0  0  0  0  0  0  0
  195.7080  170.2170  139.9380 C   0  0  0  0  0  3  0  0  0  0  0  0
  196.0090  169.7020  138.6740 C   0  0  0  0  0  3  0  0  0  0  0  0
  196.6850  171.9040  137.9390 C   0  0  0  0  0  3  0  0  0  0  0  0
  195.8800  171.5830  140.2120 C   0  0  0  0  0  0  0  0  0  0  0  0
  196.8060  169.9960  136.3360 C   0  0  0  0  0  0  0  0  0  0  0  0
  196.8450  168.6210  136.1340 O   0  0  0  0  0  1  0  0  0  0  0  0
  197.0400  170.7670  135.3670 O   0  0  0  0  0  0  0  0  0  0  0  0
  187.6900  175.2580  142.7590 C   0  0  0  0  0  2  0  0  0  0  0  0
  186.3170  175.8630  142.4790 C   0  0  0  0  0  2  0  0  0  0  0  0
  187.5950  177.8720  142.5680 F   0  0  0  0  0  0  0  0  0  0  0  0
  186.3790  177.3560  142.1520 C   0  0  0  0  0  0  0  0  0  0  0  0
  186.2600  177.5500  140.7860 F   0  0  0  0  0  0  0  0  0  0  0  0
  185.2540  178.0670  142.8650 C   0  0  0  0  0  0  0  0  0  0  0  0
  184.1280  178.0290  142.3850 O   0  0  0  0  0  0  0  0  0  0  0  0
  184.1380  179.3550  144.6400 C   0  0  0  0  0  1  0  0  0  0  0  0
  186.2860  179.9530  143.8960 F   0  0  0  0  0  0  0  0  0  0  0  0
  185.4840  178.8510  144.1420 C   0  0  2  0  0  0  0  0  0  0  0  0
  186.1420  177.9400  145.2050 C   0  0  2  0  0  3  0  0  0  0  0  0
  185.4000  177.7400  146.5370 C   0  0  1  0  0  3  0  0  0  0  0  0
  184.9560  176.4230  146.6890 O   0  0  0  0  0  1  0  0  0  0  0  0
  186.2640  178.1040  147.6470 N   0  0  0  0  0  2  0  0  0  0  0  0
  185.9410  179.4730  148.0160 C   0  0  0  0  0  1  0  0  0  0  0  0
  187.5380  178.1960  145.3920 O   0  0  0  0  0  0  0  0  0  0  0  0
  188.4990  177.2200  145.6800 C   0  0  0  0  0  0  0  0  0  0  0  0
  188.1420  176.0190  145.7920 O   0  0  0  0  0  0  0  0  0  0  0  0
  189.8370  177.5500  145.8530 O   0  0  0  0  0  1  0  0  0  0  0  0
  2 18  1  0  0  0  0
  4  5  1  0  0  0  0
  6 11  1  0  0  0  0
  6  7  1  0  0  0  0
  7  9  1  0  0  0  0
  9  5  1  0  0  0  0
 11  4  1  0  0  0  0
 12 27  1  6  0  0  0
 12 14  1  0  0  0  0
 13  1  1  0  0  0  0
 13 24  1  0  0  0  0
 14 22  1  0  0  0  0
 15 24  2  0  0  0  0
 15 17  1  0  0  0  0
 16 21  2  0  0  0  0
 16  2  1  0  0  0  0
 17  6  2  0  0  0  0
 19 18  1  0  0  0  0
 19  8  1  0  0  0  0
 19  3  1  0  0  0  0
 20 10  1  0  0  0  0
 21 37  1  0  0  0  0
 22 10  1  6  0  0  0
 22  1  1  0  0  0  0
 23  8  1  0  0  0  0
 23 11  2  0  0  0  0
 24 23  1  0  0  0  0
 25 21  1  0  0  0  0
 26 12  1  0  0  0  0
 26 25  1  0  0  0  0
 27 20  1  0  0  0  0
 28 33  1  0  0  0  0
 29 32  1  0  0  0  0
 29 31  2  0  0  0  0
 30 33  2  0  0  0  0
 31 30  1  0  0  0  0
 32 28  2  0  0  0  0
 33 15  1  0  0  0  0
 34 29  1  0  0  0  0
 35 34  1  0  0  0  0
 36 34  2  0  0  0  0
 38 37  1  0  0  0  0
 40 38  1  0  0  0  0
 40 39  1  0  0  0  0
 40 42  1  0  0  0  0
 41 40  1  0  0  0  0
 42 46  1  0  0  0  0
 43 42  2  0  0  0  0
 45 46  1  0  0  0  0
 46 44  1  1  0  0  0
 46 47  1  0  0  0  0
 47 52  1  1  0  0  0
 47 48  1  0  0  0  0
 48 49  1  1  0  0  0
 48 50  1  0  0  0  0
 50 51  1  0  0  0  0
 52 53  1  0  0  0  0
 53 54  2  0  0  0  0
 53 55  1  0  0  0  0
M  END
>  <MODEL>
6

>  <REMARK>
 VINA RESULT:      -5.3      4.110     10.432
  Name = 
  12 active torsions:
  status: ('A' for Active; 'I' for Inactive)
    1  A    between atoms: C_1  and  O_53
    2  A    between atoms: C_6  and  C_14
    3  A    between atoms: C_6  and  C_20
    4  A    between atoms: C_8  and  C_22
    5  A    between atoms: C_8  and  C_43
    6  A    between atoms: C_10  and  C_32
    7  A    between atoms: N_11  and  C_29
    8  A    between atoms: C_14  and  C_38
    9  A    between atoms: C_20  and  C_22
   10  A    between atoms: C_29  and  C_38
   11  A    between atoms: C_33  and  C_52
   12  A    between atoms: C_38  and  O_53
                            x       y       z     vdW  Elec       q    Type
                         _______ _______ _______ _____ _____    ______ ____

>  <TORSDO>
F 12

$$$$
=
 OpenBabel11052419243D

 55 59  0  0  1  0  0  0  0  0999 V2000
  191.9530  170.1580  141.7820 C   0  0  0  0  0  2  0  0  0  0  0  0
  192.2180  174.6570  144.3150 C   0  0  0  0  0  2  0  0  0  0  0  0
  194.7290  173.0640  145.1890 C   0  0  0  0  0  1  0  0  0  0  0  0
  195.5910  169.8930  145.9830 C   0  0  0  0  0  2  0  0  0  0  0  0
  196.9840  169.6210  146.5390 C   0  0  0  0  0  2  0  0  0  0  0  0
  196.5110  169.0850  143.7640 C   0  0  0  0  0  0  0  0  0  0  0  0
  197.7240  168.5100  144.4430 C   0  0  0  0  0  2  0  0  0  0  0  0
  193.4340  171.2090  144.5400 C   0  0  0  0  0  2  0  0  0  0  0  0
  197.5190  168.3280  145.9430 C   0  0  0  0  0  2  0  0  0  0  0  0
  191.0020  170.6970  139.5140 C   0  0  0  0  0  2  0  0  0  0  0  0
  195.5420  169.8260  144.4730 C   0  0  0  0  0  0  0  0  0  0  0  0
  189.4640  172.9220  140.6900 C   0  0  1  0  0  3  0  0  0  0  0  0
  193.2530  170.9410  141.6270 C   0  0  0  0  0  2  0  0  0  0  0  0
  190.6190  172.2640  141.4440 C   0  0  0  0  0  2  0  0  0  0  0  0
  195.3530  169.5240  141.6700 C   0  0  0  0  0  0  0  0  0  0  0  0
  191.1880  174.6130  143.2840 N   0  0  0  0  0  0  0  0  0  0  0  0
  196.4160  168.9610  142.3820 C   0  0  0  0  0  3  0  0  0  0  0  0
  192.4240  173.2740  144.9160 C   0  0  0  0  0  2  0  0  0  0  0  0
  193.6110  172.6450  144.3540 N   0  0  0  0  0  0  0  0  0  0  0  0
  189.8240  171.3330  138.7810 C   0  0  0  0  0  2  0  0  0  0  0  0
  189.9070  174.6330  143.5260 C   0  0  0  0  0  0  0  0  0  0  0  0
  190.7980  170.8050  141.0240 C   0  0  2  0  0  3  0  0  0  0  0  0
  194.4670  170.4170  143.7760 C   0  0  0  0  0  0  0  0  0  0  0  0
  194.3710  170.2690  142.3710 C   0  0  0  0  0  0  0  0  0  0  0  0
  188.9710  174.5660  142.4460 N   0  0  0  0  0  2  0  0  0  0  0  0
  189.3700  174.3970  141.0530 C   0  0  0  0  0  2  0  0  0  0  0  0
  189.6830  172.7990  139.1840 C   0  0  0  0  0  2  0  0  0  0  0  0
  196.1750  170.0790  139.3740 C   0  0  0  0  0  3  0  0  0  0  0  0
  195.3300  168.9300  137.4090 C   0  0  0  0  0  0  0  0  0  0  0  0
  194.4910  168.3610  139.6140 C   0  0  0  0  0  3  0  0  0  0  0  0
  194.4910  168.1670  138.2300 C   0  0  0  0  0  3  0  0  0  0  0  0
  196.1750  169.8850  137.9900 C   0  0  0  0  0  3  0  0  0  0  0  0
  195.3240  169.3270  140.1990 C   0  0  0  0  0  0  0  0  0  0  0  0
  195.3230  168.7250  135.9520 C   0  0  0  0  0  0  0  0  0  0  0  0
  194.1460  168.8760  135.2290 O   0  0  0  0  0  0  0  0  0  0  0  0
  196.3820  168.4110  135.3470 O   0  0  0  0  0  1  0  0  0  0  0  0
  189.3720  174.7460  144.9220 C   0  0  0  0  0  2  0  0  0  0  0  0
  189.5400  176.1580  145.4760 C   0  0  0  0  0  2  0  0  0  0  0  0
  188.3660  175.1390  147.2810 F   0  0  0  0  0  0  0  0  0  0  0  0
  188.9990  176.3100  146.8980 C   0  0  0  0  0  0  0  0  0  0  0  0
  190.0380  176.5590  147.7780 F   0  0  0  0  0  0  0  0  0  0  0  0
  188.0160  177.4560  146.9350 C   0  0  0  0  0  0  0  0  0  0  0  0
  188.3400  178.4970  147.4920 O   0  0  0  0  0  0  0  0  0  0  0  0
  185.6360  177.9540  147.3030 C   0  0  0  0  0  1  0  0  0  0  0  0
  186.2890  176.0130  146.1490 F   0  0  0  0  0  0  0  0  0  0  0  0
  186.6310  177.3430  146.3300 C   0  0  2  0  0  0  0  0  0  0  0  0
  186.5870  178.0940  144.9780 C   0  0  2  0  0  3  0  0  0  0  0  0
  185.3360  178.9290  144.6610 C   0  0  1  0  0  3  0  0  0  0  0  0
  185.6660  180.1440  144.0520 O   0  0  0  0  0  1  0  0  0  0  0  0
  184.4360  178.1730  143.8060 N   0  0  0  0  0  2  0  0  0  0  0  0
  183.3720  179.0760  143.3940 C   0  0  0  0  0  1  0  0  0  0  0  0
  187.0030  177.2930  143.8660 O   0  0  0  0  0  0  0  0  0  0  0  0
  187.8350  177.7330  142.8300 C   0  0  0  0  0  0  0  0  0  0  0  0
  188.9030  178.3340  143.1110 O   0  0  0  0  0  1  0  0  0  0  0  0
  187.5000  177.5280  141.4970 O   0  0  0  0  0  0  0  0  0  0  0  0
  2 18  1  0  0  0  0
  4  5  1  0  0  0  0
  6  7  1  0  0  0  0
  6 11  1  0  0  0  0
  7  9  1  0  0  0  0
  9  5  1  0  0  0  0
 11  4  1  0  0  0  0
 12 27  1  6  0  0  0
 12 26  1  0  0  0  0
 12 14  1  0  0  0  0
 13  1  1  0  0  0  0
 13 24  1  0  0  0  0
 15 24  2  0  0  0  0
 15 17  1  0  0  0  0
 16 21  2  0  0  0  0
 16  2  1  0  0  0  0
 17  6  2  0  0  0  0
 19  8  1  0  0  0  0
 19 18  1  0  0  0  0
 19  3  1  0  0  0  0
 20 27  1  0  0  0  0
 20 10  1  0  0  0  0
 21 37  1  0  0  0  0
 22 10  1  6  0  0  0
 22 14  1  0  0  0  0
 22  1  1  0  0  0  0
 23 11  2  0  0  0  0
 23  8  1  0  0  0  0
 24 23  1  0  0  0  0
 25 21  1  0  0  0  0
 26 25  1  0  0  0  0
 28 33  1  0  0  0  0
 29 32  1  0  0  0  0
 29 31  2  0  0  0  0
 30 33  2  0  0  0  0
 31 30  1  0  0  0  0
 32 28  2  0  0  0  0
 33 15  1  0  0  0  0
 34 29  1  0  0  0  0
 35 34  2  0  0  0  0
 36 34  1  0  0  0  0
 37 38  1  0  0  0  0
 38 40  1  0  0  0  0
 40 42  1  0  0  0  0
 40 39  1  0  0  0  0
 40 41  1  0  0  0  0
 42 43  2  0  0  0  0
 45 46  1  0  0  0  0
 46 42  1  0  0  0  0
 46 44  1  1  0  0  0
 47 52  1  6  0  0  0
 47 46  1  0  0  0  0
 48 49  1  6  0  0  0
 48 47  1  0  0  0  0
 50 48  1  0  0  0  0
 51 50  1  0  0  0  0
 53 54  1  0  0  0  0
 53 52  1  0  0  0  0
 55 53  2  0  0  0  0
M  END
>  <MODEL>
7

>  <REMARK>
 VINA RESULT:      -5.3      3.786      9.972
  Name = 
  12 active torsions:
  status: ('A' for Active; 'I' for Inactive)
    1  A    between atoms: C_1  and  O_53
    2  A    between atoms: C_6  and  C_14
    3  A    between atoms: C_6  and  C_20
    4  A    between atoms: C_8  and  C_22
    5  A    between atoms: C_8  and  C_43
    6  A    between atoms: C_10  and  C_32
    7  A    between atoms: N_11  and  C_29
    8  A    between atoms: C_14  and  C_38
    9  A    between atoms: C_20  and  C_22
   10  A    between atoms: C_29  and  C_38
   11  A    between atoms: C_33  and  C_52
   12  A    between atoms: C_38  and  O_53
                            x       y       z     vdW  Elec       q    Type
                         _______ _______ _______ _____ _____    ______ ____

>  <TORSDO>
F 12

$$$$
=
 OpenBabel11052419243D

 55 59  0  0  1  0  0  0  0  0999 V2000
  191.0870  171.5110  142.1430 C   0  0  0  0  0  2  0  0  0  0  0  0
  191.8180  176.1440  144.3180 C   0  0  0  0  0  2  0  0  0  0  0  0
  194.3970  174.5310  144.9140 C   0  0  0  0  0  1  0  0  0  0  0  0
  195.3000  171.3890  145.7730 C   0  0  0  0  0  2  0  0  0  0  0  0
  196.7540  171.1090  146.1360 C   0  0  0  0  0  2  0  0  0  0  0  0
  195.8650  170.4220  143.5000 C   0  0  0  0  0  0  0  0  0  0  0  0
  197.1520  169.8520  144.0290 C   0  0  0  0  0  2  0  0  0  0  0  0
  192.9820  172.6800  144.5820 C   0  0  0  0  0  2  0  0  0  0  0  0
  197.1680  169.7670  145.5520 C   0  0  0  0  0  2  0  0  0  0  0  0
  189.8220  171.9420  140.0080 C   0  0  0  0  0  2  0  0  0  0  0  0
  195.0270  171.2330  144.2940 C   0  0  0  0  0  0  0  0  0  0  0  0
  188.5220  174.2790  141.2530 C   0  0  1  0  0  3  0  0  0  0  0  0
  192.3660  172.2440  141.7490 C   0  0  0  0  0  2  0  0  0  0  0  0
  189.7620  173.6320  141.8710 C   0  0  0  0  0  2  0  0  0  0  0  0
  194.4190  170.7700  141.5740 C   0  0  0  0  0  0  0  0  0  0  0  0
  190.6460  176.0690  143.4550 N   0  0  0  0  0  0  0  0  0  0  0  0
  195.5630  170.2180  142.1580 C   0  0  0  0  0  3  0  0  0  0  0  0
  192.0820  174.7930  144.9690 C   0  0  0  0  0  2  0  0  0  0  0  0
  193.1590  174.0970  144.2810 N   0  0  0  0  0  0  0  0  0  0  0  0
  188.5620  172.5680  139.4170 C   0  0  0  0  0  2  0  0  0  0  0  0
  189.4150  176.1420  143.8800 C   0  0  0  0  0  0  0  0  0  0  0  0
  189.8460  172.1470  141.5220 C   0  0  2  0  0  3  0  0  0  0  0  0
  193.8740  171.8140  143.7260 C   0  0  0  0  0  0  0  0  0  0  0  0
  193.5670  171.5850  142.3620 C   0  0  0  0  0  0  0  0  0  0  0  0
  188.3280  176.0390  142.9540 N   0  0  0  0  0  2  0  0  0  0  0  0
  188.5140  175.7750  141.5320 C   0  0  0  0  0  2  0  0  0  0  0  0
  188.5130  174.0590  139.7420 C   0  0  0  0  0  2  0  0  0  0  0  0
  193.3940  169.3760  139.7680 C   0  0  0  0  0  3  0  0  0  0  0  0
  193.6290  169.9600  137.4230 C   0  0  0  0  0  0  0  0  0  0  0  0
  194.6510  171.3420  139.1360 C   0  0  0  0  0  3  0  0  0  0  0  0
  194.3870  171.0790  137.7900 C   0  0  0  0  0  3  0  0  0  0  0  0
  193.1300  169.1130  138.4210 C   0  0  0  0  0  3  0  0  0  0  0  0
  194.1680  170.4870  140.1390 C   0  0  0  0  0  0  0  0  0  0  0  0
  193.3570  169.6850  136.0040 C   0  0  0  0  0  0  0  0  0  0  0  0
  192.0650  169.3940  135.5810 O   0  0  0  0  0  1  0  0  0  0  0  0
  194.2900  169.7120  135.1580 O   0  0  0  0  0  0  0  0  0  0  0  0
  189.0960  176.3540  145.3290 C   0  0  0  0  0  2  0  0  0  0  0  0
  188.1290  177.5190  145.5260 C   0  0  0  0  0  2  0  0  0  0  0  0
  187.3450  176.0390  147.2210 F   0  0  0  0  0  0  0  0  0  0  0  0
  187.0600  177.2340  146.5810 C   0  0  0  0  0  0  0  0  0  0  0  0
  187.0410  178.2470  147.5250 F   0  0  0  0  0  0  0  0  0  0  0  0
  185.7110  177.1420  145.9090 C   0  0  0  0  0  0  0  0  0  0  0  0
  185.2200  176.0380  145.7120 O   0  0  0  0  0  0  0  0  0  0  0  0
  185.8990  179.5690  145.5510 C   0  0  0  0  0  1  0  0  0  0  0  0
  183.8720  178.6170  146.2660 F   0  0  0  0  0  0  0  0  0  0  0  0
  184.9620  178.3760  145.4460 C   0  0  2  0  0  0  0  0  0  0  0  0
  184.4960  178.1880  143.9820 C   0  0  2  0  0  3  0  0  0  0  0  0
  185.5740  177.9510  142.9120 C   0  0  1  0  0  3  0  0  0  0  0  0
  185.4360  176.6970  142.3080 O   0  0  0  0  0  1  0  0  0  0  0  0
  185.5120  178.9960  141.9030 N   0  0  0  0  0  2  0  0  0  0  0  0
  185.5840  178.3470  140.6040 C   0  0  0  0  0  1  0  0  0  0  0  0
  183.5170  179.1450  143.5670 O   0  0  0  0  0  0  0  0  0  0  0  0
  182.3750  178.8480  142.8140 C   0  0  0  0  0  0  0  0  0  0  0  0
  181.2910  179.4240  143.0850 O   0  0  0  0  0  1  0  0  0  0  0  0
  182.4120  177.9210  141.7790 O   0  0  0  0  0  0  0  0  0  0  0  0
  2 18  1  0  0  0  0
  4  5  1  0  0  0  0
  6  7  1  0  0  0  0
  6 11  1  0  0  0  0
  7  9  1  0  0  0  0
  9  5  1  0  0  0  0
 11  4  1  0  0  0  0
 12 27  1  6  0  0  0
 12 26  1  0  0  0  0
 12 14  1  0  0  0  0
 13  1  1  0  0  0  0
 13 24  1  0  0  0  0
 15 17  1  0  0  0  0
 15 24  2  0  0  0  0
 16 21  2  0  0  0  0
 16  2  1  0  0  0  0
 17  6  2  0  0  0  0
 19  8  1  0  0  0  0
 19  3  1  0  0  0  0
 19 18  1  0  0  0  0
 20 27  1  0  0  0  0
 20 10  1  0  0  0  0
 21 37  1  0  0  0  0
 22 10  1  6  0  0  0
 22 14  1  0  0  0  0
 22  1  1  0  0  0  0
 23 11  2  0  0  0  0
 23  8  1  0  0  0  0
 24 23  1  0  0  0  0
 25 21  1  0  0  0  0
 26 25  1  0  0  0  0
 28 33  1  0  0  0  0
 29 31  2  0  0  0  0
 29 32  1  0  0  0  0
 30 33  2  0  0  0  0
 31 30  1  0  0  0  0
 32 28  2  0  0  0  0
 33 15  1  0  0  0  0
 34 29  1  0  0  0  0
 35 34  1  0  0  0  0
 36 34  2  0  0  0  0
 37 38  1  0  0  0  0
 38 40  1  0  0  0  0
 40 39  1  0  0  0  0
 40 41  1  0  0  0  0
 42 40  1  0  0  0  0
 43 42  2  0  0  0  0
 46 44  1  1  0  0  0
 46 42  1  0  0  0  0
 46 45  1  0  0  0  0
 47 52  1  6  0  0  0
 47 46  1  0  0  0  0
 48 49  1  6  0  0  0
 48 47  1  0  0  0  0
 50 48  1  0  0  0  0
 51 50  1  0  0  0  0
 53 54  1  0  0  0  0
 53 52  1  0  0  0  0
 55 53  2  0  0  0  0
M  END
>  <MODEL>
8

>  <REMARK>
 VINA RESULT:      -5.3      4.081     10.133
  Name = 
  12 active torsions:
  status: ('A' for Active; 'I' for Inactive)
    1  A    between atoms: C_1  and  O_53
    2  A    between atoms: C_6  and  C_14
    3  A    between atoms: C_6  and  C_20
    4  A    between atoms: C_8  and  C_22
    5  A    between atoms: C_8  and  C_43
    6  A    between atoms: C_10  and  C_32
    7  A    between atoms: N_11  and  C_29
    8  A    between atoms: C_14  and  C_38
    9  A    between atoms: C_20  and  C_22
   10  A    between atoms: C_29  and  C_38
   11  A    between atoms: C_33  and  C_52
   12  A    between atoms: C_38  and  O_53
                            x       y       z     vdW  Elec       q    Type
                         _______ _______ _______ _____ _____    ______ ____

>  <TORSDO>
F 12

$$$$
=
 OpenBabel11052419243D

 55 59  0  0  1  0  0  0  0  0999 V2000
  193.2390  173.4960  139.4970 C   0  0  0  0  0  2  0  0  0  0  0  0
  189.3270  171.6480  142.3280 C   0  0  0  0  0  2  0  0  0  0  0  0
  188.0540  172.5720  139.6570 C   0  0  0  0  0  1  0  0  0  0  0  0
  188.3280  175.1130  137.4440 C   0  0  0  0  0  2  0  0  0  0  0  0
  187.3150  175.2210  136.3100 C   0  0  0  0  0  2  0  0  0  0  0  0
  189.8780  174.0780  135.7270 C   0  0  0  0  0  0  0  0  0  0  0  0
  188.9880  174.5380  134.6040 C   0  0  0  0  0  2  0  0  0  0  0  0
  189.9670  173.9390  139.5410 C   0  0  0  0  0  2  0  0  0  0  0  0
  188.0300  175.6430  135.0360 C   0  0  0  0  0  2  0  0  0  0  0  0
  195.2160  172.0190  140.0030 C   0  0  0  0  0  2  0  0  0  0  0  0
  189.5240  174.2630  137.0800 C   0  0  0  0  0  0  0  0  0  0  0  0
  194.1820  171.5740  142.7290 C   0  0  1  0  0  3  0  0  0  0  0  0
  192.3760  172.4260  138.8340 C   0  0  0  0  0  2  0  0  0  0  0  0
  193.2990  172.1580  141.6260 C   0  0  0  0  0  2  0  0  0  0  0  0
  191.8680  172.8440  136.3880 C   0  0  0  0  0  0  0  0  0  0  0  0
  190.6470  171.3740  142.8830 N   0  0  0  0  0  0  0  0  0  0  0  0
  191.0240  173.3620  135.4000 C   0  0  0  0  0  3  0  0  0  0  0  0
  189.3400  172.9630  141.5610 C   0  0  0  0  0  2  0  0  0  0  0  0
  189.4250  172.7190  140.1290 N   0  0  0  0  0  0  0  0  0  0  0  0
  196.1030  171.4720  141.1170 C   0  0  0  0  0  2  0  0  0  0  0  0
  191.1030  171.9010  143.9850 C   0  0  0  0  0  0  0  0  0  0  0  0
  194.1300  172.9180  140.5930 C   0  0  2  0  0  3  0  0  0  0  0  0
  190.3510  173.7380  138.0950 C   0  0  0  0  0  0  0  0  0  0  0  0
  191.5260  173.0260  137.7520 C   0  0  0  0  0  0  0  0  0  0  0  0
  192.4220  171.5840  144.4410 N   0  0  0  0  0  2  0  0  0  0  0  0
  193.3440  170.7410  143.6890 C   0  0  0  0  0  2  0  0  0  0  0  0
  195.2630  170.6840  142.1190 C   0  0  0  0  0  2  0  0  0  0  0  0
  194.3120  172.7690  135.8670 C   0  0  0  0  0  3  0  0  0  0  0  0
  195.4020  170.7140  135.1700 C   0  0  0  0  0  0  0  0  0  0  0  0
  193.0240  170.7350  135.6540 C   0  0  0  0  0  3  0  0  0  0  0  0
  194.1750  170.0460  135.2640 C   0  0  0  0  0  3  0  0  0  0  0  0
  195.4650  172.0800  135.4770 C   0  0  0  0  0  3  0  0  0  0  0  0
  193.0780  172.1070  135.9470 C   0  0  0  0  0  0  0  0  0  0  0  0
  196.6100  169.9850  134.7550 C   0  0  0  0  0  0  0  0  0  0  0  0
  196.5750  168.6040  134.5960 O   0  0  0  0  0  1  0  0  0  0  0  0
  197.6870  170.6020  134.5400 O   0  0  0  0  0  0  0  0  0  0  0  0
  190.2690  172.8280  144.8170 C   0  0  0  0  0  2  0  0  0  0  0  0
  191.0780  174.0270  145.3050 C   0  0  0  0  0  2  0  0  0  0  0  0
  188.9570  174.9170  145.9270 F   0  0  0  0  0  0  0  0  0  0  0  0
  190.2260  175.2800  145.5050 C   0  0  0  0  0  0  0  0  0  0  0  0
  190.7960  176.0950  146.4700 F   0  0  0  0  0  0  0  0  0  0  0  0
  190.1310  176.0310  144.1990 C   0  0  0  0  0  0  0  0  0  0  0  0
  190.8030  175.6540  143.2480 O   0  0  0  0  0  0  0  0  0  0  0  0
  189.6470  177.9630  142.7540 C   0  0  0  0  0  1  0  0  0  0  0  0
  189.4550  178.1370  145.0900 F   0  0  0  0  0  0  0  0  0  0  0  0
  189.2520  177.2560  144.0410 C   0  0  2  0  0  0  0  0  0  0  0  0
  187.7660  176.8300  143.9840 C   0  0  2  0  0  3  0  0  0  0  0  0
  187.1330  176.6190  142.5980 C   0  0  1  0  0  3  0  0  0  0  0  0
  186.8160  175.2760  142.3740 O   0  0  0  0  0  1  0  0  0  0  0  0
  185.9400  177.4390  142.4660 N   0  0  0  0  0  2  0  0  0  0  0  0
  185.7960  177.7670  141.0560 C   0  0  0  0  0  1  0  0  0  0  0  0
  186.9210  177.5850  144.8590 O   0  0  0  0  0  0  0  0  0  0  0  0
  186.3840  177.1080  146.0600 C   0  0  0  0  0  0  0  0  0  0  0  0
  185.2230  176.6230  146.0660 O   0  0  0  0  0  0  0  0  0  0  0  0
  187.1010  177.1690  147.2490 O   0  0  0  0  0  1  0  0  0  0  0  0
  2 16  1  0  0  0  0
  3 19  1  0  0  0  0
  5  4  1  0  0  0  0
  6 11  1  0  0  0  0
  7  9  1  0  0  0  0
  7  6  1  0  0  0  0
  8 19  1  0  0  0  0
  9  5  1  0  0  0  0
 10 22  1  0  0  0  0
 10 20  1  0  0  0  0
 11  4  1  0  0  0  0
 11 23  2  0  0  0  0
 12 14  1  6  0  0  0
 12 26  1  0  0  0  0
 13  1  1  0  0  0  0
 15 24  2  0  0  0  0
 16 21  2  0  0  0  0
 17  6  2  0  0  0  0
 17 15  1  0  0  0  0
 18  2  1  0  0  0  0
 19 18  1  0  0  0  0
 20 27  1  0  0  0  0
 21 25  1  0  0  0  0
 21 37  1  0  0  0  0
 22  1  1  6  0  0  0
 22 14  1  0  0  0  0
 23  8  1  0  0  0  0
 24 23  1  0  0  0  0
 24 13  1  0  0  0  0
 26 25  1  0  0  0  0
 27 12  1  0  0  0  0
 28 33  1  0  0  0  0
 29 31  2  0  0  0  0
 29 32  1  0  0  0  0
 30 33  2  0  0  0  0
 31 30  1  0  0  0  0
 32 28  2  0  0  0  0
 33 15  1  0  0  0  0
 34 29  1  0  0  0  0
 35 34  1  0  0  0  0
 36 34  2  0  0  0  0
 37 38  1  0  0  0  0
 38 40  1  0  0  0  0
 40 39  1  0  0  0  0
 40 41  1  0  0  0  0
 42 40  1  0  0  0  0
 43 42  2  0  0  0  0
 46 44  1  6  0  0  0
 46 42  1  0  0  0  0
 46 45  1  0  0  0  0
 47 46  1  0  0  0  0
 47 52  1  6  0  0  0
 48 49  1  1  0  0  0
 48 47  1  0  0  0  0
 50 48  1  0  0  0  0
 51 50  1  0  0  0  0
 52 53  1  0  0  0  0
 53 54  2  0  0  0  0
 53 55  1  0  0  0  0
M  END
>  <MODEL>
9

>  <REMARK>
 VINA RESULT:      -5.3      3.792      8.886
  Name = 
  12 active torsions:
  status: ('A' for Active; 'I' for Inactive)
    1  A    between atoms: C_1  and  O_53
    2  A    between atoms: C_6  and  C_14
    3  A    between atoms: C_6  and  C_20
    4  A    between atoms: C_8  and  C_22
    5  A    between atoms: C_8  and  C_43
    6  A    between atoms: C_10  and  C_32
    7  A    between atoms: N_11  and  C_29
    8  A    between atoms: C_14  and  C_38
    9  A    between atoms: C_20  and  C_22
   10  A    between atoms: C_29  and  C_38
   11  A    between atoms: C_33  and  C_52
   12  A    between atoms: C_38  and  O_53
                            x       y       z     vdW  Elec       q    Type
                         _______ _______ _______ _____ _____    ______ ____

>  <TORSDO>
F 12

$$$$
