=
 OpenBabel11052418213D

 27 31  0  0  1  0  0  0  0  0999 V2000
  187.7330  177.3620  142.5780 C   0  0  0  0  0  2  0  0  0  0  0  0
  189.0000  176.7810  144.6490 C   0  0  0  0  0  0  0  0  0  0  0  0
  188.9470  174.6390  143.4580 N   0  0  0  0  0  2  0  0  0  0  0  0
  192.6080  175.7220  146.2960 O   0  0  0  0  0  0  0  0  0  0  0  0
  194.0920  174.0950  145.5660 O   0  0  0  0  0  0  0  0  0  0  0  0
  189.4840  177.4600  145.6580 N   0  0  0  0  0  0  0  0  0  0  0  0
  191.8330  174.1470  144.6480 C   0  0  1  0  0  3  0  0  0  0  0  0
  189.6820  173.4800  139.9990 C   0  0  0  0  0  3  0  0  0  0  0  0
  191.5690  172.7380  144.8840 N   0  0  0  0  0  1  0  0  0  0  0  0
  188.7630  174.2250  139.2570 C   0  0  0  0  0  3  0  0  0  0  0  0
  190.6470  174.9780  145.1490 C   0  0  1  0  0  3  0  0  0  0  0  0
  187.7740  177.2180  144.0320 N   0  0  0  0  0  0  0  0  0  0  0  0
  192.9460  174.6160  145.5360 C   0  0  0  0  0  0  0  0  0  0  0  0
  191.3020  176.0190  145.9780 C   0  0  0  0  0  0  0  0  0  0  0  0
  186.9860  176.1930  141.9540 C   0  0  0  0  0  2  0  0  0  0  0  0
  189.8180  175.6410  144.0500 C   0  0  2  0  0  3  0  0  0  0  0  0
  189.7340  173.6170  141.3880 C   0  0  0  0  0  3  0  0  0  0  0  0
  190.7250  177.1450  146.2510 N   0  0  0  0  0  0  0  0  0  0  0  0
  187.8940  175.1070  139.9040 C   0  0  0  0  0  3  0  0  0  0  0  0
  187.9400  175.2500  141.2950 C   0  0  0  0  0  0  0  0  0  0  0  0
  188.8680  174.5010  142.0400 C   0  0  0  0  0  0  0  0  0  0  0  0
  184.3830  178.3440  146.3470 C   0  0  0  0  0  3  0  0  0  0  0  0
  186.6310  177.6030  144.8260 C   0  0  0  0  0  0  0  0  0  0  0  0
  186.0720  176.7130  145.7590 C   0  0  0  0  0  3  0  0  0  0  0  0
  184.9550  177.0820  146.5160 C   0  0  0  0  0  3  0  0  0  0  0  0
  184.9240  179.2370  145.4200 C   0  0  0  0  0  3  0  0  0  0  0  0
  186.0400  178.8680  144.6640 C   0  0  0  0  0  3  0  0  0  0  0  0
  1 12  1  0  0  0  0
  2  6  2  0  0  0  0
  6 18  1  0  0  0  0
  7  9  1  1  0  0  0
  7 11  1  0  0  0  0
  7 13  1  0  0  0  0
  8 17  1  0  0  0  0
 10 19  1  0  0  0  0
 10  8  2  0  0  0  0
 11 14  1  1  0  0  0
 12  2  1  0  0  0  0
 12 23  1  0  0  0  0
 13  5  2  0  0  0  0
 13  4  1  0  0  0  0
 14 18  2  0  0  0  0
 14  4  1  0  0  0  0
 15  1  1  0  0  0  0
 16  3  1  1  0  0  0
 16  2  1  0  0  0  0
 16 11  1  0  0  0  0
 17 21  2  0  0  0  0
 19 20  2  0  0  0  0
 20 15  1  0  0  0  0
 20 21  1  0  0  0  0
 21  3  1  0  0  0  0
 22 25  1  0  0  0  0
 23 24  1  0  0  0  0
 24 25  2  0  0  0  0
 26 22  2  0  0  0  0
 27 23  2  0  0  0  0
 27 26  1  0  0  0  0
M  END
>  <MODEL>
1

>  <REMARK>
 VINA RESULT:      -7.9      0.000      0.000
  Name = 
  1 active torsions:
  status: ('A' for Active; 'I' for Inactive)
    1  A    between atoms: C_9  and  N_15
                            x       y       z     vdW  Elec       q    Type
                         _______ _______ _______ _____ _____    ______ ____

>  <TORSDO>
F 1

$$$$
=
 OpenBabel11052418213D

 27 31  0  0  1  0  0  0  0  0999 V2000
  190.3160  177.8900  143.7880 C   0  0  0  0  0  2  0  0  0  0  0  0
  190.8580  175.6560  142.8150 C   0  0  0  0  0  0  0  0  0  0  0  0
  188.5330  175.3580  143.5300 N   0  0  0  0  0  2  0  0  0  0  0  0
  190.2170  172.9790  139.7700 O   0  0  0  0  0  0  0  0  0  0  0  0
  188.1910  172.2910  138.8730 O   0  0  0  0  0  0  0  0  0  0  0  0
  191.8740  175.1550  142.1580 N   0  0  0  0  0  0  0  0  0  0  0  0
  188.2060  173.5230  140.9770 C   0  0  1  0  0  3  0  0  0  0  0  0
  185.3480  177.2440  143.1380 C   0  0  0  0  0  3  0  0  0  0  0  0
  187.3620  172.5750  141.6840 N   0  0  0  0  0  1  0  0  0  0  0  0
  185.6680  178.4550  143.7560 C   0  0  0  0  0  3  0  0  0  0  0  0
  189.4230  173.8650  141.8430 C   0  0  1  0  0  3  0  0  0  0  0  0
  191.0990  176.6550  143.8240 N   0  0  0  0  0  0  0  0  0  0  0  0
  188.8390  172.8610  139.7900 C   0  0  0  0  0  0  0  0  0  0  0  0
  190.5560  173.6800  140.9050 C   0  0  0  0  0  0  0  0  0  0  0  0
  189.2360  177.8600  144.8590 C   0  0  0  0  0  2  0  0  0  0  0  0
  189.4380  175.2900  142.3950 C   0  0  2  0  0  3  0  0  0  0  0  0
  186.2980  176.2220  143.0720 C   0  0  0  0  0  3  0  0  0  0  0  0
  191.7070  174.2420  141.0960 N   0  0  0  0  0  0  0  0  0  0  0  0
  186.9370  178.6450  144.3080 C   0  0  0  0  0  3  0  0  0  0  0  0
  187.8930  177.6260  144.2460 C   0  0  0  0  0  0  0  0  0  0  0  0
  187.5710  176.4080  143.6210 C   0  0  0  0  0  0  0  0  0  0  0  0
  194.1970  176.2240  146.7120 C   0  0  0  0  0  3  0  0  0  0  0  0
  192.1530  176.4990  144.7980 C   0  0  0  0  0  0  0  0  0  0  0  0
  191.9650  175.6980  145.9380 C   0  0  0  0  0  3  0  0  0  0  0  0
  192.9820  175.5600  146.8880 C   0  0  0  0  0  3  0  0  0  0  0  0
  194.3960  177.0280  145.5880 C   0  0  0  0  0  3  0  0  0  0  0  0
  193.3800  177.1660  144.6380 C   0  0  0  0  0  3  0  0  0  0  0  0
  1 12  1  0  0  0  0
  1 15  1  0  0  0  0
  2 12  1  0  0  0  0
  3 21  1  0  0  0  0
  4 13  1  0  0  0  0
  4 14  1  0  0  0  0
  5 13  2  0  0  0  0
  6  2  2  0  0  0  0
  7  9  1  1  0  0  0
  7 11  1  0  0  0  0
  8 10  1  0  0  0  0
 10 19  2  0  0  0  0
 11 14  1  6  0  0  0
 11 16  1  0  0  0  0
 12 23  1  0  0  0  0
 13  7  1  0  0  0  0
 14 18  2  0  0  0  0
 16  2  1  1  0  0  0
 16  3  1  0  0  0  0
 17  8  2  0  0  0  0
 17 21  1  0  0  0  0
 18  6  1  0  0  0  0
 20 19  1  0  0  0  0
 20 15  1  0  0  0  0
 21 20  2  0  0  0  0
 22 25  1  0  0  0  0
 23 24  1  0  0  0  0
 24 25  2  0  0  0  0
 26 22  2  0  0  0  0
 27 23  2  0  0  0  0
 27 26  1  0  0  0  0
M  END
>  <MODEL>
2

>  <REMARK>
 VINA RESULT:      -7.6      2.893      5.941
  Name = 
  1 active torsions:
  status: ('A' for Active; 'I' for Inactive)
    1  A    between atoms: C_9  and  N_15
                            x       y       z     vdW  Elec       q    Type
                         _______ _______ _______ _____ _____    ______ ____

>  <TORSDO>
F 1

$$$$
=
 OpenBabel11052418213D

 27 31  0  0  1  0  0  0  0  0999 V2000
  189.1090  176.1720  145.6430 C   0  0  0  0  0  2  0  0  0  0  0  0
  188.6630  175.3630  143.3230 C   0  0  0  0  0  0  0  0  0  0  0  0
  191.0460  175.9310  143.2240 N   0  0  0  0  0  2  0  0  0  0  0  0
  189.2930  172.4330  140.5170 O   0  0  0  0  0  0  0  0  0  0  0  0
  191.3000  171.4380  139.9130 O   0  0  0  0  0  0  0  0  0  0  0  0
  187.6450  174.8060  142.7170 N   0  0  0  0  0  0  0  0  0  0  0  0
  191.3350  173.4680  141.2650 C   0  0  1  0  0  3  0  0  0  0  0  0
  194.0580  175.2180  145.2910 C   0  0  0  0  0  3  0  0  0  0  0  0
  192.2870  174.1660  140.4200 N   0  0  0  0  0  1  0  0  0  0  0  0
  193.6940  175.7890  146.5130 C   0  0  0  0  0  3  0  0  0  0  0  0
  190.1550  174.3950  141.5770 C   0  0  1  0  0  3  0  0  0  0  0  0
  188.4190  176.3290  144.3630 N   0  0  0  0  0  0  0  0  0  0  0  0
  190.6750  172.3650  140.4930 C   0  0  0  0  0  0  0  0  0  0  0  0
  188.9790  173.5490  141.2610 C   0  0  0  0  0  0  0  0  0  0  0  0
  190.2560  177.1660  145.7480 C   0  0  0  0  0  2  0  0  0  0  0  0
  190.0750  174.8670  143.0270 C   0  0  2  0  0  3  0  0  0  0  0  0
  193.1800  175.2740  144.2050 C   0  0  0  0  0  3  0  0  0  0  0  0
  187.8070  173.7870  141.7560 N   0  0  0  0  0  0  0  0  0  0  0  0
  192.4530  176.4160  146.6500 C   0  0  0  0  0  3  0  0  0  0  0  0
  191.5690  176.4750  145.5680 C   0  0  0  0  0  0  0  0  0  0  0  0
  191.9350  175.8990  144.3390 C   0  0  0  0  0  0  0  0  0  0  0  0
  185.5660  179.4530  143.8800 C   0  0  0  0  0  3  0  0  0  0  0  0
  187.4440  177.3810  144.1950 C   0  0  0  0  0  0  0  0  0  0  0  0
  187.2750  178.0120  142.9510 C   0  0  0  0  0  3  0  0  0  0  0  0
  186.3410  179.0410  142.7930 C   0  0  0  0  0  3  0  0  0  0  0  0
  185.7270  178.8390  145.1240 C   0  0  0  0  0  3  0  0  0  0  0  0
  186.6610  177.8100  145.2800 C   0  0  0  0  0  3  0  0  0  0  0  0
  1 15  1  0  0  0  0
  2 12  1  0  0  0  0
  3 21  1  0  0  0  0
  4 14  1  0  0  0  0
  5 13  2  0  0  0  0
  6  2  2  0  0  0  0
  7  9  1  6  0  0  0
  7 11  1  0  0  0  0
  8 10  1  0  0  0  0
 10 19  2  0  0  0  0
 11 14  1  1  0  0  0
 11 16  1  0  0  0  0
 12  1  1  0  0  0  0
 13  4  1  0  0  0  0
 13  7  1  0  0  0  0
 14 18  2  0  0  0  0
 16  3  1  6  0  0  0
 16  2  1  0  0  0  0
 17 21  1  0  0  0  0
 17  8  2  0  0  0  0
 18  6  1  0  0  0  0
 20 15  1  0  0  0  0
 20 19  1  0  0  0  0
 21 20  2  0  0  0  0
 22 26  1  0  0  0  0
 23 12  1  0  0  0  0
 23 27  1  0  0  0  0
 24 23  2  0  0  0  0
 25 24  1  0  0  0  0
 25 22  2  0  0  0  0
 26 27  2  0  0  0  0
M  END
>  <MODEL>
3

>  <REMARK>
 VINA RESULT:      -7.6      2.575      4.881
  Name = 
  1 active torsions:
  status: ('A' for Active; 'I' for Inactive)
    1  A    between atoms: C_9  and  N_15
                            x       y       z     vdW  Elec       q    Type
                         _______ _______ _______ _____ _____    ______ ____

>  <TORSDO>
F 1

$$$$
=
 OpenBabel11052418213D

 27 31  0  0  1  0  0  0  0  0999 V2000
  191.1410  173.3310  143.5940 C   0  0  0  0  0  2  0  0  0  0  0  0
  190.2210  174.8850  145.3180 C   0  0  0  0  0  0  0  0  0  0  0  0
  189.5470  175.9740  143.2290 N   0  0  0  0  0  2  0  0  0  0  0  0
  186.8760  176.4150  147.1410 O   0  0  0  0  0  0  0  0  0  0  0  0
  184.9470  177.2270  146.1410 O   0  0  0  0  0  0  0  0  0  0  0  0
  190.1170  174.8620  146.6230 N   0  0  0  0  0  0  0  0  0  0  0  0
  186.9260  176.8350  144.7700 C   0  0  1  0  0  3  0  0  0  0  0  0
  187.8850  174.9150  140.0710 C   0  0  0  0  0  3  0  0  0  0  0  0
  186.9070  178.1450  144.1440 N   0  0  0  0  0  1  0  0  0  0  0  0
  188.7800  173.9530  139.5980 C   0  0  0  0  0  3  0  0  0  0  0  0
  188.3450  176.5240  145.2580 C   0  0  1  0  0  3  0  0  0  0  0  0
  191.3630  174.2690  144.6940 N   0  0  0  0  0  0  0  0  0  0  0  0
  186.1510  176.8690  146.0530 C   0  0  0  0  0  0  0  0  0  0  0  0
  188.1240  176.0890  146.6580 C   0  0  0  0  0  0  0  0  0  0  0  0
  191.4630  173.9950  142.2630 C   0  0  0  0  0  2  0  0  0  0  0  0
  189.0630  175.4210  144.4830 C   0  0  2  0  0  3  0  0  0  0  0  0
  188.1470  175.5840  141.2700 C   0  0  0  0  0  3  0  0  0  0  0  0
  188.9830  175.3620  147.2970 N   0  0  0  0  0  0  0  0  0  0  0  0
  189.9380  173.6600  140.3220 C   0  0  0  0  0  3  0  0  0  0  0  0
  190.2080  174.3250  141.5230 C   0  0  0  0  0  0  0  0  0  0  0  0
  189.3040  175.2920  141.9990 C   0  0  0  0  0  0  0  0  0  0  0  0
  195.3170  174.9160  146.1370 C   0  0  0  0  0  3  0  0  0  0  0  0
  192.7000  174.4870  145.1950 C   0  0  0  0  0  0  0  0  0  0  0  0
  193.1250  175.7740  145.5700 C   0  0  0  0  0  3  0  0  0  0  0  0
  194.4250  175.9860  146.0400 C   0  0  0  0  0  3  0  0  0  0  0  0
  194.9100  173.6340  145.7630 C   0  0  0  0  0  3  0  0  0  0  0  0
  193.6110  173.4210  145.2930 C   0  0  0  0  0  3  0  0  0  0  0  0
  1 12  1  0  0  0  0
  2  6  2  0  0  0  0
  6 18  1  0  0  0  0
  7  9  1  1  0  0  0
  7 11  1  0  0  0  0
  7 13  1  0  0  0  0
  8 17  1  0  0  0  0
 10  8  2  0  0  0  0
 10 19  1  0  0  0  0
 11 14  1  1  0  0  0
 12 23  1  0  0  0  0
 12  2  1  0  0  0  0
 13  5  2  0  0  0  0
 13  4  1  0  0  0  0
 14  4  1  0  0  0  0
 14 18  2  0  0  0  0
 15  1  1  0  0  0  0
 16  3  1  6  0  0  0
 16 11  1  0  0  0  0
 16  2  1  0  0  0  0
 17 21  2  0  0  0  0
 19 20  2  0  0  0  0
 20 21  1  0  0  0  0
 20 15  1  0  0  0  0
 21  3  1  0  0  0  0
 23 27  2  0  0  0  0
 23 24  1  0  0  0  0
 24 25  2  0  0  0  0
 25 22  1  0  0  0  0
 26 22  2  0  0  0  0
 27 26  1  0  0  0  0
M  END
>  <MODEL>
4

>  <REMARK>
 VINA RESULT:      -7.5      2.352      5.912
  Name = 
  1 active torsions:
  status: ('A' for Active; 'I' for Inactive)
    1  A    between atoms: C_9  and  N_15
                            x       y       z     vdW  Elec       q    Type
                         _______ _______ _______ _____ _____    ______ ____

>  <TORSDO>
F 1

$$$$
=
 OpenBabel11052418213D

 27 31  0  0  1  0  0  0  0  0999 V2000
  190.2530  173.6040  143.7020 C   0  0  0  0  0  2  0  0  0  0  0  0
  189.0190  175.7180  144.1930 C   0  0  0  0  0  0  0  0  0  0  0  0
  189.0540  175.6980  141.7420 N   0  0  0  0  0  2  0  0  0  0  0  0
  185.4360  177.7200  144.0780 O   0  0  0  0  0  0  0  0  0  0  0  0
  183.9430  177.8790  142.3110 O   0  0  0  0  0  0  0  0  0  0  0  0
  188.5490  176.2840  145.2760 N   0  0  0  0  0  0  0  0  0  0  0  0
  186.1870  177.0180  141.9010 C   0  0  1  0  0  3  0  0  0  0  0  0
  188.2670  173.2280  139.0720 C   0  0  0  0  0  3  0  0  0  0  0  0
  186.4550  177.8960  140.7760 N   0  0  0  0  0  1  0  0  0  0  0  0
  189.1740  172.2080  139.3640 C   0  0  0  0  0  3  0  0  0  0  0  0
  187.3800  177.0430  142.8620 C   0  0  1  0  0  3  0  0  0  0  0  0
  190.2340  174.9500  144.2730 N   0  0  0  0  0  0  0  0  0  0  0  0
  185.0880  177.5870  142.7460 C   0  0  0  0  0  0  0  0  0  0  0  0
  186.7370  177.2800  144.1770 C   0  0  0  0  0  0  0  0  0  0  0  0
  190.9910  173.6070  142.3710 C   0  0  0  0  0  2  0  0  0  0  0  0
  188.1920  175.7500  142.9110 C   0  0  2  0  0  3  0  0  0  0  0  0
  188.2360  174.3830  139.8590 C   0  0  0  0  0  3  0  0  0  0  0  0
  187.3180  176.9720  145.2930 N   0  0  0  0  0  0  0  0  0  0  0  0
  190.0530  172.3410  140.4420 C   0  0  0  0  0  3  0  0  0  0  0  0
  190.0280  173.4940  141.2340 C   0  0  0  0  0  0  0  0  0  0  0  0
  189.1120  174.5200  140.9410 C   0  0  0  0  0  0  0  0  0  0  0  0
  193.6590  176.3880  146.3550 C   0  0  0  0  0  3  0  0  0  0  0  0
  191.3890  175.4470  144.9830 C   0  0  0  0  0  0  0  0  0  0  0  0
  192.2010  176.4490  144.4230 C   0  0  0  0  0  3  0  0  0  0  0  0
  193.3280  176.9180  145.1060 C   0  0  0  0  0  3  0  0  0  0  0  0
  192.8650  175.3880  146.9210 C   0  0  0  0  0  3  0  0  0  0  0  0
  191.7390  174.9200  146.2390 C   0  0  0  0  0  3  0  0  0  0  0  0
  1 12  1  0  0  0  0
  2 12  1  0  0  0  0
  2  6  2  0  0  0  0
  4 14  1  0  0  0  0
  5 13  2  0  0  0  0
  6 18  1  0  0  0  0
  7  9  1  6  0  0  0
  7 13  1  0  0  0  0
  7 11  1  0  0  0  0
  8 10  2  0  0  0  0
  8 17  1  0  0  0  0
 10 19  1  0  0  0  0
 11 16  1  0  0  0  0
 11 14  1  1  0  0  0
 12 23  1  0  0  0  0
 13  4  1  0  0  0  0
 14 18  2  0  0  0  0
 15  1  1  0  0  0  0
 16  3  1  6  0  0  0
 16  2  1  0  0  0  0
 17 21  2  0  0  0  0
 19 20  2  0  0  0  0
 20 15  1  0  0  0  0
 21 20  1  0  0  0  0
 21  3  1  0  0  0  0
 22 26  1  0  0  0  0
 23 27  1  0  0  0  0
 24 23  2  0  0  0  0
 24 25  1  0  0  0  0
 25 22  2  0  0  0  0
 27 26  2  0  0  0  0
M  END
>  <MODEL>
5

>  <REMARK>
 VINA RESULT:      -7.4      2.872      5.783
  Name = 
  1 active torsions:
  status: ('A' for Active; 'I' for Inactive)
    1  A    between atoms: C_9  and  N_15
                            x       y       z     vdW  Elec       q    Type
                         _______ _______ _______ _____ _____    ______ ____

>  <TORSDO>
F 1

$$$$
=
 OpenBabel11052418213D

 27 31  0  0  1  0  0  0  0  0999 V2000
  191.1810  175.1580  142.6810 C   0  0  0  0  0  2  0  0  0  0  0  0
  188.8490  175.9970  142.3780 C   0  0  0  0  0  0  0  0  0  0  0  0
  188.8260  175.2360  144.7080 N   0  0  0  0  0  2  0  0  0  0  0  0
  186.0690  178.8620  143.3360 O   0  0  0  0  0  0  0  0  0  0  0  0
  185.5310  179.6880  145.4360 O   0  0  0  0  0  0  0  0  0  0  0  0
  188.2120  176.6350  141.4290 N   0  0  0  0  0  0  0  0  0  0  0  0
  186.8810  177.6650  145.2610 C   0  0  1  0  0  3  0  0  0  0  0  0
  190.9900  175.7020  147.7000 C   0  0  0  0  0  3  0  0  0  0  0  0
  186.0660  176.8900  146.1790 N   0  0  0  0  0  1  0  0  0  0  0  0
  192.1990  175.1650  147.2520 C   0  0  0  0  0  3  0  0  0  0  0  0
  187.1530  176.8380  144.0000 C   0  0  1  0  0  3  0  0  0  0  0  0
  189.8800  175.0560  142.0230 N   0  0  0  0  0  0  0  0  0  0  0  0
  186.0890  178.8160  144.7180 C   0  0  0  0  0  0  0  0  0  0  0  0
  186.8010  177.7770  142.9080 C   0  0  0  0  0  0  0  0  0  0  0  0
  191.3220  174.0740  143.7390 C   0  0  0  0  0  2  0  0  0  0  0  0
  188.6000  176.3760  143.8350 C   0  0  2  0  0  3  0  0  0  0  0  0
  189.8760  175.7170  146.8560 C   0  0  0  0  0  3  0  0  0  0  0  0
  187.2580  177.6370  141.7050 N   0  0  0  0  0  0  0  0  0  0  0  0
  192.2960  174.6420  145.9610 C   0  0  0  0  0  3  0  0  0  0  0  0
  191.1860  174.6540  145.1100 C   0  0  0  0  0  0  0  0  0  0  0  0
  189.9690  175.1970  145.5610 C   0  0  0  0  0  0  0  0  0  0  0  0
  189.2780  172.2270  138.8980 C   0  0  0  0  0  3  0  0  0  0  0  0
  189.6800  174.0880  140.9700 C   0  0  0  0  0  0  0  0  0  0  0  0
  190.7350  173.7290  140.1140 C   0  0  0  0  0  3  0  0  0  0  0  0
  190.5360  172.8030  139.0850 C   0  0  0  0  0  3  0  0  0  0  0  0
  188.2190  172.5780  139.7370 C   0  0  0  0  0  3  0  0  0  0  0  0
  188.4180  173.5040  140.7650 C   0  0  0  0  0  3  0  0  0  0  0  0
  1 15  1  0  0  0  0
  3 21  1  0  0  0  0
  4 13  1  0  0  0  0
  6 18  1  0  0  0  0
  6  2  2  0  0  0  0
  7  9  1  1  0  0  0
 10  8  1  0  0  0  0
 11 14  1  6  0  0  0
 11  7  1  0  0  0  0
 12  2  1  0  0  0  0
 12  1  1  0  0  0  0
 13  7  1  0  0  0  0
 13  5  2  0  0  0  0
 14  4  1  0  0  0  0
 15 20  1  0  0  0  0
 16  2  1  6  0  0  0
 16 11  1  0  0  0  0
 16  3  1  0  0  0  0
 17  8  2  0  0  0  0
 18 14  2  0  0  0  0
 19 10  2  0  0  0  0
 20 21  2  0  0  0  0
 20 19  1  0  0  0  0
 21 17  1  0  0  0  0
 22 25  2  0  0  0  0
 22 26  1  0  0  0  0
 23 12  1  0  0  0  0
 24 23  2  0  0  0  0
 25 24  1  0  0  0  0
 26 27  2  0  0  0  0
 27 23  1  0  0  0  0
M  END
>  <MODEL>
6

>  <REMARK>
 VINA RESULT:      -7.4      2.924      6.714
  Name = 
  1 active torsions:
  status: ('A' for Active; 'I' for Inactive)
    1  A    between atoms: C_9  and  N_15
                            x       y       z     vdW  Elec       q    Type
                         _______ _______ _______ _____ _____    ______ ____

>  <TORSDO>
F 1

$$$$
=
 OpenBabel11052418213D

 27 31  0  0  1  0  0  0  0  0999 V2000
  187.2720  176.4180  144.7050 C   0  0  0  0  0  2  0  0  0  0  0  0
  188.0650  174.9960  142.8120 C   0  0  0  0  0  0  0  0  0  0  0  0
  190.1570  175.9670  143.6410 N   0  0  0  0  0  2  0  0  0  0  0  0
  190.1320  171.6430  141.6560 O   0  0  0  0  0  0  0  0  0  0  0  0
  192.2210  170.9330  142.3710 O   0  0  0  0  0  0  0  0  0  0  0  0
  187.5040  174.1230  142.0130 N   0  0  0  0  0  0  0  0  0  0  0  0
  191.4900  173.2000  142.8940 C   0  0  1  0  0  3  0  0  0  0  0  0
  191.7920  176.3710  146.9600 C   0  0  0  0  0  3  0  0  0  0  0  0
  192.7000  173.8380  142.4070 N   0  0  0  0  0  1  0  0  0  0  0  0
  190.8480  177.1430  147.6400 C   0  0  0  0  0  3  0  0  0  0  0  0
  190.2670  173.9330  142.3310 C   0  0  1  0  0  3  0  0  0  0  0  0
  187.2950  176.1220  143.2730 N   0  0  0  0  0  0  0  0  0  0  0  0
  191.3490  171.8370  142.2860 C   0  0  0  0  0  0  0  0  0  0  0  0
  189.4410  172.8260  141.7910 C   0  0  0  0  0  0  0  0  0  0  0  0
  188.1700  177.6080  145.0110 C   0  0  0  0  0  2  0  0  0  0  0  0
  189.4610  174.7210  143.3620 C   0  0  2  0  0  3  0  0  0  0  0  0
  191.5610  175.9900  145.6360 C   0  0  0  0  0  3  0  0  0  0  0  0
  188.1670  172.9500  141.5970 N   0  0  0  0  0  0  0  0  0  0  0  0
  189.6720  177.5360  146.9970 C   0  0  0  0  0  3  0  0  0  0  0  0
  189.4330  177.1580  145.6710 C   0  0  0  0  0  0  0  0  0  0  0  0
  190.3830  176.3790  144.9880 C   0  0  0  0  0  0  0  0  0  0  0  0
  184.8770  178.3690  140.5830 C   0  0  0  0  0  3  0  0  0  0  0  0
  186.4790  176.8940  142.3650 C   0  0  0  0  0  0  0  0  0  0  0  0
  185.2110  177.3580  142.7570 C   0  0  0  0  0  3  0  0  0  0  0  0
  184.4160  178.0930  141.8720 C   0  0  0  0  0  3  0  0  0  0  0  0
  186.1310  177.9090  140.1780 C   0  0  0  0  0  3  0  0  0  0  0  0
  186.9260  177.1750  141.0630 C   0  0  0  0  0  3  0  0  0  0  0  0
  1 15  1  0  0  0  0
  2 12  1  0  0  0  0
  3 21  1  0  0  0  0
  4 14  1  0  0  0  0
  4 13  1  0  0  0  0
  6  2  2  0  0  0  0
  7  9  1  6  0  0  0
  8 10  1  0  0  0  0
 11 14  1  1  0  0  0
 11  7  1  0  0  0  0
 11 16  1  0  0  0  0
 12  1  1  0  0  0  0
 13  5  2  0  0  0  0
 13  7  1  0  0  0  0
 15 20  1  0  0  0  0
 16  2  1  6  0  0  0
 16  3  1  0  0  0  0
 17  8  2  0  0  0  0
 18 14  2  0  0  0  0
 18  6  1  0  0  0  0
 19 10  2  0  0  0  0
 20 19  1  0  0  0  0
 21 17  1  0  0  0  0
 21 20  2  0  0  0  0
 22 25  1  0  0  0  0
 23 24  1  0  0  0  0
 23 12  1  0  0  0  0
 25 24  2  0  0  0  0
 26 22  2  0  0  0  0
 26 27  1  0  0  0  0
 27 23  2  0  0  0  0
M  END
>  <MODEL>
7

>  <REMARK>
 VINA RESULT:      -7.4      2.553      4.866
  Name = 
  1 active torsions:
  status: ('A' for Active; 'I' for Inactive)
    1  A    between atoms: C_9  and  N_15
                            x       y       z     vdW  Elec       q    Type
                         _______ _______ _______ _____ _____    ______ ____

>  <TORSDO>
F 1

$$$$
=
 OpenBabel11052418213D

 27 31  0  0  1  0  0  0  0  0999 V2000
  189.1340  174.6490  143.3270 C   0  0  0  0  0  2  0  0  0  0  0  0
  188.3500  176.0990  145.2030 C   0  0  0  0  0  0  0  0  0  0  0  0
  187.9310  177.5140  143.2460 N   0  0  0  0  0  2  0  0  0  0  0  0
  185.1580  177.8530  147.0970 O   0  0  0  0  0  0  0  0  0  0  0  0
  183.4070  179.0410  146.1470 O   0  0  0  0  0  0  0  0  0  0  0  0
  188.1810  175.9340  146.4910 N   0  0  0  0  0  0  0  0  0  0  0  0
  185.3780  178.5420  144.8010 C   0  0  1  0  0  3  0  0  0  0  0  0
  186.2950  177.0840  139.9300 C   0  0  0  0  0  3  0  0  0  0  0  0
  185.5660  179.9080  144.3420 N   0  0  0  0  0  1  0  0  0  0  0  0
  187.0740  176.0690  139.3690 C   0  0  0  0  0  3  0  0  0  0  0  0
  186.7170  177.9800  145.2900 C   0  0  1  0  0  3  0  0  0  0  0  0
  189.4270  175.4090  144.5420 N   0  0  0  0  0  0  0  0  0  0  0  0
  184.5540  178.5300  146.0530 C   0  0  0  0  0  0  0  0  0  0  0  0
  186.3720  177.4160  146.6170 C   0  0  0  0  0  0  0  0  0  0  0  0
  189.6060  175.4160  142.1010 C   0  0  0  0  0  2  0  0  0  0  0  0
  187.3160  176.8880  144.4050 C   0  0  2  0  0  3  0  0  0  0  0  0
  186.5870  177.5610  141.2110 C   0  0  0  0  0  3  0  0  0  0  0  0
  187.0940  176.5040  147.1860 N   0  0  0  0  0  0  0  0  0  0  0  0
  188.1450  175.5320  140.0860 C   0  0  0  0  0  3  0  0  0  0  0  0
  188.4440  176.0050  141.3680 C   0  0  0  0  0  0  0  0  0  0  0  0
  187.6580  177.0250  141.9340 C   0  0  0  0  0  0  0  0  0  0  0  0
  193.3570  175.3100  146.1780 C   0  0  0  0  0  3  0  0  0  0  0  0
  190.7560  175.3760  145.1080 C   0  0  0  0  0  0  0  0  0  0  0  0
  191.4520  176.5680  145.3740 C   0  0  0  0  0  3  0  0  0  0  0  0
  192.7440  176.5350  145.9080 C   0  0  0  0  0  3  0  0  0  0  0  0
  192.6800  174.1180  145.9130 C   0  0  0  0  0  3  0  0  0  0  0  0
  191.3880  174.1510  145.3800 C   0  0  0  0  0  3  0  0  0  0  0  0
  1 12  1  0  0  0  0
  2  6  2  0  0  0  0
  6 18  1  0  0  0  0
  7  9  1  1  0  0  0
  7 11  1  0  0  0  0
  7 13  1  0  0  0  0
  8 17  1  0  0  0  0
 10  8  2  0  0  0  0
 10 19  1  0  0  0  0
 11 14  1  1  0  0  0
 12 23  1  0  0  0  0
 12  2  1  0  0  0  0
 13  5  2  0  0  0  0
 13  4  1  0  0  0  0
 14  4  1  0  0  0  0
 14 18  2  0  0  0  0
 15  1  1  0  0  0  0
 16  3  1  6  0  0  0
 16  2  1  0  0  0  0
 16 11  1  0  0  0  0
 17 21  2  0  0  0  0
 19 20  2  0  0  0  0
 20 21  1  0  0  0  0
 20 15  1  0  0  0  0
 21  3  1  0  0  0  0
 23 24  2  0  0  0  0
 23 27  1  0  0  0  0
 24 25  1  0  0  0  0
 25 22  2  0  0  0  0
 26 22  1  0  0  0  0
 27 26  2  0  0  0  0
M  END
>  <MODEL>
8

>  <REMARK>
 VINA RESULT:      -7.1      2.802      5.939
  Name = 
  1 active torsions:
  status: ('A' for Active; 'I' for Inactive)
    1  A    between atoms: C_9  and  N_15
                            x       y       z     vdW  Elec       q    Type
                         _______ _______ _______ _____ _____    ______ ____

>  <TORSDO>
F 1

$$$$
=
 OpenBabel11052418213D

 27 31  0  0  1  0  0  0  0  0999 V2000
  189.1950  174.3740  145.0950 C   0  0  0  0  0  2  0  0  0  0  0  0
  187.7080  176.3700  145.2970 C   0  0  0  0  0  0  0  0  0  0  0  0
  188.4250  176.4940  142.9560 N   0  0  0  0  0  2  0  0  0  0  0  0
  184.1510  178.1330  144.2520 O   0  0  0  0  0  0  0  0  0  0  0  0
  183.2000  178.2950  142.1430 O   0  0  0  0  0  0  0  0  0  0  0  0
  186.9130  176.8410  146.2240 N   0  0  0  0  0  0  0  0  0  0  0  0
  185.5310  177.6100  142.3500 C   0  0  1  0  0  3  0  0  0  0  0  0
  188.6100  174.1360  140.0820 C   0  0  0  0  0  3  0  0  0  0  0  0
  186.0300  178.5680  141.3790 N   0  0  0  0  0  1  0  0  0  0  0  0
  189.4790  173.1630  140.5800 C   0  0  0  0  0  3  0  0  0  0  0  0
  186.4040  177.6580  143.6080 C   0  0  1  0  0  3  0  0  0  0  0  0
  188.9110  175.6810  145.6870 N   0  0  0  0  0  0  0  0  0  0  0  0
  184.1980  178.0560  142.8720 C   0  0  0  0  0  0  0  0  0  0  0  0
  185.4040  177.7760  144.6970 C   0  0  0  0  0  0  0  0  0  0  0  0
  190.2710  174.5030  144.0270 C   0  0  0  0  0  2  0  0  0  0  0  0
  187.2700  176.4210  143.8360 C   0  0  2  0  0  3  0  0  0  0  0  0
  188.2690  175.2390  140.8710 C   0  0  0  0  0  3  0  0  0  0  0  0
  185.6750  177.4430  145.9190 N   0  0  0  0  0  0  0  0  0  0  0  0
  190.0100  173.2910  141.8660 C   0  0  0  0  0  3  0  0  0  0  0  0
  189.6740  174.3920  142.6610 C   0  0  0  0  0  0  0  0  0  0  0  0
  188.7960  175.3700  142.1600 C   0  0  0  0  0  0  0  0  0  0  0  0
  191.4470  177.2390  148.7320 C   0  0  0  0  0  3  0  0  0  0  0  0
  189.7800  176.2110  146.7120 C   0  0  0  0  0  0  0  0  0  0  0  0
  190.6850  175.3750  147.3890 C   0  0  0  0  0  3  0  0  0  0  0  0
  191.5140  175.8860  148.3910 C   0  0  0  0  0  3  0  0  0  0  0  0
  190.5480  178.0800  148.0720 C   0  0  0  0  0  3  0  0  0  0  0  0
  189.7190  177.5690  147.0690 C   0  0  0  0  0  3  0  0  0  0  0  0
  1 12  1  0  0  0  0
  2 12  1  0  0  0  0
  2  6  2  0  0  0  0
  4 14  1  0  0  0  0
  5 13  2  0  0  0  0
  7  9  1  6  0  0  0
  7 13  1  0  0  0  0
  7 11  1  0  0  0  0
  8 10  2  0  0  0  0
  8 17  1  0  0  0  0
 10 19  1  0  0  0  0
 11 16  1  0  0  0  0
 11 14  1  1  0  0  0
 12 23  1  0  0  0  0
 13  4  1  0  0  0  0
 14 18  2  0  0  0  0
 15  1  1  0  0  0  0
 16  3  1  6  0  0  0
 16  2  1  0  0  0  0
 17 21  2  0  0  0  0
 18  6  1  0  0  0  0
 19 20  2  0  0  0  0
 20 15  1  0  0  0  0
 21 20  1  0  0  0  0
 21  3  1  0  0  0  0
 23 27  2  0  0  0  0
 23 24  1  0  0  0  0
 24 25  2  0  0  0  0
 25 22  1  0  0  0  0
 26 22  2  0  0  0  0
 27 26  1  0  0  0  0
M  END
>  <MODEL>
9

>  <REMARK>
 VINA RESULT:      -7.1      3.268      5.608
  Name = 
  1 active torsions:
  status: ('A' for Active; 'I' for Inactive)
    1  A    between atoms: C_9  and  N_15
                            x       y       z     vdW  Elec       q    Type
                         _______ _______ _______ _____ _____    ______ ____

>  <TORSDO>
F 1

$$$$
