=
 OpenBabel11052419383D

 55 59  0  0  1  0  0  0  0  0999 V2000
  193.3110  171.2440  139.9560 C   0  0  1  0  0  3  0  0  0  0  0  0
  193.3400  174.0210  143.0930 C   0  0  0  0  0  2  0  0  0  0  0  0
  197.0320  175.5820  136.7520 C   0  0  0  0  0  2  0  0  0  0  0  0
  193.6110  172.5340  143.2470 C   0  0  0  0  0  2  0  0  0  0  0  0
  196.6040  174.3620  142.2870 O   0  0  0  0  0  0  0  0  0  0  0  0
  195.0880  175.6570  140.9790 C   0  0  2  0  0  3  0  0  0  0  0  0
  194.8480  177.0010  141.2840 O   0  0  0  0  0  1  0  0  0  0  0  0
  191.8820  169.9690  141.5010 C   0  0  0  0  0  0  0  0  0  0  0  0
  195.5120  174.9140  142.2290 C   0  0  0  0  0  0  0  0  0  0  0  0
  192.3070  171.7550  143.1590 C   0  0  1  0  0  3  0  0  0  0  0  0
  194.5280  171.0810  139.0630 C   0  0  0  0  0  2  0  0  0  0  0  0
  192.5720  170.3030  142.7870 C   0  0  0  0  0  2  0  0  0  0  0  0
  194.5680  174.9280  136.4760 C   0  0  2  0  0  3  0  0  0  0  0  0
  195.4000  173.2730  139.2590 C   0  0  0  0  0  3  0  0  0  0  0  0
  196.9750  174.4820  137.8060 C   0  0  0  0  0  2  0  0  0  0  0  0
  196.1350  175.5700  139.8680 C   0  0  0  0  0  2  0  0  0  0  0  0
  194.5310  175.2310  137.9770 C   0  0  0  0  0  2  0  0  0  0  0  0
  192.0720  170.8440  139.1930 C   0  0  0  0  0  2  0  0  0  0  0  0
  192.6650  169.8980  140.2230 C   0  0  1  0  0  3  0  0  0  0  0  0
  194.5970  174.8120  143.4220 C   0  0  1  0  0  3  0  0  0  0  0  0
  195.8270  175.5120  135.8120 C   0  0  0  0  0  2  0  0  0  0  0  0
  194.8990  172.3590  138.5110 N   0  0  0  0  0  0  0  0  0  0  0  0
  195.7480  174.6300  138.7180 C   0  0  2  0  0  0  0  0  0  0  0  0
  190.6840  169.7230  141.5050 O   0  0  0  0  0  0  0  0  0  0  0  0
  193.2780  175.3500  135.7860 C   0  0  0  0  0  3  0  0  0  0  0  0
  193.1820  176.8560  135.7040 C   0  0  0  0  0  1  0  0  0  0  0  0
  192.0460  174.7840  136.4690 C   0  0  0  0  0  1  0  0  0  0  0  0
  194.2500  176.0890  143.8960 O   0  0  0  0  0  0  0  0  0  0  0  0
  195.0990  177.5270  145.4770 F   0  0  0  0  0  0  0  0  0  0  0  0
  195.8190  175.3760  145.4240 F   0  0  0  0  0  0  0  0  0  0  0  0
  193.6380  175.8240  146.1730 C   0  0  0  0  0  1  0  0  0  0  0  0
  194.7370  176.2160  145.2120 C   0  0  0  0  0  0  0  0  0  0  0  0
  191.4610  171.8920  144.4340 C   0  0  0  0  0  2  0  0  0  0  0  0
  190.2160  172.7630  144.2590 C   0  0  0  0  0  2  0  0  0  0  0  0
  188.4650  172.0150  142.7910 O   0  0  0  0  0  1  0  0  0  0  0  0
  189.6790  172.7040  142.8350 C   0  0  1  0  0  3  0  0  0  0  0  0
  189.5390  174.1040  142.2400 C   0  0  0  0  0  2  0  0  0  0  0  0
  188.1960  174.3530  141.5480 C   0  0  2  0  0  3  0  0  0  0  0  0
  188.5800  174.3990  137.8300 N   0  0  0  0  0  1  0  0  0  0  0  0
  188.4020  174.7230  140.1480 N   0  0  0  0  0  0  0  0  0  0  0  0
  188.3550  173.9040  139.1430 C   0  0  0  0  0  0  0  0  0  0  0  0
  188.0750  172.5140  139.3270 N   0  0  0  0  0  1  0  0  0  0  0  0
  187.4600  175.3410  142.2170 O   0  0  0  0  0  0  0  0  0  0  0  0
  188.1300  177.9060  143.7900 C   0  0  2  0  0  3  0  0  0  0  0  0
  187.7990  176.5560  141.6130 C   0  0  1  0  0  3  0  0  0  0  0  0
  184.6780  178.3920  144.9220 C   0  0  0  0  0  2  0  0  0  0  0  0
  186.1410  177.5730  140.1200 C   0  0  0  0  0  2  0  0  0  0  0  0
  186.5670  177.3870  141.3700 C   0  0  0  0  0  0  0  0  0  0  0  0
  188.7400  177.2380  145.0100 C   0  0  0  0  0  1  0  0  0  0  0  0
  184.0340  178.7450  143.5730 C   0  0  0  0  0  2  0  0  0  0  0  0
  184.5610  177.9120  142.5660 O   0  0  0  0  0  0  0  0  0  0  0  0
  186.5980  177.7850  143.8460 C   0  0  2  0  0  3  0  0  0  0  0  0
  185.9480  178.1620  142.4960 C   0  0  1  0  0  3  0  0  0  0  0  0
  186.0720  178.6100  144.8670 O   0  0  0  0  0  0  0  0  0  0  0  0
  188.7680  177.3230  142.5150 C   0  0  0  0  0  2  0  0  0  0  0  0
  1 11  1  6  0  0  0
  1 19  1  0  0  0  0
  2  4  1  0  0  0  0
  2 20  1  0  0  0  0
  3 15  1  0  0  0  0
  6  7  1  1  0  0  0
  6  9  1  0  0  0  0
  8 24  2  0  0  0  0
  8 12  1  0  0  0  0
  9  5  2  0  0  0  0
  9 20  1  0  0  0  0
 10  4  1  0  0  0  0
 10 33  1  1  0  0  0
 12 10  1  0  0  0  0
 13 25  1  6  0  0  0
 13 17  1  0  0  0  0
 16  6  1  0  0  0  0
 17 23  1  0  0  0  0
 18  1  1  0  0  0  0
 19 18  1  6  0  0  0
 19  8  1  0  0  0  0
 20 28  1  6  0  0  0
 21 13  1  0  0  0  0
 21  3  1  0  0  0  0
 22 11  1  0  0  0  0
 22 14  2  0  0  0  0
 23 15  1  6  0  0  0
 23 14  1  0  0  0  0
 23 16  1  0  0  0  0
 25 27  1  0  0  0  0
 26 25  1  0  0  0  0
 28 32  1  0  0  0  0
 32 30  1  0  0  0  0
 32 29  1  0  0  0  0
 32 31  1  0  0  0  0
 34 33  1  0  0  0  0
 36 35  1  1  0  0  0
 36 34  1  0  0  0  0
 37 36  1  0  0  0  0
 38 43  1  0  0  0  0
 38 37  1  1  0  0  0
 39 41  1  0  0  0  0
 40 38  1  0  0  0  0
 41 42  1  0  0  0  0
 41 40  2  0  0  0  0
 44 52  1  0  0  0  0
 44 49  1  1  0  0  0
 45 43  1  1  0  0  0
 45 55  1  0  0  0  0
 47 48  2  0  0  0  0
 48 45  1  0  0  0  0
 50 46  1  0  0  0  0
 51 50  1  0  0  0  0
 52 54  1  1  0  0  0
 53 48  1  6  0  0  0
 53 51  1  0  0  0  0
 53 52  1  0  0  0  0
 54 46  1  0  0  0  0
 55 44  1  0  0  0  0
M  END
>  <MODEL>
1

>  <REMARK>
 VINA RESULT:      -8.1      0.000      0.000
  Name = 
  11 active torsions:
  status: ('A' for Active; 'I' for Inactive)
    1  A    between atoms: C_6  and  O_46
    2  A    between atoms: N_8  and  C_22
    3  A    between atoms: C_10  and  C_32
    4  A    between atoms: O_19  and  C_40
    5  A    between atoms: O_19  and  C_45
    6  A    between atoms: C_22  and  C_35
    7  A    between atoms: C_22  and  O_46
    8  A    between atoms: C_27  and  C_54
    9  A    between atoms: C_35  and  C_43
   10  A    between atoms: C_43  and  C_51
   11  A    between atoms: C_51  and  C_54
                            x       y       z     vdW  Elec       q    Type
                         _______ _______ _______ _____ _____    ______ ____

>  <TORSDO>
F 11

$$$$
=
 OpenBabel11052419383D

 55 59  0  0  1  0  0  0  0  0999 V2000
  195.0290  174.6300  144.6650 C   0  0  1  0  0  3  0  0  0  0  0  0
  191.0620  174.3050  143.3590 C   0  0  0  0  0  2  0  0  0  0  0  0
  195.9340  168.8300  141.7550 C   0  0  0  0  0  2  0  0  0  0  0  0
  191.9290  175.5430  143.2020 C   0  0  0  0  0  2  0  0  0  0  0  0
  192.4690  173.1610  140.5080 O   0  0  0  0  0  0  0  0  0  0  0  0
  192.1760  171.5340  142.2260 C   0  0  2  0  0  3  0  0  0  0  0  0
  191.0670  170.6810  142.2220 O   0  0  0  0  0  1  0  0  0  0  0  0
  194.2150  176.7360  145.6450 C   0  0  0  0  0  0  0  0  0  0  0  0
  191.8380  172.8200  141.5000 C   0  0  0  0  0  0  0  0  0  0  0  0
  192.0540  176.2630  144.5360 C   0  0  1  0  0  3  0  0  0  0  0  0
  196.1640  174.0790  143.8210 C   0  0  0  0  0  2  0  0  0  0  0  0
  193.2850  177.1590  144.5490 C   0  0  0  0  0  2  0  0  0  0  0  0
  195.7590  169.4790  144.2290 C   0  0  2  0  0  3  0  0  0  0  0  0
  194.9720  172.3550  142.7190 C   0  0  0  0  0  3  0  0  0  0  0  0
  195.8040  170.3390  141.5800 C   0  0  0  0  0  2  0  0  0  0  0  0
  193.3720  170.8120  141.6040 C   0  0  0  0  0  2  0  0  0  0  0  0
  194.4630  170.1410  143.7540 C   0  0  0  0  0  2  0  0  0  0  0  0
  195.4430  174.6390  146.1170 C   0  0  0  0  0  2  0  0  0  0  0  0
  195.4420  175.9340  145.3220 C   0  0  1  0  0  3  0  0  0  0  0  0
  190.7370  173.7240  141.9910 C   0  0  1  0  0  3  0  0  0  0  0  0
  196.2890  168.4680  143.1970 C   0  0  0  0  0  2  0  0  0  0  0  0
  195.9160  172.6910  143.5210 N   0  0  0  0  0  0  0  0  0  0  0  0
  194.6610  170.9150  142.4300 C   0  0  2  0  0  0  0  0  0  0  0  0
  193.9860  177.0770  146.7960 O   0  0  0  0  0  0  0  0  0  0  0  0
  195.6080  168.8860  145.6240 C   0  0  0  0  0  3  0  0  0  0  0  0
  194.1490  168.7270  145.9830 C   0  0  0  0  0  1  0  0  0  0  0  0
  196.3210  169.7100  146.6820 C   0  0  0  0  0  1  0  0  0  0  0  0
  189.5110  173.0380  142.0400 O   0  0  0  0  0  0  0  0  0  0  0  0
  189.1430  174.9140  140.7610 F   0  0  0  0  0  0  0  0  0  0  0  0
  187.4410  174.0480  141.9850 F   0  0  0  0  0  0  0  0  0  0  0  0
  188.1780  172.8810  140.0840 C   0  0  0  0  0  1  0  0  0  0  0  0
  188.5800  173.7480  141.2560 C   0  0  0  0  0  0  0  0  0  0  0  0
  190.7710  177.0190  144.9120 C   0  0  0  0  0  2  0  0  0  0  0  0
  190.2320  176.6700  146.3000 C   0  0  0  0  0  2  0  0  0  0  0  0
  189.2720  174.9120  147.6300 O   0  0  0  0  0  1  0  0  0  0  0  0
  189.5670  175.3000  146.3210 C   0  0  1  0  0  3  0  0  0  0  0  0
  188.3150  175.2810  145.4450 C   0  0  0  0  0  2  0  0  0  0  0  0
  187.4870  176.5660  145.5210 C   0  0  2  0  0  3  0  0  0  0  0  0
  185.4960  177.1030  148.6390 N   0  0  0  0  0  1  0  0  0  0  0  0
  186.5240  176.4910  146.6200 N   0  0  0  0  0  0  0  0  0  0  0  0
  186.4850  177.2950  147.6370 C   0  0  0  0  0  0  0  0  0  0  0  0
  187.4120  178.3750  147.7680 N   0  0  0  0  0  1  0  0  0  0  0  0
  186.8310  176.8150  144.3070 O   0  0  0  0  0  0  0  0  0  0  0  0
  184.9750  179.2650  144.0700 C   0  0  2  0  0  3  0  0  0  0  0  0
  187.2610  178.0770  143.8830 C   0  0  1  0  0  3  0  0  0  0  0  0
  183.1690  177.9080  141.1830 C   0  0  0  0  0  2  0  0  0  0  0  0
  188.2240  178.2430  141.6350 C   0  0  0  0  0  2  0  0  0  0  0  0
  187.1250  178.2070  142.3890 C   0  0  0  0  0  0  0  0  0  0  0  0
  184.0240  178.9040  145.1970 C   0  0  0  0  0  1  0  0  0  0  0  0
  184.2950  177.9890  140.1410 C   0  0  0  0  0  2  0  0  0  0  0  0
  185.5120  177.5940  140.7300 O   0  0  0  0  0  0  0  0  0  0  0  0
  184.6650  178.4010  142.8360 C   0  0  2  0  0  3  0  0  0  0  0  0
  185.7870  178.4980  141.7770 C   0  0  1  0  0  3  0  0  0  0  0  0
  183.4360  178.7890  142.2550 O   0  0  0  0  0  0  0  0  0  0  0  0
  186.4270  179.1590  144.5730 C   0  0  0  0  0  2  0  0  0  0  0  0
  1 11  1  6  0  0  0
  1 19  1  0  0  0  0
  1 18  1  0  0  0  0
  3 21  1  0  0  0  0
  4  2  1  0  0  0  0
  4 10  1  0  0  0  0
  5  9  2  0  0  0  0
  6  7  1  6  0  0  0
  8 24  2  0  0  0  0
  9 20  1  0  0  0  0
  9  6  1  0  0  0  0
 10 12  1  0  0  0  0
 10 33  1  6  0  0  0
 12  8  1  0  0  0  0
 13 25  1  1  0  0  0
 14 22  2  0  0  0  0
 15  3  1  0  0  0  0
 16  6  1  0  0  0  0
 16 23  1  0  0  0  0
 17 13  1  0  0  0  0
 19  8  1  0  0  0  0
 19 18  1  1  0  0  0
 20 28  1  1  0  0  0
 20  2  1  0  0  0  0
 21 13  1  0  0  0  0
 22 11  1  0  0  0  0
 23 15  1  6  0  0  0
 23 14  1  0  0  0  0
 23 17  1  0  0  0  0
 25 26  1  0  0  0  0
 25 27  1  0  0  0  0
 29 32  1  0  0  0  0
 31 32  1  0  0  0  0
 32 30  1  0  0  0  0
 32 28  1  0  0  0  0
 33 34  1  0  0  0  0
 34 36  1  0  0  0  0
 36 35  1  1  0  0  0
 37 36  1  0  0  0  0
 38 37  1  6  0  0  0
 38 40  1  0  0  0  0
 40 41  2  0  0  0  0
 41 42  1  0  0  0  0
 41 39  1  0  0  0  0
 43 38  1  0  0  0  0
 44 55  1  0  0  0  0
 44 49  1  1  0  0  0
 45 43  1  1  0  0  0
 45 55  1  0  0  0  0
 46 54  1  0  0  0  0
 47 48  2  0  0  0  0
 48 45  1  0  0  0  0
 50 51  1  0  0  0  0
 50 46  1  0  0  0  0
 52 54  1  6  0  0  0
 52 44  1  0  0  0  0
 53 51  1  6  0  0  0
 53 48  1  0  0  0  0
 53 52  1  0  0  0  0
M  END
>  <MODEL>
2

>  <REMARK>
 VINA RESULT:      -7.8      4.033      6.722
  Name = 
  11 active torsions:
  status: ('A' for Active; 'I' for Inactive)
    1  A    between atoms: C_6  and  O_46
    2  A    between atoms: N_8  and  C_22
    3  A    between atoms: C_10  and  C_32
    4  A    between atoms: O_19  and  C_40
    5  A    between atoms: O_19  and  C_45
    6  A    between atoms: C_22  and  C_35
    7  A    between atoms: C_22  and  O_46
    8  A    between atoms: C_27  and  C_54
    9  A    between atoms: C_35  and  C_43
   10  A    between atoms: C_43  and  C_51
   11  A    between atoms: C_51  and  C_54
                            x       y       z     vdW  Elec       q    Type
                         _______ _______ _______ _____ _____    ______ ____

>  <TORSDO>
F 11

$$$$
=
 OpenBabel11052419383D

 55 59  0  0  1  0  0  0  0  0999 V2000
  190.6560  173.1960  137.1500 C   0  0  1  0  0  3  0  0  0  0  0  0
  191.1710  173.5370  141.2940 C   0  0  0  0  0  2  0  0  0  0  0  0
  196.9560  171.3990  137.0210 C   0  0  0  0  0  2  0  0  0  0  0  0
  190.0110  172.8240  140.6180 C   0  0  0  0  0  2  0  0  0  0  0  0
  192.9180  170.6640  140.9540 O   0  0  0  0  0  0  0  0  0  0  0  0
  194.1400  172.6620  140.5050 C   0  0  2  0  0  3  0  0  0  0  0  0
  194.9530  173.2390  141.4860 O   0  0  0  0  0  1  0  0  0  0  0  0
  188.3760  173.9570  137.6760 C   0  0  0  0  0  0  0  0  0  0  0  0
  193.0290  171.8660  141.1590 C   0  0  0  0  0  0  0  0  0  0  0  0
  189.0290  173.8430  140.0590 C   0  0  1  0  0  3  0  0  0  0  0  0
  191.3950  172.1240  136.3690 C   0  0  0  0  0  2  0  0  0  0  0  0
  188.1750  173.2200  138.9640 C   0  0  0  0  0  2  0  0  0  0  0  0
  195.7970  173.5770  136.3220 C   0  0  2  0  0  3  0  0  0  0  0  0
  193.2880  171.9130  137.7750 C   0  0  0  0  0  3  0  0  0  0  0  0
  195.5150  170.9820  137.2960 C   0  0  0  0  0  2  0  0  0  0  0  0
  195.0000  171.8030  139.5760 C   0  0  0  0  0  2  0  0  0  0  0  0
  195.2240  173.4890  137.7400 C   0  0  0  0  0  2  0  0  0  0  0  0
  190.3500  174.3600  136.2370 C   0  0  0  0  0  2  0  0  0  0  0  0
  189.2520  173.3760  136.6050 C   0  0  1  0  0  3  0  0  0  0  0  0
  192.0210  172.5340  142.0580 C   0  0  1  0  0  3  0  0  0  0  0  0
  197.0130  172.6510  136.1450 C   0  0  0  0  0  2  0  0  0  0  0  0
  192.8100  172.2250  136.6260 N   0  0  0  0  0  0  0  0  0  0  0  0
  194.7510  172.0580  138.0830 C   0  0  2  0  0  0  0  0  0  0  0  0
  187.7950  175.0170  137.4900 O   0  0  0  0  0  0  0  0  0  0  0  0
  196.0800  175.0190  135.9200 C   0  0  0  0  0  3  0  0  0  0  0  0
  197.1640  175.6150  136.7880 C   0  0  0  0  0  1  0  0  0  0  0  0
  194.8350  175.8860  135.9690 C   0  0  0  0  0  1  0  0  0  0  0  0
  192.6560  173.1680  143.1400 O   0  0  0  0  0  0  0  0  0  0  0  0
  192.7850  173.0430  145.4320 F   0  0  0  0  0  0  0  0  0  0  0  0
  193.4190  171.2600  144.1810 F   0  0  0  0  0  0  0  0  0  0  0  0
  191.1350  171.7880  144.3260 C   0  0  0  0  0  1  0  0  0  0  0  0
  192.5440  172.3310  144.2670 C   0  0  0  0  0  0  0  0  0  0  0  0
  188.1850  174.5020  141.1610 C   0  0  0  0  0  2  0  0  0  0  0  0
  187.9250  175.9920  140.9310 C   0  0  0  0  0  2  0  0  0  0  0  0
  186.4810  175.5590  142.8040 O   0  0  0  0  0  1  0  0  0  0  0  0
  186.9530  176.5630  141.9560 C   0  0  1  0  0  3  0  0  0  0  0  0
  187.5940  177.7000  142.7500 C   0  0  0  0  0  2  0  0  0  0  0  0
  187.8350  177.3660  144.2240 C   0  0  2  0  0  3  0  0  0  0  0  0
  185.4590  178.9560  146.6310 N   0  0  0  0  0  1  0  0  0  0  0  0
  187.0920  178.2860  145.0860 N   0  0  0  0  0  0  0  0  0  0  0  0
  186.0950  177.9570  145.8480 C   0  0  0  0  0  0  0  0  0  0  0  0
  185.6270  176.6080  145.9210 N   0  0  0  0  0  1  0  0  0  0  0  0
  189.2030  177.3990  144.5310 O   0  0  0  0  0  0  0  0  0  0  0  0
  190.0850  174.8600  146.0420 C   0  0  2  0  0  3  0  0  0  0  0  0
  189.7690  176.2810  143.9080 C   0  0  1  0  0  3  0  0  0  0  0  0
  192.9210  176.5290  147.6590 C   0  0  0  0  0  2  0  0  0  0  0  0
  191.8670  176.6160  142.6840 C   0  0  0  0  0  2  0  0  0  0  0  0
  191.2690  176.4080  143.8570 C   0  0  0  0  0  0  0  0  0  0  0  0
  189.0500  174.9190  147.1510 C   0  0  0  0  0  1  0  0  0  0  0  0
  193.8040  176.7470  146.4210 C   0  0  0  0  0  2  0  0  0  0  0  0
  193.0020  177.1480  145.3350 O   0  0  0  0  0  0  0  0  0  0  0  0
  191.1890  175.8970  146.3120 C   0  0  2  0  0  3  0  0  0  0  0  0
  192.0920  176.1010  145.0740 C   0  0  1  0  0  3  0  0  0  0  0  0
  191.9840  175.5010  147.4120 O   0  0  0  0  0  0  0  0  0  0  0  0
  189.3850  175.0170  144.6800 C   0  0  0  0  0  2  0  0  0  0  0  0
  1 18  1  6  0  0  0
  2 20  1  0  0  0  0
  3 15  1  0  0  0  0
  4  2  1  0  0  0  0
  5  9  2  0  0  0  0
  6  9  1  0  0  0  0
  6  7  1  1  0  0  0
  8 12  1  0  0  0  0
  9 20  1  0  0  0  0
 10  4  1  0  0  0  0
 10 33  1  1  0  0  0
 11 22  1  0  0  0  0
 11  1  1  0  0  0  0
 12 10  1  0  0  0  0
 13 25  1  1  0  0  0
 13 17  1  0  0  0  0
 14 23  1  0  0  0  0
 16  6  1  0  0  0  0
 17 23  1  0  0  0  0
 19 18  1  6  0  0  0
 19  1  1  0  0  0  0
 19  8  1  0  0  0  0
 20 28  1  1  0  0  0
 21 13  1  0  0  0  0
 21  3  1  0  0  0  0
 22 14  2  0  0  0  0
 23 15  1  6  0  0  0
 23 16  1  0  0  0  0
 24  8  2  0  0  0  0
 25 27  1  0  0  0  0
 25 26  1  0  0  0  0
 28 32  1  0  0  0  0
 30 32  1  0  0  0  0
 32 31  1  0  0  0  0
 32 29  1  0  0  0  0
 34 33  1  0  0  0  0
 34 36  1  0  0  0  0
 36 37  1  0  0  0  0
 36 35  1  1  0  0  0
 38 37  1  6  0  0  0
 38 43  1  0  0  0  0
 38 40  1  0  0  0  0
 40 41  2  0  0  0  0
 41 42  1  0  0  0  0
 41 39  1  0  0  0  0
 44 52  1  0  0  0  0
 44 49  1  1  0  0  0
 45 43  1  1  0  0  0
 45 55  1  0  0  0  0
 47 48  2  0  0  0  0
 48 45  1  0  0  0  0
 50 46  1  0  0  0  0
 51 50  1  0  0  0  0
 52 54  1  1  0  0  0
 53 48  1  6  0  0  0
 53 51  1  0  0  0  0
 53 52  1  0  0  0  0
 54 46  1  0  0  0  0
 55 44  1  0  0  0  0
M  END
>  <MODEL>
3

>  <REMARK>
 VINA RESULT:      -7.8      2.769      5.289
  Name = 
  11 active torsions:
  status: ('A' for Active; 'I' for Inactive)
    1  A    between atoms: C_6  and  O_46
    2  A    between atoms: N_8  and  C_22
    3  A    between atoms: C_10  and  C_32
    4  A    between atoms: O_19  and  C_40
    5  A    between atoms: O_19  and  C_45
    6  A    between atoms: C_22  and  C_35
    7  A    between atoms: C_22  and  O_46
    8  A    between atoms: C_27  and  C_54
    9  A    between atoms: C_35  and  C_43
   10  A    between atoms: C_43  and  C_51
   11  A    between atoms: C_51  and  C_54
                            x       y       z     vdW  Elec       q    Type
                         _______ _______ _______ _____ _____    ______ ____

>  <TORSDO>
F 11

$$$$
=
 OpenBabel11052419383D

 55 59  0  0  1  0  0  0  0  0999 V2000
  193.6270  171.1640  139.7210 C   0  0  1  0  0  3  0  0  0  0  0  0
  193.5110  173.9540  142.8450 C   0  0  0  0  0  2  0  0  0  0  0  0
  197.5480  175.4600  136.7040 C   0  0  0  0  0  2  0  0  0  0  0  0
  193.7610  172.4650  143.0190 C   0  0  0  0  0  2  0  0  0  0  0  0
  196.8160  174.2660  142.2130 O   0  0  0  0  0  0  0  0  0  0  0  0
  195.3820  175.5680  140.8210 C   0  0  2  0  0  3  0  0  0  0  0  0
  195.1360  176.9140  141.1080 O   0  0  0  0  0  1  0  0  0  0  0  0
  192.1070  169.9070  141.1920 C   0  0  0  0  0  0  0  0  0  0  0  0
  195.7330  174.8260  142.0950 C   0  0  0  0  0  0  0  0  0  0  0  0
  192.4570  171.6960  142.8640 C   0  0  1  0  0  3  0  0  0  0  0  0
  194.8890  170.9890  138.8940 C   0  0  0  0  0  2  0  0  0  0  0  0
  192.7310  170.2410  142.5120 C   0  0  0  0  0  2  0  0  0  0  0  0
  195.0970  174.8240  136.3000 C   0  0  2  0  0  3  0  0  0  0  0  0
  195.7660  173.1740  139.1290 C   0  0  0  0  0  3  0  0  0  0  0  0
  197.4260  174.3650  137.7580 C   0  0  0  0  0  2  0  0  0  0  0  0
  196.4860  175.4680  139.7670 C   0  0  0  0  0  2  0  0  0  0  0  0
  194.9820  175.1340  137.7950 C   0  0  0  0  0  2  0  0  0  0  0  0
  192.4270  170.7710  138.8940 C   0  0  0  0  0  2  0  0  0  0  0  0
  192.9570  169.8240  139.9580 C   0  0  1  0  0  3  0  0  0  0  0  0
  194.7550  174.7370  143.2370 C   0  0  1  0  0  3  0  0  0  0  0  0
  196.3940  175.3960  135.7020 C   0  0  0  0  0  2  0  0  0  0  0  0
  195.2990  172.2620  138.3580 N   0  0  0  0  0  0  0  0  0  0  0  0
  196.1530  174.5270  138.6020 C   0  0  2  0  0  0  0  0  0  0  0  0
  190.9090  169.6700  141.1330 O   0  0  0  0  0  0  0  0  0  0  0  0
  193.8490  175.2540  135.5400 C   0  0  0  0  0  3  0  0  0  0  0  0
  194.0880  176.5530  134.8060 C   0  0  0  0  0  1  0  0  0  0  0  0
  192.6370  175.3810  136.4460 C   0  0  0  0  0  1  0  0  0  0  0  0
  194.3930  176.0180  143.6880 O   0  0  0  0  0  0  0  0  0  0  0  0
  196.2780  177.2670  144.1040 F   0  0  0  0  0  0  0  0  0  0  0  0
  195.9540  175.3270  145.2350 F   0  0  0  0  0  0  0  0  0  0  0  0
  194.6010  177.1770  145.7470 C   0  0  0  0  0  1  0  0  0  0  0  0
  195.3300  176.4220  144.6590 C   0  0  0  0  0  0  0  0  0  0  0  0
  191.5460  171.8450  144.0920 C   0  0  0  0  0  2  0  0  0  0  0  0
  190.0690  172.0390  143.7440 C   0  0  0  0  0  2  0  0  0  0  0  0
  189.8570  173.1240  141.6090 O   0  0  0  0  0  1  0  0  0  0  0  0
  189.8310  173.3400  142.9880 C   0  0  1  0  0  3  0  0  0  0  0  0
  188.5200  173.9960  143.4190 C   0  0  0  0  0  2  0  0  0  0  0  0
  188.7010  175.3560  144.0980 C   0  0  2  0  0  3  0  0  0  0  0  0
  190.5210  175.1750  147.3590 N   0  0  0  0  0  1  0  0  0  0  0  0
  189.0910  175.1810  145.4970 N   0  0  0  0  0  0  0  0  0  0  0  0
  190.2790  175.3910  145.9750 C   0  0  0  0  0  0  0  0  0  0  0  0
  191.3490  175.8400  145.1410 N   0  0  0  0  0  1  0  0  0  0  0  0
  187.5340  176.1260  144.0040 O   0  0  0  0  0  0  0  0  0  0  0  0
  185.7030  178.5190  144.6570 C   0  0  2  0  0  3  0  0  0  0  0  0
  187.9510  177.4600  143.9470 C   0  0  1  0  0  3  0  0  0  0  0  0
  183.6660  178.0800  141.6410 C   0  0  0  0  0  2  0  0  0  0  0  0
  188.7450  178.3030  141.7860 C   0  0  0  0  0  2  0  0  0  0  0  0
  187.7050  178.0330  142.5760 C   0  0  0  0  0  0  0  0  0  0  0  0
  184.8340  177.8280  145.6920 C   0  0  0  0  0  1  0  0  0  0  0  0
  184.7110  178.4790  140.5890 C   0  0  0  0  0  2  0  0  0  0  0  0
  185.9620  177.9350  140.9380 O   0  0  0  0  0  0  0  0  0  0  0  0
  185.2890  178.0640  143.2470 C   0  0  2  0  0  3  0  0  0  0  0  0
  186.3290  178.4840  142.1840 C   0  0  1  0  0  3  0  0  0  0  0  0
  184.0250  178.5990  142.9050 O   0  0  0  0  0  0  0  0  0  0  0  0
  187.1870  178.2780  144.9920 C   0  0  0  0  0  2  0  0  0  0  0  0
  1 18  1  6  0  0  0
  1 19  1  0  0  0  0
  2  4  1  0  0  0  0
  2 20  1  0  0  0  0
  3 15  1  0  0  0  0
  6  7  1  1  0  0  0
  6  9  1  0  0  0  0
  8 12  1  0  0  0  0
  9  5  2  0  0  0  0
  9 20  1  0  0  0  0
 10  4  1  0  0  0  0
 10 33  1  1  0  0  0
 11  1  1  0  0  0  0
 12 10  1  0  0  0  0
 13 25  1  6  0  0  0
 13 17  1  0  0  0  0
 16  6  1  0  0  0  0
 17 23  1  0  0  0  0
 19 18  1  6  0  0  0
 19  8  1  0  0  0  0
 20 28  1  6  0  0  0
 21 13  1  0  0  0  0
 21  3  1  0  0  0  0
 22 11  1  0  0  0  0
 22 14  2  0  0  0  0
 23 15  1  6  0  0  0
 23 14  1  0  0  0  0
 23 16  1  0  0  0  0
 24  8  2  0  0  0  0
 25 27  1  0  0  0  0
 26 25  1  0  0  0  0
 28 32  1  0  0  0  0
 29 32  1  0  0  0  0
 32 30  1  0  0  0  0
 32 31  1  0  0  0  0
 34 33  1  0  0  0  0
 36 35  1  6  0  0  0
 36 37  1  0  0  0  0
 36 34  1  0  0  0  0
 38 37  1  1  0  0  0
 38 40  1  0  0  0  0
 40 41  2  0  0  0  0
 41 39  1  0  0  0  0
 42 41  1  0  0  0  0
 43 38  1  0  0  0  0
 44 55  1  0  0  0  0
 44 49  1  1  0  0  0
 45 43  1  6  0  0  0
 45 55  1  0  0  0  0
 46 54  1  0  0  0  0
 47 48  2  0  0  0  0
 48 45  1  0  0  0  0
 50 51  1  0  0  0  0
 50 46  1  0  0  0  0
 52 54  1  6  0  0  0
 52 44  1  0  0  0  0
 53 51  1  6  0  0  0
 53 48  1  0  0  0  0
 53 52  1  0  0  0  0
M  END
>  <MODEL>
4

>  <REMARK>
 VINA RESULT:      -7.6      1.894      2.541
  Name = 
  11 active torsions:
  status: ('A' for Active; 'I' for Inactive)
    1  A    between atoms: C_6  and  O_46
    2  A    between atoms: N_8  and  C_22
    3  A    between atoms: C_10  and  C_32
    4  A    between atoms: O_19  and  C_40
    5  A    between atoms: O_19  and  C_45
    6  A    between atoms: C_22  and  C_35
    7  A    between atoms: C_22  and  O_46
    8  A    between atoms: C_27  and  C_54
    9  A    between atoms: C_35  and  C_43
   10  A    between atoms: C_43  and  C_51
   11  A    between atoms: C_51  and  C_54
                            x       y       z     vdW  Elec       q    Type
                         _______ _______ _______ _____ _____    ______ ____

>  <TORSDO>
F 11

$$$$
=
 OpenBabel11052419383D

 55 59  0  0  1  0  0  0  0  0999 V2000
  191.4220  172.5820  140.5760 C   0  0  1  0  0  3  0  0  0  0  0  0
  192.3870  175.2570  143.6540 C   0  0  0  0  0  2  0  0  0  0  0  0
  197.5660  173.5330  138.5070 C   0  0  0  0  0  2  0  0  0  0  0  0
  191.6940  173.9190  143.8510 C   0  0  0  0  0  2  0  0  0  0  0  0
  195.3110  173.5630  143.7250 O   0  0  0  0  0  0  0  0  0  0  0  0
  195.1700  175.2920  142.0880 C   0  0  2  0  0  3  0  0  0  0  0  0
  195.7030  176.5600  142.3400 O   0  0  0  0  0  1  0  0  0  0  0  0
  189.2230  172.5790  141.6790 C   0  0  0  0  0  0  0  0  0  0  0  0
  194.7940  174.6230  143.3950 C   0  0  0  0  0  0  0  0  0  0  0  0
  190.2390  174.0170  143.4170 C   0  0  1  0  0  3  0  0  0  0  0  0
  192.4720  171.6330  140.0260 C   0  0  0  0  0  2  0  0  0  0  0  0
  189.6770  172.6370  143.1050 C   0  0  0  0  0  2  0  0  0  0  0  0
  195.3190  174.3650  137.5940 C   0  0  2  0  0  3  0  0  0  0  0  0
  194.3930  172.9410  140.4730 C   0  0  0  0  0  3  0  0  0  0  0  0
  196.6480  172.8210  139.4950 C   0  0  0  0  0  2  0  0  0  0  0  0
  196.1800  174.4710  141.2840 C   0  0  0  0  0  2  0  0  0  0  0  0
  195.1410  174.8430  139.0380 C   0  0  0  0  0  2  0  0  0  0  0  0
  190.3870  172.8560  139.5120 C   0  0  0  0  0  2  0  0  0  0  0  0
  190.0710  171.8960  140.6470 C   0  0  1  0  0  3  0  0  0  0  0  0
  193.7600  175.2290  144.3080 C   0  0  1  0  0  3  0  0  0  0  0  0
  196.7900  174.0300  137.2870 C   0  0  0  0  0  2  0  0  0  0  0  0
  193.6310  172.3810  139.6070 N   0  0  0  0  0  0  0  0  0  0  0  0
  195.5770  173.7680  140.0600 C   0  0  2  0  0  0  0  0  0  0  0  0
  188.1430  173.0610  141.3700 O   0  0  0  0  0  0  0  0  0  0  0  0
  194.7100  175.3450  136.6000 C   0  0  0  0  0  3  0  0  0  0  0  0
  193.7670  174.6350  135.6570 C   0  0  0  0  0  1  0  0  0  0  0  0
  195.7660  176.1000  135.8120 C   0  0  0  0  0  1  0  0  0  0  0  0
  194.1330  176.5280  144.6950 O   0  0  0  0  0  0  0  0  0  0  0  0
  194.8990  177.7390  146.4940 F   0  0  0  0  0  0  0  0  0  0  0  0
  195.2960  175.5060  146.4010 F   0  0  0  0  0  0  0  0  0  0  0  0
  193.1080  176.2530  146.8160 C   0  0  0  0  0  1  0  0  0  0  0  0
  194.4000  176.5140  146.0780 C   0  0  0  0  0  0  0  0  0  0  0  0
  189.3800  174.7880  144.4320 C   0  0  0  0  0  2  0  0  0  0  0  0
  189.8730  174.6670  145.8740 C   0  0  0  0  0  2  0  0  0  0  0  0
  189.7010  176.9520  146.6050 O   0  0  0  0  0  1  0  0  0  0  0  0
  189.1840  175.6680  146.7940 C   0  0  1  0  0  3  0  0  0  0  0  0
  187.6700  175.6490  146.5950 C   0  0  0  0  0  2  0  0  0  0  0  0
  187.0990  176.9650  146.0610 C   0  0  2  0  0  3  0  0  0  0  0  0
  184.1570  178.2790  147.9560 N   0  0  0  0  0  1  0  0  0  0  0  0
  185.7740  177.2160  146.6290 N   0  0  0  0  0  0  0  0  0  0  0  0
  185.4890  178.1520  147.4810 C   0  0  0  0  0  0  0  0  0  0  0  0
  186.4870  179.0630  147.9470 N   0  0  0  0  0  1  0  0  0  0  0  0
  187.0420  176.9590  144.6610 O   0  0  0  0  0  0  0  0  0  0  0  0
  185.5730  179.3480  143.3810 C   0  0  2  0  0  3  0  0  0  0  0  0
  187.6830  178.1290  144.2390 C   0  0  1  0  0  3  0  0  0  0  0  0
  184.8570  177.5410  140.2730 C   0  0  0  0  0  2  0  0  0  0  0  0
  189.4090  177.9100  142.5120 C   0  0  0  0  0  2  0  0  0  0  0  0
  188.1110  178.0090  142.8010 C   0  0  0  0  0  0  0  0  0  0  0  0
  184.2540  179.1870  144.1150 C   0  0  0  0  0  1  0  0  0  0  0  0
  186.2880  177.4380  139.7240 C   0  0  0  0  0  2  0  0  0  0  0  0
  187.1760  177.1380  140.7760 O   0  0  0  0  0  0  0  0  0  0  0  0
  185.6770  178.2930  142.2670 C   0  0  2  0  0  3  0  0  0  0  0  0
  187.1110  178.2030  141.6990 C   0  0  1  0  0  3  0  0  0  0  0  0
  184.7740  178.5860  141.2190 O   0  0  0  0  0  0  0  0  0  0  0  0
  186.7310  179.3180  144.3960 C   0  0  0  0  0  2  0  0  0  0  0  0
  1 18  1  6  0  0  0
  1 19  1  0  0  0  0
  2  4  1  0  0  0  0
  2 20  1  0  0  0  0
  3 15  1  0  0  0  0
  6  7  1  1  0  0  0
  6  9  1  0  0  0  0
  8 12  1  0  0  0  0
  9  5  2  0  0  0  0
  9 20  1  0  0  0  0
 10  4  1  0  0  0  0
 10 33  1  1  0  0  0
 11  1  1  0  0  0  0
 12 10  1  0  0  0  0
 13 25  1  6  0  0  0
 13 17  1  0  0  0  0
 15 23  1  0  0  0  0
 16  6  1  0  0  0  0
 19 18  1  6  0  0  0
 19  8  1  0  0  0  0
 20 28  1  6  0  0  0
 21 13  1  0  0  0  0
 21  3  1  0  0  0  0
 22 11  1  0  0  0  0
 22 14  2  0  0  0  0
 23 17  1  6  0  0  0
 23 14  1  0  0  0  0
 23 16  1  0  0  0  0
 24  8  2  0  0  0  0
 26 25  1  0  0  0  0
 27 25  1  0  0  0  0
 28 32  1  0  0  0  0
 32 30  1  0  0  0  0
 32 29  1  0  0  0  0
 32 31  1  0  0  0  0
 33 34  1  0  0  0  0
 34 36  1  0  0  0  0
 36 35  1  6  0  0  0
 37 36  1  0  0  0  0
 38 37  1  1  0  0  0
 38 40  1  0  0  0  0
 40 41  2  0  0  0  0
 41 42  1  0  0  0  0
 41 39  1  0  0  0  0
 43 38  1  0  0  0  0
 44 49  1  1  0  0  0
 44 55  1  0  0  0  0
 45 55  1  0  0  0  0
 45 43  1  6  0  0  0
 46 54  1  0  0  0  0
 47 48  2  0  0  0  0
 48 45  1  0  0  0  0
 50 46  1  0  0  0  0
 50 51  1  0  0  0  0
 52 54  1  6  0  0  0
 52 44  1  0  0  0  0
 53 51  1  6  0  0  0
 53 52  1  0  0  0  0
 53 48  1  0  0  0  0
M  END
>  <MODEL>
5

>  <REMARK>
 VINA RESULT:      -7.5      2.574      3.981
  Name = 
  11 active torsions:
  status: ('A' for Active; 'I' for Inactive)
    1  A    between atoms: C_6  and  O_46
    2  A    between atoms: N_8  and  C_22
    3  A    between atoms: C_10  and  C_32
    4  A    between atoms: O_19  and  C_40
    5  A    between atoms: O_19  and  C_45
    6  A    between atoms: C_22  and  C_35
    7  A    between atoms: C_22  and  O_46
    8  A    between atoms: C_27  and  C_54
    9  A    between atoms: C_35  and  C_43
   10  A    between atoms: C_43  and  C_51
   11  A    between atoms: C_51  and  C_54
                            x       y       z     vdW  Elec       q    Type
                         _______ _______ _______ _____ _____    ______ ____

>  <TORSDO>
F 11

$$$$
=
 OpenBabel11052419383D

 55 59  0  0  1  0  0  0  0  0999 V2000
  192.5230  171.9690  137.3980 C   0  0  1  0  0  3  0  0  0  0  0  0
  193.8700  173.0430  141.2170 C   0  0  0  0  0  2  0  0  0  0  0  0
  197.9400  174.9320  135.2040 C   0  0  0  0  0  2  0  0  0  0  0  0
  193.3730  171.6600  140.8280 C   0  0  0  0  0  2  0  0  0  0  0  0
  196.8910  172.1080  140.0250 O   0  0  0  0  0  0  0  0  0  0  0  0
  196.2250  174.3340  139.4890 C   0  0  2  0  0  3  0  0  0  0  0  0
  196.6730  175.4180  140.2520 O   0  0  0  0  0  1  0  0  0  0  0  0
  190.6300  171.0310  138.6600 C   0  0  0  0  0  0  0  0  0  0  0  0
  196.2120  173.0780  140.3370 C   0  0  0  0  0  0  0  0  0  0  0  0
  191.8560  171.6670  140.7140 C   0  0  1  0  0  3  0  0  0  0  0  0
  193.5150  171.6040  136.3070 C   0  0  0  0  0  2  0  0  0  0  0  0
  191.3780  170.5090  139.8480 C   0  0  0  0  0  2  0  0  0  0  0  0
  195.4770  175.6420  135.1530 C   0  0  2  0  0  3  0  0  0  0  0  0
  195.3490  172.8990  137.0580 C   0  0  0  0  0  3  0  0  0  0  0  0
  197.3350  173.6820  135.8350 C   0  0  0  0  0  2  0  0  0  0  0  0
  197.1100  174.1900  138.2500 C   0  0  0  0  0  2  0  0  0  0  0  0
  195.5720  175.3520  136.6530 C   0  0  0  0  0  2  0  0  0  0  0  0
  191.2580  172.4990  136.7680 C   0  0  0  0  0  2  0  0  0  0  0  0
  191.2950  171.0820  137.3160 C   0  0  1  0  0  3  0  0  0  0  0  0
  195.3490  172.9800  141.5680 C   0  0  1  0  0  3  0  0  0  0  0  0
  196.8700  175.7770  134.5130 C   0  0  0  0  0  2  0  0  0  0  0  0
  194.4740  172.6680  136.1490 N   0  0  0  0  0  0  0  0  0  0  0  0
  196.3260  174.0330  136.9390 C   0  0  2  0  0  0  0  0  0  0  0  0
  189.4660  171.3840  138.7870 O   0  0  0  0  0  0  0  0  0  0  0  0
  194.5700  176.8330  134.8680 C   0  0  0  0  0  3  0  0  0  0  0  0
  195.3710  178.1120  134.8020 C   0  0  0  0  0  1  0  0  0  0  0  0
  193.4550  176.9670  135.8900 C   0  0  0  0  0  1  0  0  0  0  0  0
  195.6680  173.9970  142.4850 O   0  0  0  0  0  0  0  0  0  0  0  0
  196.6300  172.2020  143.5530 F   0  0  0  0  0  0  0  0  0  0  0  0
  194.7800  173.1670  144.4430 F   0  0  0  0  0  0  0  0  0  0  0  0
  196.8200  174.3290  144.5320 C   0  0  0  0  0  1  0  0  0  0  0  0
  195.9460  173.3940  143.7280 C   0  0  0  0  0  0  0  0  0  0  0  0
  191.1680  171.6980  142.0870 C   0  0  0  0  0  2  0  0  0  0  0  0
  190.1480  172.8260  142.2410 C   0  0  0  0  0  2  0  0  0  0  0  0
  189.2240  172.0260  144.3120 O   0  0  0  0  0  1  0  0  0  0  0  0
  189.8440  173.1200  143.7050 C   0  0  1  0  0  3  0  0  0  0  0  0
  191.1080  173.5260  144.4600 C   0  0  0  0  0  2  0  0  0  0  0  0
  191.2170  175.0300  144.7240 C   0  0  2  0  0  3  0  0  0  0  0  0
  194.3120  176.1140  146.5170 N   0  0  0  0  0  1  0  0  0  0  0  0
  192.2640  175.3030  145.7080 N   0  0  0  0  0  0  0  0  0  0  0  0
  193.3780  175.9220  145.4640 C   0  0  0  0  0  0  0  0  0  0  0  0
  193.6820  176.4200  144.1600 N   0  0  0  0  0  1  0  0  0  0  0  0
  189.9890  175.5560  145.1510 O   0  0  0  0  0  0  0  0  0  0  0  0
  187.7240  177.5230  145.8620 C   0  0  2  0  0  3  0  0  0  0  0  0
  190.1410  176.9470  145.1530 C   0  0  1  0  0  3  0  0  0  0  0  0
  185.8400  176.8240  142.7960 C   0  0  0  0  0  2  0  0  0  0  0  0
  190.7790  178.0150  143.0400 C   0  0  0  0  0  2  0  0  0  0  0  0
  189.8030  177.5180  143.8010 C   0  0  0  0  0  0  0  0  0  0  0  0
  186.9940  176.6350  146.8540 C   0  0  0  0  0  1  0  0  0  0  0  0
  186.7990  177.4590  141.7780 C   0  0  0  0  0  2  0  0  0  0  0  0
  188.1290  177.1520  142.1290 O   0  0  0  0  0  0  0  0  0  0  0  0
  187.4190  177.0550  144.4290 C   0  0  2  0  0  3  0  0  0  0  0  0
  188.3700  177.7110  143.4020 C   0  0  1  0  0  3  0  0  0  0  0  0
  186.0800  177.3500  144.0850 O   0  0  0  0  0  0  0  0  0  0  0  0
  189.2230  177.5590  146.2140 C   0  0  0  0  0  2  0  0  0  0  0  0
  1 11  1  6  0  0  0
  2 20  1  0  0  0  0
  3 15  1  0  0  0  0
  4  2  1  0  0  0  0
  5  9  2  0  0  0  0
  6  7  1  1  0  0  0
  6  9  1  0  0  0  0
  8 24  2  0  0  0  0
  8 12  1  0  0  0  0
  9 20  1  0  0  0  0
 10  4  1  0  0  0  0
 10 33  1  1  0  0  0
 12 10  1  0  0  0  0
 13 25  1  1  0  0  0
 13 17  1  0  0  0  0
 16  6  1  0  0  0  0
 17 23  1  0  0  0  0
 18  1  1  0  0  0  0
 19 18  1  6  0  0  0
 19  1  1  0  0  0  0
 19  8  1  0  0  0  0
 20 28  1  1  0  0  0
 21 13  1  0  0  0  0
 21  3  1  0  0  0  0
 22 11  1  0  0  0  0
 22 14  2  0  0  0  0
 23 15  1  6  0  0  0
 23 14  1  0  0  0  0
 23 16  1  0  0  0  0
 25 27  1  0  0  0  0
 26 25  1  0  0  0  0
 28 32  1  0  0  0  0
 29 32  1  0  0  0  0
 32 30  1  0  0  0  0
 32 31  1  0  0  0  0
 33 34  1  0  0  0  0
 34 36  1  0  0  0  0
 36 35  1  1  0  0  0
 36 37  1  0  0  0  0
 38 37  1  1  0  0  0
 38 43  1  0  0  0  0
 38 40  1  0  0  0  0
 41 40  2  0  0  0  0
 41 39  1  0  0  0  0
 42 41  1  0  0  0  0
 44 55  1  0  0  0  0
 44 49  1  1  0  0  0
 45 43  1  6  0  0  0
 45 55  1  0  0  0  0
 46 54  1  0  0  0  0
 47 48  2  0  0  0  0
 48 45  1  0  0  0  0
 50 51  1  0  0  0  0
 50 46  1  0  0  0  0
 52 54  1  6  0  0  0
 52 44  1  0  0  0  0
 53 51  1  6  0  0  0
 53 48  1  0  0  0  0
 53 52  1  0  0  0  0
M  END
>  <MODEL>
6

>  <REMARK>
 VINA RESULT:      -7.0      2.583      3.682
  Name = 
  11 active torsions:
  status: ('A' for Active; 'I' for Inactive)
    1  A    between atoms: C_6  and  O_46
    2  A    between atoms: N_8  and  C_22
    3  A    between atoms: C_10  and  C_32
    4  A    between atoms: O_19  and  C_40
    5  A    between atoms: O_19  and  C_45
    6  A    between atoms: C_22  and  C_35
    7  A    between atoms: C_22  and  O_46
    8  A    between atoms: C_27  and  C_54
    9  A    between atoms: C_35  and  C_43
   10  A    between atoms: C_43  and  C_51
   11  A    between atoms: C_51  and  C_54
                            x       y       z     vdW  Elec       q    Type
                         _______ _______ _______ _____ _____    ______ ____

>  <TORSDO>
F 11

$$$$
=
 OpenBabel11052419383D

 55 59  0  0  1  0  0  0  0  0999 V2000
  190.9720  173.0070  137.1850 C   0  0  1  0  0  3  0  0  0  0  0  0
  191.7550  171.9890  141.1730 C   0  0  0  0  0  2  0  0  0  0  0  0
  197.2740  171.5730  136.1090 C   0  0  0  0  0  2  0  0  0  0  0  0
  190.5630  171.4970  140.3690 C   0  0  0  0  0  2  0  0  0  0  0  0
  193.5150  169.4490  139.8060 O   0  0  0  0  0  0  0  0  0  0  0  0
  194.6770  171.5250  139.9700 C   0  0  2  0  0  3  0  0  0  0  0  0
  195.5450  171.7760  141.0370 O   0  0  0  0  0  1  0  0  0  0  0  0
  188.7210  173.4740  138.0630 C   0  0  0  0  0  0  0  0  0  0  0  0
  193.6230  170.5200  140.3890 C   0  0  0  0  0  0  0  0  0  0  0  0
  189.5320  172.6070  140.2340 C   0  0  1  0  0  3  0  0  0  0  0  0
  191.6730  172.2770  136.0530 C   0  0  0  0  0  2  0  0  0  0  0  0
  188.6160  172.3480  139.0460 C   0  0  0  0  0  2  0  0  0  0  0  0
  196.0410  173.8180  136.2340 C   0  0  2  0  0  3  0  0  0  0  0  0
  193.6580  171.6830  137.1990 C   0  0  0  0  0  3  0  0  0  0  0  0
  195.8610  171.0390  136.3130 C   0  0  0  0  0  2  0  0  0  0  0  0
  195.4860  171.0490  138.7620 C   0  0  0  0  0  2  0  0  0  0  0  0
  195.5650  173.2500  137.5740 C   0  0  0  0  0  2  0  0  0  0  0  0
  190.5900  174.3940  136.7260 C   0  0  0  0  0  2  0  0  0  0  0  0
  189.5330  173.3070  136.8120 C   0  0  1  0  0  3  0  0  0  0  0  0
  192.6670  170.8200  141.5140 C   0  0  1  0  0  3  0  0  0  0  0  0
  197.2560  173.0440  135.6920 C   0  0  0  0  0  2  0  0  0  0  0  0
  193.1000  172.3370  136.2480 N   0  0  0  0  0  0  0  0  0  0  0  0
  195.1350  171.7690  137.4530 C   0  0  2  0  0  0  0  0  0  0  0  0
  188.1150  174.5140  138.2710 O   0  0  0  0  0  0  0  0  0  0  0  0
  196.2770  175.3210  136.3140 C   0  0  0  0  0  3  0  0  0  0  0  0
  195.1330  176.0770  135.6790 C   0  0  0  0  0  1  0  0  0  0  0  0
  197.5930  175.7330  135.6780 C   0  0  0  0  0  1  0  0  0  0  0  0
  193.3640  171.0870  142.7050 O   0  0  0  0  0  0  0  0  0  0  0  0
  192.3820  169.0460  143.1040 F   0  0  0  0  0  0  0  0  0  0  0  0
  191.9640  170.7770  144.5090 F   0  0  0  0  0  0  0  0  0  0  0  0
  194.0890  169.7760  144.5440 C   0  0  0  0  0  1  0  0  0  0  0  0
  192.9120  170.1860  143.6890 C   0  0  0  0  0  0  0  0  0  0  0  0
  188.7530  172.8390  141.5380 C   0  0  0  0  0  2  0  0  0  0  0  0
  189.2840  174.0040  142.3750 C   0  0  0  0  0  2  0  0  0  0  0  0
  189.3160  172.2230  143.9910 O   0  0  0  0  0  1  0  0  0  0  0  0
  189.5900  173.5800  143.8060 C   0  0  1  0  0  3  0  0  0  0  0  0
  191.0350  173.9060  144.1810 C   0  0  0  0  0  2  0  0  0  0  0  0
  191.2100  175.2790  144.8360 C   0  0  2  0  0  3  0  0  0  0  0  0
  194.5610  175.6550  146.4510 N   0  0  0  0  0  1  0  0  0  0  0  0
  192.3560  175.2690  145.7470 N   0  0  0  0  0  0  0  0  0  0  0  0
  193.5350  175.7340  145.4710 C   0  0  0  0  0  0  0  0  0  0  0  0
  193.8220  176.3320  144.2050 N   0  0  0  0  0  1  0  0  0  0  0  0
  190.0460  175.6670  145.5130 O   0  0  0  0  0  0  0  0  0  0  0  0
  187.6050  177.4270  146.1830 C   0  0  2  0  0  3  0  0  0  0  0  0
  190.0970  177.0610  145.6100 C   0  0  1  0  0  3  0  0  0  0  0  0
  185.9790  176.8050  142.9560 C   0  0  0  0  0  2  0  0  0  0  0  0
  190.7940  178.3050  143.6160 C   0  0  0  0  0  2  0  0  0  0  0  0
  189.8090  177.6960  144.2750 C   0  0  0  0  0  0  0  0  0  0  0  0
  186.8770  176.4290  147.0660 C   0  0  0  0  0  1  0  0  0  0  0  0
  186.9550  177.5690  142.0490 C   0  0  0  0  0  2  0  0  0  0  0  0
  188.2770  177.3290  142.4710 O   0  0  0  0  0  0  0  0  0  0  0  0
  187.4280  177.0340  144.7060 C   0  0  2  0  0  3  0  0  0  0  0  0
  188.3940  177.8180  143.7900 C   0  0  1  0  0  3  0  0  0  0  0  0
  186.0960  177.2610  144.2880 O   0  0  0  0  0  0  0  0  0  0  0  0
  189.0710  177.5400  146.6400 C   0  0  0  0  0  2  0  0  0  0  0  0
  1 11  1  6  0  0  0
  2 20  1  0  0  0  0
  3 15  1  0  0  0  0
  4  2  1  0  0  0  0
  5  9  2  0  0  0  0
  6  9  1  0  0  0  0
  6  7  1  1  0  0  0
  8 24  2  0  0  0  0
  8 12  1  0  0  0  0
  9 20  1  0  0  0  0
 10  4  1  0  0  0  0
 10 33  1  1  0  0  0
 11 22  1  0  0  0  0
 12 10  1  0  0  0  0
 13 25  1  1  0  0  0
 13 17  1  0  0  0  0
 14 23  1  0  0  0  0
 16  6  1  0  0  0  0
 18  1  1  0  0  0  0
 19 18  1  1  0  0  0
 19  1  1  0  0  0  0
 19  8  1  0  0  0  0
 20 28  1  1  0  0  0
 21  3  1  0  0  0  0
 21 13  1  0  0  0  0
 22 14  2  0  0  0  0
 23 15  1  6  0  0  0
 23 17  1  0  0  0  0
 23 16  1  0  0  0  0
 26 25  1  0  0  0  0
 27 25  1  0  0  0  0
 28 32  1  0  0  0  0
 29 32  1  0  0  0  0
 32 30  1  0  0  0  0
 32 31  1  0  0  0  0
 33 34  1  0  0  0  0
 34 36  1  0  0  0  0
 36 35  1  6  0  0  0
 36 37  1  0  0  0  0
 38 37  1  1  0  0  0
 38 43  1  0  0  0  0
 38 40  1  0  0  0  0
 41 40  2  0  0  0  0
 41 39  1  0  0  0  0
 42 41  1  0  0  0  0
 44 55  1  0  0  0  0
 44 49  1  1  0  0  0
 45 43  1  6  0  0  0
 45 55  1  0  0  0  0
 46 54  1  0  0  0  0
 47 48  2  0  0  0  0
 48 45  1  0  0  0  0
 50 51  1  0  0  0  0
 50 46  1  0  0  0  0
 52 54  1  6  0  0  0
 52 44  1  0  0  0  0
 53 51  1  6  0  0  0
 53 48  1  0  0  0  0
 53 52  1  0  0  0  0
M  END
>  <MODEL>
7

>  <REMARK>
 VINA RESULT:      -7.0      2.960      4.821
  Name = 
  11 active torsions:
  status: ('A' for Active; 'I' for Inactive)
    1  A    between atoms: C_6  and  O_46
    2  A    between atoms: N_8  and  C_22
    3  A    between atoms: C_10  and  C_32
    4  A    between atoms: O_19  and  C_40
    5  A    between atoms: O_19  and  C_45
    6  A    between atoms: C_22  and  C_35
    7  A    between atoms: C_22  and  O_46
    8  A    between atoms: C_27  and  C_54
    9  A    between atoms: C_35  and  C_43
   10  A    between atoms: C_43  and  C_51
   11  A    between atoms: C_51  and  C_54
                            x       y       z     vdW  Elec       q    Type
                         _______ _______ _______ _____ _____    ______ ____

>  <TORSDO>
F 11

$$$$
=
 OpenBabel11052419383D

 55 59  0  0  1  0  0  0  0  0999 V2000
  195.3390  174.2400  144.6500 C   0  0  1  0  0  3  0  0  0  0  0  0
  191.6720  173.4460  142.7850 C   0  0  0  0  0  2  0  0  0  0  0  0
  197.2160  168.4150  142.3090 C   0  0  0  0  0  2  0  0  0  0  0  0
  192.4360  174.7560  142.6770 C   0  0  0  0  0  2  0  0  0  0  0  0
  193.6080  172.3020  140.2630 O   0  0  0  0  0  0  0  0  0  0  0  0
  193.1990  170.7470  142.0240 C   0  0  2  0  0  3  0  0  0  0  0  0
  192.1880  169.7870  141.9100 O   0  0  0  0  0  1  0  0  0  0  0  0
  194.1920  176.3010  145.3500 C   0  0  0  0  0  0  0  0  0  0  0  0
  192.8620  171.9520  141.1700 C   0  0  0  0  0  0  0  0  0  0  0  0
  192.2840  175.5540  143.9630 C   0  0  1  0  0  3  0  0  0  0  0  0
  196.6380  173.7620  144.0250 C   0  0  0  0  0  2  0  0  0  0  0  0
  193.4100  176.5690  144.1010 C   0  0  0  0  0  2  0  0  0  0  0  0
  196.5970  169.1730  144.6790 C   0  0  2  0  0  3  0  0  0  0  0  0
  195.7960  171.8710  142.8760 C   0  0  0  0  0  3  0  0  0  0  0  0
  196.9780  169.8920  142.0150 C   0  0  0  0  0  2  0  0  0  0  0  0
  194.5390  170.1170  141.6400 C   0  0  0  0  0  2  0  0  0  0  0  0
  195.3360  169.6750  143.9700 C   0  0  0  0  0  2  0  0  0  0  0  0
  195.5170  174.3670  146.1440 C   0  0  0  0  0  2  0  0  0  0  0  0
  195.5220  175.6110  145.2720 C   0  0  1  0  0  3  0  0  0  0  0  0
  191.6200  172.7640  141.4270 C   0  0  1  0  0  3  0  0  0  0  0  0
  197.3720  168.1670  143.8100 C   0  0  0  0  0  2  0  0  0  0  0  0
  196.5670  172.3430  143.7860 N   0  0  0  0  0  0  0  0  0  0  0  0
  195.6680  170.3930  142.6420 C   0  0  2  0  0  0  0  0  0  0  0  0
  193.7550  176.6780  146.4280 O   0  0  0  0  0  0  0  0  0  0  0  0
  196.2850  168.6420  146.0720 C   0  0  0  0  0  3  0  0  0  0  0  0
  195.0750  169.3380  146.6520 C   0  0  0  0  0  1  0  0  0  0  0  0
  197.4650  168.7720  147.0180 C   0  0  0  0  0  1  0  0  0  0  0  0
  190.4690  171.9620  141.3360 O   0  0  0  0  0  0  0  0  0  0  0  0
  190.2420  173.4920  139.6340 F   0  0  0  0  0  0  0  0  0  0  0  0
  188.4390  172.2850  140.2970 F   0  0  0  0  0  0  0  0  0  0  0  0
  190.1540  171.2030  139.1110 C   0  0  0  0  0  1  0  0  0  0  0  0
  189.8140  172.2690  140.1280 C   0  0  0  0  0  0  0  0  0  0  0  0
  190.8940  176.1960  144.0890 C   0  0  0  0  0  2  0  0  0  0  0  0
  190.6920  177.4130  143.1850 C   0  0  0  0  0  2  0  0  0  0  0  0
  189.2120  175.8260  142.1500 O   0  0  0  0  0  1  0  0  0  0  0  0
  189.7380  177.1150  142.0360 C   0  0  1  0  0  3  0  0  0  0  0  0
  188.6260  178.1590  141.9560 C   0  0  0  0  0  2  0  0  0  0  0  0
  187.3130  177.7170  142.6070 C   0  0  2  0  0  3  0  0  0  0  0  0
  184.6560  178.6680  140.1560 N   0  0  0  0  0  1  0  0  0  0  0  0
  186.1720  178.3120  141.9120 N   0  0  0  0  0  0  0  0  0  0  0  0
  185.7820  178.0050  140.7130 C   0  0  0  0  0  0  0  0  0  0  0  0
  186.4590  177.0100  139.9420 N   0  0  0  0  0  1  0  0  0  0  0  0
  187.2890  178.0480  143.9690 O   0  0  0  0  0  0  0  0  0  0  0  0
  184.7730  177.9960  145.7500 C   0  0  2  0  0  3  0  0  0  0  0  0
  186.8360  176.9080  144.6400 C   0  0  1  0  0  3  0  0  0  0  0  0
  186.3090  180.0400  148.3770 C   0  0  0  0  0  2  0  0  0  0  0  0
  188.3510  175.8850  146.2740 C   0  0  0  0  0  2  0  0  0  0  0  0
  187.4440  176.8270  146.0150 C   0  0  0  0  0  0  0  0  0  0  0  0
  183.9760  179.0480  144.9990 C   0  0  0  0  0  1  0  0  0  0  0  0
  187.3460  179.0290  148.8880 C   0  0  0  0  0  2  0  0  0  0  0  0
  187.9240  178.3540  147.7960 O   0  0  0  0  0  0  0  0  0  0  0  0
  185.8580  178.6800  146.6000 C   0  0  2  0  0  3  0  0  0  0  0  0
  186.8900  177.6600  147.1330 C   0  0  1  0  0  3  0  0  0  0  0  0
  185.2740  179.3700  147.6880 O   0  0  0  0  0  0  0  0  0  0  0  0
  185.3100  176.9530  144.7520 C   0  0  0  0  0  2  0  0  0  0  0  0
  1 11  1  6  0  0  0
  1 19  1  0  0  0  0
  1 18  1  0  0  0  0
  3 21  1  0  0  0  0
  4  2  1  0  0  0  0
  4 10  1  0  0  0  0
  5  9  2  0  0  0  0
  6  7  1  6  0  0  0
  8 24  2  0  0  0  0
  9 20  1  0  0  0  0
  9  6  1  0  0  0  0
 10 33  1  6  0  0  0
 10 12  1  0  0  0  0
 12  8  1  0  0  0  0
 13 25  1  1  0  0  0
 14 22  2  0  0  0  0
 15  3  1  0  0  0  0
 15 23  1  0  0  0  0
 16  6  1  0  0  0  0
 17 13  1  0  0  0  0
 19  8  1  0  0  0  0
 19 18  1  1  0  0  0
 20 28  1  1  0  0  0
 20  2  1  0  0  0  0
 21 13  1  0  0  0  0
 22 11  1  0  0  0  0
 23 16  1  6  0  0  0
 23 14  1  0  0  0  0
 23 17  1  0  0  0  0
 25 26  1  0  0  0  0
 25 27  1  0  0  0  0
 29 32  1  0  0  0  0
 31 32  1  0  0  0  0
 32 30  1  0  0  0  0
 32 28  1  0  0  0  0
 34 33  1  0  0  0  0
 36 35  1  1  0  0  0
 36 34  1  0  0  0  0
 37 36  1  0  0  0  0
 38 37  1  6  0  0  0
 38 43  1  0  0  0  0
 39 41  1  0  0  0  0
 40 38  1  0  0  0  0
 41 40  2  0  0  0  0
 42 41  1  0  0  0  0
 44 49  1  6  0  0  0
 44 52  1  0  0  0  0
 45 43  1  1  0  0  0
 45 55  1  0  0  0  0
 45 48  1  0  0  0  0
 46 50  1  0  0  0  0
 48 47  2  0  0  0  0
 51 50  1  0  0  0  0
 52 53  1  0  0  0  0
 52 54  1  1  0  0  0
 53 48  1  6  0  0  0
 53 51  1  0  0  0  0
 54 46  1  0  0  0  0
 55 44  1  0  0  0  0
M  END
>  <MODEL>
8

>  <REMARK>
 VINA RESULT:      -7.0      3.708      6.681
  Name = 
  11 active torsions:
  status: ('A' for Active; 'I' for Inactive)
    1  A    between atoms: C_6  and  O_46
    2  A    between atoms: N_8  and  C_22
    3  A    between atoms: C_10  and  C_32
    4  A    between atoms: O_19  and  C_40
    5  A    between atoms: O_19  and  C_45
    6  A    between atoms: C_22  and  C_35
    7  A    between atoms: C_22  and  O_46
    8  A    between atoms: C_27  and  C_54
    9  A    between atoms: C_35  and  C_43
   10  A    between atoms: C_43  and  C_51
   11  A    between atoms: C_51  and  C_54
                            x       y       z     vdW  Elec       q    Type
                         _______ _______ _______ _____ _____    ______ ____

>  <TORSDO>
F 11

$$$$
=
 OpenBabel11052419383D

 55 59  0  0  1  0  0  0  0  0999 V2000
  191.4970  172.1140  139.9900 C   0  0  1  0  0  3  0  0  0  0  0  0
  193.4100  173.7630  143.3330 C   0  0  0  0  0  2  0  0  0  0  0  0
  197.3850  172.3640  137.1260 C   0  0  0  0  0  2  0  0  0  0  0  0
  192.4700  172.5690  143.3710 C   0  0  0  0  0  2  0  0  0  0  0  0
  195.8750  171.5870  142.5510 O   0  0  0  0  0  0  0  0  0  0  0  0
  195.9110  173.6470  141.3490 C   0  0  2  0  0  3  0  0  0  0  0  0
  196.7370  174.6990  141.7570 O   0  0  0  0  0  1  0  0  0  0  0  0
  189.5100  172.2610  141.4330 C   0  0  0  0  0  0  0  0  0  0  0  0
  195.5660  172.7730  142.5370 C   0  0  0  0  0  0  0  0  0  0  0  0
  191.0300  173.0360  143.2240 C   0  0  1  0  0  3  0  0  0  0  0  0
  192.2340  171.1420  139.0850 C   0  0  0  0  0  2  0  0  0  0  0  0
  190.1430  171.8970  142.7400 C   0  0  0  0  0  2  0  0  0  0  0  0
  195.2790  173.7910  136.8040 C   0  0  2  0  0  3  0  0  0  0  0  0
  194.4370  171.9280  139.4490 C   0  0  0  0  0  3  0  0  0  0  0  0
  196.4660  171.6240  138.0920 C   0  0  0  0  0  2  0  0  0  0  0  0
  196.6040  172.8640  140.2330 C   0  0  0  0  0  2  0  0  0  0  0  0
  195.3950  173.9400  138.3240 C   0  0  0  0  0  2  0  0  0  0  0  0
  190.4200  172.8180  139.1990 C   0  0  0  0  0  2  0  0  0  0  0  0
  190.0490  171.6940  140.1520 C   0  0  1  0  0  3  0  0  0  0  0  0
  194.8150  173.3280  143.7200 C   0  0  1  0  0  3  0  0  0  0  0  0
  196.5880  173.2690  136.1860 C   0  0  0  0  0  2  0  0  0  0  0  0
  193.4650  171.7380  138.6330 N   0  0  0  0  0  0  0  0  0  0  0  0
  195.7110  172.5930  139.0140 C   0  0  2  0  0  0  0  0  0  0  0  0
  188.5310  172.9940  141.4200 O   0  0  0  0  0  0  0  0  0  0  0  0
  194.7780  175.0720  136.1500 C   0  0  0  0  0  3  0  0  0  0  0  0
  195.9060  176.0620  135.9800 C   0  0  0  0  0  1  0  0  0  0  0  0
  193.6370  175.7070  136.9250 C   0  0  0  0  0  1  0  0  0  0  0  0
  195.5110  174.4070  144.2920 O   0  0  0  0  0  0  0  0  0  0  0  0
  194.8130  173.1270  146.0710 F   0  0  0  0  0  0  0  0  0  0  0  0
  195.3870  175.2950  146.4150 F   0  0  0  0  0  0  0  0  0  0  0  0
  197.0780  173.7360  145.9410 C   0  0  0  0  0  1  0  0  0  0  0  0
  195.6520  174.1560  145.6710 C   0  0  0  0  0  0  0  0  0  0  0  0
  190.4980  173.6930  144.5070 C   0  0  0  0  0  2  0  0  0  0  0  0
  190.7240  175.2040  144.5670 C   0  0  0  0  0  2  0  0  0  0  0  0
  190.1220  175.8510  142.3300 O   0  0  0  0  0  1  0  0  0  0  0  0
  189.7490  175.9590  143.6720 C   0  0  1  0  0  3  0  0  0  0  0  0
  188.3160  175.4740  143.8860 C   0  0  0  0  0  2  0  0  0  0  0  0
  187.3080  176.6040  144.1140 C   0  0  2  0  0  3  0  0  0  0  0  0
  186.2470  176.6090  147.6980 N   0  0  0  0  0  1  0  0  0  0  0  0
  186.6120  176.4200  145.3880 N   0  0  0  0  0  0  0  0  0  0  0  0
  187.0210  176.8660  146.5350 C   0  0  0  0  0  0  0  0  0  0  0  0
  188.2320  177.6160  146.6540 N   0  0  0  0  0  1  0  0  0  0  0  0
  186.3900  176.6810  143.0570 O   0  0  0  0  0  0  0  0  0  0  0  0
  184.8720  179.3430  143.3930 C   0  0  2  0  0  3  0  0  0  0  0  0
  186.7040  177.8480  142.3520 C   0  0  1  0  0  3  0  0  0  0  0  0
  181.8410  178.0880  141.7570 C   0  0  0  0  0  2  0  0  0  0  0  0
  186.5660  177.7590  139.9060 C   0  0  0  0  0  2  0  0  0  0  0  0
  185.9250  177.9140  141.0650 C   0  0  0  0  0  0  0  0  0  0  0  0
  184.4970  179.1760  144.8550 C   0  0  0  0  0  1  0  0  0  0  0  0
  182.3810  177.9580  140.3250 C   0  0  0  0  0  2  0  0  0  0  0  0
  183.6880  177.4340  140.3600 O   0  0  0  0  0  0  0  0  0  0  0  0
  183.9590  178.4630  142.5220 C   0  0  2  0  0  3  0  0  0  0  0  0
  184.4900  178.3490  141.0750 C   0  0  1  0  0  3  0  0  0  0  0  0
  182.6430  178.9810  142.5010 O   0  0  0  0  0  0  0  0  0  0  0  0
  186.3770  179.0690  143.2150 C   0  0  0  0  0  2  0  0  0  0  0  0
  1 11  1  6  0  0  0
  1 19  1  0  0  0  0
  2  4  1  0  0  0  0
  2 20  1  0  0  0  0
  3 15  1  0  0  0  0
  6  7  1  1  0  0  0
  6  9  1  0  0  0  0
  8 12  1  0  0  0  0
  9  5  2  0  0  0  0
  9 20  1  0  0  0  0
 10  4  1  0  0  0  0
 10 33  1  1  0  0  0
 12 10  1  0  0  0  0
 13 25  1  6  0  0  0
 13 17  1  0  0  0  0
 16  6  1  0  0  0  0
 17 23  1  0  0  0  0
 18  1  1  0  0  0  0
 19 18  1  6  0  0  0
 19  8  1  0  0  0  0
 20 28  1  6  0  0  0
 21 13  1  0  0  0  0
 21  3  1  0  0  0  0
 22 11  1  0  0  0  0
 22 14  2  0  0  0  0
 23 15  1  6  0  0  0
 23 14  1  0  0  0  0
 23 16  1  0  0  0  0
 24  8  2  0  0  0  0
 25 27  1  0  0  0  0
 26 25  1  0  0  0  0
 28 32  1  0  0  0  0
 32 31  1  0  0  0  0
 32 29  1  0  0  0  0
 32 30  1  0  0  0  0
 33 34  1  0  0  0  0
 36 35  1  6  0  0  0
 36 37  1  0  0  0  0
 36 34  1  0  0  0  0
 38 37  1  6  0  0  0
 38 40  1  0  0  0  0
 40 41  2  0  0  0  0
 41 42  1  0  0  0  0
 41 39  1  0  0  0  0
 43 38  1  0  0  0  0
 44 49  1  1  0  0  0
 45 43  1  1  0  0  0
 45 55  1  0  0  0  0
 46 54  1  0  0  0  0
 47 48  2  0  0  0  0
 48 53  1  0  0  0  0
 48 45  1  0  0  0  0
 50 51  1  0  0  0  0
 50 46  1  0  0  0  0
 52 54  1  6  0  0  0
 52 44  1  0  0  0  0
 53 51  1  6  0  0  0
 53 52  1  0  0  0  0
 55 44  1  0  0  0  0
M  END
>  <MODEL>
9

>  <REMARK>
 VINA RESULT:      -6.9      2.424      3.483
  Name = 
  11 active torsions:
  status: ('A' for Active; 'I' for Inactive)
    1  A    between atoms: C_6  and  O_46
    2  A    between atoms: N_8  and  C_22
    3  A    between atoms: C_10  and  C_32
    4  A    between atoms: O_19  and  C_40
    5  A    between atoms: O_19  and  C_45
    6  A    between atoms: C_22  and  C_35
    7  A    between atoms: C_22  and  O_46
    8  A    between atoms: C_27  and  C_54
    9  A    between atoms: C_35  and  C_43
   10  A    between atoms: C_43  and  C_51
   11  A    between atoms: C_51  and  C_54
                            x       y       z     vdW  Elec       q    Type
                         _______ _______ _______ _____ _____    ______ ____

>  <TORSDO>
F 11

$$$$
