=
 OpenBabel11052418453D

 34 41  0  0  1  0  0  0  0  0999 V2000
  186.9740  177.8120  146.5840 C   0  0  0  0  0  0  0  0  0  0  0  0
  184.9100  178.2570  145.3580 C   0  0  0  0  0  0  0  0  0  0  0  0
  186.9610  177.6070  144.1700 C   0  0  0  0  0  0  0  0  0  0  0  0
  186.9070  177.3740  141.7950 C   0  0  0  0  0  0  0  0  0  0  0  0
  184.9520  178.4540  147.7300 C   0  0  0  0  0  3  0  0  0  0  0  0
  184.2930  178.5270  146.5410 N   0  0  0  0  0  0  0  0  0  0  0  0
  184.9400  178.0090  142.8570 C   0  0  0  0  0  0  0  0  0  0  0  0
  186.2810  177.8940  145.3630 C   0  0  0  0  0  0  0  0  0  0  0  0
  185.8170  177.5250  140.5190 S   0  0  0  0  0  0  0  0  0  0  0  0
  186.3030  178.0950  147.7740 C   0  0  0  0  0  3  0  0  0  0  0  0
  188.3280  177.2420  144.1610 C   0  0  0  0  0  0  0  0  0  0  0  0
  188.3230  177.4420  146.5960 C   0  0  0  0  0  3  0  0  0  0  0  0
  184.1100  178.3550  144.0670 C   0  0  0  0  0  3  0  0  0  0  0  0
  188.2150  177.0210  141.7490 N   0  0  0  0  0  0  0  0  0  0  0  0
  188.9600  176.9520  142.9020 C   0  0  0  0  0  0  0  0  0  0  0  0
  184.5230  177.9770  141.5280 C   0  0  0  0  0  0  0  0  0  0  0  0
  186.2790  177.6690  142.9750 C   0  0  1  0  0  3  0  0  0  0  0  0
  188.9920  177.1580  145.3960 C   0  0  0  0  0  3  0  0  0  0  0  0
  192.1420  174.9300  142.3480 C   0  0  0  0  0  0  0  0  0  0  0  0
  193.1180  175.8930  142.6110 C   0  0  0  0  0  3  0  0  0  0  0  0
  190.3920  176.5690  142.7740 C   0  0  0  0  0  0  0  0  0  0  0  0
  192.7410  177.1900  142.9620 C   0  0  0  0  0  3  0  0  0  0  0  0
  190.7890  175.2660  142.4340 C   0  0  0  0  0  3  0  0  0  0  0  0
  191.3860  177.5250  143.0470 C   0  0  0  0  0  3  0  0  0  0  0  0
  192.5070  173.6690  142.0130 F   0  0  0  0  0  0  0  0  0  0  0  0
  182.0180  179.1680  140.9610 C   0  0  1  0  0  3  0  0  0  0  0  0
  181.9910  177.9750  140.2610 C   0  0  2  0  0  3  0  0  0  0  0  0
  180.7570  178.3400  141.0560 C   0  0  2  0  0  3  0  0  0  0  0  0
  183.2080  178.2720  141.0740 N   0  0  0  0  0  0  0  0  0  0  0  0
  179.6920  178.9150  140.1340 C   0  0  1  0  0  3  0  0  0  0  0  0
  178.5930  178.0520  140.1170 O   0  0  0  0  0  1  0  0  0  0  0  0
  177.8280  180.2730  141.1190 C   0  0  0  0  0  1  0  0  0  0  0  0
  179.2570  180.3040  140.6060 C   0  0  0  0  0  3  0  0  0  0  0  0
  179.3330  181.3120  139.4710 C   0  0  0  0  0  1  0  0  0  0  0  0
  1 12  1  0  0  0  0
  1 10  2  0  0  0  0
  2  8  1  0  0  0  0
  2  6  1  0  0  0  0
  3  8  2  0  0  0  0
  5 10  1  0  0  0  0
  6  5  2  0  0  0  0
  7 17  1  0  0  0  0
  7 13  1  0  0  0  0
  8  1  1  0  0  0  0
  9 16  1  0  0  0  0
  9  4  1  0  0  0  0
 11  3  1  0  0  0  0
 11 18  1  0  0  0  0
 13  2  2  0  0  0  0
 14  4  2  0  0  0  0
 14 15  1  0  0  0  0
 15 11  2  0  0  0  0
 16  7  2  0  0  0  0
 17  4  1  1  0  0  0
 17  3  1  0  0  0  0
 18 12  2  0  0  0  0
 19 23  2  0  0  0  0
 19 20  1  0  0  0  0
 20 22  2  0  0  0  0
 21 15  1  0  0  0  0
 21 24  2  0  0  0  0
 22 24  1  0  0  0  0
 23 21  1  0  0  0  0
 25 19  1  0  0  0  0
 26 28  1  0  0  0  0
 26 29  1  1  0  0  0
 27 26  1  0  0  0  0
 27 28  1  0  0  0  0
 27 29  1  1  0  0  0
 28 30  1  6  0  0  0
 29 16  1  0  0  0  0
 30 31  1  1  0  0  0
 30 33  1  0  0  0  0
 33 32  1  0  0  0  0
 34 33  1  0  0  0  0
M  END
>  <MODEL>
1

>  <REMARK>
 VINA RESULT:      -8.8      0.000      0.000
  Name = 
  4 active torsions:
  status: ('A' for Active; 'I' for Inactive)
    1  A    between atoms: C_12  and  C_28
    2  A    between atoms: C_13  and  C_14
    3  A    between atoms: C_14  and  C_22
    4  A    between atoms: N_17  and  C_29
                            x       y       z     vdW  Elec       q    Type
                         _______ _______ _______ _____ _____    ______ ____

>  <TORSDO>
F 4

$$$$
=
 OpenBabel11052418453D

 34 41  0  0  1  0  0  0  0  0999 V2000
  191.3350  176.1160  146.1460 C   0  0  0  0  0  0  0  0  0  0  0  0
  192.0060  174.5540  144.3940 C   0  0  0  0  0  0  0  0  0  0  0  0
  189.7610  175.5530  144.3920 C   0  0  0  0  0  0  0  0  0  0  0  0
  188.2460  175.0110  142.6280 C   0  0  0  0  0  0  0  0  0  0  0  0
  193.5310  175.1220  146.1310 C   0  0  0  0  0  3  0  0  0  0  0  0
  193.2230  174.4400  144.9930 N   0  0  0  0  0  0  0  0  0  0  0  0
  190.3470  174.0190  142.5830 C   0  0  0  0  0  0  0  0  0  0  0  0
  191.0290  175.4040  144.9720 C   0  0  0  0  0  0  0  0  0  0  0  0
  188.1910  174.0690  141.2330 S   0  0  0  0  0  0  0  0  0  0  0  0
  192.5940  175.9720  146.7270 C   0  0  0  0  0  3  0  0  0  0  0  0
  188.7770  176.3990  144.9580 C   0  0  0  0  0  0  0  0  0  0  0  0
  190.3790  176.9650  146.7140 C   0  0  0  0  0  3  0  0  0  0  0  0
  191.7310  173.7650  143.1210 C   0  0  0  0  0  3  0  0  0  0  0  0
  187.2810  175.8120  143.1430 N   0  0  0  0  0  0  0  0  0  0  0  0
  187.5020  176.5130  144.3050 C   0  0  0  0  0  0  0  0  0  0  0  0
  189.7760  173.4810  141.4320 C   0  0  0  0  0  0  0  0  0  0  0  0
  189.4660  174.8710  143.2330 C   0  0  1  0  0  3  0  0  0  0  0  0
  189.1140  177.1060  146.1250 C   0  0  0  0  0  3  0  0  0  0  0  0
  185.0750  179.4110  144.7910 C   0  0  0  0  0  0  0  0  0  0  0  0
  184.3230  178.9500  145.8730 C   0  0  0  0  0  3  0  0  0  0  0  0
  186.3930  177.3630  144.8170 C   0  0  0  0  0  0  0  0  0  0  0  0
  184.6040  177.7030  146.4360 C   0  0  0  0  0  3  0  0  0  0  0  0
  186.1050  178.6240  144.2710 C   0  0  0  0  0  3  0  0  0  0  0  0
  185.6350  176.9170  145.9130 C   0  0  0  0  0  3  0  0  0  0  0  0
  184.8070  180.6230  144.2480 F   0  0  0  0  0  0  0  0  0  0  0  0
  190.4130  171.6130  139.4020 C   0  0  1  0  0  3  0  0  0  0  0  0
  191.6360  171.9280  139.9670 C   0  0  2  0  0  3  0  0  0  0  0  0
  191.3480  170.4660  139.7080 C   0  0  2  0  0  3  0  0  0  0  0  0
  190.4200  172.5750  140.5440 N   0  0  0  0  0  0  0  0  0  0  0  0
  192.0450  170.0140  138.4310 C   0  0  1  0  0  3  0  0  0  0  0  0
  192.9680  169.0140  138.7490 O   0  0  0  0  0  1  0  0  0  0  0  0
  190.4410  168.1660  137.8870 C   0  0  0  0  0  1  0  0  0  0  0  0
  191.0300  169.4840  137.4170 C   0  0  0  0  0  3  0  0  0  0  0  0
  191.6820  169.2580  136.0630 C   0  0  0  0  0  1  0  0  0  0  0  0
  1 12  1  0  0  0  0
  1 10  2  0  0  0  0
  2  8  1  0  0  0  0
  2  6  1  0  0  0  0
  3 11  1  0  0  0  0
  3  8  2  0  0  0  0
  4 14  2  0  0  0  0
  4 17  1  0  0  0  0
  5 10  1  0  0  0  0
  6  5  2  0  0  0  0
  7 13  1  0  0  0  0
  8  1  1  0  0  0  0
  9 16  1  0  0  0  0
  9  4  1  0  0  0  0
 11 18  1  0  0  0  0
 13  2  2  0  0  0  0
 14 15  1  0  0  0  0
 15 21  1  0  0  0  0
 15 11  2  0  0  0  0
 16  7  2  0  0  0  0
 17  7  1  6  0  0  0
 17  3  1  0  0  0  0
 18 12  2  0  0  0  0
 19 20  1  0  0  0  0
 20 22  2  0  0  0  0
 21 24  2  0  0  0  0
 23 19  2  0  0  0  0
 23 21  1  0  0  0  0
 24 22  1  0  0  0  0
 25 19  1  0  0  0  0
 26 28  1  0  0  0  0
 26 27  1  0  0  0  0
 26 29  1  1  0  0  0
 27 29  1  1  0  0  0
 28 30  1  6  0  0  0
 28 27  1  0  0  0  0
 29 16  1  0  0  0  0
 30 31  1  1  0  0  0
 33 32  1  0  0  0  0
 33 30  1  0  0  0  0
 34 33  1  0  0  0  0
M  END
>  <MODEL>
2

>  <REMARK>
 VINA RESULT:      -8.4      5.096      9.381
  Name = 
  4 active torsions:
  status: ('A' for Active; 'I' for Inactive)
    1  A    between atoms: C_12  and  C_28
    2  A    between atoms: C_13  and  C_14
    3  A    between atoms: C_14  and  C_22
    4  A    between atoms: N_17  and  C_29
                            x       y       z     vdW  Elec       q    Type
                         _______ _______ _______ _____ _____    ______ ____

>  <TORSDO>
F 4

$$$$
=
 OpenBabel11052418453D

 34 41  0  0  1  0  0  0  0  0999 V2000
  191.4260  176.1160  145.6820 C   0  0  0  0  0  0  0  0  0  0  0  0
  192.0530  174.5550  143.9120 C   0  0  0  0  0  0  0  0  0  0  0  0
  189.8370  175.6180  143.9220 C   0  0  0  0  0  0  0  0  0  0  0  0
  188.3080  175.1390  142.1510 C   0  0  0  0  0  0  0  0  0  0  0  0
  193.5930  175.0590  145.6560 C   0  0  0  0  0  3  0  0  0  0  0  0
  193.2650  174.4000  144.5100 N   0  0  0  0  0  0  0  0  0  0  0  0
  190.3800  174.0880  142.0950 C   0  0  0  0  0  0  0  0  0  0  0  0
  191.1000  175.4260  144.5000 C   0  0  0  0  0  0  0  0  0  0  0  0
  188.2270  174.2150  140.7460 S   0  0  0  0  0  0  0  0  0  0  0  0
  192.6800  175.9290  146.2610 C   0  0  0  0  0  3  0  0  0  0  0  0
  188.8780  176.4850  144.4970 C   0  0  0  0  0  0  0  0  0  0  0  0
  190.4950  176.9850  146.2600 C   0  0  0  0  0  3  0  0  0  0  0  0
  191.7560  173.7880  142.6310 C   0  0  0  0  0  3  0  0  0  0  0  0
  187.3660  175.9620  142.6750 N   0  0  0  0  0  0  0  0  0  0  0  0
  187.6070  176.6430  143.8450 C   0  0  0  0  0  0  0  0  0  0  0  0
  189.7940  173.5800  140.9380 C   0  0  0  0  0  0  0  0  0  0  0  0
  189.5230  174.9570  142.7550 C   0  0  1  0  0  3  0  0  0  0  0  0
  189.2350  177.1690  145.6710 C   0  0  0  0  0  3  0  0  0  0  0  0
  184.6400  177.9450  145.8540 C   0  0  0  0  0  0  0  0  0  0  0  0
  184.4480  179.1950  145.2640 C   0  0  0  0  0  3  0  0  0  0  0  0
  186.5220  177.5180  144.3670 C   0  0  0  0  0  0  0  0  0  0  0  0
  185.2810  179.6100  144.2230 C   0  0  0  0  0  3  0  0  0  0  0  0
  185.6680  177.1110  145.4040 C   0  0  0  0  0  3  0  0  0  0  0  0
  186.3090  178.7750  143.7760 C   0  0  0  0  0  3  0  0  0  0  0  0
  183.8300  177.5380  146.8600 F   0  0  0  0  0  0  0  0  0  0  0  0
  190.4840  171.9310  138.7420 C   0  0  1  0  0  3  0  0  0  0  0  0
  191.5390  171.7780  139.6230 C   0  0  2  0  0  3  0  0  0  0  0  0
  190.9800  170.5250  138.9890 C   0  0  2  0  0  3  0  0  0  0  0  0
  190.4130  172.6660  140.0400 N   0  0  0  0  0  0  0  0  0  0  0  0
  191.8690  170.0810  137.8350 C   0  0  1  0  0  3  0  0  0  0  0  0
  192.7910  169.1440  138.3080 O   0  0  0  0  0  1  0  0  0  0  0  0
  191.6500  168.1660  136.2320 C   0  0  0  0  0  1  0  0  0  0  0  0
  191.0330  169.4680  136.7090 C   0  0  0  0  0  3  0  0  0  0  0  0
  190.9400  170.4150  135.5250 C   0  0  0  0  0  1  0  0  0  0  0  0
  1 12  1  0  0  0  0
  1 10  2  0  0  0  0
  2  8  1  0  0  0  0
  2  6  1  0  0  0  0
  3 11  1  0  0  0  0
  3  8  2  0  0  0  0
  4 14  2  0  0  0  0
  4 17  1  0  0  0  0
  5 10  1  0  0  0  0
  6  5  2  0  0  0  0
  7 13  1  0  0  0  0
  8  1  1  0  0  0  0
  9 16  1  0  0  0  0
  9  4  1  0  0  0  0
 11 18  1  0  0  0  0
 13  2  2  0  0  0  0
 14 15  1  0  0  0  0
 15 21  1  0  0  0  0
 15 11  2  0  0  0  0
 16  7  2  0  0  0  0
 17  7  1  6  0  0  0
 17  3  1  0  0  0  0
 18 12  2  0  0  0  0
 19 25  1  0  0  0  0
 20 19  2  0  0  0  0
 21 23  2  0  0  0  0
 22 20  1  0  0  0  0
 23 19  1  0  0  0  0
 24 22  2  0  0  0  0
 24 21  1  0  0  0  0
 26 28  1  0  0  0  0
 26 27  1  0  0  0  0
 26 29  1  1  0  0  0
 27 29  1  1  0  0  0
 28 30  1  6  0  0  0
 28 27  1  0  0  0  0
 29 16  1  0  0  0  0
 30 31  1  1  0  0  0
 32 33  1  0  0  0  0
 33 30  1  0  0  0  0
 34 33  1  0  0  0  0
M  END
>  <MODEL>
3

>  <REMARK>
 VINA RESULT:      -8.0      5.101      9.336
  Name = 
  4 active torsions:
  status: ('A' for Active; 'I' for Inactive)
    1  A    between atoms: C_12  and  C_28
    2  A    between atoms: C_13  and  C_14
    3  A    between atoms: C_14  and  C_22
    4  A    between atoms: N_17  and  C_29
                            x       y       z     vdW  Elec       q    Type
                         _______ _______ _______ _____ _____    ______ ____

>  <TORSDO>
F 4

$$$$
=
 OpenBabel11052418453D

 34 41  0  0  1  0  0  0  0  0999 V2000
  188.5530  174.7260  140.8100 C   0  0  0  0  0  0  0  0  0  0  0  0
  190.6580  173.7780  141.6060 C   0  0  0  0  0  0  0  0  0  0  0  0
  189.2530  175.1420  143.0920 C   0  0  0  0  0  0  0  0  0  0  0  0
  189.9490  175.5000  145.3480 C   0  0  0  0  0  0  0  0  0  0  0  0
  189.9480  173.3890  139.3680 C   0  0  0  0  0  3  0  0  0  0  0  0
  190.8470  173.2250  140.3780 N   0  0  0  0  0  0  0  0  0  0  0  0
  191.3290  174.2180  143.9890 C   0  0  0  0  0  0  0  0  0  0  0  0
  189.4920  174.5510  141.8430 C   0  0  0  0  0  0  0  0  0  0  0  0
  191.2180  175.0900  146.3750 S   0  0  0  0  0  0  0  0  0  0  0  0
  188.7850  174.1410  139.5660 C   0  0  0  0  0  3  0  0  0  0  0  0
  188.0930  175.9140  143.3420 C   0  0  0  0  0  0  0  0  0  0  0  0
  187.3960  175.4770  141.0410 C   0  0  0  0  0  2  0  0  0  0  0  0
  191.7030  173.5510  142.6890 C   0  0  0  0  0  3  0  0  0  0  0  0
  188.8490  176.2450  145.6210 N   0  0  0  0  0  0  0  0  0  0  0  0
  187.9070  176.4820  144.6490 C   0  0  0  0  0  0  0  0  0  0  0  0
  192.0430  174.1970  145.1840 C   0  0  0  0  0  0  0  0  0  0  0  0
  190.1620  174.9560  144.1100 C   0  0  0  0  0  0  0  0  0  0  0  0
  187.1680  176.0630  142.2950 C   0  0  0  0  0  3  0  0  0  0  0  0
  185.4260  179.3670  144.8600 C   0  0  0  0  0  0  0  0  0  0  0  0
  184.5270  178.8760  145.8080 C   0  0  0  0  0  3  0  0  0  0  0  0
  186.7330  177.3180  145.0190 C   0  0  0  0  0  0  0  0  0  0  0  0
  184.7270  177.6140  146.3700 C   0  0  0  0  0  3  0  0  0  0  0  0
  186.5230  178.5940  144.4720 C   0  0  0  0  0  3  0  0  0  0  0  0
  185.8250  176.8420  145.9810 C   0  0  0  0  0  3  0  0  0  0  0  0
  185.2360  180.5940  144.3170 F   0  0  0  0  0  0  0  0  0  0  0  0
  194.7680  173.5040  145.5250 C   0  0  1  0  0  3  0  0  0  0  0  0
  194.0890  172.3170  145.7330 C   0  0  2  0  0  3  0  0  0  0  0  0
  195.3150  172.2680  144.8500 C   0  0  2  0  0  3  0  0  0  0  0  0
  193.2810  173.5250  145.3890 N   0  0  0  0  0  0  0  0  0  0  0  0
  196.5060  171.7360  145.6360 C   0  0  1  0  0  3  0  0  0  0  0  0
  196.2210  170.4360  146.0620 O   0  0  0  0  0  1  0  0  0  0  0  0
  197.9250  173.0640  144.0530 C   0  0  0  0  0  1  0  0  0  0  0  0
  197.7710  171.7370  144.7750 C   0  0  0  0  0  3  0  0  0  0  0  0
  197.7210  170.6310  143.7350 C   0  0  0  0  0  1  0  0  0  0  0  0
  1 12  1  0  0  0  0
  1  8  1  0  0  0  0
  2  8  1  0  0  0  0
  2 13  2  0  0  0  0
  3 11  1  0  0  0  0
  3 17  1  0  0  0  0
  4 14  1  0  0  0  0
  4  9  1  0  0  0  0
  5 10  1  0  0  0  0
  5  6  2  0  0  0  0
  6  2  1  0  0  0  0
  7 17  1  0  0  0  0
  7 16  2  0  0  0  0
  8  3  2  0  0  0  0
 10  1  2  0  0  0  0
 11 15  1  0  0  0  0
 12 18  1  0  0  0  0
 13  7  1  0  0  0  0
 15 21  1  0  0  0  0
 15 14  2  0  0  0  0
 16 29  1  0  0  0  0
 16  9  1  0  0  0  0
 17  4  2  0  0  0  0
 18 11  2  0  0  0  0
 19 20  1  0  0  0  0
 20 22  2  0  0  0  0
 21 24  2  0  0  0  0
 23 19  2  0  0  0  0
 23 21  1  0  0  0  0
 24 22  1  0  0  0  0
 25 19  1  0  0  0  0
 26 29  1  6  0  0  0
 26 27  1  0  0  0  0
 27 29  1  6  0  0  0
 28 26  1  0  0  0  0
 28 30  1  1  0  0  0
 28 27  1  0  0  0  0
 30 31  1  6  0  0  0
 32 33  1  0  0  0  0
 33 30  1  0  0  0  0
 34 33  1  0  0  0  0
M  END
>  <MODEL>
4

>  <REMARK>
 VINA RESULT:      -8.0      5.721     11.242
  Name = 
  4 active torsions:
  status: ('A' for Active; 'I' for Inactive)
    1  A    between atoms: C_12  and  C_28
    2  A    between atoms: C_13  and  C_14
    3  A    between atoms: C_14  and  C_22
    4  A    between atoms: N_17  and  C_29
                            x       y       z     vdW  Elec       q    Type
                         _______ _______ _______ _____ _____    ______ ____

>  <TORSDO>
F 4

$$$$
=
 OpenBabel11052418453D

 34 41  0  0  1  0  0  0  0  0999 V2000
  191.5540  172.8880  140.8670 C   0  0  0  0  0  0  0  0  0  0  0  0
  189.5890  174.1400  141.5970 C   0  0  0  0  0  0  0  0  0  0  0  0
  191.3920  173.5980  143.1770 C   0  0  0  0  0  0  0  0  0  0  0  0
  191.2240  174.3470  145.4380 C   0  0  0  0  0  0  0  0  0  0  0  0
  189.7720  173.4270  139.3340 C   0  0  0  0  0  3  0  0  0  0  0  0
  189.0960  174.0610  140.3320 N   0  0  0  0  0  0  0  0  0  0  0  0
  189.4790  174.8760  143.9990 C   0  0  0  0  0  0  0  0  0  0  0  0
  190.8430  173.5430  141.8880 C   0  0  0  0  0  0  0  0  0  0  0  0
  190.1690  175.2140  146.4230 S   0  0  0  0  0  0  0  0  0  0  0  0
  191.0120  172.8300  139.5830 C   0  0  0  0  0  3  0  0  0  0  0  0
  192.6420  173.0080  143.4810 C   0  0  0  0  0  0  0  0  0  0  0  0
  192.7960  172.3070  141.1440 C   0  0  0  0  0  2  0  0  0  0  0  0
  188.7810  174.8680  142.6630 C   0  0  0  0  0  3  0  0  0  0  0  0
  192.4180  173.7930  145.7630 N   0  0  0  0  0  0  0  0  0  0  0  0
  193.1510  173.1110  144.8210 C   0  0  0  0  0  0  0  0  0  0  0  0
  189.0350  175.4670  145.1790 C   0  0  0  0  0  0  0  0  0  0  0  0
  190.7060  174.2550  144.1750 C   0  0  0  0  0  0  0  0  0  0  0  0
  193.3350  172.3690  142.4380 C   0  0  0  0  0  3  0  0  0  0  0  0
  195.7900  170.6480  146.0440 C   0  0  0  0  0  0  0  0  0  0  0  0
  196.9100  171.4770  146.1240 C   0  0  0  0  0  3  0  0  0  0  0  0
  194.4460  172.5190  145.2530 C   0  0  0  0  0  0  0  0  0  0  0  0
  196.8060  172.8250  145.7780 C   0  0  0  0  0  3  0  0  0  0  0  0
  194.5660  171.1680  145.6160 C   0  0  0  0  0  3  0  0  0  0  0  0
  195.5810  173.3430  145.3490 C   0  0  0  0  0  3  0  0  0  0  0  0
  195.8880  169.3400  146.3850 F   0  0  0  0  0  0  0  0  0  0  0  0
  186.6420  176.9270  144.7810 C   0  0  1  0  0  3  0  0  0  0  0  0
  186.6650  176.6810  146.1420 C   0  0  2  0  0  3  0  0  0  0  0  0
  186.3090  178.0810  145.6980 C   0  0  2  0  0  3  0  0  0  0  0  0
  187.8150  176.1820  145.3300 N   0  0  0  0  0  0  0  0  0  0  0  0
  184.8000  178.2790  145.7500 C   0  0  1  0  0  3  0  0  0  0  0  0
  184.4410  178.6830  147.0390 O   0  0  0  0  0  1  0  0  0  0  0  0
  183.7270  178.6660  143.5180 C   0  0  0  0  0  1  0  0  0  0  0  0
  184.3540  179.3290  144.7310 C   0  0  0  0  0  3  0  0  0  0  0  0
  185.5320  180.1660  144.2620 C   0  0  0  0  0  1  0  0  0  0  0  0
  1 12  1  0  0  0  0
  1  8  1  0  0  0  0
  2  8  1  0  0  0  0
  2 13  2  0  0  0  0
  3 11  1  0  0  0  0
  3 17  1  0  0  0  0
  4 14  1  0  0  0  0
  4  9  1  0  0  0  0
  5 10  1  0  0  0  0
  5  6  2  0  0  0  0
  6  2  1  0  0  0  0
  7 17  1  0  0  0  0
  7 16  2  0  0  0  0
  8  3  2  0  0  0  0
 10  1  2  0  0  0  0
 11 15  1  0  0  0  0
 12 18  1  0  0  0  0
 13  7  1  0  0  0  0
 15 21  1  0  0  0  0
 15 14  2  0  0  0  0
 16 29  1  0  0  0  0
 16  9  1  0  0  0  0
 17  4  2  0  0  0  0
 18 11  2  0  0  0  0
 19 20  1  0  0  0  0
 19 25  1  0  0  0  0
 21 24  2  0  0  0  0
 21 23  1  0  0  0  0
 22 20  2  0  0  0  0
 23 19  2  0  0  0  0
 24 22  1  0  0  0  0
 26 29  1  1  0  0  0
 26 28  1  0  0  0  0
 26 27  1  0  0  0  0
 27 29  1  1  0  0  0
 28 30  1  6  0  0  0
 28 27  1  0  0  0  0
 30 31  1  1  0  0  0
 32 33  1  0  0  0  0
 33 30  1  0  0  0  0
 34 33  1  0  0  0  0
M  END
>  <MODEL>
5

>  <REMARK>
 VINA RESULT:      -7.7      4.084      7.300
  Name = 
  4 active torsions:
  status: ('A' for Active; 'I' for Inactive)
    1  A    between atoms: C_12  and  C_28
    2  A    between atoms: C_13  and  C_14
    3  A    between atoms: C_14  and  C_22
    4  A    between atoms: N_17  and  C_29
                            x       y       z     vdW  Elec       q    Type
                         _______ _______ _______ _____ _____    ______ ____

>  <TORSDO>
F 4

$$$$
=
 OpenBabel11052418453D

 34 41  0  0  1  0  0  0  0  0999 V2000
  185.5320  178.7400  146.6690 C   0  0  0  0  0  0  0  0  0  0  0  0
  187.8140  177.9220  146.3820 C   0  0  0  0  0  0  0  0  0  0  0  0
  186.2320  177.9140  144.5020 C   0  0  0  0  0  0  0  0  0  0  0  0
  186.9630  177.1330  142.3670 C   0  0  0  0  0  0  0  0  0  0  0  0
  187.0990  178.7350  148.5020 C   0  0  0  0  0  3  0  0  0  0  0  0
  188.0550  178.2030  147.6910 N   0  0  0  0  0  0  0  0  0  0  0  0
  188.5010  177.0980  144.1080 C   0  0  0  0  0  0  0  0  0  0  0  0
  186.5290  178.1870  145.8450 C   0  0  0  0  0  0  0  0  0  0  0  0
  188.3490  176.5150  141.6370 S   0  0  0  0  0  0  0  0  0  0  0  0
  185.8210  179.0130  148.0060 C   0  0  0  0  0  3  0  0  0  0  0  0
  184.9540  178.1750  143.9520 C   0  0  0  0  0  0  0  0  0  0  0  0
  184.2650  179.0140  146.1420 C   0  0  0  0  0  3  0  0  0  0  0  0
  188.9320  177.3310  145.5340 C   0  0  0  0  0  3  0  0  0  0  0  0
  185.7500  177.3710  141.8090 N   0  0  0  0  0  0  0  0  0  0  0  0
  184.7220  177.8810  142.5650 C   0  0  0  0  0  0  0  0  0  0  0  0
  189.2720  176.5910  143.0650 C   0  0  0  0  0  0  0  0  0  0  0  0
  187.2120  177.3900  143.6880 C   0  0  1  0  0  3  0  0  0  0  0  0
  183.9810  178.7370  144.7970 C   0  0  0  0  0  3  0  0  0  0  0  0
  181.0910  178.8330  141.9010 C   0  0  0  0  0  0  0  0  0  0  0  0
  180.9540  178.4420  140.5680 C   0  0  0  0  0  3  0  0  0  0  0  0
  183.4160  178.1050  141.8880 C   0  0  0  0  0  0  0  0  0  0  0  0
  182.0360  177.8770  139.8920 C   0  0  0  0  0  3  0  0  0  0  0  0
  182.3140  178.6600  142.5560 C   0  0  0  0  0  3  0  0  0  0  0  0
  183.2580  177.7060  140.5490 C   0  0  0  0  0  3  0  0  0  0  0  0
  180.0400  179.3770  142.5600 F   0  0  0  0  0  0  0  0  0  0  0  0
  191.7400  175.4120  143.7970 C   0  0  1  0  0  3  0  0  0  0  0  0
  192.0450  176.1660  142.6780 C   0  0  2  0  0  3  0  0  0  0  0  0
  192.9870  176.2640  143.8570 C   0  0  2  0  0  3  0  0  0  0  0  0
  190.6350  176.1970  143.1700 N   0  0  0  0  0  0  0  0  0  0  0  0
  194.2150  175.3960  143.6170 C   0  0  1  0  0  3  0  0  0  0  0  0
  195.3170  176.2240  143.3860 O   0  0  0  0  0  1  0  0  0  0  0  0
  194.8360  175.3210  146.0450 C   0  0  0  0  0  1  0  0  0  0  0  0
  194.4860  174.4920  144.8220 C   0  0  0  0  0  3  0  0  0  0  0  0
  195.6400  173.5440  144.5410 C   0  0  0  0  0  1  0  0  0  0  0  0
  1 10  2  0  0  0  0
  2  6  1  0  0  0  0
  3  8  2  0  0  0  0
  6  5  2  0  0  0  0
  7 13  1  0  0  0  0
  8  2  1  0  0  0  0
  8  1  1  0  0  0  0
  9  4  1  0  0  0  0
  9 16  1  0  0  0  0
 10  5  1  0  0  0  0
 11  3  1  0  0  0  0
 11 18  1  0  0  0  0
 12  1  1  0  0  0  0
 13  2  2  0  0  0  0
 14  4  2  0  0  0  0
 14 15  1  0  0  0  0
 15 11  2  0  0  0  0
 16 29  1  0  0  0  0
 16  7  2  0  0  0  0
 17  4  1  6  0  0  0
 17  7  1  0  0  0  0
 17  3  1  0  0  0  0
 18 12  2  0  0  0  0
 19 23  1  0  0  0  0
 19 25  1  0  0  0  0
 20 19  2  0  0  0  0
 21 23  2  0  0  0  0
 21 15  1  0  0  0  0
 22 24  2  0  0  0  0
 22 20  1  0  0  0  0
 24 21  1  0  0  0  0
 26 29  1  1  0  0  0
 26 28  1  0  0  0  0
 27 29  1  1  0  0  0
 27 26  1  0  0  0  0
 27 28  1  0  0  0  0
 28 30  1  6  0  0  0
 30 31  1  1  0  0  0
 30 33  1  0  0  0  0
 33 32  1  0  0  0  0
 34 33  1  0  0  0  0
M  END
>  <MODEL>
6

>  <REMARK>
 VINA RESULT:      -7.4      4.152      9.347
  Name = 
  4 active torsions:
  status: ('A' for Active; 'I' for Inactive)
    1  A    between atoms: C_12  and  C_28
    2  A    between atoms: C_13  and  C_14
    3  A    between atoms: C_14  and  C_22
    4  A    between atoms: N_17  and  C_29
                            x       y       z     vdW  Elec       q    Type
                         _______ _______ _______ _____ _____    ______ ____

>  <TORSDO>
F 4

$$$$
=
 OpenBabel11052418453D

 34 41  0  0  1  0  0  0  0  0999 V2000
  191.3610  176.2880  145.8450 C   0  0  0  0  0  0  0  0  0  0  0  0
  192.1060  174.7910  144.0660 C   0  0  0  0  0  0  0  0  0  0  0  0
  189.8700  175.8090  143.9960 C   0  0  0  0  0  0  0  0  0  0  0  0
  188.4390  175.3510  142.1410 C   0  0  0  0  0  0  0  0  0  0  0  0
  193.5490  175.2760  145.8960 C   0  0  0  0  0  3  0  0  0  0  0  0
  193.2910  174.6430  144.7180 N   0  0  0  0  0  0  0  0  0  0  0  0
  190.5320  174.3430  142.1570 C   0  0  0  0  0  0  0  0  0  0  0  0
  191.1070  175.6260  144.6300 C   0  0  0  0  0  0  0  0  0  0  0  0
  188.4450  174.4660  140.7090 S   0  0  0  0  0  0  0  0  0  0  0  0
  192.5900  176.1100  146.4800 C   0  0  0  0  0  3  0  0  0  0  0  0
  188.8660  176.6400  144.5480 C   0  0  0  0  0  0  0  0  0  0  0  0
  190.3850  177.1220  146.4010 C   0  0  0  0  0  3  0  0  0  0  0  0
  191.8880  174.0560  142.7510 C   0  0  0  0  0  3  0  0  0  0  0  0
  187.4560  176.1400  142.6410 N   0  0  0  0  0  0  0  0  0  0  0  0
  187.6250  176.7910  143.8390 C   0  0  0  0  0  0  0  0  0  0  0  0
  190.0150  173.8570  140.9590 C   0  0  0  0  0  0  0  0  0  0  0  0
  189.6270  175.1760  142.7980 C   0  0  1  0  0  3  0  0  0  0  0  0
  189.1510  177.2980  145.7570 C   0  0  0  0  0  3  0  0  0  0  0  0
  184.5620  177.9910  145.7650 C   0  0  0  0  0  0  0  0  0  0  0  0
  184.3460  179.2360  145.1720 C   0  0  0  0  0  3  0  0  0  0  0  0
  186.4980  177.6300  144.3310 C   0  0  0  0  0  0  0  0  0  0  0  0
  185.1940  179.6810  144.1560 C   0  0  0  0  0  3  0  0  0  0  0  0
  185.6290  177.1930  145.3430 C   0  0  0  0  0  3  0  0  0  0  0  0
  186.2600  178.8810  143.7360 C   0  0  0  0  0  3  0  0  0  0  0  0
  183.7370  177.5560  146.7470 F   0  0  0  0  0  0  0  0  0  0  0  0
  191.3000  171.6620  139.7150 C   0  0  1  0  0  3  0  0  0  0  0  0
  191.2650  172.6340  138.7320 C   0  0  2  0  0  3  0  0  0  0  0  0
  192.5660  171.8890  138.9220 C   0  0  2  0  0  3  0  0  0  0  0  0
  190.6950  172.9810  140.0680 N   0  0  0  0  0  0  0  0  0  0  0  0
  192.7090  170.8070  137.8590 C   0  0  1  0  0  3  0  0  0  0  0  0
  192.7990  171.4150  136.6040 O   0  0  0  0  0  1  0  0  0  0  0  0
  194.3630  170.0310  139.5750 C   0  0  0  0  0  1  0  0  0  0  0  0
  193.9530  169.9540  138.1150 C   0  0  0  0  0  3  0  0  0  0  0  0
  195.1210  170.4270  137.2660 C   0  0  0  0  0  1  0  0  0  0  0  0
  1 12  1  0  0  0  0
  1 10  2  0  0  0  0
  2  8  1  0  0  0  0
  2  6  1  0  0  0  0
  3 11  1  0  0  0  0
  3  8  2  0  0  0  0
  4 14  2  0  0  0  0
  5 10  1  0  0  0  0
  6  5  2  0  0  0  0
  7 13  1  0  0  0  0
  7 17  1  0  0  0  0
  8  1  1  0  0  0  0
  9 16  1  0  0  0  0
  9  4  1  0  0  0  0
 11 18  1  0  0  0  0
 13  2  2  0  0  0  0
 14 15  1  0  0  0  0
 15 21  1  0  0  0  0
 15 11  2  0  0  0  0
 16  7  2  0  0  0  0
 17  4  1  6  0  0  0
 17  3  1  0  0  0  0
 18 12  2  0  0  0  0
 19 25  1  0  0  0  0
 20 19  2  0  0  0  0
 21 23  2  0  0  0  0
 22 20  1  0  0  0  0
 23 19  1  0  0  0  0
 24 22  2  0  0  0  0
 24 21  1  0  0  0  0
 26 29  1  1  0  0  0
 27 28  1  0  0  0  0
 27 26  1  0  0  0  0
 27 29  1  1  0  0  0
 28 30  1  6  0  0  0
 28 26  1  0  0  0  0
 29 16  1  0  0  0  0
 30 31  1  6  0  0  0
 30 33  1  0  0  0  0
 33 32  1  0  0  0  0
 34 33  1  0  0  0  0
M  END
>  <MODEL>
7

>  <REMARK>
 VINA RESULT:      -7.3      4.867      9.603
  Name = 
  4 active torsions:
  status: ('A' for Active; 'I' for Inactive)
    1  A    between atoms: C_12  and  C_28
    2  A    between atoms: C_13  and  C_14
    3  A    between atoms: C_14  and  C_22
    4  A    between atoms: N_17  and  C_29
                            x       y       z     vdW  Elec       q    Type
                         _______ _______ _______ _____ _____    ______ ____

>  <TORSDO>
F 4

$$$$
=
 OpenBabel11052418453D

 34 41  0  0  1  0  0  0  0  0999 V2000
  193.9860  174.1270  141.5390 C   0  0  0  0  0  0  0  0  0  0  0  0
  192.4520  175.6790  142.6360 C   0  0  0  0  0  0  0  0  0  0  0  0
  191.5980  173.7750  141.3370 C   0  0  0  0  0  0  0  0  0  0  0  0
  189.2400  173.4290  141.1910 C   0  0  0  0  0  0  0  0  0  0  0  0
  194.8040  176.0040  142.8140 C   0  0  0  0  0  3  0  0  0  0  0  0
  193.5250  176.3780  143.0960 N   0  0  0  0  0  0  0  0  0  0  0  0
  189.9840  175.2570  142.4170 C   0  0  0  0  0  0  0  0  0  0  0  0
  192.6710  174.5280  141.8360 C   0  0  0  0  0  0  0  0  0  0  0  0
  187.8090  174.1290  141.7340 S   0  0  0  0  0  0  0  0  0  0  0  0
  195.0570  174.8720  142.0320 C   0  0  0  0  0  3  0  0  0  0  0  0
  191.8020  172.6230  140.5400 C   0  0  0  0  0  0  0  0  0  0  0  0
  194.2090  172.9860  140.7610 C   0  0  0  0  0  2  0  0  0  0  0  0
  191.0510  176.1530  142.9920 C   0  0  0  0  0  3  0  0  0  0  0  0
  189.4000  172.3220  140.4240 N   0  0  0  0  0  0  0  0  0  0  0  0
  190.6570  171.8930  140.0710 C   0  0  0  0  0  0  0  0  0  0  0  0
  188.6040  175.3850  142.5630 C   0  0  0  0  0  0  0  0  0  0  0  0
  190.3100  174.1540  141.6420 C   0  0  0  0  0  0  0  0  0  0  0  0
  193.1270  172.2410  140.2680 C   0  0  0  0  0  3  0  0  0  0  0  0
  190.8140  169.5850  137.0420 C   0  0  0  0  0  0  0  0  0  0  0  0
  190.8740  168.3360  137.6620 C   0  0  0  0  0  3  0  0  0  0  0  0
  190.7540  170.6770  139.2180 C   0  0  0  0  0  0  0  0  0  0  0  0
  190.8680  168.2490  139.0550 C   0  0  0  0  0  3  0  0  0  0  0  0
  190.7490  170.7460  137.8160 C   0  0  0  0  0  3  0  0  0  0  0  0
  190.8040  169.4120  139.8280 C   0  0  0  0  0  3  0  0  0  0  0  0
  190.8140  169.6710  135.6900 F   0  0  0  0  0  0  0  0  0  0  0  0
  187.2370  176.9200  144.5110 C   0  0  1  0  0  3  0  0  0  0  0  0
  187.5330  177.8290  143.5110 C   0  0  2  0  0  3  0  0  0  0  0  0
  186.1340  177.8590  144.0830 C   0  0  2  0  0  3  0  0  0  0  0  0
  187.9500  176.4100  143.3010 N   0  0  0  0  0  0  0  0  0  0  0  0
  186.0050  178.9950  145.0890 C   0  0  1  0  0  3  0  0  0  0  0  0
  185.0640  179.9140  144.6160 O   0  0  0  0  0  1  0  0  0  0  0  0
  184.0650  178.2910  146.5120 C   0  0  0  0  0  1  0  0  0  0  0  0
  185.5720  178.4630  146.4570 C   0  0  0  0  0  3  0  0  0  0  0  0
  185.9850  179.4160  147.5660 C   0  0  0  0  0  1  0  0  0  0  0  0
  1  8  1  0  0  0  0
  1 10  2  0  0  0  0
  2 13  2  0  0  0  0
  2  6  1  0  0  0  0
  3 17  1  0  0  0  0
  3  8  2  0  0  0  0
  4 17  2  0  0  0  0
  4  9  1  0  0  0  0
  5  6  2  0  0  0  0
  7 16  2  0  0  0  0
  7 13  1  0  0  0  0
  8  2  1  0  0  0  0
  9 16  1  0  0  0  0
 10  5  1  0  0  0  0
 11  3  1  0  0  0  0
 12  1  1  0  0  0  0
 14  4  1  0  0  0  0
 15 14  2  0  0  0  0
 15 11  1  0  0  0  0
 16 29  1  0  0  0  0
 17  7  1  0  0  0  0
 18 11  2  0  0  0  0
 18 12  1  0  0  0  0
 19 20  2  0  0  0  0
 19 23  1  0  0  0  0
 20 22  1  0  0  0  0
 21 24  1  0  0  0  0
 21 15  1  0  0  0  0
 22 24  2  0  0  0  0
 23 21  2  0  0  0  0
 25 19  1  0  0  0  0
 26 29  1  6  0  0  0
 27 29  1  6  0  0  0
 27 28  1  0  0  0  0
 27 26  1  0  0  0  0
 28 26  1  0  0  0  0
 28 30  1  1  0  0  0
 30 31  1  6  0  0  0
 30 33  1  0  0  0  0
 33 32  1  0  0  0  0
 33 34  1  0  0  0  0
M  END
>  <MODEL>
8

>  <REMARK>
 VINA RESULT:      -7.0      4.290      7.819
  Name = 
  4 active torsions:
  status: ('A' for Active; 'I' for Inactive)
    1  A    between atoms: C_12  and  C_28
    2  A    between atoms: C_13  and  C_14
    3  A    between atoms: C_14  and  C_22
    4  A    between atoms: N_17  and  C_29
                            x       y       z     vdW  Elec       q    Type
                         _______ _______ _______ _____ _____    ______ ____

>  <TORSDO>
F 4

$$$$
=
 OpenBabel11052418453D

 34 41  0  0  1  0  0  0  0  0999 V2000
  185.0910  178.4680  145.3110 C   0  0  0  0  0  0  0  0  0  0  0  0
  184.9130  178.0080  142.9200 C   0  0  0  0  0  0  0  0  0  0  0  0
  186.9290  177.3740  144.1740 C   0  0  0  0  0  0  0  0  0  0  0  0
  188.7070  176.2590  143.0340 C   0  0  0  0  0  0  0  0  0  0  0  0
  183.1230  179.0850  144.0620 C   0  0  0  0  0  3  0  0  0  0  0  0
  183.6760  178.5750  142.9270 N   0  0  0  0  0  0  0  0  0  0  0  0
  186.8360  176.8490  141.7890 C   0  0  0  0  0  0  0  0  0  0  0  0
  185.6510  177.9480  144.1300 C   0  0  0  0  0  0  0  0  0  0  0  0
  189.0870  175.7040  141.4910 S   0  0  0  0  0  0  0  0  0  0  0  0
  183.8200  179.0400  145.2740 C   0  0  0  0  0  3  0  0  0  0  0  0
  187.6750  177.3060  145.3750 C   0  0  0  0  0  0  0  0  0  0  0  0
  185.8090  178.4020  146.5100 C   0  0  0  0  0  3  0  0  0  0  0  0
  185.4670  177.4550  141.6140 C   0  0  0  0  0  3  0  0  0  0  0  0
  189.4490  176.1780  144.1670 N   0  0  0  0  0  0  0  0  0  0  0  0
  188.9760  176.6950  145.3500 C   0  0  0  0  0  0  0  0  0  0  0  0
  187.6210  176.2390  140.8140 C   0  0  0  0  0  0  0  0  0  0  0  0
  187.4710  176.8470  143.0220 C   0  0  1  0  0  3  0  0  0  0  0  0
  187.0870  177.8240  146.5410 C   0  0  0  0  0  3  0  0  0  0  0  0
  190.9490  177.5390  148.4990 C   0  0  0  0  0  0  0  0  0  0  0  0
  191.5650  176.3140  148.7630 C   0  0  0  0  0  3  0  0  0  0  0  0
  189.8500  176.5800  146.5480 C   0  0  0  0  0  0  0  0  0  0  0  0
  191.3350  175.2230  147.9230 C   0  0  0  0  0  3  0  0  0  0  0  0
  190.1010  177.6700  147.3960 C   0  0  0  0  0  3  0  0  0  0  0  0
  190.4860  175.3570  146.8210 C   0  0  0  0  0  3  0  0  0  0  0  0
  191.1750  178.6000  149.3100 F   0  0  0  0  0  0  0  0  0  0  0  0
  187.4760  175.5390  138.0740 C   0  0  1  0  0  3  0  0  0  0  0  0
  186.3020  176.2320  138.3070 C   0  0  2  0  0  3  0  0  0  0  0  0
  187.0750  176.5820  137.0560 C   0  0  2  0  0  3  0  0  0  0  0  0
  187.2540  176.0790  139.4490 N   0  0  0  0  0  0  0  0  0  0  0  0
  186.4450  175.9050  135.8460 C   0  0  1  0  0  3  0  0  0  0  0  0
  185.1530  176.4080  135.6680 O   0  0  0  0  0  1  0  0  0  0  0  0
  188.4440  175.1840  134.5170 C   0  0  0  0  0  1  0  0  0  0  0  0
  187.2790  176.1540  134.5880 C   0  0  0  0  0  3  0  0  0  0  0  0
  187.8340  177.5680  134.5760 C   0  0  0  0  0  1  0  0  0  0  0  0
  1 12  1  0  0  0  0
  2  6  1  0  0  0  0
  2  8  1  0  0  0  0
  3 11  1  0  0  0  0
  4 14  2  0  0  0  0
  5 10  1  0  0  0  0
  6  5  2  0  0  0  0
  8  3  2  0  0  0  0
  8  1  1  0  0  0  0
  9  4  1  0  0  0  0
 10  1  2  0  0  0  0
 11 18  1  0  0  0  0
 12 18  2  0  0  0  0
 13  7  1  0  0  0  0
 13  2  2  0  0  0  0
 14 15  1  0  0  0  0
 15 11  2  0  0  0  0
 15 21  1  0  0  0  0
 16  9  1  0  0  0  0
 16  7  2  0  0  0  0
 17  7  1  1  0  0  0
 17  4  1  0  0  0  0
 17  3  1  0  0  0  0
 19 20  1  0  0  0  0
 19 25  1  0  0  0  0
 21 24  2  0  0  0  0
 21 23  1  0  0  0  0
 22 20  2  0  0  0  0
 23 19  2  0  0  0  0
 24 22  1  0  0  0  0
 26 27  1  0  0  0  0
 26 29  1  1  0  0  0
 27 29  1  1  0  0  0
 28 30  1  6  0  0  0
 28 26  1  0  0  0  0
 28 27  1  0  0  0  0
 29 16  1  0  0  0  0
 30 31  1  6  0  0  0
 32 33  1  0  0  0  0
 33 30  1  0  0  0  0
 34 33  1  0  0  0  0
M  END
>  <MODEL>
9

>  <REMARK>
 VINA RESULT:      -6.7      3.873      5.706
  Name = 
  4 active torsions:
  status: ('A' for Active; 'I' for Inactive)
    1  A    between atoms: C_12  and  C_28
    2  A    between atoms: C_13  and  C_14
    3  A    between atoms: C_14  and  C_22
    4  A    between atoms: N_17  and  C_29
                            x       y       z     vdW  Elec       q    Type
                         _______ _______ _______ _____ _____    ______ ____

>  <TORSDO>
F 4

$$$$
