=
 OpenBabel11052418103D

 28 32  0  0  0  0  0  0  0  0999 V2000
  186.6600  177.2580  145.1340 C   0  0  0  0  0  0  0  0  0  0  0  0
  189.0010  173.0600  143.5610 C   0  0  0  0  0  3  0  0  0  0  0  0
  186.8370  177.8020  140.2870 N   0  0  0  0  0  1  0  0  0  0  0  0
  189.0730  173.3570  141.1630 C   0  0  0  0  0  0  0  0  0  0  0  0
  188.0410  175.0710  142.5410 C   0  0  0  0  0  0  0  0  0  0  0  0
  190.0060  171.3940  142.1970 C   0  0  0  0  0  0  0  0  0  0  0  0
  188.6990  173.8360  142.4350 C   0  0  0  0  0  0  0  0  0  0  0  0
  188.1470  175.3120  140.1520 N   0  0  0  0  0  0  0  0  0  0  0  0
  189.7290  172.1310  141.0440 C   0  0  0  0  0  3  0  0  0  0  0  0
  186.7470  177.5290  142.7220 C   0  0  0  0  0  0  0  0  0  0  0  0
  187.6660  175.5650  143.7520 N   0  0  0  0  0  0  0  0  0  0  0  0
  188.7850  174.1170  140.0290 C   0  0  0  0  0  3  0  0  0  0  0  0
  185.7520  179.2220  144.0610 C   0  0  0  0  0  3  0  0  0  0  0  0
  187.1190  177.0420  141.4620 C   0  0  0  0  0  0  0  0  0  0  0  0
  186.1170  178.7300  142.8470 N   0  0  0  0  0  0  0  0  0  0  0  0
  190.8290  169.8540  142.0700 Cl  0  0  0  0  0  0  0  0  0  0  0  0
  189.6410  171.8690  143.4200 N   0  0  0  0  0  0  0  0  0  0  0  0
  187.7720  175.8060  141.3650 C   0  0  0  0  0  0  0  0  0  0  0  0
  186.0200  178.4960  145.2240 C   0  0  0  0  0  3  0  0  0  0  0  0
  187.0330  176.7640  143.8730 C   0  0  0  0  0  0  0  0  0  0  0  0
  186.9580  176.5010  146.3900 C   0  0  0  0  0  2  0  0  0  0  0  0
  188.4310  176.3640  146.5920 C   0  0  0  0  0  0  0  0  0  0  0  0
  191.1870  176.1220  147.0100 C   0  0  0  0  0  0  0  0  0  0  0  0
  188.9770  175.1330  146.9730 C   0  0  0  0  0  3  0  0  0  0  0  0
  189.2660  177.4750  146.4250 C   0  0  0  0  0  3  0  0  0  0  0  0
  190.6430  177.3540  146.6330 C   0  0  0  0  0  3  0  0  0  0  0  0
  192.5220  176.0060  147.2100 F   0  0  0  0  0  0  0  0  0  0  0  0
  190.3550  175.0130  147.1810 C   0  0  0  0  0  3  0  0  0  0  0  0
  1 19  1  0  0  0  0
  1 21  1  0  0  0  0
  3 14  1  0  0  0  0
  4  7  1  0  0  0  0
  5 11  2  0  0  0  0
  6 17  2  0  0  0  0
  7  5  1  0  0  0  0
  7  2  2  0  0  0  0
  8 18  1  0  0  0  0
  9  4  2  0  0  0  0
  9  6  1  0  0  0  0
 10 15  2  0  0  0  0
 10 20  1  0  0  0  0
 11 20  1  0  0  0  0
 12  8  2  0  0  0  0
 12  4  1  0  0  0  0
 13 19  2  0  0  0  0
 14 10  1  0  0  0  0
 15 13  1  0  0  0  0
 16  6  1  0  0  0  0
 17  2  1  0  0  0  0
 18 14  2  0  0  0  0
 18  5  1  0  0  0  0
 20  1  2  0  0  0  0
 21 22  1  0  0  0  0
 22 24  1  0  0  0  0
 23 28  1  0  0  0  0
 23 27  1  0  0  0  0
 24 28  2  0  0  0  0
 25 22  2  0  0  0  0
 25 26  1  0  0  0  0
 26 23  2  0  0  0  0
M  END
>  <MODEL>
1

>  <REMARK>
 VINA RESULT:      -8.0      0.000      0.000
  Name = 
  2 active torsions:
  status: ('A' for Active; 'I' for Inactive)
    1  A    between atoms: C_1  and  C_2
    2  A    between atoms: C_2  and  C_3
                            x       y       z     vdW  Elec       q    Type
                         _______ _______ _______ _____ _____    ______ ____

>  <TORSDO>
F 2

$$$$
=
 OpenBabel11052418103D

 28 32  0  0  0  0  0  0  0  0999 V2000
  187.7570  177.3440  142.4630 C   0  0  0  0  0  0  0  0  0  0  0  0
  191.3120  174.3050  144.3870 C   0  0  0  0  0  3  0  0  0  0  0  0
  188.3460  173.9510  139.0060 N   0  0  0  0  0  1  0  0  0  0  0  0
  191.5820  172.6390  142.6570 C   0  0  0  0  0  0  0  0  0  0  0  0
  189.9710  174.4290  142.3400 C   0  0  0  0  0  0  0  0  0  0  0  0
  192.8830  172.5460  144.6800 C   0  0  0  0  0  0  0  0  0  0  0  0
  190.9460  173.8040  143.1310 C   0  0  0  0  0  0  0  0  0  0  0  0
  190.2860  172.7460  140.6530 N   0  0  0  0  0  0  0  0  0  0  0  0
  192.5540  172.0080  143.4340 C   0  0  0  0  0  3  0  0  0  0  0  0
  188.0480  175.6560  140.7430 C   0  0  0  0  0  0  0  0  0  0  0  0
  189.3370  175.5560  142.7650 N   0  0  0  0  0  0  0  0  0  0  0  0
  191.2330  172.1250  141.4070 C   0  0  0  0  0  3  0  0  0  0  0  0
  186.4840  177.4140  140.4130 C   0  0  0  0  0  3  0  0  0  0  0  0
  188.6830  174.4950  140.2810 C   0  0  0  0  0  0  0  0  0  0  0  0
  187.1070  176.2840  139.9850 N   0  0  0  0  0  0  0  0  0  0  0  0
  194.1000  171.7700  145.6700 Cl  0  0  0  0  0  0  0  0  0  0  0  0
  192.2620  173.6720  145.1260 N   0  0  0  0  0  0  0  0  0  0  0  0
  189.6530  173.8740  141.0800 C   0  0  0  0  0  0  0  0  0  0  0  0
  186.8000  177.9640  141.6570 C   0  0  0  0  0  3  0  0  0  0  0  0
  188.3950  176.1790  142.0070 C   0  0  0  0  0  0  0  0  0  0  0  0
  188.0990  177.9570  143.7860 C   0  0  0  0  0  2  0  0  0  0  0  0
  186.9080  177.9790  144.6850 C   0  0  0  0  0  0  0  0  0  0  0  0
  184.6500  178.0120  146.3390 C   0  0  0  0  0  0  0  0  0  0  0  0
  186.5760  176.8490  145.4410 C   0  0  0  0  0  3  0  0  0  0  0  0
  186.1050  179.1240  144.7550 C   0  0  0  0  0  3  0  0  0  0  0  0
  184.9780  179.1400  145.5810 C   0  0  0  0  0  3  0  0  0  0  0  0
  183.5590  178.0290  147.1400 F   0  0  0  0  0  0  0  0  0  0  0  0
  185.4480  176.8660  146.2690 C   0  0  0  0  0  3  0  0  0  0  0  0
  1 21  1  0  0  0  0
  2 17  1  0  0  0  0
  3 14  1  0  0  0  0
  4  7  1  0  0  0  0
  4  9  2  0  0  0  0
  5 11  1  0  0  0  0
  5  7  1  0  0  0  0
  6 17  2  0  0  0  0
  6 16  1  0  0  0  0
  7  2  2  0  0  0  0
  8 18  1  0  0  0  0
  8 12  2  0  0  0  0
  9  6  1  0  0  0  0
 10 20  1  0  0  0  0
 12  4  1  0  0  0  0
 13 19  1  0  0  0  0
 14 10  2  0  0  0  0
 14 18  1  0  0  0  0
 15 13  2  0  0  0  0
 15 10  1  0  0  0  0
 18  5  2  0  0  0  0
 19  1  2  0  0  0  0
 20  1  1  0  0  0  0
 20 11  2  0  0  0  0
 21 22  1  0  0  0  0
 22 25  2  0  0  0  0
 22 24  1  0  0  0  0
 23 27  1  0  0  0  0
 24 28  2  0  0  0  0
 25 26  1  0  0  0  0
 26 23  2  0  0  0  0
 28 23  1  0  0  0  0
M  END
>  <MODEL>
2

>  <REMARK>
 VINA RESULT:      -8.0      2.829      4.097
  Name = 
  2 active torsions:
  status: ('A' for Active; 'I' for Inactive)
    1  A    between atoms: C_1  and  C_2
    2  A    between atoms: C_2  and  C_3
                            x       y       z     vdW  Elec       q    Type
                         _______ _______ _______ _____ _____    ______ ____

>  <TORSDO>
F 2

$$$$
=
 OpenBabel11052418103D

 28 32  0  0  0  0  0  0  0  0999 V2000
  191.2680  173.4130  143.5670 C   0  0  0  0  0  0  0  0  0  0  0  0
  188.1070  176.6030  145.8930 C   0  0  0  0  0  3  0  0  0  0  0  0
  188.2410  174.8150  140.0060 N   0  0  0  0  0  1  0  0  0  0  0  0
  186.6230  177.2800  144.1090 C   0  0  0  0  0  0  0  0  0  0  0  0
  188.4200  175.7160  143.6320 C   0  0  0  0  0  0  0  0  0  0  0  0
  186.3440  178.1330  146.3420 C   0  0  0  0  0  0  0  0  0  0  0  0
  187.7300  176.5240  144.5470 C   0  0  0  0  0  0  0  0  0  0  0  0
  186.9110  176.4210  141.8990 N   0  0  0  0  0  0  0  0  0  0  0  0
  185.9280  178.0860  145.0100 C   0  0  0  0  0  3  0  0  0  0  0  0
  189.7630  174.1110  141.7940 C   0  0  0  0  0  0  0  0  0  0  0  0
  189.4920  174.9720  144.0180 N   0  0  0  0  0  0  0  0  0  0  0  0
  186.2300  177.2120  142.7720 C   0  0  0  0  0  3  0  0  0  0  0  0
  191.5040  172.5650  141.3190 C   0  0  0  0  0  3  0  0  0  0  0  0
  188.6640  174.8690  141.3670 C   0  0  0  0  0  0  0  0  0  0  0  0
  190.4390  173.3120  140.9230 N   0  0  0  0  0  0  0  0  0  0  0  0
  185.4850  179.1390  147.4880 Cl  0  0  0  0  0  0  0  0  0  0  0  0
  187.4140  177.3970  146.7530 N   0  0  0  0  0  0  0  0  0  0  0  0
  187.9830  175.6780  142.2880 C   0  0  0  0  0  0  0  0  0  0  0  0
  191.9340  172.6010  142.6470 C   0  0  0  0  0  3  0  0  0  0  0  0
  190.1680  174.1770  143.1450 C   0  0  0  0  0  0  0  0  0  0  0  0
  191.7280  173.4270  144.9920 C   0  0  0  0  0  2  0  0  0  0  0  0
  192.5660  174.6310  145.2680 C   0  0  0  0  0  0  0  0  0  0  0  0
  194.1620  176.8660  145.8090 C   0  0  0  0  0  0  0  0  0  0  0  0
  193.5570  175.0220  144.3600 C   0  0  0  0  0  3  0  0  0  0  0  0
  192.3780  175.3590  146.4500 C   0  0  0  0  0  3  0  0  0  0  0  0
  193.1750  176.4750  146.7190 C   0  0  0  0  0  3  0  0  0  0  0  0
  194.9320  177.9490  146.0700 F   0  0  0  0  0  0  0  0  0  0  0  0
  194.3530  176.1390  144.6300 C   0  0  0  0  0  3  0  0  0  0  0  0
  1 21  1  0  0  0  0
  2 17  1  0  0  0  0
  3 14  1  0  0  0  0
  4  7  1  0  0  0  0
  4  9  2  0  0  0  0
  5 11  1  0  0  0  0
  5  7  1  0  0  0  0
  6 17  2  0  0  0  0
  6 16  1  0  0  0  0
  7  2  2  0  0  0  0
  8 18  1  0  0  0  0
  8 12  2  0  0  0  0
  9  6  1  0  0  0  0
 10 20  1  0  0  0  0
 12  4  1  0  0  0  0
 13 19  1  0  0  0  0
 14 10  2  0  0  0  0
 14 18  1  0  0  0  0
 15 13  2  0  0  0  0
 15 10  1  0  0  0  0
 18  5  2  0  0  0  0
 19  1  2  0  0  0  0
 20  1  1  0  0  0  0
 20 11  2  0  0  0  0
 21 22  1  0  0  0  0
 22 25  1  0  0  0  0
 23 27  1  0  0  0  0
 23 26  1  0  0  0  0
 24 28  1  0  0  0  0
 24 22  2  0  0  0  0
 25 26  2  0  0  0  0
 28 23  2  0  0  0  0
M  END
>  <MODEL>
3

>  <REMARK>
 VINA RESULT:      -7.8      3.131      5.634
  Name = 
  2 active torsions:
  status: ('A' for Active; 'I' for Inactive)
    1  A    between atoms: C_1  and  C_2
    2  A    between atoms: C_2  and  C_3
                            x       y       z     vdW  Elec       q    Type
                         _______ _______ _______ _____ _____    ______ ____

>  <TORSDO>
F 2

$$$$
=
 OpenBabel11052418103D

 28 32  0  0  0  0  0  0  0  0999 V2000
  187.7740  176.3740  146.4760 C   0  0  0  0  0  0  0  0  0  0  0  0
  189.1920  173.6970  142.4260 C   0  0  0  0  0  3  0  0  0  0  0  0
  185.8980  178.8870  142.7380 N   0  0  0  0  0  1  0  0  0  0  0  0
  188.2500  174.9630  140.5940 C   0  0  0  0  0  0  0  0  0  0  0  0
  187.9120  175.7380  142.8720 C   0  0  0  0  0  0  0  0  0  0  0  0
  189.5130  172.9530  140.1920 C   0  0  0  0  0  0  0  0  0  0  0  0
  188.4520  174.7990  141.9800 C   0  0  0  0  0  0  0  0  0  0  0  0
  187.0030  176.9570  141.0100 N   0  0  0  0  0  0  0  0  0  0  0  0
  188.7830  174.0360  139.6980 C   0  0  0  0  0  3  0  0  0  0  0  0
  186.8390  177.6240  144.6170 C   0  0  0  0  0  0  0  0  0  0  0  0
  188.0870  175.6130  144.2160 N   0  0  0  0  0  0  0  0  0  0  0  0
  187.5180  176.0560  140.1300 C   0  0  0  0  0  3  0  0  0  0  0  0
  186.5190  178.4040  146.8390 C   0  0  0  0  0  3  0  0  0  0  0  0
  186.6410  177.7760  143.2380 C   0  0  0  0  0  0  0  0  0  0  0  0
  186.3330  178.5310  145.4980 N   0  0  0  0  0  0  0  0  0  0  0  0
  190.1890  171.7800  139.0830 Cl  0  0  0  0  0  0  0  0  0  0  0  0
  189.7010  172.8080  141.5320 N   0  0  0  0  0  0  0  0  0  0  0  0
  187.1790  176.8310  142.3550 C   0  0  0  0  0  0  0  0  0  0  0  0
  187.2450  177.3260  147.3500 C   0  0  0  0  0  3  0  0  0  0  0  0
  187.5770  176.5190  145.0940 C   0  0  0  0  0  0  0  0  0  0  0  0
  188.5670  175.2340  147.0370 C   0  0  0  0  0  2  0  0  0  0  0  0
  190.0310  175.5010  146.9310 C   0  0  0  0  0  0  0  0  0  0  0  0
  192.7840  175.9800  146.7660 C   0  0  0  0  0  0  0  0  0  0  0  0
  190.8340  174.7040  146.1060 C   0  0  0  0  0  3  0  0  0  0  0  0
  190.6100  176.5360  147.6760 C   0  0  0  0  0  3  0  0  0  0  0  0
  191.9840  176.7750  147.5930 C   0  0  0  0  0  3  0  0  0  0  0  0
  194.1160  176.2130  146.6850 F   0  0  0  0  0  0  0  0  0  0  0  0
  192.2090  174.9440  146.0230 C   0  0  0  0  0  3  0  0  0  0  0  0
  1 21  1  0  0  0  0
  1 19  1  0  0  0  0
  3 14  1  0  0  0  0
  4  7  2  0  0  0  0
  5 11  2  0  0  0  0
  6 17  1  0  0  0  0
  7  2  1  0  0  0  0
  7  5  1  0  0  0  0
  8 18  1  0  0  0  0
  9  6  2  0  0  0  0
  9  4  1  0  0  0  0
 10 20  1  0  0  0  0
 10 15  2  0  0  0  0
 11 20  1  0  0  0  0
 12  4  1  0  0  0  0
 12  8  2  0  0  0  0
 13 19  2  0  0  0  0
 14 10  1  0  0  0  0
 15 13  1  0  0  0  0
 16  6  1  0  0  0  0
 17  2  2  0  0  0  0
 18  5  1  0  0  0  0
 18 14  2  0  0  0  0
 20  1  2  0  0  0  0
 22 21  1  0  0  0  0
 22 25  1  0  0  0  0
 23 26  1  0  0  0  0
 24 22  2  0  0  0  0
 26 25  2  0  0  0  0
 27 23  1  0  0  0  0
 28 24  1  0  0  0  0
 28 23  2  0  0  0  0
M  END
>  <MODEL>
4

>  <REMARK>
 VINA RESULT:      -7.8      1.414      2.115
  Name = 
  2 active torsions:
  status: ('A' for Active; 'I' for Inactive)
    1  A    between atoms: C_1  and  C_2
    2  A    between atoms: C_2  and  C_3
                            x       y       z     vdW  Elec       q    Type
                         _______ _______ _______ _____ _____    ______ ____

>  <TORSDO>
F 2

$$$$
=
 OpenBabel11052418103D

 28 32  0  0  0  0  0  0  0  0999 V2000
  189.7630  172.5660  143.5230 C   0  0  0  0  0  0  0  0  0  0  0  0
  187.2230  176.8910  144.1670 C   0  0  0  0  0  3  0  0  0  0  0  0
  188.7300  173.9680  138.9640 N   0  0  0  0  0  1  0  0  0  0  0  0
  186.7260  177.5610  141.8980 C   0  0  0  0  0  0  0  0  0  0  0  0
  187.9680  175.5090  142.2860 C   0  0  0  0  0  0  0  0  0  0  0  0
  186.0090  178.8950  143.7680 C   0  0  0  0  0  0  0  0  0  0  0  0
  187.3140  176.6420  142.7910 C   0  0  0  0  0  0  0  0  0  0  0  0
  187.4410  176.2230  140.0520 N   0  0  0  0  0  0  0  0  0  0  0  0
  186.0710  178.6900  142.3880 C   0  0  0  0  0  3  0  0  0  0  0  0
  189.2510  173.2630  141.2540 C   0  0  0  0  0  0  0  0  0  0  0  0
  188.5460  174.6010  143.1190 N   0  0  0  0  0  0  0  0  0  0  0  0
  186.8030  177.3280  140.5240 C   0  0  0  0  0  3  0  0  0  0  0  0
  190.4490  171.2440  141.6220 C   0  0  0  0  0  3  0  0  0  0  0  0
  188.6670  174.1840  140.3740 C   0  0  0  0  0  0  0  0  0  0  0  0
  189.8810  172.1520  140.7840 N   0  0  0  0  0  0  0  0  0  0  0  0
  185.1910  180.3060  144.4030 Cl  0  0  0  0  0  0  0  0  0  0  0  0
  186.5790  178.0000  144.6200 N   0  0  0  0  0  0  0  0  0  0  0  0
  188.0190  175.3150  140.8870 C   0  0  0  0  0  0  0  0  0  0  0  0
  190.3970  171.4340  143.0050 C   0  0  0  0  0  3  0  0  0  0  0  0
  189.1790  173.4930  142.6450 C   0  0  0  0  0  0  0  0  0  0  0  0
  189.6980  172.7470  145.0080 C   0  0  0  0  0  2  0  0  0  0  0  0
  190.6330  173.8230  145.4540 C   0  0  0  0  0  0  0  0  0  0  0  0
  192.3900  175.8190  146.3240 C   0  0  0  0  0  0  0  0  0  0  0  0
  191.9770  173.7910  145.0660 C   0  0  0  0  0  3  0  0  0  0  0  0
  190.1700  174.8520  146.2810 C   0  0  0  0  0  3  0  0  0  0  0  0
  191.0480  175.8500  146.7150 C   0  0  0  0  0  3  0  0  0  0  0  0
  193.2400  176.7860  146.7440 F   0  0  0  0  0  0  0  0  0  0  0  0
  192.8550  174.7900  145.5000 C   0  0  0  0  0  3  0  0  0  0  0  0
  1 21  1  0  0  0  0
  2 17  1  0  0  0  0
  3 14  1  0  0  0  0
  4  9  2  0  0  0  0
  4  7  1  0  0  0  0
  5  7  1  0  0  0  0
  5 11  2  0  0  0  0
  6 16  1  0  0  0  0
  6 17  2  0  0  0  0
  7  2  2  0  0  0  0
  8 12  2  0  0  0  0
  8 18  1  0  0  0  0
  9  6  1  0  0  0  0
 10 20  1  0  0  0  0
 12  4  1  0  0  0  0
 13 19  2  0  0  0  0
 14 18  2  0  0  0  0
 14 10  1  0  0  0  0
 15 10  2  0  0  0  0
 15 13  1  0  0  0  0
 18  5  1  0  0  0  0
 19  1  1  0  0  0  0
 20 11  1  0  0  0  0
 20  1  2  0  0  0  0
 21 22  1  0  0  0  0
 22 25  1  0  0  0  0
 23 26  1  0  0  0  0
 23 27  1  0  0  0  0
 24 22  2  0  0  0  0
 24 28  1  0  0  0  0
 25 26  2  0  0  0  0
 28 23  2  0  0  0  0
M  END
>  <MODEL>
5

>  <REMARK>
 VINA RESULT:      -7.7      2.673      5.373
  Name = 
  2 active torsions:
  status: ('A' for Active; 'I' for Inactive)
    1  A    between atoms: C_1  and  C_2
    2  A    between atoms: C_2  and  C_3
                            x       y       z     vdW  Elec       q    Type
                         _______ _______ _______ _____ _____    ______ ____

>  <TORSDO>
F 2

$$$$
=
 OpenBabel11052418103D

 28 32  0  0  0  0  0  0  0  0999 V2000
  190.0340  176.5320  144.5060 C   0  0  0  0  0  0  0  0  0  0  0  0
  185.6990  177.5750  142.1170 C   0  0  0  0  0  3  0  0  0  0  0  0
  187.1550  178.2320  148.0610 N   0  0  0  0  0  1  0  0  0  0  0  0
  184.2970  178.4120  143.8990 C   0  0  0  0  0  0  0  0  0  0  0  0
  186.5680  177.7130  144.4040 C   0  0  0  0  0  0  0  0  0  0  0  0
  183.4750  178.2640  141.6420 C   0  0  0  0  0  0  0  0  0  0  0  0
  185.5360  177.8940  143.4710 C   0  0  0  0  0  0  0  0  0  0  0  0
  185.1290  178.5580  146.1330 N   0  0  0  0  0  0  0  0  0  0  0  0
  183.2630  178.5980  142.9810 C   0  0  0  0  0  3  0  0  0  0  0  0
  188.6020  177.3760  146.2760 C   0  0  0  0  0  0  0  0  0  0  0  0
  187.7770  177.2160  144.0270 N   0  0  0  0  0  0  0  0  0  0  0  0
  184.1160  178.7390  145.2430 C   0  0  0  0  0  3  0  0  0  0  0  0
  190.8290  176.7140  146.7790 C   0  0  0  0  0  3  0  0  0  0  0  0
  187.3650  177.8870  146.6920 C   0  0  0  0  0  0  0  0  0  0  0  0
  189.6200  177.2040  147.1640 N   0  0  0  0  0  0  0  0  0  0  0  0
  182.1910  178.4890  140.4740 Cl  0  0  0  0  0  0  0  0  0  0  0  0
  184.6770  177.7640  141.2410 N   0  0  0  0  0  0  0  0  0  0  0  0
  186.3380  178.0600  145.7550 C   0  0  0  0  0  0  0  0  0  0  0  0
  191.0560  176.3730  145.4440 C   0  0  0  0  0  3  0  0  0  0  0  0
  188.7920  177.0410  144.9180 C   0  0  0  0  0  0  0  0  0  0  0  0
  190.2990  176.1800  143.0750 C   0  0  0  0  0  2  0  0  0  0  0  0
  190.2080  174.7050  142.8650 C   0  0  0  0  0  0  0  0  0  0  0  0
  190.0410  171.9330  142.5120 C   0  0  0  0  0  0  0  0  0  0  0  0
  188.9570  174.0840  142.7690 C   0  0  0  0  0  3  0  0  0  0  0  0
  191.3750  173.9350  142.7880 C   0  0  0  0  0  3  0  0  0  0  0  0
  191.2920  172.5520  142.6110 C   0  0  0  0  0  3  0  0  0  0  0  0
  189.9620  170.5920  142.3400 F   0  0  0  0  0  0  0  0  0  0  0  0
  188.8740  172.6990  142.5920 C   0  0  0  0  0  3  0  0  0  0  0  0
  1 20  2  0  0  0  0
  1 19  1  0  0  0  0
  2  7  1  0  0  0  0
  4 12  1  0  0  0  0
  5 18  1  0  0  0  0
  6  9  2  0  0  0  0
  7  4  2  0  0  0  0
  7  5  1  0  0  0  0
  9  4  1  0  0  0  0
 10 14  1  0  0  0  0
 10 15  2  0  0  0  0
 11  5  2  0  0  0  0
 11 20  1  0  0  0  0
 12  8  2  0  0  0  0
 13 15  1  0  0  0  0
 14  3  1  0  0  0  0
 16  6  1  0  0  0  0
 17  6  1  0  0  0  0
 17  2  2  0  0  0  0
 18  8  1  0  0  0  0
 18 14  2  0  0  0  0
 19 13  2  0  0  0  0
 20 10  1  0  0  0  0
 21  1  1  0  0  0  0
 22 21  1  0  0  0  0
 23 28  2  0  0  0  0
 23 26  1  0  0  0  0
 24 22  2  0  0  0  0
 25 22  1  0  0  0  0
 26 25  2  0  0  0  0
 27 23  1  0  0  0  0
 28 24  1  0  0  0  0
M  END
>  <MODEL>
6

>  <REMARK>
 VINA RESULT:      -7.7      3.495      6.436
  Name = 
  2 active torsions:
  status: ('A' for Active; 'I' for Inactive)
    1  A    between atoms: C_1  and  C_2
    2  A    between atoms: C_2  and  C_3
                            x       y       z     vdW  Elec       q    Type
                         _______ _______ _______ _____ _____    ______ ____

>  <TORSDO>
F 2

$$$$
=
 OpenBabel11052418103D

 28 32  0  0  0  0  0  0  0  0999 V2000
  189.3050  173.6250  142.6480 C   0  0  0  0  0  0  0  0  0  0  0  0
  187.4230  176.9980  145.9130 C   0  0  0  0  0  3  0  0  0  0  0  0
  187.0650  176.8680  139.7700 N   0  0  0  0  0  1  0  0  0  0  0  0
  186.3220  178.5870  144.4630 C   0  0  0  0  0  0  0  0  0  0  0  0
  187.4580  176.6760  143.4850 C   0  0  0  0  0  0  0  0  0  0  0  0
  186.3060  178.8740  146.8520 C   0  0  0  0  0  0  0  0  0  0  0  0
  187.0770  177.4070  144.6190 C   0  0  0  0  0  0  0  0  0  0  0  0
  186.3430  178.2870  142.0930 N   0  0  0  0  0  0  0  0  0  0  0  0
  185.9350  179.3230  145.5830 C   0  0  0  0  0  3  0  0  0  0  0  0
  188.1920  175.2380  141.2150 C   0  0  0  0  0  0  0  0  0  0  0  0
  188.1870  175.5320  143.5980 N   0  0  0  0  0  0  0  0  0  0  0  0
  185.9650  179.0100  143.1820 C   0  0  0  0  0  3  0  0  0  0  0  0
  189.2830  173.3620  140.2480 C   0  0  0  0  0  3  0  0  0  0  0  0
  187.4450  176.4150  141.0690 C   0  0  0  0  0  0  0  0  0  0  0  0
  188.5630  174.5090  140.1270 N   0  0  0  0  0  0  0  0  0  0  0  0
  185.8300  179.7820  148.2710 Cl  0  0  0  0  0  0  0  0  0  0  0  0
  187.0340  177.7320  146.9900 N   0  0  0  0  0  0  0  0  0  0  0  0
  187.0720  177.1420  142.2080 C   0  0  0  0  0  0  0  0  0  0  0  0
  189.6630  172.9000  141.5100 C   0  0  0  0  0  3  0  0  0  0  0  0
  188.5590  174.8060  142.5080 C   0  0  0  0  0  0  0  0  0  0  0  0
  189.7040  173.1070  143.9960 C   0  0  0  0  0  2  0  0  0  0  0  0
  190.6610  174.0390  144.6610 C   0  0  0  0  0  0  0  0  0  0  0  0
  192.4720  175.7550  145.9300 C   0  0  0  0  0  0  0  0  0  0  0  0
  191.8550  174.3940  144.0230 C   0  0  0  0  0  3  0  0  0  0  0  0
  190.3770  174.5410  145.9370 C   0  0  0  0  0  3  0  0  0  0  0  0
  191.2810  175.3980  146.5700 C   0  0  0  0  0  3  0  0  0  0  0  0
  193.3480  176.5860  146.5430 F   0  0  0  0  0  0  0  0  0  0  0  0
  192.7600  175.2530  144.6570 C   0  0  0  0  0  3  0  0  0  0  0  0
  1 21  1  0  0  0  0
  2 17  1  0  0  0  0
  3 14  1  0  0  0  0
  4  7  1  0  0  0  0
  4  9  2  0  0  0  0
  5 11  1  0  0  0  0
  5  7  1  0  0  0  0
  6 17  2  0  0  0  0
  6 16  1  0  0  0  0
  7  2  2  0  0  0  0
  8 18  1  0  0  0  0
  8 12  2  0  0  0  0
  9  6  1  0  0  0  0
 10 20  1  0  0  0  0
 12  4  1  0  0  0  0
 13 19  1  0  0  0  0
 14 10  2  0  0  0  0
 14 18  1  0  0  0  0
 15 13  2  0  0  0  0
 15 10  1  0  0  0  0
 18  5  2  0  0  0  0
 19  1  2  0  0  0  0
 20  1  1  0  0  0  0
 20 11  2  0  0  0  0
 21 22  1  0  0  0  0
 22 25  1  0  0  0  0
 23 27  1  0  0  0  0
 23 26  1  0  0  0  0
 24 28  1  0  0  0  0
 24 22  2  0  0  0  0
 25 26  2  0  0  0  0
 28 23  2  0  0  0  0
M  END
>  <MODEL>
7

>  <REMARK>
 VINA RESULT:      -7.7      2.821      5.452
  Name = 
  2 active torsions:
  status: ('A' for Active; 'I' for Inactive)
    1  A    between atoms: C_1  and  C_2
    2  A    between atoms: C_2  and  C_3
                            x       y       z     vdW  Elec       q    Type
                         _______ _______ _______ _____ _____    ______ ____

>  <TORSDO>
F 2

$$$$
=
 OpenBabel11052418103D

 28 32  0  0  0  0  0  0  0  0999 V2000
  192.1850  174.7480  143.5620 C   0  0  0  0  0  0  0  0  0  0  0  0
  188.3380  176.8950  146.0470 C   0  0  0  0  0  3  0  0  0  0  0  0
  188.5120  174.5580  140.3550 N   0  0  0  0  0  1  0  0  0  0  0  0
  186.5380  176.7870  144.4370 C   0  0  0  0  0  0  0  0  0  0  0  0
  188.7200  175.9020  143.8400 C   0  0  0  0  0  0  0  0  0  0  0  0
  186.1970  177.7560  146.6140 C   0  0  0  0  0  0  0  0  0  0  0  0
  187.8810  176.5250  144.7760 C   0  0  0  0  0  0  0  0  0  0  0  0
  186.8910  175.8190  142.2820 N   0  0  0  0  0  0  0  0  0  0  0  0
  185.6930  177.4050  145.3600 C   0  0  0  0  0  3  0  0  0  0  0  0
  190.3580  174.6540  141.9650 C   0  0  0  0  0  0  0  0  0  0  0  0
  190.0210  175.6320  144.1310 N   0  0  0  0  0  0  0  0  0  0  0  0
  186.0630  176.4230  143.1770 C   0  0  0  0  0  3  0  0  0  0  0  0
  192.4830  173.7660  141.3760 C   0  0  0  0  0  3  0  0  0  0  0  0
  189.0230  174.9230  141.6370 C   0  0  0  0  0  0  0  0  0  0  0  0
  191.1850  174.0410  141.0740 N   0  0  0  0  0  0  0  0  0  0  0  0
  185.1540  178.5320  147.7860 Cl  0  0  0  0  0  0  0  0  0  0  0  0
  187.4960  177.4960  146.9290 N   0  0  0  0  0  0  0  0  0  0  0  0
  188.1930  175.5500  142.5760 C   0  0  0  0  0  0  0  0  0  0  0  0
  193.0030  174.1130  142.6250 C   0  0  0  0  0  3  0  0  0  0  0  0
  190.8470  175.0220  143.2380 C   0  0  0  0  0  0  0  0  0  0  0  0
  192.7510  175.0960  144.9040 C   0  0  0  0  0  2  0  0  0  0  0  0
  193.9340  174.2410  145.2200 C   0  0  0  0  0  0  0  0  0  0  0  0
  196.1460  172.6470  145.8510 C   0  0  0  0  0  0  0  0  0  0  0  0
  193.7860  172.8560  145.3480 C   0  0  0  0  0  3  0  0  0  0  0  0
  195.1900  174.8280  145.4120 C   0  0  0  0  0  3  0  0  0  0  0  0
  196.2950  174.0320  145.7270 C   0  0  0  0  0  3  0  0  0  0  0  0
  197.2170  171.8760  146.1550 F   0  0  0  0  0  0  0  0  0  0  0  0
  194.8910  172.0590  145.6630 C   0  0  0  0  0  3  0  0  0  0  0  0
  1 21  1  0  0  0  0
  2 17  1  0  0  0  0
  3 14  1  0  0  0  0
  4  7  1  0  0  0  0
  4  9  2  0  0  0  0
  5 11  1  0  0  0  0
  5  7  1  0  0  0  0
  6 17  2  0  0  0  0
  6 16  1  0  0  0  0
  7  2  2  0  0  0  0
  8 18  1  0  0  0  0
  8 12  2  0  0  0  0
  9  6  1  0  0  0  0
 10 20  1  0  0  0  0
 12  4  1  0  0  0  0
 13 19  1  0  0  0  0
 14 10  2  0  0  0  0
 14 18  1  0  0  0  0
 15 13  2  0  0  0  0
 15 10  1  0  0  0  0
 18  5  2  0  0  0  0
 19  1  2  0  0  0  0
 20  1  1  0  0  0  0
 20 11  2  0  0  0  0
 21 22  1  0  0  0  0
 22 24  2  0  0  0  0
 22 25  1  0  0  0  0
 23 27  1  0  0  0  0
 24 28  1  0  0  0  0
 25 26  2  0  0  0  0
 26 23  1  0  0  0  0
 28 23  2  0  0  0  0
M  END
>  <MODEL>
8

>  <REMARK>
 VINA RESULT:      -7.6      3.972      6.093
  Name = 
  2 active torsions:
  status: ('A' for Active; 'I' for Inactive)
    1  A    between atoms: C_1  and  C_2
    2  A    between atoms: C_2  and  C_3
                            x       y       z     vdW  Elec       q    Type
                         _______ _______ _______ _____ _____    ______ ____

>  <TORSDO>
F 2

$$$$
=
 OpenBabel11052418103D

 28 32  0  0  0  0  0  0  0  0999 V2000
  190.2730  175.4710  144.6330 C   0  0  0  0  0  0  0  0  0  0  0  0
  193.7820  175.2750  140.9970 C   0  0  0  0  0  3  0  0  0  0  0  0
  194.3040  177.0950  146.8530 N   0  0  0  0  0  1  0  0  0  0  0  0
  195.7620  176.0830  142.1230 C   0  0  0  0  0  0  0  0  0  0  0  0
  193.6730  175.9360  143.3530 C   0  0  0  0  0  0  0  0  0  0  0  0
  195.8350  175.4260  139.8090 C   0  0  0  0  0  0  0  0  0  0  0  0
  194.3900  175.7630  142.1600 C   0  0  0  0  0  0  0  0  0  0  0  0
  195.6750  176.7290  144.4210 N   0  0  0  0  0  0  0  0  0  0  0  0
  196.4870  175.9140  140.9430 C   0  0  0  0  0  3  0  0  0  0  0  0
  192.2770  176.2800  145.7390 C   0  0  0  0  0  0  0  0  0  0  0  0
  192.3470  175.6370  143.4270 N   0  0  0  0  0  0  0  0  0  0  0  0
  196.3870  176.5680  143.2720 C   0  0  0  0  0  3  0  0  0  0  0  0
  190.2440  176.1210  146.9580 C   0  0  0  0  0  3  0  0  0  0  0  0
  193.6410  176.6000  145.6900 C   0  0  0  0  0  0  0  0  0  0  0  0
  191.5660  176.4310  146.8900 N   0  0  0  0  0  0  0  0  0  0  0  0
  196.7260  175.2060  138.3180 Cl  0  0  0  0  0  0  0  0  0  0  0  0
  194.5090  175.1190  139.8580 N   0  0  0  0  0  0  0  0  0  0  0  0
  194.3490  176.4280  144.4930 C   0  0  0  0  0  0  0  0  0  0  0  0
  189.5770  175.6340  145.8330 C   0  0  0  0  0  3  0  0  0  0  0  0
  191.6390  175.7920  144.5780 C   0  0  0  0  0  0  0  0  0  0  0  0
  189.5480  174.9290  143.4400 C   0  0  0  0  0  2  0  0  0  0  0  0
  188.5960  175.9400  142.8920 C   0  0  0  0  0  0  0  0  0  0  0  0
  186.8060  177.8500  141.9030 C   0  0  0  0  0  0  0  0  0  0  0  0
  189.0740  177.1560  142.3910 C   0  0  0  0  0  3  0  0  0  0  0  0
  187.2200  175.6830  142.9010 C   0  0  0  0  0  3  0  0  0  0  0  0
  186.3260  176.6360  142.4060 C   0  0  0  0  0  3  0  0  0  0  0  0
  185.9390  178.7730  141.4230 F   0  0  0  0  0  0  0  0  0  0  0  0
  188.1790  178.1100  141.8960 C   0  0  0  0  0  3  0  0  0  0  0  0
  1 19  1  0  0  0  0
  2  7  1  0  0  0  0
  4  7  2  0  0  0  0
  4 12  1  0  0  0  0
  5 11  2  0  0  0  0
  5 18  1  0  0  0  0
  6 17  1  0  0  0  0
  6  9  2  0  0  0  0
  7  5  1  0  0  0  0
  8 18  1  0  0  0  0
  9  4  1  0  0  0  0
 10 15  2  0  0  0  0
 11 20  1  0  0  0  0
 12  8  2  0  0  0  0
 14 10  1  0  0  0  0
 14  3  1  0  0  0  0
 15 13  1  0  0  0  0
 16  6  1  0  0  0  0
 17  2  2  0  0  0  0
 18 14  2  0  0  0  0
 19 13  2  0  0  0  0
 20  1  2  0  0  0  0
 20 10  1  0  0  0  0
 21  1  1  0  0  0  0
 22 25  1  0  0  0  0
 22 21  1  0  0  0  0
 23 26  1  0  0  0  0
 24 22  2  0  0  0  0
 26 25  2  0  0  0  0
 27 23  1  0  0  0  0
 28 23  2  0  0  0  0
 28 24  1  0  0  0  0
M  END
>  <MODEL>
9

>  <REMARK>
 VINA RESULT:      -7.6      4.997      6.718
  Name = 
  2 active torsions:
  status: ('A' for Active; 'I' for Inactive)
    1  A    between atoms: C_1  and  C_2
    2  A    between atoms: C_2  and  C_3
                            x       y       z     vdW  Elec       q    Type
                         _______ _______ _______ _____ _____    ______ ____

>  <TORSDO>
F 2

$$$$
