=
 OpenBabel11052420263D

 34 38  0  0  1  0  0  0  0  0999 V2000
  194.4830  174.8000  146.0140 C   0  0  1  0  0  3  0  0  0  0  0  0
  193.2750  173.9070  145.8000 C   0  0  0  0  0  1  0  0  0  0  0  0
  194.9090  175.1930  143.6260 N   0  0  0  0  0  0  0  0  0  0  0  0
  197.9170  174.9510  141.6010 C   0  0  0  0  0  2  0  0  0  0  0  0
  197.4670  174.2920  143.7490 N   0  0  0  0  0  0  0  0  0  0  0  0
  196.7040  174.2640  144.8690 C   0  0  0  0  0  0  0  0  0  0  0  0
  195.4010  174.7820  144.8220 C   0  0  0  0  0  0  0  0  0  0  0  0
  197.2500  173.7420  146.0770 N   0  0  0  0  0  1  0  0  0  0  0  0
  197.7280  175.7490  140.3580 C   0  0  0  0  0  2  0  0  0  0  0  0
  196.6360  175.2320  139.4910 C   0  0  0  0  0  0  0  0  0  0  0  0
  195.3860  175.1650  139.9460 C   0  0  0  0  0  3  0  0  0  0  0  0
  197.0070  174.7760  142.5650 C   0  0  0  0  0  0  0  0  0  0  0  0
  194.9510  175.3540  141.3430 C   0  0  0  0  0  2  0  0  0  0  0  0
  195.6410  175.1700  142.4800 C   0  0  0  0  0  0  0  0  0  0  0  0
  196.9080  174.9670  138.1070 N   0  0  0  0  0  0  0  0  0  0  0  0
  197.9410  174.1280  137.7560 O   0  0  0  0  0  0  0  0  0  0  0  0
  196.2030  175.4700  137.2070 O   0  0  0  0  0  0  0  0  0  0  0  0
  194.0440  176.2130  146.3860 C   0  0  0  0  0  2  0  0  0  0  0  0
  189.3690  177.5750  144.2930 C   0  0  0  0  0  3  0  0  0  0  0  0
  189.0670  176.4450  146.8800 C   0  0  0  0  0  3  0  0  0  0  0  0
  185.6930  177.7800  144.7340 C   0  0  0  0  0  0  0  0  0  0  0  0
  192.6120  176.4380  146.0340 C   0  0  0  0  0  0  0  0  0  0  0  0
  192.0810  177.1500  144.5950 S   0  0  0  0  0  0  0  0  0  0  0  0
  186.9700  177.8950  144.1680 C   0  0  0  0  0  3  0  0  0  0  0  0
  188.0960  177.4560  144.8680 C   0  0  0  0  0  0  0  0  0  0  0  0
  191.5340  176.1820  146.8810 C   0  0  0  0  0  3  0  0  0  0  0  0
  186.6700  176.7780  146.7250 C   0  0  0  0  0  3  0  0  0  0  0  0
  187.9440  176.8900  146.1650 C   0  0  0  0  0  0  0  0  0  0  0  0
  185.5520  177.2210  146.0130 C   0  0  0  0  0  3  0  0  0  0  0  0
  190.3270  176.5690  146.2940 C   0  0  0  0  0  0  0  0  0  0  0  0
  190.4620  177.1230  145.0290 C   0  0  0  0  0  0  0  0  0  0  0  0
  184.5130  178.2450  143.9890 C   0  0  0  0  0  0  0  0  0  0  0  0
  183.6740  179.0120  144.5340 O   0  0  0  0  0  1  0  0  0  0  0  0
  184.3130  177.8440  142.6730 O   0  0  0  0  0  0  0  0  0  0  0  0
  1  2  1  6  0  0  0
  1 18  1  0  0  0  0
  3  7  1  0  0  0  0
  4 12  1  0  0  0  0
  5  6  1  0  0  0  0
  6  8  1  0  0  0  0
  7  6  2  0  0  0  0
  7  1  1  0  0  0  0
  9  4  1  0  0  0  0
 10 11  2  0  0  0  0
 10  9  1  0  0  0  0
 11 13  1  0  0  0  0
 12  5  2  0  0  0  0
 13 14  1  0  0  0  0
 14 12  1  0  0  0  0
 14  3  2  0  0  0  0
 15 10  1  0  0  0  0
 16 15  2  0  0  0  0
 17 15  2  0  0  0  0
 19 25  2  0  0  0  0
 19 31  1  0  0  0  0
 21 29  1  0  0  0  0
 22 18  1  0  0  0  0
 22 26  2  0  0  0  0
 23 31  1  0  0  0  0
 23 22  1  0  0  0  0
 24 21  2  0  0  0  0
 24 25  1  0  0  0  0
 25 28  1  0  0  0  0
 28 27  1  0  0  0  0
 28 20  2  0  0  0  0
 29 27  2  0  0  0  0
 30 20  1  0  0  0  0
 30 26  1  0  0  0  0
 31 30  2  0  0  0  0
 32 33  1  0  0  0  0
 32 21  1  0  0  0  0
 34 32  2  0  0  0  0
M  END
>  <MODEL>
1

>  <REMARK>
 VINA RESULT:      -8.7      0.000      0.000
  Name = 
  5 active torsions:
  status: ('A' for Active; 'I' for Inactive)
    1  A    between atoms: N_3  and  C_25
    2  A    between atoms: C_7  and  C_11
    3  A    between atoms: C_8  and  C_17
    4  A    between atoms: C_10  and  C_17
    5  A    between atoms: C_10  and  C_20
                            x       y       z     vdW  Elec       q    Type
                         _______ _______ _______ _____ _____    ______ ____

>  <TORSDO>
F 5

$$$$
=
 OpenBabel11052420263D

 34 38  0  0  1  0  0  0  0  0999 V2000
  191.9430  175.6470  145.7530 C   0  0  1  0  0  3  0  0  0  0  0  0
  190.7750  174.6780  145.7580 C   0  0  0  0  0  1  0  0  0  0  0  0
  193.2700  173.5940  145.5080 N   0  0  0  0  0  0  0  0  0  0  0  0
  196.8450  172.9560  145.6470 C   0  0  0  0  0  2  0  0  0  0  0  0
  195.6050  174.8080  146.1760 N   0  0  0  0  0  0  0  0  0  0  0  0
  194.4590  175.5330  146.1840 C   0  0  0  0  0  0  0  0  0  0  0  0
  193.2610  174.9220  145.7830 C   0  0  0  0  0  0  0  0  0  0  0  0
  194.5000  176.9060  146.5650 N   0  0  0  0  0  1  0  0  0  0  0  0
  197.1320  171.6630  144.9640 C   0  0  0  0  0  2  0  0  0  0  0  0
  196.5040  170.4940  145.6360 C   0  0  0  0  0  0  0  0  0  0  0  0
  195.1810  170.4250  145.7740 C   0  0  0  0  0  3  0  0  0  0  0  0
  195.6340  173.4950  145.8250 C   0  0  0  0  0  0  0  0  0  0  0  0
  194.2150  171.5090  145.5170 C   0  0  0  0  0  2  0  0  0  0  0  0
  194.4000  172.8390  145.5550 C   0  0  0  0  0  0  0  0  0  0  0  0
  197.3200  169.3660  145.9810 N   0  0  0  0  0  0  0  0  0  0  0  0
  197.4080  168.9530  147.2910 O   0  0  0  0  0  0  0  0  0  0  0  0
  197.9410  168.7300  145.1030 O   0  0  0  0  0  0  0  0  0  0  0  0
  191.8360  176.6070  144.5730 C   0  0  0  0  0  2  0  0  0  0  0  0
  187.1110  177.0440  142.2110 C   0  0  0  0  0  3  0  0  0  0  0  0
  187.1010  178.2220  144.7950 C   0  0  0  0  0  3  0  0  0  0  0  0
  183.6320  178.3130  142.4020 C   0  0  0  0  0  0  0  0  0  0  0  0
  190.4110  176.8210  144.1860 C   0  0  0  0  0  0  0  0  0  0  0  0
  189.7460  176.3770  142.6950 S   0  0  0  0  0  0  0  0  0  0  0  0
  184.7960  177.6990  141.9200 C   0  0  0  0  0  3  0  0  0  0  0  0
  185.9520  177.6610  142.7030 C   0  0  0  0  0  0  0  0  0  0  0  0
  189.4690  177.4990  144.9600 C   0  0  0  0  0  3  0  0  0  0  0  0
  184.7850  178.8630  144.4740 C   0  0  0  0  0  3  0  0  0  0  0  0
  185.9460  178.2510  143.9980 C   0  0  0  0  0  0  0  0  0  0  0  0
  183.6350  178.8930  143.6800 C   0  0  0  0  0  3  0  0  0  0  0  0
  188.2460  177.6030  144.2930 C   0  0  0  0  0  0  0  0  0  0  0  0
  188.2390  177.0300  143.0280 C   0  0  0  0  0  0  0  0  0  0  0  0
  182.4190  178.3480  141.5700 C   0  0  0  0  0  0  0  0  0  0  0  0
  181.3570  178.8640  142.0110 O   0  0  0  0  0  1  0  0  0  0  0  0
  182.4340  177.8120  140.2870 O   0  0  0  0  0  0  0  0  0  0  0  0
  1  2  1  6  0  0  0
  1  7  1  0  0  0  0
  3 14  2  0  0  0  0
  3  7  1  0  0  0  0
  4 12  1  0  0  0  0
  5  6  1  0  0  0  0
  6  8  1  0  0  0  0
  7  6  2  0  0  0  0
  9 10  1  0  0  0  0
  9  4  1  0  0  0  0
 10 11  2  0  0  0  0
 10 15  1  0  0  0  0
 12  5  2  0  0  0  0
 13 14  1  0  0  0  0
 13 11  1  0  0  0  0
 14 12  1  0  0  0  0
 15 16  2  0  0  0  0
 17 15  2  0  0  0  0
 18  1  1  0  0  0  0
 19 25  2  0  0  0  0
 19 31  1  0  0  0  0
 21 29  1  0  0  0  0
 22 18  1  0  0  0  0
 22 26  2  0  0  0  0
 23 31  1  0  0  0  0
 23 22  1  0  0  0  0
 24 21  2  0  0  0  0
 24 25  1  0  0  0  0
 25 28  1  0  0  0  0
 28 27  1  0  0  0  0
 28 20  2  0  0  0  0
 29 27  2  0  0  0  0
 30 20  1  0  0  0  0
 30 26  1  0  0  0  0
 31 30  2  0  0  0  0
 32 33  1  0  0  0  0
 32 21  1  0  0  0  0
 34 32  2  0  0  0  0
M  END
>  <MODEL>
2

>  <REMARK>
 VINA RESULT:      -8.5      3.966      4.843
  Name = 
  5 active torsions:
  status: ('A' for Active; 'I' for Inactive)
    1  A    between atoms: N_3  and  C_25
    2  A    between atoms: C_7  and  C_11
    3  A    between atoms: C_8  and  C_17
    4  A    between atoms: C_10  and  C_17
    5  A    between atoms: C_10  and  C_20
                            x       y       z     vdW  Elec       q    Type
                         _______ _______ _______ _____ _____    ______ ____

>  <TORSDO>
F 5

$$$$
=
 OpenBabel11052420263D

 34 38  0  0  1  0  0  0  0  0999 V2000
  190.3510  175.5000  146.9670 C   0  0  1  0  0  3  0  0  0  0  0  0
  189.1150  174.7760  147.4650 C   0  0  0  0  0  1  0  0  0  0  0  0
  190.0120  174.1110  144.9690 N   0  0  0  0  0  0  0  0  0  0  0  0
  192.0660  173.4920  142.0360 C   0  0  0  0  0  2  0  0  0  0  0  0
  192.5200  174.5400  144.0230 N   0  0  0  0  0  0  0  0  0  0  0  0
  192.1590  175.0920  145.2070 C   0  0  0  0  0  0  0  0  0  0  0  0
  190.8460  174.9200  145.6700 C   0  0  0  0  0  0  0  0  0  0  0  0
  193.1080  175.8630  145.9400 N   0  0  0  0  0  1  0  0  0  0  0  0
  191.2000  172.9770  140.9390 C   0  0  0  0  0  2  0  0  0  0  0  0
  190.5730  171.6660  141.2550 C   0  0  0  0  0  0  0  0  0  0  0  0
  189.7610  171.5410  142.3050 C   0  0  0  0  0  3  0  0  0  0  0  0
  191.6640  173.7930  143.2760 C   0  0  0  0  0  0  0  0  0  0  0  0
  189.5520  172.5350  143.3740 C   0  0  0  0  0  2  0  0  0  0  0  0
  190.3780  173.5000  143.8110 C   0  0  0  0  0  0  0  0  0  0  0  0
  190.7120  170.5820  140.3260 N   0  0  0  0  0  0  0  0  0  0  0  0
  190.2090  170.6980  139.0500 O   0  0  0  0  0  0  0  0  0  0  0  0
  191.3090  169.5330  140.6490 O   0  0  0  0  0  0  0  0  0  0  0  0
  190.0910  176.9990  146.8700 C   0  0  0  0  0  2  0  0  0  0  0  0
  185.3420  177.7430  144.6370 C   0  0  0  0  0  3  0  0  0  0  0  0
  187.4240  177.7900  142.7060 C   0  0  0  0  0  3  0  0  0  0  0  0
  183.4080  178.2670  141.5160 C   0  0  0  0  0  0  0  0  0  0  0  0
  188.9180  177.2820  145.9920 C   0  0  0  0  0  0  0  0  0  0  0  0
  187.3150  177.3500  146.5270 S   0  0  0  0  0  0  0  0  0  0  0  0
  183.7170  178.0840  142.8710 C   0  0  0  0  0  3  0  0  0  0  0  0
  185.0440  177.9250  143.2790 C   0  0  0  0  0  0  0  0  0  0  0  0
  188.9790  177.4320  144.6070 C   0  0  0  0  0  3  0  0  0  0  0  0
  185.7740  178.1310  140.9620 C   0  0  0  0  0  3  0  0  0  0  0  0
  186.0860  177.9490  142.3110 C   0  0  0  0  0  0  0  0  0  0  0  0
  184.4430  178.2890  140.5680 C   0  0  0  0  0  3  0  0  0  0  0  0
  187.7060  177.6110  144.0610 C   0  0  0  0  0  0  0  0  0  0  0  0
  186.6790  177.5900  144.9950 C   0  0  0  0  0  0  0  0  0  0  0  0
  182.0080  178.4330  141.0960 C   0  0  0  0  0  0  0  0  0  0  0  0
  181.5870  177.8840  140.0430 O   0  0  0  0  0  0  0  0  0  0  0  0
  181.1340  179.1980  141.8610 O   0  0  0  0  0  1  0  0  0  0  0  0
  1  2  1  6  0  0  0
  3  7  1  0  0  0  0
  4 12  1  0  0  0  0
  5  6  1  0  0  0  0
  6  7  2  0  0  0  0
  6  8  1  0  0  0  0
  7  1  1  0  0  0  0
  9 10  1  0  0  0  0
  9  4  1  0  0  0  0
 10 11  2  0  0  0  0
 11 13  1  0  0  0  0
 12 14  1  0  0  0  0
 12  5  2  0  0  0  0
 13 14  1  0  0  0  0
 14  3  2  0  0  0  0
 15 17  2  0  0  0  0
 15 10  1  0  0  0  0
 16 15  2  0  0  0  0
 18  1  1  0  0  0  0
 19 31  1  0  0  0  0
 20 30  1  0  0  0  0
 21 24  2  0  0  0  0
 22 23  1  0  0  0  0
 22 18  1  0  0  0  0
 24 25  1  0  0  0  0
 25 19  2  0  0  0  0
 26 22  2  0  0  0  0
 27 28  1  0  0  0  0
 28 20  2  0  0  0  0
 28 25  1  0  0  0  0
 29 27  2  0  0  0  0
 29 21  1  0  0  0  0
 30 26  1  0  0  0  0
 30 31  2  0  0  0  0
 31 23  1  0  0  0  0
 32 21  1  0  0  0  0
 32 34  1  0  0  0  0
 33 32  2  0  0  0  0
M  END
>  <MODEL>
3

>  <REMARK>
 VINA RESULT:      -8.3      3.988      5.349
  Name = 
  5 active torsions:
  status: ('A' for Active; 'I' for Inactive)
    1  A    between atoms: N_3  and  C_25
    2  A    between atoms: C_7  and  C_11
    3  A    between atoms: C_8  and  C_17
    4  A    between atoms: C_10  and  C_17
    5  A    between atoms: C_10  and  C_20
                            x       y       z     vdW  Elec       q    Type
                         _______ _______ _______ _____ _____    ______ ____

>  <TORSDO>
F 5

$$$$
=
 OpenBabel11052420263D

 34 38  0  0  1  0  0  0  0  0999 V2000
  190.2510  177.3850  143.8270 C   0  0  1  0  0  3  0  0  0  0  0  0
  191.1550  178.5900  143.6430 C   0  0  0  0  0  1  0  0  0  0  0  0
  192.2440  176.2040  144.6450 N   0  0  0  0  0  0  0  0  0  0  0  0
  193.1430  172.6840  144.7350 C   0  0  0  0  0  2  0  0  0  0  0  0
  191.4260  173.7940  143.7000 N   0  0  0  0  0  0  0  0  0  0  0  0
  190.6540  174.8860  143.4780 C   0  0  0  0  0  0  0  0  0  0  0  0
  191.0450  176.1210  144.0150 C   0  0  0  0  0  0  0  0  0  0  0  0
  189.4450  174.7500  142.7350 N   0  0  0  0  0  1  0  0  0  0  0  0
  194.2140  172.4850  145.7510 C   0  0  0  0  0  2  0  0  0  0  0  0
  195.4760  173.1980  145.4180 C   0  0  0  0  0  0  0  0  0  0  0  0
  195.4890  174.5230  145.2860 C   0  0  0  0  0  3  0  0  0  0  0  0
  192.5900  173.8550  144.3990 C   0  0  0  0  0  0  0  0  0  0  0  0
  194.3110  175.4090  145.2220 C   0  0  0  0  0  2  0  0  0  0  0  0
  193.0600  175.1310  144.8220 C   0  0  0  0  0  0  0  0  0  0  0  0
  196.7100  172.4660  145.4070 N   0  0  0  0  0  0  0  0  0  0  0  0
  196.8370  171.3160  146.1530 O   0  0  0  0  0  0  0  0  0  0  0  0
  197.6740  172.8430  144.7070 O   0  0  0  0  0  0  0  0  0  0  0  0
  189.2660  177.6250  144.9660 C   0  0  0  0  0  2  0  0  0  0  0  0
  184.1170  178.5790  144.1500 C   0  0  0  0  0  3  0  0  0  0  0  0
  185.4750  178.0210  141.7190 C   0  0  0  0  0  3  0  0  0  0  0  0
  181.3320  178.8010  141.7100 C   0  0  0  0  0  0  0  0  0  0  0  0
  187.8980  177.9010  144.4400 C   0  0  0  0  0  0  0  0  0  0  0  0
  186.5560  178.2670  145.4040 S   0  0  0  0  0  0  0  0  0  0  0  0
  182.0420  178.8170  142.9190 C   0  0  0  0  0  3  0  0  0  0  0  0
  183.4150  178.5610  142.9360 C   0  0  0  0  0  0  0  0  0  0  0  0
  187.5250  177.8000  143.1000 C   0  0  0  0  0  3  0  0  0  0  0  0
  183.3840  178.2660  140.5160 C   0  0  0  0  0  3  0  0  0  0  0  0
  184.0950  178.2820  141.7170 C   0  0  0  0  0  0  0  0  0  0  0  0
  182.0100  178.5250  140.5130 C   0  0  0  0  0  3  0  0  0  0  0  0
  186.1590  178.0450  142.9350 C   0  0  0  0  0  0  0  0  0  0  0  0
  185.4840  178.3190  144.1160 C   0  0  0  0  0  0  0  0  0  0  0  0
  179.8860  179.0720  141.7020 C   0  0  0  0  0  0  0  0  0  0  0  0
  179.2260  179.0470  142.7760 O   0  0  0  0  0  1  0  0  0  0  0  0
  179.2340  179.3620  140.5090 O   0  0  0  0  0  0  0  0  0  0  0  0
  1  2  1  1  0  0  0
  1  7  1  0  0  0  0
  1 18  1  0  0  0  0
  3 14  1  0  0  0  0
  4  9  1  0  0  0  0
  5 12  1  0  0  0  0
  6  5  2  0  0  0  0
  6  7  1  0  0  0  0
  7  3  2  0  0  0  0
  8  6  1  0  0  0  0
 10  9  1  0  0  0  0
 11 10  2  0  0  0  0
 12  4  1  0  0  0  0
 12 14  2  0  0  0  0
 13 11  1  0  0  0  0
 14 13  1  0  0  0  0
 15 10  1  0  0  0  0
 15 16  2  0  0  0  0
 17 15  2  0  0  0  0
 20 30  1  0  0  0  0
 21 24  2  0  0  0  0
 22 18  1  0  0  0  0
 22 23  1  0  0  0  0
 24 25  1  0  0  0  0
 25 19  2  0  0  0  0
 26 22  2  0  0  0  0
 27 28  1  0  0  0  0
 28 20  2  0  0  0  0
 28 25  1  0  0  0  0
 29 27  2  0  0  0  0
 29 21  1  0  0  0  0
 30 26  1  0  0  0  0
 30 31  2  0  0  0  0
 31 19  1  0  0  0  0
 31 23  1  0  0  0  0
 32 21  1  0  0  0  0
 32 33  1  0  0  0  0
 34 32  2  0  0  0  0
M  END
>  <MODEL>
4

>  <REMARK>
 VINA RESULT:      -8.1      3.729      5.943
  Name = 
  5 active torsions:
  status: ('A' for Active; 'I' for Inactive)
    1  A    between atoms: N_3  and  C_25
    2  A    between atoms: C_7  and  C_11
    3  A    between atoms: C_8  and  C_17
    4  A    between atoms: C_10  and  C_17
    5  A    between atoms: C_10  and  C_20
                            x       y       z     vdW  Elec       q    Type
                         _______ _______ _______ _____ _____    ______ ____

>  <TORSDO>
F 5

$$$$
=
 OpenBabel11052420263D

 34 38  0  0  1  0  0  0  0  0999 V2000
  192.9530  176.0560  146.1210 C   0  0  1  0  0  3  0  0  0  0  0  0
  193.7250  176.9090  147.1100 C   0  0  0  0  0  1  0  0  0  0  0  0
  193.6110  173.7240  145.7160 N   0  0  0  0  0  0  0  0  0  0  0  0
  196.0910  172.2210  143.5250 C   0  0  0  0  0  2  0  0  0  0  0  0
  195.6990  174.4000  144.1170 N   0  0  0  0  0  0  0  0  0  0  0  0
  194.9550  175.3830  144.6820 C   0  0  0  0  0  0  0  0  0  0  0  0
  193.8410  175.0360  145.4610 C   0  0  0  0  0  0  0  0  0  0  0  0
  195.2980  176.7460  144.4450 N   0  0  0  0  0  1  0  0  0  0  0  0
  195.7450  170.7870  143.3150 C   0  0  0  0  0  2  0  0  0  0  0  0
  195.7960  169.9840  144.5650 C   0  0  0  0  0  0  0  0  0  0  0  0
  195.0110  170.2890  145.5970 C   0  0  0  0  0  3  0  0  0  0  0  0
  195.4260  173.0810  144.3040 C   0  0  0  0  0  0  0  0  0  0  0  0
  194.2000  171.5120  145.7490 C   0  0  0  0  0  2  0  0  0  0  0  0
  194.3840  172.7270  145.2080 C   0  0  0  0  0  0  0  0  0  0  0  0
  196.5720  168.7770  144.5890 N   0  0  0  0  0  0  0  0  0  0  0  0
  196.9860  168.2470  145.7890 O   0  0  0  0  0  0  0  0  0  0  0  0
  196.8610  168.1800  143.5300 O   0  0  0  0  0  0  0  0  0  0  0  0
  191.7410  175.4200  146.7930 C   0  0  0  0  0  2  0  0  0  0  0  0
  187.7810  176.4500  143.4240 C   0  0  0  0  0  3  0  0  0  0  0  0
  187.2950  177.5780  145.9840 C   0  0  0  0  0  3  0  0  0  0  0  0
  184.5170  178.1170  142.8590 C   0  0  0  0  0  0  0  0  0  0  0  0
  190.4790  175.8080  146.0970 C   0  0  0  0  0  0  0  0  0  0  0  0
  190.1380  175.4700  144.4750 S   0  0  0  0  0  0  0  0  0  0  0  0
  185.6860  177.3780  142.6330 C   0  0  0  0  0  3  0  0  0  0  0  0
  186.6150  177.1910  143.6600 C   0  0  0  0  0  0  0  0  0  0  0  0
  189.4630  176.5790  146.6600 C   0  0  0  0  0  3  0  0  0  0  0  0
  185.2040  178.4930  145.1630 C   0  0  0  0  0  3  0  0  0  0  0  0
  186.3700  177.7560  144.9430 C   0  0  0  0  0  0  0  0  0  0  0  0
  184.2840  178.6710  144.1270 C   0  0  0  0  0  3  0  0  0  0  0  0
  188.4500  176.8370  145.7340 C   0  0  0  0  0  0  0  0  0  0  0  0
  188.6760  176.2900  144.4780 C   0  0  0  0  0  0  0  0  0  0  0  0
  183.5440  178.3080  141.7720 C   0  0  0  0  0  0  0  0  0  0  0  0
  182.3080  178.3250  142.0160 O   0  0  0  0  0  1  0  0  0  0  0  0
  183.9820  178.4740  140.4630 O   0  0  0  0  0  0  0  0  0  0  0  0
  1 18  1  0  0  0  0
  1  2  1  1  0  0  0
  4 12  1  0  0  0  0
  5 12  2  0  0  0  0
  5  6  1  0  0  0  0
  6  7  2  0  0  0  0
  7  3  1  0  0  0  0
  7  1  1  0  0  0  0
  8  6  1  0  0  0  0
  9  4  1  0  0  0  0
  9 10  1  0  0  0  0
 10 15  1  0  0  0  0
 10 11  2  0  0  0  0
 11 13  1  0  0  0  0
 12 14  1  0  0  0  0
 14  3  2  0  0  0  0
 14 13  1  0  0  0  0
 15 16  2  0  0  0  0
 17 15  2  0  0  0  0
 19 25  2  0  0  0  0
 19 31  1  0  0  0  0
 21 29  1  0  0  0  0
 22 26  2  0  0  0  0
 22 18  1  0  0  0  0
 23 31  1  0  0  0  0
 23 22  1  0  0  0  0
 24 21  2  0  0  0  0
 24 25  1  0  0  0  0
 25 28  1  0  0  0  0
 28 27  1  0  0  0  0
 28 20  2  0  0  0  0
 29 27  2  0  0  0  0
 30 20  1  0  0  0  0
 30 26  1  0  0  0  0
 31 30  2  0  0  0  0
 32 33  1  0  0  0  0
 32 21  1  0  0  0  0
 34 32  2  0  0  0  0
M  END
>  <MODEL>
5

>  <REMARK>
 VINA RESULT:      -8.0      3.282      4.323
  Name = 
  5 active torsions:
  status: ('A' for Active; 'I' for Inactive)
    1  A    between atoms: N_3  and  C_25
    2  A    between atoms: C_7  and  C_11
    3  A    between atoms: C_8  and  C_17
    4  A    between atoms: C_10  and  C_17
    5  A    between atoms: C_10  and  C_20
                            x       y       z     vdW  Elec       q    Type
                         _______ _______ _______ _____ _____    ______ ____

>  <TORSDO>
F 5

$$$$
=
 OpenBabel11052420263D

 34 38  0  0  1  0  0  0  0  0999 V2000
  193.5530  176.5110  145.5750 C   0  0  1  0  0  3  0  0  0  0  0  0
  194.1960  177.0140  146.8550 C   0  0  0  0  0  1  0  0  0  0  0  0
  194.4730  176.3860  143.3010 N   0  0  0  0  0  0  0  0  0  0  0  0
  197.4760  174.8460  141.9530 C   0  0  0  0  0  2  0  0  0  0  0  0
  196.4780  174.6970  144.0100 N   0  0  0  0  0  0  0  0  0  0  0  0
  195.5850  175.0920  144.9510 C   0  0  0  0  0  0  0  0  0  0  0  0
  194.5830  176.0100  144.6000 C   0  0  0  0  0  0  0  0  0  0  0  0
  195.7020  174.5960  146.2820 N   0  0  0  0  0  1  0  0  0  0  0  0
  197.7920  175.4720  140.6390 C   0  0  0  0  0  2  0  0  0  0  0  0
  196.7430  175.2370  139.6110 C   0  0  0  0  0  0  0  0  0  0  0  0
  195.4970  175.6660  139.8080 C   0  0  0  0  0  3  0  0  0  0  0  0
  196.4210  175.1320  142.7230 C   0  0  0  0  0  0  0  0  0  0  0  0
  194.9400  176.1910  141.0680 C   0  0  0  0  0  2  0  0  0  0  0  0
  195.3230  175.9500  142.3330 C   0  0  0  0  0  0  0  0  0  0  0  0
  197.1220  174.6980  138.3370 N   0  0  0  0  0  0  0  0  0  0  0  0
  196.7640  175.3480  137.1780 O   0  0  0  0  0  0  0  0  0  0  0  0
  197.7980  173.6500  138.2590 O   0  0  0  0  0  0  0  0  0  0  0  0
  192.4910  175.4630  145.8870 C   0  0  0  0  0  2  0  0  0  0  0  0
  188.1870  176.3530  142.9240 C   0  0  0  0  0  3  0  0  0  0  0  0
  188.0980  177.8100  145.3600 C   0  0  0  0  0  3  0  0  0  0  0  0
  184.9700  178.1620  142.5570 C   0  0  0  0  0  0  0  0  0  0  0  0
  191.1720  175.8500  145.3060 C   0  0  0  0  0  0  0  0  0  0  0  0
  190.6050  175.3450  143.7950 S   0  0  0  0  0  0  0  0  0  0  0  0
  186.0590  177.3220  142.2850 C   0  0  0  0  0  3  0  0  0  0  0  0
  187.1020  177.1960  143.2050 C   0  0  0  0  0  0  0  0  0  0  0  0
  190.2800  176.7510  145.8880 C   0  0  0  0  0  3  0  0  0  0  0  0
  185.9710  178.7620  144.6920 C   0  0  0  0  0  3  0  0  0  0  0  0
  187.0570  177.9260  144.4260 C   0  0  0  0  0  0  0  0  0  0  0  0
  184.9340  178.8780  143.7630 C   0  0  0  0  0  3  0  0  0  0  0  0
  189.1700  176.9660  145.0670 C   0  0  0  0  0  0  0  0  0  0  0  0
  189.2020  176.2590  143.8730 C   0  0  0  0  0  0  0  0  0  0  0  0
  183.8760  178.2880  141.5810 C   0  0  0  0  0  0  0  0  0  0  0  0
  184.1270  178.3930  140.3500 O   0  0  0  0  0  0  0  0  0  0  0  0
  182.5530  178.2910  142.0080 O   0  0  0  0  0  1  0  0  0  0  0  0
  1 18  1  0  0  0  0
  1  2  1  1  0  0  0
  3  7  1  0  0  0  0
  4 12  1  0  0  0  0
  5  6  1  0  0  0  0
  6  8  1  0  0  0  0
  7  6  2  0  0  0  0
  7  1  1  0  0  0  0
  9  4  1  0  0  0  0
 10 11  2  0  0  0  0
 10  9  1  0  0  0  0
 11 13  1  0  0  0  0
 12  5  2  0  0  0  0
 13 14  1  0  0  0  0
 14 12  1  0  0  0  0
 14  3  2  0  0  0  0
 15 10  1  0  0  0  0
 16 15  2  0  0  0  0
 17 15  2  0  0  0  0
 19 25  2  0  0  0  0
 19 31  1  0  0  0  0
 21 29  1  0  0  0  0
 22 18  1  0  0  0  0
 22 26  2  0  0  0  0
 23 31  1  0  0  0  0
 23 22  1  0  0  0  0
 24 21  2  0  0  0  0
 24 25  1  0  0  0  0
 25 28  1  0  0  0  0
 28 27  1  0  0  0  0
 28 20  2  0  0  0  0
 29 27  2  0  0  0  0
 30 20  1  0  0  0  0
 30 26  1  0  0  0  0
 31 30  2  0  0  0  0
 32 34  1  0  0  0  0
 32 21  1  0  0  0  0
 33 32  2  0  0  0  0
M  END
>  <MODEL>
6

>  <REMARK>
 VINA RESULT:      -7.9      1.301      1.987
  Name = 
  5 active torsions:
  status: ('A' for Active; 'I' for Inactive)
    1  A    between atoms: N_3  and  C_25
    2  A    between atoms: C_7  and  C_11
    3  A    between atoms: C_8  and  C_17
    4  A    between atoms: C_10  and  C_17
    5  A    between atoms: C_10  and  C_20
                            x       y       z     vdW  Elec       q    Type
                         _______ _______ _______ _____ _____    ______ ____

>  <TORSDO>
F 5

$$$$
=
 OpenBabel11052420263D

 34 38  0  0  1  0  0  0  0  0999 V2000
  189.8520  176.5970  145.2990 C   0  0  1  0  0  3  0  0  0  0  0  0
  188.9740  175.4330  144.8760 C   0  0  0  0  0  1  0  0  0  0  0  0
  191.9420  175.5770  144.5090 N   0  0  0  0  0  0  0  0  0  0  0  0
  195.2010  175.1510  146.0610 C   0  0  0  0  0  2  0  0  0  0  0  0
  193.1830  175.8240  146.9110 N   0  0  0  0  0  0  0  0  0  0  0  0
  191.8960  176.2330  146.7890 C   0  0  0  0  0  0  0  0  0  0  0  0
  191.2720  176.1610  145.5340 C   0  0  0  0  0  0  0  0  0  0  0  0
  191.2160  176.7600  147.9250 N   0  0  0  0  0  1  0  0  0  0  0  0
  196.2170  174.9190  144.9960 C   0  0  0  0  0  2  0  0  0  0  0  0
  195.9860  173.6660  144.2300 C   0  0  0  0  0  0  0  0  0  0  0  0
  194.8550  173.4880  143.5500 C   0  0  0  0  0  3  0  0  0  0  0  0
  193.8870  175.3120  145.8680 C   0  0  0  0  0  0  0  0  0  0  0  0
  193.6450  174.3290  143.6250 C   0  0  0  0  0  2  0  0  0  0  0  0
  193.2120  175.1050  144.6320 C   0  0  0  0  0  0  0  0  0  0  0  0
  197.0600  172.7250  144.0910 N   0  0  0  0  0  0  0  0  0  0  0  0
  197.3820  171.8860  145.1330 O   0  0  0  0  0  0  0  0  0  0  0  0
  197.7010  172.6360  143.0220 O   0  0  0  0  0  0  0  0  0  0  0  0
  189.7540  177.7360  144.2890 C   0  0  0  0  0  2  0  0  0  0  0  0
  184.5260  178.3890  143.7170 C   0  0  0  0  0  3  0  0  0  0  0  0
  185.7870  177.8240  141.2360 C   0  0  0  0  0  3  0  0  0  0  0  0
  181.6130  178.3830  141.4220 C   0  0  0  0  0  0  0  0  0  0  0  0
  188.3480  177.9220  143.8280 C   0  0  0  0  0  0  0  0  0  0  0  0
  187.0400  178.2480  144.8490 S   0  0  0  0  0  0  0  0  0  0  0  0
  182.3820  178.4760  142.5900 C   0  0  0  0  0  3  0  0  0  0  0  0
  183.7660  178.2940  142.5430 C   0  0  0  0  0  0  0  0  0  0  0  0
  187.9130  177.7560  142.5130 C   0  0  0  0  0  3  0  0  0  0  0  0
  183.6260  177.9180  140.1380 C   0  0  0  0  0  3  0  0  0  0  0  0
  184.3960  178.0110  141.2990 C   0  0  0  0  0  0  0  0  0  0  0  0
  182.2430  178.1040  140.2000 C   0  0  0  0  0  3  0  0  0  0  0  0
  186.5300  177.9230  142.4120 C   0  0  0  0  0  0  0  0  0  0  0  0
  185.9020  178.2000  143.6190 C   0  0  0  0  0  0  0  0  0  0  0  0
  180.1550  178.5770  141.4820 C   0  0  0  0  0  0  0  0  0  0  0  0
  179.4030  177.6500  141.8850 O   0  0  0  0  0  1  0  0  0  0  0  0
  179.5940  179.7900  141.0970 O   0  0  0  0  0  0  0  0  0  0  0  0
  1  2  1  6  0  0  0
  1  7  1  0  0  0  0
  3 14  2  0  0  0  0
  3  7  1  0  0  0  0
  6  5  1  0  0  0  0
  6  8  1  0  0  0  0
  7  6  2  0  0  0  0
  9  4  1  0  0  0  0
 10  9  1  0  0  0  0
 11 13  1  0  0  0  0
 11 10  2  0  0  0  0
 12  4  1  0  0  0  0
 12  5  2  0  0  0  0
 13 14  1  0  0  0  0
 14 12  1  0  0  0  0
 15 10  1  0  0  0  0
 15 16  2  0  0  0  0
 17 15  2  0  0  0  0
 18  1  1  0  0  0  0
 20 28  2  0  0  0  0
 20 30  1  0  0  0  0
 21 32  1  0  0  0  0
 21 24  2  0  0  0  0
 22 18  1  0  0  0  0
 22 23  1  0  0  0  0
 25 24  1  0  0  0  0
 25 19  2  0  0  0  0
 26 22  2  0  0  0  0
 27 29  2  0  0  0  0
 27 28  1  0  0  0  0
 28 25  1  0  0  0  0
 29 21  1  0  0  0  0
 30 26  1  0  0  0  0
 30 31  2  0  0  0  0
 31 19  1  0  0  0  0
 31 23  1  0  0  0  0
 32 33  1  0  0  0  0
 34 32  2  0  0  0  0
M  END
>  <MODEL>
7

>  <REMARK>
 VINA RESULT:      -7.8      3.273      5.408
  Name = 
  5 active torsions:
  status: ('A' for Active; 'I' for Inactive)
    1  A    between atoms: N_3  and  C_25
    2  A    between atoms: C_7  and  C_11
    3  A    between atoms: C_8  and  C_17
    4  A    between atoms: C_10  and  C_17
    5  A    between atoms: C_10  and  C_20
                            x       y       z     vdW  Elec       q    Type
                         _______ _______ _______ _____ _____    ______ ____

>  <TORSDO>
F 5

$$$$
=
 OpenBabel11052420263D

 34 38  0  0  1  0  0  0  0  0999 V2000
  188.8720  176.7200  143.9310 C   0  0  1  0  0  3  0  0  0  0  0  0
  188.3620  175.3600  143.4910 C   0  0  0  0  0  1  0  0  0  0  0  0
  191.2740  176.5810  143.4320 N   0  0  0  0  0  0  0  0  0  0  0  0
  194.2260  176.6820  145.5490 C   0  0  0  0  0  2  0  0  0  0  0  0
  191.9970  176.5070  146.0480 N   0  0  0  0  0  0  0  0  0  0  0  0
  190.6800  176.5560  145.7300 C   0  0  0  0  0  0  0  0  0  0  0  0
  190.3060  176.6530  144.3810 C   0  0  0  0  0  0  0  0  0  0  0  0
  189.7060  176.5440  146.7700 N   0  0  0  0  0  1  0  0  0  0  0  0
  195.4070  177.0410  144.7150 C   0  0  0  0  0  2  0  0  0  0  0  0
  195.7150  176.0290  143.6700 C   0  0  0  0  0  0  0  0  0  0  0  0
  194.8170  175.7310  142.7320 C   0  0  0  0  0  3  0  0  0  0  0  0
  192.9760  176.5140  145.1050 C   0  0  0  0  0  0  0  0  0  0  0  0
  193.4020  176.1470  142.7100 C   0  0  0  0  0  2  0  0  0  0  0  0
  192.5950  176.4690  143.7340 C   0  0  0  0  0  0  0  0  0  0  0  0
  197.0460  175.5010  143.5800 N   0  0  0  0  0  0  0  0  0  0  0  0
  197.8600  175.8580  142.5290 O   0  0  0  0  0  0  0  0  0  0  0  0
  197.4920  174.7320  144.4580 O   0  0  0  0  0  0  0  0  0  0  0  0
  188.6570  177.7540  142.8310 C   0  0  0  0  0  2  0  0  0  0  0  0
  183.9130  177.9400  140.4750 C   0  0  0  0  0  3  0  0  0  0  0  0
  183.7550  178.7050  143.2050 C   0  0  0  0  0  3  0  0  0  0  0  0
  180.3000  178.7150  140.7900 C   0  0  0  0  0  0  0  0  0  0  0  0
  187.2170  177.8420  142.4540 C   0  0  0  0  0  0  0  0  0  0  0  0
  186.6120  177.5470  140.9020 S   0  0  0  0  0  0  0  0  0  0  0  0
  181.5330  178.3330  140.2430 C   0  0  0  0  0  3  0  0  0  0  0  0
  182.6850  178.3240  141.0320 C   0  0  0  0  0  0  0  0  0  0  0  0
  186.1970  178.2710  143.3030 C   0  0  0  0  0  3  0  0  0  0  0  0
  181.3750  179.0890  142.9410 C   0  0  0  0  0  3  0  0  0  0  0  0
  182.6050  178.7070  142.4000 C   0  0  0  0  0  0  0  0  0  0  0  0
  180.2300  179.0920  142.1400 C   0  0  0  0  0  3  0  0  0  0  0  0
  184.9700  178.3180  142.6370 C   0  0  0  0  0  0  0  0  0  0  0  0
  185.0340  177.9460  141.3010 C   0  0  0  0  0  0  0  0  0  0  0  0
  179.0920  178.7200  139.9500 C   0  0  0  0  0  0  0  0  0  0  0  0
  178.6320  179.8040  139.5000 O   0  0  0  0  0  0  0  0  0  0  0  0
  178.4460  177.5280  139.6450 O   0  0  0  0  0  1  0  0  0  0  0  0
  1  2  1  6  0  0  0
  1  7  1  0  0  0  0
  3 14  2  0  0  0  0
  3  7  1  0  0  0  0
  6  5  1  0  0  0  0
  6  8  1  0  0  0  0
  7  6  2  0  0  0  0
  9  4  1  0  0  0  0
 10  9  1  0  0  0  0
 11 10  2  0  0  0  0
 12  4  1  0  0  0  0
 12  5  2  0  0  0  0
 13 11  1  0  0  0  0
 13 14  1  0  0  0  0
 14 12  1  0  0  0  0
 15 10  1  0  0  0  0
 15 17  2  0  0  0  0
 16 15  2  0  0  0  0
 18  1  1  0  0  0  0
 19 25  2  0  0  0  0
 19 31  1  0  0  0  0
 21 29  1  0  0  0  0
 22 18  1  0  0  0  0
 22 26  2  0  0  0  0
 23 31  1  0  0  0  0
 23 22  1  0  0  0  0
 24 21  2  0  0  0  0
 24 25  1  0  0  0  0
 25 28  1  0  0  0  0
 28 27  1  0  0  0  0
 28 20  2  0  0  0  0
 29 27  2  0  0  0  0
 30 20  1  0  0  0  0
 30 26  1  0  0  0  0
 31 30  2  0  0  0  0
 32 21  1  0  0  0  0
 33 32  2  0  0  0  0
 34 32  1  0  0  0  0
M  END
>  <MODEL>
8

>  <REMARK>
 VINA RESULT:      -7.8      3.781      6.130
  Name = 
  5 active torsions:
  status: ('A' for Active; 'I' for Inactive)
    1  A    between atoms: N_3  and  C_25
    2  A    between atoms: C_7  and  C_11
    3  A    between atoms: C_8  and  C_17
    4  A    between atoms: C_10  and  C_17
    5  A    between atoms: C_10  and  C_20
                            x       y       z     vdW  Elec       q    Type
                         _______ _______ _______ _____ _____    ______ ____

>  <TORSDO>
F 5

$$$$
=
 OpenBabel11052420263D

 34 38  0  0  1  0  0  0  0  0999 V2000
  194.4340  174.4770  144.5490 C   0  0  1  0  0  3  0  0  0  0  0  0
  193.8500  173.4870  145.5400 C   0  0  0  0  0  1  0  0  0  0  0  0
  192.7240  173.5870  143.0270 N   0  0  0  0  0  0  0  0  0  0  0  0
  192.3060  173.7900  139.4220 C   0  0  0  0  0  2  0  0  0  0  0  0
  194.0540  174.3590  140.7890 N   0  0  0  0  0  0  0  0  0  0  0  0
  194.6120  174.5940  142.0020 C   0  0  0  0  0  0  0  0  0  0  0  0
  193.9010  174.2490  143.1610 C   0  0  0  0  0  0  0  0  0  0  0  0
  195.8920  175.2170  142.0770 N   0  0  0  0  0  1  0  0  0  0  0  0
  190.8830  173.5060  139.0840 C   0  0  0  0  0  2  0  0  0  0  0  0
  190.4600  172.1270  139.4450 C   0  0  0  0  0  0  0  0  0  0  0  0
  190.5110  171.7140  140.7110 C   0  0  0  0  0  3  0  0  0  0  0  0
  192.8390  173.7670  140.6490 C   0  0  0  0  0  0  0  0  0  0  0  0
  191.1610  172.4130  141.8350 C   0  0  0  0  0  2  0  0  0  0  0  0
  192.1800  173.2880  141.8170 C   0  0  0  0  0  0  0  0  0  0  0  0
  189.8370  171.3040  138.4490 N   0  0  0  0  0  0  0  0  0  0  0  0
  189.7490  169.9430  138.6340 O   0  0  0  0  0  0  0  0  0  0  0  0
  189.3480  171.8070  137.4150 O   0  0  0  0  0  0  0  0  0  0  0  0
  194.2120  175.9080  145.0280 C   0  0  0  0  0  2  0  0  0  0  0  0
  189.3130  177.7700  144.2370 C   0  0  0  0  0  3  0  0  0  0  0  0
  189.4950  176.3010  146.6600 C   0  0  0  0  0  3  0  0  0  0  0  0
  185.8480  178.0830  145.5210 C   0  0  0  0  0  0  0  0  0  0  0  0
  192.7600  176.2480  145.0400 C   0  0  0  0  0  0  0  0  0  0  0  0
  191.9840  177.1810  143.8610 S   0  0  0  0  0  0  0  0  0  0  0  0
  186.9760  178.2170  144.7000 C   0  0  0  0  0  3  0  0  0  0  0  0
  188.1910  177.6310  145.0650 C   0  0  0  0  0  0  0  0  0  0  0  0
  191.8750  175.9250  146.0690 C   0  0  0  0  0  3  0  0  0  0  0  0
  187.1540  176.7640  147.0940 C   0  0  0  0  0  3  0  0  0  0  0  0
  188.2800  176.8940  146.2790 C   0  0  0  0  0  0  0  0  0  0  0  0
  185.9460  177.3550  146.7160 C   0  0  0  0  0  3  0  0  0  0  0  0
  190.6030  176.4470  145.8250 C   0  0  0  0  0  0  0  0  0  0  0  0
  190.5010  177.1680  144.6430 C   0  0  0  0  0  0  0  0  0  0  0  0
  184.5730  178.7040  145.1270 C   0  0  0  0  0  0  0  0  0  0  0  0
  183.5790  178.6640  145.8990 O   0  0  0  0  0  1  0  0  0  0  0  0
  184.4560  179.3420  143.8970 O   0  0  0  0  0  0  0  0  0  0  0  0
  1 18  1  0  0  0  0
  1  2  1  1  0  0  0
  3  7  1  0  0  0  0
  4 12  1  0  0  0  0
  5  6  1  0  0  0  0
  6  8  1  0  0  0  0
  6  7  2  0  0  0  0
  7  1  1  0  0  0  0
  9  4  1  0  0  0  0
  9 10  1  0  0  0  0
 10 11  2  0  0  0  0
 11 13  1  0  0  0  0
 12  5  2  0  0  0  0
 12 14  1  0  0  0  0
 14 13  1  0  0  0  0
 14  3  2  0  0  0  0
 15 16  2  0  0  0  0
 15 10  1  0  0  0  0
 17 15  2  0  0  0  0
 18 22  1  0  0  0  0
 19 31  2  0  0  0  0
 19 25  1  0  0  0  0
 21 29  1  0  0  0  0
 22 26  2  0  0  0  0
 23 31  1  0  0  0  0
 23 22  1  0  0  0  0
 24 25  1  0  0  0  0
 24 21  2  0  0  0  0
 25 28  2  0  0  0  0
 28 20  1  0  0  0  0
 28 27  1  0  0  0  0
 29 27  2  0  0  0  0
 30 26  1  0  0  0  0
 30 20  2  0  0  0  0
 31 30  1  0  0  0  0
 32 21  1  0  0  0  0
 32 33  1  0  0  0  0
 34 32  2  0  0  0  0
M  END
>  <MODEL>
9

>  <REMARK>
 VINA RESULT:      -7.7      3.355      3.946
  Name = 
  5 active torsions:
  status: ('A' for Active; 'I' for Inactive)
    1  A    between atoms: N_3  and  C_25
    2  A    between atoms: C_7  and  C_11
    3  A    between atoms: C_8  and  C_17
    4  A    between atoms: C_10  and  C_17
    5  A    between atoms: C_10  and  C_20
                            x       y       z     vdW  Elec       q    Type
                         _______ _______ _______ _____ _____    ______ ____

>  <TORSDO>
F 5

$$$$
