=
 OpenBabel11052417163D

 30 33  0  0  1  0  0  0  0  0999 V2000
  188.0030  177.4780  144.6780 C   0  0  0  0  0  3  0  0  0  0  0  0
  186.5420  177.9400  146.5590 C   0  0  0  0  0  0  0  0  0  0  0  0
  184.8570  178.2140  141.9690 C   0  0  0  0  0  3  0  0  0  0  0  0
  188.2240  177.3450  143.3050 C   0  0  0  0  0  0  0  0  0  0  0  0
  185.0850  178.1090  140.5960 C   0  0  0  0  0  3  0  0  0  0  0  0
  185.2840  178.2870  147.0540 C   0  0  0  0  0  3  0  0  0  0  0  0
  187.5560  177.7070  147.4300 F   0  0  0  0  0  0  0  0  0  0  0  0
  185.8930  177.9680  142.8880 C   0  0  0  0  0  0  0  0  0  0  0  0
  184.2240  178.5300  146.1770 C   0  0  0  0  0  3  0  0  0  0  0  0
  186.7470  177.8310  145.1740 C   0  0  0  0  0  0  0  0  0  0  0  0
  187.1770  177.6090  142.4020 C   0  0  0  0  0  0  0  0  0  0  0  0
  186.3490  177.7580  140.1210 C   0  0  0  0  0  3  0  0  0  0  0  0
  187.3890  177.5090  141.0180 C   0  0  0  0  0  3  0  0  0  0  0  0
  184.4190  178.4250  144.7980 C   0  0  0  0  0  3  0  0  0  0  0  0
  185.6770  178.0760  144.2780 C   0  0  0  0  0  0  0  0  0  0  0  0
  191.1160  175.3720  142.2530 O   0  0  0  0  0  0  0  0  0  0  0  0
  189.9140  175.6310  142.5280 C   0  0  0  0  0  0  0  0  0  0  0  0
  189.5340  176.9900  142.8370 N   0  0  0  0  0  0  0  0  0  0  0  0
  189.3590  173.3340  143.3900 C   0  0  0  0  0  2  0  0  0  0  0  0
  188.6200  173.8580  140.8380 S   0  0  0  0  0  0  0  0  0  0  0  0
  188.9400  174.4850  142.5120 C   0  0  2  0  0  3  0  0  0  0  0  0
  188.7820  172.0970  142.7470 C   0  0  0  0  0  2  0  0  0  0  0  0
  188.9920  172.1920  141.3120 N   0  0  0  0  0  2  0  0  0  0  0  0
  190.5250  178.0560  142.7340 C   0  0  0  0  0  2  0  0  0  0  0  0
  191.0420  178.4220  144.1150 C   0  0  0  0  0  2  0  0  0  0  0  0
  192.1650  177.4850  144.5180 C   0  0  0  0  0  2  0  0  0  0  0  0
  191.6900  176.5380  145.5130 N   0  0  0  0  0  2  0  0  0  0  0  0
  193.7990  176.6290  146.7490 O   0  0  0  0  0  0  0  0  0  0  0  0
  192.5100  176.1280  146.6060 C   0  0  0  0  0  0  0  0  0  0  0  0
  192.0630  175.3060  147.4470 O   0  0  0  0  0  1  0  0  0  0  0  0
  1 10  1  0  0  0  0
  2  6  1  0  0  0  0
  2  7  1  0  0  0  0
  3  8  1  0  0  0  0
  4  1  2  0  0  0  0
  5  3  2  0  0  0  0
  8 15  1  0  0  0  0
  9  6  2  0  0  0  0
 10  2  2  0  0  0  0
 11  8  2  0  0  0  0
 11  4  1  0  0  0  0
 12  5  1  0  0  0  0
 12 13  2  0  0  0  0
 13 11  1  0  0  0  0
 14  9  1  0  0  0  0
 15 14  2  0  0  0  0
 15 10  1  0  0  0  0
 16 17  2  0  0  0  0
 17 18  1  0  0  0  0
 18  4  1  0  0  0  0
 20 23  1  0  0  0  0
 20 21  1  0  0  0  0
 21 17  1  6  0  0  0
 21 19  1  0  0  0  0
 22 19  1  0  0  0  0
 23 22  1  0  0  0  0
 24 18  1  0  0  0  0
 24 25  1  0  0  0  0
 25 26  1  0  0  0  0
 26 27  1  0  0  0  0
 27 29  1  0  0  0  0
 29 28  2  0  0  0  0
 29 30  1  0  0  0  0
M  END
>  <MODEL>
1

>  <REMARK>
 VINA RESULT:      -7.8      0.000      0.000
  Name = 
  6 active torsions:
  status: ('A' for Active; 'I' for Inactive)
    1  A    between atoms: C_4  and  N_13
    2  A    between atoms: N_7  and  C_16
    3  A    between atoms: C_8  and  C_12
    4  A    between atoms: N_13  and  C_27
    5  A    between atoms: C_16  and  C_30
    6  A    between atoms: C_27  and  C_30
                            x       y       z     vdW  Elec       q    Type
                         _______ _______ _______ _____ _____    ______ ____

>  <TORSDO>
F 6

$$$$
=
 OpenBabel11052417163D

 30 33  0  0  1  0  0  0  0  0999 V2000
  187.9980  177.8200  143.6690 C   0  0  0  0  0  3  0  0  0  0  0  0
  185.9200  178.9960  144.0970 C   0  0  0  0  0  0  0  0  0  0  0  0
  187.6770  175.7830  147.3470 C   0  0  0  0  0  3  0  0  0  0  0  0
  188.9950  176.9200  144.0540 C   0  0  0  0  0  0  0  0  0  0  0  0
  188.6590  174.8630  147.7190 C   0  0  0  0  0  3  0  0  0  0  0  0
  184.8270  179.2550  144.9270 C   0  0  0  0  0  3  0  0  0  0  0  0
  186.0210  179.6490  142.9110 F   0  0  0  0  0  0  0  0  0  0  0  0
  187.7690  176.4750  146.1260 C   0  0  0  0  0  0  0  0  0  0  0  0
  184.7020  178.5980  146.1530 C   0  0  0  0  0  3  0  0  0  0  0  0
  186.9010  178.0730  144.4950 C   0  0  0  0  0  0  0  0  0  0  0  0
  188.8760  176.2270  145.2740 C   0  0  0  0  0  0  0  0  0  0  0  0
  189.7450  174.6210  146.8780 C   0  0  0  0  0  3  0  0  0  0  0  0
  189.8540  175.2990  145.6630 C   0  0  0  0  0  3  0  0  0  0  0  0
  185.6720  177.6770  146.5560 C   0  0  0  0  0  3  0  0  0  0  0  0
  186.7810  177.4030  145.7370 C   0  0  0  0  0  0  0  0  0  0  0  0
  191.2360  175.3010  141.6630 O   0  0  0  0  0  0  0  0  0  0  0  0
  190.1780  175.5200  142.3100 C   0  0  0  0  0  0  0  0  0  0  0  0
  190.1000  176.6790  143.1700 N   0  0  0  0  0  0  0  0  0  0  0  0
  189.3100  173.2080  142.7860 C   0  0  0  0  0  2  0  0  0  0  0  0
  188.6130  174.2730  140.3950 S   0  0  0  0  0  0  0  0  0  0  0  0
  189.0480  174.5430  142.1370 C   0  0  2  0  0  3  0  0  0  0  0  0
  188.5480  172.1980  141.9640 C   0  0  0  0  0  2  0  0  0  0  0  0
  188.7460  172.5140  140.5590 N   0  0  0  0  0  2  0  0  0  0  0  0
  191.2090  177.6270  143.2030 C   0  0  0  0  0  2  0  0  0  0  0  0
  192.0800  177.3680  144.4210 C   0  0  0  0  0  2  0  0  0  0  0  0
  193.3320  176.6140  144.0170 C   0  0  0  0  0  2  0  0  0  0  0  0
  193.2070  175.2120  144.3810 N   0  0  0  0  0  2  0  0  0  0  0  0
  194.4370  175.5440  146.4690 O   0  0  0  0  0  1  0  0  0  0  0  0
  193.7590  174.7030  145.5940 C   0  0  0  0  0  0  0  0  0  0  0  0
  193.6300  173.4840  145.8740 O   0  0  0  0  0  0  0  0  0  0  0  0
  1  4  2  0  0  0  0
  1 10  1  0  0  0  0
  2 10  2  0  0  0  0
  2  6  1  0  0  0  0
  3  5  1  0  0  0  0
  4 11  1  0  0  0  0
  6  9  2  0  0  0  0
  7  2  1  0  0  0  0
  8  3  2  0  0  0  0
  9 14  1  0  0  0  0
 10 15  1  0  0  0  0
 11 13  2  0  0  0  0
 11  8  1  0  0  0  0
 12  5  2  0  0  0  0
 13 12  1  0  0  0  0
 15  8  1  0  0  0  0
 15 14  2  0  0  0  0
 16 17  2  0  0  0  0
 17 18  1  0  0  0  0
 18 24  1  0  0  0  0
 18  4  1  0  0  0  0
 20 23  1  0  0  0  0
 20 21  1  0  0  0  0
 21 17  1  6  0  0  0
 21 19  1  0  0  0  0
 22 19  1  0  0  0  0
 23 22  1  0  0  0  0
 24 25  1  0  0  0  0
 26 27  1  0  0  0  0
 26 25  1  0  0  0  0
 27 29  1  0  0  0  0
 29 30  2  0  0  0  0
 29 28  1  0  0  0  0
M  END
>  <MODEL>
2

>  <REMARK>
 VINA RESULT:      -7.5      1.870      3.299
  Name = 
  6 active torsions:
  status: ('A' for Active; 'I' for Inactive)
    1  A    between atoms: C_4  and  N_13
    2  A    between atoms: N_7  and  C_16
    3  A    between atoms: C_8  and  C_12
    4  A    between atoms: N_13  and  C_27
    5  A    between atoms: C_16  and  C_30
    6  A    between atoms: C_27  and  C_30
                            x       y       z     vdW  Elec       q    Type
                         _______ _______ _______ _____ _____    ______ ____

>  <TORSDO>
F 6

$$$$
=
 OpenBabel11052417163D

 30 33  0  0  1  0  0  0  0  0999 V2000
  187.8930  177.1760  141.7000 C   0  0  0  0  0  3  0  0  0  0  0  0
  185.8880  177.9020  140.5430 C   0  0  0  0  0  0  0  0  0  0  0  0
  185.8090  177.0480  145.3630 C   0  0  0  0  0  3  0  0  0  0  0  0
  188.5660  176.8120  142.8690 C   0  0  0  0  0  0  0  0  0  0  0  0
  186.4750  176.6560  146.5270 C   0  0  0  0  0  3  0  0  0  0  0  0
  184.5370  178.2540  140.5710 C   0  0  0  0  0  3  0  0  0  0  0  0
  186.5590  177.9400  139.3630 F   0  0  0  0  0  0  0  0  0  0  0  0
  186.4890  177.1010  144.1340 C   0  0  0  0  0  0  0  0  0  0  0  0
  183.8270  178.2250  141.7740 C   0  0  0  0  0  3  0  0  0  0  0  0
  186.5400  177.5210  141.7270 C   0  0  0  0  0  0  0  0  0  0  0  0
  187.8630  176.7520  144.0880 C   0  0  0  0  0  0  0  0  0  0  0  0
  187.8250  176.3130  146.4780 C   0  0  0  0  0  3  0  0  0  0  0  0
  188.5170  176.3600  145.2670 C   0  0  0  0  0  3  0  0  0  0  0  0
  184.4670  177.8460  142.9560 C   0  0  0  0  0  3  0  0  0  0  0  0
  185.8270  177.4900  142.9500 C   0  0  0  0  0  0  0  0  0  0  0  0
  191.6420  174.8390  142.8290 O   0  0  0  0  0  0  0  0  0  0  0  0
  190.4090  175.0830  142.7550 C   0  0  0  0  0  0  0  0  0  0  0  0
  189.9540  176.4540  142.7960 N   0  0  0  0  0  0  0  0  0  0  0  0
  189.6560  172.8830  143.7150 C   0  0  0  0  0  2  0  0  0  0  0  0
  189.6150  173.0800  141.0130 S   0  0  0  0  0  0  0  0  0  0  0  0
  189.4790  173.9080  142.6240 C   0  0  2  0  0  3  0  0  0  0  0  0
  189.2740  171.5610  143.0980 C   0  0  0  0  0  2  0  0  0  0  0  0
  189.8550  171.4950  141.7680 N   0  0  0  0  0  2  0  0  0  0  0  0
  190.9320  177.5360  142.8270 C   0  0  0  0  0  2  0  0  0  0  0  0
  191.1500  178.0010  144.2570 C   0  0  0  0  0  2  0  0  0  0  0  0
  192.1900  177.1310  144.9360 C   0  0  0  0  0  2  0  0  0  0  0  0
  191.7430  176.7730  146.2730 N   0  0  0  0  0  2  0  0  0  0  0  0
  192.4320  174.4440  145.9850 O   0  0  0  0  0  0  0  0  0  0  0  0
  191.8700  175.4420  146.7710 C   0  0  0  0  0  0  0  0  0  0  0  0
  191.4710  175.1710  147.9330 O   0  0  0  0  0  1  0  0  0  0  0  0
  1 10  2  0  0  0  0
  1  4  1  0  0  0  0
  2  6  2  0  0  0  0
  2 10  1  0  0  0  0
  3  5  2  0  0  0  0
  4 11  2  0  0  0  0
  6  9  1  0  0  0  0
  7  2  1  0  0  0  0
  8  3  1  0  0  0  0
  9 14  2  0  0  0  0
 10 15  1  0  0  0  0
 11  8  1  0  0  0  0
 11 13  1  0  0  0  0
 12  5  1  0  0  0  0
 13 12  2  0  0  0  0
 15 14  1  0  0  0  0
 15  8  2  0  0  0  0
 17 18  1  0  0  0  0
 17 16  2  0  0  0  0
 18 24  1  0  0  0  0
 18  4  1  0  0  0  0
 20 23  1  0  0  0  0
 20 21  1  0  0  0  0
 21 17  1  6  0  0  0
 21 19  1  0  0  0  0
 22 19  1  0  0  0  0
 23 22  1  0  0  0  0
 24 25  1  0  0  0  0
 25 26  1  0  0  0  0
 26 27  1  0  0  0  0
 27 29  1  0  0  0  0
 28 29  2  0  0  0  0
 29 30  1  0  0  0  0
M  END
>  <MODEL>
3

>  <REMARK>
 VINA RESULT:      -7.4      1.886      3.339
  Name = 
  6 active torsions:
  status: ('A' for Active; 'I' for Inactive)
    1  A    between atoms: C_4  and  N_13
    2  A    between atoms: N_7  and  C_16
    3  A    between atoms: C_8  and  C_12
    4  A    between atoms: N_13  and  C_27
    5  A    between atoms: C_16  and  C_30
    6  A    between atoms: C_27  and  C_30
                            x       y       z     vdW  Elec       q    Type
                         _______ _______ _______ _____ _____    ______ ____

>  <TORSDO>
F 6

$$$$
=
 OpenBabel11052417163D

 30 33  0  0  1  0  0  0  0  0999 V2000
  188.1410  176.4150  146.3970 C   0  0  0  0  0  3  0  0  0  0  0  0
  185.9460  177.0040  147.2470 C   0  0  0  0  0  0  0  0  0  0  0  0
  187.3880  178.5140  142.8180 C   0  0  0  0  0  3  0  0  0  0  0  0
  189.1090  176.4410  145.3900 C   0  0  0  0  0  0  0  0  0  0  0  0
  188.3660  178.5630  141.8230 C   0  0  0  0  0  3  0  0  0  0  0  0
  184.7160  177.6420  147.0770 C   0  0  0  0  0  3  0  0  0  0  0  0
  186.1900  176.3320  148.4010 F   0  0  0  0  0  0  0  0  0  0  0  0
  187.6190  177.8150  144.0160 C   0  0  0  0  0  0  0  0  0  0  0  0
  184.4410  178.3380  145.8970 C   0  0  0  0  0  3  0  0  0  0  0  0
  186.9130  177.0590  146.2300 C   0  0  0  0  0  0  0  0  0  0  0  0
  188.8620  177.1580  144.2030 C   0  0  0  0  0  0  0  0  0  0  0  0
  189.5880  177.9170  142.0110 C   0  0  0  0  0  3  0  0  0  0  0  0
  189.8350  177.2180  143.1930 C   0  0  0  0  0  3  0  0  0  0  0  0
  185.3960  178.3980  144.8810 C   0  0  0  0  0  3  0  0  0  0  0  0
  186.6400  177.7620  145.0310 C   0  0  0  0  0  0  0  0  0  0  0  0
  191.7220  173.8850  145.4100 O   0  0  0  0  0  0  0  0  0  0  0  0
  190.6580  174.4670  145.0700 C   0  0  0  0  0  0  0  0  0  0  0  0
  190.3630  175.7760  145.6060 N   0  0  0  0  0  0  0  0  0  0  0  0
  189.5620  172.2910  144.4470 C   0  0  0  0  0  2  0  0  0  0  0  0
  190.3150  173.8770  142.3840 S   0  0  0  0  0  0  0  0  0  0  0  0
  189.7550  173.7460  144.1070 C   0  0  2  0  0  3  0  0  0  0  0  0
  189.3170  171.5930  143.1330 C   0  0  0  0  0  2  0  0  0  0  0  0
  190.2550  172.1200  142.1570 N   0  0  0  0  0  2  0  0  0  0  0  0
  191.3420  176.4430  146.4570 C   0  0  0  0  0  2  0  0  0  0  0  0
  192.4690  177.0090  145.6100 C   0  0  0  0  0  2  0  0  0  0  0  0
  193.8120  176.6380  146.2090 C   0  0  0  0  0  2  0  0  0  0  0  0
  194.8870  177.1300  145.3630 N   0  0  0  0  0  2  0  0  0  0  0  0
  194.9640  175.0470  144.0840 O   0  0  0  0  0  1  0  0  0  0  0  0
  195.4420  176.3310  144.3210 C   0  0  0  0  0  0  0  0  0  0  0  0
  196.3720  176.7920  143.6100 O   0  0  0  0  0  0  0  0  0  0  0  0
  2  7  1  0  0  0  0
  3  8  1  0  0  0  0
  4 18  1  0  0  0  0
  4  1  2  0  0  0  0
  5 12  1  0  0  0  0
  5  3  2  0  0  0  0
  6  2  1  0  0  0  0
  8 11  2  0  0  0  0
  8 15  1  0  0  0  0
  9  6  2  0  0  0  0
 10  1  1  0  0  0  0
 10  2  2  0  0  0  0
 11  4  1  0  0  0  0
 12 13  2  0  0  0  0
 13 11  1  0  0  0  0
 14 15  2  0  0  0  0
 14  9  1  0  0  0  0
 15 10  1  0  0  0  0
 17 16  2  0  0  0  0
 17 18  1  0  0  0  0
 18 24  1  0  0  0  0
 20 21  1  0  0  0  0
 21 19  1  0  0  0  0
 21 17  1  1  0  0  0
 22 19  1  0  0  0  0
 23 20  1  0  0  0  0
 23 22  1  0  0  0  0
 25 26  1  0  0  0  0
 25 24  1  0  0  0  0
 27 26  1  0  0  0  0
 28 29  1  0  0  0  0
 29 27  1  0  0  0  0
 30 29  2  0  0  0  0
M  END
>  <MODEL>
4

>  <REMARK>
 VINA RESULT:      -7.1      1.892      2.723
  Name = 
  6 active torsions:
  status: ('A' for Active; 'I' for Inactive)
    1  A    between atoms: C_4  and  N_13
    2  A    between atoms: N_7  and  C_16
    3  A    between atoms: C_8  and  C_12
    4  A    between atoms: N_13  and  C_27
    5  A    between atoms: C_16  and  C_30
    6  A    between atoms: C_27  and  C_30
                            x       y       z     vdW  Elec       q    Type
                         _______ _______ _______ _____ _____    ______ ____

>  <TORSDO>
F 6

$$$$
=
 OpenBabel11052417163D

 30 33  0  0  1  0  0  0  0  0999 V2000
  189.0880  176.3180  142.7420 C   0  0  0  0  0  3  0  0  0  0  0  0
  187.5440  178.0910  142.1440 C   0  0  0  0  0  0  0  0  0  0  0  0
  187.6540  176.3180  146.7070 C   0  0  0  0  0  3  0  0  0  0  0  0
  189.6440  175.4460  143.6810 C   0  0  0  0  0  0  0  0  0  0  0  0
  188.1900  175.4270  147.6390 C   0  0  0  0  0  3  0  0  0  0  0  0
  186.5350  178.9870  142.5050 C   0  0  0  0  0  3  0  0  0  0  0  0
  188.0030  178.0880  140.8670 F   0  0  0  0  0  0  0  0  0  0  0  0
  188.1230  176.3360  145.3810 C   0  0  0  0  0  0  0  0  0  0  0  0
  186.0480  179.0110  143.8130 C   0  0  0  0  0  3  0  0  0  0  0  0
  188.0750  177.2100  143.1000 C   0  0  0  0  0  0  0  0  0  0  0  0
  189.1510  175.4350  145.0000 C   0  0  0  0  0  0  0  0  0  0  0  0
  189.1990  174.5420  147.2600 C   0  0  0  0  0  3  0  0  0  0  0  0
  189.6770  174.5450  145.9490 C   0  0  0  0  0  3  0  0  0  0  0  0
  186.5700  178.1370  144.7700 C   0  0  0  0  0  3  0  0  0  0  0  0
  187.5860  177.2280  144.4290 C   0  0  0  0  0  0  0  0  0  0  0  0
  192.9340  173.9510  143.1340 O   0  0  0  0  0  0  0  0  0  0  0  0
  192.0620  174.7060  143.6410 C   0  0  0  0  0  0  0  0  0  0  0  0
  190.6760  174.5370  143.2690 N   0  0  0  0  0  0  0  0  0  0  0  0
  193.6570  176.5990  144.0870 C   0  0  0  0  0  2  0  0  0  0  0  0
  193.0410  175.0370  146.2120 S   0  0  0  0  0  0  0  0  0  0  0  0
  192.5340  175.7470  144.6190 C   0  0  2  0  0  3  0  0  0  0  0  0
  194.4640  177.0130  145.2920 C   0  0  0  0  0  2  0  0  0  0  0  0
  194.6120  175.8550  146.1580 N   0  0  0  0  0  2  0  0  0  0  0  0
  190.2960  173.4390  142.3880 C   0  0  0  0  0  2  0  0  0  0  0  0
  188.9410  172.8860  142.8000 C   0  0  0  0  0  2  0  0  0  0  0  0
  187.9670  172.9740  141.6410 C   0  0  0  0  0  2  0  0  0  0  0  0
  188.6880  172.9220  140.3790 N   0  0  0  0  0  2  0  0  0  0  0  0
  187.8170  175.0980  139.6800 O   0  0  0  0  0  1  0  0  0  0  0  0
  188.6010  173.9790  139.4250 C   0  0  0  0  0  0  0  0  0  0  0  0
  189.2400  173.8970  138.3450 O   0  0  0  0  0  0  0  0  0  0  0  0
  1 10  2  0  0  0  0
  1  4  1  0  0  0  0
  2  6  2  0  0  0  0
  2 10  1  0  0  0  0
  3  5  2  0  0  0  0
  4 11  2  0  0  0  0
  6  9  1  0  0  0  0
  7  2  1  0  0  0  0
  8  3  1  0  0  0  0
  9 14  2  0  0  0  0
 10 15  1  0  0  0  0
 11  8  1  0  0  0  0
 11 13  1  0  0  0  0
 12  5  1  0  0  0  0
 13 12  2  0  0  0  0
 15 14  1  0  0  0  0
 15  8  2  0  0  0  0
 16 17  2  0  0  0  0
 18 17  1  0  0  0  0
 18  4  1  0  0  0  0
 19 21  1  0  0  0  0
 19 22  1  0  0  0  0
 21 17  1  6  0  0  0
 21 20  1  0  0  0  0
 22 23  1  0  0  0  0
 23 20  1  0  0  0  0
 24 25  1  0  0  0  0
 24 18  1  0  0  0  0
 26 25  1  0  0  0  0
 27 26  1  0  0  0  0
 29 28  1  0  0  0  0
 29 27  1  0  0  0  0
 30 29  2  0  0  0  0
M  END
>  <MODEL>
5

>  <REMARK>
 VINA RESULT:      -7.0      2.833      5.820
  Name = 
  6 active torsions:
  status: ('A' for Active; 'I' for Inactive)
    1  A    between atoms: C_4  and  N_13
    2  A    between atoms: N_7  and  C_16
    3  A    between atoms: C_8  and  C_12
    4  A    between atoms: N_13  and  C_27
    5  A    between atoms: C_16  and  C_30
    6  A    between atoms: C_27  and  C_30
                            x       y       z     vdW  Elec       q    Type
                         _______ _______ _______ _____ _____    ______ ____

>  <TORSDO>
F 6

$$$$
=
 OpenBabel11052417163D

 30 33  0  0  1  0  0  0  0  0999 V2000
  189.0330  177.1590  142.9790 C   0  0  0  0  0  3  0  0  0  0  0  0
  186.8980  178.3080  142.9020 C   0  0  0  0  0  0  0  0  0  0  0  0
  188.1880  175.7130  146.8480 C   0  0  0  0  0  3  0  0  0  0  0  0
  189.9730  176.3690  143.6450 C   0  0  0  0  0  0  0  0  0  0  0  0
  189.1150  174.9000  147.5030 C   0  0  0  0  0  3  0  0  0  0  0  0
  185.6890  178.6520  143.5090 C   0  0  0  0  0  3  0  0  0  0  0  0
  187.1690  178.7710  141.6550 F   0  0  0  0  0  0  0  0  0  0  0  0
  188.4540  176.2080  145.5590 C   0  0  0  0  0  0  0  0  0  0  0  0
  185.3890  178.1910  144.7930 C   0  0  0  0  0  3  0  0  0  0  0  0
  187.8200  177.4970  143.5830 C   0  0  0  0  0  0  0  0  0  0  0  0
  189.6810  175.8720  144.9300 C   0  0  0  0  0  0  0  0  0  0  0  0
  190.3190  174.5710  146.8810 C   0  0  0  0  0  3  0  0  0  0  0  0
  190.6010  175.0530  145.6030 C   0  0  0  0  0  3  0  0  0  0  0  0
  186.2990  177.3830  145.4770 C   0  0  0  0  0  3  0  0  0  0  0  0
  187.5230  177.0260  144.8850 C   0  0  0  0  0  0  0  0  0  0  0  0
  192.5430  174.5030  141.8370 O   0  0  0  0  0  0  0  0  0  0  0  0
  191.3990  174.7900  142.2770 C   0  0  0  0  0  0  0  0  0  0  0  0
  191.2020  176.0350  142.9840 N   0  0  0  0  0  0  0  0  0  0  0  0
  190.3030  172.6410  142.9910 C   0  0  0  0  0  2  0  0  0  0  0  0
  190.3030  173.1500  140.3300 S   0  0  0  0  0  0  0  0  0  0  0  0
  190.2950  173.8000  142.0270 C   0  0  2  0  0  3  0  0  0  0  0  0
  189.7190  171.4750  142.2340 C   0  0  0  0  0  2  0  0  0  0  0  0
  190.2870  171.4710  140.8960 N   0  0  0  0  0  2  0  0  0  0  0  0
  192.3070  176.9810  143.0960 C   0  0  0  0  0  2  0  0  0  0  0  0
  192.8980  176.9290  144.4950 C   0  0  0  0  0  2  0  0  0  0  0  0
  194.0440  175.9370  144.5430 C   0  0  0  0  0  2  0  0  0  0  0  0
  195.3120  176.6360  144.4140 N   0  0  0  0  0  2  0  0  0  0  0  0
  195.6680  175.7730  142.1530 O   0  0  0  0  0  0  0  0  0  0  0  0
  196.0990  176.5420  143.2270 C   0  0  0  0  0  0  0  0  0  0  0  0
  197.1910  177.1610  143.1530 O   0  0  0  0  0  1  0  0  0  0  0  0
  1 10  2  0  0  0  0
  1  4  1  0  0  0  0
  2  6  2  0  0  0  0
  2 10  1  0  0  0  0
  3  5  2  0  0  0  0
  4 11  2  0  0  0  0
  6  9  1  0  0  0  0
  7  2  1  0  0  0  0
  8  3  1  0  0  0  0
  9 14  2  0  0  0  0
 10 15  1  0  0  0  0
 11  8  1  0  0  0  0
 11 13  1  0  0  0  0
 12  5  1  0  0  0  0
 13 12  2  0  0  0  0
 15 14  1  0  0  0  0
 15  8  2  0  0  0  0
 16 17  2  0  0  0  0
 17 18  1  0  0  0  0
 18 24  1  0  0  0  0
 18  4  1  0  0  0  0
 20 23  1  0  0  0  0
 20 21  1  0  0  0  0
 21 17  1  1  0  0  0
 21 19  1  0  0  0  0
 22 19  1  0  0  0  0
 23 22  1  0  0  0  0
 24 25  1  0  0  0  0
 25 26  1  0  0  0  0
 27 26  1  0  0  0  0
 28 29  2  0  0  0  0
 29 27  1  0  0  0  0
 30 29  1  0  0  0  0
M  END
>  <MODEL>
6

>  <REMARK>
 VINA RESULT:      -7.0      2.527      4.054
  Name = 
  6 active torsions:
  status: ('A' for Active; 'I' for Inactive)
    1  A    between atoms: C_4  and  N_13
    2  A    between atoms: N_7  and  C_16
    3  A    between atoms: C_8  and  C_12
    4  A    between atoms: N_13  and  C_27
    5  A    between atoms: C_16  and  C_30
    6  A    between atoms: C_27  and  C_30
                            x       y       z     vdW  Elec       q    Type
                         _______ _______ _______ _____ _____    ______ ____

>  <TORSDO>
F 6

$$$$
=
 OpenBabel11052417163D

 30 33  0  0  1  0  0  0  0  0999 V2000
  188.7340  177.0590  143.9500 C   0  0  0  0  0  3  0  0  0  0  0  0
  187.8090  177.6860  141.7970 C   0  0  0  0  0  0  0  0  0  0  0  0
  188.9740  173.0250  142.7460 C   0  0  0  0  0  3  0  0  0  0  0  0
  189.2170  176.0970  144.8400 C   0  0  0  0  0  0  0  0  0  0  0  0
  189.4820  172.0680  143.6260 C   0  0  0  0  0  3  0  0  0  0  0  0
  187.3770  177.3290  140.5180 C   0  0  0  0  0  3  0  0  0  0  0  0
  187.7360  178.9850  142.1840 F   0  0  0  0  0  0  0  0  0  0  0  0
  188.8820  174.3750  143.1320 C   0  0  0  0  0  0  0  0  0  0  0  0
  187.4400  175.9980  140.0990 C   0  0  0  0  0  3  0  0  0  0  0  0
  188.3080  176.7050  142.6690 C   0  0  0  0  0  0  0  0  0  0  0  0
  189.3130  174.7530  144.4300 C   0  0  0  0  0  0  0  0  0  0  0  0
  189.9060  172.4430  144.9010 C   0  0  0  0  0  3  0  0  0  0  0  0
  189.8220  173.7770  145.3010 C   0  0  0  0  0  3  0  0  0  0  0  0
  187.9360  175.0160  140.9580 C   0  0  0  0  0  3  0  0  0  0  0  0
  188.3750  175.3530  142.2500 C   0  0  0  0  0  0  0  0  0  0  0  0
  191.3010  176.5970  147.8010 O   0  0  0  0  0  0  0  0  0  0  0  0
  191.0170  176.3430  146.6010 C   0  0  0  0  0  0  0  0  0  0  0  0
  189.6550  176.5050  146.1450 N   0  0  0  0  0  0  0  0  0  0  0  0
  193.3060  175.3090  146.4660 C   0  0  0  0  0  2  0  0  0  0  0  0
  192.7400  177.1930  144.6040 S   0  0  0  0  0  0  0  0  0  0  0  0
  192.1370  175.8830  145.7080 C   0  0  2  0  0  3  0  0  0  0  0  0
  194.5210  175.5880  145.6170 C   0  0  0  0  0  2  0  0  0  0  0  0
  194.4190  176.9480  145.1130 N   0  0  0  0  0  2  0  0  0  0  0  0
  188.6520  177.0500  147.0540 C   0  0  0  0  0  2  0  0  0  0  0  0
  187.3820  176.2180  146.9870 C   0  0  0  0  0  2  0  0  0  0  0  0
  186.1640  177.1210  146.9990 C   0  0  0  0  0  2  0  0  0  0  0  0
  185.4080  176.9530  145.7680 N   0  0  0  0  0  2  0  0  0  0  0  0
  186.0620  179.1640  144.9500 O   0  0  0  0  0  1  0  0  0  0  0  0
  185.3700  177.9720  144.7700 C   0  0  0  0  0  0  0  0  0  0  0  0
  184.7040  177.7890  143.7180 O   0  0  0  0  0  0  0  0  0  0  0  0
  1  4  1  0  0  0  0
  2  7  1  0  0  0  0
  2 10  1  0  0  0  0
  3  8  1  0  0  0  0
  3  5  2  0  0  0  0
  4 18  1  0  0  0  0
  5 12  1  0  0  0  0
  6  2  2  0  0  0  0
  8 11  1  0  0  0  0
  9  6  1  0  0  0  0
  9 14  2  0  0  0  0
 10  1  2  0  0  0  0
 11  4  2  0  0  0  0
 11 13  1  0  0  0  0
 12 13  2  0  0  0  0
 14 15  1  0  0  0  0
 15 10  1  0  0  0  0
 15  8  2  0  0  0  0
 17 16  2  0  0  0  0
 18 17  1  0  0  0  0
 18 24  1  0  0  0  0
 20 23  1  0  0  0  0
 20 21  1  0  0  0  0
 21 19  1  0  0  0  0
 21 17  1  1  0  0  0
 22 19  1  0  0  0  0
 23 22  1  0  0  0  0
 25 26  1  0  0  0  0
 25 24  1  0  0  0  0
 27 26  1  0  0  0  0
 29 28  1  0  0  0  0
 29 27  1  0  0  0  0
 30 29  2  0  0  0  0
M  END
>  <MODEL>
7

>  <REMARK>
 VINA RESULT:      -6.9      2.919      6.021
  Name = 
  6 active torsions:
  status: ('A' for Active; 'I' for Inactive)
    1  A    between atoms: C_4  and  N_13
    2  A    between atoms: N_7  and  C_16
    3  A    between atoms: C_8  and  C_12
    4  A    between atoms: N_13  and  C_27
    5  A    between atoms: C_16  and  C_30
    6  A    between atoms: C_27  and  C_30
                            x       y       z     vdW  Elec       q    Type
                         _______ _______ _______ _____ _____    ______ ____

>  <TORSDO>
F 6

$$$$
=
 OpenBabel11052417163D

 30 33  0  0  1  0  0  0  0  0999 V2000
  187.5460  176.0430  144.2260 C   0  0  0  0  0  3  0  0  0  0  0  0
  186.3460  176.7920  146.1970 C   0  0  0  0  0  0  0  0  0  0  0  0
  185.0100  178.3150  141.7400 C   0  0  0  0  0  3  0  0  0  0  0  0
  187.7270  176.0180  142.8410 C   0  0  0  0  0  0  0  0  0  0  0  0
  185.2080  178.3120  140.3570 C   0  0  0  0  0  3  0  0  0  0  0  0
  185.3170  177.5390  146.7730 C   0  0  0  0  0  3  0  0  0  0  0  0
  187.1650  176.0630  146.9970 F   0  0  0  0  0  0  0  0  0  0  0  0
  185.8430  177.5600  142.5840 C   0  0  0  0  0  0  0  0  0  0  0  0
  184.4600  178.2940  145.9700 C   0  0  0  0  0  3  0  0  0  0  0  0
  186.5220  176.7960  144.8030 C   0  0  0  0  0  0  0  0  0  0  0  0
  186.8900  176.7920  142.0140 C   0  0  0  0  0  0  0  0  0  0  0  0
  186.2390  177.5570  139.8000 C   0  0  0  0  0  3  0  0  0  0  0  0
  187.0760  176.8000  140.6220 C   0  0  0  0  0  3  0  0  0  0  0  0
  184.6280  178.3050  144.5840 C   0  0  0  0  0  3  0  0  0  0  0  0
  185.6560  177.5590  143.9820 C   0  0  0  0  0  0  0  0  0  0  0  0
  191.0840  174.8560  141.9790 O   0  0  0  0  0  0  0  0  0  0  0  0
  190.1890  175.4850  142.6030 C   0  0  0  0  0  0  0  0  0  0  0  0
  188.8000  175.2400  142.2880 N   0  0  0  0  0  0  0  0  0  0  0  0
  191.8540  177.2550  143.2500 C   0  0  0  0  0  2  0  0  0  0  0  0
  190.9550  175.6760  145.2590 S   0  0  0  0  0  0  0  0  0  0  0  0
  190.6370  176.4640  143.6530 C   0  0  2  0  0  3  0  0  0  0  0  0
  192.5750  177.5790  144.5350 C   0  0  0  0  0  2  0  0  0  0  0  0
  192.5730  176.3890  145.3690 N   0  0  0  0  0  2  0  0  0  0  0  0
  188.4530  174.2020  141.3230 C   0  0  0  0  0  2  0  0  0  0  0  0
  187.6760  173.0910  142.0100 C   0  0  0  0  0  2  0  0  0  0  0  0
  188.6300  172.1350  142.7000 C   0  0  0  0  0  2  0  0  0  0  0  0
  189.6950  171.7510  141.7880 N   0  0  0  0  0  2  0  0  0  0  0  0
  191.3380  171.6490  143.5970 O   0  0  0  0  0  1  0  0  0  0  0  0
  191.0240  171.5170  142.2490 C   0  0  0  0  0  0  0  0  0  0  0  0
  191.9200  171.1860  141.4300 O   0  0  0  0  0  0  0  0  0  0  0  0
  1 10  1  0  0  0  0
  2  6  1  0  0  0  0
  2  7  1  0  0  0  0
  3  8  1  0  0  0  0
  4  1  2  0  0  0  0
  5  3  2  0  0  0  0
  8 15  1  0  0  0  0
  9  6  2  0  0  0  0
 10  2  2  0  0  0  0
 11  8  2  0  0  0  0
 11  4  1  0  0  0  0
 12  5  1  0  0  0  0
 12 13  2  0  0  0  0
 13 11  1  0  0  0  0
 14  9  1  0  0  0  0
 15 14  2  0  0  0  0
 15 10  1  0  0  0  0
 16 17  2  0  0  0  0
 18 17  1  0  0  0  0
 18  4  1  0  0  0  0
 19 21  1  0  0  0  0
 19 22  1  0  0  0  0
 20 23  1  0  0  0  0
 21 17  1  6  0  0  0
 21 20  1  0  0  0  0
 22 23  1  0  0  0  0
 24 25  1  0  0  0  0
 24 18  1  0  0  0  0
 25 26  1  0  0  0  0
 27 29  1  0  0  0  0
 27 26  1  0  0  0  0
 29 28  1  0  0  0  0
 30 29  2  0  0  0  0
M  END
>  <MODEL>
8

>  <REMARK>
 VINA RESULT:      -6.8      2.054      3.907
  Name = 
  6 active torsions:
  status: ('A' for Active; 'I' for Inactive)
    1  A    between atoms: C_4  and  N_13
    2  A    between atoms: N_7  and  C_16
    3  A    between atoms: C_8  and  C_12
    4  A    between atoms: N_13  and  C_27
    5  A    between atoms: C_16  and  C_30
    6  A    between atoms: C_27  and  C_30
                            x       y       z     vdW  Elec       q    Type
                         _______ _______ _______ _____ _____    ______ ____

>  <TORSDO>
F 6

$$$$
=
 OpenBabel11052417163D

 30 33  0  0  1  0  0  0  0  0999 V2000
  191.8480  176.3840  143.2990 C   0  0  0  0  0  3  0  0  0  0  0  0
  194.2180  176.3880  143.8150 C   0  0  0  0  0  0  0  0  0  0  0  0
  190.9210  175.2710  147.2590 C   0  0  0  0  0  3  0  0  0  0  0  0
  190.5160  176.1840  143.6700 C   0  0  0  0  0  0  0  0  0  0  0  0
  189.5880  175.0980  147.6370 C   0  0  0  0  0  3  0  0  0  0  0  0
  195.2550  176.1980  144.7300 C   0  0  0  0  0  3  0  0  0  0  0  0
  194.5150  176.7500  142.5410 F   0  0  0  0  0  0  0  0  0  0  0  0
  191.2490  175.6380  145.9410 C   0  0  0  0  0  0  0  0  0  0  0  0
  194.9740  175.8230  146.0460 C   0  0  0  0  0  3  0  0  0  0  0  0
  192.8850  176.2010  144.2150 C   0  0  0  0  0  0  0  0  0  0  0  0
  190.2080  175.8300  144.9980 C   0  0  0  0  0  0  0  0  0  0  0  0
  188.5670  175.2900  146.7080 C   0  0  0  0  0  3  0  0  0  0  0  0
  188.8730  175.6530  145.3960 C   0  0  0  0  0  3  0  0  0  0  0  0
  193.6510  175.6350  146.4530 C   0  0  0  0  0  3  0  0  0  0  0  0
  192.5920  175.8200  145.5480 C   0  0  0  0  0  0  0  0  0  0  0  0
  188.1930  175.6370  140.9020 O   0  0  0  0  0  0  0  0  0  0  0  0
  189.0070  175.3500  141.8190 C   0  0  0  0  0  0  0  0  0  0  0  0
  189.4780  176.3940  142.7000 N   0  0  0  0  0  0  0  0  0  0  0  0
  190.7340  173.6200  141.2270 C   0  0  0  0  0  2  0  0  0  0  0  0
  188.1710  172.7510  141.3490 S   0  0  0  0  0  0  0  0  0  0  0  0
  189.4370  173.9140  141.9360 C   0  0  2  0  0  3  0  0  0  0  0  0
  190.6490  172.1750  140.8020 C   0  0  0  0  0  2  0  0  0  0  0  0
  189.3170  171.9350  140.2730 N   0  0  0  0  0  2  0  0  0  0  0  0
  188.9340  177.7420  142.5760 C   0  0  0  0  0  2  0  0  0  0  0  0
  187.8410  177.9590  143.6090 C   0  0  0  0  0  2  0  0  0  0  0  0
  186.4780  177.9120  142.9470 C   0  0  0  0  0  2  0  0  0  0  0  0
  185.4410  177.7490  143.9540 N   0  0  0  0  0  2  0  0  0  0  0  0
  185.2270  180.1660  144.2630 O   0  0  0  0  0  0  0  0  0  0  0  0
  184.8370  178.8730  144.5920 C   0  0  0  0  0  0  0  0  0  0  0  0
  183.9430  178.6920  145.4580 O   0  0  0  0  0  1  0  0  0  0  0  0
  1  4  2  0  0  0  0
  1 10  1  0  0  0  0
  2 10  2  0  0  0  0
  2  6  1  0  0  0  0
  3  5  1  0  0  0  0
  4 11  1  0  0  0  0
  6  9  2  0  0  0  0
  7  2  1  0  0  0  0
  8  3  2  0  0  0  0
  9 14  1  0  0  0  0
 10 15  1  0  0  0  0
 11 13  2  0  0  0  0
 11  8  1  0  0  0  0
 12  5  2  0  0  0  0
 13 12  1  0  0  0  0
 15  8  1  0  0  0  0
 15 14  2  0  0  0  0
 16 17  2  0  0  0  0
 17 18  1  0  0  0  0
 18  4  1  0  0  0  0
 19 21  1  0  0  0  0
 20 21  1  0  0  0  0
 21 17  1  6  0  0  0
 22 19  1  0  0  0  0
 23 22  1  0  0  0  0
 23 20  1  0  0  0  0
 24 18  1  0  0  0  0
 24 25  1  0  0  0  0
 26 25  1  0  0  0  0
 26 27  1  0  0  0  0
 27 29  1  0  0  0  0
 28 29  2  0  0  0  0
 29 30  1  0  0  0  0
M  END
>  <MODEL>
9

>  <REMARK>
 VINA RESULT:      -6.7      3.304      6.454
  Name = 
  6 active torsions:
  status: ('A' for Active; 'I' for Inactive)
    1  A    between atoms: C_4  and  N_13
    2  A    between atoms: N_7  and  C_16
    3  A    between atoms: C_8  and  C_12
    4  A    between atoms: N_13  and  C_27
    5  A    between atoms: C_16  and  C_30
    6  A    between atoms: C_27  and  C_30
                            x       y       z     vdW  Elec       q    Type
                         _______ _______ _______ _____ _____    ______ ____

>  <TORSDO>
F 6

$$$$
