=
 OpenBabel11052421413D

 32 31  0  0  1  0  0  0  0  0999 V2000
  188.2220  176.2400  142.7900 C   0  0  2  0  0  3  0  0  0  0  0  0
  189.1980  176.9130  143.6670 N   0  0  0  0  0  0  0  0  0  0  0  0
  191.0140  178.3870  143.6730 O   0  0  0  0  0  1  0  0  0  0  0  0
  189.9670  177.8890  142.8950 C   0  0  0  0  0  2  0  0  0  0  0  0
  188.5260  177.6200  144.7700 C   0  0  0  0  0  2  0  0  0  0  0  0
  188.6310  176.8880  146.1110 C   0  0  0  0  0  2  0  0  0  0  0  0
  189.7000  177.4690  146.9030 N   0  0  0  0  0  2  0  0  0  0  0  0
  190.5700  176.3780  147.3050 C   0  0  0  0  0  2  0  0  0  0  0  0
  191.5120  176.8570  148.3890 C   0  0  0  0  0  1  0  0  0  0  0  0
  188.5680  174.7580  142.5850 C   0  0  0  0  0  2  0  0  0  0  0  0
  189.7260  174.3740  143.3820 N   0  0  0  0  0  0  0  0  0  0  0  0
  189.4380  173.1720  143.9380 O   0  0  0  0  0  0  0  0  0  0  0  0
  189.3440  172.2900  142.8590 C   0  0  0  0  0  1  0  0  0  0  0  0
  190.8180  174.1590  142.4470 C   0  0  0  0  0  2  0  0  0  0  0  0
  191.9280  174.9070  142.8400 O   0  0  0  0  0  0  0  0  0  0  0  0
  192.0030  174.7240  144.2210 C   0  0  0  0  0  2  0  0  0  0  0  0
  193.3730  174.4090  144.6040 N   0  0  0  0  0  0  0  0  0  0  0  0
  193.5600  172.9700  144.4820 C   0  0  0  0  0  1  0  0  0  0  0  0
  193.6370  174.8310  145.9890 C   0  0  0  0  0  2  0  0  0  0  0  0
  194.2650  177.1130  145.5680 O   0  0  0  0  0  1  0  0  0  0  0  0
  194.7150  175.9130  146.1210 C   0  0  0  0  0  2  0  0  0  0  0  0
  188.1250  176.9370  141.4310 C   0  0  0  0  0  2  0  0  0  0  0  0
  186.7860  177.1500  141.0990 O   0  0  0  0  0  0  0  0  0  0  0  0
  186.4280  178.2980  141.8060 C   0  0  0  0  0  2  0  0  0  0  0  0
  184.9160  178.4690  141.7860 C   0  0  0  0  0  2  0  0  0  0  0  0
  184.2920  177.9650  143.0770 C   0  0  0  0  0  2  0  0  0  0  0  0
  184.7310  178.7830  144.1960 N   0  0  0  0  0  2  0  0  0  0  0  0
  185.0600  178.2160  145.4640 C   0  0  0  0  0  0  0  0  0  0  0  0
  185.4910  179.0720  146.5210 N   0  0  0  0  0  2  0  0  0  0  0  0
  184.9750  176.9710  145.6470 O   0  0  0  0  0  0  0  0  0  0  0  0
  185.8430  178.5590  147.8340 C   0  0  0  0  0  2  0  0  0  0  0  0
  186.9700  179.3850  148.4140 C   0  0  0  0  0  1  0  0  0  0  0  0
  1 22  1  6  0  0  0
  1  2  1  0  0  0  0
  2  5  1  0  0  0  0
  4  2  1  0  0  0  0
  4  3  1  0  0  0  0
  5  6  1  0  0  0  0
  6  7  1  0  0  0  0
  7  8  1  0  0  0  0
  8  9  1  0  0  0  0
 10  1  1  0  0  0  0
 10 11  1  0  0  0  0
 11 12  1  0  0  0  0
 13 12  1  0  0  0  0
 14 15  1  0  0  0  0
 14 11  1  0  0  0  0
 15 16  1  0  0  0  0
 16 17  1  0  0  0  0
 17 19  1  0  0  0  0
 18 17  1  0  0  0  0
 19 21  1  0  0  0  0
 20 21  1  0  0  0  0
 23 22  1  0  0  0  0
 23 24  1  0  0  0  0
 25 24  1  0  0  0  0
 25 26  1  0  0  0  0
 26 27  1  0  0  0  0
 27 28  1  0  0  0  0
 28 30  2  0  0  0  0
 28 29  1  0  0  0  0
 29 31  1  0  0  0  0
 31 32  1  0  0  0  0
M  END
>  <MODEL>
1

>  <REMARK>
 VINA RESULT:      -4.3      0.000      0.000
  Name = 
  22 active torsions:
  status: ('A' for Active; 'I' for Inactive)
    1  A    between atoms: C_1  and  N_20
    2  A    between atoms: C_2  and  C_12
    3  A    between atoms: C_2  and  O_23
    4  A    between atoms: N_4  and  C_5
    5  A    between atoms: N_4  and  C_15
    6  A    between atoms: O_6  and  N_31
    7  A    between atoms: C_8  and  O_23
    8  A    between atoms: C_8  and  C_28
    9  A    between atoms: C_9  and  N_10
   10  A    between atoms: C_9  and  C_12
   11  A    between atoms: N_11  and  C_18
   12  A    between atoms: N_11  and  C_32
   13  A    between atoms: C_13  and  C_28
   14  A    between atoms: C_13  and  N_31
   15  A    between atoms: N_14  and  C_21
   16  A    between atoms: N_14  and  C_26
   17  A    between atoms: N_14  and  C_28
   18  A    between atoms: C_15  and  C_26
   19  A    between atoms: C_16  and  O_27
   20  A    between atoms: C_16  and  N_31
   21  A    between atoms: C_18  and  C_22
   22  A    between atoms: O_27  and  C_32
                            x       y       z     vdW  Elec       q    Type
                         _______ _______ _______ _____ _____    ______ ____

>  <TORSDO>
F 22

$$$$
=
 OpenBabel11052421413D

 32 31  0  0  1  0  0  0  0  0999 V2000
  188.7080  176.5560  142.3190 C   0  0  2  0  0  3  0  0  0  0  0  0
  187.6760  177.6010  142.1890 N   0  0  0  0  0  0  0  0  0  0  0  0
  185.8740  178.0810  140.7780 O   0  0  0  0  0  1  0  0  0  0  0  0
  187.2050  177.6630  140.8060 C   0  0  0  0  0  2  0  0  0  0  0  0
  186.5220  177.3230  143.0590 C   0  0  0  0  0  2  0  0  0  0  0  0
  186.4450  178.2470  144.2780 C   0  0  0  0  0  2  0  0  0  0  0  0
  185.7020  179.4470  143.9350 N   0  0  0  0  0  2  0  0  0  0  0  0
  184.3020  179.1700  144.2070 C   0  0  0  0  0  2  0  0  0  0  0  0
  184.1440  178.7350  145.6490 C   0  0  0  0  0  1  0  0  0  0  0  0
  188.1060  175.2150  142.7640 C   0  0  0  0  0  2  0  0  0  0  0  0
  187.9900  174.2930  141.6420 N   0  0  0  0  0  0  0  0  0  0  0  0
  189.0100  174.5760  140.7960 O   0  0  0  0  0  0  0  0  0  0  0  0
  188.8050  173.7440  139.6930 C   0  0  0  0  0  1  0  0  0  0  0  0
  188.2360  172.9620  142.1730 C   0  0  0  0  0  2  0  0  0  0  0  0
  189.1570  173.0360  143.2180 O   0  0  0  0  0  0  0  0  0  0  0  0
  189.9000  171.8600  143.1150 C   0  0  0  0  0  2  0  0  0  0  0  0
  191.0150  171.8970  144.0530 N   0  0  0  0  0  0  0  0  0  0  0  0
  191.1830  173.2710  144.5030 C   0  0  0  0  0  1  0  0  0  0  0  0
  192.2530  171.4280  143.4090 C   0  0  0  0  0  2  0  0  0  0  0  0
  193.5530  169.9430  144.7810 O   0  0  0  0  0  1  0  0  0  0  0  0
  192.6230  169.9780  143.7400 C   0  0  0  0  0  2  0  0  0  0  0  0
  189.8040  176.9770  143.3010 C   0  0  0  0  0  2  0  0  0  0  0  0
  189.5640  176.4110  144.5540 O   0  0  0  0  0  0  0  0  0  0  0  0
  190.3430  177.1630  145.4330 C   0  0  0  0  0  2  0  0  0  0  0  0
  190.1500  176.6610  146.8570 C   0  0  0  0  0  2  0  0  0  0  0  0
  191.4820  176.5430  147.5790 C   0  0  0  0  0  2  0  0  0  0  0  0
  192.3090  175.5320  146.9400 N   0  0  0  0  0  2  0  0  0  0  0  0
  193.6550  175.7930  146.5470 C   0  0  0  0  0  0  0  0  0  0  0  0
  194.4170  174.7560  145.9310 N   0  0  0  0  0  2  0  0  0  0  0  0
  194.1680  176.9290  146.7460 O   0  0  0  0  0  0  0  0  0  0  0  0
  195.7940  174.9570  145.5100 C   0  0  0  0  0  2  0  0  0  0  0  0
  196.6350  173.7820  145.9580 C   0  0  0  0  0  1  0  0  0  0  0  0
  1 10  1  1  0  0  0
  1 22  1  0  0  0  0
  2  1  1  0  0  0  0
  2  5  1  0  0  0  0
  3  4  1  0  0  0  0
  4  2  1  0  0  0  0
  5  6  1  0  0  0  0
  7  8  1  0  0  0  0
  7  6  1  0  0  0  0
  8  9  1  0  0  0  0
 11 14  1  0  0  0  0
 11 10  1  0  0  0  0
 12 11  1  0  0  0  0
 13 12  1  0  0  0  0
 14 15  1  0  0  0  0
 16 15  1  0  0  0  0
 16 17  1  0  0  0  0
 17 18  1  0  0  0  0
 19 21  1  0  0  0  0
 19 17  1  0  0  0  0
 21 20  1  0  0  0  0
 22 23  1  0  0  0  0
 23 24  1  0  0  0  0
 24 25  1  0  0  0  0
 25 26  1  0  0  0  0
 27 26  1  0  0  0  0
 28 30  2  0  0  0  0
 28 27  1  0  0  0  0
 29 28  1  0  0  0  0
 31 29  1  0  0  0  0
 31 32  1  0  0  0  0
M  END
>  <MODEL>
2

>  <REMARK>
 VINA RESULT:      -4.3      2.112      6.114
  Name = 
  22 active torsions:
  status: ('A' for Active; 'I' for Inactive)
    1  A    between atoms: C_1  and  N_20
    2  A    between atoms: C_2  and  C_12
    3  A    between atoms: C_2  and  O_23
    4  A    between atoms: N_4  and  C_5
    5  A    between atoms: N_4  and  C_15
    6  A    between atoms: O_6  and  N_31
    7  A    between atoms: C_8  and  O_23
    8  A    between atoms: C_8  and  C_28
    9  A    between atoms: C_9  and  N_10
   10  A    between atoms: C_9  and  C_12
   11  A    between atoms: N_11  and  C_18
   12  A    between atoms: N_11  and  C_32
   13  A    between atoms: C_13  and  C_28
   14  A    between atoms: C_13  and  N_31
   15  A    between atoms: N_14  and  C_21
   16  A    between atoms: N_14  and  C_26
   17  A    between atoms: N_14  and  C_28
   18  A    between atoms: C_15  and  C_26
   19  A    between atoms: C_16  and  O_27
   20  A    between atoms: C_16  and  N_31
   21  A    between atoms: C_18  and  C_22
   22  A    between atoms: O_27  and  C_32
                            x       y       z     vdW  Elec       q    Type
                         _______ _______ _______ _____ _____    ______ ____

>  <TORSDO>
F 22

$$$$
=
 OpenBabel11052421413D

 32 31  0  0  1  0  0  0  0  0999 V2000
  193.2600  175.2120  145.2570 C   0  0  2  0  0  3  0  0  0  0  0  0
  194.7280  175.3450  145.2110 N   0  0  0  0  0  0  0  0  0  0  0  0
  194.6030  173.0160  145.3900 O   0  0  0  0  0  1  0  0  0  0  0  0
  195.3290  174.0670  144.8280 C   0  0  0  0  0  2  0  0  0  0  0  0
  195.1410  176.3630  144.2310 C   0  0  0  0  0  2  0  0  0  0  0  0
  195.9560  175.7900  143.0690 C   0  0  0  0  0  2  0  0  0  0  0  0
  195.5460  176.4190  141.8260 N   0  0  0  0  0  2  0  0  0  0  0  0
  196.5700  176.1190  140.8410 C   0  0  0  0  0  2  0  0  0  0  0  0
  197.7000  175.3590  141.5040 C   0  0  0  0  0  1  0  0  0  0  0  0
  192.5750  176.1140  144.2200 C   0  0  0  0  0  2  0  0  0  0  0  0
  191.5310  175.3930  143.5030 N   0  0  0  0  0  0  0  0  0  0  0  0
  190.5660  176.2960  143.2030 O   0  0  0  0  0  0  0  0  0  0  0  0
  191.2210  177.5290  143.1800 C   0  0  0  0  0  1  0  0  0  0  0  0
  192.1160  174.9620  142.2430 C   0  0  0  0  0  2  0  0  0  0  0  0
  191.2630  174.0540  141.6170 O   0  0  0  0  0  0  0  0  0  0  0  0
  191.2800  172.9290  142.4420 C   0  0  0  0  0  2  0  0  0  0  0  0
  190.2600  171.9820  142.0080 N   0  0  0  0  0  0  0  0  0  0  0  0
  190.0970  172.1210  140.5680 C   0  0  0  0  0  1  0  0  0  0  0  0
  188.9800  172.2490  142.6830 C   0  0  0  0  0  2  0  0  0  0  0  0
  187.9100  174.3530  142.2300 O   0  0  0  0  0  1  0  0  0  0  0  0
  187.9680  173.0180  141.8280 C   0  0  0  0  0  2  0  0  0  0  0  0
  192.7170  175.5310  146.6510 C   0  0  0  0  0  2  0  0  0  0  0  0
  191.8240  176.6000  146.5820 O   0  0  0  0  0  0  0  0  0  0  0  0
  190.9100  176.3620  147.6090 C   0  0  0  0  0  2  0  0  0  0  0  0
  190.1390  175.0810  147.3300 C   0  0  0  0  0  2  0  0  0  0  0  0
  189.0300  175.3200  146.3180 C   0  0  0  0  0  2  0  0  0  0  0  0
  187.8920  175.9530  146.9650 N   0  0  0  0  0  2  0  0  0  0  0  0
  187.3050  177.1510  146.4590 C   0  0  0  0  0  0  0  0  0  0  0  0
  186.1850  177.7210  147.1350 N   0  0  0  0  0  2  0  0  0  0  0  0
  187.7690  177.7000  145.4220 O   0  0  0  0  0  0  0  0  0  0  0  0
  185.5400  178.9370  146.6700 C   0  0  0  0  0  2  0  0  0  0  0  0
  184.1860  178.5990  146.0850 C   0  0  0  0  0  1  0  0  0  0  0  0
  1 10  1  6  0  0  0
  1 22  1  0  0  0  0
  2  1  1  0  0  0  0
  4  2  1  0  0  0  0
  4  3  1  0  0  0  0
  5  2  1  0  0  0  0
  6  5  1  0  0  0  0
  7  6  1  0  0  0  0
  8  9  1  0  0  0  0
  8  7  1  0  0  0  0
 11 10  1  0  0  0  0
 12 11  1  0  0  0  0
 13 12  1  0  0  0  0
 14 11  1  0  0  0  0
 15 14  1  0  0  0  0
 15 16  1  0  0  0  0
 17 16  1  0  0  0  0
 17 19  1  0  0  0  0
 18 17  1  0  0  0  0
 21 20  1  0  0  0  0
 21 19  1  0  0  0  0
 23 22  1  0  0  0  0
 23 24  1  0  0  0  0
 25 24  1  0  0  0  0
 26 27  1  0  0  0  0
 26 25  1  0  0  0  0
 28 27  1  0  0  0  0
 28 29  1  0  0  0  0
 30 28  2  0  0  0  0
 31 29  1  0  0  0  0
 32 31  1  0  0  0  0
M  END
>  <MODEL>
3

>  <REMARK>
 VINA RESULT:      -4.3      2.480      5.940
  Name = 
  22 active torsions:
  status: ('A' for Active; 'I' for Inactive)
    1  A    between atoms: C_1  and  N_20
    2  A    between atoms: C_2  and  C_12
    3  A    between atoms: C_2  and  O_23
    4  A    between atoms: N_4  and  C_5
    5  A    between atoms: N_4  and  C_15
    6  A    between atoms: O_6  and  N_31
    7  A    between atoms: C_8  and  O_23
    8  A    between atoms: C_8  and  C_28
    9  A    between atoms: C_9  and  N_10
   10  A    between atoms: C_9  and  C_12
   11  A    between atoms: N_11  and  C_18
   12  A    between atoms: N_11  and  C_32
   13  A    between atoms: C_13  and  C_28
   14  A    between atoms: C_13  and  N_31
   15  A    between atoms: N_14  and  C_21
   16  A    between atoms: N_14  and  C_26
   17  A    between atoms: N_14  and  C_28
   18  A    between atoms: C_15  and  C_26
   19  A    between atoms: C_16  and  O_27
   20  A    between atoms: C_16  and  N_31
   21  A    between atoms: C_18  and  C_22
   22  A    between atoms: O_27  and  C_32
                            x       y       z     vdW  Elec       q    Type
                         _______ _______ _______ _____ _____    ______ ____

>  <TORSDO>
F 22

$$$$
=
 OpenBabel11052421413D

 32 31  0  0  1  0  0  0  0  0999 V2000
  188.4650  176.8340  145.2800 C   0  0  2  0  0  3  0  0  0  0  0  0
  189.0630  177.1750  143.9760 N   0  0  0  0  0  0  0  0  0  0  0  0
  191.2050  177.6970  143.1960 O   0  0  0  0  0  1  0  0  0  0  0  0
  190.2590  177.9930  144.1780 C   0  0  0  0  0  2  0  0  0  0  0  0
  189.4510  175.9640  143.2340 C   0  0  0  0  0  2  0  0  0  0  0  0
  188.6480  175.7600  141.9460 C   0  0  0  0  0  2  0  0  0  0  0  0
  187.8720  174.5360  142.0410 N   0  0  0  0  0  2  0  0  0  0  0  0
  188.7400  173.4510  141.6180 C   0  0  0  0  0  2  0  0  0  0  0  0
  188.3070  172.9630  140.2510 C   0  0  0  0  0  1  0  0  0  0  0  0
  187.2280  177.6940  145.5800 C   0  0  0  0  0  2  0  0  0  0  0  0
  186.0150  176.8860  145.5860 N   0  0  0  0  0  0  0  0  0  0  0  0
  185.0810  177.5880  146.2730 O   0  0  0  0  0  0  0  0  0  0  0  0
  185.7360  178.0300  147.4240 C   0  0  0  0  0  1  0  0  0  0  0  0
  185.5610  176.8100  144.2080 C   0  0  0  0  0  2  0  0  0  0  0  0
  185.6840  178.0600  143.6030 O   0  0  0  0  0  0  0  0  0  0  0  0
  184.5210  178.2010  142.8460 C   0  0  0  0  0  2  0  0  0  0  0  0
  184.7680  177.7710  141.4760 N   0  0  0  0  0  0  0  0  0  0  0  0
  186.0760  178.2690  141.0730 C   0  0  0  0  0  1  0  0  0  0  0  0
  183.7340  178.2970  140.5710 C   0  0  0  0  0  2  0  0  0  0  0  0
  181.3890  177.9320  140.1870 O   0  0  0  0  0  1  0  0  0  0  0  0
  182.3200  178.2930  141.1620 C   0  0  0  0  0  2  0  0  0  0  0  0
  189.4810  176.9850  146.4140 C   0  0  0  0  0  2  0  0  0  0  0  0
  189.5900  175.7860  147.1190 O   0  0  0  0  0  0  0  0  0  0  0  0
  190.7660  175.2050  146.6430 C   0  0  0  0  0  2  0  0  0  0  0  0
  191.9650  175.7750  147.3870 C   0  0  0  0  0  2  0  0  0  0  0  0
  192.9570  176.4030  146.4220 C   0  0  0  0  0  2  0  0  0  0  0  0
  194.2300  175.7040  146.4890 N   0  0  0  0  0  2  0  0  0  0  0  0
  194.5390  174.6110  145.6260 C   0  0  0  0  0  0  0  0  0  0  0  0
  195.8100  173.9700  145.7370 N   0  0  0  0  0  2  0  0  0  0  0  0
  193.7000  174.2170  144.7710 O   0  0  0  0  0  0  0  0  0  0  0  0
  196.1880  172.8540  144.8870 C   0  0  0  0  0  2  0  0  0  0  0  0
  197.0380  171.8820  145.6760 C   0  0  0  0  0  1  0  0  0  0  0  0
  1 10  1  1  0  0  0
  1 22  1  0  0  0  0
  2  4  1  0  0  0  0
  2  1  1  0  0  0  0
  3  4  1  0  0  0  0
  5  2  1  0  0  0  0
  6  7  1  0  0  0  0
  6  5  1  0  0  0  0
  8  7  1  0  0  0  0
  9  8  1  0  0  0  0
 10 11  1  0  0  0  0
 11 12  1  0  0  0  0
 12 13  1  0  0  0  0
 14 11  1  0  0  0  0
 15 14  1  0  0  0  0
 16 15  1  0  0  0  0
 17 16  1  0  0  0  0
 18 17  1  0  0  0  0
 19 21  1  0  0  0  0
 19 17  1  0  0  0  0
 20 21  1  0  0  0  0
 22 23  1  0  0  0  0
 24 23  1  0  0  0  0
 24 25  1  0  0  0  0
 26 27  1  0  0  0  0
 26 25  1  0  0  0  0
 28 29  1  0  0  0  0
 28 27  1  0  0  0  0
 30 28  2  0  0  0  0
 31 32  1  0  0  0  0
 31 29  1  0  0  0  0
M  END
>  <MODEL>
4

>  <REMARK>
 VINA RESULT:      -4.2      2.238      8.418
  Name = 
  22 active torsions:
  status: ('A' for Active; 'I' for Inactive)
    1  A    between atoms: C_1  and  N_20
    2  A    between atoms: C_2  and  C_12
    3  A    between atoms: C_2  and  O_23
    4  A    between atoms: N_4  and  C_5
    5  A    between atoms: N_4  and  C_15
    6  A    between atoms: O_6  and  N_31
    7  A    between atoms: C_8  and  O_23
    8  A    between atoms: C_8  and  C_28
    9  A    between atoms: C_9  and  N_10
   10  A    between atoms: C_9  and  C_12
   11  A    between atoms: N_11  and  C_18
   12  A    between atoms: N_11  and  C_32
   13  A    between atoms: C_13  and  C_28
   14  A    between atoms: C_13  and  N_31
   15  A    between atoms: N_14  and  C_21
   16  A    between atoms: N_14  and  C_26
   17  A    between atoms: N_14  and  C_28
   18  A    between atoms: C_15  and  C_26
   19  A    between atoms: C_16  and  O_27
   20  A    between atoms: C_16  and  N_31
   21  A    between atoms: C_18  and  C_22
   22  A    between atoms: O_27  and  C_32
                            x       y       z     vdW  Elec       q    Type
                         _______ _______ _______ _____ _____    ______ ____

>  <TORSDO>
F 22

$$$$
=
 OpenBabel11052421413D

 32 31  0  0  1  0  0  0  0  0999 V2000
  188.1430  177.0770  142.8770 C   0  0  2  0  0  3  0  0  0  0  0  0
  187.2850  178.0650  142.1960 N   0  0  0  0  0  0  0  0  0  0  0  0
  185.8300  177.8770  140.3750 O   0  0  0  0  0  1  0  0  0  0  0  0
  187.1560  177.7170  140.7810 C   0  0  0  0  0  2  0  0  0  0  0  0
  185.9380  178.1000  142.7890 C   0  0  0  0  0  2  0  0  0  0  0  0
  185.7540  179.2310  143.8050 C   0  0  0  0  0  2  0  0  0  0  0  0
  184.5240  179.0250  144.5490 N   0  0  0  0  0  2  0  0  0  0  0  0
  184.8910  178.9040  145.9490 C   0  0  0  0  0  2  0  0  0  0  0  0
  184.6890  177.4730  146.4010 C   0  0  0  0  0  1  0  0  0  0  0  0
  189.4480  177.7100  143.3830 C   0  0  0  0  0  2  0  0  0  0  0  0
  189.5780  177.5620  144.8260 N   0  0  0  0  0  0  0  0  0  0  0  0
  188.3620  177.1850  145.2930 O   0  0  0  0  0  0  0  0  0  0  0  0
  188.4650  177.2800  146.6820 C   0  0  0  0  0  1  0  0  0  0  0  0
  190.4830  176.4450  145.0480 C   0  0  0  0  0  2  0  0  0  0  0  0
  191.7220  176.9220  145.4730 O   0  0  0  0  0  0  0  0  0  0  0  0
  192.0870  176.0710  146.5170 C   0  0  0  0  0  2  0  0  0  0  0  0
  193.5240  175.8310  146.4790 N   0  0  0  0  0  0  0  0  0  0  0  0
  194.1500  176.9360  145.7680 C   0  0  0  0  0  1  0  0  0  0  0  0
  193.8210  174.5630  145.7930 C   0  0  0  0  0  2  0  0  0  0  0  0
  195.0410  173.7070  143.9080 O   0  0  0  0  0  1  0  0  0  0  0  0
  194.1680  174.7190  144.3090 C   0  0  0  0  0  2  0  0  0  0  0  0
  188.4680  175.8980  141.9580 C   0  0  0  0  0  2  0  0  0  0  0  0
  187.9200  174.7240  142.4760 O   0  0  0  0  0  0  0  0  0  0  0  0
  189.0230  173.9470  142.8310 C   0  0  0  0  0  2  0  0  0  0  0  0
  188.8110  172.5100  142.3810 C   0  0  0  0  0  2  0  0  0  0  0  0
  189.6110  172.2080  141.1240 C   0  0  0  0  0  2  0  0  0  0  0  0
  188.8330  172.5470  139.9430 N   0  0  0  0  0  2  0  0  0  0  0  0
  189.3900  173.2860  138.8570 C   0  0  0  0  0  0  0  0  0  0  0  0
  188.5760  173.5820  137.7230 N   0  0  0  0  0  2  0  0  0  0  0  0
  190.5900  173.6720  138.8980 O   0  0  0  0  0  0  0  0  0  0  0  0
  189.0830  174.3280  136.5830 C   0  0  0  0  0  2  0  0  0  0  0  0
  189.5530  173.3630  135.5170 C   0  0  0  0  0  1  0  0  0  0  0  0
  1 22  1  6  0  0  0
  1 10  1  0  0  0  0
  2  5  1  0  0  0  0
  2  1  1  0  0  0  0
  3  4  1  0  0  0  0
  4  2  1  0  0  0  0
  5  6  1  0  0  0  0
  6  7  1  0  0  0  0
  7  8  1  0  0  0  0
  8  9  1  0  0  0  0
 10 11  1  0  0  0  0
 11 14  1  0  0  0  0
 11 12  1  0  0  0  0
 12 13  1  0  0  0  0
 14 15  1  0  0  0  0
 15 16  1  0  0  0  0
 17 16  1  0  0  0  0
 18 17  1  0  0  0  0
 19 17  1  0  0  0  0
 20 21  1  0  0  0  0
 21 19  1  0  0  0  0
 22 23  1  0  0  0  0
 23 24  1  0  0  0  0
 25 24  1  0  0  0  0
 26 25  1  0  0  0  0
 27 26  1  0  0  0  0
 28 30  2  0  0  0  0
 28 27  1  0  0  0  0
 29 28  1  0  0  0  0
 31 29  1  0  0  0  0
 32 31  1  0  0  0  0
M  END
>  <MODEL>
5

>  <REMARK>
 VINA RESULT:      -4.2      2.783      6.258
  Name = 
  22 active torsions:
  status: ('A' for Active; 'I' for Inactive)
    1  A    between atoms: C_1  and  N_20
    2  A    between atoms: C_2  and  C_12
    3  A    between atoms: C_2  and  O_23
    4  A    between atoms: N_4  and  C_5
    5  A    between atoms: N_4  and  C_15
    6  A    between atoms: O_6  and  N_31
    7  A    between atoms: C_8  and  O_23
    8  A    between atoms: C_8  and  C_28
    9  A    between atoms: C_9  and  N_10
   10  A    between atoms: C_9  and  C_12
   11  A    between atoms: N_11  and  C_18
   12  A    between atoms: N_11  and  C_32
   13  A    between atoms: C_13  and  C_28
   14  A    between atoms: C_13  and  N_31
   15  A    between atoms: N_14  and  C_21
   16  A    between atoms: N_14  and  C_26
   17  A    between atoms: N_14  and  C_28
   18  A    between atoms: C_15  and  C_26
   19  A    between atoms: C_16  and  O_27
   20  A    between atoms: C_16  and  N_31
   21  A    between atoms: C_18  and  C_22
   22  A    between atoms: O_27  and  C_32
                            x       y       z     vdW  Elec       q    Type
                         _______ _______ _______ _____ _____    ______ ____

>  <TORSDO>
F 22

$$$$
=
 OpenBabel11052421413D

 32 31  0  0  1  0  0  0  0  0999 V2000
  188.4790  175.8420  143.4580 C   0  0  2  0  0  3  0  0  0  0  0  0
  188.4320  177.3150  143.5000 N   0  0  0  0  0  0  0  0  0  0  0  0
  190.4820  178.3880  143.1570 O   0  0  0  0  0  1  0  0  0  0  0  0
  189.3580  177.8680  142.5120 C   0  0  0  0  0  2  0  0  0  0  0  0
  187.0800  177.8150  143.1970 C   0  0  0  0  0  2  0  0  0  0  0  0
  186.0760  177.5640  144.3260 C   0  0  0  0  0  2  0  0  0  0  0  0
  186.5290  178.2190  145.5390 N   0  0  0  0  0  2  0  0  0  0  0  0
  185.4680  179.1180  145.9580 C   0  0  0  0  0  2  0  0  0  0  0  0
  184.2500  178.3100  146.3550 C   0  0  0  0  0  1  0  0  0  0  0  0
  189.2890  175.2660  144.6280 C   0  0  0  0  0  2  0  0  0  0  0  0
  189.4880  176.2630  145.6710 N   0  0  0  0  0  0  0  0  0  0  0  0
  188.7750  175.8510  146.7490 O   0  0  0  0  0  0  0  0  0  0  0  0
  189.2380  174.5610  147.0150 C   0  0  0  0  0  1  0  0  0  0  0  0
  190.8920  176.2000  146.0430 C   0  0  0  0  0  2  0  0  0  0  0  0
  191.6590  175.8700  144.9250 O   0  0  0  0  0  0  0  0  0  0  0  0
  192.8550  176.5660  145.1020 C   0  0  0  0  0  2  0  0  0  0  0  0
  193.9840  175.6800  144.8490 N   0  0  0  0  0  0  0  0  0  0  0  0
  194.4810  175.1990  146.1300 C   0  0  0  0  0  1  0  0  0  0  0  0
  195.0550  176.3930  144.1340 C   0  0  0  0  0  2  0  0  0  0  0  0
  194.7100  174.5980  142.5740 O   0  0  0  0  0  1  0  0  0  0  0  0
  195.4170  175.7850  142.7750 C   0  0  0  0  0  2  0  0  0  0  0  0
  189.0620  175.3420  142.1350 C   0  0  0  0  0  2  0  0  0  0  0  0
  188.0800  174.6750  141.4030 O   0  0  0  0  0  0  0  0  0  0  0  0
  188.7310  174.2550  140.2430 C   0  0  0  0  0  2  0  0  0  0  0  0
  188.4550  172.7790  139.9980 C   0  0  0  0  0  2  0  0  0  0  0  0
  189.7480  171.9790  139.9770 C   0  0  0  0  0  2  0  0  0  0  0  0
  190.7240  172.5830  140.8700 N   0  0  0  0  0  2  0  0  0  0  0  0
  190.8700  172.1610  142.2260 C   0  0  0  0  0  0  0  0  0  0  0  0
  191.8510  172.7890  143.0510 N   0  0  0  0  0  2  0  0  0  0  0  0
  190.1420  171.2410  142.6900 O   0  0  0  0  0  0  0  0  0  0  0  0
  192.0520  172.4040  144.4380 C   0  0  0  0  0  2  0  0  0  0  0  0
  193.4390  171.8220  144.6040 C   0  0  0  0  0  1  0  0  0  0  0  0
  1 22  1  6  0  0  0
  1  2  1  0  0  0  0
  1 10  1  0  0  0  0
  4  3  1  0  0  0  0
  4  2  1  0  0  0  0
  5  2  1  0  0  0  0
  5  6  1  0  0  0  0
  6  7  1  0  0  0  0
  7  8  1  0  0  0  0
  8  9  1  0  0  0  0
 10 11  1  0  0  0  0
 11 14  1  0  0  0  0
 11 12  1  0  0  0  0
 12 13  1  0  0  0  0
 15 16  1  0  0  0  0
 15 14  1  0  0  0  0
 17 16  1  0  0  0  0
 17 18  1  0  0  0  0
 19 17  1  0  0  0  0
 20 21  1  0  0  0  0
 21 19  1  0  0  0  0
 23 22  1  0  0  0  0
 24 23  1  0  0  0  0
 25 24  1  0  0  0  0
 26 25  1  0  0  0  0
 26 27  1  0  0  0  0
 27 28  1  0  0  0  0
 28 30  2  0  0  0  0
 28 29  1  0  0  0  0
 29 31  1  0  0  0  0
 31 32  1  0  0  0  0
M  END
>  <MODEL>
6

>  <REMARK>
 VINA RESULT:      -4.2      2.109      5.409
  Name = 
  22 active torsions:
  status: ('A' for Active; 'I' for Inactive)
    1  A    between atoms: C_1  and  N_20
    2  A    between atoms: C_2  and  C_12
    3  A    between atoms: C_2  and  O_23
    4  A    between atoms: N_4  and  C_5
    5  A    between atoms: N_4  and  C_15
    6  A    between atoms: O_6  and  N_31
    7  A    between atoms: C_8  and  O_23
    8  A    between atoms: C_8  and  C_28
    9  A    between atoms: C_9  and  N_10
   10  A    between atoms: C_9  and  C_12
   11  A    between atoms: N_11  and  C_18
   12  A    between atoms: N_11  and  C_32
   13  A    between atoms: C_13  and  C_28
   14  A    between atoms: C_13  and  N_31
   15  A    between atoms: N_14  and  C_21
   16  A    between atoms: N_14  and  C_26
   17  A    between atoms: N_14  and  C_28
   18  A    between atoms: C_15  and  C_26
   19  A    between atoms: C_16  and  O_27
   20  A    between atoms: C_16  and  N_31
   21  A    between atoms: C_18  and  C_22
   22  A    between atoms: O_27  and  C_32
                            x       y       z     vdW  Elec       q    Type
                         _______ _______ _______ _____ _____    ______ ____

>  <TORSDO>
F 22

$$$$
=
 OpenBabel11052421413D

 32 31  0  0  1  0  0  0  0  0999 V2000
  187.5680  177.2660  142.3590 C   0  0  2  0  0  3  0  0  0  0  0  0
  186.6810  178.2480  141.7080 N   0  0  0  0  0  0  0  0  0  0  0  0
  184.9200  177.9030  140.2090 O   0  0  0  0  0  1  0  0  0  0  0  0
  186.2980  177.7660  140.3810 C   0  0  0  0  0  2  0  0  0  0  0  0
  185.4550  178.4630  142.4940 C   0  0  0  0  0  2  0  0  0  0  0  0
  185.6420  179.4490  143.6500 C   0  0  0  0  0  2  0  0  0  0  0  0
  184.6910  179.1520  144.7060 N   0  0  0  0  0  2  0  0  0  0  0  0
  185.4390  179.1020  145.9490 C   0  0  0  0  0  2  0  0  0  0  0  0
  184.6590  178.3090  146.9770 C   0  0  0  0  0  1  0  0  0  0  0  0
  188.9670  177.8460  142.6150 C   0  0  0  0  0  2  0  0  0  0  0  0
  189.3030  177.8000  144.0320 N   0  0  0  0  0  0  0  0  0  0  0  0
  188.2080  177.3300  144.6800 O   0  0  0  0  0  0  0  0  0  0  0  0
  188.6160  177.1670  146.0050 C   0  0  0  0  0  1  0  0  0  0  0  0
  190.3450  176.7960  144.1780 C   0  0  0  0  0  2  0  0  0  0  0  0
  191.5860  177.4220  144.2970 O   0  0  0  0  0  0  0  0  0  0  0  0
  192.4990  176.3730  144.4080 C   0  0  0  0  0  2  0  0  0  0  0  0
  192.3470  175.7210  145.7030 N   0  0  0  0  0  0  0  0  0  0  0  0
  193.1550  176.4460  146.6730 C   0  0  0  0  0  1  0  0  0  0  0  0
  192.7880  174.3190  145.6350 C   0  0  0  0  0  2  0  0  0  0  0  0
  190.6940  173.3150  145.0140 O   0  0  0  0  0  1  0  0  0  0  0  0
  192.0230  173.4690  144.6150 C   0  0  0  0  0  2  0  0  0  0  0  0
  187.6870  175.9880  141.5260 C   0  0  0  0  0  2  0  0  0  0  0  0
  187.3730  174.8770  142.3090 O   0  0  0  0  0  0  0  0  0  0  0  0
  188.5530  174.1370  142.3600 C   0  0  0  0  0  2  0  0  0  0  0  0
  188.4290  172.9000  141.4830 C   0  0  0  0  0  2  0  0  0  0  0  0
  189.6470  172.7420  140.5870 C   0  0  0  0  0  2  0  0  0  0  0  0
  189.3150  171.9220  139.4330 N   0  0  0  0  0  2  0  0  0  0  0  0
  190.1220  170.8140  139.0360 C   0  0  0  0  0  0  0  0  0  0  0  0
  189.7380  170.0420  137.8980 N   0  0  0  0  0  2  0  0  0  0  0  0
  191.1620  170.5170  139.6850 O   0  0  0  0  0  0  0  0  0  0  0  0
  190.5150  168.9010  137.4430 C   0  0  0  0  0  2  0  0  0  0  0  0
  191.3160  169.2910  136.2200 C   0  0  0  0  0  1  0  0  0  0  0  0
  1 22  1  6  0  0  0
  1 10  1  0  0  0  0
  2  1  1  0  0  0  0
  2  5  1  0  0  0  0
  3  4  1  0  0  0  0
  4  2  1  0  0  0  0
  5  6  1  0  0  0  0
  6  7  1  0  0  0  0
  7  8  1  0  0  0  0
  8  9  1  0  0  0  0
 10 11  1  0  0  0  0
 11 14  1  0  0  0  0
 11 12  1  0  0  0  0
 12 13  1  0  0  0  0
 14 15  1  0  0  0  0
 15 16  1  0  0  0  0
 16 17  1  0  0  0  0
 17 18  1  0  0  0  0
 19 17  1  0  0  0  0
 21 20  1  0  0  0  0
 21 19  1  0  0  0  0
 22 23  1  0  0  0  0
 23 24  1  0  0  0  0
 25 24  1  0  0  0  0
 26 25  1  0  0  0  0
 27 26  1  0  0  0  0
 28 27  1  0  0  0  0
 28 30  2  0  0  0  0
 29 28  1  0  0  0  0
 31 29  1  0  0  0  0
 32 31  1  0  0  0  0
M  END
>  <MODEL>
7

>  <REMARK>
 VINA RESULT:      -4.2      3.022      6.919
  Name = 
  22 active torsions:
  status: ('A' for Active; 'I' for Inactive)
    1  A    between atoms: C_1  and  N_20
    2  A    between atoms: C_2  and  C_12
    3  A    between atoms: C_2  and  O_23
    4  A    between atoms: N_4  and  C_5
    5  A    between atoms: N_4  and  C_15
    6  A    between atoms: O_6  and  N_31
    7  A    between atoms: C_8  and  O_23
    8  A    between atoms: C_8  and  C_28
    9  A    between atoms: C_9  and  N_10
   10  A    between atoms: C_9  and  C_12
   11  A    between atoms: N_11  and  C_18
   12  A    between atoms: N_11  and  C_32
   13  A    between atoms: C_13  and  C_28
   14  A    between atoms: C_13  and  N_31
   15  A    between atoms: N_14  and  C_21
   16  A    between atoms: N_14  and  C_26
   17  A    between atoms: N_14  and  C_28
   18  A    between atoms: C_15  and  C_26
   19  A    between atoms: C_16  and  O_27
   20  A    between atoms: C_16  and  N_31
   21  A    between atoms: C_18  and  C_22
   22  A    between atoms: O_27  and  C_32
                            x       y       z     vdW  Elec       q    Type
                         _______ _______ _______ _____ _____    ______ ____

>  <TORSDO>
F 22

$$$$
=
 OpenBabel11052421413D

 32 31  0  0  1  0  0  0  0  0999 V2000
  188.2080  176.7890  142.5420 C   0  0  2  0  0  3  0  0  0  0  0  0
  187.0080  177.6120  142.3020 N   0  0  0  0  0  0  0  0  0  0  0  0
  185.4310  178.1950  140.6770 O   0  0  0  0  0  1  0  0  0  0  0  0
  186.6800  177.6050  140.8770 C   0  0  0  0  0  2  0  0  0  0  0  0
  185.8480  177.0940  143.0470 C   0  0  0  0  0  2  0  0  0  0  0  0
  185.7020  177.7070  144.4420 C   0  0  0  0  0  2  0  0  0  0  0  0
  184.9760  178.9620  144.3510 N   0  0  0  0  0  2  0  0  0  0  0  0
  184.0600  179.0040  145.4770 C   0  0  0  0  0  2  0  0  0  0  0  0
  184.4320  177.9240  146.4710 C   0  0  0  0  0  1  0  0  0  0  0  0
  189.4920  177.6300  142.4970 C   0  0  0  0  0  2  0  0  0  0  0  0
  190.5110  177.0820  143.3820 N   0  0  0  0  0  0  0  0  0  0  0  0
  191.6610  177.0210  142.6660 O   0  0  0  0  0  0  0  0  0  0  0  0
  192.0690  175.6890  142.7510 C   0  0  0  0  0  1  0  0  0  0  0  0
  190.7180  178.0640  144.4340 C   0  0  0  0  0  2  0  0  0  0  0  0
  190.0650  177.6520  145.5950 O   0  0  0  0  0  0  0  0  0  0  0  0
  190.8070  176.5610  146.0480 C   0  0  0  0  0  2  0  0  0  0  0  0
  190.1750  175.9900  147.2300 N   0  0  0  0  0  0  0  0  0  0  0  0
  191.2100  175.3660  148.0420 C   0  0  0  0  0  1  0  0  0  0  0  0
  189.1670  174.9870  146.8490 C   0  0  0  0  0  2  0  0  0  0  0  0
  189.6750  173.0820  145.4750 O   0  0  0  0  0  1  0  0  0  0  0  0
  189.3370  174.4350  145.4300 C   0  0  0  0  0  2  0  0  0  0  0  0
  188.3080  175.6450  141.5320 C   0  0  0  0  0  2  0  0  0  0  0  0
  188.2940  174.4190  142.1970 O   0  0  0  0  0  0  0  0  0  0  0  0
  188.3780  173.4670  141.1810 C   0  0  0  0  0  2  0  0  0  0  0  0
  189.6870  173.6290  140.4230 C   0  0  0  0  0  2  0  0  0  0  0  0
  190.6170  172.4560  140.6830 C   0  0  0  0  0  2  0  0  0  0  0  0
  190.9180  172.3610  142.1020 N   0  0  0  0  0  2  0  0  0  0  0  0
  192.1450  171.8110  142.5800 C   0  0  0  0  0  0  0  0  0  0  0  0
  192.3850  171.7520  143.9860 N   0  0  0  0  0  2  0  0  0  0  0  0
  193.0110  171.3830  141.7680 O   0  0  0  0  0  0  0  0  0  0  0  0
  193.6130  171.2060  144.5360 C   0  0  0  0  0  2  0  0  0  0  0  0
  194.1800  172.1670  145.5590 C   0  0  0  0  0  1  0  0  0  0  0  0
  1 22  1  6  0  0  0
  2  1  1  0  0  0  0
  2  5  1  0  0  0  0
  3  4  1  0  0  0  0
  4  2  1  0  0  0  0
  5  6  1  0  0  0  0
  7  6  1  0  0  0  0
  7  8  1  0  0  0  0
  8  9  1  0  0  0  0
 10  1  1  0  0  0  0
 10 11  1  0  0  0  0
 11 14  1  0  0  0  0
 12 13  1  0  0  0  0
 12 11  1  0  0  0  0
 14 15  1  0  0  0  0
 15 16  1  0  0  0  0
 16 17  1  0  0  0  0
 17 18  1  0  0  0  0
 19 17  1  0  0  0  0
 21 20  1  0  0  0  0
 21 19  1  0  0  0  0
 22 23  1  0  0  0  0
 24 23  1  0  0  0  0
 25 26  1  0  0  0  0
 25 24  1  0  0  0  0
 26 27  1  0  0  0  0
 27 28  1  0  0  0  0
 28 29  1  0  0  0  0
 29 31  1  0  0  0  0
 30 28  2  0  0  0  0
 31 32  1  0  0  0  0
M  END
>  <MODEL>
8

>  <REMARK>
 VINA RESULT:      -4.1      2.245      6.285
  Name = 
  22 active torsions:
  status: ('A' for Active; 'I' for Inactive)
    1  A    between atoms: C_1  and  N_20
    2  A    between atoms: C_2  and  C_12
    3  A    between atoms: C_2  and  O_23
    4  A    between atoms: N_4  and  C_5
    5  A    between atoms: N_4  and  C_15
    6  A    between atoms: O_6  and  N_31
    7  A    between atoms: C_8  and  O_23
    8  A    between atoms: C_8  and  C_28
    9  A    between atoms: C_9  and  N_10
   10  A    between atoms: C_9  and  C_12
   11  A    between atoms: N_11  and  C_18
   12  A    between atoms: N_11  and  C_32
   13  A    between atoms: C_13  and  C_28
   14  A    between atoms: C_13  and  N_31
   15  A    between atoms: N_14  and  C_21
   16  A    between atoms: N_14  and  C_26
   17  A    between atoms: N_14  and  C_28
   18  A    between atoms: C_15  and  C_26
   19  A    between atoms: C_16  and  O_27
   20  A    between atoms: C_16  and  N_31
   21  A    between atoms: C_18  and  C_22
   22  A    between atoms: O_27  and  C_32
                            x       y       z     vdW  Elec       q    Type
                         _______ _______ _______ _____ _____    ______ ____

>  <TORSDO>
F 22

$$$$
=
 OpenBabel11052421413D

 32 31  0  0  1  0  0  0  0  0999 V2000
  192.0730  173.9350  143.4290 C   0  0  2  0  0  3  0  0  0  0  0  0
  193.4830  174.3100  143.2110 N   0  0  0  0  0  0  0  0  0  0  0  0
  193.8580  172.2790  142.1140 O   0  0  0  0  0  1  0  0  0  0  0  0
  193.9850  173.6640  141.9980 C   0  0  0  0  0  2  0  0  0  0  0  0
  193.6290  175.7670  143.0530 C   0  0  0  0  0  2  0  0  0  0  0  0
  194.4310  176.4200  144.1820 C   0  0  0  0  0  2  0  0  0  0  0  0
  195.7550  175.8300  144.2470 N   0  0  0  0  0  2  0  0  0  0  0  0
  196.5790  176.5280  143.2760 C   0  0  0  0  0  2  0  0  0  0  0  0
  197.8090  175.7000  142.9690 C   0  0  0  0  0  1  0  0  0  0  0  0
  191.1110  174.9160  142.7440 C   0  0  0  0  0  2  0  0  0  0  0  0
  190.3220  174.2480  141.7170 N   0  0  0  0  0  0  0  0  0  0  0  0
  190.6020  172.9250  141.8070 O   0  0  0  0  0  0  0  0  0  0  0  0
  189.5610  172.2890  141.1280 C   0  0  0  0  0  1  0  0  0  0  0  0
  188.9280  174.4130  142.0940 C   0  0  0  0  0  2  0  0  0  0  0  0
  188.7260  175.6970  142.5990 O   0  0  0  0  0  0  0  0  0  0  0  0
  187.8000  176.2750  141.7290 C   0  0  0  0  0  2  0  0  0  0  0  0
  188.0230  177.7140  141.6550 N   0  0  0  0  0  0  0  0  0  0  0  0
  189.1920  178.0340  142.4630 C   0  0  0  0  0  1  0  0  0  0  0  0
  186.8520  178.4490  142.1580 C   0  0  0  0  0  2  0  0  0  0  0  0
  184.6180  177.5720  142.0220 O   0  0  0  0  0  1  0  0  0  0  0  0
  185.5890  178.2750  141.3070 C   0  0  0  0  0  2  0  0  0  0  0  0
  191.7460  173.8530  144.9220 C   0  0  0  0  0  2  0  0  0  0  0  0
  191.3880  175.1140  145.4010 O   0  0  0  0  0  0  0  0  0  0  0  0
  191.2010  174.9290  146.7710 C   0  0  0  0  0  2  0  0  0  0  0  0
  190.0900  175.8400  147.2700 C   0  0  0  0  0  2  0  0  0  0  0  0
  188.7430  175.4180  146.7040 C   0  0  0  0  0  2  0  0  0  0  0  0
  188.1190  176.5370  146.0160 N   0  0  0  0  0  2  0  0  0  0  0  0
  186.9680  177.1990  146.5380 C   0  0  0  0  0  0  0  0  0  0  0  0
  186.4050  178.2950  145.8170 N   0  0  0  0  0  2  0  0  0  0  0  0
  186.4540  176.8210  147.6270 O   0  0  0  0  0  0  0  0  0  0  0  0
  185.2360  179.0130  146.2960 C   0  0  0  0  0  2  0  0  0  0  0  0
  184.1060  178.8570  145.3020 C   0  0  0  0  0  1  0  0  0  0  0  0
  1 10  1  6  0  0  0
  1 22  1  0  0  0  0
  2  1  1  0  0  0  0
  4  3  1  0  0  0  0
  4  2  1  0  0  0  0
  5  2  1  0  0  0  0
  5  6  1  0  0  0  0
  6  7  1  0  0  0  0
  8  7  1  0  0  0  0
  9  8  1  0  0  0  0
 11 12  1  0  0  0  0
 11 14  1  0  0  0  0
 11 10  1  0  0  0  0
 13 12  1  0  0  0  0
 14 15  1  0  0  0  0
 16 15  1  0  0  0  0
 17 16  1  0  0  0  0
 17 19  1  0  0  0  0
 17 18  1  0  0  0  0
 21 20  1  0  0  0  0
 21 19  1  0  0  0  0
 22 23  1  0  0  0  0
 23 24  1  0  0  0  0
 24 25  1  0  0  0  0
 26 25  1  0  0  0  0
 27 28  1  0  0  0  0
 27 26  1  0  0  0  0
 28 30  2  0  0  0  0
 29 31  1  0  0  0  0
 29 28  1  0  0  0  0
 32 31  1  0  0  0  0
M  END
>  <MODEL>
9

>  <REMARK>
 VINA RESULT:      -4.1      2.073      5.893
  Name = 
  22 active torsions:
  status: ('A' for Active; 'I' for Inactive)
    1  A    between atoms: C_1  and  N_20
    2  A    between atoms: C_2  and  C_12
    3  A    between atoms: C_2  and  O_23
    4  A    between atoms: N_4  and  C_5
    5  A    between atoms: N_4  and  C_15
    6  A    between atoms: O_6  and  N_31
    7  A    between atoms: C_8  and  O_23
    8  A    between atoms: C_8  and  C_28
    9  A    between atoms: C_9  and  N_10
   10  A    between atoms: C_9  and  C_12
   11  A    between atoms: N_11  and  C_18
   12  A    between atoms: N_11  and  C_32
   13  A    between atoms: C_13  and  C_28
   14  A    between atoms: C_13  and  N_31
   15  A    between atoms: N_14  and  C_21
   16  A    between atoms: N_14  and  C_26
   17  A    between atoms: N_14  and  C_28
   18  A    between atoms: C_15  and  C_26
   19  A    between atoms: C_16  and  O_27
   20  A    between atoms: C_16  and  N_31
   21  A    between atoms: C_18  and  C_22
   22  A    between atoms: O_27  and  C_32
                            x       y       z     vdW  Elec       q    Type
                         _______ _______ _______ _____ _____    ______ ____

>  <TORSDO>
F 22

$$$$
