=
 OpenBabel11052421203D

 43 47  0  0  1  0  0  0  0  0999 V2000
  190.1560  176.9570  142.6090 N   0  0  0  0  0  0  0  0  0  0  0  0
  188.7840  178.5510  141.5780 O   0  0  0  0  0  0  0  0  0  0  0  0
  189.6330  170.7060  138.6710 C   0  0  0  0  0  0  0  0  0  0  0  0
  188.9780  177.3380  141.8690 C   0  0  0  0  0  0  0  0  0  0  0  0
  191.8900  173.0700  142.4940 C   0  0  0  0  0  0  0  0  0  0  0  0
  190.2950  174.7540  141.7130 N   0  0  0  0  0  0  0  0  0  0  0  0
  191.0630  171.2790  140.5380 C   0  0  0  0  0  0  0  0  0  0  0  0
  189.0240  171.9620  138.7460 C   0  0  0  0  0  3  0  0  0  0  0  0
  189.2310  169.8160  137.7330 F   0  0  0  0  0  0  0  0  0  0  0  0
  190.4480  172.5490  140.6200 C   0  0  0  0  0  0  0  0  0  0  0  0
  190.6500  170.3650  139.5650 C   0  0  0  0  0  3  0  0  0  0  0  0
  189.4300  172.8830  139.7170 C   0  0  0  0  0  3  0  0  0  0  0  0
  190.7340  175.6390  142.5580 C   0  0  0  0  0  0  0  0  0  0  0  0
  190.8750  173.4490  141.6080 C   0  0  0  0  0  0  0  0  0  0  0  0
  192.4730  171.8050  142.3730 C   0  0  0  0  0  3  0  0  0  0  0  0
  192.2960  173.9910  143.6060 C   0  0  1  0  0  3  0  0  0  0  0  0
  191.8170  175.3250  143.3960 O   0  0  0  0  0  0  0  0  0  0  0  0
  192.0540  170.9460  141.4060 N   0  0  0  0  0  0  0  0  0  0  0  0
  190.7950  177.9310  143.3960 C   0  0  0  0  0  0  0  0  0  0  0  0
  191.3220  178.7350  144.0420 N   0  0  0  0  0  0  0  0  0  0  0  0
  191.7660  173.4590  144.9310 C   0  0  0  0  0  2  0  0  0  0  0  0
  192.2990  176.3250  147.3600 C   0  0  0  0  0  3  0  0  0  0  0  0
  190.9740  176.6770  147.6700 C   0  0  0  0  0  0  0  0  0  0  0  0
  190.1790  174.9200  146.1940 C   0  0  0  0  0  3  0  0  0  0  0  0
  192.5610  175.2770  146.4710 C   0  0  0  0  0  3  0  0  0  0  0  0
  191.5000  174.5750  145.8860 C   0  0  0  0  0  0  0  0  0  0  0  0
  189.9190  175.9690  147.0840 C   0  0  0  0  0  3  0  0  0  0  0  0
  191.5000  178.0360  149.6710 C   0  0  0  0  0  1  0  0  0  0  0  0
  190.6790  177.7220  148.5520 O   0  0  0  0  0  0  0  0  0  0  0  0
  187.9580  176.3260  141.4430 C   0  0  0  0  0  2  0  0  0  0  0  0
  186.7530  176.2960  142.3840 C   0  0  0  0  0  2  0  0  0  0  0  0
  185.6260  177.2660  142.0020 C   0  0  2  0  0  3  0  0  0  0  0  0
  185.7480  177.7930  140.6050 C   0  0  0  0  0  3  0  0  0  0  0  0
  184.8860  177.5520  139.7750 O   0  0  0  0  0  0  0  0  0  0  0  0
  185.4180  178.3570  143.0150 C   0  0  0  0  0  0  0  0  0  0  0  0
  186.0540  179.3950  142.9090 O   0  0  0  0  0  0  0  0  0  0  0  0
  184.4320  178.2060  144.1340 C   0  0  0  0  0  2  0  0  0  0  0  0
  185.1170  178.0860  145.4540 C   0  0  0  0  0  0  0  0  0  0  0  0
  186.2910  176.7340  147.0890 C   0  0  0  0  0  3  0  0  0  0  0  0
  185.8740  179.0790  147.5340 C   0  0  0  0  0  3  0  0  0  0  0  0
  186.4050  177.8480  147.9290 C   0  0  0  0  0  3  0  0  0  0  0  0
  185.2290  179.1990  146.2990 C   0  0  0  0  0  3  0  0  0  0  0  0
  185.6480  176.8540  145.8520 C   0  0  0  0  0  3  0  0  0  0  0  0
  1 19  1  0  0  0  0
  2  4  2  0  0  0  0
  3  8  2  0  0  0  0
  3 11  1  0  0  0  0
  4  1  1  0  0  0  0
  5 16  1  0  0  0  0
  6 13  2  0  0  0  0
  7 10  1  0  0  0  0
  7 18  1  0  0  0  0
  8 12  1  0  0  0  0
  9  3  1  0  0  0  0
 10 14  1  0  0  0  0
 11  7  2  0  0  0  0
 12 10  2  0  0  0  0
 13  1  1  0  0  0  0
 13 17  1  0  0  0  0
 14  6  1  0  0  0  0
 14  5  2  0  0  0  0
 15  5  1  0  0  0  0
 16 21  1  1  0  0  0
 17 16  1  0  0  0  0
 18 15  2  0  0  0  0
 19 20  3  0  0  0  0
 21 26  1  0  0  0  0
 22 23  1  0  0  0  0
 23 29  1  0  0  0  0
 24 27  1  0  0  0  0
 25 22  2  0  0  0  0
 26 24  2  0  0  0  0
 26 25  1  0  0  0  0
 27 23  2  0  0  0  0
 29 28  1  0  0  0  0
 30  4  1  0  0  0  0
 30 31  1  0  0  0  0
 32 33  1  6  0  0  0
 32 31  1  0  0  0  0
 32 35  1  0  0  0  0
 34 33  2  0  0  0  0
 35 37  1  0  0  0  0
 36 35  2  0  0  0  0
 37 38  1  0  0  0  0
 38 43  2  0  0  0  0
 38 42  1  0  0  0  0
 39 41  2  0  0  0  0
 40 41  1  0  0  0  0
 42 40  2  0  0  0  0
 43 39  1  0  0  0  0
M  END
>  <MODEL>
1

>  <REMARK>
 VINA RESULT:      -8.1      0.000      0.000
  Name = 
  11 active torsions:
  status: ('A' for Active; 'I' for Inactive)
    1  A    between atoms: C_1  and  C_34
    2  A    between atoms: C_1  and  C_35
    3  A    between atoms: N_2  and  C_12
    4  A    between atoms: C_4  and  C_7
    5  A    between atoms: C_4  and  C_15
    6  A    between atoms: C_6  and  C_7
    7  A    between atoms: C_10  and  C_15
    8  A    between atoms: C_11  and  C_14
    9  A    between atoms: C_14  and  C_22
   10  A    between atoms: C_15  and  C_22
   11  A    between atoms: C_19  and  O_37
                            x       y       z     vdW  Elec       q    Type
                         _______ _______ _______ _____ _____    ______ ____

>  <TORSDO>
F 11

$$$$
=
 OpenBabel11052421203D

 43 47  0  0  1  0  0  0  0  0999 V2000
  190.5440  172.9600  144.2320 N   0  0  0  0  0  0  0  0  0  0  0  0
  189.3490  171.3330  143.0450 O   0  0  0  0  0  0  0  0  0  0  0  0
  185.6320  177.8420  146.8570 C   0  0  0  0  0  0  0  0  0  0  0  0
  189.4470  172.5410  143.3940 C   0  0  0  0  0  0  0  0  0  0  0  0
  190.4470  176.3900  146.7520 C   0  0  0  0  0  0  0  0  0  0  0  0
  189.3870  174.7780  145.2460 N   0  0  0  0  0  0  0  0  0  0  0  0
  188.0150  177.6420  147.2370 C   0  0  0  0  0  0  0  0  0  0  0  0
  185.6750  176.7510  145.9840 C   0  0  0  0  0  3  0  0  0  0  0  0
  184.4570  178.4730  147.0910 F   0  0  0  0  0  0  0  0  0  0  0  0
  188.0630  176.5400  146.3530 C   0  0  0  0  0  0  0  0  0  0  0  0
  186.7990  178.2870  147.4810 C   0  0  0  0  0  3  0  0  0  0  0  0
  186.8860  176.1000  145.7320 C   0  0  0  0  0  3  0  0  0  0  0  0
  190.4960  174.1210  145.0820 C   0  0  0  0  0  0  0  0  0  0  0  0
  189.2950  175.9110  146.1170 C   0  0  0  0  0  0  0  0  0  0  0  0
  190.3500  177.4800  147.6220 C   0  0  0  0  0  3  0  0  0  0  0  0
  191.7820  175.7790  146.4440 C   0  0  1  0  0  3  0  0  0  0  0  0
  191.6490  174.5150  145.7820 O   0  0  0  0  0  0  0  0  0  0  0  0
  189.1490  178.0750  147.8460 N   0  0  0  0  0  0  0  0  0  0  0  0
  191.7110  172.1750  144.2460 C   0  0  0  0  0  0  0  0  0  0  0  0
  192.6710  171.5270  144.2600 N   0  0  0  0  0  0  0  0  0  0  0  0
  192.5920  176.7310  145.5740 C   0  0  0  0  0  2  0  0  0  0  0  0
  195.4320  175.5060  143.3760 C   0  0  0  0  0  3  0  0  0  0  0  0
  196.2760  174.9010  144.3230 C   0  0  0  0  0  0  0  0  0  0  0  0
  194.7030  175.4910  146.0770 C   0  0  0  0  0  3  0  0  0  0  0  0
  194.2310  176.1010  143.7780 C   0  0  0  0  0  3  0  0  0  0  0  0
  193.8670  176.0950  145.1310 C   0  0  0  0  0  0  0  0  0  0  0  0
  195.9040  174.8970  145.6730 C   0  0  0  0  0  3  0  0  0  0  0  0
  197.8460  172.9880  144.3660 C   0  0  0  0  0  1  0  0  0  0  0  0
  197.4840  174.3010  143.9530 O   0  0  0  0  0  0  0  0  0  0  0  0
  188.4160  173.5150  142.9070 C   0  0  0  0  0  2  0  0  0  0  0  0
  189.0240  174.5880  142.0020 C   0  0  0  0  0  2  0  0  0  0  0  0
  188.0230  175.6400  141.5050 C   0  0  2  0  0  3  0  0  0  0  0  0
  187.7680  175.5630  140.0310 C   0  0  0  0  0  3  0  0  0  0  0  0
  188.2230  174.6420  139.3710 O   0  0  0  0  0  0  0  0  0  0  0  0
  188.3540  177.0330  141.9620 C   0  0  0  0  0  0  0  0  0  0  0  0
  189.2540  177.1950  142.7710 O   0  0  0  0  0  0  0  0  0  0  0  0
  187.6190  178.2250  141.4260 C   0  0  0  0  0  2  0  0  0  0  0  0
  186.3890  178.5120  142.2200 C   0  0  0  0  0  0  0  0  0  0  0  0
  184.0310  178.1350  142.6380 C   0  0  0  0  0  3  0  0  0  0  0  0
  185.2730  179.6860  144.0260 C   0  0  0  0  0  3  0  0  0  0  0  0
  184.0740  179.0430  143.7040 C   0  0  0  0  0  3  0  0  0  0  0  0
  186.4300  179.4240  143.2850 C   0  0  0  0  0  3  0  0  0  0  0  0
  185.1880  177.8700  141.8980 C   0  0  0  0  0  3  0  0  0  0  0  0
  1 19  1  0  0  0  0
  1 13  1  0  0  0  0
  2  4  2  0  0  0  0
  3  9  1  0  0  0  0
  3 11  1  0  0  0  0
  4  1  1  0  0  0  0
  5 15  1  0  0  0  0
  6 14  1  0  0  0  0
  7 11  2  0  0  0  0
  7 18  1  0  0  0  0
  8  3  2  0  0  0  0
 10  7  1  0  0  0  0
 12  8  1  0  0  0  0
 12 10  2  0  0  0  0
 13  6  2  0  0  0  0
 13 17  1  0  0  0  0
 14 10  1  0  0  0  0
 14  5  2  0  0  0  0
 15 18  2  0  0  0  0
 16 21  1  6  0  0  0
 16  5  1  0  0  0  0
 17 16  1  0  0  0  0
 19 20  3  0  0  0  0
 22 25  2  0  0  0  0
 22 23  1  0  0  0  0
 23 27  2  0  0  0  0
 25 26  1  0  0  0  0
 26 21  1  0  0  0  0
 26 24  2  0  0  0  0
 27 24  1  0  0  0  0
 29 23  1  0  0  0  0
 29 28  1  0  0  0  0
 30  4  1  0  0  0  0
 31 30  1  0  0  0  0
 32 33  1  6  0  0  0
 32 35  1  0  0  0  0
 32 31  1  0  0  0  0
 34 33  2  0  0  0  0
 35 36  2  0  0  0  0
 37 35  1  0  0  0  0
 37 38  1  0  0  0  0
 38 42  1  0  0  0  0
 39 41  2  0  0  0  0
 41 40  1  0  0  0  0
 42 40  2  0  0  0  0
 43 38  2  0  0  0  0
 43 39  1  0  0  0  0
M  END
>  <MODEL>
2

>  <REMARK>
 VINA RESULT:      -8.0      3.301      6.357
  Name = 
  11 active torsions:
  status: ('A' for Active; 'I' for Inactive)
    1  A    between atoms: C_1  and  C_34
    2  A    between atoms: C_1  and  C_35
    3  A    between atoms: N_2  and  C_12
    4  A    between atoms: C_4  and  C_7
    5  A    between atoms: C_4  and  C_15
    6  A    between atoms: C_6  and  C_7
    7  A    between atoms: C_10  and  C_15
    8  A    between atoms: C_11  and  C_14
    9  A    between atoms: C_14  and  C_22
   10  A    between atoms: C_15  and  C_22
   11  A    between atoms: C_19  and  O_37
                            x       y       z     vdW  Elec       q    Type
                         _______ _______ _______ _____ _____    ______ ____

>  <TORSDO>
F 11

$$$$
=
 OpenBabel11052421203D

 43 47  0  0  1  0  0  0  0  0999 V2000
  190.4700  173.6810  141.2480 N   0  0  0  0  0  0  0  0  0  0  0  0
  188.2310  173.0050  141.1350 O   0  0  0  0  0  0  0  0  0  0  0  0
  191.5220  176.7610  147.9010 C   0  0  0  0  0  0  0  0  0  0  0  0
  189.0730  173.8390  141.5680 C   0  0  0  0  0  0  0  0  0  0  0  0
  193.6490  175.2690  143.5950 C   0  0  0  0  0  0  0  0  0  0  0  0
  191.2860  174.7640  143.2070 N   0  0  0  0  0  0  0  0  0  0  0  0
  193.0980  176.2350  146.1400 C   0  0  0  0  0  0  0  0  0  0  0  0
  190.4710  176.2930  147.1070 C   0  0  0  0  0  3  0  0  0  0  0  0
  191.2670  177.2500  149.1380 F   0  0  0  0  0  0  0  0  0  0  0  0
  192.0370  175.7630  145.3320 C   0  0  0  0  0  0  0  0  0  0  0  0
  192.8320  176.7330  147.4180 C   0  0  0  0  0  3  0  0  0  0  0  0
  190.7260  175.7940  145.8260 C   0  0  0  0  0  3  0  0  0  0  0  0
  191.5360  174.2200  142.0530 C   0  0  0  0  0  0  0  0  0  0  0  0
  192.3250  175.2720  144.0500 C   0  0  0  0  0  0  0  0  0  0  0  0
  194.6660  175.7410  144.4290 C   0  0  0  0  0  3  0  0  0  0  0  0
  193.9590  174.8250  142.1950 C   0  0  1  0  0  3  0  0  0  0  0  0
  192.8640  174.1110  141.6080 O   0  0  0  0  0  0  0  0  0  0  0  0
  194.3730  176.2070  145.6720 N   0  0  0  0  0  0  0  0  0  0  0  0
  190.8140  172.9300  140.1100 C   0  0  0  0  0  0  0  0  0  0  0  0
  191.0970  172.3140  139.1710 N   0  0  0  0  0  0  0  0  0  0  0  0
  194.3000  176.0360  141.3370 C   0  0  0  0  0  2  0  0  0  0  0  0
  197.5090  175.3310  139.4400 C   0  0  0  0  0  3  0  0  0  0  0  0
  197.0110  174.9580  138.1800 C   0  0  0  0  0  0  0  0  0  0  0  0
  194.7480  175.2990  138.9920 C   0  0  0  0  0  3  0  0  0  0  0  0
  196.6310  175.6850  140.4700 C   0  0  0  0  0  3  0  0  0  0  0  0
  195.2480  175.6670  140.2460 C   0  0  0  0  0  0  0  0  0  0  0  0
  195.6280  174.9450  137.9630 C   0  0  0  0  0  3  0  0  0  0  0  0
  197.9400  175.3330  135.9170 C   0  0  0  0  0  1  0  0  0  0  0  0
  197.8630  174.5960  137.1310 O   0  0  0  0  0  0  0  0  0  0  0  0
  188.5840  174.9890  142.3960 C   0  0  0  0  0  2  0  0  0  0  0  0
  187.8530  176.0340  141.5520 C   0  0  0  0  0  2  0  0  0  0  0  0
  187.9170  177.4610  142.1140 C   0  0  2  0  0  3  0  0  0  0  0  0
  189.1210  177.7040  142.9730 C   0  0  0  0  0  3  0  0  0  0  0  0
  190.2200  177.8620  142.4670 O   0  0  0  0  0  0  0  0  0  0  0  0
  186.6390  177.8920  142.7770 C   0  0  0  0  0  0  0  0  0  0  0  0
  186.2490  179.0390  142.6270 O   0  0  0  0  0  0  0  0  0  0  0  0
  185.8230  176.9360  143.5960 C   0  0  0  0  0  2  0  0  0  0  0  0
  185.8240  177.3150  145.0400 C   0  0  0  0  0  0  0  0  0  0  0  0
  184.6690  178.2250  146.9660 C   0  0  0  0  0  3  0  0  0  0  0  0
  186.9650  177.4780  147.1740 C   0  0  0  0  0  3  0  0  0  0  0  0
  185.8150  178.0290  147.7470 C   0  0  0  0  0  3  0  0  0  0  0  0
  186.9720  177.1230  145.8220 C   0  0  0  0  0  3  0  0  0  0  0  0
  184.6740  177.8680  145.6140 C   0  0  0  0  0  3  0  0  0  0  0  0
  1  4  1  0  0  0  0
  1 13  1  0  0  0  0
  2  4  2  0  0  0  0
  3  9  1  0  0  0  0
  4 30  1  0  0  0  0
  5 14  2  0  0  0  0
  5 15  1  0  0  0  0
  6 14  1  0  0  0  0
  7 11  2  0  0  0  0
  8  3  2  0  0  0  0
 10 12  2  0  0  0  0
 10  7  1  0  0  0  0
 11  3  1  0  0  0  0
 12  8  1  0  0  0  0
 13  6  2  0  0  0  0
 14 10  1  0  0  0  0
 15 18  2  0  0  0  0
 16 21  1  6  0  0  0
 16  5  1  0  0  0  0
 17 13  1  0  0  0  0
 17 16  1  0  0  0  0
 18  7  1  0  0  0  0
 19  1  1  0  0  0  0
 20 19  3  0  0  0  0
 22 25  1  0  0  0  0
 23 22  2  0  0  0  0
 24 26  1  0  0  0  0
 26 25  2  0  0  0  0
 26 21  1  0  0  0  0
 27 23  1  0  0  0  0
 27 24  2  0  0  0  0
 28 29  1  0  0  0  0
 29 23  1  0  0  0  0
 31 30  1  0  0  0  0
 32 31  1  1  0  0  0
 32 35  1  0  0  0  0
 32 33  1  0  0  0  0
 34 33  2  0  0  0  0
 35 37  1  0  0  0  0
 36 35  2  0  0  0  0
 37 38  1  0  0  0  0
 38 43  2  0  0  0  0
 38 42  1  0  0  0  0
 39 41  2  0  0  0  0
 40 41  1  0  0  0  0
 42 40  2  0  0  0  0
 43 39  1  0  0  0  0
M  END
>  <MODEL>
3

>  <REMARK>
 VINA RESULT:      -7.8      3.991      6.787
  Name = 
  11 active torsions:
  status: ('A' for Active; 'I' for Inactive)
    1  A    between atoms: C_1  and  C_34
    2  A    between atoms: C_1  and  C_35
    3  A    between atoms: N_2  and  C_12
    4  A    between atoms: C_4  and  C_7
    5  A    between atoms: C_4  and  C_15
    6  A    between atoms: C_6  and  C_7
    7  A    between atoms: C_10  and  C_15
    8  A    between atoms: C_11  and  C_14
    9  A    between atoms: C_14  and  C_22
   10  A    between atoms: C_15  and  C_22
   11  A    between atoms: C_19  and  O_37
                            x       y       z     vdW  Elec       q    Type
                         _______ _______ _______ _____ _____    ______ ____

>  <TORSDO>
F 11

$$$$
=
 OpenBabel11052421203D

 43 47  0  0  1  0  0  0  0  0999 V2000
  190.3310  175.1410  146.2650 N   0  0  0  0  0  0  0  0  0  0  0  0
  191.2970  175.8900  148.2620 O   0  0  0  0  0  0  0  0  0  0  0  0
  194.4280  169.4820  143.8060 C   0  0  0  0  0  0  0  0  0  0  0  0
  191.4690  175.3930  147.1150 C   0  0  0  0  0  0  0  0  0  0  0  0
  190.2840  172.2530  143.1370 C   0  0  0  0  0  0  0  0  0  0  0  0
  191.3230  173.3350  145.0700 N   0  0  0  0  0  0  0  0  0  0  0  0
  192.3310  170.3810  142.9940 C   0  0  0  0  0  0  0  0  0  0  0  0
  194.4710  170.4670  144.7970 C   0  0  0  0  0  3  0  0  0  0  0  0
  195.4260  168.5720  143.7130 F   0  0  0  0  0  0  0  0  0  0  0  0
  192.3730  171.3800  143.9940 C   0  0  0  0  0  0  0  0  0  0  0  0
  193.3600  169.4400  142.9060 C   0  0  0  0  0  3  0  0  0  0  0  0
  193.4470  171.4130  144.8930 C   0  0  0  0  0  3  0  0  0  0  0  0
  190.3280  174.1580  145.2130 C   0  0  0  0  0  0  0  0  0  0  0  0
  191.3330  172.3190  144.0610 C   0  0  0  0  0  0  0  0  0  0  0  0
  190.2810  171.2450  142.1690 C   0  0  0  0  0  3  0  0  0  0  0  0
  189.2090  173.3010  143.1460 C   0  0  1  0  0  3  0  0  0  0  0  0
  189.2130  174.0570  144.3630 O   0  0  0  0  0  0  0  0  0  0  0  0
  191.2930  170.3380  142.1200 N   0  0  0  0  0  0  0  0  0  0  0  0
  189.1500  175.8690  146.4970 C   0  0  0  0  0  0  0  0  0  0  0  0
  188.1780  176.4680  146.6860 N   0  0  0  0  0  0  0  0  0  0  0  0
  189.3970  174.2380  141.9600 C   0  0  0  0  0  2  0  0  0  0  0  0
  188.5490  177.8970  142.4930 C   0  0  0  0  0  3  0  0  0  0  0  0
  187.1430  177.8600  142.4900 C   0  0  0  0  0  0  0  0  0  0  0  0
  187.2240  175.4580  142.1470 C   0  0  0  0  0  3  0  0  0  0  0  0
  189.2860  176.7210  142.3240 C   0  0  0  0  0  3  0  0  0  0  0  0
  188.6230  175.4990  142.1490 C   0  0  0  0  0  0  0  0  0  0  0  0
  186.4880  176.6350  142.3170 C   0  0  0  0  0  3  0  0  0  0  0  0
  185.6530  179.2970  143.8460 C   0  0  0  0  0  1  0  0  0  0  0  0
  186.3780  179.0190  142.6540 O   0  0  0  0  0  0  0  0  0  0  0  0
  192.8660  175.0910  146.6640 C   0  0  0  0  0  2  0  0  0  0  0  0
  193.7390  176.3460  146.6250 C   0  0  0  0  0  2  0  0  0  0  0  0
  194.0790  176.8380  145.2110 C   0  0  2  0  0  3  0  0  0  0  0  0
  192.9280  176.7360  144.2570 C   0  0  0  0  0  3  0  0  0  0  0  0
  192.0230  177.5550  144.2890 O   0  0  0  0  0  0  0  0  0  0  0  0
  195.3390  176.2300  144.6620 C   0  0  0  0  0  0  0  0  0  0  0  0
  196.0380  176.8890  143.9080 O   0  0  0  0  0  0  0  0  0  0  0  0
  195.7650  174.8430  145.0390 C   0  0  0  0  0  2  0  0  0  0  0  0
  195.7970  173.9380  143.8530 C   0  0  0  0  0  0  0  0  0  0  0  0
  196.9000  172.1980  142.5750 C   0  0  0  0  0  3  0  0  0  0  0  0
  194.8000  173.1260  141.7960 C   0  0  0  0  0  3  0  0  0  0  0  0
  195.8660  172.2370  141.6300 C   0  0  0  0  0  3  0  0  0  0  0  0
  194.7650  173.9780  142.9040 C   0  0  0  0  0  3  0  0  0  0  0  0
  196.8640  173.0490  143.6850 C   0  0  0  0  0  3  0  0  0  0  0  0
  1 19  1  0  0  0  0
  1  4  1  0  0  0  0
  3  8  1  0  0  0  0
  4  2  2  0  0  0  0
  5 16  1  0  0  0  0
  5 14  1  0  0  0  0
  6 13  2  0  0  0  0
  7 10  1  0  0  0  0
  8 12  2  0  0  0  0
  9  3  1  0  0  0  0
 10 14  2  0  0  0  0
 10 12  1  0  0  0  0
 11  7  1  0  0  0  0
 11  3  2  0  0  0  0
 13  1  1  0  0  0  0
 14  6  1  0  0  0  0
 15  5  2  0  0  0  0
 16 21  1  6  0  0  0
 16 17  1  0  0  0  0
 17 13  1  0  0  0  0
 18 15  1  0  0  0  0
 18  7  2  0  0  0  0
 19 20  3  0  0  0  0
 21 26  1  0  0  0  0
 23 22  1  0  0  0  0
 23 29  1  0  0  0  0
 24 26  2  0  0  0  0
 24 27  1  0  0  0  0
 25 22  2  0  0  0  0
 26 25  1  0  0  0  0
 27 23  2  0  0  0  0
 29 28  1  0  0  0  0
 30  4  1  0  0  0  0
 31 30  1  0  0  0  0
 32 33  1  6  0  0  0
 32 31  1  0  0  0  0
 33 34  2  0  0  0  0
 35 37  1  0  0  0  0
 35 32  1  0  0  0  0
 36 35  2  0  0  0  0
 38 37  1  0  0  0  0
 39 43  2  0  0  0  0
 40 42  1  0  0  0  0
 41 40  2  0  0  0  0
 41 39  1  0  0  0  0
 42 38  2  0  0  0  0
 43 38  1  0  0  0  0
M  END
>  <MODEL>
4

>  <REMARK>
 VINA RESULT:      -7.7      2.897      7.464
  Name = 
  11 active torsions:
  status: ('A' for Active; 'I' for Inactive)
    1  A    between atoms: C_1  and  C_34
    2  A    between atoms: C_1  and  C_35
    3  A    between atoms: N_2  and  C_12
    4  A    between atoms: C_4  and  C_7
    5  A    between atoms: C_4  and  C_15
    6  A    between atoms: C_6  and  C_7
    7  A    between atoms: C_10  and  C_15
    8  A    between atoms: C_11  and  C_14
    9  A    between atoms: C_14  and  C_22
   10  A    between atoms: C_15  and  C_22
   11  A    between atoms: C_19  and  O_37
                            x       y       z     vdW  Elec       q    Type
                         _______ _______ _______ _____ _____    ______ ____

>  <TORSDO>
F 11

$$$$
=
 OpenBabel11052421203D

 43 47  0  0  1  0  0  0  0  0999 V2000
  190.7870  176.0650  146.4770 N   0  0  0  0  0  0  0  0  0  0  0  0
  191.9620  177.0600  148.2410 O   0  0  0  0  0  0  0  0  0  0  0  0
  194.6880  170.1710  144.2620 C   0  0  0  0  0  0  0  0  0  0  0  0
  192.0100  176.4260  147.1510 C   0  0  0  0  0  0  0  0  0  0  0  0
  190.4370  172.8120  143.7520 C   0  0  0  0  0  0  0  0  0  0  0  0
  191.6710  174.1310  145.4030 N   0  0  0  0  0  0  0  0  0  0  0  0
  192.4930  170.9500  143.5990 C   0  0  0  0  0  0  0  0  0  0  0  0
  194.8250  171.2710  145.1140 C   0  0  0  0  0  3  0  0  0  0  0  0
  195.6870  169.2630  144.1640 F   0  0  0  0  0  0  0  0  0  0  0  0
  192.6300  172.0650  144.4570 C   0  0  0  0  0  0  0  0  0  0  0  0
  193.5240  170.0120  143.5050 C   0  0  0  0  0  3  0  0  0  0  0  0
  193.8000  172.2160  145.2130 C   0  0  0  0  0  3  0  0  0  0  0  0
  190.6820  174.9590  145.5600 C   0  0  0  0  0  0  0  0  0  0  0  0
  191.5850  172.9990  144.5320 C   0  0  0  0  0  0  0  0  0  0  0  0
  190.3440  171.6920  142.9210 C   0  0  0  0  0  3  0  0  0  0  0  0
  189.3500  173.8460  143.7600 C   0  0  1  0  0  3  0  0  0  0  0  0
  189.4780  174.7460  144.8670 O   0  0  0  0  0  0  0  0  0  0  0  0
  191.3610  170.7930  142.8640 N   0  0  0  0  0  0  0  0  0  0  0  0
  189.6260  176.8080  146.7560 C   0  0  0  0  0  0  0  0  0  0  0  0
  188.6690  177.4190  146.9850 N   0  0  0  0  0  0  0  0  0  0  0  0
  189.3790  174.6310  142.4550 C   0  0  0  0  0  2  0  0  0  0  0  0
  188.1120  178.2060  142.5400 C   0  0  0  0  0  3  0  0  0  0  0  0
  186.7230  178.0070  142.6290 C   0  0  0  0  0  0  0  0  0  0  0  0
  187.0830  175.6050  142.6100 C   0  0  0  0  0  3  0  0  0  0  0  0
  188.9800  177.1100  142.4850 C   0  0  0  0  0  3  0  0  0  0  0  0
  188.4650  175.8080  142.5190 C   0  0  0  0  0  0  0  0  0  0  0  0
  186.2160  176.7020  142.6650 C   0  0  0  0  0  3  0  0  0  0  0  0
  185.5500  179.7870  143.8860 C   0  0  0  0  0  1  0  0  0  0  0  0
  185.8290  179.0810  142.6830 O   0  0  0  0  0  0  0  0  0  0  0  0
  193.3520  176.0800  146.5790 C   0  0  0  0  0  2  0  0  0  0  0  0
  193.6960  176.9430  145.3640 C   0  0  0  0  0  2  0  0  0  0  0  0
  194.2780  176.1620  144.1770 C   0  0  2  0  0  3  0  0  0  0  0  0
  195.7310  176.4400  143.9430 C   0  0  0  0  0  3  0  0  0  0  0  0
  196.5540  175.5420  144.0270 O   0  0  0  0  0  0  0  0  0  0  0  0
  193.4560  176.2930  142.9250 C   0  0  0  0  0  0  0  0  0  0  0  0
  192.2840  176.6210  143.0150 O   0  0  0  0  0  0  0  0  0  0  0  0
  194.0540  176.0530  141.5710 C   0  0  0  0  0  2  0  0  0  0  0  0
  193.9300  174.6220  141.1640 C   0  0  0  0  0  0  0  0  0  0  0  0
  192.6350  172.8360  140.1590 C   0  0  0  0  0  3  0  0  0  0  0  0
  194.8560  172.3850  141.0200 C   0  0  0  0  0  3  0  0  0  0  0  0
  193.6860  171.9400  140.3970 C   0  0  0  0  0  3  0  0  0  0  0  0
  194.9790  173.7230  141.4050 C   0  0  0  0  0  3  0  0  0  0  0  0
  192.7590  174.1750  140.5420 C   0  0  0  0  0  3  0  0  0  0  0  0
  1 19  1  0  0  0  0
  1  4  1  0  0  0  0
  3  8  1  0  0  0  0
  4  2  2  0  0  0  0
  5 16  1  0  0  0  0
  5 14  1  0  0  0  0
  6 13  2  0  0  0  0
  7 10  1  0  0  0  0
  8 12  2  0  0  0  0
  9  3  1  0  0  0  0
 10 14  2  0  0  0  0
 10 12  1  0  0  0  0
 11  7  1  0  0  0  0
 11  3  2  0  0  0  0
 13  1  1  0  0  0  0
 14  6  1  0  0  0  0
 15  5  2  0  0  0  0
 16 21  1  6  0  0  0
 16 17  1  0  0  0  0
 17 13  1  0  0  0  0
 18 15  1  0  0  0  0
 18  7  2  0  0  0  0
 19 20  3  0  0  0  0
 21 26  1  0  0  0  0
 22 23  1  0  0  0  0
 23 27  2  0  0  0  0
 23 29  1  0  0  0  0
 24 27  1  0  0  0  0
 25 26  1  0  0  0  0
 25 22  2  0  0  0  0
 26 24  2  0  0  0  0
 29 28  1  0  0  0  0
 30  4  1  0  0  0  0
 31 30  1  0  0  0  0
 32 33  1  6  0  0  0
 32 31  1  0  0  0  0
 33 34  2  0  0  0  0
 35 36  2  0  0  0  0
 35 32  1  0  0  0  0
 37 35  1  0  0  0  0
 38 42  1  0  0  0  0
 38 37  1  0  0  0  0
 39 41  2  0  0  0  0
 39 43  1  0  0  0  0
 40 42  2  0  0  0  0
 41 40  1  0  0  0  0
 43 38  2  0  0  0  0
M  END
>  <MODEL>
5

>  <REMARK>
 VINA RESULT:      -7.6      2.784      7.334
  Name = 
  11 active torsions:
  status: ('A' for Active; 'I' for Inactive)
    1  A    between atoms: C_1  and  C_34
    2  A    between atoms: C_1  and  C_35
    3  A    between atoms: N_2  and  C_12
    4  A    between atoms: C_4  and  C_7
    5  A    between atoms: C_4  and  C_15
    6  A    between atoms: C_6  and  C_7
    7  A    between atoms: C_10  and  C_15
    8  A    between atoms: C_11  and  C_14
    9  A    between atoms: C_14  and  C_22
   10  A    between atoms: C_15  and  C_22
   11  A    between atoms: C_19  and  O_37
                            x       y       z     vdW  Elec       q    Type
                         _______ _______ _______ _____ _____    ______ ____

>  <TORSDO>
F 11

$$$$
=
 OpenBabel11052421203D

 43 47  0  0  1  0  0  0  0  0999 V2000
  190.9370  176.5590  145.4530 N   0  0  0  0  0  0  0  0  0  0  0  0
  192.8060  176.5450  146.8630 O   0  0  0  0  0  0  0  0  0  0  0  0
  192.5480  172.3200  139.5970 C   0  0  0  0  0  0  0  0  0  0  0  0
  192.3600  176.5100  145.6840 C   0  0  0  0  0  0  0  0  0  0  0  0
  189.0330  175.0260  141.9670 C   0  0  0  0  0  0  0  0  0  0  0  0
  190.9880  175.3480  143.4020 N   0  0  0  0  0  0  0  0  0  0  0  0
  190.4780  173.3960  140.2430 C   0  0  0  0  0  0  0  0  0  0  0  0
  193.1880  172.8710  140.7120 C   0  0  0  0  0  3  0  0  0  0  0  0
  193.2430  171.5360  138.7390 F   0  0  0  0  0  0  0  0  0  0  0  0
  191.1220  173.9570  141.3700 C   0  0  0  0  0  0  0  0  0  0  0  0
  191.1960  172.5830  139.3630 C   0  0  0  0  0  3  0  0  0  0  0  0
  192.4780  173.6870  141.5970 C   0  0  0  0  0  3  0  0  0  0  0  0
  190.3060  176.0330  144.2700 C   0  0  0  0  0  0  0  0  0  0  0  0
  190.3830  174.7760  142.2380 C   0  0  0  0  0  0  0  0  0  0  0  0
  188.4370  174.4460  140.8440 C   0  0  0  0  0  3  0  0  0  0  0  0
  188.2550  175.9660  142.8400 C   0  0  1  0  0  3  0  0  0  0  0  0
  188.9260  176.2200  144.0800 O   0  0  0  0  0  0  0  0  0  0  0  0
  189.1630  173.6490  140.0160 N   0  0  0  0  0  0  0  0  0  0  0  0
  190.1170  177.1160  146.4500 C   0  0  0  0  0  0  0  0  0  0  0  0
  189.4410  177.5750  147.2710 N   0  0  0  0  0  0  0  0  0  0  0  0
  188.0260  177.2790  142.1030 C   0  0  0  0  0  2  0  0  0  0  0  0
  184.4630  177.9820  143.2030 C   0  0  0  0  0  3  0  0  0  0  0  0
  183.8490  178.2910  141.9770 C   0  0  0  0  0  0  0  0  0  0  0  0
  185.9660  177.9290  140.8450 C   0  0  0  0  0  3  0  0  0  0  0  0
  185.8210  177.6500  143.2490 C   0  0  0  0  0  3  0  0  0  0  0  0
  186.5750  177.6250  142.0680 C   0  0  0  0  0  0  0  0  0  0  0  0
  184.6080  178.2610  140.8010 C   0  0  0  0  0  3  0  0  0  0  0  0
  181.6830  178.2940  140.7800 C   0  0  0  0  0  1  0  0  0  0  0  0
  182.4940  178.6290  141.8990 O   0  0  0  0  0  0  0  0  0  0  0  0
  193.3360  176.4350  144.5480 C   0  0  0  0  0  2  0  0  0  0  0  0
  194.7690  176.7150  145.0040 C   0  0  0  0  0  2  0  0  0  0  0  0
  195.8510  176.2150  144.0370 C   0  0  2  0  0  3  0  0  0  0  0  0
  195.3890  176.1550  142.6130 C   0  0  0  0  0  3  0  0  0  0  0  0
  196.0780  176.6180  141.7190 O   0  0  0  0  0  0  0  0  0  0  0  0
  196.5010  174.9370  144.4880 C   0  0  0  0  0  0  0  0  0  0  0  0
  197.3850  174.4470  143.8040 O   0  0  0  0  0  0  0  0  0  0  0  0
  196.1020  174.2680  145.7690 C   0  0  0  0  0  2  0  0  0  0  0  0
  195.4440  172.9520  145.5170 C   0  0  0  0  0  0  0  0  0  0  0  0
  195.5350  170.5300  145.5210 C   0  0  0  0  0  3  0  0  0  0  0  0
  193.5150  171.6630  144.8070 C   0  0  0  0  0  3  0  0  0  0  0  0
  194.2180  170.4790  145.0470 C   0  0  0  0  0  3  0  0  0  0  0  0
  194.1260  172.8990  145.0390 C   0  0  0  0  0  3  0  0  0  0  0  0
  196.1460  171.7660  145.7560 C   0  0  0  0  0  3  0  0  0  0  0  0
  1  4  1  0  0  0  0
  1 19  1  0  0  0  0
  3  8  1  0  0  0  0
  4  2  2  0  0  0  0
  5 14  1  0  0  0  0
  5 16  1  0  0  0  0
  6 13  2  0  0  0  0
  7 10  1  0  0  0  0
  8 12  2  0  0  0  0
  9  3  1  0  0  0  0
 10 12  1  0  0  0  0
 10 14  2  0  0  0  0
 11  3  2  0  0  0  0
 11  7  1  0  0  0  0
 13  1  1  0  0  0  0
 14  6  1  0  0  0  0
 15  5  2  0  0  0  0
 16 21  1  6  0  0  0
 16 17  1  0  0  0  0
 17 13  1  0  0  0  0
 18  7  2  0  0  0  0
 18 15  1  0  0  0  0
 19 20  3  0  0  0  0
 22 25  1  0  0  0  0
 23 22  2  0  0  0  0
 24 26  1  0  0  0  0
 26 21  1  0  0  0  0
 26 25  2  0  0  0  0
 27 24  2  0  0  0  0
 27 23  1  0  0  0  0
 28 29  1  0  0  0  0
 29 23  1  0  0  0  0
 30 31  1  0  0  0  0
 30  4  1  0  0  0  0
 32 33  1  6  0  0  0
 32 35  1  0  0  0  0
 32 31  1  0  0  0  0
 34 33  2  0  0  0  0
 35 37  1  0  0  0  0
 36 35  2  0  0  0  0
 38 43  1  0  0  0  0
 38 37  1  0  0  0  0
 39 43  2  0  0  0  0
 40 42  1  0  0  0  0
 40 41  2  0  0  0  0
 41 39  1  0  0  0  0
 42 38  2  0  0  0  0
M  END
>  <MODEL>
6

>  <REMARK>
 VINA RESULT:      -7.6      2.875      7.879
  Name = 
  11 active torsions:
  status: ('A' for Active; 'I' for Inactive)
    1  A    between atoms: C_1  and  C_34
    2  A    between atoms: C_1  and  C_35
    3  A    between atoms: N_2  and  C_12
    4  A    between atoms: C_4  and  C_7
    5  A    between atoms: C_4  and  C_15
    6  A    between atoms: C_6  and  C_7
    7  A    between atoms: C_10  and  C_15
    8  A    between atoms: C_11  and  C_14
    9  A    between atoms: C_14  and  C_22
   10  A    between atoms: C_15  and  C_22
   11  A    between atoms: C_19  and  O_37
                            x       y       z     vdW  Elec       q    Type
                         _______ _______ _______ _____ _____    ______ ____

>  <TORSDO>
F 11

$$$$
=
 OpenBabel11052421203D

 43 47  0  0  1  0  0  0  0  0999 V2000
  189.9860  173.0390  141.3960 N   0  0  0  0  0  0  0  0  0  0  0  0
  187.9230  173.2380  140.3060 O   0  0  0  0  0  0  0  0  0  0  0  0
  189.8260  177.5400  147.2760 C   0  0  0  0  0  0  0  0  0  0  0  0
  188.8310  173.7970  140.9800 C   0  0  0  0  0  0  0  0  0  0  0  0
  192.4030  174.0290  144.7590 C   0  0  0  0  0  0  0  0  0  0  0  0
  190.4260  174.3310  143.3490 N   0  0  0  0  0  0  0  0  0  0  0  0
  191.4820  175.9180  146.5760 C   0  0  0  0  0  0  0  0  0  0  0  0
  189.0610  177.2560  146.1410 C   0  0  0  0  0  3  0  0  0  0  0  0
  189.3990  178.4700  148.1630 F   0  0  0  0  0  0  0  0  0  0  0  0
  190.7120  175.6290  145.4260 C   0  0  0  0  0  0  0  0  0  0  0  0
  191.0340  176.8730  147.4930 C   0  0  0  0  0  3  0  0  0  0  0  0
  189.5010  176.3030  145.2180 C   0  0  0  0  0  3  0  0  0  0  0  0
  190.7920  173.3840  142.5390 C   0  0  0  0  0  0  0  0  0  0  0  0
  191.1820  174.6710  144.5150 C   0  0  0  0  0  0  0  0  0  0  0  0
  193.1270  174.3430  145.9130 C   0  0  0  0  0  3  0  0  0  0  0  0
  192.9560  173.0640  143.7520 C   0  0  1  0  0  3  0  0  0  0  0  0
  191.9620  172.6520  142.8070 O   0  0  0  0  0  0  0  0  0  0  0  0
  192.6560  175.2690  146.7890 N   0  0  0  0  0  0  0  0  0  0  0  0
  190.3230  171.8820  140.6710 C   0  0  0  0  0  0  0  0  0  0  0  0
  190.6010  170.9310  140.0730 N   0  0  0  0  0  0  0  0  0  0  0  0
  194.1260  173.7060  143.0180 C   0  0  0  0  0  2  0  0  0  0  0  0
  194.2820  171.9320  139.6680 C   0  0  0  0  0  3  0  0  0  0  0  0
  193.8810  172.9560  138.7920 C   0  0  0  0  0  0  0  0  0  0  0  0
  193.6510  174.4620  140.6830 C   0  0  0  0  0  3  0  0  0  0  0  0
  194.3650  172.1720  141.0430 C   0  0  0  0  0  3  0  0  0  0  0  0
  194.0480  173.4390  141.5530 C   0  0  0  0  0  0  0  0  0  0  0  0
  193.5690  174.2200  139.3080 C   0  0  0  0  0  3  0  0  0  0  0  0
  192.5930  172.2870  136.7880 C   0  0  0  0  0  1  0  0  0  0  0  0
  193.7850  172.7470  137.4120 O   0  0  0  0  0  0  0  0  0  0  0  0
  188.6850  175.2510  141.3160 C   0  0  0  0  0  2  0  0  0  0  0  0
  187.4270  175.5250  142.1390 C   0  0  0  0  0  2  0  0  0  0  0  0
  186.6700  176.7990  141.7370 C   0  0  2  0  0  3  0  0  0  0  0  0
  186.8210  177.1420  140.2860 C   0  0  0  0  0  3  0  0  0  0  0  0
  186.0500  177.9220  139.7510 O   0  0  0  0  0  0  0  0  0  0  0  0
  186.9580  177.9670  142.6380 C   0  0  0  0  0  0  0  0  0  0  0  0
  188.1160  178.3140  142.8100 O   0  0  0  0  0  0  0  0  0  0  0  0
  185.8520  178.7250  143.3100 C   0  0  0  0  0  2  0  0  0  0  0  0
  185.7730  178.4040  144.7650 C   0  0  0  0  0  0  0  0  0  0  0  0
  185.4480  176.7810  146.5360 C   0  0  0  0  0  3  0  0  0  0  0  0
  185.8690  179.1040  147.0850 C   0  0  0  0  0  3  0  0  0  0  0  0
  185.6220  177.7890  147.4920 C   0  0  0  0  0  3  0  0  0  0  0  0
  185.9430  179.4130  145.7240 C   0  0  0  0  0  3  0  0  0  0  0  0
  185.5240  177.0890  145.1730 C   0  0  0  0  0  3  0  0  0  0  0  0
  1 13  1  0  0  0  0
  2  4  2  0  0  0  0
  3 11  1  0  0  0  0
  3  9  1  0  0  0  0
  4 30  1  0  0  0  0
  4  1  1  0  0  0  0
  5 15  1  0  0  0  0
  6 14  1  0  0  0  0
  7 18  1  0  0  0  0
  7 11  2  0  0  0  0
  8  3  2  0  0  0  0
 10  7  1  0  0  0  0
 12 10  2  0  0  0  0
 12  8  1  0  0  0  0
 13 17  1  0  0  0  0
 13  6  2  0  0  0  0
 14  5  2  0  0  0  0
 14 10  1  0  0  0  0
 15 18  2  0  0  0  0
 16 21  1  6  0  0  0
 16  5  1  0  0  0  0
 17 16  1  0  0  0  0
 19  1  1  0  0  0  0
 20 19  3  0  0  0  0
 22 25  1  0  0  0  0
 23 27  1  0  0  0  0
 23 22  2  0  0  0  0
 24 26  1  0  0  0  0
 25 26  2  0  0  0  0
 26 21  1  0  0  0  0
 27 24  2  0  0  0  0
 28 29  1  0  0  0  0
 29 23  1  0  0  0  0
 30 31  1  0  0  0  0
 32 33  1  6  0  0  0
 32 31  1  0  0  0  0
 32 35  1  0  0  0  0
 34 33  2  0  0  0  0
 35 36  2  0  0  0  0
 35 37  1  0  0  0  0
 37 38  1  0  0  0  0
 38 43  2  0  0  0  0
 38 42  1  0  0  0  0
 39 41  2  0  0  0  0
 40 41  1  0  0  0  0
 42 40  2  0  0  0  0
 43 39  1  0  0  0  0
M  END
>  <MODEL>
7

>  <REMARK>
 VINA RESULT:      -7.6      3.086      6.234
  Name = 
  11 active torsions:
  status: ('A' for Active; 'I' for Inactive)
    1  A    between atoms: C_1  and  C_34
    2  A    between atoms: C_1  and  C_35
    3  A    between atoms: N_2  and  C_12
    4  A    between atoms: C_4  and  C_7
    5  A    between atoms: C_4  and  C_15
    6  A    between atoms: C_6  and  C_7
    7  A    between atoms: C_10  and  C_15
    8  A    between atoms: C_11  and  C_14
    9  A    between atoms: C_14  and  C_22
   10  A    between atoms: C_15  and  C_22
   11  A    between atoms: C_19  and  O_37
                            x       y       z     vdW  Elec       q    Type
                         _______ _______ _______ _____ _____    ______ ____

>  <TORSDO>
F 11

$$$$
=
 OpenBabel11052421203D

 43 47  0  0  1  0  0  0  0  0999 V2000
  190.7160  173.4780  143.8780 N   0  0  0  0  0  0  0  0  0  0  0  0
  192.4780  172.2650  144.8300 O   0  0  0  0  0  0  0  0  0  0  0  0
  191.1900  172.6760  136.5300 C   0  0  0  0  0  0  0  0  0  0  0  0
  192.0630  172.9640  143.8650 C   0  0  0  0  0  0  0  0  0  0  0  0
  188.5290  174.5240  140.3770 C   0  0  0  0  0  0  0  0  0  0  0  0
  190.4670  173.5490  141.5100 N   0  0  0  0  0  0  0  0  0  0  0  0
  189.4930  173.7340  137.8950 C   0  0  0  0  0  0  0  0  0  0  0  0
  191.9360  172.3840  137.6760 C   0  0  0  0  0  3  0  0  0  0  0  0
  191.6540  172.3120  135.3110 F   0  0  0  0  0  0  0  0  0  0  0  0
  190.2450  173.4430  139.0560 C   0  0  0  0  0  0  0  0  0  0  0  0
  189.9720  173.3500  136.6390 C   0  0  0  0  0  3  0  0  0  0  0  0
  191.4660  172.7650  138.9360 C   0  0  0  0  0  3  0  0  0  0  0  0
  189.9870  173.8250  142.6850 C   0  0  0  0  0  0  0  0  0  0  0  0
  189.7490  173.8420  140.3060 C   0  0  0  0  0  0  0  0  0  0  0  0
  187.8170  174.7860  139.2030 C   0  0  0  0  0  3  0  0  0  0  0  0
  188.0290  175.0290  141.6990 C   0  0  1  0  0  3  0  0  0  0  0  0
  188.7190  174.4210  142.7970 O   0  0  0  0  0  0  0  0  0  0  0  0
  188.3070  174.3870  138.0000 N   0  0  0  0  0  0  0  0  0  0  0  0
  190.0660  173.6170  145.1170 C   0  0  0  0  0  0  0  0  0  0  0  0
  189.5300  173.7310  146.1370 N   0  0  0  0  0  0  0  0  0  0  0  0
  188.1930  176.5420  141.7640 C   0  0  0  0  0  2  0  0  0  0  0  0
  185.7680  178.9830  143.3630 C   0  0  0  0  0  3  0  0  0  0  0  0
  185.3390  178.2540  144.4860 C   0  0  0  0  0  0  0  0  0  0  0  0
  186.7830  176.4170  143.8240 C   0  0  0  0  0  3  0  0  0  0  0  0
  186.6980  178.4310  142.4760 C   0  0  0  0  0  3  0  0  0  0  0  0
  187.2050  177.1450  142.7060 C   0  0  0  0  0  0  0  0  0  0  0  0
  185.8530  176.9710  144.7100 C   0  0  0  0  0  3  0  0  0  0  0  0
  184.4400  178.4810  146.7810 C   0  0  0  0  0  1  0  0  0  0  0  0
  184.4090  178.7770  145.3900 O   0  0  0  0  0  0  0  0  0  0  0  0
  193.0020  173.2520  142.7310 C   0  0  0  0  0  2  0  0  0  0  0  0
  194.2940  173.9140  143.2120 C   0  0  0  0  0  2  0  0  0  0  0  0
  194.2770  175.4480  143.1610 C   0  0  2  0  0  3  0  0  0  0  0  0
  195.2100  176.0150  142.1350 C   0  0  0  0  0  3  0  0  0  0  0  0
  194.7920  176.7590  141.2620 O   0  0  0  0  0  0  0  0  0  0  0  0
  194.4480  176.0850  144.5110 C   0  0  0  0  0  0  0  0  0  0  0  0
  195.2380  177.0070  144.6380 O   0  0  0  0  0  0  0  0  0  0  0  0
  193.6520  175.6270  145.6970 C   0  0  0  0  0  2  0  0  0  0  0  0
  192.3180  176.2930  145.7500 C   0  0  0  0  0  0  0  0  0  0  0  0
  190.3990  177.0390  147.0300 C   0  0  0  0  0  3  0  0  0  0  0  0
  190.4780  177.4170  144.6370 C   0  0  0  0  0  3  0  0  0  0  0  0
  189.8130  177.5400  145.8610 C   0  0  0  0  0  3  0  0  0  0  0  0
  191.7280  176.7930  144.5800 C   0  0  0  0  0  3  0  0  0  0  0  0
  191.6500  176.4160  146.9730 C   0  0  0  0  0  3  0  0  0  0  0  0
  1 19  1  0  0  0  0
  3 11  2  0  0  0  0
  3  8  1  0  0  0  0
  4  1  1  0  0  0  0
  4  2  2  0  0  0  0
  5 16  1  0  0  0  0
  6 13  2  0  0  0  0
  7 18  2  0  0  0  0
  7 10  1  0  0  0  0
  8 12  2  0  0  0  0
  9  3  1  0  0  0  0
 10 14  2  0  0  0  0
 11  7  1  0  0  0  0
 12 10  1  0  0  0  0
 13 17  1  0  0  0  0
 13  1  1  0  0  0  0
 14  5  1  0  0  0  0
 14  6  1  0  0  0  0
 15  5  2  0  0  0  0
 16 21  1  6  0  0  0
 16 17  1  0  0  0  0
 18 15  1  0  0  0  0
 19 20  3  0  0  0  0
 21 26  1  0  0  0  0
 22 23  1  0  0  0  0
 23 27  2  0  0  0  0
 23 29  1  0  0  0  0
 24 27  1  0  0  0  0
 25 26  1  0  0  0  0
 25 22  2  0  0  0  0
 26 24  2  0  0  0  0
 29 28  1  0  0  0  0
 30 31  1  0  0  0  0
 30  4  1  0  0  0  0
 32 33  1  6  0  0  0
 32 31  1  0  0  0  0
 32 35  1  0  0  0  0
 34 33  2  0  0  0  0
 35 36  2  0  0  0  0
 35 37  1  0  0  0  0
 37 38  1  0  0  0  0
 38 43  1  0  0  0  0
 40 41  2  0  0  0  0
 41 39  1  0  0  0  0
 42 40  1  0  0  0  0
 42 38  2  0  0  0  0
 43 39  2  0  0  0  0
M  END
>  <MODEL>
8

>  <REMARK>
 VINA RESULT:      -7.6      2.502      6.163
  Name = 
  11 active torsions:
  status: ('A' for Active; 'I' for Inactive)
    1  A    between atoms: C_1  and  C_34
    2  A    between atoms: C_1  and  C_35
    3  A    between atoms: N_2  and  C_12
    4  A    between atoms: C_4  and  C_7
    5  A    between atoms: C_4  and  C_15
    6  A    between atoms: C_6  and  C_7
    7  A    between atoms: C_10  and  C_15
    8  A    between atoms: C_11  and  C_14
    9  A    between atoms: C_14  and  C_22
   10  A    between atoms: C_15  and  C_22
   11  A    between atoms: C_19  and  O_37
                            x       y       z     vdW  Elec       q    Type
                         _______ _______ _______ _____ _____    ______ ____

>  <TORSDO>
F 11

$$$$
=
 OpenBabel11052421203D

 43 47  0  0  1  0  0  0  0  0999 V2000
  188.2130  175.7880  141.1080 N   0  0  0  0  0  0  0  0  0  0  0  0
  188.1920  174.4520  139.1850 O   0  0  0  0  0  0  0  0  0  0  0  0
  193.6830  173.3290  145.4550 C   0  0  0  0  0  0  0  0  0  0  0  0
  188.3980  174.5300  140.4270 C   0  0  0  0  0  0  0  0  0  0  0  0
  190.1380  176.8290  144.7610 C   0  0  0  0  0  0  0  0  0  0  0  0
  189.7970  175.3580  142.8350 N   0  0  0  0  0  0  0  0  0  0  0  0
  192.2440  175.2640  145.6720 C   0  0  0  0  0  0  0  0  0  0  0  0
  193.0120  172.9560  144.2860 C   0  0  0  0  0  3  0  0  0  0  0  0
  194.7020  172.5680  145.9210 F   0  0  0  0  0  0  0  0  0  0  0  0
  191.5620  174.8890  144.4920 C   0  0  0  0  0  0  0  0  0  0  0  0
  193.2990  174.4800  146.1470 C   0  0  0  0  0  3  0  0  0  0  0  0
  191.9550  173.7330  143.8040 C   0  0  0  0  0  3  0  0  0  0  0  0
  188.8740  176.1280  142.3410 C   0  0  0  0  0  0  0  0  0  0  0  0
  190.5020  175.6880  144.0360 C   0  0  0  0  0  0  0  0  0  0  0  0
  190.8440  177.1640  145.9190 C   0  0  0  0  0  3  0  0  0  0  0  0
  188.9540  177.6440  144.3300 C   0  0  1  0  0  3  0  0  0  0  0  0
  188.5510  177.3320  142.9900 O   0  0  0  0  0  0  0  0  0  0  0  0
  191.8740  176.3850  146.3450 N   0  0  0  0  0  0  0  0  0  0  0  0
  187.3710  176.7480  140.5190 C   0  0  0  0  0  0  0  0  0  0  0  0
  186.6790  177.5400  140.0340 N   0  0  0  0  0  0  0  0  0  0  0  0
  187.7910  177.4010  145.2840 C   0  0  0  0  0  2  0  0  0  0  0  0
  184.7370  179.4890  144.4400 C   0  0  0  0  0  3  0  0  0  0  0  0
  184.0810  178.6610  143.5130 C   0  0  0  0  0  0  0  0  0  0  0  0
  185.8510  177.0160  143.7560 C   0  0  0  0  0  3  0  0  0  0  0  0
  185.9440  179.0820  145.0200 C   0  0  0  0  0  3  0  0  0  0  0  0
  186.5020  177.8440  144.6770 C   0  0  0  0  0  0  0  0  0  0  0  0
  184.6450  177.4240  143.1770 C   0  0  0  0  0  3  0  0  0  0  0  0
  182.3370  178.3660  141.7830 C   0  0  0  0  0  1  0  0  0  0  0  0
  182.8760  179.0400  142.9140 O   0  0  0  0  0  0  0  0  0  0  0  0
  188.8180  173.2940  141.1650 C   0  0  0  0  0  2  0  0  0  0  0  0
  189.6260  172.3440  140.2790 C   0  0  0  0  0  2  0  0  0  0  0  0
  190.9550  172.9230  139.7770 C   0  0  2  0  0  3  0  0  0  0  0  0
  191.0380  173.0030  138.2830 C   0  0  0  0  0  3  0  0  0  0  0  0
  191.0870  174.0860  137.7220 O   0  0  0  0  0  0  0  0  0  0  0  0
  192.1570  172.2570  140.3860 C   0  0  0  0  0  0  0  0  0  0  0  0
  191.9930  171.3980  141.2380 O   0  0  0  0  0  0  0  0  0  0  0  0
  193.5490  172.6100  139.9530 C   0  0  0  0  0  2  0  0  0  0  0  0
  194.1580  173.6340  140.8500 C   0  0  0  0  0  0  0  0  0  0  0  0
  194.1760  175.8850  141.7510 C   0  0  0  0  0  3  0  0  0  0  0  0
  195.8450  174.2810  142.4690 C   0  0  0  0  0  3  0  0  0  0  0  0
  195.2950  175.5640  142.5310 C   0  0  0  0  0  3  0  0  0  0  0  0
  195.2800  173.3160  141.6290 C   0  0  0  0  0  3  0  0  0  0  0  0
  193.6100  174.9200  140.9120 C   0  0  0  0  0  3  0  0  0  0  0  0
  1 13  1  0  0  0  0
  2  4  2  0  0  0  0
  3  9  1  0  0  0  0
  3 11  1  0  0  0  0
  4  1  1  0  0  0  0
  4 30  1  0  0  0  0
  5 15  1  0  0  0  0
  6 14  1  0  0  0  0
  7 11  2  0  0  0  0
  7 18  1  0  0  0  0
  8  3  2  0  0  0  0
 10  7  1  0  0  0  0
 12  8  1  0  0  0  0
 12 10  2  0  0  0  0
 13  6  2  0  0  0  0
 13 17  1  0  0  0  0
 14 10  1  0  0  0  0
 14  5  2  0  0  0  0
 15 18  2  0  0  0  0
 16  5  1  0  0  0  0
 16 21  1  1  0  0  0
 17 16  1  0  0  0  0
 19  1  1  0  0  0  0
 20 19  3  0  0  0  0
 22 25  1  0  0  0  0
 23 22  2  0  0  0  0
 24 26  1  0  0  0  0
 26 25  2  0  0  0  0
 26 21  1  0  0  0  0
 27 23  1  0  0  0  0
 27 24  2  0  0  0  0
 28 29  1  0  0  0  0
 29 23  1  0  0  0  0
 31 30  1  0  0  0  0
 32 33  1  6  0  0  0
 32 31  1  0  0  0  0
 32 35  1  0  0  0  0
 34 33  2  0  0  0  0
 35 36  2  0  0  0  0
 37 35  1  0  0  0  0
 37 38  1  0  0  0  0
 38 43  2  0  0  0  0
 38 42  1  0  0  0  0
 39 41  2  0  0  0  0
 40 41  1  0  0  0  0
 42 40  2  0  0  0  0
 43 39  1  0  0  0  0
M  END
>  <MODEL>
9

>  <REMARK>
 VINA RESULT:      -7.3      2.943      7.615
  Name = 
  11 active torsions:
  status: ('A' for Active; 'I' for Inactive)
    1  A    between atoms: C_1  and  C_34
    2  A    between atoms: C_1  and  C_35
    3  A    between atoms: N_2  and  C_12
    4  A    between atoms: C_4  and  C_7
    5  A    between atoms: C_4  and  C_15
    6  A    between atoms: C_6  and  C_7
    7  A    between atoms: C_10  and  C_15
    8  A    between atoms: C_11  and  C_14
    9  A    between atoms: C_14  and  C_22
   10  A    between atoms: C_15  and  C_22
   11  A    between atoms: C_19  and  O_37
                            x       y       z     vdW  Elec       q    Type
                         _______ _______ _______ _____ _____    ______ ____

>  <TORSDO>
F 11

$$$$
