=
 OpenBabel11052417573D

 31 35  0  0  1  0  0  0  0  0999 V2000
  194.7470  175.7830  146.2150 C   0  0  0  0  0  2  0  0  0  0  0  0
  191.0860  175.3110  146.2380 O   0  0  0  0  0  0  0  0  0  0  0  0
  192.3150  175.5040  145.5810 C   0  0  1  0  0  3  0  0  0  0  0  0
  194.5450  176.0170  143.7520 C   0  0  0  0  0  2  0  0  0  0  0  0
  189.9750  175.4750  143.9790 C   0  0  1  0  0  3  0  0  0  0  0  0
  195.3110  175.3390  144.8750 C   0  0  0  0  0  2  0  0  0  0  0  0
  188.8020  176.1460  146.2360 C   0  0  1  0  0  3  0  0  0  0  0  0
  191.0310  174.4180  143.6250 C   0  0  0  0  0  2  0  0  0  0  0  0
  190.0940  175.9180  145.4520 C   0  0  1  0  0  0  0  0  0  0  0  0
  193.4290  175.0890  146.5330 C   0  0  0  0  0  2  0  0  0  0  0  0
  192.3970  174.6520  144.2920 C   0  0  1  0  0  3  0  0  0  0  0  0
  193.3940  175.1540  143.2380 C   0  0  0  0  0  2  0  0  0  0  0  0
  189.7000  177.3230  145.8690 C   0  0  0  0  0  2  0  0  0  0  0  0
  189.9690  176.6030  143.0410 N   0  0  0  0  0  0  0  0  0  0  0  0
  186.3050  177.7990  141.2550 C   0  0  0  0  0  0  0  0  0  0  0  0
  188.1230  178.1910  142.7980 C   0  0  0  0  0  3  0  0  0  0  0  0
  188.8140  174.6920  140.8360 Cl  0  0  0  0  0  0  0  0  0  0  0  0
  184.8010  178.3130  140.5220 Cl  0  0  0  0  0  0  0  0  0  0  0  0
  186.9210  178.6000  142.2170 C   0  0  0  0  0  3  0  0  0  0  0  0
  188.0980  176.1770  141.4430 C   0  0  0  0  0  0  0  0  0  0  0  0
  188.7220  176.9770  142.4290 C   0  0  0  0  0  0  0  0  0  0  0  0
  186.8960  176.5970  140.8650 C   0  0  0  0  0  3  0  0  0  0  0  0
  191.1900  177.3690  142.7930 C   0  0  0  0  0  2  0  0  0  0  0  0
  191.2060  178.6250  143.6440 C   0  0  0  0  0  1  0  0  0  0  0  0
  187.5520  176.1520  145.3590 C   0  0  0  0  0  2  0  0  0  0  0  0
  186.4820  176.9950  145.9630 C   0  0  0  0  0  0  0  0  0  0  0  0
  184.3930  178.2020  145.7420 C   0  0  0  0  0  3  0  0  0  0  0  0
  185.3950  177.4030  145.1830 C   0  0  0  0  0  3  0  0  0  0  0  0
  184.4770  178.5940  147.0810 C   0  0  0  0  0  3  0  0  0  0  0  0
  185.5650  178.1890  147.8620 C   0  0  0  0  0  3  0  0  0  0  0  0
  186.5670  177.3910  147.3020 C   0  0  0  0  0  3  0  0  0  0  0  0
  1 10  1  0  0  0  0
  3  2  1  0  0  0  0
  3 10  1  1  0  0  0
  4  6  1  0  0  0  0
  5 14  1  6  0  0  0
  5  9  1  0  0  0  0
  6  1  1  0  0  0  0
  7 25  1  6  0  0  0
  8  5  1  0  0  0  0
  8 11  1  0  0  0  0
  9 13  1  6  0  0  0
  9  7  1  0  0  0  0
  9  2  1  0  0  0  0
 11 12  1  6  0  0  0
 11  3  1  0  0  0  0
 12  4  1  0  0  0  0
 13  7  1  0  0  0  0
 15 19  1  0  0  0  0
 17 20  1  0  0  0  0
 18 15  1  0  0  0  0
 19 16  2  0  0  0  0
 20 21  2  0  0  0  0
 21 16  1  0  0  0  0
 21 14  1  0  0  0  0
 22 15  2  0  0  0  0
 22 20  1  0  0  0  0
 23 14  1  0  0  0  0
 23 24  1  0  0  0  0
 25 26  1  0  0  0  0
 26 31  1  0  0  0  0
 27 29  2  0  0  0  0
 28 27  1  0  0  0  0
 28 26  2  0  0  0  0
 29 30  1  0  0  0  0
 31 30  2  0  0  0  0
M  END
>  <MODEL>
1

>  <REMARK>
 VINA RESULT:      -8.3      0.000      0.000
  Name = 
  5 active torsions:
  status: ('A' for Active; 'I' for Inactive)
    1  A    between atoms: C_5  and  C_30
    2  A    between atoms: C_7  and  N_9
    3  A    between atoms: N_9  and  C_15
    4  A    between atoms: N_9  and  C_22
    5  A    between atoms: C_17  and  C_30
                            x       y       z     vdW  Elec       q    Type
                         _______ _______ _______ _____ _____    ______ ____

>  <TORSDO>
F 5

$$$$
=
 OpenBabel11052417573D

 31 35  0  0  1  0  0  0  0  0999 V2000
  194.1200  173.6380  143.3960 C   0  0  0  0  0  2  0  0  0  0  0  0
  191.6540  176.2980  142.7130 O   0  0  0  0  0  0  0  0  0  0  0  0
  192.3320  175.4170  143.5750 C   0  0  1  0  0  3  0  0  0  0  0  0
  193.3380  173.7310  145.7490 C   0  0  0  0  0  2  0  0  0  0  0  0
  190.2680  177.0030  144.7000 C   0  0  1  0  0  3  0  0  0  0  0  0
  194.5610  173.7100  144.8490 C   0  0  0  0  0  2  0  0  0  0  0  0
  189.4060  177.0810  142.2150 C   0  0  1  0  0  3  0  0  0  0  0  0
  191.6560  177.1830  145.3290 C   0  0  0  0  0  2  0  0  0  0  0  0
  190.3700  176.4950  143.2460 C   0  0  1  0  0  0  0  0  0  0  0  0
  193.6210  174.9840  142.8880 C   0  0  0  0  0  2  0  0  0  0  0  0
  192.6730  176.1050  144.9180 C   0  0  1  0  0  3  0  0  0  0  0  0
  192.9070  175.1540  146.1000 C   0  0  0  0  0  2  0  0  0  0  0  0
  189.2760  175.6250  142.6540 C   0  0  0  0  0  2  0  0  0  0  0  0
  189.3740  176.1870  145.5290 N   0  0  0  0  0  0  0  0  0  0  0  0
  185.6910  177.8390  146.8520 C   0  0  0  0  0  0  0  0  0  0  0  0
  186.9360  176.3650  145.3980 C   0  0  0  0  0  3  0  0  0  0  0  0
  189.5450  178.2180  147.9150 Cl  0  0  0  0  0  0  0  0  0  0  0  0
  184.1640  178.5010  147.3920 Cl  0  0  0  0  0  0  0  0  0  0  0  0
  185.7180  176.8970  145.8240 C   0  0  0  0  0  3  0  0  0  0  0  0
  188.1060  177.7180  147.0390 C   0  0  0  0  0  0  0  0  0  0  0  0
  188.1430  176.7730  145.9880 C   0  0  0  0  0  0  0  0  0  0  0  0
  186.8800  178.2420  147.4620 C   0  0  0  0  0  3  0  0  0  0  0  0
  189.6990  174.7910  145.8180 C   0  0  0  0  0  2  0  0  0  0  0  0
  189.3400  174.4510  147.2530 C   0  0  0  0  0  1  0  0  0  0  0  0
  188.2850  177.9120  142.8350 C   0  0  0  0  0  2  0  0  0  0  0  0
  187.0860  177.9340  141.9500 C   0  0  0  0  0  0  0  0  0  0  0  0
  186.0850  177.5880  139.7710 C   0  0  0  0  0  3  0  0  0  0  0  0
  187.2050  177.5600  140.6070 C   0  0  0  0  0  3  0  0  0  0  0  0
  184.8460  177.9900  140.2760 C   0  0  0  0  0  3  0  0  0  0  0  0
  184.7250  178.3670  141.6170 C   0  0  0  0  0  3  0  0  0  0  0  0
  185.8460  178.3400  142.4540 C   0  0  0  0  0  3  0  0  0  0  0  0
  1  6  1  0  0  0  0
  2  9  1  0  0  0  0
  2  3  1  0  0  0  0
  3 10  1  6  0  0  0
  3 11  1  0  0  0  0
  4 12  1  0  0  0  0
  5  8  1  0  0  0  0
  5 14  1  1  0  0  0
  6  4  1  0  0  0  0
  7 13  1  0  0  0  0
  7 25  1  1  0  0  0
  7  9  1  0  0  0  0
  9 13  1  1  0  0  0
  9  5  1  0  0  0  0
 10  1  1  0  0  0  0
 11  8  1  1  0  0  0
 11 12  1  0  0  0  0
 14 23  1  0  0  0  0
 14 21  1  0  0  0  0
 15 18  1  0  0  0  0
 15 22  1  0  0  0  0
 16 19  1  0  0  0  0
 16 21  2  0  0  0  0
 19 15  2  0  0  0  0
 20 22  2  0  0  0  0
 20 17  1  0  0  0  0
 21 20  1  0  0  0  0
 23 24  1  0  0  0  0
 26 31  1  0  0  0  0
 26 25  1  0  0  0  0
 27 29  2  0  0  0  0
 27 28  1  0  0  0  0
 28 26  2  0  0  0  0
 29 30  1  0  0  0  0
 30 31  2  0  0  0  0
M  END
>  <MODEL>
2

>  <REMARK>
 VINA RESULT:      -8.3      2.379      4.557
  Name = 
  5 active torsions:
  status: ('A' for Active; 'I' for Inactive)
    1  A    between atoms: C_5  and  C_30
    2  A    between atoms: C_7  and  N_9
    3  A    between atoms: N_9  and  C_15
    4  A    between atoms: N_9  and  C_22
    5  A    between atoms: C_17  and  C_30
                            x       y       z     vdW  Elec       q    Type
                         _______ _______ _______ _____ _____    ______ ____

>  <TORSDO>
F 5

$$$$
=
 OpenBabel11052417573D

 31 35  0  0  1  0  0  0  0  0999 V2000
  189.0510  171.9120  139.1040 C   0  0  0  0  0  2  0  0  0  0  0  0
  188.5490  175.2180  140.6670 O   0  0  0  0  0  0  0  0  0  0  0  0
  189.1750  173.9620  140.5800 C   0  0  1  0  0  3  0  0  0  0  0  0
  190.6800  171.4720  140.9240 C   0  0  0  0  0  2  0  0  0  0  0  0
  189.8770  175.6150  142.7750 C   0  0  1  0  0  3  0  0  0  0  0  0
  190.4460  171.4020  139.4240 C   0  0  0  0  0  2  0  0  0  0  0  0
  187.5280  176.7000  142.3030 C   0  0  1  0  0  3  0  0  0  0  0  0
  191.0390  175.2020  141.8610 C   0  0  0  0  0  2  0  0  0  0  0  0
  188.5300  175.5810  142.0230 C   0  0  1  0  0  0  0  0  0  0  0  0
  188.9750  173.4320  139.1660 C   0  0  0  0  0  2  0  0  0  0  0  0
  190.6900  174.0740  140.8770 C   0  0  1  0  0  3  0  0  0  0  0  0
  191.3640  172.7740  141.3390 C   0  0  0  0  0  2  0  0  0  0  0  0
  187.2410  175.2740  142.7630 C   0  0  0  0  0  2  0  0  0  0  0  0
  189.8500  174.8560  144.0300 N   0  0  0  0  0  0  0  0  0  0  0  0
  191.0790  176.7620  147.6230 C   0  0  0  0  0  0  0  0  0  0  0  0
  189.3360  176.0030  146.1310 C   0  0  0  0  0  3  0  0  0  0  0  0
  192.9430  174.9620  144.5550 Cl  0  0  0  0  0  0  0  0  0  0  0  0
  191.5660  177.5410  149.1120 Cl  0  0  0  0  0  0  0  0  0  0  0  0
  189.7240  176.6280  147.3170 C   0  0  0  0  0  3  0  0  0  0  0  0
  191.6660  175.6370  145.5560 C   0  0  0  0  0  0  0  0  0  0  0  0
  190.2950  175.5090  145.2330 C   0  0  0  0  0  0  0  0  0  0  0  0
  192.0440  176.2610  146.7490 C   0  0  0  0  0  3  0  0  0  0  0  0
  189.3160  173.4950  144.0640 C   0  0  0  0  0  2  0  0  0  0  0  0
  190.2650  172.5740  144.8090 C   0  0  0  0  0  1  0  0  0  0  0  0
  187.9040  177.5670  143.5010 C   0  0  0  0  0  2  0  0  0  0  0  0
  186.6870  178.0720  144.1970 C   0  0  0  0  0  0  0  0  0  0  0  0
  184.8050  179.5970  144.2830 C   0  0  0  0  0  3  0  0  0  0  0  0
  185.9430  179.1130  143.6300 C   0  0  0  0  0  3  0  0  0  0  0  0
  184.4100  179.0410  145.5030 C   0  0  0  0  0  3  0  0  0  0  0  0
  185.1540  178.0030  146.0730 C   0  0  0  0  0  3  0  0  0  0  0  0
  186.2930  177.5200  145.4200 C   0  0  0  0  0  3  0  0  0  0  0  0
  1 10  1  0  0  0  0
  1  6  1  0  0  0  0
  2  9  1  0  0  0  0
  3 10  1  6  0  0  0
  3  2  1  0  0  0  0
  3 11  1  0  0  0  0
  4 12  1  0  0  0  0
  5 14  1  1  0  0  0
  6  4  1  0  0  0  0
  7 13  1  0  0  0  0
  7 25  1  1  0  0  0
  8  5  1  0  0  0  0
  9  7  1  0  0  0  0
  9 13  1  1  0  0  0
  9  5  1  0  0  0  0
 11 12  1  1  0  0  0
 11  8  1  0  0  0  0
 14 23  1  0  0  0  0
 14 21  1  0  0  0  0
 15 18  1  0  0  0  0
 16 19  2  0  0  0  0
 17 20  1  0  0  0  0
 19 15  1  0  0  0  0
 20 22  1  0  0  0  0
 21 20  2  0  0  0  0
 21 16  1  0  0  0  0
 22 15  2  0  0  0  0
 23 24  1  0  0  0  0
 25 26  1  0  0  0  0
 26 31  1  0  0  0  0
 27 29  2  0  0  0  0
 28 26  2  0  0  0  0
 28 27  1  0  0  0  0
 29 30  1  0  0  0  0
 31 30  2  0  0  0  0
M  END
>  <MODEL>
3

>  <REMARK>
 VINA RESULT:      -8.1      3.136      5.430
  Name = 
  5 active torsions:
  status: ('A' for Active; 'I' for Inactive)
    1  A    between atoms: C_5  and  C_30
    2  A    between atoms: C_7  and  N_9
    3  A    between atoms: N_9  and  C_15
    4  A    between atoms: N_9  and  C_22
    5  A    between atoms: C_17  and  C_30
                            x       y       z     vdW  Elec       q    Type
                         _______ _______ _______ _____ _____    ______ ____

>  <TORSDO>
F 5

$$$$
=
 OpenBabel11052417573D

 31 35  0  0  1  0  0  0  0  0999 V2000
  194.5660  176.9640  146.5170 C   0  0  0  0  0  2  0  0  0  0  0  0
  190.9460  176.2720  146.7160 O   0  0  0  0  0  0  0  0  0  0  0  0
  192.1910  176.2220  146.0650 C   0  0  1  0  0  3  0  0  0  0  0  0
  194.4750  175.9650  144.2470 C   0  0  0  0  0  2  0  0  0  0  0  0
  189.9420  175.2380  144.6450 C   0  0  1  0  0  3  0  0  0  0  0  0
  195.2240  175.9750  145.5690 C   0  0  0  0  0  2  0  0  0  0  0  0
  188.6170  176.8180  146.2790 C   0  0  1  0  0  3  0  0  0  0  0  0
  191.0790  174.2300  144.8620 C   0  0  0  0  0  2  0  0  0  0  0  0
  189.9580  176.3450  145.7210 C   0  0  1  0  0  0  0  0  0  0  0  0
  193.2800  176.4070  147.1130 C   0  0  0  0  0  2  0  0  0  0  0  0
  192.3920  174.8640  145.3510 C   0  0  1  0  0  3  0  0  0  0  0  0
  193.4080  174.8730  144.2000 C   0  0  0  0  0  2  0  0  0  0  0  0
  189.4560  177.7400  145.4000 C   0  0  0  0  0  2  0  0  0  0  0  0
  189.9130  175.7700  143.2780 N   0  0  0  0  0  0  0  0  0  0  0  0
  189.2840  173.0230  140.0990 C   0  0  0  0  0  0  0  0  0  0  0  0
  190.7590  174.1630  141.6370 C   0  0  0  0  0  3  0  0  0  0  0  0
  186.9340  175.3390  142.3880 Cl  0  0  0  0  0  0  0  0  0  0  0  0
  189.0420  171.8800  138.7970 Cl  0  0  0  0  0  0  0  0  0  0  0  0
  190.5670  173.2540  140.5950 C   0  0  0  0  0  3  0  0  0  0  0  0
  188.3730  174.6060  141.6950 C   0  0  0  0  0  0  0  0  0  0  0  0
  189.6720  174.8560  142.1940 C   0  0  0  0  0  0  0  0  0  0  0  0
  188.1910  173.6910  140.6530 C   0  0  0  0  0  3  0  0  0  0  0  0
  190.0530  177.2060  143.0380 C   0  0  0  0  0  2  0  0  0  0  0  0
  191.5040  177.5550  142.7620 C   0  0  0  0  0  1  0  0  0  0  0  0
  187.4150  176.3020  145.4920 C   0  0  0  0  0  2  0  0  0  0  0  0
  186.2680  177.2480  145.5890 C   0  0  0  0  0  0  0  0  0  0  0  0
  184.8910  178.9800  144.6000 C   0  0  0  0  0  3  0  0  0  0  0  0
  185.9610  178.0840  144.5100 C   0  0  0  0  0  3  0  0  0  0  0  0
  184.1280  179.0410  145.7690 C   0  0  0  0  0  3  0  0  0  0  0  0
  184.4340  178.2090  146.8500 C   0  0  0  0  0  3  0  0  0  0  0  0
  185.5050  177.3130  146.7600 C   0  0  0  0  0  3  0  0  0  0  0  0
  1 10  1  0  0  0  0
  3  2  1  0  0  0  0
  3 10  1  1  0  0  0
  4  6  1  0  0  0  0
  5 14  1  6  0  0  0
  5  8  1  0  0  0  0
  5  9  1  0  0  0  0
  6  1  1  0  0  0  0
  7 25  1  6  0  0  0
  8 11  1  0  0  0  0
  9 13  1  6  0  0  0
  9  7  1  0  0  0  0
  9  2  1  0  0  0  0
 11 12  1  6  0  0  0
 11  3  1  0  0  0  0
 12  4  1  0  0  0  0
 13  7  1  0  0  0  0
 15 19  2  0  0  0  0
 15 22  1  0  0  0  0
 16 21  2  0  0  0  0
 18 15  1  0  0  0  0
 19 16  1  0  0  0  0
 20 21  1  0  0  0  0
 20 17  1  0  0  0  0
 21 14  1  0  0  0  0
 22 20  2  0  0  0  0
 23 14  1  0  0  0  0
 24 23  1  0  0  0  0
 25 26  1  0  0  0  0
 26 31  1  0  0  0  0
 27 29  2  0  0  0  0
 28 27  1  0  0  0  0
 28 26  2  0  0  0  0
 29 30  1  0  0  0  0
 31 30  2  0  0  0  0
M  END
>  <MODEL>
4

>  <REMARK>
 VINA RESULT:      -7.9      1.598      2.632
  Name = 
  5 active torsions:
  status: ('A' for Active; 'I' for Inactive)
    1  A    between atoms: C_5  and  C_30
    2  A    between atoms: C_7  and  N_9
    3  A    between atoms: N_9  and  C_15
    4  A    between atoms: N_9  and  C_22
    5  A    between atoms: C_17  and  C_30
                            x       y       z     vdW  Elec       q    Type
                         _______ _______ _______ _____ _____    ______ ____

>  <TORSDO>
F 5

$$$$
=
 OpenBabel11052417573D

 31 35  0  0  1  0  0  0  0  0999 V2000
  184.8460  178.8570  145.8360 C   0  0  0  0  0  2  0  0  0  0  0  0
  186.6100  176.3200  143.8170 O   0  0  0  0  0  0  0  0  0  0  0  0
  186.5110  177.1890  144.9170 C   0  0  1  0  0  3  0  0  0  0  0  0
  186.8660  178.8890  147.2770 C   0  0  0  0  0  2  0  0  0  0  0  0
  188.9420  175.7630  144.6030 C   0  0  1  0  0  3  0  0  0  0  0  0
  185.3490  178.8100  147.2690 C   0  0  0  0  0  2  0  0  0  0  0  0
  188.1820  175.6490  142.0860 C   0  0  1  0  0  3  0  0  0  0  0  0
  188.2030  175.5260  145.9280 C   0  0  0  0  0  2  0  0  0  0  0  0
  187.9710  176.2140  143.4910 C   0  0  1  0  0  0  0  0  0  0  0  0
  185.0400  177.5250  145.1230 C   0  0  0  0  0  2  0  0  0  0  0  0
  187.0710  176.5290  146.2000 C   0  0  1  0  0  3  0  0  0  0  0  0
  187.5150  177.5060  147.2990 C   0  0  0  0  0  2  0  0  0  0  0  0
  188.4480  177.1230  142.3730 C   0  0  0  0  0  2  0  0  0  0  0  0
  190.0960  176.6560  144.7520 N   0  0  0  0  0  0  0  0  0  0  0  0
  193.9160  174.9480  145.4820 C   0  0  0  0  0  0  0  0  0  0  0  0
  192.1260  175.5360  143.9690 C   0  0  0  0  0  3  0  0  0  0  0  0
  191.1310  176.7910  147.7110 Cl  0  0  0  0  0  0  0  0  0  0  0  0
  195.4960  174.2500  145.7630 Cl  0  0  0  0  0  0  0  0  0  0  0  0
  193.3850  174.9740  144.1920 C   0  0  0  0  0  3  0  0  0  0  0  0
  191.9320  176.0540  146.3320 C   0  0  0  0  0  0  0  0  0  0  0  0
  191.3810  176.0720  145.0300 C   0  0  0  0  0  0  0  0  0  0  0  0
  193.1960  175.4930  146.5450 C   0  0  0  0  0  3  0  0  0  0  0  0
  189.9490  178.0970  144.5500 C   0  0  0  0  0  2  0  0  0  0  0  0
  191.1910  178.6660  143.8880 C   0  0  0  0  0  1  0  0  0  0  0  0
  189.5040  174.9040  141.9230 C   0  0  0  0  0  2  0  0  0  0  0  0
  189.4150  173.8920  140.8330 C   0  0  0  0  0  0  0  0  0  0  0  0
  188.4720  173.1640  138.7230 C   0  0  0  0  0  3  0  0  0  0  0  0
  188.5660  174.1150  139.7440 C   0  0  0  0  0  3  0  0  0  0  0  0
  189.2260  171.9890  138.7910 C   0  0  0  0  0  3  0  0  0  0  0  0
  190.0720  171.7620  139.8810 C   0  0  0  0  0  3  0  0  0  0  0  0
  190.1660  172.7140  140.9020 C   0  0  0  0  0  3  0  0  0  0  0  0
  1  6  1  0  0  0  0
  2  3  1  0  0  0  0
  3 10  1  1  0  0  0
  3 11  1  0  0  0  0
  4 12  1  0  0  0  0
  5 14  1  1  0  0  0
  5  8  1  0  0  0  0
  6  4  1  0  0  0  0
  7 25  1  1  0  0  0
  7 13  1  0  0  0  0
  7  9  1  0  0  0  0
  9 13  1  6  0  0  0
  9  2  1  0  0  0  0
  9  5  1  0  0  0  0
 10  1  1  0  0  0  0
 11  8  1  6  0  0  0
 11 12  1  0  0  0  0
 14 21  1  0  0  0  0
 15 18  1  0  0  0  0
 15 22  1  0  0  0  0
 16 19  1  0  0  0  0
 16 21  2  0  0  0  0
 19 15  2  0  0  0  0
 20 22  2  0  0  0  0
 20 17  1  0  0  0  0
 21 20  1  0  0  0  0
 23 14  1  0  0  0  0
 24 23  1  0  0  0  0
 26 31  1  0  0  0  0
 26 25  1  0  0  0  0
 27 29  2  0  0  0  0
 27 28  1  0  0  0  0
 28 26  2  0  0  0  0
 29 30  1  0  0  0  0
 30 31  2  0  0  0  0
M  END
>  <MODEL>
5

>  <REMARK>
 VINA RESULT:      -7.9      2.954      7.299
  Name = 
  5 active torsions:
  status: ('A' for Active; 'I' for Inactive)
    1  A    between atoms: C_5  and  C_30
    2  A    between atoms: C_7  and  N_9
    3  A    between atoms: N_9  and  C_15
    4  A    between atoms: N_9  and  C_22
    5  A    between atoms: C_17  and  C_30
                            x       y       z     vdW  Elec       q    Type
                         _______ _______ _______ _____ _____    ______ ____

>  <TORSDO>
F 5

$$$$
=
 OpenBabel11052417573D

 31 35  0  0  1  0  0  0  0  0999 V2000
  185.3520  177.7220  146.5140 C   0  0  0  0  0  2  0  0  0  0  0  0
  188.8740  176.6240  146.6230 O   0  0  0  0  0  0  0  0  0  0  0  0
  187.7070  177.0010  145.9370 C   0  0  1  0  0  3  0  0  0  0  0  0
  185.5470  177.5810  144.0440 C   0  0  0  0  0  2  0  0  0  0  0  0
  189.9150  176.1530  144.3740 C   0  0  1  0  0  3  0  0  0  0  0  0
  185.0820  178.4450  145.2040 C   0  0  0  0  0  2  0  0  0  0  0  0
  190.6040  174.9140  146.5900 C   0  0  1  0  0  3  0  0  0  0  0  0
  189.4090  177.5740  144.0860 C   0  0  0  0  0  2  0  0  0  0  0  0
  189.5590  175.7080  145.8080 C   0  0  1  0  0  0  0  0  0  0  0  0
  186.8240  177.7830  146.9020 C   0  0  0  0  0  2  0  0  0  0  0  0
  188.0420  177.8890  144.7150 C   0  0  1  0  0  3  0  0  0  0  0  0
  186.9730  177.9160  143.6130 C   0  0  0  0  0  2  0  0  0  0  0  0
  189.3160  174.2440  146.1230 C   0  0  0  0  0  2  0  0  0  0  0  0
  189.4940  175.1860  143.3540 N   0  0  0  0  0  0  0  0  0  0  0  0
  192.5490  173.0250  141.3430 C   0  0  0  0  0  0  0  0  0  0  0  0
  191.5400  175.1160  142.0130 C   0  0  0  0  0  3  0  0  0  0  0  0
  189.3330  172.0580  143.5460 Cl  0  0  0  0  0  0  0  0  0  0  0  0
  193.8200  172.1500  140.5190 Cl  0  0  0  0  0  0  0  0  0  0  0  0
  192.5530  174.4190  141.3510 C   0  0  0  0  0  3  0  0  0  0  0  0
  190.5180  173.0150  142.6690 C   0  0  0  0  0  0  0  0  0  0  0  0
  190.5080  174.4290  142.6700 C   0  0  0  0  0  0  0  0  0  0  0  0
  191.5390  172.3260  142.0060 C   0  0  0  0  0  3  0  0  0  0  0  0
  188.0740  174.9520  143.0950 C   0  0  0  0  0  2  0  0  0  0  0  0
  187.7810  175.0710  141.6110 C   0  0  0  0  0  1  0  0  0  0  0  0
  191.7760  174.4430  145.7330 C   0  0  0  0  0  2  0  0  0  0  0  0
  192.8840  175.4380  145.7510 C   0  0  0  0  0  0  0  0  0  0  0  0
  194.0980  177.2010  146.8870 C   0  0  0  0  0  3  0  0  0  0  0  0
  193.0650  176.2590  146.8690 C   0  0  0  0  0  3  0  0  0  0  0  0
  194.9510  177.3240  145.7860 C   0  0  0  0  0  3  0  0  0  0  0  0
  194.7700  176.5070  144.6660 C   0  0  0  0  0  3  0  0  0  0  0  0
  193.7360  175.5650  144.6480 C   0  0  0  0  0  3  0  0  0  0  0  0
  1 10  1  0  0  0  0
  3  2  1  0  0  0  0
  3 10  1  1  0  0  0
  4  6  1  0  0  0  0
  5 14  1  6  0  0  0
  5  9  1  0  0  0  0
  6  1  1  0  0  0  0
  7 25  1  6  0  0  0
  8  5  1  0  0  0  0
  8 11  1  0  0  0  0
  9 13  1  6  0  0  0
  9  7  1  0  0  0  0
  9  2  1  0  0  0  0
 11 12  1  6  0  0  0
 11  3  1  0  0  0  0
 12  4  1  0  0  0  0
 13  7  1  0  0  0  0
 15 19  2  0  0  0  0
 15 22  1  0  0  0  0
 16 21  2  0  0  0  0
 18 15  1  0  0  0  0
 19 16  1  0  0  0  0
 20 21  1  0  0  0  0
 20 17  1  0  0  0  0
 21 14  1  0  0  0  0
 22 20  2  0  0  0  0
 23 14  1  0  0  0  0
 24 23  1  0  0  0  0
 25 26  1  0  0  0  0
 26 28  1  0  0  0  0
 28 27  2  0  0  0  0
 29 27  1  0  0  0  0
 30 29  2  0  0  0  0
 31 30  1  0  0  0  0
 31 26  2  0  0  0  0
M  END
>  <MODEL>
6

>  <REMARK>
 VINA RESULT:      -7.9      2.180      6.616
  Name = 
  5 active torsions:
  status: ('A' for Active; 'I' for Inactive)
    1  A    between atoms: C_5  and  C_30
    2  A    between atoms: C_7  and  N_9
    3  A    between atoms: N_9  and  C_15
    4  A    between atoms: N_9  and  C_22
    5  A    between atoms: C_17  and  C_30
                            x       y       z     vdW  Elec       q    Type
                         _______ _______ _______ _____ _____    ______ ____

>  <TORSDO>
F 5

$$$$
=
 OpenBabel11052417573D

 31 35  0  0  1  0  0  0  0  0999 V2000
  195.2630  173.9290  144.4490 C   0  0  0  0  0  2  0  0  0  0  0  0
  191.9300  174.6710  143.0470 O   0  0  0  0  0  0  0  0  0  0  0  0
  192.9770  174.8930  143.9600 C   0  0  1  0  0  3  0  0  0  0  0  0
  194.7690  175.6750  146.1420 C   0  0  0  0  0  2  0  0  0  0  0  0
  190.6120  176.4220  144.2980 C   0  0  1  0  0  3  0  0  0  0  0  0
  195.8050  175.1590  145.1580 C   0  0  0  0  0  2  0  0  0  0  0  0
  189.5120  174.4260  142.9840 C   0  0  1  0  0  3  0  0  0  0  0  0
  191.8970  177.2320  144.0800 C   0  0  0  0  0  2  0  0  0  0  0  0
  190.7320  175.0040  143.6980 C   0  0  1  0  0  0  0  0  0  0  0  0
  194.2490  174.2960  143.3730 C   0  0  0  0  0  2  0  0  0  0  0  0
  193.1870  176.4060  144.2090 C   0  0  1  0  0  3  0  0  0  0  0  0
  193.8850  176.7610  145.5290 C   0  0  0  0  0  2  0  0  0  0  0  0
  189.9780  173.8400  144.3130 C   0  0  0  0  0  2  0  0  0  0  0  0
  190.1810  176.4140  145.7000 N   0  0  0  0  0  0  0  0  0  0  0  0
  186.1690  177.5620  146.4990 C   0  0  0  0  0  0  0  0  0  0  0  0
  188.2760  177.9160  145.3700 C   0  0  0  0  0  3  0  0  0  0  0  0
  188.5650  174.5470  147.6370 Cl  0  0  0  0  0  0  0  0  0  0  0  0
  184.5160  178.0430  146.8090 Cl  0  0  0  0  0  0  0  0  0  0  0  0
  186.9590  178.3040  145.6200 C   0  0  0  0  0  3  0  0  0  0  0  0
  188.0130  176.0330  146.8790 C   0  0  0  0  0  0  0  0  0  0  0  0
  188.8240  176.7870  145.9990 C   0  0  0  0  0  0  0  0  0  0  0  0
  186.6930  176.4270  147.1200 C   0  0  0  0  0  3  0  0  0  0  0  0
  191.0910  175.9680  146.7540 C   0  0  0  0  0  2  0  0  0  0  0  0
  191.2010  177.0250  147.8380 C   0  0  0  0  0  1  0  0  0  0  0  0
  188.2400  175.2440  143.1930 C   0  0  0  0  0  2  0  0  0  0  0  0
  187.7480  175.8050  141.9030 C   0  0  0  0  0  0  0  0  0  0  0  0
  186.5710  177.5380  140.6870 C   0  0  0  0  0  3  0  0  0  0  0  0
  187.0420  177.0120  141.8940 C   0  0  0  0  0  3  0  0  0  0  0  0
  186.8050  176.8570  139.4890 C   0  0  0  0  0  3  0  0  0  0  0  0
  187.5080  175.6480  139.4970 C   0  0  0  0  0  3  0  0  0  0  0  0
  187.9780  175.1220  140.7040 C   0  0  0  0  0  3  0  0  0  0  0  0
  1  6  1  0  0  0  0
  2  9  1  0  0  0  0
  2  3  1  0  0  0  0
  3 10  1  6  0  0  0
  3 11  1  0  0  0  0
  5 14  1  1  0  0  0
  6  4  1  0  0  0  0
  7 25  1  1  0  0  0
  7  9  1  0  0  0  0
  7 13  1  0  0  0  0
  8  5  1  0  0  0  0
  9  5  1  0  0  0  0
  9 13  1  1  0  0  0
 10  1  1  0  0  0  0
 11  8  1  1  0  0  0
 11 12  1  0  0  0  0
 12  4  1  0  0  0  0
 14 21  1  0  0  0  0
 14 23  1  0  0  0  0
 15 18  1  0  0  0  0
 15 22  1  0  0  0  0
 16 19  1  0  0  0  0
 16 21  2  0  0  0  0
 19 15  2  0  0  0  0
 20 22  2  0  0  0  0
 20 17  1  0  0  0  0
 21 20  1  0  0  0  0
 23 24  1  0  0  0  0
 26 25  1  0  0  0  0
 27 28  2  0  0  0  0
 28 26  1  0  0  0  0
 29 30  2  0  0  0  0
 29 27  1  0  0  0  0
 30 31  1  0  0  0  0
 31 26  2  0  0  0  0
M  END
>  <MODEL>
7

>  <REMARK>
 VINA RESULT:      -7.6      2.208      4.470
  Name = 
  5 active torsions:
  status: ('A' for Active; 'I' for Inactive)
    1  A    between atoms: C_5  and  C_30
    2  A    between atoms: C_7  and  N_9
    3  A    between atoms: N_9  and  C_15
    4  A    between atoms: N_9  and  C_22
    5  A    between atoms: C_17  and  C_30
                            x       y       z     vdW  Elec       q    Type
                         _______ _______ _______ _____ _____    ______ ____

>  <TORSDO>
F 5

$$$$
=
 OpenBabel11052417573D

 31 35  0  0  1  0  0  0  0  0999 V2000
  196.1510  172.2870  145.2050 C   0  0  0  0  0  2  0  0  0  0  0  0
  192.9490  172.7250  143.4210 O   0  0  0  0  0  0  0  0  0  0  0  0
  193.9800  173.1790  144.2630 C   0  0  1  0  0  3  0  0  0  0  0  0
  195.7610  174.5520  146.1410 C   0  0  0  0  0  2  0  0  0  0  0  0
  191.7550  174.8980  143.8910 C   0  0  1  0  0  3  0  0  0  0  0  0
  196.7790  173.6460  145.4690 C   0  0  0  0  0  2  0  0  0  0  0  0
  190.5220  172.6520  143.2940 C   0  0  1  0  0  3  0  0  0  0  0  0
  193.1150  175.4810  143.4840 C   0  0  0  0  0  2  0  0  0  0  0  0
  191.7650  173.3550  143.8360 C   0  0  1  0  0  0  0  0  0  0  0  0
  195.2120  172.3210  144.0060 C   0  0  0  0  0  2  0  0  0  0  0  0
  194.3190  174.6620  143.9780 C   0  0  1  0  0  3  0  0  0  0  0  0
  195.0020  175.4110  145.1310 C   0  0  0  0  0  2  0  0  0  0  0  0
  190.8870  172.5450  144.7710 C   0  0  0  0  0  2  0  0  0  0  0  0
  191.2780  175.4210  145.1750 N   0  0  0  0  0  0  0  0  0  0  0  0
  187.6480  177.6280  145.1420 C   0  0  0  0  0  0  0  0  0  0  0  0
  189.8510  177.1840  144.2550 C   0  0  0  0  0  3  0  0  0  0  0  0
  189.1010  174.5390  147.2570 Cl  0  0  0  0  0  0  0  0  0  0  0  0
  186.1550  178.5400  145.1080 Cl  0  0  0  0  0  0  0  0  0  0  0  0
  188.6620  177.9160  144.2290 C   0  0  0  0  0  3  0  0  0  0  0  0
  189.0050  175.8660  146.1090 C   0  0  0  0  0  0  0  0  0  0  0  0
  190.0440  176.1610  145.1960 C   0  0  0  0  0  0  0  0  0  0  0  0
  187.8160  176.6020  146.0730 C   0  0  0  0  0  3  0  0  0  0  0  0
  192.0050  175.1330  146.4100 C   0  0  0  0  0  2  0  0  0  0  0  0
  192.2800  176.4160  147.1730 C   0  0  0  0  0  1  0  0  0  0  0  0
  189.3240  173.5820  143.1210 C   0  0  0  0  0  2  0  0  0  0  0  0
  188.9270  173.6790  141.6880 C   0  0  0  0  0  0  0  0  0  0  0  0
  188.7780  172.6830  139.4840 C   0  0  0  0  0  3  0  0  0  0  0  0
  189.1410  172.5940  140.8310 C   0  0  0  0  0  3  0  0  0  0  0  0
  188.2020  173.8570  138.9920 C   0  0  0  0  0  3  0  0  0  0  0  0
  187.9900  174.9440  139.8450 C   0  0  0  0  0  3  0  0  0  0  0  0
  188.3540  174.8550  141.1930 C   0  0  0  0  0  3  0  0  0  0  0  0
  1  6  1  0  0  0  0
  2  9  1  0  0  0  0
  2  3  1  0  0  0  0
  3 10  1  6  0  0  0
  5 14  1  1  0  0  0
  6  4  1  0  0  0  0
  7 25  1  1  0  0  0
  7  9  1  0  0  0  0
  7 13  1  0  0  0  0
  8  5  1  0  0  0  0
  9  5  1  0  0  0  0
  9 13  1  1  0  0  0
 10  1  1  0  0  0  0
 11  8  1  1  0  0  0
 11  3  1  0  0  0  0
 11 12  1  0  0  0  0
 12  4  1  0  0  0  0
 14 21  1  0  0  0  0
 14 23  1  0  0  0  0
 15 22  1  0  0  0  0
 16 21  2  0  0  0  0
 18 15  1  0  0  0  0
 19 16  1  0  0  0  0
 19 15  2  0  0  0  0
 20 17  1  0  0  0  0
 21 20  1  0  0  0  0
 22 20  2  0  0  0  0
 23 24  1  0  0  0  0
 26 25  1  0  0  0  0
 27 28  1  0  0  0  0
 28 26  2  0  0  0  0
 29 27  2  0  0  0  0
 29 30  1  0  0  0  0
 30 31  2  0  0  0  0
 31 26  1  0  0  0  0
M  END
>  <MODEL>
8

>  <REMARK>
 VINA RESULT:      -7.5      2.583      5.017
  Name = 
  5 active torsions:
  status: ('A' for Active; 'I' for Inactive)
    1  A    between atoms: C_5  and  C_30
    2  A    between atoms: C_7  and  N_9
    3  A    between atoms: N_9  and  C_15
    4  A    between atoms: N_9  and  C_22
    5  A    between atoms: C_17  and  C_30
                            x       y       z     vdW  Elec       q    Type
                         _______ _______ _______ _____ _____    ______ ____

>  <TORSDO>
F 5

$$$$
=
 OpenBabel11052417573D

 31 35  0  0  1  0  0  0  0  0999 V2000
  186.5130  177.7630  146.4560 C   0  0  0  0  0  2  0  0  0  0  0  0
  189.7850  176.0890  146.1120 O   0  0  0  0  0  0  0  0  0  0  0  0
  188.6460  176.7210  145.5830 C   0  0  1  0  0  3  0  0  0  0  0  0
  186.4630  177.8330  143.9750 C   0  0  0  0  0  2  0  0  0  0  0  0
  190.5270  175.6750  143.7370 C   0  0  1  0  0  3  0  0  0  0  0  0
  186.2600  178.6440  145.2430 C   0  0  0  0  0  2  0  0  0  0  0  0
  191.1800  174.1280  145.7630 C   0  0  1  0  0  3  0  0  0  0  0  0
  190.2540  177.1810  143.6190 C   0  0  0  0  0  2  0  0  0  0  0  0
  190.2250  175.1570  145.1590 C   0  0  1  0  0  0  0  0  0  0  0  0
  188.0010  177.5400  146.6930 C   0  0  0  0  0  2  0  0  0  0  0  0
  189.0220  177.6560  144.4080 C   0  0  1  0  0  3  0  0  0  0  0  0
  187.8830  177.9670  143.4280 C   0  0  0  0  0  2  0  0  0  0  0  0
  189.7590  173.7300  145.3780 C   0  0  0  0  0  2  0  0  0  0  0  0
  189.8560  174.8960  142.6900 N   0  0  0  0  0  0  0  0  0  0  0  0
  192.2610  172.2580  140.3870 C   0  0  0  0  0  0  0  0  0  0  0  0
  191.7960  174.4610  141.2630 C   0  0  0  0  0  3  0  0  0  0  0  0
  188.9580  171.8890  142.6400 Cl  0  0  0  0  0  0  0  0  0  0  0  0
  193.2680  171.1830  139.4430 Cl  0  0  0  0  0  0  0  0  0  0  0  0
  192.5990  173.6060  140.5050 C   0  0  0  0  0  3  0  0  0  0  0  0
  190.3160  172.6120  141.7920 C   0  0  0  0  0  0  0  0  0  0  0  0
  190.6440  173.9830  141.9060 C   0  0  0  0  0  0  0  0  0  0  0  0
  191.1280  171.7620  141.0340 C   0  0  0  0  0  3  0  0  0  0  0  0
  188.4090  174.9970  142.5030 C   0  0  0  0  0  2  0  0  0  0  0  0
  188.0830  175.2700  141.0460 C   0  0  0  0  0  1  0  0  0  0  0  0
  192.1720  173.5550  144.7540 C   0  0  0  0  0  2  0  0  0  0  0  0
  193.5760  173.7730  145.2030 C   0  0  0  0  0  0  0  0  0  0  0  0
  195.8170  172.9220  145.5600 C   0  0  0  0  0  3  0  0  0  0  0  0
  194.5000  172.7250  145.1310 C   0  0  0  0  0  3  0  0  0  0  0  0
  196.2090  174.1660  146.0620 C   0  0  0  0  0  3  0  0  0  0  0  0
  195.2860  175.2130  146.1390 C   0  0  0  0  0  3  0  0  0  0  0  0
  193.9690  175.0160  145.7100 C   0  0  0  0  0  3  0  0  0  0  0  0
  1 10  1  0  0  0  0
  3  2  1  0  0  0  0
  3 10  1  1  0  0  0
  4  6  1  0  0  0  0
  5 14  1  6  0  0  0
  5  9  1  0  0  0  0
  6  1  1  0  0  0  0
  7 25  1  6  0  0  0
  8  5  1  0  0  0  0
  8 11  1  0  0  0  0
  9 13  1  6  0  0  0
  9  7  1  0  0  0  0
  9  2  1  0  0  0  0
 11 12  1  6  0  0  0
 11  3  1  0  0  0  0
 12  4  1  0  0  0  0
 13  7  1  0  0  0  0
 15 19  2  0  0  0  0
 15 22  1  0  0  0  0
 16 21  2  0  0  0  0
 18 15  1  0  0  0  0
 19 16  1  0  0  0  0
 20 21  1  0  0  0  0
 20 17  1  0  0  0  0
 21 14  1  0  0  0  0
 22 20  2  0  0  0  0
 23 14  1  0  0  0  0
 24 23  1  0  0  0  0
 25 26  1  0  0  0  0
 26 31  1  0  0  0  0
 27 29  2  0  0  0  0
 28 26  2  0  0  0  0
 28 27  1  0  0  0  0
 29 30  1  0  0  0  0
 31 30  2  0  0  0  0
M  END
>  <MODEL>
9

>  <REMARK>
 VINA RESULT:      -7.4      2.262      6.876
  Name = 
  5 active torsions:
  status: ('A' for Active; 'I' for Inactive)
    1  A    between atoms: C_5  and  C_30
    2  A    between atoms: C_7  and  N_9
    3  A    between atoms: N_9  and  C_15
    4  A    between atoms: N_9  and  C_22
    5  A    between atoms: C_17  and  C_30
                            x       y       z     vdW  Elec       q    Type
                         _______ _______ _______ _____ _____    ______ ____

>  <TORSDO>
F 5

$$$$
