=
 OpenBabel11052419473D

 55 63  0  0  1  0  0  0  0  0999 V2000
  191.3540  174.8990  146.2590 C   0  0  0  0  0  3  0  0  0  0  0  0
  192.1570  172.7020  144.7120 C   0  0  0  0  0  0  0  0  0  0  0  0
  190.8110  173.0690  144.7620 C   0  0  0  0  0  3  0  0  0  0  0  0
  192.7040  174.5320  146.2140 C   0  0  0  0  0  3  0  0  0  0  0  0
  190.4040  174.1640  145.5360 C   0  0  0  0  0  0  0  0  0  0  0  0
  193.1050  173.4340  145.4420 C   0  0  0  0  0  3  0  0  0  0  0  0
  188.9750  174.5830  145.5380 C   0  0  0  0  0  2  0  0  0  0  0  0
  188.8950  176.0950  145.7000 C   0  0  0  0  0  2  0  0  0  0  0  0
  185.3330  177.6610  142.6130 C   0  0  0  0  0  2  0  0  0  0  0  0
  191.6250  177.7730  143.9900 C   0  0  0  0  0  2  0  0  0  0  0  0
  185.8340  177.4810  140.1960 N   0  0  0  0  0  2  0  0  0  0  0  0
  187.7230  177.8280  141.8410 C   0  0  1  0  0  3  0  0  0  0  0  0
  187.2410  177.1980  140.5310 C   0  0  0  0  0  2  0  0  0  0  0  0
  185.1150  178.2520  141.2210 C   0  0  0  0  0  2  0  0  0  0  0  0
  186.7630  177.5600  142.9180 N   0  0  0  0  0  0  0  0  0  0  0  0
  189.4280  176.8760  143.3130 C   0  0  0  0  0  0  0  0  0  0  0  0
  191.5650  175.7510  142.6810 C   0  0  0  0  0  2  0  0  0  0  0  0
  189.0600  177.3390  142.1550 N   0  0  0  0  0  0  0  0  0  0  0  0
  192.9060  176.4200  142.4520 C   0  0  1  0  0  3  0  0  0  0  0  0
  187.1860  177.1850  144.2450 C   0  0  0  0  0  0  0  0  0  0  0  0
  193.0440  177.5100  143.5020 C   0  0  0  0  0  2  0  0  0  0  0  0
  188.4580  176.7650  144.4280 C   0  0  0  0  0  0  0  0  0  0  0  0
  190.8230  176.6490  143.5440 N   0  0  0  0  0  0  0  0  0  0  0  0
  185.8730  178.7430  145.5840 C   0  0  1  0  0  3  0  0  0  0  0  0
  185.8310  177.4980  147.8230 C   0  0  0  0  0  1  0  0  0  0  0  0
  186.1660  177.2660  145.3680 C   0  0  2  0  0  3  0  0  0  0  0  0
  184.3960  178.9480  145.8850 C   0  0  0  0  0  1  0  0  0  0  0  0
  186.6530  177.9590  146.6330 C   0  0  1  0  0  3  0  0  0  0  0  0
  194.9310  175.2500  141.4090 C   0  0  0  0  0  0  0  0  0  0  0  0
  194.8470  175.9940  140.2380 O   0  0  0  0  0  0  0  0  0  0  0  0
  194.0120  175.4660  142.4900 N   0  0  0  0  0  2  0  0  0  0  0  0
  195.8800  174.4330  141.5640 O   0  0  0  0  0  1  0  0  0  0  0  0
  192.5700  171.5350  143.8750 C   0  0  0  0  0  2  0  0  0  0  0  0
  194.6120  170.9530  142.5690 C   0  0  0  0  0  2  0  0  0  0  0  0
  193.4330  171.0350  141.6210 C   0  0  1  0  0  3  0  0  0  0  0  0
  193.5320  171.9910  142.7910 C   0  0  1  0  0  3  0  0  0  0  0  0
  193.8000  171.7290  140.4600 O   0  0  0  0  0  0  0  0  0  0  0  0
  191.1800  173.4090  136.3730 C   0  0  0  0  0  0  0  0  0  0  0  0
  189.2910  174.1170  140.4110 C   0  0  0  0  0  1  0  0  0  0  0  0
  191.6750  173.1510  138.7790 C   0  0  2  0  0  0  0  0  0  0  0  0
  194.1510  173.0120  138.0670 C   0  0  0  0  0  1  0  0  0  0  0  0
  191.6040  170.9330  139.9540 C   0  0  0  0  0  2  0  0  0  0  0  0
  190.7890  172.1470  139.5450 C   0  0  2  0  0  0  0  0  0  0  0  0
  192.8390  172.2430  138.2940 C   0  0  1  0  0  0  0  0  0  0  0  0
  192.2420  172.4190  136.0400 C   0  0  0  0  0  2  0  0  0  0  0  0
  193.0130  171.2010  139.4210 C   0  0  1  0  0  3  0  0  0  0  0  0
  189.3300  171.7940  139.1930 C   0  0  1  0  0  3  0  0  0  0  0  0
  190.4790  173.9180  135.4610 O   0  0  0  0  0  0  0  0  0  0  0  0
  189.6500  172.6300  140.4450 C   0  0  2  0  0  0  0  0  0  0  0  0
  192.4630  171.5340  137.1200 O   0  0  0  0  0  0  0  0  0  0  0  0
  192.1530  174.1180  139.6720 O   0  0  0  0  0  1  0  0  0  0  0  0
  188.7880  172.5820  138.1730 O   0  0  0  0  0  1  0  0  0  0  0  0
  191.0030  173.8050  137.6980 O   0  0  0  0  0  0  0  0  0  0  0  0
  189.4670  171.8950  141.7590 C   0  0  0  0  0  2  0  0  0  0  0  0
  188.2750  172.2870  142.3720 O   0  0  0  0  0  1  0  0  0  0  0  0
  2  3  2  0  0  0  0
  2  6  1  0  0  0  0
  3  5  1  0  0  0  0
  4  1  1  0  0  0  0
  5  7  1  0  0  0  0
  5  1  2  0  0  0  0
  6  4  2  0  0  0  0
  7  8  1  0  0  0  0
  9 15  1  0  0  0  0
 11 13  1  0  0  0  0
 11 14  1  0  0  0  0
 12 13  1  6  0  0  0
 12 18  1  0  0  0  0
 12 15  1  0  0  0  0
 14  9  1  0  0  0  0
 15 20  1  0  0  0  0
 16 23  1  0  0  0  0
 16 22  1  0  0  0  0
 17 23  1  0  0  0  0
 18 16  2  0  0  0  0
 19 31  1  1  0  0  0
 19 17  1  0  0  0  0
 19 21  1  0  0  0  0
 20 22  2  0  0  0  0
 21 10  1  0  0  0  0
 22  8  1  0  0  0  0
 23 10  1  0  0  0  0
 24 27  1  1  0  0  0
 24 28  1  0  0  0  0
 26 20  1  6  0  0  0
 26 24  1  0  0  0  0
 26 28  1  0  0  0  0
 28 25  1  1  0  0  0
 29 32  1  0  0  0  0
 29 31  1  0  0  0  0
 30 29  2  0  0  0  0
 33  2  1  0  0  0  0
 34 36  1  0  0  0  0
 35 37  1  6  0  0  0
 35 34  1  0  0  0  0
 35 36  1  0  0  0  0
 36 33  1  1  0  0  0
 38 53  1  0  0  0  0
 40 43  1  0  0  0  0
 40 51  1  1  0  0  0
 43 42  1  1  0  0  0
 43 49  1  0  0  0  0
 44 41  1  6  0  0  0
 44 40  1  0  0  0  0
 44 46  1  0  0  0  0
 45 38  1  0  0  0  0
 45 50  1  0  0  0  0
 46 42  1  0  0  0  0
 46 37  1  1  0  0  0
 47 52  1  6  0  0  0
 47 43  1  0  0  0  0
 47 49  1  0  0  0  0
 48 38  2  0  0  0  0
 49 39  1  6  0  0  0
 49 54  1  0  0  0  0
 50 44  1  0  0  0  0
 53 40  1  0  0  0  0
 54 55  1  0  0  0  0
M  END
>  <MODEL>
1

>  <REMARK>
 VINA RESULT:      -7.8      0.000      0.000
  Name = 
  10 active torsions:
  status: ('A' for Active; 'I' for Inactive)
    1  A    between atoms: C_2  and  C_28
    2  A    between atoms: C_2  and  C_44
    3  A    between atoms: O_8  and  C_22
    4  A    between atoms: O_8  and  C_43
    5  A    between atoms: C_11  and  C_38
    6  A    between atoms: C_19  and  C_45
    7  A    between atoms: C_27  and  C_54
    8  A    between atoms: C_28  and  C_49
    9  A    between atoms: N_32  and  C_39
   10  A    between atoms: C_51  and  C_54
                            x       y       z     vdW  Elec       q    Type
                         _______ _______ _______ _____ _____    ______ ____

>  <TORSDO>
F 10

$$$$
=
 OpenBabel11052419473D

 55 63  0  0  1  0  0  0  0  0999 V2000
  189.8640  171.6760  142.3340 C   0  0  0  0  0  3  0  0  0  0  0  0
  190.6840  173.2580  144.4990 C   0  0  0  0  0  0  0  0  0  0  0  0
  191.5190  173.1000  143.3910 C   0  0  0  0  0  3  0  0  0  0  0  0
  189.0260  171.8290  143.4440 C   0  0  0  0  0  3  0  0  0  0  0  0
  191.1150  172.3070  142.3080 C   0  0  0  0  0  0  0  0  0  0  0  0
  189.4360  172.6190  144.5260 C   0  0  0  0  0  3  0  0  0  0  0  0
  191.9870  172.1910  141.1060 C   0  0  0  0  0  2  0  0  0  0  0  0
  191.8810  173.4680  140.2840 C   0  0  0  0  0  2  0  0  0  0  0  0
  192.9750  171.9740  135.6750 C   0  0  0  0  0  2  0  0  0  0  0  0
  194.5980  175.8650  140.5470 C   0  0  0  0  0  2  0  0  0  0  0  0
  195.3600  171.4880  135.2280 N   0  0  0  0  0  2  0  0  0  0  0  0
  194.7420  173.2200  136.9640 C   0  0  1  0  0  3  0  0  0  0  0  0
  195.7070  172.1200  136.5140 C   0  0  0  0  0  2  0  0  0  0  0  0
  194.1010  171.9700  134.6420 C   0  0  0  0  0  2  0  0  0  0  0  0
  193.3540  172.7560  136.8560 N   0  0  0  0  0  0  0  0  0  0  0  0
  194.2280  173.7730  139.2910 C   0  0  0  0  0  0  0  0  0  0  0  0
  195.7900  173.8870  141.2340 C   0  0  0  0  0  2  0  0  0  0  0  0
  195.0810  173.6440  138.3170 N   0  0  0  0  0  0  0  0  0  0  0  0
  196.5840  175.0970  141.6870 C   0  0  1  0  0  3  0  0  0  0  0  0
  192.3740  173.0270  137.8780 C   0  0  0  0  0  0  0  0  0  0  0  0
  195.6820  176.3090  141.5190 C   0  0  0  0  0  2  0  0  0  0  0  0
  192.7980  173.4370  139.0950 C   0  0  0  0  0  0  0  0  0  0  0  0
  194.6610  174.4160  140.4940 N   0  0  0  0  0  0  0  0  0  0  0  0
  190.4330  174.0990  136.8630 C   0  0  1  0  0  3  0  0  0  0  0  0
  188.5580  173.1080  138.3020 C   0  0  0  0  0  1  0  0  0  0  0  0
  190.9090  172.8190  137.5340 C   0  0  2  0  0  3  0  0  0  0  0  0
  189.4760  173.7730  135.7260 C   0  0  0  0  0  1  0  0  0  0  0  0
  189.9380  173.7420  138.2600 C   0  0  1  0  0  3  0  0  0  0  0  0
  196.2430  174.6800  144.1900 C   0  0  0  0  0  0  0  0  0  0  0  0
  194.8750  174.4830  144.0420 O   0  0  0  0  0  0  0  0  0  0  0  0
  197.0770  174.9530  143.0550 N   0  0  0  0  0  2  0  0  0  0  0  0
  196.7770  174.5300  145.3230 O   0  0  0  0  0  1  0  0  0  0  0  0
  191.1320  174.1120  145.6400 C   0  0  0  0  0  2  0  0  0  0  0  0
  190.3670  175.4290  147.6130 C   0  0  0  0  0  2  0  0  0  0  0  0
  189.7820  176.0460  146.3590 C   0  0  1  0  0  3  0  0  0  0  0  0
  189.9310  174.5420  146.4660 C   0  0  1  0  0  3  0  0  0  0  0  0
  188.4330  176.3640  146.5670 O   0  0  0  0  0  0  0  0  0  0  0  0
  185.4370  178.0950  142.7690 C   0  0  0  0  0  0  0  0  0  0  0  0
  188.9270  175.4990  141.5630 C   0  0  0  0  0  1  0  0  0  0  0  0
  187.2360  176.7330  143.7750 C   0  0  2  0  0  0  0  0  0  0  0  0
  185.8010  176.7550  145.9190 C   0  0  0  0  0  1  0  0  0  0  0  0
  189.2900  177.7390  144.8100 C   0  0  0  0  0  2  0  0  0  0  0  0
  188.6750  177.2240  143.5200 C   0  0  2  0  0  0  0  0  0  0  0  0
  186.8710  177.4810  145.0870 C   0  0  1  0  0  0  0  0  0  0  0  0
  185.2710  178.8350  144.0500 C   0  0  0  0  0  2  0  0  0  0  0  0
  188.1990  177.5630  145.8690 C   0  0  1  0  0  3  0  0  0  0  0  0
  189.1440  178.0120  142.2810 C   0  0  1  0  0  3  0  0  0  0  0  0
  184.7460  178.4020  141.7640 O   0  0  0  0  0  0  0  0  0  0  0  0
  189.5660  176.5450  142.4780 C   0  0  2  0  0  0  0  0  0  0  0  0
  186.4670  178.8150  144.8040 O   0  0  0  0  0  0  0  0  0  0  0  0
  187.2530  175.3500  143.9940 O   0  0  0  0  0  1  0  0  0  0  0  0
  188.1670  178.1370  141.2880 O   0  0  0  0  0  1  0  0  0  0  0  0
  186.3290  177.0250  142.7070 O   0  0  0  0  0  0  0  0  0  0  0  0
  191.0220  176.3520  142.8540 C   0  0  0  0  0  2  0  0  0  0  0  0
  191.7050  177.5690  142.7860 O   0  0  0  0  0  1  0  0  0  0  0  0
  1  4  1  0  0  0  0
  2  6  1  0  0  0  0
  2 33  1  0  0  0  0
  3  2  2  0  0  0  0
  4  6  2  0  0  0  0
  5  1  2  0  0  0  0
  5  3  1  0  0  0  0
  7  5  1  0  0  0  0
  8  7  1  0  0  0  0
  9 15  1  0  0  0  0
 10 21  1  0  0  0  0
 11 13  1  0  0  0  0
 12 13  1  1  0  0  0
 12 18  1  0  0  0  0
 14 11  1  0  0  0  0
 14  9  1  0  0  0  0
 15 12  1  0  0  0  0
 15 20  1  0  0  0  0
 16 23  1  0  0  0  0
 17 19  1  0  0  0  0
 18 16  2  0  0  0  0
 19 31  1  1  0  0  0
 20 22  2  0  0  0  0
 21 19  1  0  0  0  0
 22 16  1  0  0  0  0
 22  8  1  0  0  0  0
 23 10  1  0  0  0  0
 23 17  1  0  0  0  0
 24 27  1  6  0  0  0
 24 26  1  0  0  0  0
 24 28  1  0  0  0  0
 26 20  1  1  0  0  0
 26 28  1  0  0  0  0
 28 25  1  6  0  0  0
 29 32  1  0  0  0  0
 30 29  2  0  0  0  0
 31 29  1  0  0  0  0
 35 36  1  0  0  0  0
 35 37  1  1  0  0  0
 35 34  1  0  0  0  0
 36 33  1  6  0  0  0
 36 34  1  0  0  0  0
 38 45  1  0  0  0  0
 40 51  1  1  0  0  0
 40 44  1  0  0  0  0
 42 46  1  0  0  0  0
 43 40  1  0  0  0  0
 43 42  1  1  0  0  0
 44 46  1  0  0  0  0
 44 41  1  1  0  0  0
 45 50  1  0  0  0  0
 46 37  1  6  0  0  0
 47 52  1  6  0  0  0
 47 49  1  0  0  0  0
 47 43  1  0  0  0  0
 48 38  2  0  0  0  0
 49 39  1  6  0  0  0
 49 54  1  0  0  0  0
 49 43  1  0  0  0  0
 50 44  1  0  0  0  0
 53 38  1  0  0  0  0
 53 40  1  0  0  0  0
 55 54  1  0  0  0  0
M  END
>  <MODEL>
2

>  <REMARK>
 VINA RESULT:      -7.3      3.394      7.983
  Name = 
  10 active torsions:
  status: ('A' for Active; 'I' for Inactive)
    1  A    between atoms: C_2  and  C_28
    2  A    between atoms: C_2  and  C_44
    3  A    between atoms: O_8  and  C_22
    4  A    between atoms: O_8  and  C_43
    5  A    between atoms: C_11  and  C_38
    6  A    between atoms: C_19  and  C_45
    7  A    between atoms: C_27  and  C_54
    8  A    between atoms: C_28  and  C_49
    9  A    between atoms: N_32  and  C_39
   10  A    between atoms: C_51  and  C_54
                            x       y       z     vdW  Elec       q    Type
                         _______ _______ _______ _____ _____    ______ ____

>  <TORSDO>
F 10

$$$$
=
 OpenBabel11052419473D

 55 63  0  0  1  0  0  0  0  0999 V2000
  190.4340  171.0510  142.5430 C   0  0  0  0  0  3  0  0  0  0  0  0
  190.6380  173.0620  144.4870 C   0  0  0  0  0  0  0  0  0  0  0  0
  191.6870  172.1590  144.3000 C   0  0  0  0  0  3  0  0  0  0  0  0
  189.3800  171.9530  142.7290 C   0  0  0  0  0  3  0  0  0  0  0  0
  191.5880  171.1490  143.3320 C   0  0  0  0  0  0  0  0  0  0  0  0
  189.4820  172.9570  143.7010 C   0  0  0  0  0  3  0  0  0  0  0  0
  192.7340  170.2270  143.1020 C   0  0  0  0  0  2  0  0  0  0  0  0
  193.3910  170.5670  141.7720 C   0  0  0  0  0  2  0  0  0  0  0  0
  196.2820  173.7680  144.2370 C   0  0  0  0  0  2  0  0  0  0  0  0
  193.6840  172.2170  138.5490 C   0  0  0  0  0  2  0  0  0  0  0  0
  195.8520  176.1670  143.8130 N   0  0  0  0  0  2  0  0  0  0  0  0
  195.3800  174.4740  141.9950 C   0  0  1  0  0  3  0  0  0  0  0  0
  194.9940  175.7910  142.6750 C   0  0  0  0  0  2  0  0  0  0  0  0
  196.8790  175.1700  144.1470 C   0  0  0  0  0  2  0  0  0  0  0  0
  195.5770  173.4210  142.9980 N   0  0  0  0  0  0  0  0  0  0  0  0
  193.8140  172.9460  140.9030 C   0  0  0  0  0  0  0  0  0  0  0  0
  191.8610  173.5070  139.4530 C   0  0  0  0  0  2  0  0  0  0  0  0
  194.3670  174.1180  141.0100 N   0  0  0  0  0  0  0  0  0  0  0  0
  191.8780  173.7050  137.9500 C   0  0  1  0  0  3  0  0  0  0  0  0
  195.0840  172.0800  142.8080 C   0  0  0  0  0  0  0  0  0  0  0  0
  192.8220  172.6620  137.3740 C   0  0  0  0  0  2  0  0  0  0  0  0
  194.1580  171.8570  141.8480 C   0  0  0  0  0  0  0  0  0  0  0  0
  193.0100  172.6740  139.7500 N   0  0  0  0  0  0  0  0  0  0  0  0
  197.1170  170.8960  143.4480 C   0  0  1  0  0  3  0  0  0  0  0  0
  196.1620  168.5650  143.9130 C   0  0  0  0  0  1  0  0  0  0  0  0
  195.6220  170.9870  143.7150 C   0  0  2  0  0  3  0  0  0  0  0  0
  197.8690  170.6410  144.7450 C   0  0  0  0  0  1  0  0  0  0  0  0
  196.1930  169.7730  142.9940 C   0  0  1  0  0  3  0  0  0  0  0  0
  190.1030  174.3950  136.2380 C   0  0  0  0  0  0  0  0  0  0  0  0
  190.9730  175.2570  135.5790 O   0  0  0  0  0  0  0  0  0  0  0  0
  190.5400  173.6260  137.3680 N   0  0  0  0  0  2  0  0  0  0  0  0
  188.9390  174.2170  135.7870 O   0  0  0  0  0  1  0  0  0  0  0  0
  190.7670  174.1340  145.5190 C   0  0  0  0  0  2  0  0  0  0  0  0
  189.5860  174.9800  147.5450 C   0  0  0  0  0  2  0  0  0  0  0  0
  189.2710  175.8950  146.3790 C   0  0  1  0  0  3  0  0  0  0  0  0
  189.4140  174.4040  146.1560 C   0  0  1  0  0  3  0  0  0  0  0  0
  187.9050  176.2060  146.3720 O   0  0  0  0  0  0  0  0  0  0  0  0
  185.2920  178.3510  142.5030 C   0  0  0  0  0  0  0  0  0  0  0  0
  188.7080  175.6290  141.3670 C   0  0  0  0  0  1  0  0  0  0  0  0
  186.9340  176.8220  143.5360 C   0  0  2  0  0  0  0  0  0  0  0  0
  185.3530  176.7970  145.5740 C   0  0  0  0  0  1  0  0  0  0  0  0
  188.9620  177.6340  144.7740 C   0  0  0  0  0  2  0  0  0  0  0  0
  188.4130  177.2400  143.4140 C   0  0  2  0  0  0  0  0  0  0  0  0
  186.5180  177.5070  144.8670 C   0  0  1  0  0  0  0  0  0  0  0  0
  185.0760  179.0180  143.8170 C   0  0  0  0  0  2  0  0  0  0  0  0
  187.7890  177.4580  145.7420 C   0  0  1  0  0  3  0  0  0  0  0  0
  189.0140  178.0740  142.2640 C   0  0  1  0  0  3  0  0  0  0  0  0
  184.6930  178.7620  141.4760 O   0  0  0  0  0  0  0  0  0  0  0  0
  189.3370  176.5750  142.3910 C   0  0  2  0  0  0  0  0  0  0  0  0
  186.2110  178.8780  144.6470 O   0  0  0  0  0  0  0  0  0  0  0  0
  186.8580  175.4290  143.6630 O   0  0  0  0  0  1  0  0  0  0  0  0
  188.1200  178.3210  141.2180 O   0  0  0  0  0  1  0  0  0  0  0  0
  186.1240  177.2350  142.4300 O   0  0  0  0  0  0  0  0  0  0  0  0
  190.7500  176.2710  142.8520 C   0  0  0  0  0  2  0  0  0  0  0  0
  191.3410  175.3250  142.0110 O   0  0  0  0  0  1  0  0  0  0  0  0
  1  4  2  0  0  0  0
  1  5  1  0  0  0  0
  2 33  1  0  0  0  0
  3  2  1  0  0  0  0
  4  6  1  0  0  0  0
  5  3  2  0  0  0  0
  6  2  2  0  0  0  0
  7  5  1  0  0  0  0
  8 22  1  0  0  0  0
  8  7  1  0  0  0  0
 10 23  1  0  0  0  0
 11 14  1  0  0  0  0
 12 13  1  1  0  0  0
 12 15  1  0  0  0  0
 13 11  1  0  0  0  0
 14  9  1  0  0  0  0
 15  9  1  0  0  0  0
 16 18  2  0  0  0  0
 16 22  1  0  0  0  0
 17 23  1  0  0  0  0
 18 12  1  0  0  0  0
 19 31  1  6  0  0  0
 19 17  1  0  0  0  0
 20 15  1  0  0  0  0
 21 19  1  0  0  0  0
 21 10  1  0  0  0  0
 22 20  2  0  0  0  0
 23 16  1  0  0  0  0
 24 26  1  0  0  0  0
 24 27  1  1  0  0  0
 26 20  1  6  0  0  0
 28 24  1  0  0  0  0
 28 26  1  0  0  0  0
 28 25  1  1  0  0  0
 29 31  1  0  0  0  0
 30 29  2  0  0  0  0
 32 29  1  0  0  0  0
 35 37  1  1  0  0  0
 35 34  1  0  0  0  0
 36 33  1  6  0  0  0
 36 35  1  0  0  0  0
 36 34  1  0  0  0  0
 38 45  1  0  0  0  0
 40 51  1  1  0  0  0
 40 44  1  0  0  0  0
 42 46  1  0  0  0  0
 43 40  1  0  0  0  0
 43 42  1  1  0  0  0
 44 41  1  1  0  0  0
 44 46  1  0  0  0  0
 45 50  1  0  0  0  0
 46 37  1  6  0  0  0
 47 52  1  6  0  0  0
 47 49  1  0  0  0  0
 47 43  1  0  0  0  0
 48 38  2  0  0  0  0
 49 39  1  6  0  0  0
 49 54  1  0  0  0  0
 49 43  1  0  0  0  0
 50 44  1  0  0  0  0
 53 38  1  0  0  0  0
 53 40  1  0  0  0  0
 55 54  1  0  0  0  0
M  END
>  <MODEL>
3

>  <REMARK>
 VINA RESULT:      -7.3      2.748      8.535
  Name = 
  10 active torsions:
  status: ('A' for Active; 'I' for Inactive)
    1  A    between atoms: C_2  and  C_28
    2  A    between atoms: C_2  and  C_44
    3  A    between atoms: O_8  and  C_22
    4  A    between atoms: O_8  and  C_43
    5  A    between atoms: C_11  and  C_38
    6  A    between atoms: C_19  and  C_45
    7  A    between atoms: C_27  and  C_54
    8  A    between atoms: C_28  and  C_49
    9  A    between atoms: N_32  and  C_39
   10  A    between atoms: C_51  and  C_54
                            x       y       z     vdW  Elec       q    Type
                         _______ _______ _______ _____ _____    ______ ____

>  <TORSDO>
F 10

$$$$
=
 OpenBabel11052419473D

 55 63  0  0  1  0  0  0  0  0999 V2000
  190.0130  171.7880  142.1250 C   0  0  0  0  0  3  0  0  0  0  0  0
  190.5890  173.4330  144.3230 C   0  0  0  0  0  0  0  0  0  0  0  0
  191.5000  173.3250  143.2710 C   0  0  0  0  0  3  0  0  0  0  0  0
  189.0980  171.8920  143.1800 C   0  0  0  0  0  3  0  0  0  0  0  0
  191.2190  172.5010  142.1720 C   0  0  0  0  0  0  0  0  0  0  0  0
  189.3860  172.7130  144.2780 C   0  0  0  0  0  3  0  0  0  0  0  0
  192.1710  172.4370  141.0290 C   0  0  0  0  0  2  0  0  0  0  0  0
  193.1800  171.3250  141.2780 C   0  0  0  0  0  2  0  0  0  0  0  0
  195.5910  172.0900  145.5530 C   0  0  0  0  0  2  0  0  0  0  0  0
  195.9820  172.1620  139.1230 C   0  0  0  0  0  2  0  0  0  0  0  0
  196.9300  174.1660  145.6880 N   0  0  0  0  0  2  0  0  0  0  0  0
  196.5860  173.0450  143.4480 C   0  0  1  0  0  3  0  0  0  0  0  0
  196.7560  174.3470  144.2360 C   0  0  0  0  0  2  0  0  0  0  0  0
  196.8280  172.7700  146.1370 C   0  0  0  0  0  2  0  0  0  0  0  0
  195.5830  172.1880  144.0900 N   0  0  0  0  0  0  0  0  0  0  0  0
  195.2740  172.8060  141.3980 C   0  0  0  0  0  0  0  0  0  0  0  0
  195.1140  174.3830  139.4700 C   0  0  0  0  0  2  0  0  0  0  0  0
  196.2480  173.3530  142.0640 N   0  0  0  0  0  0  0  0  0  0  0  0
  196.0140  174.4140  138.2500 C   0  0  1  0  0  3  0  0  0  0  0  0
  194.5920  171.4680  143.3300 C   0  0  0  0  0  0  0  0  0  0  0  0
  196.3010  172.9700  137.8720 C   0  0  0  0  0  2  0  0  0  0  0  0
  194.3730  171.8230  142.0440 C   0  0  0  0  0  0  0  0  0  0  0  0
  195.2030  173.0310  139.9860 N   0  0  0  0  0  0  0  0  0  0  0  0
  194.8420  169.2590  144.3330 C   0  0  1  0  0  3  0  0  0  0  0  0
  192.5770  168.2230  143.7280 C   0  0  0  0  0  1  0  0  0  0  0  0
  193.8300  170.3540  144.0280 C   0  0  2  0  0  3  0  0  0  0  0  0
  194.5510  168.6370  145.6910 C   0  0  0  0  0  1  0  0  0  0  0  0
  193.7750  169.0350  143.2670 C   0  0  1  0  0  3  0  0  0  0  0  0
  196.1750  175.9710  136.2240 C   0  0  0  0  0  0  0  0  0  0  0  0
  197.5610  176.0380  136.2970 O   0  0  0  0  0  1  0  0  0  0  0  0
  195.4240  175.1710  137.1490 N   0  0  0  0  0  2  0  0  0  0  0  0
  195.5700  176.5490  135.2790 O   0  0  0  0  0  0  0  0  0  0  0  0
  190.9060  174.3210  145.4820 C   0  0  0  0  0  2  0  0  0  0  0  0
  189.9900  175.2860  147.5900 C   0  0  0  0  0  2  0  0  0  0  0  0
  189.4480  176.0750  146.4160 C   0  0  1  0  0  3  0  0  0  0  0  0
  189.6490  174.5790  146.2950 C   0  0  1  0  0  3  0  0  0  0  0  0
  188.0790  176.3170  146.5930 O   0  0  0  0  0  0  0  0  0  0  0  0
  184.9230  178.1710  142.9880 C   0  0  0  0  0  0  0  0  0  0  0  0
  188.3850  175.6600  141.5430 C   0  0  0  0  0  1  0  0  0  0  0  0
  186.7710  176.7870  143.8670 C   0  0  2  0  0  0  0  0  0  0  0  0
  185.4210  176.7090  146.0640 C   0  0  0  0  0  1  0  0  0  0  0  0
  188.8550  177.7700  144.8620 C   0  0  0  0  0  2  0  0  0  0  0  0
  188.1950  177.3020  143.5780 C   0  0  2  0  0  0  0  0  0  0  0  0
  186.4510  177.4780  145.2220 C   0  0  1  0  0  0  0  0  0  0  0  0
  184.8010  178.8580  144.3040 C   0  0  0  0  0  2  0  0  0  0  0  0
  187.8080  177.5400  145.9550 C   0  0  1  0  0  3  0  0  0  0  0  0
  188.6090  178.1440  142.3540 C   0  0  1  0  0  3  0  0  0  0  0  0
  184.1920  178.5120  142.0230 O   0  0  0  0  0  0  0  0  0  0  0  0
  189.0500  176.6740  142.4750 C   0  0  2  0  0  0  0  0  0  0  0  0
  186.0260  178.8180  145.0090 O   0  0  0  0  0  0  0  0  0  0  0  0
  186.8080  175.3960  144.0290 O   0  0  0  0  0  1  0  0  0  0  0  0
  187.5940  178.2990  141.4060 O   0  0  0  0  0  1  0  0  0  0  0  0
  185.8210  177.1130  142.8470 O   0  0  0  0  0  0  0  0  0  0  0  0
  190.5220  176.4800  142.7870 C   0  0  0  0  0  2  0  0  0  0  0  0
  191.1880  177.7080  142.7620 O   0  0  0  0  0  1  0  0  0  0  0  0
  1  5  2  0  0  0  0
  1  4  1  0  0  0  0
  2 33  1  0  0  0  0
  3  2  2  0  0  0  0
  4  6  2  0  0  0  0
  5  3  1  0  0  0  0
  6  2  1  0  0  0  0
  7  8  1  0  0  0  0
  7  5  1  0  0  0  0
  8 22  1  0  0  0  0
  9 14  1  0  0  0  0
 10 23  1  0  0  0  0
 11 14  1  0  0  0  0
 12 15  1  0  0  0  0
 12 13  1  1  0  0  0
 13 11  1  0  0  0  0
 15  9  1  0  0  0  0
 16 22  1  0  0  0  0
 16 18  2  0  0  0  0
 17 23  1  0  0  0  0
 18 12  1  0  0  0  0
 19 31  1  6  0  0  0
 19 17  1  0  0  0  0
 20 15  1  0  0  0  0
 21 19  1  0  0  0  0
 21 10  1  0  0  0  0
 22 20  2  0  0  0  0
 23 16  1  0  0  0  0
 24 27  1  1  0  0  0
 26 20  1  6  0  0  0
 26 24  1  0  0  0  0
 28 25  1  1  0  0  0
 28 26  1  0  0  0  0
 28 24  1  0  0  0  0
 29 30  1  0  0  0  0
 29 31  1  0  0  0  0
 32 29  2  0  0  0  0
 35 37  1  1  0  0  0
 35 34  1  0  0  0  0
 36 33  1  6  0  0  0
 36 35  1  0  0  0  0
 36 34  1  0  0  0  0
 38 45  1  0  0  0  0
 40 51  1  1  0  0  0
 40 44  1  0  0  0  0
 42 46  1  0  0  0  0
 43 40  1  0  0  0  0
 43 42  1  1  0  0  0
 44 46  1  0  0  0  0
 44 41  1  1  0  0  0
 45 50  1  0  0  0  0
 46 37  1  6  0  0  0
 47 52  1  6  0  0  0
 47 49  1  0  0  0  0
 47 43  1  0  0  0  0
 48 38  2  0  0  0  0
 49 39  1  6  0  0  0
 49 54  1  0  0  0  0
 49 43  1  0  0  0  0
 50 44  1  0  0  0  0
 53 38  1  0  0  0  0
 53 40  1  0  0  0  0
 55 54  1  0  0  0  0
M  END
>  <MODEL>
4

>  <REMARK>
 VINA RESULT:      -7.2      3.745      8.635
  Name = 
  10 active torsions:
  status: ('A' for Active; 'I' for Inactive)
    1  A    between atoms: C_2  and  C_28
    2  A    between atoms: C_2  and  C_44
    3  A    between atoms: O_8  and  C_22
    4  A    between atoms: O_8  and  C_43
    5  A    between atoms: C_11  and  C_38
    6  A    between atoms: C_19  and  C_45
    7  A    between atoms: C_27  and  C_54
    8  A    between atoms: C_28  and  C_49
    9  A    between atoms: N_32  and  C_39
   10  A    between atoms: C_51  and  C_54
                            x       y       z     vdW  Elec       q    Type
                         _______ _______ _______ _____ _____    ______ ____

>  <TORSDO>
F 10

$$$$
=
 OpenBabel11052419473D

 55 63  0  0  1  0  0  0  0  0999 V2000
  190.7380  171.1910  142.5400 C   0  0  0  0  0  3  0  0  0  0  0  0
  192.9160  170.2080  144.0080 C   0  0  0  0  0  0  0  0  0  0  0  0
  192.4270  171.4920  144.2550 C   0  0  0  0  0  3  0  0  0  0  0  0
  191.2280  169.9040  142.2870 C   0  0  0  0  0  3  0  0  0  0  0  0
  191.3400  171.9890  143.5210 C   0  0  0  0  0  0  0  0  0  0  0  0
  192.3170  169.4140  143.0200 C   0  0  0  0  0  3  0  0  0  0  0  0
  190.7890  173.3370  143.8310 C   0  0  0  0  0  2  0  0  0  0  0  0
  189.2830  173.3260  143.6140 C   0  0  0  0  0  2  0  0  0  0  0  0
  186.7960  177.6110  143.9650 C   0  0  0  0  0  2  0  0  0  0  0  0
  190.8380  174.0660  140.4150 C   0  0  0  0  0  2  0  0  0  0  0  0
  185.5990  178.3430  141.9270 N   0  0  0  0  0  2  0  0  0  0  0  0
  187.6990  176.9500  141.7100 C   0  0  1  0  0  3  0  0  0  0  0  0
  186.3150  177.3060  141.1610 C   0  0  0  0  0  2  0  0  0  0  0  0
  186.3080  178.7950  143.1330 C   0  0  0  0  0  2  0  0  0  0  0  0
  187.6280  176.7140  143.1570 N   0  0  0  0  0  0  0  0  0  0  0  0
  188.7530  174.7490  141.5440 C   0  0  0  0  0  0  0  0  0  0  0  0
  188.7500  173.1750  139.6070 C   0  0  0  0  0  2  0  0  0  0  0  0
  188.2310  175.8020  140.9860 N   0  0  0  0  0  0  0  0  0  0  0  0
  189.7490  173.1430  138.4670 C   0  0  1  0  0  3  0  0  0  0  0  0
  188.3280  175.6240  143.7900 C   0  0  0  0  0  0  0  0  0  0  0  0
  191.1190  173.4150  139.0670 C   0  0  0  0  0  2  0  0  0  0  0  0
  188.8000  174.6190  143.0190 C   0  0  0  0  0  0  0  0  0  0  0  0
  189.4410  173.8090  140.7130 N   0  0  0  0  0  0  0  0  0  0  0  0
  189.3750  176.8460  145.6220 C   0  0  1  0  0  3  0  0  0  0  0  0
  189.8540  174.9190  147.2420 C   0  0  0  0  0  1  0  0  0  0  0  0
  188.4810  175.6570  145.3010 C   0  0  2  0  0  3  0  0  0  0  0  0
  188.8940  177.5400  146.8870 C   0  0  0  0  0  1  0  0  0  0  0  0
  189.8970  175.4270  145.8110 C   0  0  1  0  0  3  0  0  0  0  0  0
  190.1010  171.7320  136.3590 C   0  0  0  0  0  0  0  0  0  0  0  0
  190.6130  172.8070  135.6400 O   0  0  0  0  0  0  0  0  0  0  0  0
  189.7050  171.8820  137.7300 N   0  0  0  0  0  2  0  0  0  0  0  0
  190.0660  170.5870  135.8310 O   0  0  0  0  0  1  0  0  0  0  0  0
  194.0710  169.6960  144.8050 C   0  0  0  0  0  2  0  0  0  0  0  0
  195.8280  170.3270  146.4570 C   0  0  0  0  0  2  0  0  0  0  0  0
  195.9160  171.2640  145.2700 C   0  0  1  0  0  3  0  0  0  0  0  0
  194.5660  170.7760  145.7520 C   0  0  1  0  0  3  0  0  0  0  0  0
  196.0850  172.5820  145.7130 O   0  0  0  0  0  0  0  0  0  0  0  0
  196.1660  176.3140  142.1820 C   0  0  0  0  0  0  0  0  0  0  0  0
  194.1690  172.4470  140.9870 C   0  0  0  0  0  1  0  0  0  0  0  0
  195.5050  174.1350  143.1400 C   0  0  2  0  0  0  0  0  0  0  0  0
  195.7350  175.2840  145.4390 C   0  0  0  0  0  1  0  0  0  0  0  0
  197.1480  172.2910  143.5930 C   0  0  0  0  0  2  0  0  0  0  0  0
  196.2180  172.8980  142.5570 C   0  0  2  0  0  0  0  0  0  0  0  0
  196.4510  174.5250  144.3100 C   0  0  1  0  0  0  0  0  0  0  0  0
  197.1400  176.5150  143.2910 C   0  0  0  0  0  2  0  0  0  0  0  0
  197.0020  173.1800  144.8300 C   0  0  1  0  0  3  0  0  0  0  0  0
  196.7670  172.7780  141.1210 C   0  0  1  0  0  3  0  0  0  0  0  0
  196.0670  177.1660  141.2630 O   0  0  0  0  0  0  0  0  0  0  0  0
  195.5160  171.9880  141.5470 C   0  0  2  0  0  0  0  0  0  0  0  0
  197.5590  175.2750  143.8260 O   0  0  0  0  0  0  0  0  0  0  0  0
  194.2530  173.7520  143.6370 O   0  0  0  0  0  1  0  0  0  0  0  0
  196.4370  173.8590  140.2980 O   0  0  0  0  0  1  0  0  0  0  0  0
  195.3300  175.1980  142.1980 O   0  0  0  0  0  0  0  0  0  0  0  0
  195.7370  170.4970  141.7110 C   0  0  0  0  0  2  0  0  0  0  0  0
  194.9470  169.7870  140.8040 O   0  0  0  0  0  1  0  0  0  0  0  0
  1  5  1  0  0  0  0
  2  3  1  0  0  0  0
  2 33  1  0  0  0  0
  4  1  2  0  0  0  0
  4  6  1  0  0  0  0
  5  7  1  0  0  0  0
  5  3  2  0  0  0  0
  6  2  2  0  0  0  0
  8  7  1  0  0  0  0
 10 23  1  0  0  0  0
 11 14  1  0  0  0  0
 12 13  1  6  0  0  0
 12 15  1  0  0  0  0
 13 11  1  0  0  0  0
 14  9  1  0  0  0  0
 15 20  1  0  0  0  0
 15  9  1  0  0  0  0
 16 22  1  0  0  0  0
 17 23  1  0  0  0  0
 18 16  2  0  0  0  0
 18 12  1  0  0  0  0
 19 31  1  1  0  0  0
 19 21  1  0  0  0  0
 19 17  1  0  0  0  0
 21 10  1  0  0  0  0
 22  8  1  0  0  0  0
 22 20  2  0  0  0  0
 23 16  1  0  0  0  0
 24 28  1  0  0  0  0
 24 27  1  1  0  0  0
 26 20  1  6  0  0  0
 26 24  1  0  0  0  0
 26 28  1  0  0  0  0
 28 25  1  1  0  0  0
 29 31  1  0  0  0  0
 30 29  2  0  0  0  0
 32 29  1  0  0  0  0
 35 37  1  1  0  0  0
 35 36  1  0  0  0  0
 35 34  1  0  0  0  0
 36 33  1  6  0  0  0
 36 34  1  0  0  0  0
 38 53  1  0  0  0  0
 38 45  1  0  0  0  0
 40 51  1  1  0  0  0
 40 44  1  0  0  0  0
 42 46  1  0  0  0  0
 43 40  1  0  0  0  0
 43 42  1  1  0  0  0
 44 46  1  0  0  0  0
 44 41  1  1  0  0  0
 45 50  1  0  0  0  0
 46 37  1  1  0  0  0
 47 52  1  6  0  0  0
 47 49  1  0  0  0  0
 47 43  1  0  0  0  0
 48 38  2  0  0  0  0
 49 39  1  6  0  0  0
 49 54  1  0  0  0  0
 49 43  1  0  0  0  0
 50 44  1  0  0  0  0
 53 40  1  0  0  0  0
 55 54  1  0  0  0  0
M  END
>  <MODEL>
5

>  <REMARK>
 VINA RESULT:      -7.0      2.410      5.541
  Name = 
  10 active torsions:
  status: ('A' for Active; 'I' for Inactive)
    1  A    between atoms: C_2  and  C_28
    2  A    between atoms: C_2  and  C_44
    3  A    between atoms: O_8  and  C_22
    4  A    between atoms: O_8  and  C_43
    5  A    between atoms: C_11  and  C_38
    6  A    between atoms: C_19  and  C_45
    7  A    between atoms: C_27  and  C_54
    8  A    between atoms: C_28  and  C_49
    9  A    between atoms: N_32  and  C_39
   10  A    between atoms: C_51  and  C_54
                            x       y       z     vdW  Elec       q    Type
                         _______ _______ _______ _____ _____    ______ ____

>  <TORSDO>
F 10

$$$$
=
 OpenBabel11052419473D

 55 63  0  0  1  0  0  0  0  0999 V2000
  192.9380  169.7310  140.8370 C   0  0  0  0  0  3  0  0  0  0  0  0
  190.5760  171.1430  141.3750 C   0  0  0  0  0  0  0  0  0  0  0  0
  191.6590  171.2300  142.2510 C   0  0  0  0  0  3  0  0  0  0  0  0
  191.8520  169.6380  139.9580 C   0  0  0  0  0  3  0  0  0  0  0  0
  192.8410  170.5230  141.9890 C   0  0  0  0  0  0  0  0  0  0  0  0
  190.6720  170.3430  140.2280 C   0  0  0  0  0  3  0  0  0  0  0  0
  194.0110  170.6680  142.8980 C   0  0  0  0  0  2  0  0  0  0  0  0
  195.0410  171.5810  142.2490 C   0  0  0  0  0  2  0  0  0  0  0  0
  194.0600  175.3740  145.3030 C   0  0  0  0  0  2  0  0  0  0  0  0
  195.4230  173.6080  139.2590 C   0  0  0  0  0  2  0  0  0  0  0  0
  192.4210  177.0350  144.4800 N   0  0  0  0  0  2  0  0  0  0  0  0
  193.8520  175.7680  142.8250 C   0  0  1  0  0  3  0  0  0  0  0  0
  192.5050  176.4230  143.1410 C   0  0  0  0  0  2  0  0  0  0  0  0
  193.6190  176.8360  145.3080 C   0  0  0  0  0  2  0  0  0  0  0  0
  194.2680  174.8980  143.9320 N   0  0  0  0  0  0  0  0  0  0  0  0
  194.1620  173.8270  141.3690 C   0  0  0  0  0  0  0  0  0  0  0  0
  193.0310  173.3230  139.2020 C   0  0  0  0  0  2  0  0  0  0  0  0
  193.7600  175.0500  141.5600 N   0  0  0  0  0  0  0  0  0  0  0  0
  193.4870  173.7550  137.8210 C   0  0  1  0  0  3  0  0  0  0  0  0
  194.8480  173.5970  143.7070 C   0  0  0  0  0  0  0  0  0  0  0  0
  195.0020  173.6330  137.7950 C   0  0  0  0  0  2  0  0  0  0  0  0
  194.7220  173.0310  142.4860 C   0  0  0  0  0  0  0  0  0  0  0  0
  194.2230  173.3320  140.0270 N   0  0  0  0  0  0  0  0  0  0  0  0
  196.8730  173.6630  145.0640 C   0  0  1  0  0  3  0  0  0  0  0  0
  197.1880  171.1640  145.5360 C   0  0  0  0  0  1  0  0  0  0  0  0
  195.5580  172.9230  144.8680 C   0  0  2  0  0  3  0  0  0  0  0  0
  197.1900  173.7900  146.5460 C   0  0  0  0  0  1  0  0  0  0  0  0
  196.8730  172.2410  144.5130 C   0  0  1  0  0  3  0  0  0  0  0  0
  191.5810  173.3080  136.1700 C   0  0  0  0  0  0  0  0  0  0  0  0
  190.8870  174.4500  136.5530 O   0  0  0  0  0  1  0  0  0  0  0  0
  192.8470  172.9790  136.7620 N   0  0  0  0  0  2  0  0  0  0  0  0
  191.1400  172.5950  135.2280 O   0  0  0  0  0  0  0  0  0  0  0  0
  189.3280  171.9090  141.6710 C   0  0  0  0  0  2  0  0  0  0  0  0
  189.5320  173.8240  140.0880 C   0  0  0  0  0  2  0  0  0  0  0  0
  188.3470  174.0690  140.9990 C   0  0  1  0  0  3  0  0  0  0  0  0
  189.5930  173.3990  141.5410 C   0  0  1  0  0  3  0  0  0  0  0  0
  188.3440  175.4010  141.4340 O   0  0  0  0  0  0  0  0  0  0  0  0
  185.7180  179.2180  143.6540 C   0  0  0  0  0  0  0  0  0  0  0  0
  189.3310  177.6880  145.8870 C   0  0  0  0  0  1  0  0  0  0  0  0
  187.6010  177.6420  143.3810 C   0  0  2  0  0  0  0  0  0  0  0  0
  187.0990  177.7690  140.8530 C   0  0  0  0  0  1  0  0  0  0  0  0
  187.3360  175.1540  143.5870 C   0  0  0  0  0  2  0  0  0  0  0  0
  187.6180  176.4390  144.3450 C   0  0  2  0  0  0  0  0  0  0  0  0
  186.7720  177.0840  142.1900 C   0  0  1  0  0  0  0  0  0  0  0  0
  184.9630  178.5140  142.5810 C   0  0  0  0  0  2  0  0  0  0  0  0
  187.1370  175.5850  142.1320 C   0  0  1  0  0  3  0  0  0  0  0  0
  187.0320  176.4290  145.7720 C   0  0  1  0  0  3  0  0  0  0  0  0
  185.2000  180.1880  144.2640 O   0  0  0  0  0  0  0  0  0  0  0  0
  188.5560  176.4120  145.5540 C   0  0  2  0  0  0  0  0  0  0  0  0
  185.3800  177.1670  142.4700 O   0  0  0  0  0  0  0  0  0  0  0  0
  188.9110  177.9220  142.9710 O   0  0  0  0  0  1  0  0  0  0  0  0
  186.5900  177.6810  146.2090 O   0  0  0  0  0  1  0  0  0  0  0  0
  187.0250  178.8250  143.9440 O   0  0  0  0  0  0  0  0  0  0  0  0
  189.2230  175.0850  145.8630 C   0  0  0  0  0  2  0  0  0  0  0  0
  189.2900  174.8880  147.2440 O   0  0  0  0  0  1  0  0  0  0  0  0
  1  5  1  0  0  0  0
  2 33  1  0  0  0  0
  2  3  1  0  0  0  0
  4  6  1  0  0  0  0
  4  1  2  0  0  0  0
  5  3  2  0  0  0  0
  5  7  1  0  0  0  0
  6  2  2  0  0  0  0
  8 22  1  0  0  0  0
  8  7  1  0  0  0  0
  9 14  1  0  0  0  0
 10 23  1  0  0  0  0
 11 14  1  0  0  0  0
 12 13  1  1  0  0  0
 12 15  1  0  0  0  0
 13 11  1  0  0  0  0
 15  9  1  0  0  0  0
 16 18  2  0  0  0  0
 16 22  1  0  0  0  0
 17 23  1  0  0  0  0
 18 12  1  0  0  0  0
 19 31  1  6  0  0  0
 19 17  1  0  0  0  0
 20 15  1  0  0  0  0
 21 19  1  0  0  0  0
 21 10  1  0  0  0  0
 22 20  2  0  0  0  0
 23 16  1  0  0  0  0
 24 27  1  1  0  0  0
 26 20  1  6  0  0  0
 26 24  1  0  0  0  0
 28 26  1  0  0  0  0
 28 24  1  0  0  0  0
 28 25  1  1  0  0  0
 29 30  1  0  0  0  0
 29 31  1  0  0  0  0
 32 29  2  0  0  0  0
 34 35  1  0  0  0  0
 34 36  1  0  0  0  0
 35 37  1  1  0  0  0
 35 36  1  0  0  0  0
 36 33  1  6  0  0  0
 38 53  1  0  0  0  0
 38 48  2  0  0  0  0
 40 51  1  6  0  0  0
 40 53  1  0  0  0  0
 40 43  1  0  0  0  0
 43 42  1  6  0  0  0
 43 49  1  0  0  0  0
 43 47  1  0  0  0  0
 44 41  1  6  0  0  0
 44 50  1  0  0  0  0
 44 40  1  0  0  0  0
 45 38  1  0  0  0  0
 46 37  1  6  0  0  0
 46 44  1  0  0  0  0
 46 42  1  0  0  0  0
 47 52  1  1  0  0  0
 49 47  1  0  0  0  0
 49 54  1  0  0  0  0
 49 39  1  1  0  0  0
 50 45  1  0  0  0  0
 54 55  1  0  0  0  0
M  END
>  <MODEL>
6

>  <REMARK>
 VINA RESULT:      -7.0      2.924      7.985
  Name = 
  10 active torsions:
  status: ('A' for Active; 'I' for Inactive)
    1  A    between atoms: C_2  and  C_28
    2  A    between atoms: C_2  and  C_44
    3  A    between atoms: O_8  and  C_22
    4  A    between atoms: O_8  and  C_43
    5  A    between atoms: C_11  and  C_38
    6  A    between atoms: C_19  and  C_45
    7  A    between atoms: C_27  and  C_54
    8  A    between atoms: C_28  and  C_49
    9  A    between atoms: N_32  and  C_39
   10  A    between atoms: C_51  and  C_54
                            x       y       z     vdW  Elec       q    Type
                         _______ _______ _______ _____ _____    ______ ____

>  <TORSDO>
F 10

$$$$
=
 OpenBabel11052419473D

 55 63  0  0  1  0  0  0  0  0999 V2000
  194.6940  175.1340  144.9180 C   0  0  0  0  0  3  0  0  0  0  0  0
  192.4290  175.7390  146.4570 C   0  0  0  0  0  0  0  0  0  0  0  0
  192.4230  174.6320  145.6070 C   0  0  0  0  0  3  0  0  0  0  0  0
  194.7030  176.2470  145.7670 C   0  0  0  0  0  3  0  0  0  0  0  0
  193.5520  174.3270  144.8330 C   0  0  0  0  0  0  0  0  0  0  0  0
  193.5710  176.5500  146.5350 C   0  0  0  0  0  3  0  0  0  0  0  0
  193.5560  173.1110  143.9730 C   0  0  0  0  0  2  0  0  0  0  0  0
  194.6190  173.2640  142.8940 C   0  0  0  0  0  2  0  0  0  0  0  0
  197.6880  169.5080  141.8210 C   0  0  0  0  0  2  0  0  0  0  0  0
  191.6360  171.6990  141.5350 C   0  0  0  0  0  2  0  0  0  0  0  0
  197.4820  168.5530  139.5480 N   0  0  0  0  0  2  0  0  0  0  0  0
  195.4560  169.5790  140.6600 C   0  0  1  0  0  3  0  0  0  0  0  0
  196.2300  169.3100  139.3670 C   0  0  0  0  0  2  0  0  0  0  0  0
  197.8090  168.2590  140.9510 C   0  0  0  0  0  2  0  0  0  0  0  0
  196.3550  170.1060  141.6920 N   0  0  0  0  0  0  0  0  0  0  0  0
  194.0560  171.5410  141.0760 C   0  0  0  0  0  0  0  0  0  0  0  0
  192.4870  172.6830  139.5070 C   0  0  0  0  0  2  0  0  0  0  0  0
  194.3420  170.4780  140.3830 N   0  0  0  0  0  0  0  0  0  0  0  0
  191.0220  172.3530  139.2920 C   0  0  1  0  0  3  0  0  0  0  0  0
  195.9740  171.1960  142.5560 C   0  0  0  0  0  0  0  0  0  0  0  0
  190.4360  172.0240  140.6560 C   0  0  0  0  0  2  0  0  0  0  0  0
  194.9090  171.9550  142.2150 C   0  0  0  0  0  0  0  0  0  0  0  0
  192.8060  172.1960  140.8340 N   0  0  0  0  0  0  0  0  0  0  0  0
  196.6270  170.2280  144.6970 C   0  0  1  0  0  3  0  0  0  0  0  0
  196.8170  172.3500  146.1200 C   0  0  0  0  0  1  0  0  0  0  0  0
  196.8090  171.4440  143.8010 C   0  0  2  0  0  3  0  0  0  0  0  0
  197.9400  169.8780  145.3820 C   0  0  0  0  0  1  0  0  0  0  0  0
  196.0160  171.5660  145.0960 C   0  0  1  0  0  3  0  0  0  0  0  0
  189.5000  173.2680  137.4480 C   0  0  0  0  0  0  0  0  0  0  0  0
  189.3120  172.0120  136.8830 O   0  0  0  0  0  0  0  0  0  0  0  0
  190.3050  173.4360  138.6230 N   0  0  0  0  0  2  0  0  0  0  0  0
  188.8850  174.2630  136.9760 O   0  0  0  0  0  1  0  0  0  0  0  0
  191.2190  176.0430  147.2780 C   0  0  0  0  0  2  0  0  0  0  0  0
  189.1200  174.7580  147.6750 C   0  0  0  0  0  2  0  0  0  0  0  0
  188.7580  176.1350  147.1590 C   0  0  1  0  0  3  0  0  0  0  0  0
  189.9890  175.4280  146.6320 C   0  0  1  0  0  3  0  0  0  0  0  0
  187.7500  176.0340  146.1910 O   0  0  0  0  0  0  0  0  0  0  0  0
  185.0390  178.3460  142.4890 C   0  0  0  0  0  0  0  0  0  0  0  0
  188.1880  175.4030  141.1480 C   0  0  0  0  0  1  0  0  0  0  0  0
  186.6410  176.7110  143.4210 C   0  0  2  0  0  0  0  0  0  0  0  0
  185.1960  176.7910  145.5570 C   0  0  0  0  0  1  0  0  0  0  0  0
  188.7930  177.3880  144.5220 C   0  0  0  0  0  2  0  0  0  0  0  0
  188.1330  177.0310  143.2020 C   0  0  2  0  0  0  0  0  0  0  0  0
  186.3580  177.4230  144.7730 C   0  0  1  0  0  0  0  0  0  0  0  0
  184.9530  179.0260  143.8120 C   0  0  0  0  0  2  0  0  0  0  0  0
  187.6770  177.2900  145.5650 C   0  0  1  0  0  3  0  0  0  0  0  0
  188.7120  177.8230  142.0130 C   0  0  1  0  0  3  0  0  0  0  0  0
  184.4040  178.7950  141.5010 O   0  0  0  0  0  0  0  0  0  0  0  0
  188.9430  176.3060  142.1250 C   0  0  2  0  0  0  0  0  0  0  0  0
  186.1280  178.8110  144.5680 O   0  0  0  0  0  0  0  0  0  0  0  0
  186.4810  175.3270  143.5590 O   0  0  0  0  0  1  0  0  0  0  0  0
  187.7700  178.1280  141.0250 O   0  0  0  0  0  1  0  0  0  0  0  0
  185.7900  177.1770  142.3680 O   0  0  0  0  0  0  0  0  0  0  0  0
  190.3590  175.9090  142.4950 C   0  0  0  0  0  2  0  0  0  0  0  0
  190.3850  174.5960  142.9710 O   0  0  0  0  0  1  0  0  0  0  0  0
  1  4  1  0  0  0  0
  2  6  1  0  0  0  0
  2 33  1  0  0  0  0
  3  2  2  0  0  0  0
  4  6  2  0  0  0  0
  5  1  2  0  0  0  0
  5  3  1  0  0  0  0
  7  5  1  0  0  0  0
  8  7  1  0  0  0  0
 11 14  1  0  0  0  0
 12 13  1  6  0  0  0
 12 15  1  0  0  0  0
 13 11  1  0  0  0  0
 14  9  1  0  0  0  0
 15  9  1  0  0  0  0
 15 20  1  0  0  0  0
 16 22  1  0  0  0  0
 17 23  1  0  0  0  0
 18 12  1  0  0  0  0
 18 16  2  0  0  0  0
 19 31  1  1  0  0  0
 19 17  1  0  0  0  0
 19 21  1  0  0  0  0
 21 10  1  0  0  0  0
 22 20  2  0  0  0  0
 22  8  1  0  0  0  0
 23 16  1  0  0  0  0
 23 10  1  0  0  0  0
 24 28  1  0  0  0  0
 24 27  1  1  0  0  0
 26 20  1  6  0  0  0
 26 24  1  0  0  0  0
 26 28  1  0  0  0  0
 28 25  1  1  0  0  0
 29 31  1  0  0  0  0
 30 29  2  0  0  0  0
 32 29  1  0  0  0  0
 35 37  1  6  0  0  0
 35 34  1  0  0  0  0
 36 35  1  0  0  0  0
 36 33  1  1  0  0  0
 36 34  1  0  0  0  0
 38 45  1  0  0  0  0
 40 51  1  1  0  0  0
 40 44  1  0  0  0  0
 42 46  1  0  0  0  0
 43 40  1  0  0  0  0
 43 42  1  1  0  0  0
 44 41  1  1  0  0  0
 44 46  1  0  0  0  0
 45 50  1  0  0  0  0
 46 37  1  6  0  0  0
 47 52  1  6  0  0  0
 47 49  1  0  0  0  0
 47 43  1  0  0  0  0
 48 38  2  0  0  0  0
 49 39  1  6  0  0  0
 49 54  1  0  0  0  0
 49 43  1  0  0  0  0
 50 44  1  0  0  0  0
 53 38  1  0  0  0  0
 53 40  1  0  0  0  0
 54 55  1  0  0  0  0
M  END
>  <MODEL>
7

>  <REMARK>
 VINA RESULT:      -6.9      3.291      8.974
  Name = 
  10 active torsions:
  status: ('A' for Active; 'I' for Inactive)
    1  A    between atoms: C_2  and  C_28
    2  A    between atoms: C_2  and  C_44
    3  A    between atoms: O_8  and  C_22
    4  A    between atoms: O_8  and  C_43
    5  A    between atoms: C_11  and  C_38
    6  A    between atoms: C_19  and  C_45
    7  A    between atoms: C_27  and  C_54
    8  A    between atoms: C_28  and  C_49
    9  A    between atoms: N_32  and  C_39
   10  A    between atoms: C_51  and  C_54
                            x       y       z     vdW  Elec       q    Type
                         _______ _______ _______ _____ _____    ______ ____

>  <TORSDO>
F 10

$$$$
=
 OpenBabel11052419473D

 55 63  0  0  1  0  0  0  0  0999 V2000
  194.4220  174.2730  143.9540 C   0  0  0  0  0  3  0  0  0  0  0  0
  192.5730  175.4650  145.6940 C   0  0  0  0  0  0  0  0  0  0  0  0
  192.6270  175.8550  144.3540 C   0  0  0  0  0  3  0  0  0  0  0  0
  194.3730  173.8820  145.2980 C   0  0  0  0  0  3  0  0  0  0  0  0
  193.5520  175.2640  143.4810 C   0  0  0  0  0  0  0  0  0  0  0  0
  193.4500  174.4780  146.1670 C   0  0  0  0  0  3  0  0  0  0  0  0
  193.5630  175.6460  142.0420 C   0  0  0  0  0  2  0  0  0  0  0  0
  194.4270  174.6600  141.2690 C   0  0  0  0  0  2  0  0  0  0  0  0
  193.9910  175.4330  136.3810 C   0  0  0  0  0  2  0  0  0  0  0  0
  192.5280  171.5630  141.3200 C   0  0  0  0  0  2  0  0  0  0  0  0
  191.7270  175.1260  135.4310 N   0  0  0  0  0  2  0  0  0  0  0  0
  192.4200  173.7900  137.4630 C   0  0  1  0  0  3  0  0  0  0  0  0
  191.3020  174.5050  136.6990 C   0  0  0  0  0  2  0  0  0  0  0  0
  193.1680  175.0200  135.1630 C   0  0  0  0  0  2  0  0  0  0  0  0
  193.6030  174.6520  137.5600 N   0  0  0  0  0  0  0  0  0  0  0  0
  192.5460  173.5790  139.8960 C   0  0  0  0  0  0  0  0  0  0  0  0
  190.6960  173.1170  141.5070 C   0  0  0  0  0  2  0  0  0  0  0  0
  191.9280  173.3730  138.7700 N   0  0  0  0  0  0  0  0  0  0  0  0
  190.2050  171.7530  141.9540 C   0  0  1  0  0  3  0  0  0  0  0  0
  194.3700  174.7650  138.7760 C   0  0  0  0  0  0  0  0  0  0  0  0
  191.4320  170.8710  142.1190 C   0  0  0  0  0  2  0  0  0  0  0  0
  193.8250  174.3260  139.9330 C   0  0  0  0  0  0  0  0  0  0  0  0
  192.0630  172.9150  141.0690 N   0  0  0  0  0  0  0  0  0  0  0  0
  196.6660  174.3500  138.0670 C   0  0  1  0  0  3  0  0  0  0  0  0
  197.9410  175.6960  139.8360 C   0  0  0  0  0  1  0  0  0  0  0  0
  195.7510  175.3930  138.6920 C   0  0  2  0  0  3  0  0  0  0  0  0
  197.6540  175.0160  137.1210 C   0  0  0  0  0  1  0  0  0  0  0  0
  196.8200  174.7150  139.5390 C   0  0  1  0  0  3  0  0  0  0  0  0
  189.9330  172.1320  144.4710 C   0  0  0  0  0  0  0  0  0  0  0  0
  191.2800  172.4300  144.6430 O   0  0  0  0  0  0  0  0  0  0  0  0
  189.4040  171.8280  143.1730 N   0  0  0  0  0  2  0  0  0  0  0  0
  189.1440  172.2160  145.4520 O   0  0  0  0  0  1  0  0  0  0  0  0
  191.5760  176.1030  146.6050 C   0  0  0  0  0  2  0  0  0  0  0  0
  189.6300  174.9310  147.6310 C   0  0  0  0  0  2  0  0  0  0  0  0
  189.1820  176.3000  147.1610 C   0  0  1  0  0  3  0  0  0  0  0  0
  190.1970  175.5160  146.3550 C   0  0  1  0  0  3  0  0  0  0  0  0
  187.9440  176.2010  146.5130 O   0  0  0  0  0  0  0  0  0  0  0  0
  184.2300  178.5720  143.8700 C   0  0  0  0  0  0  0  0  0  0  0  0
  187.1190  176.0590  141.4800 C   0  0  0  0  0  1  0  0  0  0  0  0
  186.1210  177.0150  144.1940 C   0  0  2  0  0  0  0  0  0  0  0  0
  185.2680  176.7750  146.6170 C   0  0  0  0  0  1  0  0  0  0  0  0
  188.4330  177.7870  144.7940 C   0  0  0  0  0  2  0  0  0  0  0  0
  187.4830  177.4870  143.6470 C   0  0  2  0  0  0  0  0  0  0  0  0
  186.1470  177.5760  145.6430 C   0  0  1  0  0  0  0  0  0  0  0  0
  184.4400  179.1230  145.2380 C   0  0  0  0  0  2  0  0  0  0  0  0
  187.6300  177.4960  146.0630 C   0  0  1  0  0  3  0  0  0  0  0  0
  187.6850  178.4310  142.4450 C   0  0  1  0  0  3  0  0  0  0  0  0
  183.3350  179.0460  143.1240 O   0  0  0  0  0  0  0  0  0  0  0  0
  188.0370  176.9370  142.3320 C   0  0  2  0  0  0  0  0  0  0  0  0
  185.7810  178.9510  145.6510 O   0  0  0  0  0  0  0  0  0  0  0  0
  186.0940  175.6150  144.2170 O   0  0  0  0  0  1  0  0  0  0  0  0
  186.5040  178.7340  141.7600 O   0  0  0  0  0  1  0  0  0  0  0  0
  185.0010  177.4910  143.4410 O   0  0  0  0  0  0  0  0  0  0  0  0
  189.5240  176.6400  142.2950 C   0  0  0  0  0  2  0  0  0  0  0  0
  190.2500  177.7480  142.7400 O   0  0  0  0  0  1  0  0  0  0  0  0
  1  4  1  0  0  0  0
  2  6  1  0  0  0  0
  2 33  1  0  0  0  0
  3  2  2  0  0  0  0
  4  6  2  0  0  0  0
  5  1  2  0  0  0  0
  5  3  1  0  0  0  0
  7  5  1  0  0  0  0
  8  7  1  0  0  0  0
  9 15  1  0  0  0  0
 10 21  1  0  0  0  0
 11 13  1  0  0  0  0
 12 13  1  1  0  0  0
 12 15  1  0  0  0  0
 12 18  1  0  0  0  0
 14 11  1  0  0  0  0
 14  9  1  0  0  0  0
 15 20  1  0  0  0  0
 16 22  1  0  0  0  0
 16 23  1  0  0  0  0
 17 19  1  0  0  0  0
 18 16  2  0  0  0  0
 19 21  1  0  0  0  0
 19 31  1  1  0  0  0
 20 22  2  0  0  0  0
 22  8  1  0  0  0  0
 23 10  1  0  0  0  0
 23 17  1  0  0  0  0
 24 27  1  6  0  0  0
 24 26  1  0  0  0  0
 24 28  1  0  0  0  0
 26 20  1  1  0  0  0
 26 28  1  0  0  0  0
 28 25  1  6  0  0  0
 29 30  2  0  0  0  0
 29 32  1  0  0  0  0
 31 29  1  0  0  0  0
 35 37  1  6  0  0  0
 35 34  1  0  0  0  0
 36 33  1  1  0  0  0
 36 35  1  0  0  0  0
 36 34  1  0  0  0  0
 38 45  1  0  0  0  0
 40 51  1  1  0  0  0
 40 44  1  0  0  0  0
 42 46  1  0  0  0  0
 43 40  1  0  0  0  0
 43 42  1  1  0  0  0
 44 50  1  0  0  0  0
 44 46  1  0  0  0  0
 44 41  1  1  0  0  0
 45 50  1  0  0  0  0
 46 37  1  6  0  0  0
 47 52  1  6  0  0  0
 47 43  1  0  0  0  0
 48 38  2  0  0  0  0
 49 39  1  6  0  0  0
 49 47  1  0  0  0  0
 49 43  1  0  0  0  0
 53 38  1  0  0  0  0
 53 40  1  0  0  0  0
 54 49  1  0  0  0  0
 54 55  1  0  0  0  0
M  END
>  <MODEL>
8

>  <REMARK>
 VINA RESULT:      -6.8      3.338      8.574
  Name = 
  10 active torsions:
  status: ('A' for Active; 'I' for Inactive)
    1  A    between atoms: C_2  and  C_28
    2  A    between atoms: C_2  and  C_44
    3  A    between atoms: O_8  and  C_22
    4  A    between atoms: O_8  and  C_43
    5  A    between atoms: C_11  and  C_38
    6  A    between atoms: C_19  and  C_45
    7  A    between atoms: C_27  and  C_54
    8  A    between atoms: C_28  and  C_49
    9  A    between atoms: N_32  and  C_39
   10  A    between atoms: C_51  and  C_54
                            x       y       z     vdW  Elec       q    Type
                         _______ _______ _______ _____ _____    ______ ____

>  <TORSDO>
F 10

$$$$
=
 OpenBabel11052419473D

 55 63  0  0  1  0  0  0  0  0999 V2000
  191.7480  171.0410  143.1680 C   0  0  0  0  0  3  0  0  0  0  0  0
  190.3870  171.8390  140.8490 C   0  0  0  0  0  0  0  0  0  0  0  0
  191.5950  171.1460  140.7490 C   0  0  0  0  0  3  0  0  0  0  0  0
  190.5390  171.7380  143.2720 C   0  0  0  0  0  3  0  0  0  0  0  0
  192.2810  170.7480  141.9050 C   0  0  0  0  0  0  0  0  0  0  0  0
  189.8590  172.1380  142.1140 C   0  0  0  0  0  3  0  0  0  0  0  0
  193.5390  169.9600  141.7870 C   0  0  0  0  0  2  0  0  0  0  0  0
  194.5750  170.7790  141.0310 C   0  0  0  0  0  2  0  0  0  0  0  0
  195.6600  173.1470  145.2610 C   0  0  0  0  0  2  0  0  0  0  0  0
  195.5130  173.5130  138.8310 C   0  0  0  0  0  2  0  0  0  0  0  0
  194.8430  175.4750  145.4430 N   0  0  0  0  0  2  0  0  0  0  0  0
  195.4040  174.5230  143.1690 C   0  0  1  0  0  3  0  0  0  0  0  0
  194.5190  175.4510  144.0040 C   0  0  0  0  0  2  0  0  0  0  0  0
  195.9070  174.5400  145.8350 C   0  0  0  0  0  2  0  0  0  0  0  0
  195.5030  173.2040  143.8040 N   0  0  0  0  0  0  0  0  0  0  0  0
  194.6880  173.3410  141.1500 C   0  0  0  0  0  0  0  0  0  0  0  0
  193.2450  174.1820  139.2960 C   0  0  0  0  0  2  0  0  0  0  0  0
  194.8840  174.4460  141.8090 N   0  0  0  0  0  0  0  0  0  0  0  0
  193.7070  174.9160  138.0510 C   0  0  1  0  0  3  0  0  0  0  0  0
  195.4290  171.9800  143.0450 C   0  0  0  0  0  0  0  0  0  0  0  0
  195.0050  174.2620  137.6050 C   0  0  0  0  0  2  0  0  0  0  0  0
  194.9490  172.0260  141.7820 C   0  0  0  0  0  0  0  0  0  0  0  0
  194.3950  173.4260  139.7520 N   0  0  0  0  0  0  0  0  0  0  0  0
  197.3580  170.8690  144.0410 C   0  0  1  0  0  3  0  0  0  0  0  0
  196.8800  168.4410  143.3760 C   0  0  0  0  0  1  0  0  0  0  0  0
  195.8810  170.6950  143.7170 C   0  0  2  0  0  3  0  0  0  0  0  0
  197.6790  170.2390  145.3880 C   0  0  0  0  0  1  0  0  0  0  0  0
  196.9260  169.8970  142.9490 C   0  0  1  0  0  3  0  0  0  0  0  0
  192.5360  175.9540  136.0250 C   0  0  0  0  0  0  0  0  0  0  0  0
  193.4010  177.0410  135.9930 O   0  0  0  0  0  1  0  0  0  0  0  0
  192.6920  174.9130  137.0010 N   0  0  0  0  0  2  0  0  0  0  0  0
  191.6540  175.8300  135.1310 O   0  0  0  0  0  0  0  0  0  0  0  0
  189.6690  172.2490  139.6050 C   0  0  0  0  0  2  0  0  0  0  0  0
  188.4480  174.1640  138.5770 C   0  0  0  0  0  2  0  0  0  0  0  0
  188.1370  174.1250  140.0590 C   0  0  1  0  0  3  0  0  0  0  0  0
  189.5210  173.7600  139.5670 C   0  0  1  0  0  3  0  0  0  0  0  0
  188.1920  175.4200  140.5930 O   0  0  0  0  0  0  0  0  0  0  0  0
  185.9900  178.8400  143.7310 C   0  0  0  0  0  0  0  0  0  0  0  0
  190.3610  177.9690  144.4440 C   0  0  0  0  0  1  0  0  0  0  0  0
  187.8670  177.5740  142.7420 C   0  0  2  0  0  0  0  0  0  0  0  0
  186.4630  177.5430  140.5780 C   0  0  0  0  0  1  0  0  0  0  0  0
  188.0920  175.0820  142.9570 C   0  0  0  0  0  2  0  0  0  0  0  0
  188.4250  176.4190  143.5980 C   0  0  2  0  0  0  0  0  0  0  0  0
  186.7600  176.8560  141.9210 C   0  0  1  0  0  0  0  0  0  0  0  0
  185.0170  177.9930  142.9870 C   0  0  0  0  0  2  0  0  0  0  0  0
  187.3110  175.4330  141.6880 C   0  0  1  0  0  3  0  0  0  0  0  0
  188.4100  176.3600  145.1380 C   0  0  1  0  0  3  0  0  0  0  0  0
  185.5840  179.7340  144.5170 O   0  0  0  0  0  0  0  0  0  0  0  0
  189.7310  176.5770  144.3780 C   0  0  2  0  0  0  0  0  0  0  0  0
  185.5720  176.7260  142.6920 O   0  0  0  0  0  0  0  0  0  0  0  0
  188.8740  178.0440  141.8910 O   0  0  0  0  0  1  0  0  0  0  0  0
  187.9660  177.5390  145.7440 O   0  0  0  0  0  1  0  0  0  0  0  0
  187.3560  178.6670  143.5120 O   0  0  0  0  0  0  0  0  0  0  0  0
  190.6660  175.3830  144.3830 C   0  0  0  0  0  2  0  0  0  0  0  0
  191.3000  175.2690  145.6230 O   0  0  0  0  0  1  0  0  0  0  0  0
  1  4  1  0  0  0  0
  2  6  1  0  0  0  0
  3  2  2  0  0  0  0
  3  5  1  0  0  0  0
  5  1  2  0  0  0  0
  6  4  2  0  0  0  0
  7  5  1  0  0  0  0
  8 22  1  0  0  0  0
  8  7  1  0  0  0  0
  9 14  1  0  0  0  0
 10 23  1  0  0  0  0
 11 14  1  0  0  0  0
 12 15  1  0  0  0  0
 12 13  1  1  0  0  0
 13 11  1  0  0  0  0
 15  9  1  0  0  0  0
 16 22  1  0  0  0  0
 16 18  2  0  0  0  0
 17 23  1  0  0  0  0
 18 12  1  0  0  0  0
 19 31  1  6  0  0  0
 19 17  1  0  0  0  0
 20 15  1  0  0  0  0
 21 19  1  0  0  0  0
 21 10  1  0  0  0  0
 22 20  2  0  0  0  0
 23 16  1  0  0  0  0
 24 27  1  1  0  0  0
 26 20  1  6  0  0  0
 26 24  1  0  0  0  0
 28 25  1  1  0  0  0
 28 26  1  0  0  0  0
 28 24  1  0  0  0  0
 29 31  1  0  0  0  0
 30 29  1  0  0  0  0
 32 29  2  0  0  0  0
 33  2  1  0  0  0  0
 34 36  1  0  0  0  0
 34 35  1  0  0  0  0
 35 37  1  1  0  0  0
 36 33  1  6  0  0  0
 36 35  1  0  0  0  0
 38 48  2  0  0  0  0
 40 51  1  6  0  0  0
 40 53  1  0  0  0  0
 40 43  1  0  0  0  0
 43 42  1  6  0  0  0
 43 49  1  0  0  0  0
 43 47  1  0  0  0  0
 44 41  1  6  0  0  0
 44 50  1  0  0  0  0
 44 40  1  0  0  0  0
 45 38  1  0  0  0  0
 46 37  1  6  0  0  0
 46 44  1  0  0  0  0
 46 42  1  0  0  0  0
 47 52  1  1  0  0  0
 49 54  1  0  0  0  0
 49 39  1  1  0  0  0
 49 47  1  0  0  0  0
 50 45  1  0  0  0  0
 53 38  1  0  0  0  0
 54 55  1  0  0  0  0
M  END
>  <MODEL>
9

>  <REMARK>
 VINA RESULT:      -6.8      3.158      8.406
  Name = 
  10 active torsions:
  status: ('A' for Active; 'I' for Inactive)
    1  A    between atoms: C_2  and  C_28
    2  A    between atoms: C_2  and  C_44
    3  A    between atoms: O_8  and  C_22
    4  A    between atoms: O_8  and  C_43
    5  A    between atoms: C_11  and  C_38
    6  A    between atoms: C_19  and  C_45
    7  A    between atoms: C_27  and  C_54
    8  A    between atoms: C_28  and  C_49
    9  A    between atoms: N_32  and  C_39
   10  A    between atoms: C_51  and  C_54
                            x       y       z     vdW  Elec       q    Type
                         _______ _______ _______ _____ _____    ______ ____

>  <TORSDO>
F 10

$$$$
