=
 OpenBabel11052420263D

 34 39  0  0  0  0  0  0  0  0999 V2000
  195.1320  174.2260  145.1450 C   0  0  0  0  0  0  0  0  0  0  0  0
  197.7780  171.5800  144.5530 C   0  0  0  0  0  3  0  0  0  0  0  0
  197.6410  173.8210  143.9080 C   0  0  0  0  0  3  0  0  0  0  0  0
  193.6370  175.6720  146.3380 O   0  0  0  0  0  0  0  0  0  0  0  0
  193.7400  174.4450  145.6750 C   0  0  0  0  0  2  0  0  0  0  0  0
  195.4850  176.5870  144.2310 C   0  0  0  0  0  0  0  0  0  0  0  0
  196.4730  177.1670  143.5130 N   0  0  0  0  0  0  0  0  0  0  0  0
  194.3430  177.3920  144.7820 C   0  0  0  0  0  2  0  0  0  0  0  0
  193.2960  176.5660  145.3740 N   0  0  0  0  0  0  0  0  0  0  0  0
  197.0020  175.0460  143.8650 C   0  0  0  0  0  0  0  0  0  0  0  0
  195.7980  175.2550  144.4640 C   0  0  0  0  0  0  0  0  0  0  0  0
  197.4110  176.2200  143.2750 C   0  0  0  0  0  3  0  0  0  0  0  0
  197.5320  170.3230  145.0820 C   0  0  0  0  0  3  0  0  0  0  0  0
  196.4420  169.8680  145.8080 C   0  0  0  0  0  0  0  0  0  0  0  0
  195.3350  170.6200  146.1610 C   0  0  0  0  0  3  0  0  0  0  0  0
  197.0300  172.7510  144.5840 C   0  0  0  0  0  0  0  0  0  0  0  0
  195.0460  171.9500  145.8980 C   0  0  0  0  0  3  0  0  0  0  0  0
  195.7550  172.9410  145.2110 C   0  0  0  0  0  0  0  0  0  0  0  0
  190.1730  177.6920  143.6340 C   0  0  0  0  0  3  0  0  0  0  0  0
  190.9350  176.6290  146.1110 C   0  0  0  0  0  3  0  0  0  0  0  0
  186.8900  177.5230  145.3540 C   0  0  0  0  0  0  0  0  0  0  0  0
  187.8650  177.7540  144.3690 C   0  0  0  0  0  3  0  0  0  0  0  0
  189.2080  177.4600  144.6160 C   0  0  0  0  0  0  0  0  0  0  0  0
  188.6280  176.6920  146.8470 C   0  0  0  0  0  3  0  0  0  0  0  0
  189.5920  176.9240  145.8640 C   0  0  0  0  0  0  0  0  0  0  0  0
  187.2870  176.9890  146.5930 C   0  0  0  0  0  3  0  0  0  0  0  0
  191.9080  176.8610  145.1240 C   0  0  0  0  0  0  0  0  0  0  0  0
  191.5140  177.3950  143.8870 C   0  0  0  0  0  3  0  0  0  0  0  0
  185.5060  177.8280  145.0980 N   0  0  0  0  0  0  0  0  0  0  0  0
  184.5290  177.8580  146.1760 C   0  0  0  0  0  1  0  0  0  0  0  0
  185.0330  178.1160  143.7530 C   0  0  0  0  0  1  0  0  0  0  0  0
  196.4400  168.4420  146.2570 C   0  0  0  0  0  3  0  0  0  0  0  0
  195.2890  168.1660  146.9970 O   0  0  0  0  0  1  0  0  0  0  0  0
  197.5720  168.1740  147.0270 O   0  0  0  0  0  1  0  0  0  0  0  0
  1 18  1  0  0  0  0
  1  5  1  0  0  0  0
  2 16  1  0  0  0  0
  2 13  2  0  0  0  0
  3 16  2  0  0  0  0
  5  4  1  0  0  0  0
  6 11  1  0  0  0  0
  6  8  1  0  0  0  0
  7  6  2  0  0  0  0
  8  9  1  0  0  0  0
  9  4  1  0  0  0  0
 10  3  1  0  0  0  0
 10 11  1  0  0  0  0
 11  1  2  0  0  0  0
 12  7  1  0  0  0  0
 12 10  2  0  0  0  0
 13 14  1  0  0  0  0
 14 15  2  0  0  0  0
 14 32  1  0  0  0  0
 16 18  1  0  0  0  0
 17 15  1  0  0  0  0
 18 17  2  0  0  0  0
 19 28  2  0  0  0  0
 19 23  1  0  0  0  0
 21 26  1  0  0  0  0
 22 23  1  0  0  0  0
 22 21  2  0  0  0  0
 23 25  2  0  0  0  0
 25 20  1  0  0  0  0
 25 24  1  0  0  0  0
 26 24  2  0  0  0  0
 27  9  1  0  0  0  0
 27 20  2  0  0  0  0
 28 27  1  0  0  0  0
 29 21  1  0  0  0  0
 29 30  1  0  0  0  0
 31 29  1  0  0  0  0
 32 33  1  0  0  0  0
 32 34  1  0  0  0  0
M  END
>  <MODEL>
1

>  <REMARK>
 VINA RESULT:      -8.7      0.000      0.000
  Name = 
  3 active torsions:
  status: ('A' for Active; 'I' for Inactive)
    1  A    between atoms: C_3  and  C_25
    2  A    between atoms: C_7  and  N_11
    3  A    between atoms: N_18  and  C_30
                            x       y       z     vdW  Elec       q    Type
                         _______ _______ _______ _____ _____    ______ ____

>  <TORSDO>
F 3

$$$$
=
 OpenBabel11052420263D

 34 39  0  0  0  0  0  0  0  0999 V2000
  187.3610  177.8170  144.7480 C   0  0  0  0  0  0  0  0  0  0  0  0
  183.7460  178.6980  144.0290 C   0  0  0  0  0  3  0  0  0  0  0  0
  184.9710  178.6330  146.0170 C   0  0  0  0  0  3  0  0  0  0  0  0
  189.7530  177.8970  144.6230 O   0  0  0  0  0  0  0  0  0  0  0  0
  188.6130  177.2560  144.1290 C   0  0  0  0  0  2  0  0  0  0  0  0
  188.2330  177.9360  147.1480 C   0  0  0  0  0  0  0  0  0  0  0  0
  187.6590  178.2550  148.3300 N   0  0  0  0  0  0  0  0  0  0  0  0
  189.7100  177.6870  147.0370 C   0  0  0  0  0  2  0  0  0  0  0  0
  190.1080  177.1880  145.7250 N   0  0  0  0  0  0  0  0  0  0  0  0
  186.1340  178.4180  146.7340 C   0  0  0  0  0  0  0  0  0  0  0  0
  187.2930  178.0320  146.1320 C   0  0  0  0  0  0  0  0  0  0  0  0
  186.3600  178.5470  148.0850 C   0  0  0  0  0  3  0  0  0  0  0  0
  183.3380  178.6230  142.7080 C   0  0  0  0  0  3  0  0  0  0  0  0
  184.0580  178.2640  141.5790 C   0  0  0  0  0  0  0  0  0  0  0  0
  185.3910  177.8930  141.5560 C   0  0  0  0  0  3  0  0  0  0  0  0
  184.9760  178.4450  144.6250 C   0  0  0  0  0  0  0  0  0  0  0  0
  186.3020  177.7920  142.5950 C   0  0  0  0  0  3  0  0  0  0  0  0
  186.1800  178.0250  143.9690 C   0  0  0  0  0  0  0  0  0  0  0  0
  191.5340  173.7660  145.1670 C   0  0  0  0  0  3  0  0  0  0  0  0
  192.4250  176.3310  145.8550 C   0  0  0  0  0  3  0  0  0  0  0  0
  195.1750  173.1560  145.5430 C   0  0  0  0  0  0  0  0  0  0  0  0
  193.8070  172.9390  145.3030 C   0  0  0  0  0  3  0  0  0  0  0  0
  192.8920  173.9880  145.4060 C   0  0  0  0  0  0  0  0  0  0  0  0
  194.6970  175.5040  145.9940 C   0  0  0  0  0  3  0  0  0  0  0  0
  193.3400  175.2810  145.7540 C   0  0  0  0  0  0  0  0  0  0  0  0
  195.6080  174.4490  145.8890 C   0  0  0  0  0  3  0  0  0  0  0  0
  191.0580  176.1110  145.6140 C   0  0  0  0  0  0  0  0  0  0  0  0
  190.6240  174.8210  145.2710 C   0  0  0  0  0  3  0  0  0  0  0  0
  196.1170  172.0730  145.4370 N   0  0  0  0  0  0  0  0  0  0  0  0
  197.4700  172.2950  144.9520 C   0  0  0  0  0  1  0  0  0  0  0  0
  195.7510  170.7160  145.8120 C   0  0  0  0  0  1  0  0  0  0  0  0
  183.3530  178.2690  140.2620 C   0  0  0  0  0  3  0  0  0  0  0  0
  181.9820  178.0770  140.4420 O   0  0  0  0  0  1  0  0  0  0  0  0
  183.8640  177.2710  139.4310 O   0  0  0  0  0  1  0  0  0  0  0  0
  1 11  1  0  0  0  0
  2 16  2  0  0  0  0
  3 10  2  0  0  0  0
  4  9  1  0  0  0  0
  5  4  1  0  0  0  0
  5  1  1  0  0  0  0
  6  7  1  0  0  0  0
  8  6  1  0  0  0  0
  9  8  1  0  0  0  0
 10 12  1  0  0  0  0
 11 10  1  0  0  0  0
 11  6  2  0  0  0  0
 12  7  2  0  0  0  0
 13  2  1  0  0  0  0
 14 13  2  0  0  0  0
 15 14  1  0  0  0  0
 15 17  2  0  0  0  0
 16  3  1  0  0  0  0
 17 18  1  0  0  0  0
 18 16  1  0  0  0  0
 18  1  2  0  0  0  0
 19 28  2  0  0  0  0
 19 23  1  0  0  0  0
 21 26  1  0  0  0  0
 22 23  1  0  0  0  0
 22 21  2  0  0  0  0
 23 25  2  0  0  0  0
 25 20  1  0  0  0  0
 25 24  1  0  0  0  0
 26 24  2  0  0  0  0
 27  9  1  0  0  0  0
 27 20  2  0  0  0  0
 28 27  1  0  0  0  0
 29 21  1  0  0  0  0
 29 31  1  0  0  0  0
 30 29  1  0  0  0  0
 32 33  1  0  0  0  0
 32 14  1  0  0  0  0
 34 32  1  0  0  0  0
M  END
>  <MODEL>
2

>  <REMARK>
 VINA RESULT:      -8.6      3.725     10.927
  Name = 
  3 active torsions:
  status: ('A' for Active; 'I' for Inactive)
    1  A    between atoms: C_3  and  C_25
    2  A    between atoms: C_7  and  N_11
    3  A    between atoms: N_18  and  C_30
                            x       y       z     vdW  Elec       q    Type
                         _______ _______ _______ _____ _____    ______ ____

>  <TORSDO>
F 3

$$$$
=
 OpenBabel11052420263D

 34 39  0  0  0  0  0  0  0  0999 V2000
  190.1570  176.8350  144.6950 C   0  0  0  0  0  0  0  0  0  0  0  0
  186.8360  177.0630  146.5050 C   0  0  0  0  0  3  0  0  0  0  0  0
  188.8930  176.1490  147.1280 C   0  0  0  0  0  3  0  0  0  0  0  0
  192.1270  177.5480  143.5310 O   0  0  0  0  0  0  0  0  0  0  0  0
  190.8250  177.0630  143.3660 C   0  0  0  0  0  2  0  0  0  0  0  0
  192.1520  175.7370  145.8560 C   0  0  0  0  0  0  0  0  0  0  0  0
  192.3180  175.1560  147.0660 N   0  0  0  0  0  0  0  0  0  0  0  0
  193.3140  175.9660  144.9320 C   0  0  0  0  0  2  0  0  0  0  0  0
  192.9080  176.4410  143.6130 N   0  0  0  0  0  0  0  0  0  0  0  0
  190.2210  175.8450  146.8910 C   0  0  0  0  0  0  0  0  0  0  0  0
  190.8420  176.1770  145.7260 C   0  0  0  0  0  0  0  0  0  0  0  0
  191.1280  175.2110  147.7090 C   0  0  0  0  0  3  0  0  0  0  0  0
  185.7970  177.6770  145.8250 C   0  0  0  0  0  3  0  0  0  0  0  0
  185.7770  178.2310  144.5540 C   0  0  0  0  0  0  0  0  0  0  0  0
  186.8470  178.2800  143.6780 C   0  0  0  0  0  3  0  0  0  0  0  0
  188.1540  176.8170  146.1380 C   0  0  0  0  0  0  0  0  0  0  0  0
  188.1430  177.8150  143.8340 C   0  0  0  0  0  3  0  0  0  0  0  0
  188.7810  177.1650  144.8960 C   0  0  0  0  0  0  0  0  0  0  0  0
  193.3790  174.4990  140.4420 C   0  0  0  0  0  3  0  0  0  0  0  0
  194.8470  176.2230  142.0920 C   0  0  0  0  0  3  0  0  0  0  0  0
  196.6130  174.6090  138.6250 C   0  0  0  0  0  0  0  0  0  0  0  0
  195.2870  174.2890  138.9630 C   0  0  0  0  0  3  0  0  0  0  0  0
  194.6970  174.8210  140.1110 C   0  0  0  0  0  0  0  0  0  0  0  0
  196.7550  176.0110  140.6140 C   0  0  0  0  0  3  0  0  0  0  0  0
  195.4360  175.6890  140.9430 C   0  0  0  0  0  0  0  0  0  0  0  0
  197.3380  175.4750  139.4630 C   0  0  0  0  0  3  0  0  0  0  0  0
  193.5200  175.9010  142.4260 C   0  0  0  0  0  0  0  0  0  0  0  0
  192.7950  175.0350  141.5920 C   0  0  0  0  0  3  0  0  0  0  0  0
  197.2190  174.0590  137.4410 N   0  0  0  0  0  0  0  0  0  0  0  0
  197.5430  172.6440  137.3480 C   0  0  0  0  0  1  0  0  0  0  0  0
  197.5300  174.8970  136.2940 C   0  0  0  0  0  1  0  0  0  0  0  0
  184.4990  178.8340  144.0680 C   0  0  0  0  0  3  0  0  0  0  0  0
  183.5790  178.9350  145.1140 O   0  0  0  0  0  1  0  0  0  0  0  0
  183.9590  178.0640  143.0380 O   0  0  0  0  0  1  0  0  0  0  0  0
  1 18  2  0  0  0  0
  1 11  1  0  0  0  0
  4  9  1  0  0  0  0
  5  4  1  0  0  0  0
  5  1  1  0  0  0  0
  6  7  1  0  0  0  0
  7 12  2  0  0  0  0
  8  6  1  0  0  0  0
  9  8  1  0  0  0  0
 10  3  2  0  0  0  0
 10 12  1  0  0  0  0
 11  6  2  0  0  0  0
 11 10  1  0  0  0  0
 13  2  1  0  0  0  0
 14 13  2  0  0  0  0
 15 17  2  0  0  0  0
 15 14  1  0  0  0  0
 16  2  2  0  0  0  0
 16  3  1  0  0  0  0
 17 18  1  0  0  0  0
 18 16  1  0  0  0  0
 19 28  1  0  0  0  0
 20 27  1  0  0  0  0
 21 22  2  0  0  0  0
 21 26  1  0  0  0  0
 22 23  1  0  0  0  0
 23 19  2  0  0  0  0
 23 25  1  0  0  0  0
 24 25  1  0  0  0  0
 25 20  2  0  0  0  0
 26 24  2  0  0  0  0
 27  9  1  0  0  0  0
 28 27  2  0  0  0  0
 29 21  1  0  0  0  0
 30 29  1  0  0  0  0
 31 29  1  0  0  0  0
 32 14  1  0  0  0  0
 32 33  1  0  0  0  0
 34 32  1  0  0  0  0
M  END
>  <MODEL>
3

>  <REMARK>
 VINA RESULT:      -8.3      4.504     10.145
  Name = 
  3 active torsions:
  status: ('A' for Active; 'I' for Inactive)
    1  A    between atoms: C_3  and  C_25
    2  A    between atoms: C_7  and  N_11
    3  A    between atoms: N_18  and  C_30
                            x       y       z     vdW  Elec       q    Type
                         _______ _______ _______ _____ _____    ______ ____

>  <TORSDO>
F 3

$$$$
=
 OpenBabel11052420263D

 34 39  0  0  0  0  0  0  0  0999 V2000
  188.3170  177.4660  143.5010 C   0  0  0  0  0  0  0  0  0  0  0  0
  184.6500  178.1770  144.1370 C   0  0  0  0  0  3  0  0  0  0  0  0
  186.4490  177.8450  145.5880 C   0  0  0  0  0  3  0  0  0  0  0  0
  190.5400  177.7550  142.6540 O   0  0  0  0  0  0  0  0  0  0  0  0
  189.3120  177.1270  142.4240 C   0  0  0  0  0  2  0  0  0  0  0  0
  189.9120  177.2100  145.4810 C   0  0  0  0  0  0  0  0  0  0  0  0
  189.7430  177.2610  146.8230 N   0  0  0  0  0  0  0  0  0  0  0  0
  191.2790  177.1020  144.8680 C   0  0  0  0  0  2  0  0  0  0  0  0
  191.2420  176.8850  143.4260 N   0  0  0  0  0  0  0  0  0  0  0  0
  187.7840  177.5930  145.8480 C   0  0  0  0  0  0  0  0  0  0  0  0
  188.6940  177.4170  144.8510 C   0  0  0  0  0  0  0  0  0  0  0  0
  188.4310  177.4890  147.0580 C   0  0  0  0  0  3  0  0  0  0  0  0
  183.8390  178.3140  143.0220 C   0  0  0  0  0  3  0  0  0  0  0  0
  184.1640  178.2260  141.6770 C   0  0  0  0  0  0  0  0  0  0  0  0
  185.4250  177.9710  141.1660 C   0  0  0  0  0  3  0  0  0  0  0  0
  186.0100  177.9160  144.2560 C   0  0  0  0  0  0  0  0  0  0  0  0
  186.6220  177.7530  141.8270 C   0  0  0  0  0  3  0  0  0  0  0  0
  186.9450  177.7200  143.1870 C   0  0  0  0  0  0  0  0  0  0  0  0
  192.6440  173.6170  142.2390 C   0  0  0  0  0  3  0  0  0  0  0  0
  193.3210  176.3350  142.2030 C   0  0  0  0  0  3  0  0  0  0  0  0
  195.8840  173.5000  140.4360 C   0  0  0  0  0  0  0  0  0  0  0  0
  194.6860  173.0920  141.0460 C   0  0  0  0  0  3  0  0  0  0  0  0
  193.8330  174.0290  141.6330 C   0  0  0  0  0  0  0  0  0  0  0  0
  195.3630  175.8100  141.0120 C   0  0  0  0  0  3  0  0  0  0  0  0
  194.1740  175.3980  141.6160 C   0  0  0  0  0  0  0  0  0  0  0  0
  196.2120  174.8680  140.4260 C   0  0  0  0  0  3  0  0  0  0  0  0
  192.1230  175.9250  142.8120 C   0  0  0  0  0  0  0  0  0  0  0  0
  191.7950  174.5600  142.8240 C   0  0  0  0  0  3  0  0  0  0  0  0
  196.7630  172.5330  139.8310 N   0  0  0  0  0  0  0  0  0  0  0  0
  197.9360  172.0370  140.5340 C   0  0  0  0  0  1  0  0  0  0  0  0
  196.5110  172.0160  138.4950 C   0  0  0  0  0  1  0  0  0  0  0  0
  183.0720  178.4180  140.6740 C   0  0  0  0  0  3  0  0  0  0  0  0
  181.8240  178.3630  141.2970 O   0  0  0  0  0  1  0  0  0  0  0  0
  183.1470  177.4410  139.6800 O   0  0  0  0  0  1  0  0  0  0  0  0
  1 11  1  0  0  0  0
  2 16  2  0  0  0  0
  3 10  2  0  0  0  0
  4  9  1  0  0  0  0
  5  4  1  0  0  0  0
  5  1  1  0  0  0  0
  6  7  1  0  0  0  0
  7 12  2  0  0  0  0
  8  6  1  0  0  0  0
  9  8  1  0  0  0  0
 10 12  1  0  0  0  0
 11  6  2  0  0  0  0
 11 10  1  0  0  0  0
 13  2  1  0  0  0  0
 14 13  2  0  0  0  0
 15 14  1  0  0  0  0
 15 17  2  0  0  0  0
 16  3  1  0  0  0  0
 17 18  1  0  0  0  0
 18  1  2  0  0  0  0
 18 16  1  0  0  0  0
 19 28  1  0  0  0  0
 20 27  1  0  0  0  0
 21 22  2  0  0  0  0
 22 23  1  0  0  0  0
 23 19  2  0  0  0  0
 24 25  1  0  0  0  0
 25 23  1  0  0  0  0
 25 20  2  0  0  0  0
 26 21  1  0  0  0  0
 26 24  2  0  0  0  0
 27 28  2  0  0  0  0
 27  9  1  0  0  0  0
 29 21  1  0  0  0  0
 29 30  1  0  0  0  0
 31 29  1  0  0  0  0
 32 33  1  0  0  0  0
 32 14  1  0  0  0  0
 34 32  1  0  0  0  0
M  END
>  <MODEL>
4

>  <REMARK>
 VINA RESULT:      -8.0      4.518     10.888
  Name = 
  3 active torsions:
  status: ('A' for Active; 'I' for Inactive)
    1  A    between atoms: C_3  and  C_25
    2  A    between atoms: C_7  and  N_11
    3  A    between atoms: N_18  and  C_30
                            x       y       z     vdW  Elec       q    Type
                         _______ _______ _______ _____ _____    ______ ____

>  <TORSDO>
F 3

$$$$
=
 OpenBabel11052420263D

 34 39  0  0  0  0  0  0  0  0999 V2000
  192.3680  174.0330  145.5160 C   0  0  0  0  0  0  0  0  0  0  0  0
  195.6380  172.3010  144.7000 C   0  0  0  0  0  3  0  0  0  0  0  0
  195.1680  174.4110  145.5860 C   0  0  0  0  0  3  0  0  0  0  0  0
  190.2170  174.4060  146.5060 O   0  0  0  0  0  0  0  0  0  0  0  0
  190.8740  173.9220  145.3700 C   0  0  0  0  0  2  0  0  0  0  0  0
  192.4040  176.3830  146.5200 C   0  0  0  0  0  0  0  0  0  0  0  0
  193.4000  177.2380  146.8490 N   0  0  0  0  0  0  0  0  0  0  0  0
  190.9710  176.6830  146.8590 C   0  0  0  0  0  2  0  0  0  0  0  0
  190.0350  175.7310  146.2710 N   0  0  0  0  0  0  0  0  0  0  0  0
  194.2950  175.3910  146.0210 C   0  0  0  0  0  0  0  0  0  0  0  0
  192.9440  175.2170  145.9990 C   0  0  0  0  0  0  0  0  0  0  0  0
  194.5710  176.6360  146.5360 C   0  0  0  0  0  3  0  0  0  0  0  0
  195.5510  171.0260  144.1660 C   0  0  0  0  0  3  0  0  0  0  0  0
  194.4300  170.2650  143.8730 C   0  0  0  0  0  0  0  0  0  0  0  0
  193.1160  170.6550  144.0660 C   0  0  0  0  0  3  0  0  0  0  0  0
  194.6530  173.1970  145.1000 C   0  0  0  0  0  0  0  0  0  0  0  0
  192.6080  171.8380  144.5770 C   0  0  0  0  0  3  0  0  0  0  0  0
  193.2350  172.9950  145.0530 C   0  0  0  0  0  0  0  0  0  0  0  0
  186.4690  176.8190  145.8760 C   0  0  0  0  0  3  0  0  0  0  0  0
  188.7480  176.4580  144.2870 C   0  0  0  0  0  3  0  0  0  0  0  0
  185.1520  177.7890  142.5460 C   0  0  0  0  0  0  0  0  0  0  0  0
  185.2190  177.5230  143.9240 C   0  0  0  0  0  3  0  0  0  0  0  0
  186.4090  177.0810  144.5060 C   0  0  0  0  0  0  0  0  0  0  0  0
  187.4970  177.1600  142.3350 C   0  0  0  0  0  3  0  0  0  0  0  0
  187.5570  176.8990  143.7050 C   0  0  0  0  0  0  0  0  0  0  0  0
  186.3030  177.6020  141.7600 C   0  0  0  0  0  3  0  0  0  0  0  0
  188.8130  176.1940  145.6660 C   0  0  0  0  0  0  0  0  0  0  0  0
  187.6630  176.3770  146.4520 C   0  0  0  0  0  3  0  0  0  0  0  0
  183.9230  178.2430  141.9480 N   0  0  0  0  0  0  0  0  0  0  0  0
  182.8040  178.6840  142.7660 C   0  0  0  0  0  1  0  0  0  0  0  0
  183.7550  178.2790  140.5040 C   0  0  0  0  0  1  0  0  0  0  0  0
  194.6350  168.9020  143.2940 C   0  0  0  0  0  3  0  0  0  0  0  0
  193.4500  168.1660  143.3500 O   0  0  0  0  0  1  0  0  0  0  0  0
  195.6420  168.2270  143.9840 O   0  0  0  0  0  1  0  0  0  0  0  0
  1 11  1  0  0  0  0
  2 16  2  0  0  0  0
  3 10  2  0  0  0  0
  5  1  1  0  0  0  0
  5  4  1  0  0  0  0
  6  7  1  0  0  0  0
  6  8  1  0  0  0  0
  9  4  1  0  0  0  0
  9  8  1  0  0  0  0
 10 12  1  0  0  0  0
 11 10  1  0  0  0  0
 11  6  2  0  0  0  0
 12  7  2  0  0  0  0
 13  2  1  0  0  0  0
 14 15  1  0  0  0  0
 14 13  2  0  0  0  0
 15 17  2  0  0  0  0
 16  3  1  0  0  0  0
 17 18  1  0  0  0  0
 18 16  1  0  0  0  0
 18  1  2  0  0  0  0
 19 28  1  0  0  0  0
 20 27  1  0  0  0  0
 21 22  2  0  0  0  0
 22 23  1  0  0  0  0
 23 19  2  0  0  0  0
 24 25  1  0  0  0  0
 25 20  2  0  0  0  0
 25 23  1  0  0  0  0
 26 24  2  0  0  0  0
 26 21  1  0  0  0  0
 27  9  1  0  0  0  0
 27 28  2  0  0  0  0
 29 21  1  0  0  0  0
 29 30  1  0  0  0  0
 31 29  1  0  0  0  0
 32 33  1  0  0  0  0
 32 14  1  0  0  0  0
 32 34  1  0  0  0  0
M  END
>  <MODEL>
5

>  <REMARK>
 VINA RESULT:      -7.9      2.274      3.498
  Name = 
  3 active torsions:
  status: ('A' for Active; 'I' for Inactive)
    1  A    between atoms: C_3  and  C_25
    2  A    between atoms: C_7  and  N_11
    3  A    between atoms: N_18  and  C_30
                            x       y       z     vdW  Elec       q    Type
                         _______ _______ _______ _____ _____    ______ ____

>  <TORSDO>
F 3

$$$$
=
 OpenBabel11052420263D

 34 39  0  0  0  0  0  0  0  0999 V2000
  194.3620  174.9880  142.3990 C   0  0  0  0  0  0  0  0  0  0  0  0
  197.8250  175.0990  140.8650 C   0  0  0  0  0  3  0  0  0  0  0  0
  197.1050  174.9190  143.0800 C   0  0  0  0  0  3  0  0  0  0  0  0
  192.1210  174.2500  142.8170 O   0  0  0  0  0  0  0  0  0  0  0  0
  192.8990  175.1550  142.0890 C   0  0  0  0  0  2  0  0  0  0  0  0
  194.1130  174.7480  144.9310 C   0  0  0  0  0  0  0  0  0  0  0  0
  195.0020  174.6540  145.9470 N   0  0  0  0  0  0  0  0  0  0  0  0
  192.6390  174.5770  145.1630 C   0  0  0  0  0  2  0  0  0  0  0  0
  191.8370  174.8860  143.9830 N   0  0  0  0  0  0  0  0  0  0  0  0
  196.1170  174.8410  144.0450 C   0  0  0  0  0  0  0  0  0  0  0  0
  194.7930  174.8650  143.7280 C   0  0  0  0  0  0  0  0  0  0  0  0
  196.2420  174.7190  145.4090 C   0  0  0  0  0  3  0  0  0  0  0  0
  197.8930  175.2210  139.4870 C   0  0  0  0  0  3  0  0  0  0  0  0
  196.8690  175.3150  138.5570 C   0  0  0  0  0  0  0  0  0  0  0  0
  195.5150  175.3040  138.8430 C   0  0  0  0  0  3  0  0  0  0  0  0
  196.7380  175.0320  141.7280 C   0  0  0  0  0  0  0  0  0  0  0  0
  194.8670  175.2010  140.0630 C   0  0  0  0  0  3  0  0  0  0  0  0
  195.3500  175.0750  141.3690 C   0  0  0  0  0  0  0  0  0  0  0  0
  189.4000  177.4940  145.1290 C   0  0  0  0  0  3  0  0  0  0  0  0
  189.4830  175.3220  143.3620 C   0  0  0  0  0  3  0  0  0  0  0  0
  185.9490  177.5760  143.7690 C   0  0  0  0  0  0  0  0  0  0  0  0
  187.0930  177.9060  144.5160 C   0  0  0  0  0  3  0  0  0  0  0  0
  188.2670  177.1610  144.3840 C   0  0  0  0  0  0  0  0  0  0  0  0
  187.1760  175.7330  142.7490 C   0  0  0  0  0  3  0  0  0  0  0  0
  188.3090  176.0670  143.4940 C   0  0  0  0  0  0  0  0  0  0  0  0
  186.0050  176.4830  142.8860 C   0  0  0  0  0  3  0  0  0  0  0  0
  190.6250  175.6540  144.1090 C   0  0  0  0  0  0  0  0  0  0  0  0
  190.5710  176.7440  144.9930 C   0  0  0  0  0  3  0  0  0  0  0  0
  184.7390  178.3450  143.9060 N   0  0  0  0  0  0  0  0  0  0  0  0
  183.7850  178.4510  142.8130 C   0  0  0  0  0  1  0  0  0  0  0  0
  184.4260  179.0440  145.1430 C   0  0  0  0  0  1  0  0  0  0  0  0
  197.2370  175.4410  137.1140 C   0  0  0  0  0  3  0  0  0  0  0  0
  196.1140  175.7670  136.3510 O   0  0  0  0  0  1  0  0  0  0  0  0
  197.7940  174.2490  136.6480 O   0  0  0  0  0  1  0  0  0  0  0  0
  1 11  1  0  0  0  0
  2 16  2  0  0  0  0
  3 10  2  0  0  0  0
  4  9  1  0  0  0  0
  5  1  1  0  0  0  0
  5  4  1  0  0  0  0
  6  8  1  0  0  0  0
  6  7  1  0  0  0  0
  9 27  1  0  0  0  0
  9  8  1  0  0  0  0
 10 12  1  0  0  0  0
 11 10  1  0  0  0  0
 11  6  2  0  0  0  0
 12  7  2  0  0  0  0
 13  2  1  0  0  0  0
 14 15  1  0  0  0  0
 14 13  2  0  0  0  0
 15 17  2  0  0  0  0
 16  3  1  0  0  0  0
 17 18  1  0  0  0  0
 18 16  1  0  0  0  0
 18  1  2  0  0  0  0
 20 25  2  0  0  0  0
 20 27  1  0  0  0  0
 21 29  1  0  0  0  0
 21 22  2  0  0  0  0
 23 22  1  0  0  0  0
 23 19  2  0  0  0  0
 24 26  2  0  0  0  0
 24 25  1  0  0  0  0
 25 23  1  0  0  0  0
 26 21  1  0  0  0  0
 27 28  2  0  0  0  0
 28 19  1  0  0  0  0
 29 31  1  0  0  0  0
 30 29  1  0  0  0  0
 32 14  1  0  0  0  0
 33 32  1  0  0  0  0
 34 32  1  0  0  0  0
M  END
>  <MODEL>
6

>  <REMARK>
 VINA RESULT:      -7.9      3.635      5.270
  Name = 
  3 active torsions:
  status: ('A' for Active; 'I' for Inactive)
    1  A    between atoms: C_3  and  C_25
    2  A    between atoms: C_7  and  N_11
    3  A    between atoms: N_18  and  C_30
                            x       y       z     vdW  Elec       q    Type
                         _______ _______ _______ _____ _____    ______ ____

>  <TORSDO>
F 3

$$$$
=
 OpenBabel11052420263D

 34 39  0  0  0  0  0  0  0  0999 V2000
  190.2590  176.9560  144.6170 C   0  0  0  0  0  0  0  0  0  0  0  0
  187.1750  177.4040  146.7720 C   0  0  0  0  0  3  0  0  0  0  0  0
  189.2860  176.5170  147.2340 C   0  0  0  0  0  3  0  0  0  0  0  0
  192.0830  177.5280  143.1700 O   0  0  0  0  0  0  0  0  0  0  0  0
  190.7690  177.0510  143.2040 C   0  0  0  0  0  2  0  0  0  0  0  0
  192.3700  175.9370  145.6350 C   0  0  0  0  0  0  0  0  0  0  0  0
  192.6740  175.4670  146.8660 N   0  0  0  0  0  0  0  0  0  0  0  0
  193.4170  176.0610  144.5650 C   0  0  0  0  0  2  0  0  0  0  0  0
  192.8630  176.4200  143.2630 N   0  0  0  0  0  0  0  0  0  0  0  0
  190.5750  176.1710  146.8730 C   0  0  0  0  0  0  0  0  0  0  0  0
  191.0570  176.3850  145.6180 C   0  0  0  0  0  0  0  0  0  0  0  0
  191.5680  175.5990  147.6350 C   0  0  0  0  0  3  0  0  0  0  0  0
  186.0670  177.9700  146.1640 C   0  0  0  0  0  3  0  0  0  0  0  0
  185.9010  178.4060  144.8580 C   0  0  0  0  0  0  0  0  0  0  0  0
  186.8610  178.3570  143.8630 C   0  0  0  0  0  3  0  0  0  0  0  0
  188.4390  177.1030  146.2780 C   0  0  0  0  0  0  0  0  0  0  0  0
  188.1640  177.8870  143.9090 C   0  0  0  0  0  3  0  0  0  0  0  0
  188.9180  177.3260  144.9450 C   0  0  0  0  0  0  0  0  0  0  0  0
  194.9620  175.5800  140.2740 C   0  0  0  0  0  3  0  0  0  0  0  0
  192.6140  174.6880  141.5150 C   0  0  0  0  0  3  0  0  0  0  0  0
  193.9920  172.8050  138.0090 C   0  0  0  0  0  0  0  0  0  0  0  0
  194.7040  173.8830  138.5640 C   0  0  0  0  0  3  0  0  0  0  0  0
  194.2510  174.5100  139.7260 C   0  0  0  0  0  0  0  0  0  0  0  0
  192.3550  172.9920  139.8050 C   0  0  0  0  0  3  0  0  0  0  0  0
  193.0680  174.0610  140.3520 C   0  0  0  0  0  0  0  0  0  0  0  0
  192.8150  172.3690  138.6420 C   0  0  0  0  0  3  0  0  0  0  0  0
  193.3280  175.7640  142.0690 C   0  0  0  0  0  0  0  0  0  0  0  0
  194.5030  176.2030  141.4370 C   0  0  0  0  0  3  0  0  0  0  0  0
  194.4610  172.1600  136.8100 N   0  0  0  0  0  0  0  0  0  0  0  0
  195.6250  172.6570  136.0930 C   0  0  0  0  0  1  0  0  0  0  0  0
  193.7880  170.9880  136.2720 C   0  0  0  0  0  1  0  0  0  0  0  0
  184.5780  178.9830  144.4700 C   0  0  0  0  0  3  0  0  0  0  0  0
  183.6920  178.9360  145.5480 O   0  0  0  0  0  1  0  0  0  0  0  0
  184.0420  178.2850  143.3870 O   0  0  0  0  0  1  0  0  0  0  0  0
  1 18  2  0  0  0  0
  1 11  1  0  0  0  0
  4  5  1  0  0  0  0
  4  9  1  0  0  0  0
  5  1  1  0  0  0  0
  6  7  1  0  0  0  0
  7 12  2  0  0  0  0
  8  6  1  0  0  0  0
  9  8  1  0  0  0  0
 10  3  2  0  0  0  0
 10 12  1  0  0  0  0
 11  6  2  0  0  0  0
 11 10  1  0  0  0  0
 13  2  1  0  0  0  0
 14 13  2  0  0  0  0
 15 17  2  0  0  0  0
 15 14  1  0  0  0  0
 16  2  2  0  0  0  0
 16  3  1  0  0  0  0
 17 18  1  0  0  0  0
 18 16  1  0  0  0  0
 19 28  1  0  0  0  0
 20 27  1  0  0  0  0
 21 22  2  0  0  0  0
 21 26  1  0  0  0  0
 22 23  1  0  0  0  0
 23 19  2  0  0  0  0
 23 25  1  0  0  0  0
 24 25  1  0  0  0  0
 25 20  2  0  0  0  0
 26 24  2  0  0  0  0
 27  9  1  0  0  0  0
 28 27  2  0  0  0  0
 29 21  1  0  0  0  0
 30 29  1  0  0  0  0
 31 29  1  0  0  0  0
 32 14  1  0  0  0  0
 32 33  1  0  0  0  0
 34 32  1  0  0  0  0
M  END
>  <MODEL>
7

>  <REMARK>
 VINA RESULT:      -7.9      4.707      9.835
  Name = 
  3 active torsions:
  status: ('A' for Active; 'I' for Inactive)
    1  A    between atoms: C_3  and  C_25
    2  A    between atoms: C_7  and  N_11
    3  A    between atoms: N_18  and  C_30
                            x       y       z     vdW  Elec       q    Type
                         _______ _______ _______ _____ _____    ______ ____

>  <TORSDO>
F 3

$$$$
=
 OpenBabel11052420263D

 34 39  0  0  0  0  0  0  0  0999 V2000
  193.2260  175.7510  143.3030 C   0  0  0  0  0  0  0  0  0  0  0  0
  196.8410  176.0990  142.2210 C   0  0  0  0  0  3  0  0  0  0  0  0
  195.7800  176.4840  144.2670 C   0  0  0  0  0  3  0  0  0  0  0  0
  191.0950  174.7270  143.6990 O   0  0  0  0  0  0  0  0  0  0  0  0
  191.8330  175.4970  142.7940 C   0  0  0  0  0  2  0  0  0  0  0  0
  192.5780  176.2810  145.7180 C   0  0  0  0  0  0  0  0  0  0  0  0
  193.2770  176.7050  146.7960 N   0  0  0  0  0  0  0  0  0  0  0  0
  191.1330  175.8850  145.8290 C   0  0  0  0  0  2  0  0  0  0  0  0
  190.5120  175.6260  144.5340 N   0  0  0  0  0  0  0  0  0  0  0  0
  194.6640  176.5090  145.0830 C   0  0  0  0  0  0  0  0  0  0  0  0
  193.4310  176.1510  144.6320 C   0  0  0  0  0  0  0  0  0  0  0  0
  194.5650  176.8560  146.4110 C   0  0  0  0  0  3  0  0  0  0  0  0
  197.1290  175.7880  140.9020 C   0  0  0  0  0  3  0  0  0  0  0  0
  196.2830  175.3630  139.8890 C   0  0  0  0  0  0  0  0  0  0  0  0
  194.9200  175.1580  140.0090 C   0  0  0  0  0  3  0  0  0  0  0  0
  195.6440  176.0820  142.9270 C   0  0  0  0  0  0  0  0  0  0  0  0
  194.0930  175.3130  141.1090 C   0  0  0  0  0  3  0  0  0  0  0  0
  194.3530  175.7140  142.4240 C   0  0  0  0  0  0  0  0  0  0  0  0
  186.9860  176.7950  145.0350 C   0  0  0  0  0  3  0  0  0  0  0  0
  188.7910  176.3930  142.9310 C   0  0  0  0  0  3  0  0  0  0  0  0
  184.9080  177.8150  142.1350 C   0  0  0  0  0  0  0  0  0  0  0  0
  185.3080  177.5390  143.4540 C   0  0  0  0  0  3  0  0  0  0  0  0
  186.5940  177.0670  143.7220 C   0  0  0  0  0  0  0  0  0  0  0  0
  187.1130  177.1350  141.3500 C   0  0  0  0  0  3  0  0  0  0  0  0
  187.5040  176.8640  142.6630 C   0  0  0  0  0  0  0  0  0  0  0  0
  185.8240  177.6080  141.0890 C   0  0  0  0  0  3  0  0  0  0  0  0
  189.1890  176.1190  144.2500 C   0  0  0  0  0  0  0  0  0  0  0  0
  188.2750  176.3230  145.2970 C   0  0  0  0  0  3  0  0  0  0  0  0
  183.5800  178.3010  141.8600 N   0  0  0  0  0  0  0  0  0  0  0  0
  182.7450  178.8500  142.9170 C   0  0  0  0  0  1  0  0  0  0  0  0
  183.0260  178.2600  140.5160 C   0  0  0  0  0  1  0  0  0  0  0  0
  196.8750  175.0990  138.5420 C   0  0  0  0  0  3  0  0  0  0  0  0
  195.9110  175.2660  137.5460 O   0  0  0  0  0  1  0  0  0  0  0  0
  197.3940  173.8050  138.4840 O   0  0  0  0  0  1  0  0  0  0  0  0
  1 11  1  0  0  0  0
  2 16  2  0  0  0  0
  3 10  2  0  0  0  0
  4  9  1  0  0  0  0
  5  1  1  0  0  0  0
  5  4  1  0  0  0  0
  6  8  1  0  0  0  0
  6  7  1  0  0  0  0
  9  8  1  0  0  0  0
 10 12  1  0  0  0  0
 11 10  1  0  0  0  0
 11  6  2  0  0  0  0
 12  7  2  0  0  0  0
 13  2  1  0  0  0  0
 14 15  1  0  0  0  0
 14 13  2  0  0  0  0
 15 17  2  0  0  0  0
 16  3  1  0  0  0  0
 17 18  1  0  0  0  0
 18 16  1  0  0  0  0
 18  1  2  0  0  0  0
 19 28  1  0  0  0  0
 20 27  1  0  0  0  0
 21 22  2  0  0  0  0
 22 23  1  0  0  0  0
 23 19  2  0  0  0  0
 24 25  1  0  0  0  0
 25 20  2  0  0  0  0
 25 23  1  0  0  0  0
 26 24  2  0  0  0  0
 26 21  1  0  0  0  0
 27  9  1  0  0  0  0
 27 28  2  0  0  0  0
 29 21  1  0  0  0  0
 29 30  1  0  0  0  0
 31 29  1  0  0  0  0
 32 14  1  0  0  0  0
 33 32  1  0  0  0  0
 34 32  1  0  0  0  0
M  END
>  <MODEL>
8

>  <REMARK>
 VINA RESULT:      -7.8      4.013      5.300
  Name = 
  3 active torsions:
  status: ('A' for Active; 'I' for Inactive)
    1  A    between atoms: C_3  and  C_25
    2  A    between atoms: C_7  and  N_11
    3  A    between atoms: N_18  and  C_30
                            x       y       z     vdW  Elec       q    Type
                         _______ _______ _______ _____ _____    ______ ____

>  <TORSDO>
F 3

$$$$
=
 OpenBabel11052420263D

 34 39  0  0  0  0  0  0  0  0999 V2000
  194.0940  173.5980  144.3440 C   0  0  0  0  0  0  0  0  0  0  0  0
  196.0940  170.5470  143.3170 C   0  0  0  0  0  3  0  0  0  0  0  0
  195.5540  172.5150  142.1790 C   0  0  0  0  0  3  0  0  0  0  0  0
  193.4290  175.5140  145.6210 O   0  0  0  0  0  0  0  0  0  0  0  0
  193.2010  174.1480  145.4230 C   0  0  0  0  0  2  0  0  0  0  0  0
  193.8180  175.5350  142.7000 C   0  0  0  0  0  0  0  0  0  0  0  0
  194.2430  175.7460  141.4330 N   0  0  0  0  0  0  0  0  0  0  0  0
  193.1260  176.6140  143.4830 C   0  0  0  0  0  2  0  0  0  0  0  0
  192.5920  176.1410  144.7560 N   0  0  0  0  0  0  0  0  0  0  0  0
  194.9510  173.7570  142.0970 C   0  0  0  0  0  0  0  0  0  0  0  0
  194.2530  174.2910  143.1360 C   0  0  0  0  0  0  0  0  0  0  0  0
  194.9370  174.6490  141.0500 C   0  0  0  0  0  3  0  0  0  0  0  0
  196.2150  169.5360  144.2560 C   0  0  0  0  0  3  0  0  0  0  0  0
  195.7040  169.4600  145.5430 C   0  0  0  0  0  0  0  0  0  0  0  0
  194.9370  170.4280  146.1660 C   0  0  0  0  0  3  0  0  0  0  0  0
  195.4410  171.7730  143.3670 C   0  0  0  0  0  0  0  0  0  0  0  0
  194.5060  171.6580  145.6940 C   0  0  0  0  0  3  0  0  0  0  0  0
  194.6980  172.3080  144.4710 C   0  0  0  0  0  0  0  0  0  0  0  0
  189.6940  176.9550  146.9900 C   0  0  0  0  0  3  0  0  0  0  0  0
  190.2940  176.9100  144.2540 C   0  0  0  0  0  3  0  0  0  0  0  0
  186.4590  178.0680  145.5530 C   0  0  0  0  0  0  0  0  0  0  0  0
  187.4450  177.7020  146.4850 C   0  0  0  0  0  3  0  0  0  0  0  0
  188.7180  177.3180  146.0590 C   0  0  0  0  0  0  0  0  0  0  0  0
  188.0460  177.6550  143.7490 C   0  0  0  0  0  3  0  0  0  0  0  0
  189.0210  177.2940  144.6810 C   0  0  0  0  0  0  0  0  0  0  0  0
  186.7740  178.0390  144.1820 C   0  0  0  0  0  3  0  0  0  0  0  0
  191.2790  176.5460  145.1880 C   0  0  0  0  0  0  0  0  0  0  0  0
  190.9650  176.5710  146.5570 C   0  0  0  0  0  3  0  0  0  0  0  0
  185.1470  178.4640  145.9940 N   0  0  0  0  0  0  0  0  0  0  0  0
  184.1320  178.8970  145.0460 C   0  0  0  0  0  1  0  0  0  0  0  0
  184.7870  178.4460  147.4030 C   0  0  0  0  0  1  0  0  0  0  0  0
  195.9930  168.2320  146.3440 C   0  0  0  0  0  3  0  0  0  0  0  0
  195.1530  168.1660  147.4570 O   0  0  0  0  0  1  0  0  0  0  0  0
  197.3260  168.2240  146.7580 O   0  0  0  0  0  1  0  0  0  0  0  0
  1 18  1  0  0  0  0
  1  5  1  0  0  0  0
  2 16  1  0  0  0  0
  2 13  2  0  0  0  0
  3 16  2  0  0  0  0
  5  4  1  0  0  0  0
  6 11  1  0  0  0  0
  6  8  1  0  0  0  0
  7  6  2  0  0  0  0
  8  9  1  0  0  0  0
  9 27  1  0  0  0  0
  9  4  1  0  0  0  0
 10  3  1  0  0  0  0
 10 11  1  0  0  0  0
 11  1  2  0  0  0  0
 12  7  1  0  0  0  0
 12 10  2  0  0  0  0
 13 14  1  0  0  0  0
 14 15  2  0  0  0  0
 14 32  1  0  0  0  0
 16 18  1  0  0  0  0
 17 15  1  0  0  0  0
 18 17  2  0  0  0  0
 20 25  2  0  0  0  0
 20 27  1  0  0  0  0
 21 29  1  0  0  0  0
 21 22  2  0  0  0  0
 23 22  1  0  0  0  0
 23 19  2  0  0  0  0
 24 26  2  0  0  0  0
 24 25  1  0  0  0  0
 25 23  1  0  0  0  0
 26 21  1  0  0  0  0
 27 28  2  0  0  0  0
 28 19  1  0  0  0  0
 29 31  1  0  0  0  0
 30 29  1  0  0  0  0
 32 34  1  0  0  0  0
 32 33  1  0  0  0  0
M  END
>  <MODEL>
9

>  <REMARK>
 VINA RESULT:      -7.8      1.651      2.094
  Name = 
  3 active torsions:
  status: ('A' for Active; 'I' for Inactive)
    1  A    between atoms: C_3  and  C_25
    2  A    between atoms: C_7  and  N_11
    3  A    between atoms: N_18  and  C_30
                            x       y       z     vdW  Elec       q    Type
                         _______ _______ _______ _____ _____    ______ ____

>  <TORSDO>
F 3

$$$$
