=
 OpenBabel11052417123D

 30 36  0  0  1  0  0  0  0  0999 V2000
  187.3910  176.1430  143.0930 C   0  0  2  0  0  3  0  0  0  0  0  0
  185.2590  177.5440  142.9910 C   0  0  1  0  0  3  0  0  0  0  0  0
  188.4830  177.1830  146.8790 C   0  0  0  0  0  2  0  0  0  0  0  0
  188.7270  175.9060  143.7780 C   0  0  1  0  0  3  0  0  0  0  0  0
  187.5180  175.8440  141.6300 C   0  0  0  0  0  3  0  0  0  0  0  0
  190.2930  173.1490  141.3880 S   0  0  0  0  0  0  0  0  0  0  0  0
  191.6920  174.7410  144.5630 C   0  0  1  0  0  3  0  0  0  0  0  0
  188.9040  173.9070  142.3050 C   0  0  2  0  0  3  0  0  0  0  0  0
  188.4820  174.4450  139.9340 N   0  0  0  0  0  2  0  0  0  0  0  0
  191.6880  176.2070  144.9950 C   0  0  2  0  0  3  0  0  0  0  0  0
  189.8520  176.6220  146.7950 C   0  0  0  0  0  0  0  0  0  0  0  0
  188.2100  174.7580  141.2850 C   0  0  0  0  0  0  0  0  0  0  0  0
  189.3760  174.7350  143.5050 C   0  0  2  0  0  3  0  0  0  0  0  0
  184.5270  178.7560  143.5590 C   0  0  0  0  0  2  0  0  0  0  0  0
  192.7780  176.3830  146.0400 C   0  0  0  0  0  2  0  0  0  0  0  0
  192.6020  174.0330  145.5500 C   0  0  0  0  0  2  0  0  0  0  0  0
  190.4070  173.6510  138.6940 C   0  0  0  0  0  1  0  0  0  0  0  0
  185.1500  177.6270  141.4780 C   0  0  0  0  0  1  0  0  0  0  0  0
  188.2830  177.7500  145.4690 C   0  0  1  0  0  3  0  0  0  0  0  0
  184.6090  178.7750  145.0740 C   0  0  0  0  0  2  0  0  0  0  0  0
  189.4150  173.3450  139.7960 C   0  0  1  0  0  3  0  0  0  0  0  0
  186.7370  177.4940  143.4510 C   0  0  1  0  0  3  0  0  0  0  0  0
  189.3290  177.0650  144.5680 C   0  0  1  0  0  3  0  0  0  0  0  0
  190.4690  176.1380  147.7800 O   0  0  0  0  0  0  0  0  0  0  0  0
  190.3750  176.6460  145.4750 N   0  0  0  0  0  0  0  0  0  0  0  0
  193.5640  175.0910  146.0440 C   0  0  0  0  0  2  0  0  0  0  0  0
  190.3730  172.7240  144.3950 O   0  0  0  0  0  1  0  0  0  0  0  0
  186.0660  178.8720  145.4880 C   0  0  0  0  0  2  0  0  0  0  0  0
  186.8300  177.6510  144.9900 C   0  0  2  0  0  3  0  0  0  0  0  0
  190.2960  174.1130  144.5420 C   0  0  1  0  0  3  0  0  0  0  0  0
  1  5  1  6  0  0  0
  1 22  1  0  0  0  0
  1  4  1  0  0  0  0
  2 18  1  6  0  0  0
  2 22  1  0  0  0  0
  2 14  1  0  0  0  0
  4 23  1  0  0  0  0
  6  8  1  0  0  0  0
  7 10  1  0  0  0  0
  7 16  1  0  0  0  0
  8 13  1  0  0  0  0
  9 12  1  0  0  0  0
 10 25  1  0  0  0  0
 10 15  1  0  0  0  0
 11  3  1  0  0  0  0
 11 24  2  0  0  0  0
 12  5  2  0  0  0  0
 12  8  1  0  0  0  0
 13  4  1  0  0  0  0
 13 30  1  0  0  0  0
 14 20  1  0  0  0  0
 15 26  1  0  0  0  0
 16 26  1  0  0  0  0
 17 21  1  0  0  0  0
 19  3  1  0  0  0  0
 20 28  1  0  0  0  0
 21  9  1  0  0  0  0
 21  6  1  0  0  0  0
 22 29  1  0  0  0  0
 23 19  1  0  0  0  0
 23 25  1  0  0  0  0
 25 11  1  0  0  0  0
 27 30  1  0  0  0  0
 29 19  1  0  0  0  0
 29 28  1  0  0  0  0
 30  7  1  0  0  0  0
M  END
>  <MODEL>
1

>  <REMARK>
 VINA RESULT:      -9.7      0.000      0.000
  Name = 
  0 active torsions:
  status: ('A' for Active; 'I' for Inactive)
                            x       y       z     vdW  Elec       q    Type
                         _______ _______ _______ _____ _____    ______ ____

>  <TORSDO>
F 0

$$$$
=
 OpenBabel11052417123D

 30 36  0  0  1  0  0  0  0  0999 V2000
  187.7380  177.5540  144.9540 C   0  0  2  0  0  3  0  0  0  0  0  0
  185.6350  178.8410  145.6160 C   0  0  1  0  0  3  0  0  0  0  0  0
  186.6020  176.6860  141.1370 C   0  0  0  0  0  2  0  0  0  0  0  0
  188.3750  176.5630  143.9920 C   0  0  1  0  0  3  0  0  0  0  0  0
  188.3070  177.3560  146.3260 C   0  0  0  0  0  3  0  0  0  0  0  0
  191.8900  175.9990  145.7480 S   0  0  0  0  0  0  0  0  0  0  0  0
  190.4860  174.5320  142.5170 C   0  0  1  0  0  3  0  0  0  0  0  0
  190.4920  177.0470  145.2070 C   0  0  2  0  0  3  0  0  0  0  0  0
  190.2400  176.8480  147.6540 N   0  0  0  0  0  2  0  0  0  0  0  0
  189.0930  173.9710  142.2320 C   0  0  2  0  0  3  0  0  0  0  0  0
  187.6740  175.6930  140.8890 C   0  0  0  0  0  0  0  0  0  0  0  0
  189.6200  177.1530  146.4210 C   0  0  0  0  0  0  0  0  0  0  0  0
  189.7360  176.4460  144.0180 C   0  0  2  0  0  3  0  0  0  0  0  0
  184.1530  179.0590  145.3230 C   0  0  0  0  0  2  0  0  0  0  0  0
  189.1980  173.0750  141.0080 C   0  0  0  0  0  2  0  0  0  0  0  0
  191.3230  174.1660  141.3040 C   0  0  0  0  0  2  0  0  0  0  0  0
  191.9410  175.2910  148.3980 C   0  0  0  0  0  1  0  0  0  0  0  0
  185.7730  178.6830  147.1200 C   0  0  0  0  0  1  0  0  0  0  0  0
  186.2510  176.4170  142.6050 C   0  0  1  0  0  3  0  0  0  0  0  0
  183.9130  179.1970  143.8310 C   0  0  0  0  0  2  0  0  0  0  0  0
  191.6300  176.4670  147.4970 C   0  0  1  0  0  3  0  0  0  0  0  0
  186.1990  177.6110  144.8620 C   0  0  1  0  0  3  0  0  0  0  0  0
  187.4420  175.6450  143.2060 C   0  0  1  0  0  3  0  0  0  0  0  0
  188.1910  175.4930  139.7580 O   0  0  0  0  0  0  0  0  0  0  0  0
  188.0870  175.0230  142.0720 N   0  0  0  0  0  0  0  0  0  0  0  0
  190.6770  172.9270  140.7250 C   0  0  0  0  0  2  0  0  0  0  0  0
  191.7950  176.5470  142.7620 O   0  0  0  0  0  1  0  0  0  0  0  0
  184.3440  177.9160  143.1400 C   0  0  0  0  0  2  0  0  0  0  0  0
  185.8350  177.6860  143.3570 C   0  0  2  0  0  3  0  0  0  0  0  0
  190.4910  176.0430  142.7630 C   0  0  1  0  0  3  0  0  0  0  0  0
  1  5  1  1  0  0  0
  2 18  1  1  0  0  0
  3 19  1  0  0  0  0
  4 13  1  0  0  0  0
  4  1  1  0  0  0  0
  5 12  2  0  0  0  0
  6 21  1  0  0  0  0
  7 30  1  0  0  0  0
  8  6  1  0  0  0  0
  8 12  1  0  0  0  0
 10  7  1  0  0  0  0
 11  3  1  0  0  0  0
 11 25  1  0  0  0  0
 12  9  1  0  0  0  0
 13  8  1  0  0  0  0
 14  2  1  0  0  0  0
 15 10  1  0  0  0  0
 16  7  1  0  0  0  0
 19 23  1  0  0  0  0
 19 29  1  0  0  0  0
 20 14  1  0  0  0  0
 21  9  1  0  0  0  0
 21 17  1  0  0  0  0
 22  1  1  0  0  0  0
 22  2  1  0  0  0  0
 23  4  1  0  0  0  0
 24 11  2  0  0  0  0
 25 10  1  0  0  0  0
 25 23  1  0  0  0  0
 26 15  1  0  0  0  0
 26 16  1  0  0  0  0
 27 30  1  0  0  0  0
 28 29  1  0  0  0  0
 28 20  1  0  0  0  0
 29 22  1  0  0  0  0
 30 13  1  0  0  0  0
M  END
>  <MODEL>
2

>  <REMARK>
 VINA RESULT:      -8.6      2.154      5.077
  Name = 
  0 active torsions:
  status: ('A' for Active; 'I' for Inactive)
                            x       y       z     vdW  Elec       q    Type
                         _______ _______ _______ _____ _____    ______ ____

>  <TORSDO>
F 0

$$$$
=
 OpenBabel11052417123D

 30 36  0  0  1  0  0  0  0  0999 V2000
  187.6790  176.0690  142.2780 C   0  0  2  0  0  3  0  0  0  0  0  0
  185.9050  177.1160  140.7690 C   0  0  1  0  0  3  0  0  0  0  0  0
  186.4580  177.8120  145.7540 C   0  0  0  0  0  2  0  0  0  0  0  0
  188.4220  176.1330  143.6020 C   0  0  1  0  0  3  0  0  0  0  0  0
  188.6030  175.5750  141.2070 C   0  0  0  0  0  3  0  0  0  0  0  0
  191.1520  173.3050  143.0420 S   0  0  0  0  0  0  0  0  0  0  0  0
  190.5040  175.5400  146.0680 C   0  0  1  0  0  3  0  0  0  0  0  0
  189.4590  173.9830  142.8980 C   0  0  2  0  0  3  0  0  0  0  0  0
  190.3960  174.0930  140.6170 N   0  0  0  0  0  2  0  0  0  0  0  0
  190.2050  177.0380  146.1200 C   0  0  2  0  0  3  0  0  0  0  0  0
  187.6660  177.4480  146.5310 C   0  0  0  0  0  0  0  0  0  0  0  0
  189.4120  174.5620  141.5160 C   0  0  0  0  0  0  0  0  0  0  0  0
  189.1590  175.0410  143.9640 C   0  0  2  0  0  3  0  0  0  0  0  0
  184.9340  178.2810  140.5960 C   0  0  0  0  0  2  0  0  0  0  0  0
  190.5290  177.5240  147.5240 C   0  0  0  0  0  2  0  0  0  0  0  0
  190.7450  175.1260  147.5080 C   0  0  0  0  0  2  0  0  0  0  0  0
  192.7150  173.4090  140.7900 C   0  0  0  0  0  1  0  0  0  0  0  0
  186.6450  176.9550  139.4540 C   0  0  0  0  0  1  0  0  0  0  0  0
  187.0470  178.1260  144.3750 C   0  0  1  0  0  3  0  0  0  0  0  0
  184.1660  178.5380  141.8800 C   0  0  0  0  0  2  0  0  0  0  0  0
  191.2920  173.1310  141.2270 C   0  0  1  0  0  3  0  0  0  0  0  0
  186.8840  177.3500  141.9460 C   0  0  1  0  0  3  0  0  0  0  0  0
  188.4430  177.4720  144.3350 C   0  0  1  0  0  3  0  0  0  0  0  0
  187.6550  177.2110  147.7680 O   0  0  0  0  0  0  0  0  0  0  0  0
  188.8300  177.3500  145.7230 N   0  0  0  0  0  0  0  0  0  0  0  0
  191.2320  176.3750  148.2110 C   0  0  0  0  0  2  0  0  0  0  0  0
  189.5750  173.3510  145.6380 O   0  0  0  0  0  1  0  0  0  0  0  0
  185.1470  178.9060  142.9770 C   0  0  0  0  0  2  0  0  0  0  0  0
  186.1050  177.7470  143.2270 C   0  0  2  0  0  3  0  0  0  0  0  0
  189.3770  174.7200  145.4340 C   0  0  1  0  0  3  0  0  0  0  0  0
  1  5  1  6  0  0  0
  1  4  1  0  0  0  0
  2 18  1  6  0  0  0
  2 22  1  0  0  0  0
  3 11  1  0  0  0  0
  4 13  1  0  0  0  0
  4 23  1  0  0  0  0
  5 12  2  0  0  0  0
  7 10  1  0  0  0  0
  7 16  1  0  0  0  0
  8  6  1  0  0  0  0
  8 13  1  0  0  0  0
  9 21  1  0  0  0  0
  9 12  1  0  0  0  0
 10 15  1  0  0  0  0
 11 24  2  0  0  0  0
 12  8  1  0  0  0  0
 13 30  1  0  0  0  0
 14  2  1  0  0  0  0
 14 20  1  0  0  0  0
 15 26  1  0  0  0  0
 16 26  1  0  0  0  0
 17 21  1  0  0  0  0
 19  3  1  0  0  0  0
 20 28  1  0  0  0  0
 21  6  1  0  0  0  0
 22  1  1  0  0  0  0
 22 29  1  0  0  0  0
 23 19  1  0  0  0  0
 23 25  1  0  0  0  0
 25 10  1  0  0  0  0
 25 11  1  0  0  0  0
 28 29  1  0  0  0  0
 29 19  1  0  0  0  0
 30 27  1  0  0  0  0
 30  7  1  0  0  0  0
M  END
>  <MODEL>
3

>  <REMARK>
 VINA RESULT:      -8.2      1.666      2.177
  Name = 
  0 active torsions:
  status: ('A' for Active; 'I' for Inactive)
                            x       y       z     vdW  Elec       q    Type
                         _______ _______ _______ _____ _____    ______ ____

>  <TORSDO>
F 0

$$$$
=
 OpenBabel11052417123D

 30 36  0  0  1  0  0  0  0  0999 V2000
  192.2950  174.6090  143.4110 C   0  0  2  0  0  3  0  0  0  0  0  0
  194.7070  173.8040  143.6340 C   0  0  1  0  0  3  0  0  0  0  0  0
  192.1140  176.6120  146.9550 C   0  0  0  0  0  2  0  0  0  0  0  0
  191.0620  175.1470  144.1170 C   0  0  1  0  0  3  0  0  0  0  0  0
  191.8770  173.7150  142.2830 C   0  0  0  0  0  3  0  0  0  0  0  0
  188.4270  175.0670  141.1490 S   0  0  0  0  0  0  0  0  0  0  0  0
  188.0300  176.2210  144.7650 C   0  0  1  0  0  3  0  0  0  0  0  0
  190.0940  175.3730  141.8360 C   0  0  2  0  0  3  0  0  0  0  0  0
  190.3110  173.3010  140.5130 N   0  0  0  0  0  2  0  0  0  0  0  0
  188.5280  175.5640  146.0520 C   0  0  2  0  0  3  0  0  0  0  0  0
  190.6430  176.7940  146.9440 C   0  0  0  0  0  0  0  0  0  0  0  0
  190.8540  174.1170  141.5300 C   0  0  0  0  0  0  0  0  0  0  0  0
  190.0640  175.6630  143.3390 C   0  0  2  0  0  3  0  0  0  0  0  0
  195.8380  173.4850  144.6090 C   0  0  0  0  0  2  0  0  0  0  0  0
  187.7000  176.1160  147.2020 C   0  0  0  0  0  2  0  0  0  0  0  0
  187.1030  177.3360  145.2140 C   0  0  0  0  0  2  0  0  0  0  0  0
  188.0800  172.7290  139.7560 C   0  0  0  0  0  1  0  0  0  0  0  0
  194.6170  172.6400  142.6630 C   0  0  0  0  0  1  0  0  0  0  0  0
  192.2680  175.2110  146.3530 C   0  0  1  0  0  3  0  0  0  0  0  0
  195.9830  174.5860  145.6440 C   0  0  0  0  0  2  0  0  0  0  0  0
  189.0850  173.8430  139.9600 C   0  0  1  0  0  3  0  0  0  0  0  0
  193.3630  174.0360  144.3670 C   0  0  1  0  0  3  0  0  0  0  0  0
  190.9480  174.9020  145.6200 C   0  0  1  0  0  3  0  0  0  0  0  0
  190.0600  177.7860  147.4540 O   0  0  0  0  0  0  0  0  0  0  0  0
  189.9660  175.7510  146.2570 N   0  0  0  0  0  0  0  0  0  0  0  0
  186.5770  176.9050  146.5660 C   0  0  0  0  0  2  0  0  0  0  0  0
  188.6580  177.5670  142.8590 O   0  0  0  0  0  1  0  0  0  0  0  0
  194.6950  174.6880  146.4400 C   0  0  0  0  0  2  0  0  0  0  0  0
  193.5420  175.0620  145.5150 C   0  0  2  0  0  3  0  0  0  0  0  0
  189.1610  176.7570  143.8830 C   0  0  1  0  0  3  0  0  0  0  0  0
  1  5  1  6  0  0  0
  1  4  1  0  0  0  0
  1 22  1  0  0  0  0
  2 18  1  6  0  0  0
  2 22  1  0  0  0  0
  2 14  1  0  0  0  0
  4 23  1  0  0  0  0
  6  8  1  0  0  0  0
  7 16  1  0  0  0  0
  7 10  1  0  0  0  0
  8 13  1  0  0  0  0
  9 12  1  0  0  0  0
 10 25  1  0  0  0  0
 10 15  1  0  0  0  0
 11  3  1  0  0  0  0
 11 24  2  0  0  0  0
 12  8  1  0  0  0  0
 12  5  2  0  0  0  0
 13 30  1  0  0  0  0
 13  4  1  0  0  0  0
 14 20  1  0  0  0  0
 16 26  1  0  0  0  0
 17 21  1  0  0  0  0
 19  3  1  0  0  0  0
 20 28  1  0  0  0  0
 21  9  1  0  0  0  0
 21  6  1  0  0  0  0
 22 29  1  0  0  0  0
 23 25  1  0  0  0  0
 23 19  1  0  0  0  0
 25 11  1  0  0  0  0
 26 15  1  0  0  0  0
 27 30  1  0  0  0  0
 29 19  1  0  0  0  0
 29 28  1  0  0  0  0
 30  7  1  0  0  0  0
M  END
>  <MODEL>
4

>  <REMARK>
 VINA RESULT:      -7.8      2.121      5.917
  Name = 
  0 active torsions:
  status: ('A' for Active; 'I' for Inactive)
                            x       y       z     vdW  Elec       q    Type
                         _______ _______ _______ _____ _____    ______ ____

>  <TORSDO>
F 0

$$$$
=
 OpenBabel11052417123D

 30 36  0  0  1  0  0  0  0  0999 V2000
  190.6930  176.2070  144.2730 C   0  0  2  0  0  3  0  0  0  0  0  0
  188.9790  177.5410  145.6140 C   0  0  1  0  0  3  0  0  0  0  0  0
  188.1910  175.0790  141.2600 C   0  0  0  0  0  2  0  0  0  0  0  0
  190.9330  175.1510  143.2060 C   0  0  1  0  0  3  0  0  0  0  0  0
  191.7530  176.1030  145.3270 C   0  0  0  0  0  3  0  0  0  0  0  0
  194.8670  174.7030  143.4940 S   0  0  0  0  0  0  0  0  0  0  0  0
  192.3600  173.0180  141.1610 C   0  0  1  0  0  3  0  0  0  0  0  0
  193.3430  175.7140  143.4700 C   0  0  2  0  0  3  0  0  0  0  0  0
  194.0620  175.6850  145.8310 N   0  0  0  0  0  2  0  0  0  0  0  0
  190.9790  172.4420  141.4750 C   0  0  2  0  0  3  0  0  0  0  0  0
  189.1080  174.0690  140.6800 C   0  0  0  0  0  0  0  0  0  0  0  0
  193.0060  175.9050  144.9180 C   0  0  0  0  0  0  0  0  0  0  0  0
  192.2010  175.0330  142.7090 C   0  0  2  0  0  3  0  0  0  0  0  0
  187.4940  177.7400  145.9050 C   0  0  0  0  0  2  0  0  0  0  0  0
  190.6250  171.4630  140.3670 C   0  0  0  0  0  2  0  0  0  0  0  0
  192.6710  172.5690  139.7450 C   0  0  0  0  0  2  0  0  0  0  0  0
  195.9570  174.1800  145.9560 C   0  0  0  0  0  1  0  0  0  0  0  0
  189.6910  177.4870  146.9540 C   0  0  0  0  0  1  0  0  0  0  0  0
  188.4420  174.9120  142.7630 C   0  0  1  0  0  3  0  0  0  0  0  0
  186.6910  177.7750  144.6170 C   0  0  0  0  0  2  0  0  0  0  0  0
  195.2920  175.2910  145.1730 C   0  0  1  0  0  3  0  0  0  0  0  0
  189.2370  176.2600  144.7820 C   0  0  1  0  0  3  0  0  0  0  0  0
  189.7920  174.1830  142.9040 C   0  0  1  0  0  3  0  0  0  0  0  0
  189.1530  173.7910  139.4530 O   0  0  0  0  0  0  0  0  0  0  0  0
  189.9640  173.4820  141.6500 N   0  0  0  0  0  0  0  0  0  0  0  0
  191.8820  171.2940  139.5430 C   0  0  0  0  0  2  0  0  0  0  0  0
  193.6110  175.0430  140.7490 O   0  0  0  0  0  1  0  0  0  0  0  0
  186.8540  176.4490  143.8980 C   0  0  0  0  0  2  0  0  0  0  0  0
  188.3180  176.2310  143.5340 C   0  0  2  0  0  3  0  0  0  0  0  0
  192.4210  174.5430  141.2880 C   0  0  1  0  0  3  0  0  0  0  0  0
  1 22  1  0  0  0  0
  1  5  1  1  0  0  0
  2 14  1  0  0  0  0
  2 18  1  1  0  0  0
  3 19  1  0  0  0  0
  4  1  1  0  0  0  0
  6 21  1  0  0  0  0
  7 30  1  0  0  0  0
  7 10  1  0  0  0  0
  8  6  1  0  0  0  0
  8 12  1  0  0  0  0
 10 25  1  0  0  0  0
 11  3  1  0  0  0  0
 11 25  1  0  0  0  0
 12  5  2  0  0  0  0
 12  9  1  0  0  0  0
 13  4  1  0  0  0  0
 13  8  1  0  0  0  0
 15 10  1  0  0  0  0
 16  7  1  0  0  0  0
 19 23  1  0  0  0  0
 19 29  1  0  0  0  0
 20 14  1  0  0  0  0
 21  9  1  0  0  0  0
 21 17  1  0  0  0  0
 22  2  1  0  0  0  0
 23  4  1  0  0  0  0
 24 11  2  0  0  0  0
 25 23  1  0  0  0  0
 26 16  1  0  0  0  0
 26 15  1  0  0  0  0
 27 30  1  0  0  0  0
 28 20  1  0  0  0  0
 29 28  1  0  0  0  0
 29 22  1  0  0  0  0
 30 13  1  0  0  0  0
M  END
>  <MODEL>
5

>  <REMARK>
 VINA RESULT:      -7.8      2.555      5.583
  Name = 
  0 active torsions:
  status: ('A' for Active; 'I' for Inactive)
                            x       y       z     vdW  Elec       q    Type
                         _______ _______ _______ _____ _____    ______ ____

>  <TORSDO>
F 0

$$$$
=
 OpenBabel11052417123D

 30 36  0  0  1  0  0  0  0  0999 V2000
  191.2900  174.2960  142.8010 C   0  0  2  0  0  3  0  0  0  0  0  0
  192.0820  172.9460  140.7840 C   0  0  1  0  0  3  0  0  0  0  0  0
  187.3890  174.6310  141.6680 C   0  0  0  0  0  2  0  0  0  0  0  0
  190.2240  175.2100  143.3820 C   0  0  1  0  0  3  0  0  0  0  0  0
  192.6340  174.6920  143.3320 C   0  0  0  0  0  3  0  0  0  0  0  0
  191.9290  176.2260  146.8200 S   0  0  0  0  0  0  0  0  0  0  0  0
  188.5370  177.2030  145.3690 C   0  0  1  0  0  3  0  0  0  0  0  0
  191.5030  175.0240  145.5090 C   0  0  2  0  0  3  0  0  0  0  0  0
  193.9080  175.4870  145.2040 N   0  0  0  0  0  2  0  0  0  0  0  0
  188.1780  177.6260  143.9450 C   0  0  2  0  0  3  0  0  0  0  0  0
  187.0350  175.6620  142.6710 C   0  0  0  0  0  0  0  0  0  0  0  0
  192.7150  174.9970  144.6260 C   0  0  0  0  0  0  0  0  0  0  0  0
  190.2460  175.4270  144.7310 C   0  0  2  0  0  3  0  0  0  0  0  0
  191.8050  172.5910  139.3250 C   0  0  0  0  0  2  0  0  0  0  0  0
  186.8580  178.3780  144.0060 C   0  0  0  0  0  2  0  0  0  0  0  0
  187.2970  177.4840  146.1980 C   0  0  0  0  0  2  0  0  0  0  0  0
  194.4780  177.2380  146.7800 C   0  0  0  0  0  1  0  0  0  0  0  0
  193.5580  173.2880  140.8860 C   0  0  0  0  0  1  0  0  0  0  0  0
  188.8120  175.0430  141.2750 C   0  0  1  0  0  3  0  0  0  0  0  0
  190.3370  172.2630  139.1190 C   0  0  0  0  0  2  0  0  0  0  0  0
  193.7180  175.9470  146.5660 C   0  0  1  0  0  3  0  0  0  0  0  0
  191.1940  174.1180  141.2710 C   0  0  1  0  0  3  0  0  0  0  0  0
  189.3290  175.9620  142.3990 C   0  0  1  0  0  3  0  0  0  0  0  0
  185.8930  175.7660  143.1920 O   0  0  0  0  0  0  0  0  0  0  0  0
  188.1340  176.4920  143.0180 N   0  0  0  0  0  0  0  0  0  0  0  0
  186.5710  178.5980  145.4750 C   0  0  0  0  0  2  0  0  0  0  0  0
  189.0270  175.3290  146.8120 O   0  0  0  0  0  1  0  0  0  0  0  0
  189.5050  173.4830  139.4700 C   0  0  0  0  0  2  0  0  0  0  0  0
  189.7050  173.8430  140.9370 C   0  0  2  0  0  3  0  0  0  0  0  0
  188.9580  175.7350  145.4760 C   0  0  1  0  0  3  0  0  0  0  0  0
  1  5  1  6  0  0  0
  1  4  1  0  0  0  0
  2 18  1  6  0  0  0
  2 22  1  0  0  0  0
  3 11  1  0  0  0  0
  4 13  1  0  0  0  0
  5 12  2  0  0  0  0
  7 30  1  0  0  0  0
  7 16  1  0  0  0  0
  8  6  1  0  0  0  0
  9 21  1  0  0  0  0
 10 15  1  0  0  0  0
 10  7  1  0  0  0  0
 11 25  1  0  0  0  0
 11 24  2  0  0  0  0
 12  9  1  0  0  0  0
 12  8  1  0  0  0  0
 13 30  1  0  0  0  0
 13  8  1  0  0  0  0
 14  2  1  0  0  0  0
 15 26  1  0  0  0  0
 19  3  1  0  0  0  0
 19 23  1  0  0  0  0
 20 14  1  0  0  0  0
 20 28  1  0  0  0  0
 21 17  1  0  0  0  0
 21  6  1  0  0  0  0
 22  1  1  0  0  0  0
 23 25  1  0  0  0  0
 23  4  1  0  0  0  0
 25 10  1  0  0  0  0
 26 16  1  0  0  0  0
 28 29  1  0  0  0  0
 29 22  1  0  0  0  0
 29 19  1  0  0  0  0
 30 27  1  0  0  0  0
M  END
>  <MODEL>
6

>  <REMARK>
 VINA RESULT:      -7.7      2.345      6.446
  Name = 
  0 active torsions:
  status: ('A' for Active; 'I' for Inactive)
                            x       y       z     vdW  Elec       q    Type
                         _______ _______ _______ _____ _____    ______ ____

>  <TORSDO>
F 0

$$$$
=
 OpenBabel11052417123D

 30 36  0  0  1  0  0  0  0  0999 V2000
  186.8340  177.1190  144.2120 C   0  0  2  0  0  3  0  0  0  0  0  0
  185.2290  178.2990  145.8090 C   0  0  1  0  0  3  0  0  0  0  0  0
  189.6370  176.1060  146.9910 C   0  0  0  0  0  2  0  0  0  0  0  0
  188.2460  176.6100  143.9720 C   0  0  1  0  0  3  0  0  0  0  0  0
  186.2550  177.6180  142.9220 C   0  0  0  0  0  3  0  0  0  0  0  0
  187.9930  175.5270  140.1610 S   0  0  0  0  0  0  0  0  0  0  0  0
  190.9250  175.3110  142.5940 C   0  0  1  0  0  3  0  0  0  0  0  0
  187.3330  175.6590  141.8610 C   0  0  2  0  0  3  0  0  0  0  0  0
  186.0690  177.3220  140.5480 N   0  0  0  0  0  2  0  0  0  0  0  0
  191.4290  176.3460  143.5990 C   0  0  2  0  0  3  0  0  0  0  0  0
  190.6780  175.7140  146.0120 C   0  0  0  0  0  0  0  0  0  0  0  0
  186.4760  176.8880  141.8300 C   0  0  0  0  0  0  0  0  0  0  0  0
  188.4410  175.7690  142.9130 C   0  0  2  0  0  3  0  0  0  0  0  0
  185.0960  179.0220  147.1460 C   0  0  0  0  0  2  0  0  0  0  0  0
  192.8700  175.9980  143.9370 C   0  0  0  0  0  2  0  0  0  0  0  0
  191.9890  174.2280  142.5630 C   0  0  0  0  0  2  0  0  0  0  0  0
  187.0520  177.3450  138.3330 C   0  0  0  0  0  1  0  0  0  0  0  0
  184.5060  179.1420  144.7740 C   0  0  0  0  0  1  0  0  0  0  0  0
  188.9840  177.3080  146.3010 C   0  0  1  0  0  3  0  0  0  0  0  0
  185.8200  178.2620  148.2440 C   0  0  0  0  0  2  0  0  0  0  0  0
  186.5860  176.4820  139.4870 C   0  0  1  0  0  3  0  0  0  0  0  0
  186.7110  178.0710  145.4200 C   0  0  1  0  0  3  0  0  0  0  0  0
  189.3670  177.2190  144.8110 C   0  0  1  0  0  3  0  0  0  0  0  0
  191.5330  174.8150  146.2250 O   0  0  0  0  0  0  0  0  0  0  0  0
  190.5790  176.4310  144.7900 N   0  0  0  0  0  0  0  0  0  0  0  0
  193.2760  174.9160  142.9620 C   0  0  0  0  0  2  0  0  0  0  0  0
  189.2530  173.6220  142.1630 O   0  0  0  0  0  1  0  0  0  0  0  0
  187.2960  178.1840  147.8990 C   0  0  0  0  0  2  0  0  0  0  0  0
  187.4840  177.4180  146.5950 C   0  0  2  0  0  3  0  0  0  0  0  0
  189.5540  174.7350  142.9550 C   0  0  1  0  0  3  0  0  0  0  0  0
  1  5  1  6  0  0  0
  1 22  1  0  0  0  0
  2 18  1  6  0  0  0
  2 14  1  0  0  0  0
  4  1  1  0  0  0  0
  4 23  1  0  0  0  0
  6  8  1  0  0  0  0
  7 30  1  0  0  0  0
  7 10  1  0  0  0  0
  8 13  1  0  0  0  0
  9 12  1  0  0  0  0
 10 15  1  0  0  0  0
 10 25  1  0  0  0  0
 11 24  2  0  0  0  0
 11  3  1  0  0  0  0
 12  8  1  0  0  0  0
 12  5  2  0  0  0  0
 13 30  1  0  0  0  0
 13  4  1  0  0  0  0
 14 20  1  0  0  0  0
 16  7  1  0  0  0  0
 16 26  1  0  0  0  0
 17 21  1  0  0  0  0
 19 29  1  0  0  0  0
 19  3  1  0  0  0  0
 21  6  1  0  0  0  0
 21  9  1  0  0  0  0
 22  2  1  0  0  0  0
 22 29  1  0  0  0  0
 23 19  1  0  0  0  0
 25 23  1  0  0  0  0
 25 11  1  0  0  0  0
 26 15  1  0  0  0  0
 27 30  1  0  0  0  0
 28 20  1  0  0  0  0
 29 28  1  0  0  0  0
M  END
>  <MODEL>
7

>  <REMARK>
 VINA RESULT:      -7.6      1.923      2.649
  Name = 
  0 active torsions:
  status: ('A' for Active; 'I' for Inactive)
                            x       y       z     vdW  Elec       q    Type
                         _______ _______ _______ _____ _____    ______ ____

>  <TORSDO>
F 0

$$$$
=
 OpenBabel11052417123D

 30 36  0  0  1  0  0  0  0  0999 V2000
  189.3020  176.7140  143.2530 C   0  0  2  0  0  3  0  0  0  0  0  0
  191.6240  175.6520  143.2730 C   0  0  1  0  0  3  0  0  0  0  0  0
  189.0160  177.3470  147.2680 C   0  0  0  0  0  2  0  0  0  0  0  0
  188.0650  177.0840  144.0540 C   0  0  1  0  0  3  0  0  0  0  0  0
  188.9010  176.3190  141.8640 C   0  0  0  0  0  3  0  0  0  0  0  0
  185.6550  178.3110  141.1470 S   0  0  0  0  0  0  0  0  0  0  0  0
  185.0840  178.1490  144.9170 C   0  0  1  0  0  3  0  0  0  0  0  0
  187.2860  178.1920  141.9660 C   0  0  2  0  0  3  0  0  0  0  0  0
  187.4410  176.7090  139.9990 N   0  0  0  0  0  2  0  0  0  0  0  0
  185.4360  177.0350  145.9040 C   0  0  2  0  0  3  0  0  0  0  0  0
  187.5680  177.6610  147.2630 C   0  0  0  0  0  0  0  0  0  0  0  0
  187.9690  177.0580  141.2630 C   0  0  0  0  0  0  0  0  0  0  0  0
  187.1690  177.9350  143.4710 C   0  0  2  0  0  3  0  0  0  0  0  0
  192.6540  174.9040  144.1150 C   0  0  0  0  0  2  0  0  0  0  0  0
  184.5710  177.2240  147.1400 C   0  0  0  0  0  2  0  0  0  0  0  0
  184.2140  179.1180  145.6970 C   0  0  0  0  0  2  0  0  0  0  0  0
  185.2350  176.6580  138.9980 C   0  0  0  0  0  1  0  0  0  0  0  0
  191.5180  174.9210  141.9470 C   0  0  0  0  0  1  0  0  0  0  0  0
  189.1060  176.2400  146.2120 C   0  0  1  0  0  3  0  0  0  0  0  0
  192.8060  175.5490  145.4800 C   0  0  0  0  0  2  0  0  0  0  0  0
  186.3040  177.5260  139.6270 C   0  0  1  0  0  3  0  0  0  0  0  0
  190.2510  175.7400  143.9840 C   0  0  1  0  0  3  0  0  0  0  0  0
  187.8240  176.3380  145.3630 C   0  0  1  0  0  3  0  0  0  0  0  0
  187.0250  178.4620  148.0690 O   0  0  0  0  0  0  0  0  0  0  0  0
  186.8660  176.9990  146.2210 N   0  0  0  0  0  0  0  0  0  0  0  0
  183.5600  178.2910  146.7820 C   0  0  0  0  0  2  0  0  0  0  0  0
  185.9490  180.0120  143.6460 O   0  0  0  0  0  1  0  0  0  0  0  0
  191.4740  175.4880  146.2060 C   0  0  0  0  0  2  0  0  0  0  0  0
  190.4240  176.2730  145.4290 C   0  0  2  0  0  3  0  0  0  0  0  0
  186.3140  178.8490  144.3330 C   0  0  1  0  0  3  0  0  0  0  0  0
  1  5  1  6  0  0  0
  1 22  1  0  0  0  0
  1  4  1  0  0  0  0
  2 18  1  6  0  0  0
  2 22  1  0  0  0  0
  2 14  1  0  0  0  0
  4 23  1  0  0  0  0
  6  8  1  0  0  0  0
  7 16  1  0  0  0  0
  7 10  1  0  0  0  0
  8 13  1  0  0  0  0
  9 12  1  0  0  0  0
 10 25  1  0  0  0  0
 10 15  1  0  0  0  0
 11  3  1  0  0  0  0
 11 24  2  0  0  0  0
 12  5  2  0  0  0  0
 12  8  1  0  0  0  0
 13  4  1  0  0  0  0
 13 30  1  0  0  0  0
 14 20  1  0  0  0  0
 16 26  1  0  0  0  0
 17 21  1  0  0  0  0
 19  3  1  0  0  0  0
 20 28  1  0  0  0  0
 21  9  1  0  0  0  0
 21  6  1  0  0  0  0
 22 29  1  0  0  0  0
 23 19  1  0  0  0  0
 23 25  1  0  0  0  0
 25 11  1  0  0  0  0
 26 15  1  0  0  0  0
 27 30  1  0  0  0  0
 29 28  1  0  0  0  0
 29 19  1  0  0  0  0
 30  7  1  0  0  0  0
M  END
>  <MODEL>
8

>  <REMARK>
 VINA RESULT:      -7.6      2.682      5.827
  Name = 
  0 active torsions:
  status: ('A' for Active; 'I' for Inactive)
                            x       y       z     vdW  Elec       q    Type
                         _______ _______ _______ _____ _____    ______ ____

>  <TORSDO>
F 0

$$$$
=
 OpenBabel11052417123D

 30 36  0  0  1  0  0  0  0  0999 V2000
  189.9300  175.7190  144.0510 C   0  0  2  0  0  3  0  0  0  0  0  0
  188.4450  177.2120  145.4950 C   0  0  1  0  0  3  0  0  0  0  0  0
  187.5890  175.7750  140.7160 C   0  0  0  0  0  2  0  0  0  0  0  0
  190.0290  174.8250  142.8260 C   0  0  1  0  0  3  0  0  0  0  0  0
  190.8070  175.1770  145.1390 C   0  0  0  0  0  3  0  0  0  0  0  0
  193.6810  173.3410  143.2980 S   0  0  0  0  0  0  0  0  0  0  0  0
  191.1230  172.7580  140.5250 C   0  0  1  0  0  3  0  0  0  0  0  0
  192.4570  174.6990  143.3570 C   0  0  2  0  0  3  0  0  0  0  0  0
  192.8750  174.1040  145.7150 N   0  0  0  0  0  2  0  0  0  0  0  0
  189.6190  172.5120  140.6310 C   0  0  2  0  0  3  0  0  0  0  0  0
  188.2960  174.6720  140.0240 C   0  0  0  0  0  0  0  0  0  0  0  0
  192.0140  174.7330  144.7880 C   0  0  0  0  0  0  0  0  0  0  0  0
  191.2790  174.4680  142.4060 C   0  0  2  0  0  3  0  0  0  0  0  0
  187.0290  177.7350  145.7150 C   0  0  0  0  0  2  0  0  0  0  0  0
  189.1670  171.8510  139.3380 C   0  0  0  0  0  2  0  0  0  0  0  0
  191.4770  172.4800  139.0750 C   0  0  0  0  0  2  0  0  0  0  0  0
  194.3270  172.1630  145.6890 C   0  0  0  0  0  1  0  0  0  0  0  0
  188.9670  176.7600  146.8480 C   0  0  0  0  0  1  0  0  0  0  0  0
  187.6200  175.3080  142.1750 C   0  0  1  0  0  3  0  0  0  0  0  0
  186.4100  178.1840  144.4040 C   0  0  0  0  0  2  0  0  0  0  0  0
  194.0410  173.5200  145.0820 C   0  0  1  0  0  3  0  0  0  0  0  0
  188.4810  176.0610  144.4600 C   0  0  1  0  0  3  0  0  0  0  0  0
  188.7300  174.2440  142.2720 C   0  0  1  0  0  3  0  0  0  0  0  0
  188.4120  174.5950  138.7720 O   0  0  0  0  0  0  0  0  0  0  0  0
  188.8690  173.7360  140.9250 N   0  0  0  0  0  0  0  0  0  0  0  0
  190.4330  171.5000  138.5860 C   0  0  0  0  0  2  0  0  0  0  0  0
  192.8630  174.4340  140.5840 O   0  0  0  0  0  1  0  0  0  0  0  0
  186.3290  176.9950  143.4640 C   0  0  0  0  0  2  0  0  0  0  0  0
  187.7300  176.4710  143.1680 C   0  0  2  0  0  3  0  0  0  0  0  0
  191.5350  174.1740  140.9370 C   0  0  1  0  0  3  0  0  0  0  0  0
  1 22  1  0  0  0  0
  1  5  1  1  0  0  0
  2 14  1  0  0  0  0
  2 18  1  1  0  0  0
  3 19  1  0  0  0  0
  4  1  1  0  0  0  0
  6  8  1  0  0  0  0
  6 21  1  0  0  0  0
  7 10  1  0  0  0  0
  7 30  1  0  0  0  0
  8 12  1  0  0  0  0
 10 25  1  0  0  0  0
 11  3  1  0  0  0  0
 11 25  1  0  0  0  0
 12  5  2  0  0  0  0
 12  9  1  0  0  0  0
 13  4  1  0  0  0  0
 13  8  1  0  0  0  0
 15 10  1  0  0  0  0
 16  7  1  0  0  0  0
 19 23  1  0  0  0  0
 19 29  1  0  0  0  0
 20 14  1  0  0  0  0
 21 17  1  0  0  0  0
 21  9  1  0  0  0  0
 22  2  1  0  0  0  0
 23  4  1  0  0  0  0
 24 11  2  0  0  0  0
 25 23  1  0  0  0  0
 26 16  1  0  0  0  0
 26 15  1  0  0  0  0
 27 30  1  0  0  0  0
 28 20  1  0  0  0  0
 29 28  1  0  0  0  0
 29 22  1  0  0  0  0
 30 13  1  0  0  0  0
M  END
>  <MODEL>
9

>  <REMARK>
 VINA RESULT:      -7.6      2.289      5.483
  Name = 
  0 active torsions:
  status: ('A' for Active; 'I' for Inactive)
                            x       y       z     vdW  Elec       q    Type
                         _______ _______ _______ _____ _____    ______ ____

>  <TORSDO>
F 0

$$$$
