=
 OpenBabel11052419463D

 55 62  0  0  1  0  0  0  0  0999 V2000
  187.7480  175.6250  141.9200 C   0  0  0  0  0  2  0  0  0  0  0  0
  192.5760  176.0130  142.5590 C   0  0  0  0  0  2  0  0  0  0  0  0
  192.3130  178.6100  143.6850 O   0  0  0  0  0  0  0  0  0  0  0  0
  189.9390  178.5790  143.8130 C   0  0  0  0  0  2  0  0  0  0  0  0
  187.7130  173.1310  141.9830 C   0  0  0  0  0  3  0  0  0  0  0  0
  190.0370  173.1320  143.5060 C   0  0  0  0  0  0  0  0  0  0  0  0
  187.1240  176.3490  143.0980 C   0  0  0  0  0  2  0  0  0  0  0  0
  189.4590  174.3020  143.1170 N   0  0  0  0  0  0  0  0  0  0  0  0
  192.4290  174.5000  142.4650 C   0  0  0  0  0  2  0  0  0  0  0  0
  191.3240  176.6120  142.9920 N   0  0  0  0  0  2  0  0  0  0  0  0
  191.2590  177.9420  143.5140 C   0  0  0  0  0  0  0  0  0  0  0  0
  188.2720  171.9200  142.3900 C   0  0  0  0  0  3  0  0  0  0  0  0
  192.4440  173.8390  143.8490 C   0  0  2  0  0  0  0  0  0  0  0  0
  188.3280  174.3270  142.3590 C   0  0  0  0  0  0  0  0  0  0  0  0
  188.8840  177.5450  144.1930 C   0  0  2  0  0  3  0  0  0  0  0  0
  187.7520  177.6530  143.2550 N   0  0  0  0  0  0  0  0  0  0  0  0
  192.3330  172.3810  143.7150 N   0  0  0  0  0  2  0  0  0  0  0  0
  191.2560  173.1340  144.3820 C   0  0  2  0  0  3  0  0  0  0  0  0
  189.4380  171.9160  143.1580 C   0  0  0  0  0  3  0  0  0  0  0  0
  189.7380  177.8180  146.5990 C   0  0  0  0  0  2  0  0  0  0  0  0
  190.6460  176.5920  146.5440 C   0  0  0  0  0  2  0  0  0  0  0  0
  187.7050  176.3930  146.1630 C   0  0  2  0  0  3  0  0  0  0  0  0
  188.5630  175.2200  146.5760 C   0  0  0  0  0  3  0  0  0  0  0  0
  189.8830  175.3190  146.7890 C   0  0  0  0  0  3  0  0  0  0  0  0
  188.5110  177.6180  145.6980 C   0  0  2  0  0  3  0  0  0  0  0  0
  186.7890  176.7800  147.3080 C   0  0  0  0  0  1  0  0  0  0  0  0
  193.2550  174.5130  146.2400 C   0  0  0  0  0  2  0  0  0  0  0  0
  193.5770  174.1960  144.8260 C   0  0  2  0  0  0  0  0  0  0  0  0
  193.4390  175.5250  145.2760 O   0  0  0  0  0  0  0  0  0  0  0  0
  195.5910  172.5190  144.9560 C   0  0  2  0  0  0  0  0  0  0  0  0
  197.0150  174.1590  145.4300 C   0  0  0  0  0  2  0  0  0  0  0  0
  196.6520  172.8530  145.7970 O   0  0  0  0  0  0  0  0  0  0  0  0
  195.0400  173.8560  144.4590 C   0  0  2  0  0  3  0  0  0  0  0  0
  195.9200  174.8490  144.8940 O   0  0  0  0  0  0  0  0  0  0  0  0
  194.5950  171.6840  145.7620 C   0  0  0  0  0  1  0  0  0  0  0  0
  196.1380  171.7020  143.7650 C   0  0  2  0  0  3  0  0  0  0  0  0
  195.9590  172.3770  142.4370 C   0  0  0  0  0  0  0  0  0  0  0  0
  194.9390  172.1510  141.7330 O   0  0  0  0  0  0  0  0  0  0  0  0
  196.9190  173.2730  141.9870 O   0  0  0  0  0  1  0  0  0  0  0  0
  195.5820  170.4150  143.7360 O   0  0  0  0  0  0  0  0  0  0  0  0
  197.2220  168.8680  144.5220 C   0  0  0  0  0  1  0  0  0  0  0  0
  196.6180  169.5750  143.3170 C   0  0  1  0  0  3  0  0  0  0  0  0
  196.5680  168.9050  141.0000 O   0  0  0  0  0  1  0  0  0  0  0  0
  196.0980  168.5840  142.2750 C   0  0  2  0  0  3  0  0  0  0  0  0
  194.5820  168.5380  142.2740 C   0  0  0  0  0  1  0  0  0  0  0  0
  186.7440  178.6080  143.7090 C   0  0  0  0  0  2  0  0  0  0  0  0
  185.6010  178.4320  141.4920 C   0  0  0  0  0  3  0  0  0  0  0  0
  183.1830  178.2910  141.3350 C   0  0  0  0  0  0  0  0  0  0  0  0
  184.2580  178.4220  143.5070 C   0  0  0  0  0  3  0  0  0  0  0  0
  183.0980  178.3230  142.7340 C   0  0  0  0  0  3  0  0  0  0  0  0
  184.4420  178.3320  140.7180 C   0  0  0  0  0  3  0  0  0  0  0  0
  185.5100  178.4740  142.8870 C   0  0  0  0  0  0  0  0  0  0  0  0
  181.9410  178.1380  140.5110 C   0  0  1  0  0  3  0  0  0  0  0  0
  180.7500  178.1790  141.3590 C   0  0  0  0  0  2  0  0  0  0  0  0
  181.1330  179.3660  140.5870 N   0  0  0  0  0  2  0  0  0  0  0  0
  1 14  1  0  0  0  0
  1  7  1  0  0  0  0
  2 10  1  0  0  0  0
  5 14  2  0  0  0  0
  5 12  1  0  0  0  0
  7 16  1  0  0  0  0
  8  6  2  0  0  0  0
  9  2  1  0  0  0  0
 10 11  1  0  0  0  0
 11  3  2  0  0  0  0
 11  4  1  0  0  0  0
 12 19  2  0  0  0  0
 13  9  1  6  0  0  0
 13 18  1  0  0  0  0
 13 28  1  0  0  0  0
 14  8  1  0  0  0  0
 15  4  1  6  0  0  0
 15 25  1  0  0  0  0
 16 46  1  0  0  0  0
 16 15  1  0  0  0  0
 17 13  1  0  0  0  0
 17 18  1  0  0  0  0
 18  6  1  6  0  0  0
 19  6  1  0  0  0  0
 21 20  1  0  0  0  0
 21 24  1  0  0  0  0
 22 23  1  0  0  0  0
 22 26  1  1  0  0  0
 23 24  2  0  0  0  0
 25 22  1  0  0  0  0
 25 20  1  1  0  0  0
 28 29  1  0  0  0  0
 28 27  1  1  0  0  0
 29 27  1  0  0  0  0
 30 35  1  1  0  0  0
 30 32  1  0  0  0  0
 31 32  1  0  0  0  0
 33 28  1  0  0  0  0
 33 34  1  1  0  0  0
 33 30  1  0  0  0  0
 34 31  1  0  0  0  0
 36 37  1  6  0  0  0
 36 30  1  0  0  0  0
 38 37  2  0  0  0  0
 39 37  1  0  0  0  0
 40 36  1  0  0  0  0
 42 40  1  0  0  0  0
 42 41  1  1  0  0  0
 43 44  1  0  0  0  0
 44 45  1  6  0  0  0
 44 42  1  0  0  0  0
 47 52  1  0  0  0  0
 48 50  2  0  0  0  0
 50 49  1  0  0  0  0
 51 48  1  0  0  0  0
 51 47  2  0  0  0  0
 52 49  2  0  0  0  0
 52 46  1  0  0  0  0
 53 55  1  0  0  0  0
 53 48  1  1  0  0  0
 53 54  1  0  0  0  0
 55 54  1  0  0  0  0
M  END
>  <MODEL>
1

>  <REMARK>
 VINA RESULT:      -7.8      0.000      0.000
  Name = 
  11 active torsions:
  status: ('A' for Active; 'I' for Inactive)
    1  A    between atoms: C_1  and  C_53
    2  A    between atoms: C_6  and  C_53
    3  A    between atoms: C_8  and  C_20
    4  A    between atoms: C_8  and  C_43
    5  A    between atoms: C_10  and  C_32
    6  A    between atoms: C_11  and  C_29
    7  A    between atoms: C_11  and  O_38
    8  A    between atoms: C_26  and  C_45
    9  A    between atoms: C_33  and  N_49
   10  A    between atoms: C_33  and  C_52
   11  A    between atoms: O_38  and  C_53
                            x       y       z     vdW  Elec       q    Type
                         _______ _______ _______ _____ _____    ______ ____

>  <TORSDO>
F 11

$$$$
=
 OpenBabel11052419463D

 55 62  0  0  1  0  0  0  0  0999 V2000
  193.6690  172.3390  145.5940 C   0  0  0  0  0  2  0  0  0  0  0  0
  191.7460  172.2740  141.1040 C   0  0  0  0  0  2  0  0  0  0  0  0
  190.1310  174.5470  141.6610 O   0  0  0  0  0  0  0  0  0  0  0  0
  191.1200  175.0360  143.7670 C   0  0  0  0  0  2  0  0  0  0  0  0
  195.7860  171.1860  144.9480 C   0  0  0  0  0  3  0  0  0  0  0  0
  195.4980  172.1070  142.3420 C   0  0  0  0  0  0  0  0  0  0  0  0
  193.7750  173.8060  145.9680 C   0  0  0  0  0  2  0  0  0  0  0  0
  194.5910  172.4380  143.3020 N   0  0  0  0  0  0  0  0  0  0  0  0
  193.0250  171.4830  140.8690 C   0  0  0  0  0  2  0  0  0  0  0  0
  191.8990  173.1450  142.2580 N   0  0  0  0  0  2  0  0  0  0  0  0
  191.0250  174.2510  142.4980 C   0  0  0  0  0  0  0  0  0  0  0  0
  196.7420  170.8540  143.9880 C   0  0  0  0  0  3  0  0  0  0  0  0
  194.1200  172.3460  140.2310 C   0  0  2  0  0  0  0  0  0  0  0  0
  194.7030  171.9880  144.5820 C   0  0  0  0  0  0  0  0  0  0  0  0
  192.5380  175.0340  144.3290 C   0  0  2  0  0  3  0  0  0  0  0  0
  192.5100  174.4700  145.6910 N   0  0  0  0  0  0  0  0  0  0  0  0
  195.3240  171.5410  139.9900 N   0  0  0  0  0  2  0  0  0  0  0  0
  195.3760  172.6570  140.9500 C   0  0  2  0  0  3  0  0  0  0  0  0
  196.6030  171.3170  142.6790 C   0  0  0  0  0  3  0  0  0  0  0  0
  193.2440  176.9310  142.7500 C   0  0  0  0  0  2  0  0  0  0  0  0
  194.1390  176.0430  141.8880 C   0  0  0  0  0  2  0  0  0  0  0  0
  194.6390  176.4380  144.7910 C   0  0  2  0  0  3  0  0  0  0  0  0
  195.7070  175.9790  143.8270 C   0  0  0  0  0  3  0  0  0  0  0  0
  195.4930  175.8410  142.5110 C   0  0  0  0  0  3  0  0  0  0  0  0
  193.2190  176.4230  144.1980 C   0  0  2  0  0  3  0  0  0  0  0  0
  194.9740  177.8290  145.2940 C   0  0  0  0  0  1  0  0  0  0  0  0
  194.5700  174.3820  138.6560 C   0  0  0  0  0  2  0  0  0  0  0  0
  193.7760  173.1700  138.9790 C   0  0  2  0  0  0  0  0  0  0  0  0
  193.3410  174.4600  139.3410 O   0  0  0  0  0  0  0  0  0  0  0  0
  193.6080  171.8430  136.7210 C   0  0  2  0  0  0  0  0  0  0  0  0
  192.0830  173.2510  135.9270 C   0  0  0  0  0  2  0  0  0  0  0  0
  193.2550  172.5600  135.5780 O   0  0  0  0  0  0  0  0  0  0  0  0
  192.8920  172.5480  137.8730 C   0  0  2  0  0  3  0  0  0  0  0  0
  192.0410  173.4990  137.3050 O   0  0  0  0  0  0  0  0  0  0  0  0
  195.1340  171.8460  136.8270 C   0  0  0  0  0  1  0  0  0  0  0  0
  193.0830  170.3970  136.5840 C   0  0  2  0  0  3  0  0  0  0  0  0
  192.9800  169.9240  135.1630 C   0  0  0  0  0  0  0  0  0  0  0  0
  191.8820  169.9750  134.5480 O   0  0  0  0  0  1  0  0  0  0  0  0
  194.1090  169.4420  134.5160 O   0  0  0  0  0  0  0  0  0  0  0  0
  191.8530  170.2400  137.2410 O   0  0  0  0  0  0  0  0  0  0  0  0
  192.9930  168.6750  138.6370 C   0  0  0  0  0  1  0  0  0  0  0  0
  191.8360  168.9120  137.6770 C   0  0  1  0  0  3  0  0  0  0  0  0
  189.5550  169.5980  138.0590 O   0  0  0  0  0  1  0  0  0  0  0  0
  190.4860  168.5910  138.3190 C   0  0  2  0  0  3  0  0  0  0  0  0
  190.6280  168.3880  139.8160 C   0  0  0  0  0  1  0  0  0  0  0  0
  192.2820  175.4920  146.7110 C   0  0  0  0  0  2  0  0  0  0  0  0
  189.9190  174.7910  147.1370 C   0  0  0  0  0  3  0  0  0  0  0  0
  188.0850  176.3640  146.9120 C   0  0  0  0  0  0  0  0  0  0  0  0
  190.3690  177.0920  146.5280 C   0  0  0  0  0  3  0  0  0  0  0  0
  189.0010  177.3750  146.5890 C   0  0  0  0  0  3  0  0  0  0  0  0
  188.5520  175.0730  147.1990 C   0  0  0  0  0  3  0  0  0  0  0  0
  190.8290  175.8000  146.8040 C   0  0  0  0  0  0  0  0  0  0  0  0
  186.6250  176.6830  147.0220 C   0  0  1  0  0  3  0  0  0  0  0  0
  186.3330  177.9840  146.4220 C   0  0  0  0  0  2  0  0  0  0  0  0
  186.0250  176.7570  145.6800 N   0  0  0  0  0  2  0  0  0  0  0  0
  1  7  1  0  0  0  0
  2 10  1  0  0  0  0
  3 11  2  0  0  0  0
  6 19  2  0  0  0  0
  6  8  1  0  0  0  0
  8 14  2  0  0  0  0
  9  2  1  0  0  0  0
 10 11  1  0  0  0  0
 11  4  1  0  0  0  0
 12  5  2  0  0  0  0
 13  9  1  1  0  0  0
 13 18  1  0  0  0  0
 14  5  1  0  0  0  0
 14  1  1  0  0  0  0
 15  4  1  1  0  0  0
 15 16  1  0  0  0  0
 16  7  1  0  0  0  0
 16 46  1  0  0  0  0
 17 13  1  0  0  0  0
 18 17  1  6  0  0  0
 18  6  1  0  0  0  0
 19 12  1  0  0  0  0
 21 24  1  0  0  0  0
 21 20  1  0  0  0  0
 22 26  1  6  0  0  0
 23 22  1  0  0  0  0
 24 23  2  0  0  0  0
 25 20  1  6  0  0  0
 25 15  1  0  0  0  0
 25 22  1  0  0  0  0
 27 29  1  0  0  0  0
 28 27  1  6  0  0  0
 28 29  1  0  0  0  0
 28 13  1  0  0  0  0
 30 35  1  1  0  0  0
 30 33  1  0  0  0  0
 31 34  1  0  0  0  0
 32 31  1  0  0  0  0
 32 30  1  0  0  0  0
 33 34  1  6  0  0  0
 33 28  1  0  0  0  0
 36 37  1  6  0  0  0
 36 30  1  0  0  0  0
 36 40  1  0  0  0  0
 38 37  1  0  0  0  0
 39 37  2  0  0  0  0
 40 42  1  0  0  0  0
 42 44  1  0  0  0  0
 42 41  1  1  0  0  0
 43 44  1  0  0  0  0
 44 45  1  1  0  0  0
 46 52  1  0  0  0  0
 47 51  1  0  0  0  0
 48 51  2  0  0  0  0
 49 50  2  0  0  0  0
 49 52  1  0  0  0  0
 50 48  1  0  0  0  0
 52 47  2  0  0  0  0
 53 48  1  6  0  0  0
 54 53  1  0  0  0  0
 55 54  1  0  0  0  0
 55 53  1  0  0  0  0
M  END
>  <MODEL>
2

>  <REMARK>
 VINA RESULT:      -6.4      3.853      7.079
  Name = 
  11 active torsions:
  status: ('A' for Active; 'I' for Inactive)
    1  A    between atoms: C_1  and  C_53
    2  A    between atoms: C_6  and  C_53
    3  A    between atoms: C_8  and  C_20
    4  A    between atoms: C_8  and  C_43
    5  A    between atoms: C_10  and  C_32
    6  A    between atoms: C_11  and  C_29
    7  A    between atoms: C_11  and  O_38
    8  A    between atoms: C_26  and  C_45
    9  A    between atoms: C_33  and  N_49
   10  A    between atoms: C_33  and  C_52
   11  A    between atoms: O_38  and  C_53
                            x       y       z     vdW  Elec       q    Type
                         _______ _______ _______ _____ _____    ______ ____

>  <TORSDO>
F 11

$$$$
=
 OpenBabel11052419463D

 55 62  0  0  1  0  0  0  0  0999 V2000
  195.4760  172.9560  140.4150 C   0  0  0  0  0  2  0  0  0  0  0  0
  191.3600  173.7490  142.9230 C   0  0  0  0  0  2  0  0  0  0  0  0
  191.1800  171.0130  143.6750 O   0  0  0  0  0  0  0  0  0  0  0  0
  193.3150  170.3910  142.8340 C   0  0  0  0  0  2  0  0  0  0  0  0
  196.3200  175.2960  140.6220 C   0  0  0  0  0  3  0  0  0  0  0  0
  194.8400  175.6280  142.9500 C   0  0  0  0  0  0  0  0  0  0  0  0
  196.2240  171.8880  141.1900 C   0  0  0  0  0  2  0  0  0  0  0  0
  194.8340  174.4400  142.2850 N   0  0  0  0  0  0  0  0  0  0  0  0
  191.9330  175.1590  142.8770 C   0  0  0  0  0  2  0  0  0  0  0  0
  192.4240  172.7700  142.7740 N   0  0  0  0  0  2  0  0  0  0  0  0
  192.2520  171.3980  143.1370 C   0  0  0  0  0  0  0  0  0  0  0  0
  196.3610  176.5150  141.2990 C   0  0  0  0  0  3  0  0  0  0  0  0
  192.6350  175.5320  144.1900 C   0  0  2  0  0  0  0  0  0  0  0  0
  195.5400  174.2570  141.1350 C   0  0  0  0  0  0  0  0  0  0  0  0
  194.7050  171.0200  142.8220 C   0  0  2  0  0  3  0  0  0  0  0  0
  195.3190  170.7910  141.5020 N   0  0  0  0  0  0  0  0  0  0  0  0
  193.1440  176.9080  144.1190 N   0  0  0  0  0  2  0  0  0  0  0  0
  194.0920  175.7870  144.2420 C   0  0  2  0  0  3  0  0  0  0  0  0
  195.6230  176.6850  142.4700 C   0  0  0  0  0  3  0  0  0  0  0  0
  194.8000  170.7050  145.3690 C   0  0  0  0  0  2  0  0  0  0  0  0
  194.5250  172.1740  145.6810 C   0  0  0  0  0  2  0  0  0  0  0  0
  196.9020  171.3160  144.1180 C   0  0  2  0  0  3  0  0  0  0  0  0
  196.8240  172.6420  144.8370 C   0  0  0  0  0  3  0  0  0  0  0  0
  195.7690  173.0120  145.5760 C   0  0  0  0  0  3  0  0  0  0  0  0
  195.5570  170.5720  144.0400 C   0  0  2  0  0  3  0  0  0  0  0  0
  197.9410  170.4360  144.7870 C   0  0  0  0  0  1  0  0  0  0  0  0
  192.5910  175.5380  146.8020 C   0  0  0  0  0  2  0  0  0  0  0  0
  191.8860  175.3140  145.5150 C   0  0  2  0  0  0  0  0  0  0  0  0
  192.4650  174.2520  146.2390 O   0  0  0  0  0  0  0  0  0  0  0  0
  189.5890  176.4920  145.9880 C   0  0  2  0  0  0  0  0  0  0  0  0
  188.7980  174.6890  147.0180 C   0  0  0  0  0  2  0  0  0  0  0  0
  188.8790  176.0870  147.1170 O   0  0  0  0  0  0  0  0  0  0  0  0
  190.3410  175.2450  145.5200 C   0  0  2  0  0  3  0  0  0  0  0  0
  189.8800  174.1770  146.2920 O   0  0  0  0  0  0  0  0  0  0  0  0
  190.4890  177.6610  146.3900 C   0  0  0  0  0  1  0  0  0  0  0  0
  188.5850  176.9360  144.9010 C   0  0  2  0  0  3  0  0  0  0  0  0
  187.2010  177.1880  145.4240 C   0  0  0  0  0  0  0  0  0  0  0  0
  186.2680  176.3760  145.1870 O   0  0  0  0  0  0  0  0  0  0  0  0
  186.9520  178.3180  146.1900 O   0  0  0  0  0  1  0  0  0  0  0  0
  188.5470  176.0190  143.8410 O   0  0  0  0  0  0  0  0  0  0  0  0
  189.5160  177.7960  142.5760 C   0  0  0  0  0  1  0  0  0  0  0  0
  188.3770  176.7930  142.6890 C   0  0  1  0  0  3  0  0  0  0  0  0
  187.3970  176.4090  140.5190 O   0  0  0  0  0  1  0  0  0  0  0  0
  188.2870  175.8890  141.4600 C   0  0  2  0  0  3  0  0  0  0  0  0
  187.8720  174.4820  141.8460 C   0  0  0  0  0  1  0  0  0  0  0  0
  196.0650  169.5360  141.4460 C   0  0  0  0  0  2  0  0  0  0  0  0
  197.6670  168.9250  139.6250 C   0  0  0  0  0  3  0  0  0  0  0  0
  196.9030  168.5750  137.3480 C   0  0  0  0  0  0  0  0  0  0  0  0
  195.3120  169.1290  139.0960 C   0  0  0  0  0  3  0  0  0  0  0  0
  195.5850  168.8210  137.7610 C   0  0  0  0  0  3  0  0  0  0  0  0
  197.9410  168.6150  138.2900 C   0  0  0  0  0  3  0  0  0  0  0  0
  196.3530  169.1790  140.0300 C   0  0  0  0  0  0  0  0  0  0  0  0
  197.1860  168.1990  135.9260 C   0  0  1  0  0  3  0  0  0  0  0  0
  196.0590  168.5520  135.0640 C   0  0  0  0  0  2  0  0  0  0  0  0
  197.2490  169.4090  135.0890 N   0  0  0  0  0  2  0  0  0  0  0  0
  1 14  1  0  0  0  0
  1  7  1  0  0  0  0
  4 11  1  0  0  0  0
  5 14  2  0  0  0  0
  5 12  1  0  0  0  0
  7 16  1  0  0  0  0
  8  6  2  0  0  0  0
  9  2  1  0  0  0  0
 10  2  1  0  0  0  0
 10 11  1  0  0  0  0
 11  3  2  0  0  0  0
 12 19  2  0  0  0  0
 13  9  1  6  0  0  0
 13 18  1  0  0  0  0
 13 28  1  0  0  0  0
 14  8  1  0  0  0  0
 15  4  1  6  0  0  0
 15 25  1  0  0  0  0
 16 15  1  0  0  0  0
 17 13  1  0  0  0  0
 17 18  1  0  0  0  0
 18  6  1  6  0  0  0
 19  6  1  0  0  0  0
 20 21  1  0  0  0  0
 22 26  1  1  0  0  0
 22 23  1  0  0  0  0
 23 24  2  0  0  0  0
 24 21  1  0  0  0  0
 25 22  1  0  0  0  0
 25 20  1  1  0  0  0
 28 33  1  0  0  0  0
 28 29  1  0  0  0  0
 28 27  1  1  0  0  0
 29 27  1  0  0  0  0
 30 35  1  1  0  0  0
 30 32  1  0  0  0  0
 31 32  1  0  0  0  0
 33 30  1  0  0  0  0
 33 34  1  1  0  0  0
 34 31  1  0  0  0  0
 36 40  1  6  0  0  0
 36 37  1  0  0  0  0
 36 30  1  0  0  0  0
 37 39  1  0  0  0  0
 38 37  2  0  0  0  0
 42 41  1  6  0  0  0
 42 40  1  0  0  0  0
 43 44  1  0  0  0  0
 44 45  1  1  0  0  0
 44 42  1  0  0  0  0
 46 16  1  0  0  0  0
 47 52  1  0  0  0  0
 48 50  2  0  0  0  0
 48 51  1  0  0  0  0
 49 52  2  0  0  0  0
 50 49  1  0  0  0  0
 51 47  2  0  0  0  0
 52 46  1  0  0  0  0
 53 48  1  1  0  0  0
 54 55  1  0  0  0  0
 54 53  1  0  0  0  0
 55 53  1  0  0  0  0
M  END
>  <MODEL>
3

>  <REMARK>
 VINA RESULT:      -6.2      3.522     10.294
  Name = 
  11 active torsions:
  status: ('A' for Active; 'I' for Inactive)
    1  A    between atoms: C_1  and  C_53
    2  A    between atoms: C_6  and  C_53
    3  A    between atoms: C_8  and  C_20
    4  A    between atoms: C_8  and  C_43
    5  A    between atoms: C_10  and  C_32
    6  A    between atoms: C_11  and  C_29
    7  A    between atoms: C_11  and  O_38
    8  A    between atoms: C_26  and  C_45
    9  A    between atoms: C_33  and  N_49
   10  A    between atoms: C_33  and  C_52
   11  A    between atoms: O_38  and  C_53
                            x       y       z     vdW  Elec       q    Type
                         _______ _______ _______ _____ _____    ______ ____

>  <TORSDO>
F 11

$$$$
=
 OpenBabel11052419463D

 55 62  0  0  1  0  0  0  0  0999 V2000
  196.3070  172.8250  140.7000 C   0  0  0  0  0  2  0  0  0  0  0  0
  192.0950  174.9920  141.8930 C   0  0  0  0  0  2  0  0  0  0  0  0
  190.6690  172.5400  141.6940 O   0  0  0  0  0  0  0  0  0  0  0  0
  192.5900  171.1650  141.4260 C   0  0  0  0  0  2  0  0  0  0  0  0
  197.7550  174.4990  141.8530 C   0  0  0  0  0  3  0  0  0  0  0  0
  195.6700  175.1210  143.5800 C   0  0  0  0  0  0  0  0  0  0  0  0
  196.2390  171.4400  141.3150 C   0  0  0  0  0  2  0  0  0  0  0  0
  195.5190  174.1630  142.6240 N   0  0  0  0  0  0  0  0  0  0  0  0
  193.0920  175.9960  142.4550 C   0  0  0  0  0  2  0  0  0  0  0  0
  192.7050  173.6760  141.8020 N   0  0  0  0  0  2  0  0  0  0  0  0
  191.9270  172.4840  141.6640 C   0  0  0  0  0  0  0  0  0  0  0  0
  197.9410  175.4670  142.8400 C   0  0  0  0  0  3  0  0  0  0  0  0
  193.2720  175.8340  143.9690 C   0  0  2  0  0  0  0  0  0  0  0  0
  196.5220  173.8500  141.7580 C   0  0  0  0  0  0  0  0  0  0  0  0
  193.9840  171.1120  142.0430 C   0  0  2  0  0  3  0  0  0  0  0  0
  194.9640  170.8220  140.9810 N   0  0  0  0  0  0  0  0  0  0  0  0
  194.2140  176.8390  144.4780 N   0  0  0  0  0  2  0  0  0  0  0  0
  194.5640  175.4100  144.5540 C   0  0  2  0  0  3  0  0  0  0  0  0
  196.8970  175.7800  143.7120 C   0  0  0  0  0  3  0  0  0  0  0  0
  193.0280  170.5600  144.3620 C   0  0  0  0  0  2  0  0  0  0  0  0
  193.3900  171.9140  144.9660 C   0  0  0  0  0  2  0  0  0  0  0  0
  195.4530  170.0740  143.8770 C   0  0  2  0  0  3  0  0  0  0  0  0
  195.7670  171.1660  144.8720 C   0  0  0  0  0  3  0  0  0  0  0  0
  194.8300  171.9690  145.3960 C   0  0  0  0  0  3  0  0  0  0  0  0
  194.0400  170.1690  143.2760 C   0  0  2  0  0  3  0  0  0  0  0  0
  195.6470  168.7200  144.5310 C   0  0  0  0  0  1  0  0  0  0  0  0
  191.9760  174.8550  146.0160 C   0  0  0  0  0  2  0  0  0  0  0  0
  192.0190  175.7850  144.8600 C   0  0  2  0  0  0  0  0  0  0  0  0
  191.4020  174.5210  144.7740 O   0  0  0  0  0  0  0  0  0  0  0  0
  189.6230  176.6250  144.1940 C   0  0  2  0  0  0  0  0  0  0  0  0
  190.4480  178.4850  143.3010 C   0  0  0  0  0  2  0  0  0  0  0  0
  189.5200  177.4550  143.0790 O   0  0  0  0  0  0  0  0  0  0  0  0
  190.9910  176.9390  144.8010 C   0  0  2  0  0  3  0  0  0  0  0  0
  191.5000  178.0420  144.1130 O   0  0  0  0  0  0  0  0  0  0  0  0
  189.4570  175.1790  143.7230 C   0  0  0  0  0  1  0  0  0  0  0  0
  188.5070  176.9950  145.1960 C   0  0  2  0  0  3  0  0  0  0  0  0
  188.8550  176.6940  146.6240 C   0  0  0  0  0  0  0  0  0  0  0  0
  188.6300  175.5560  147.1140 O   0  0  0  0  0  0  0  0  0  0  0  0
  189.4460  177.6760  147.4080 O   0  0  0  0  0  1  0  0  0  0  0  0
  187.2930  176.3840  144.8500 O   0  0  0  0  0  0  0  0  0  0  0  0
  185.4580  177.0770  143.4900 C   0  0  0  0  0  1  0  0  0  0  0  0
  186.4010  177.4370  144.6300 C   0  0  1  0  0  3  0  0  0  0  0  0
  184.9420  176.6420  146.3780 O   0  0  0  0  0  1  0  0  0  0  0  0
  185.6430  177.7580  145.9170 C   0  0  2  0  0  3  0  0  0  0  0  0
  184.6920  178.9220  145.7150 C   0  0  0  0  0  1  0  0  0  0  0  0
  195.1710  169.3880  140.7920 C   0  0  0  0  0  2  0  0  0  0  0  0
  196.9120  168.3850  139.3030 C   0  0  0  0  0  3  0  0  0  0  0  0
  196.8440  168.7080  136.8980 C   0  0  0  0  0  0  0  0  0  0  0  0
  195.1140  169.6660  138.3070 C   0  0  0  0  0  3  0  0  0  0  0  0
  195.6610  169.4480  137.0390 C   0  0  0  0  0  3  0  0  0  0  0  0
  197.4600  168.1660  138.0360 C   0  0  0  0  0  3  0  0  0  0  0  0
  195.7380  169.1320  139.4390 C   0  0  0  0  0  0  0  0  0  0  0  0
  197.4010  168.4380  135.5350 C   0  0  1  0  0  3  0  0  0  0  0  0
  196.6440  169.1590  134.5140 C   0  0  0  0  0  2  0  0  0  0  0  0
  197.9410  169.6800  134.9570 N   0  0  0  0  0  2  0  0  0  0  0  0
  1  7  1  0  0  0  0
  1 14  1  0  0  0  0
  2  9  1  0  0  0  0
  4 11  1  0  0  0  0
  5 12  1  0  0  0  0
  6 19  1  0  0  0  0
  8  6  2  0  0  0  0
 10  2  1  0  0  0  0
 11  3  2  0  0  0  0
 11 10  1  0  0  0  0
 12 19  2  0  0  0  0
 13  9  1  6  0  0  0
 13 17  1  0  0  0  0
 13 18  1  0  0  0  0
 13 28  1  0  0  0  0
 14  5  2  0  0  0  0
 14  8  1  0  0  0  0
 15  4  1  6  0  0  0
 15 25  1  0  0  0  0
 16  7  1  0  0  0  0
 16 15  1  0  0  0  0
 17 18  1  0  0  0  0
 18  6  1  6  0  0  0
 20 21  1  0  0  0  0
 21 24  1  0  0  0  0
 22 26  1  1  0  0  0
 22 23  1  0  0  0  0
 23 24  2  0  0  0  0
 25 22  1  0  0  0  0
 25 20  1  1  0  0  0
 28 27  1  1  0  0  0
 29 28  1  0  0  0  0
 29 27  1  0  0  0  0
 30 35  1  6  0  0  0
 30 33  1  0  0  0  0
 30 36  1  0  0  0  0
 31 34  1  0  0  0  0
 32 31  1  0  0  0  0
 32 30  1  0  0  0  0
 33 34  1  6  0  0  0
 33 28  1  0  0  0  0
 36 40  1  6  0  0  0
 36 37  1  0  0  0  0
 37 38  2  0  0  0  0
 37 39  1  0  0  0  0
 42 41  1  6  0  0  0
 42 40  1  0  0  0  0
 42 44  1  0  0  0  0
 44 45  1  6  0  0  0
 44 43  1  0  0  0  0
 46 16  1  0  0  0  0
 47 52  1  0  0  0  0
 48 50  2  0  0  0  0
 48 51  1  0  0  0  0
 49 52  2  0  0  0  0
 50 49  1  0  0  0  0
 51 47  2  0  0  0  0
 52 46  1  0  0  0  0
 53 48  1  1  0  0  0
 54 55  1  0  0  0  0
 54 53  1  0  0  0  0
 55 53  1  0  0  0  0
M  END
>  <MODEL>
4

>  <REMARK>
 VINA RESULT:      -6.2      3.517     10.591
  Name = 
  11 active torsions:
  status: ('A' for Active; 'I' for Inactive)
    1  A    between atoms: C_1  and  C_53
    2  A    between atoms: C_6  and  C_53
    3  A    between atoms: C_8  and  C_20
    4  A    between atoms: C_8  and  C_43
    5  A    between atoms: C_10  and  C_32
    6  A    between atoms: C_11  and  C_29
    7  A    between atoms: C_11  and  O_38
    8  A    between atoms: C_26  and  C_45
    9  A    between atoms: C_33  and  N_49
   10  A    between atoms: C_33  and  C_52
   11  A    between atoms: O_38  and  C_53
                            x       y       z     vdW  Elec       q    Type
                         _______ _______ _______ _____ _____    ______ ____

>  <TORSDO>
F 11

$$$$
=
 OpenBabel11052419463D

 55 62  0  0  1  0  0  0  0  0999 V2000
  193.6030  172.2800  145.3870 C   0  0  0  0  0  2  0  0  0  0  0  0
  191.6820  172.5700  140.9060 C   0  0  0  0  0  2  0  0  0  0  0  0
  190.1190  174.8340  141.6200 O   0  0  0  0  0  0  0  0  0  0  0  0
  191.1170  175.1530  143.7540 C   0  0  0  0  0  2  0  0  0  0  0  0
  195.6940  171.1280  144.6620 C   0  0  0  0  0  3  0  0  0  0  0  0
  195.4290  172.2330  142.1270 C   0  0  0  0  0  0  0  0  0  0  0  0
  193.7420  173.7150  145.8630 C   0  0  0  0  0  2  0  0  0  0  0  0
  194.5290  172.5180  143.1070 N   0  0  0  0  0  0  0  0  0  0  0  0
  192.9440  171.7680  140.6160 C   0  0  0  0  0  2  0  0  0  0  0  0
  191.8550  173.3550  142.1170 N   0  0  0  0  0  2  0  0  0  0  0  0
  191.0050  174.4610  142.4330 C   0  0  0  0  0  0  0  0  0  0  0  0
  196.6430  170.8410  143.6800 C   0  0  0  0  0  3  0  0  0  0  0  0
  194.0590  172.6490  140.0380 C   0  0  2  0  0  0  0  0  0  0  0  0
  194.6300  171.9770  144.3530 C   0  0  0  0  0  0  0  0  0  0  0  0
  192.5340  175.0810  144.3140 C   0  0  2  0  0  3  0  0  0  0  0  0
  192.4920  174.4260  145.6330 N   0  0  0  0  0  0  0  0  0  0  0  0
  195.2450  171.8350  139.7410 N   0  0  0  0  0  2  0  0  0  0  0  0
  195.3210  172.8810  140.7760 C   0  0  2  0  0  3  0  0  0  0  0  0
  196.5160  171.3970  142.4070 C   0  0  0  0  0  3  0  0  0  0  0  0
  193.3830  177.0150  142.8540 C   0  0  0  0  0  2  0  0  0  0  0  0
  194.3220  176.1380  142.0280 C   0  0  0  0  0  2  0  0  0  0  0  0
  194.6200  176.4290  144.9700 C   0  0  2  0  0  3  0  0  0  0  0  0
  195.7460  175.9810  144.0690 C   0  0  0  0  0  3  0  0  0  0  0  0
  195.6240  175.8900  142.7370 C   0  0  0  0  0  3  0  0  0  0  0  0
  193.2460  176.4600  144.2790 C   0  0  2  0  0  3  0  0  0  0  0  0
  194.9420  177.7950  145.5430 C   0  0  0  0  0  1  0  0  0  0  0  0
  194.8090  174.3870  138.2380 C   0  0  0  0  0  2  0  0  0  0  0  0
  193.7340  173.5640  138.8460 C   0  0  2  0  0  0  0  0  0  0  0  0
  193.9230  174.9160  139.1970 O   0  0  0  0  0  0  0  0  0  0  0  0
  192.4710  172.3440  136.8960 C   0  0  2  0  0  0  0  0  0  0  0  0
  191.5360  174.2430  136.2210 C   0  0  0  0  0  2  0  0  0  0  0  0
  192.1810  173.0870  135.7530 O   0  0  0  0  0  0  0  0  0  0  0  0
  192.4270  173.3480  138.0480 C   0  0  2  0  0  3  0  0  0  0  0  0
  191.9440  174.5490  137.5250 O   0  0  0  0  0  0  0  0  0  0  0  0
  193.8300  171.6730  136.6920 C   0  0  0  0  0  1  0  0  0  0  0  0
  191.3690  171.2770  137.0900 C   0  0  2  0  0  3  0  0  0  0  0  0
  191.6120  170.0120  136.3190 C   0  0  0  0  0  0  0  0  0  0  0  0
  192.1260  169.0080  136.8800 O   0  0  0  0  0  1  0  0  0  0  0  0
  191.2520  169.9430  134.9810 O   0  0  0  0  0  0  0  0  0  0  0  0
  190.1030  171.7970  136.7870 O   0  0  0  0  0  0  0  0  0  0  0  0
  190.0190  170.4840  138.7790 C   0  0  0  0  0  1  0  0  0  0  0  0
  189.3100  171.5050  137.9010 C   0  0  1  0  0  3  0  0  0  0  0  0
  188.2390  172.5170  139.8110 O   0  0  0  0  0  1  0  0  0  0  0  0
  188.9880  172.7900  138.6650 C   0  0  2  0  0  3  0  0  0  0  0  0
  188.2480  173.7780  137.7840 C   0  0  0  0  0  1  0  0  0  0  0  0
  192.2860  175.3780  146.7210 C   0  0  0  0  0  2  0  0  0  0  0  0
  189.8890  174.7630  147.0790 C   0  0  0  0  0  3  0  0  0  0  0  0
  188.1280  176.4240  146.9040 C   0  0  0  0  0  0  0  0  0  0  0  0
  190.4470  177.0680  146.5880 C   0  0  0  0  0  3  0  0  0  0  0  0
  189.0930  177.4080  146.6430 C   0  0  0  0  0  3  0  0  0  0  0  0
  188.5340  175.1020  147.1350 C   0  0  0  0  0  3  0  0  0  0  0  0
  190.8470  175.7460  146.8090 C   0  0  0  0  0  0  0  0  0  0  0  0
  186.6820  176.8010  147.0080 C   0  0  1  0  0  3  0  0  0  0  0  0
  186.4160  178.0400  146.2790 C   0  0  0  0  0  2  0  0  0  0  0  0
  186.0530  176.7530  145.6780 N   0  0  0  0  0  2  0  0  0  0  0  0
  1  7  1  0  0  0  0
  2 10  1  0  0  0  0
  3 11  2  0  0  0  0
  6 19  2  0  0  0  0
  6  8  1  0  0  0  0
  8 14  2  0  0  0  0
  9  2  1  0  0  0  0
 10 11  1  0  0  0  0
 11  4  1  0  0  0  0
 12  5  2  0  0  0  0
 13  9  1  1  0  0  0
 13 18  1  0  0  0  0
 14  5  1  0  0  0  0
 14  1  1  0  0  0  0
 15  4  1  1  0  0  0
 15 16  1  0  0  0  0
 16  7  1  0  0  0  0
 16 46  1  0  0  0  0
 17 13  1  0  0  0  0
 18 17  1  6  0  0  0
 18  6  1  0  0  0  0
 19 12  1  0  0  0  0
 21 24  1  0  0  0  0
 21 20  1  0  0  0  0
 22 26  1  6  0  0  0
 23 22  1  0  0  0  0
 24 23  2  0  0  0  0
 25 20  1  6  0  0  0
 25 15  1  0  0  0  0
 25 22  1  0  0  0  0
 27 29  1  0  0  0  0
 28 27  1  6  0  0  0
 28 29  1  0  0  0  0
 28 13  1  0  0  0  0
 30 35  1  6  0  0  0
 30 36  1  0  0  0  0
 30 33  1  0  0  0  0
 31 34  1  0  0  0  0
 32 31  1  0  0  0  0
 32 30  1  0  0  0  0
 33 34  1  6  0  0  0
 33 28  1  0  0  0  0
 36 37  1  6  0  0  0
 37 38  1  0  0  0  0
 39 37  2  0  0  0  0
 40 36  1  0  0  0  0
 40 42  1  0  0  0  0
 42 44  1  0  0  0  0
 42 41  1  1  0  0  0
 44 45  1  6  0  0  0
 44 43  1  0  0  0  0
 46 52  1  0  0  0  0
 47 51  1  0  0  0  0
 48 51  2  0  0  0  0
 49 50  2  0  0  0  0
 49 52  1  0  0  0  0
 50 48  1  0  0  0  0
 52 47  2  0  0  0  0
 53 48  1  6  0  0  0
 54 53  1  0  0  0  0
 55 54  1  0  0  0  0
 55 53  1  0  0  0  0
M  END
>  <MODEL>
5

>  <REMARK>
 VINA RESULT:      -5.9      3.784      7.329
  Name = 
  11 active torsions:
  status: ('A' for Active; 'I' for Inactive)
    1  A    between atoms: C_1  and  C_53
    2  A    between atoms: C_6  and  C_53
    3  A    between atoms: C_8  and  C_20
    4  A    between atoms: C_8  and  C_43
    5  A    between atoms: C_10  and  C_32
    6  A    between atoms: C_11  and  C_29
    7  A    between atoms: C_11  and  O_38
    8  A    between atoms: C_26  and  C_45
    9  A    between atoms: C_33  and  N_49
   10  A    between atoms: C_33  and  C_52
   11  A    between atoms: O_38  and  C_53
                            x       y       z     vdW  Elec       q    Type
                         _______ _______ _______ _____ _____    ______ ____

>  <TORSDO>
F 11

$$$$
=
 OpenBabel11052419463D

 55 62  0  0  1  0  0  0  0  0999 V2000
  196.5820  172.5310  141.8340 C   0  0  0  0  0  2  0  0  0  0  0  0
  192.7300  175.5280  142.0480 C   0  0  0  0  0  2  0  0  0  0  0  0
  191.2190  173.8610  140.3100 O   0  0  0  0  0  0  0  0  0  0  0  0
  192.7780  172.0670  140.2790 C   0  0  0  0  0  2  0  0  0  0  0  0
  197.5220  173.2140  144.0420 C   0  0  0  0  0  3  0  0  0  0  0  0
  194.9850  173.9610  144.8950 C   0  0  0  0  0  0  0  0  0  0  0  0
  196.0020  171.1320  141.7390 C   0  0  0  0  0  2  0  0  0  0  0  0
  195.1740  173.4310  143.6550 N   0  0  0  0  0  0  0  0  0  0  0  0
  193.4680  175.9320  143.3170 C   0  0  0  0  0  2  0  0  0  0  0  0
  193.0900  174.1710  141.6700 N   0  0  0  0  0  2  0  0  0  0  0  0
  192.3020  173.4020  140.7580 C   0  0  0  0  0  0  0  0  0  0  0  0
  197.3490  173.7320  145.3260 C   0  0  0  0  0  3  0  0  0  0  0  0
  192.8520  175.2860  144.5640 C   0  0  2  0  0  0  0  0  0  0  0  0
  196.4090  173.0700  143.2100 C   0  0  0  0  0  0  0  0  0  0  0  0
  193.6610  171.3750  141.3130 C   0  0  2  0  0  3  0  0  0  0  0  0
  194.9760  171.0990  140.7070 N   0  0  0  0  0  0  0  0  0  0  0  0
  193.5690  175.7260  145.7690 N   0  0  0  0  0  2  0  0  0  0  0  0
  193.6060  174.3050  145.3780 C   0  0  2  0  0  3  0  0  0  0  0  0
  196.0760  174.1060  145.7590 C   0  0  0  0  0  3  0  0  0  0  0  0
  191.4630  170.4040  142.2190 C   0  0  0  0  0  2  0  0  0  0  0  0
  191.2830  171.4860  143.2810 C   0  0  0  0  0  2  0  0  0  0  0  0
  193.6500  169.6880  143.2490 C   0  0  2  0  0  3  0  0  0  0  0  0
  193.1930  170.4260  144.4850 C   0  0  0  0  0  3  0  0  0  0  0  0
  192.1020  171.2040  144.5110 C   0  0  0  0  0  3  0  0  0  0  0  0
  192.9550  170.1520  141.9570 C   0  0  2  0  0  3  0  0  0  0  0  0
  193.4420  168.1980  143.4420 C   0  0  0  0  0  1  0  0  0  0  0  0
  190.6010  174.2840  145.4320 C   0  0  0  0  0  2  0  0  0  0  0  0
  191.3340  175.3990  144.7820 C   0  0  2  0  0  0  0  0  0  0  0  0
  190.6540  174.4190  144.0300 O   0  0  0  0  0  0  0  0  0  0  0  0
  189.5950  176.9670  143.5970 C   0  0  2  0  0  0  0  0  0  0  0  0
  191.0360  178.6570  143.5660 C   0  0  0  0  0  2  0  0  0  0  0  0
  190.0940  177.9780  142.7770 O   0  0  0  0  0  0  0  0  0  0  0  0
  190.6480  176.7810  144.6900 C   0  0  2  0  0  3  0  0  0  0  0  0
  191.5830  177.8060  144.5350 O   0  0  0  0  0  0  0  0  0  0  0  0
  189.3580  175.7300  142.7300 C   0  0  0  0  0  1  0  0  0  0  0  0
  188.2660  177.4440  144.2250 C   0  0  2  0  0  3  0  0  0  0  0  0
  188.1220  177.0900  145.6760 C   0  0  0  0  0  0  0  0  0  0  0  0
  187.5170  176.0410  146.0230 O   0  0  0  0  0  0  0  0  0  0  0  0
  188.6760  177.9170  146.6430 O   0  0  0  0  0  1  0  0  0  0  0  0
  187.1640  176.9750  143.4960 O   0  0  0  0  0  0  0  0  0  0  0  0
  186.4290  177.9260  141.4330 C   0  0  0  0  0  1  0  0  0  0  0  0
  186.5810  178.1150  142.9360 C   0  0  1  0  0  3  0  0  0  0  0  0
  184.1870  178.2990  142.7030 O   0  0  0  0  0  1  0  0  0  0  0  0
  185.2410  178.4030  143.6130 C   0  0  2  0  0  3  0  0  0  0  0  0
  185.2370  179.7760  144.2570 C   0  0  0  0  0  1  0  0  0  0  0  0
  195.0200  169.8000  140.0410 C   0  0  0  0  0  2  0  0  0  0  0  0
  193.3790  169.1400  138.2730 C   0  0  0  0  0  3  0  0  0  0  0  0
  193.4900  170.0900  136.0420 C   0  0  0  0  0  0  0  0  0  0  0  0
  195.0770  170.7850  137.7420 C   0  0  0  0  0  3  0  0  0  0  0  0
  194.5810  170.8760  136.4390 C   0  0  0  0  0  3  0  0  0  0  0  0
  192.8820  169.2310  136.9690 C   0  0  0  0  0  3  0  0  0  0  0  0
  194.4740  169.9190  138.6610 C   0  0  0  0  0  0  0  0  0  0  0  0
  192.9330  170.2250  134.6580 C   0  0  1  0  0  3  0  0  0  0  0  0
  191.5700  169.6990  134.5950 C   0  0  0  0  0  2  0  0  0  0  0  0
  191.7860  171.1480  134.6660 N   0  0  0  0  0  2  0  0  0  0  0  0
  1 14  1  0  0  0  0
  2  9  1  0  0  0  0
  3 11  2  0  0  0  0
  4 11  1  0  0  0  0
  5 12  1  0  0  0  0
  6 19  1  0  0  0  0
  7  1  1  0  0  0  0
  8  6  2  0  0  0  0
 10  2  1  0  0  0  0
 11 10  1  0  0  0  0
 12 19  2  0  0  0  0
 13  9  1  6  0  0  0
 13 28  1  0  0  0  0
 13 18  1  0  0  0  0
 13 17  1  0  0  0  0
 14  8  1  0  0  0  0
 14  5  2  0  0  0  0
 15  4  1  6  0  0  0
 15 25  1  0  0  0  0
 16 15  1  0  0  0  0
 16  7  1  0  0  0  0
 18  6  1  6  0  0  0
 18 17  1  0  0  0  0
 20 21  1  0  0  0  0
 21 24  1  0  0  0  0
 22 26  1  1  0  0  0
 22 23  1  0  0  0  0
 23 24  2  0  0  0  0
 25 20  1  1  0  0  0
 25 22  1  0  0  0  0
 28 27  1  1  0  0  0
 29 28  1  0  0  0  0
 29 27  1  0  0  0  0
 30 35  1  6  0  0  0
 30 36  1  0  0  0  0
 30 33  1  0  0  0  0
 31 34  1  0  0  0  0
 32 31  1  0  0  0  0
 32 30  1  0  0  0  0
 33 34  1  6  0  0  0
 33 28  1  0  0  0  0
 36 40  1  6  0  0  0
 36 37  1  0  0  0  0
 37 38  2  0  0  0  0
 37 39  1  0  0  0  0
 42 41  1  6  0  0  0
 42 40  1  0  0  0  0
 42 44  1  0  0  0  0
 43 44  1  0  0  0  0
 44 45  1  6  0  0  0
 46 16  1  0  0  0  0
 47 52  1  0  0  0  0
 48 50  2  0  0  0  0
 48 51  1  0  0  0  0
 49 52  2  0  0  0  0
 50 49  1  0  0  0  0
 51 47  2  0  0  0  0
 52 46  1  0  0  0  0
 53 55  1  0  0  0  0
 53 48  1  1  0  0  0
 54 53  1  0  0  0  0
 54 55  1  0  0  0  0
M  END
>  <MODEL>
6

>  <REMARK>
 VINA RESULT:      -5.9      3.627      9.789
  Name = 
  11 active torsions:
  status: ('A' for Active; 'I' for Inactive)
    1  A    between atoms: C_1  and  C_53
    2  A    between atoms: C_6  and  C_53
    3  A    between atoms: C_8  and  C_20
    4  A    between atoms: C_8  and  C_43
    5  A    between atoms: C_10  and  C_32
    6  A    between atoms: C_11  and  C_29
    7  A    between atoms: C_11  and  O_38
    8  A    between atoms: C_26  and  C_45
    9  A    between atoms: C_33  and  N_49
   10  A    between atoms: C_33  and  C_52
   11  A    between atoms: O_38  and  C_53
                            x       y       z     vdW  Elec       q    Type
                         _______ _______ _______ _____ _____    ______ ____

>  <TORSDO>
F 11

$$$$
=
 OpenBabel11052419463D

 55 62  0  0  1  0  0  0  0  0999 V2000
  189.7240  175.3620  142.0990 C   0  0  0  0  0  2  0  0  0  0  0  0
  194.1180  174.3460  140.2230 C   0  0  0  0  0  2  0  0  0  0  0  0
  195.2980  176.5750  141.5370 O   0  0  0  0  0  0  0  0  0  0  0  0
  193.3920  177.1170  142.8510 C   0  0  0  0  0  2  0  0  0  0  0  0
  188.8750  173.0190  141.9650 C   0  0  0  0  0  3  0  0  0  0  0  0
  191.4810  172.0630  142.0880 C   0  0  0  0  0  0  0  0  0  0  0  0
  189.9930  175.9150  143.4860 C   0  0  0  0  0  2  0  0  0  0  0  0
  191.2270  173.4000  142.1450 N   0  0  0  0  0  0  0  0  0  0  0  0
  193.4400  172.9890  140.0930 C   0  0  0  0  0  2  0  0  0  0  0  0
  193.4900  175.1210  141.2810 N   0  0  0  0  0  2  0  0  0  0  0  0
  194.1260  176.2580  141.8710 C   0  0  0  0  0  0  0  0  0  0  0  0
  189.1100  171.6440  141.9290 C   0  0  0  0  0  3  0  0  0  0  0  0
  193.8590  172.0330  141.2170 C   0  0  2  0  0  0  0  0  0  0  0  0
  189.9600  173.8930  142.0730 C   0  0  0  0  0  0  0  0  0  0  0  0
  192.3460  176.3250  143.6280 C   0  0  2  0  0  3  0  0  0  0  0  0
  191.0240  176.9390  143.4100 N   0  0  0  0  0  0  0  0  0  0  0  0
  193.2110  170.7270  141.0380 N   0  0  0  0  0  2  0  0  0  0  0  0
  192.8850  171.5450  142.2190 C   0  0  2  0  0  3  0  0  0  0  0  0
  190.4170  171.1600  141.9940 C   0  0  0  0  0  3  0  0  0  0  0  0
  194.2720  176.1130  145.3130 C   0  0  0  0  0  2  0  0  0  0  0  0
  194.8880  174.8910  144.6370 C   0  0  0  0  0  2  0  0  0  0  0  0
  192.1240  174.8610  145.7270 C   0  0  2  0  0  3  0  0  0  0  0  0
  192.9270  173.6050  145.4860 C   0  0  0  0  0  3  0  0  0  0  0  0
  194.1890  173.6200  145.0340 C   0  0  0  0  0  3  0  0  0  0  0  0
  192.7500  176.1260  145.1140 C   0  0  2  0  0  3  0  0  0  0  0  0
  191.9210  175.0550  147.2180 C   0  0  0  0  0  1  0  0  0  0  0  0
  196.1940  173.0240  141.8420 C   0  0  0  0  0  2  0  0  0  0  0  0
  195.3570  171.8450  141.5070 C   0  0  2  0  0  0  0  0  0  0  0  0
  196.1340  172.5040  140.5330 O   0  0  0  0  0  0  0  0  0  0  0  0
  196.6380  170.2580  143.1590 C   0  0  2  0  0  0  0  0  0  0  0  0
  197.8340  169.3850  141.5030 C   0  0  0  0  0  2  0  0  0  0  0  0
  197.9340  169.8800  142.8130 O   0  0  0  0  0  0  0  0  0  0  0  0
  195.9040  170.4350  141.8300 C   0  0  2  0  0  3  0  0  0  0  0  0
  196.7600  169.9770  140.8260 O   0  0  0  0  0  0  0  0  0  0  0  0
  196.7270  171.5280  144.0070 C   0  0  0  0  0  1  0  0  0  0  0  0
  195.9850  169.1160  143.9700 C   0  0  2  0  0  3  0  0  0  0  0  0
  194.6360  168.7060  143.4570 C   0  0  0  0  0  0  0  0  0  0  0  0
  193.6070  168.8530  144.1680 O   0  0  0  0  0  1  0  0  0  0  0  0
  194.5190  168.1760  142.1800 O   0  0  0  0  0  0  0  0  0  0  0  0
  195.9110  169.4410  145.3320 O   0  0  0  0  0  0  0  0  0  0  0  0
  197.8870  168.2800  146.0010 C   0  0  0  0  0  1  0  0  0  0  0  0
  196.3650  168.3040  146.0070 C   0  0  1  0  0  3  0  0  0  0  0  0
  194.8320  169.2690  147.6000 O   0  0  0  0  0  1  0  0  0  0  0  0
  195.8000  168.2780  147.4270 C   0  0  2  0  0  3  0  0  0  0  0  0
  196.9020  168.4420  148.4570 C   0  0  0  0  0  1  0  0  0  0  0  0
  190.7260  177.9800  144.3900 C   0  0  0  0  0  2  0  0  0  0  0  0
  188.2380  178.1450  144.2010 C   0  0  0  0  0  3  0  0  0  0  0  0
  186.7930  177.4570  146.0270 C   0  0  0  0  0  0  0  0  0  0  0  0
  189.2030  177.2450  146.2330 C   0  0  0  0  0  3  0  0  0  0  0  0
  187.9220  177.0780  146.7670 C   0  0  0  0  0  3  0  0  0  0  0  0
  186.9570  177.9780  144.7350 C   0  0  0  0  0  3  0  0  0  0  0  0
  189.3610  177.7760  144.9480 C   0  0  0  0  0  0  0  0  0  0  0  0
  185.4210  177.2330  146.5850 C   0  0  1  0  0  3  0  0  0  0  0  0
  184.8780  178.4740  147.1350 C   0  0  0  0  0  2  0  0  0  0  0  0
  184.4340  178.0090  145.8160 N   0  0  0  0  0  2  0  0  0  0  0  0
  1  7  1  0  0  0  0
  2 10  1  0  0  0  0
  3 11  2  0  0  0  0
  5 14  1  0  0  0  0
  6  8  1  0  0  0  0
  6 18  1  0  0  0  0
  9  2  1  0  0  0  0
 10 11  1  0  0  0  0
 11  4  1  0  0  0  0
 12  5  2  0  0  0  0
 12 19  1  0  0  0  0
 13  9  1  6  0  0  0
 13 28  1  0  0  0  0
 13 18  1  0  0  0  0
 14  1  1  0  0  0  0
 14  8  2  0  0  0  0
 15  4  1  1  0  0  0
 15 25  1  0  0  0  0
 16  7  1  0  0  0  0
 16 15  1  0  0  0  0
 16 46  1  0  0  0  0
 17 13  1  0  0  0  0
 18 17  1  6  0  0  0
 19  6  2  0  0  0  0
 21 24  1  0  0  0  0
 21 20  1  0  0  0  0
 22 26  1  1  0  0  0
 23 22  1  0  0  0  0
 24 23  2  0  0  0  0
 25 20  1  6  0  0  0
 25 22  1  0  0  0  0
 28 33  1  0  0  0  0
 28 27  1  1  0  0  0
 29 28  1  0  0  0  0
 29 27  1  0  0  0  0
 30 36  1  0  0  0  0
 30 35  1  1  0  0  0
 31 32  1  0  0  0  0
 32 30  1  0  0  0  0
 33 34  1  6  0  0  0
 33 30  1  0  0  0  0
 34 31  1  0  0  0  0
 36 37  1  6  0  0  0
 36 40  1  0  0  0  0
 37 38  1  0  0  0  0
 39 37  2  0  0  0  0
 40 42  1  0  0  0  0
 42 41  1  1  0  0  0
 42 44  1  0  0  0  0
 44 43  1  0  0  0  0
 44 45  1  1  0  0  0
 46 52  1  0  0  0  0
 47 51  2  0  0  0  0
 47 52  1  0  0  0  0
 48 50  2  0  0  0  0
 49 50  1  0  0  0  0
 51 48  1  0  0  0  0
 52 49  2  0  0  0  0
 53 48  1  6  0  0  0
 53 54  1  0  0  0  0
 55 53  1  0  0  0  0
 55 54  1  0  0  0  0
M  END
>  <MODEL>
7

>  <REMARK>
 VINA RESULT:      -5.8      2.695      4.447
  Name = 
  11 active torsions:
  status: ('A' for Active; 'I' for Inactive)
    1  A    between atoms: C_1  and  C_53
    2  A    between atoms: C_6  and  C_53
    3  A    between atoms: C_8  and  C_20
    4  A    between atoms: C_8  and  C_43
    5  A    between atoms: C_10  and  C_32
    6  A    between atoms: C_11  and  C_29
    7  A    between atoms: C_11  and  O_38
    8  A    between atoms: C_26  and  C_45
    9  A    between atoms: C_33  and  N_49
   10  A    between atoms: C_33  and  C_52
   11  A    between atoms: O_38  and  C_53
                            x       y       z     vdW  Elec       q    Type
                         _______ _______ _______ _____ _____    ______ ____

>  <TORSDO>
F 11

$$$$
=
 OpenBabel11052419463D

 55 62  0  0  1  0  0  0  0  0999 V2000
  189.7610  175.1590  142.0290 C   0  0  0  0  0  2  0  0  0  0  0  0
  194.2750  175.2930  140.1670 C   0  0  0  0  0  2  0  0  0  0  0  0
  195.3040  176.5370  142.5070 O   0  0  0  0  0  0  0  0  0  0  0  0
  193.3190  176.3090  143.7950 C   0  0  0  0  0  2  0  0  0  0  0  0
  189.0110  173.2110  140.6600 C   0  0  0  0  0  3  0  0  0  0  0  0
  191.6430  172.3520  140.4320 C   0  0  0  0  0  0  0  0  0  0  0  0
  189.9430  174.9210  143.5160 C   0  0  0  0  0  2  0  0  0  0  0  0
  191.3350  173.4660  141.1520 N   0  0  0  0  0  0  0  0  0  0  0  0
  193.6570  174.1910  139.3170 C   0  0  0  0  0  2  0  0  0  0  0  0
  193.5680  175.4070  141.4320 N   0  0  0  0  0  2  0  0  0  0  0  0
  194.1310  176.0830  142.5590 C   0  0  0  0  0  0  0  0  0  0  0  0
  189.3000  172.0540  139.9380 C   0  0  0  0  0  3  0  0  0  0  0  0
  194.0580  172.7960  139.8140 C   0  0  2  0  0  0  0  0  0  0  0  0
  190.0540  173.9150  141.2670 C   0  0  0  0  0  0  0  0  0  0  0  0
  192.2690  175.2200  143.9900 C   0  0  2  0  0  3  0  0  0  0  0  0
  190.9360  175.8480  144.0390 N   0  0  0  0  0  0  0  0  0  0  0  0
  193.4710  171.7620  138.9510 N   0  0  0  0  0  2  0  0  0  0  0  0
  193.0580  171.8530  140.3630 C   0  0  2  0  0  3  0  0  0  0  0  0
  190.6200  171.6170  139.8240 C   0  0  0  0  0  3  0  0  0  0  0  0
  192.6300  175.0350  146.5260 C   0  0  0  0  0  2  0  0  0  0  0  0
  193.7760  176.0440  146.5570 C   0  0  0  0  0  2  0  0  0  0  0  0
  193.9330  173.5310  144.9780 C   0  0  2  0  0  3  0  0  0  0  0  0
  195.1530  174.3060  145.4150 C   0  0  0  0  0  3  0  0  0  0  0  0
  195.0850  175.4170  146.1630 C   0  0  0  0  0  3  0  0  0  0  0  0
  192.6090  174.2890  145.1840 C   0  0  2  0  0  3  0  0  0  0  0  0
  193.8880  172.2030  145.7080 C   0  0  0  0  0  1  0  0  0  0  0  0
  196.5260  173.6150  140.0750 C   0  0  0  0  0  2  0  0  0  0  0  0
  195.5480  172.4990  140.0560 C   0  0  2  0  0  0  0  0  0  0  0  0
  196.3090  172.8380  138.9200 O   0  0  0  0  0  0  0  0  0  0  0  0
  196.4250  171.1230  142.1120 C   0  0  2  0  0  0  0  0  0  0  0  0
  197.8870  170.0300  140.8440 C   0  0  0  0  0  2  0  0  0  0  0  0
  197.7490  170.6880  142.0770 O   0  0  0  0  0  0  0  0  0  0  0  0
  195.9700  171.1350  140.6520 C   0  0  2  0  0  3  0  0  0  0  0  0
  196.9870  170.5430  139.9010 O   0  0  0  0  0  0  0  0  0  0  0  0
  196.3950  172.4900  142.7960 C   0  0  0  0  0  1  0  0  0  0  0  0
  195.5870  170.1020  142.9130 C   0  0  2  0  0  3  0  0  0  0  0  0
  196.3720  169.3630  143.9560 C   0  0  0  0  0  0  0  0  0  0  0  0
  196.8170  168.2070  143.7260 O   0  0  0  0  0  0  0  0  0  0  0  0
  196.6250  169.9650  145.1810 O   0  0  0  0  0  1  0  0  0  0  0  0
  194.9380  169.1980  142.0590 O   0  0  0  0  0  0  0  0  0  0  0  0
  193.0970  170.2070  143.1970 C   0  0  0  0  0  1  0  0  0  0  0  0
  193.7180  168.9160  142.6810 C   0  0  1  0  0  3  0  0  0  0  0  0
  193.2000  168.3800  140.3870 O   0  0  0  0  0  1  0  0  0  0  0  0
  192.7920  168.1870  141.7070 C   0  0  2  0  0  3  0  0  0  0  0  0
  191.3540  168.6410  141.8780 C   0  0  0  0  0  1  0  0  0  0  0  0
  190.5520  176.2330  145.3950 C   0  0  0  0  0  2  0  0  0  0  0  0
  188.2420  176.0680  146.3380 C   0  0  0  0  0  3  0  0  0  0  0  0
  186.4160  177.3760  145.4190 C   0  0  0  0  0  0  0  0  0  0  0  0
  188.6530  177.5940  144.5020 C   0  0  0  0  0  3  0  0  0  0  0  0
  187.3050  177.9630  144.5070 C   0  0  0  0  0  3  0  0  0  0  0  0
  186.8940  176.4370  146.3440 C   0  0  0  0  0  3  0  0  0  0  0  0
  189.1230  176.6480  145.4190 C   0  0  0  0  0  0  0  0  0  0  0  0
  184.9820  177.8090  145.4520 C   0  0  1  0  0  3  0  0  0  0  0  0
  184.4740  177.8120  146.8220 C   0  0  0  0  0  2  0  0  0  0  0  0
  184.8570  179.0780  146.1880 N   0  0  0  0  0  2  0  0  0  0  0  0
  1  7  1  0  0  0  0
  2 10  1  0  0  0  0
  3 11  2  0  0  0  0
  5 14  1  0  0  0  0
  6  8  1  0  0  0  0
  7 16  1  0  0  0  0
  8 14  2  0  0  0  0
  9  2  1  0  0  0  0
 10 11  1  0  0  0  0
 11  4  1  0  0  0  0
 12  5  2  0  0  0  0
 13  9  1  6  0  0  0
 13 28  1  0  0  0  0
 13 18  1  0  0  0  0
 14  1  1  0  0  0  0
 15  4  1  1  0  0  0
 15 16  1  0  0  0  0
 15 25  1  0  0  0  0
 16 46  1  0  0  0  0
 17 13  1  0  0  0  0
 18 17  1  6  0  0  0
 18  6  1  0  0  0  0
 19 12  1  0  0  0  0
 19  6  2  0  0  0  0
 20 21  1  0  0  0  0
 22 25  1  0  0  0  0
 22 23  1  0  0  0  0
 22 26  1  1  0  0  0
 23 24  2  0  0  0  0
 24 21  1  0  0  0  0
 25 20  1  1  0  0  0
 28 27  1  1  0  0  0
 28 33  1  0  0  0  0
 29 28  1  0  0  0  0
 29 27  1  0  0  0  0
 30 35  1  1  0  0  0
 30 36  1  0  0  0  0
 31 32  1  0  0  0  0
 32 30  1  0  0  0  0
 33 34  1  6  0  0  0
 33 30  1  0  0  0  0
 34 31  1  0  0  0  0
 36 40  1  6  0  0  0
 36 37  1  0  0  0  0
 37 39  1  0  0  0  0
 38 37  2  0  0  0  0
 40 42  1  0  0  0  0
 42 41  1  6  0  0  0
 43 44  1  0  0  0  0
 44 45  1  6  0  0  0
 44 42  1  0  0  0  0
 46 52  1  0  0  0  0
 47 51  1  0  0  0  0
 48 51  2  0  0  0  0
 49 50  2  0  0  0  0
 49 52  1  0  0  0  0
 50 48  1  0  0  0  0
 52 47  2  0  0  0  0
 53 48  1  1  0  0  0
 53 55  1  0  0  0  0
 53 54  1  0  0  0  0
 55 54  1  0  0  0  0
M  END
>  <MODEL>
8

>  <REMARK>
 VINA RESULT:      -5.8      2.603      4.691
  Name = 
  11 active torsions:
  status: ('A' for Active; 'I' for Inactive)
    1  A    between atoms: C_1  and  C_53
    2  A    between atoms: C_6  and  C_53
    3  A    between atoms: C_8  and  C_20
    4  A    between atoms: C_8  and  C_43
    5  A    between atoms: C_10  and  C_32
    6  A    between atoms: C_11  and  C_29
    7  A    between atoms: C_11  and  O_38
    8  A    between atoms: C_26  and  C_45
    9  A    between atoms: C_33  and  N_49
   10  A    between atoms: C_33  and  C_52
   11  A    between atoms: O_38  and  C_53
                            x       y       z     vdW  Elec       q    Type
                         _______ _______ _______ _____ _____    ______ ____

>  <TORSDO>
F 11

$$$$
=
 OpenBabel11052419463D

 55 62  0  0  1  0  0  0  0  0999 V2000
  196.5090  173.4270  142.7560 C   0  0  0  0  0  2  0  0  0  0  0  0
  192.0840  175.0510  141.4750 C   0  0  0  0  0  2  0  0  0  0  0  0
  191.7450  172.9350  139.6070 O   0  0  0  0  0  0  0  0  0  0  0  0
  193.6890  171.7290  140.2530 C   0  0  0  0  0  2  0  0  0  0  0  0
  196.4710  174.4460  145.0340 C   0  0  0  0  0  3  0  0  0  0  0  0
  193.6940  174.3770  145.0240 C   0  0  0  0  0  0  0  0  0  0  0  0
  196.4230  171.9140  142.6810 C   0  0  0  0  0  2  0  0  0  0  0  0
  194.4050  173.8930  143.9690 N   0  0  0  0  0  0  0  0  0  0  0  0
  192.2370  175.7110  142.8390 C   0  0  0  0  0  2  0  0  0  0  0  0
  192.9230  173.8670  141.3930 N   0  0  0  0  0  2  0  0  0  0  0  0
  192.7200  172.8580  140.4000 C   0  0  0  0  0  0  0  0  0  0  0  0
  195.7640  174.9240  146.1370 C   0  0  0  0  0  3  0  0  0  0  0  0
  191.4810  174.9440  143.9310 C   0  0  2  0  0  0  0  0  0  0  0  0
  195.7670  173.9290  143.9450 C   0  0  0  0  0  0  0  0  0  0  0  0
  194.3670  171.3880  141.5760 C   0  0  2  0  0  3  0  0  0  0  0  0
  195.8260  171.5240  141.4120 N   0  0  0  0  0  0  0  0  0  0  0  0
  191.6250  175.6270  145.2230 N   0  0  0  0  0  2  0  0  0  0  0  0
  192.1950  174.2800  145.0450 C   0  0  2  0  0  3  0  0  0  0  0  0
  194.3690  174.8880  146.1380 C   0  0  0  0  0  3  0  0  0  0  0  0
  192.3580  169.8790  142.1060 C   0  0  0  0  0  2  0  0  0  0  0  0
  191.7030  170.8810  143.0540 C   0  0  0  0  0  2  0  0  0  0  0  0
  194.4090  169.7660  143.5670 C   0  0  2  0  0  3  0  0  0  0  0  0
  193.5460  170.3650  144.6530 C   0  0  0  0  0  3  0  0  0  0  0  0
  192.3090  170.8300  144.4290 C   0  0  0  0  0  3  0  0  0  0  0  0
  193.8860  170.0250  142.1440 C   0  0  2  0  0  3  0  0  0  0  0  0
  194.5560  168.2740  143.8010 C   0  0  0  0  0  1  0  0  0  0  0  0
  189.6720  173.3150  142.9800 C   0  0  0  0  0  2  0  0  0  0  0  0
  190.0080  174.5760  143.6890 C   0  0  2  0  0  0  0  0  0  0  0  0
  189.7250  174.5530  142.3090 O   0  0  0  0  0  0  0  0  0  0  0  0
  188.6560  176.7670  144.1990 C   0  0  2  0  0  0  0  0  0  0  0  0
  188.8310  176.4480  146.3910 C   0  0  0  0  0  2  0  0  0  0  0  0
  188.9330  177.4300  145.3930 O   0  0  0  0  0  0  0  0  0  0  0  0
  188.8980  175.2870  144.4980 C   0  0  2  0  0  3  0  0  0  0  0  0
  189.1190  175.1790  145.8720 O   0  0  0  0  0  0  0  0  0  0  0  0
  189.5620  177.3500  143.1140 C   0  0  0  0  0  1  0  0  0  0  0  0
  187.1710  176.9920  143.8360 C   0  0  2  0  0  3  0  0  0  0  0  0
  186.9280  177.1620  142.3650 C   0  0  0  0  0  0  0  0  0  0  0  0
  186.7970  178.3110  141.8660 O   0  0  0  0  0  1  0  0  0  0  0  0
  186.8630  176.0440  141.5460 O   0  0  0  0  0  0  0  0  0  0  0  0
  186.6340  178.0740  144.5490 O   0  0  0  0  0  0  0  0  0  0  0  0
  185.2350  177.1920  146.2710 C   0  0  0  0  0  1  0  0  0  0  0  0
  185.3170  177.7060  144.8400 C   0  0  1  0  0  3  0  0  0  0  0  0
  183.6290  178.7120  143.4420 O   0  0  0  0  0  1  0  0  0  0  0  0
  184.3800  178.8900  144.6050 C   0  0  2  0  0  3  0  0  0  0  0  0
  185.1540  180.1930  144.5280 C   0  0  0  0  0  1  0  0  0  0  0  0
  196.4520  170.2850  140.9590 C   0  0  0  0  0  2  0  0  0  0  0  0
  197.3260  171.6130  139.0280 C   0  0  0  0  0  3  0  0  0  0  0  0
  197.4780  170.6460  136.8070 C   0  0  0  0  0  0  0  0  0  0  0  0
  196.6610  169.3130  138.6640 C   0  0  0  0  0  3  0  0  0  0  0  0
  196.9910  169.4320  137.3110 C   0  0  0  0  0  3  0  0  0  0  0  0
  197.6570  171.7330  137.6760 C   0  0  0  0  0  3  0  0  0  0  0  0
  196.8310  170.4030  139.5240 C   0  0  0  0  0  0  0  0  0  0  0  0
  197.8740  170.7560  135.3670 C   0  0  1  0  0  3  0  0  0  0  0  0
  196.7010  170.9820  134.5230 C   0  0  0  0  0  2  0  0  0  0  0  0
  197.5770  172.1070  134.8650 N   0  0  0  0  0  2  0  0  0  0  0  0
  1 14  1  0  0  0  0
  2  9  1  0  0  0  0
  3 11  2  0  0  0  0
  4 11  1  0  0  0  0
  5 12  1  0  0  0  0
  6 19  1  0  0  0  0
  7  1  1  0  0  0  0
  8  6  2  0  0  0  0
 10  2  1  0  0  0  0
 11 10  1  0  0  0  0
 12 19  2  0  0  0  0
 13  9  1  6  0  0  0
 13 18  1  0  0  0  0
 13 17  1  0  0  0  0
 14  8  1  0  0  0  0
 14  5  2  0  0  0  0
 15  4  1  6  0  0  0
 15 25  1  0  0  0  0
 16 15  1  0  0  0  0
 16  7  1  0  0  0  0
 18  6  1  6  0  0  0
 18 17  1  0  0  0  0
 20 21  1  0  0  0  0
 21 24  1  0  0  0  0
 22 26  1  1  0  0  0
 22 23  1  0  0  0  0
 24 23  2  0  0  0  0
 25 20  1  1  0  0  0
 25 22  1  0  0  0  0
 28 27  1  1  0  0  0
 28 13  1  0  0  0  0
 28 33  1  0  0  0  0
 29 27  1  0  0  0  0
 29 28  1  0  0  0  0
 30 35  1  6  0  0  0
 30 33  1  0  0  0  0
 30 32  1  0  0  0  0
 32 31  1  0  0  0  0
 33 34  1  1  0  0  0
 34 31  1  0  0  0  0
 36 37  1  6  0  0  0
 36 30  1  0  0  0  0
 36 40  1  0  0  0  0
 38 37  1  0  0  0  0
 39 37  2  0  0  0  0
 40 42  1  0  0  0  0
 42 41  1  1  0  0  0
 43 44  1  0  0  0  0
 44 45  1  6  0  0  0
 44 42  1  0  0  0  0
 46 16  1  0  0  0  0
 47 52  1  0  0  0  0
 48 50  2  0  0  0  0
 48 51  1  0  0  0  0
 49 52  2  0  0  0  0
 50 49  1  0  0  0  0
 51 47  2  0  0  0  0
 52 46  1  0  0  0  0
 53 48  1  1  0  0  0
 54 55  1  0  0  0  0
 54 53  1  0  0  0  0
 55 53  1  0  0  0  0
M  END
>  <MODEL>
9

>  <REMARK>
 VINA RESULT:      -5.6      3.687     10.683
  Name = 
  11 active torsions:
  status: ('A' for Active; 'I' for Inactive)
    1  A    between atoms: C_1  and  C_53
    2  A    between atoms: C_6  and  C_53
    3  A    between atoms: C_8  and  C_20
    4  A    between atoms: C_8  and  C_43
    5  A    between atoms: C_10  and  C_32
    6  A    between atoms: C_11  and  C_29
    7  A    between atoms: C_11  and  O_38
    8  A    between atoms: C_26  and  C_45
    9  A    between atoms: C_33  and  N_49
   10  A    between atoms: C_33  and  C_52
   11  A    between atoms: O_38  and  C_53
                            x       y       z     vdW  Elec       q    Type
                         _______ _______ _______ _____ _____    ______ ____

>  <TORSDO>
F 11

$$$$
