=
 OpenBabel11052418213D

 27 32  0  0  1  0  0  0  0  0999 V2000
  191.0050  176.2280  144.7160 C   0  0  2  0  0  0  0  0  0  0  0  0
  189.3810  175.1060  141.4590 S   0  0  0  0  0  0  0  0  0  0  0  0
  188.6060  177.0350  144.6550 N   0  0  0  0  0  2  0  0  0  0  0  0
  185.4450  178.0290  140.5010 C   0  0  0  0  0  2  0  0  0  0  0  0
  183.1230  178.4990  141.0080 O   0  0  0  0  0  0  0  0  0  0  0  0
  188.6080  176.5600  142.2490 C   0  0  2  0  0  3  0  0  0  0  0  0
  189.6290  171.6640  142.3520 C   0  0  0  0  0  3  0  0  0  0  0  0
  186.4050  176.4270  143.6940 C   0  0  0  0  0  2  0  0  0  0  0  0
  190.4430  174.3950  142.8200 C   0  0  2  0  0  0  0  0  0  0  0  0
  189.2910  174.6080  147.2380 C   0  0  0  0  0  1  0  0  0  0  0  0
  189.5660  173.6240  143.8360 C   0  0  0  0  0  2  0  0  0  0  0  0
  184.5290  177.7550  142.7380 N   0  0  0  0  0  2  0  0  0  0  0  0
  190.5060  176.7810  147.5300 C   0  0  0  0  0  2  0  0  0  0  0  0
  187.9370  176.2720  143.6150 C   0  0  2  0  0  3  0  0  0  0  0  0
  191.4590  175.3560  143.5290 C   0  0  1  0  0  3  0  0  0  0  0  0
  184.2610  178.1270  141.3950 C   0  0  0  0  0  0  0  0  0  0  0  0
  186.3620  177.2010  141.3820 C   0  0  2  0  0  3  0  0  0  0  0  0
  191.1830  176.8400  143.3410 C   0  0  0  0  0  2  0  0  0  0  0  0
  185.9620  177.5560  142.7920 C   0  0  2  0  0  3  0  0  0  0  0  0
  189.3960  176.0500  146.7770 C   0  0  1  0  0  3  0  0  0  0  0  0
  187.8470  177.4460  141.2440 C   0  0  0  0  0  2  0  0  0  0  0  0
  191.8740  176.2900  147.0810 C   0  0  0  0  0  2  0  0  0  0  0  0
  188.9510  172.3820  143.2480 C   0  0  0  0  0  3  0  0  0  0  0  0
  192.1160  176.7150  145.6430 C   0  0  0  0  0  2  0  0  0  0  0  0
  190.9390  172.1360  141.8760 C   0  0  0  0  0  3  0  0  0  0  0  0
  189.5530  176.1060  145.2530 C   0  0  2  0  0  3  0  0  0  0  0  0
  191.3360  173.3890  142.1260 C   0  0  0  0  0  3  0  0  0  0  0  0
  1 18  1  6  0  0  0
  1 26  1  0  0  0  0
  1 24  1  0  0  0  0
  2  6  1  0  0  0  0
  2  9  1  0  0  0  0
  4 16  1  0  0  0  0
  5 16  2  0  0  0  0
  6 21  1  6  0  0  0
  6 14  1  0  0  0  0
  7 23  2  0  0  0  0
  9 27  1  6  0  0  0
  9 15  1  0  0  0  0
  9 11  1  0  0  0  0
 12 19  1  0  0  0  0
 14  8  1  6  0  0  0
 14  3  1  0  0  0  0
 15 18  1  6  0  0  0
 15  1  1  0  0  0  0
 16 12  1  0  0  0  0
 17  4  1  6  0  0  0
 17 19  1  0  0  0  0
 19  8  1  1  0  0  0
 20 10  1  1  0  0  0
 20 13  1  0  0  0  0
 21 17  1  0  0  0  0
 22 13  1  0  0  0  0
 23 11  1  0  0  0  0
 24 22  1  0  0  0  0
 25 27  2  0  0  0  0
 25  7  1  0  0  0  0
 26  3  1  1  0  0  0
 26 20  1  0  0  0  0
M  END
>  <MODEL>
1

>  <REMARK>
 VINA RESULT:      -8.4      0.000      0.000
  Name = 
  0 active torsions:
  status: ('A' for Active; 'I' for Inactive)
                            x       y       z     vdW  Elec       q    Type
                         _______ _______ _______ _____ _____    ______ ____

>  <TORSDO>
F 0

$$$$
=
 OpenBabel11052418213D

 27 32  0  0  1  0  0  0  0  0999 V2000
  192.1960  176.3900  144.2520 C   0  0  2  0  0  0  0  0  0  0  0  0
  188.9720  175.4260  142.4710 S   0  0  0  0  0  0  0  0  0  0  0  0
  190.2170  177.2230  145.5940 N   0  0  0  0  0  2  0  0  0  0  0  0
  185.2880  178.4250  144.0150 C   0  0  0  0  0  2  0  0  0  0  0  0
  183.6840  178.8960  145.7690 O   0  0  0  0  0  0  0  0  0  0  0  0
  188.8340  176.8520  143.6030 C   0  0  2  0  0  3  0  0  0  0  0  0
  189.5710  171.9460  142.9590 C   0  0  0  0  0  3  0  0  0  0  0  0
  187.8420  176.6780  146.0410 C   0  0  0  0  0  2  0  0  0  0  0  0
  190.5960  174.6470  142.9620 C   0  0  2  0  0  0  0  0  0  0  0  0
  192.1710  174.6800  147.2520 C   0  0  0  0  0  1  0  0  0  0  0  0
  190.4280  173.8410  144.2720 C   0  0  0  0  0  2  0  0  0  0  0  0
  185.8000  178.0640  146.3660 N   0  0  0  0  0  2  0  0  0  0  0  0
  193.4060  176.8260  146.8650 C   0  0  0  0  0  2  0  0  0  0  0  0
  189.0500  176.5110  145.0990 C   0  0  2  0  0  3  0  0  0  0  0  0
  191.8650  175.5660  142.9920 C   0  0  1  0  0  3  0  0  0  0  0  0
  184.8270  178.4970  145.4260 C   0  0  0  0  0  0  0  0  0  0  0  0
  186.5160  177.5520  144.1900 C   0  0  2  0  0  3  0  0  0  0  0  0
  191.5800  177.0600  143.0410 C   0  0  0  0  0  2  0  0  0  0  0  0
  187.0010  177.8500  145.5870 C   0  0  2  0  0  3  0  0  0  0  0  0
  192.0410  176.1390  146.8560 C   0  0  1  0  0  3  0  0  0  0  0  0
  187.6650  177.7880  143.2380 C   0  0  0  0  0  2  0  0  0  0  0  0
  194.2590  176.3420  145.7010 C   0  0  0  0  0  2  0  0  0  0  0  0
  189.5470  172.6310  144.1030 C   0  0  0  0  0  3  0  0  0  0  0  0
  193.6520  176.8260  144.3950 C   0  0  0  0  0  2  0  0  0  0  0  0
  190.3920  172.4260  141.8350 C   0  0  0  0  0  3  0  0  0  0  0  0
  191.3050  176.2600  145.5180 C   0  0  2  0  0  3  0  0  0  0  0  0
  190.9020  173.6630  141.8520 C   0  0  0  0  0  3  0  0  0  0  0  0
  1 18  1  6  0  0  0
  1 24  1  0  0  0  0
  1 26  1  0  0  0  0
  2  9  1  0  0  0  0
  2  6  1  0  0  0  0
  4 17  1  0  0  0  0
  4 16  1  0  0  0  0
  6 21  1  1  0  0  0
  6 14  1  0  0  0  0
  7 23  2  0  0  0  0
  9 27  1  6  0  0  0
  9 15  1  0  0  0  0
  9 11  1  0  0  0  0
 14  3  1  0  0  0  0
 14  8  1  1  0  0  0
 15 18  1  6  0  0  0
 15  1  1  0  0  0  0
 16  5  2  0  0  0  0
 16 12  1  0  0  0  0
 17 21  1  6  0  0  0
 17 19  1  0  0  0  0
 19  8  1  1  0  0  0
 19 12  1  0  0  0  0
 20 13  1  0  0  0  0
 20 10  1  6  0  0  0
 22 13  1  0  0  0  0
 23 11  1  0  0  0  0
 24 22  1  0  0  0  0
 25 27  2  0  0  0  0
 25  7  1  0  0  0  0
 26  3  1  1  0  0  0
 26 20  1  0  0  0  0
M  END
>  <MODEL>
2

>  <REMARK>
 VINA RESULT:      -8.4      1.923      2.365
  Name = 
  0 active torsions:
  status: ('A' for Active; 'I' for Inactive)
                            x       y       z     vdW  Elec       q    Type
                         _______ _______ _______ _____ _____    ______ ____

>  <TORSDO>
F 0

$$$$
=
 OpenBabel11052418213D

 27 32  0  0  1  0  0  0  0  0999 V2000
  190.4390  172.9950  143.7800 C   0  0  2  0  0  0  0  0  0  0  0  0
  190.4080  175.9730  146.1520 S   0  0  0  0  0  0  0  0  0  0  0  0
  188.8470  174.7530  142.8960 N   0  0  0  0  0  2  0  0  0  0  0  0
  186.1860  178.5560  145.4820 C   0  0  0  0  0  2  0  0  0  0  0  0
  185.0180  180.1740  144.1070 O   0  0  0  0  0  0  0  0  0  0  0  0
  188.9160  175.7950  145.1150 C   0  0  2  0  0  3  0  0  0  0  0  0
  193.8140  176.7550  145.4480 C   0  0  0  0  0  3  0  0  0  0  0  0
  188.4920  177.2050  142.9260 C   0  0  0  0  0  2  0  0  0  0  0  0
  191.6460  174.8520  145.3170 C   0  0  2  0  0  0  0  0  0  0  0  0
  191.7260  174.1690  140.7990 C   0  0  0  0  0  1  0  0  0  0  0  0
  192.2090  175.5290  144.0450 C   0  0  0  0  0  2  0  0  0  0  0  0
  186.4630  178.6400  143.0660 N   0  0  0  0  0  2  0  0  0  0  0  0
  190.1860  172.2010  140.9900 C   0  0  0  0  0  2  0  0  0  0  0  0
  189.1590  175.9870  143.5970 C   0  0  2  0  0  3  0  0  0  0  0  0
  191.2210  173.3660  145.0560 C   0  0  1  0  0  3  0  0  0  0  0  0
  185.8190  179.2070  144.1970 C   0  0  0  0  0  0  0  0  0  0  0  0
  187.4060  177.7750  145.0340 C   0  0  2  0  0  3  0  0  0  0  0  0
  189.7240  173.1020  145.1110 C   0  0  0  0  0  2  0  0  0  0  0  0
  187.1550  177.4750  143.5770 C   0  0  2  0  0  3  0  0  0  0  0  0
  190.3590  173.6950  141.2560 C   0  0  1  0  0  3  0  0  0  0  0  0
  187.6770  176.4650  145.7380 C   0  0  0  0  0  2  0  0  0  0  0  0
  191.0490  171.3820  141.9400 C   0  0  0  0  0  2  0  0  0  0  0  0
  193.0520  176.7380  144.3540 C   0  0  0  0  0  3  0  0  0  0  0  0
  190.5190  171.5300  143.3560 C   0  0  0  0  0  2  0  0  0  0  0  0
  193.7620  175.6290  146.3940 C   0  0  0  0  0  3  0  0  0  0  0  0
  190.1280  174.0860  142.7200 C   0  0  2  0  0  3  0  0  0  0  0  0
  192.7800  174.7230  146.3110 C   0  0  0  0  0  3  0  0  0  0  0  0
  1 24  1  6  0  0  0
  1 15  1  0  0  0  0
  1 18  1  0  0  0  0
  3 14  1  0  0  0  0
  5 16  2  0  0  0  0
  6 21  1  1  0  0  0
  6  2  1  0  0  0  0
  7 25  1  0  0  0  0
  9 11  1  6  0  0  0
  9  2  1  0  0  0  0
  9 27  1  0  0  0  0
 11 23  1  0  0  0  0
 12 19  1  0  0  0  0
 12 16  1  0  0  0  0
 13 20  1  0  0  0  0
 13 22  1  0  0  0  0
 14  8  1  6  0  0  0
 14  6  1  0  0  0  0
 15 18  1  1  0  0  0
 15  9  1  0  0  0  0
 16  4  1  0  0  0  0
 17  4  1  1  0  0  0
 17 21  1  0  0  0  0
 19  8  1  6  0  0  0
 19 17  1  0  0  0  0
 20 10  1  1  0  0  0
 20 26  1  0  0  0  0
 22 24  1  0  0  0  0
 23  7  2  0  0  0  0
 26  3  1  6  0  0  0
 26  1  1  0  0  0  0
 27 25  2  0  0  0  0
M  END
>  <MODEL>
3

>  <REMARK>
 VINA RESULT:      -8.2      2.214      4.701
  Name = 
  0 active torsions:
  status: ('A' for Active; 'I' for Inactive)
                            x       y       z     vdW  Elec       q    Type
                         _______ _______ _______ _____ _____    ______ ____

>  <TORSDO>
F 0

$$$$
=
 OpenBabel11052418213D

 27 32  0  0  1  0  0  0  0  0999 V2000
  193.1930  175.6120  143.4380 C   0  0  2  0  0  0  0  0  0  0  0  0
  189.6830  175.1150  142.0470 S   0  0  0  0  0  0  0  0  0  0  0  0
  191.5020  175.9430  145.2930 N   0  0  0  0  0  2  0  0  0  0  0  0
  186.3980  177.3980  145.0380 C   0  0  0  0  0  2  0  0  0  0  0  0
  185.1420  177.2730  147.1070 O   0  0  0  0  0  0  0  0  0  0  0  0
  189.7790  176.1350  143.5580 C   0  0  2  0  0  3  0  0  0  0  0  0
  190.2850  171.6690  141.3620 C   0  0  0  0  0  3  0  0  0  0  0  0
  189.2330  175.2130  145.9690 C   0  0  0  0  0  2  0  0  0  0  0  0
  191.3510  174.2790  141.9890 C   0  0  2  0  0  0  0  0  0  0  0  0
  193.6650  173.0880  145.7470 C   0  0  0  0  0  1  0  0  0  0  0  0
  191.4030  173.1150  143.0080 C   0  0  0  0  0  2  0  0  0  0  0  0
  187.3120  176.3720  147.0460 N   0  0  0  0  0  2  0  0  0  0  0  0
  194.8570  175.2920  145.8060 C   0  0  0  0  0  2  0  0  0  0  0  0
  190.2510  175.3730  144.8220 C   0  0  2  0  0  3  0  0  0  0  0  0
  192.6260  175.1890  142.0690 C   0  0  1  0  0  3  0  0  0  0  0  0
  186.1970  177.0320  146.4650 C   0  0  0  0  0  0  0  0  0  0  0  0
  187.6190  176.5520  144.7260 C   0  0  2  0  0  3  0  0  0  0  0  0
  192.3860  176.5900  142.6090 C   0  0  0  0  0  2  0  0  0  0  0  0
  188.3510  176.4370  146.0400 C   0  0  2  0  0  3  0  0  0  0  0  0
  193.4980  174.5930  145.8340 C   0  0  1  0  0  3  0  0  0  0  0  0
  188.5850  177.0980  143.7010 C   0  0  0  0  0  2  0  0  0  0  0  0
  195.4790  175.2030  144.4200 C   0  0  0  0  0  2  0  0  0  0  0  0
  190.4800  171.9820  142.6440 C   0  0  0  0  0  3  0  0  0  0  0  0
  194.6600  176.0330  143.4450 C   0  0  0  0  0  2  0  0  0  0  0  0
  190.9030  172.4870  140.3060 C   0  0  0  0  0  3  0  0  0  0  0  0
  192.5380  175.0820  144.7430 C   0  0  2  0  0  3  0  0  0  0  0  0
  191.4340  173.6800  140.6020 C   0  0  0  0  0  3  0  0  0  0  0  0
  1 18  1  1  0  0  0
  1 24  1  0  0  0  0
  1 26  1  0  0  0  0
  2  6  1  0  0  0  0
  4 16  1  0  0  0  0
  6 21  1  1  0  0  0
  6 14  1  0  0  0  0
  7 23  2  0  0  0  0
  9 27  1  6  0  0  0
  9  2  1  0  0  0  0
  9 15  1  0  0  0  0
  9 11  1  0  0  0  0
 13 20  1  0  0  0  0
 14  3  1  0  0  0  0
 14  8  1  1  0  0  0
 15 18  1  6  0  0  0
 15  1  1  0  0  0  0
 16 12  1  0  0  0  0
 16  5  2  0  0  0  0
 17 21  1  6  0  0  0
 17  4  1  0  0  0  0
 17 19  1  0  0  0  0
 19  8  1  6  0  0  0
 19 12  1  0  0  0  0
 20 10  1  6  0  0  0
 22 13  1  0  0  0  0
 23 11  1  0  0  0  0
 24 22  1  0  0  0  0
 25 27  2  0  0  0  0
 25  7  1  0  0  0  0
 26  3  1  1  0  0  0
 26 20  1  0  0  0  0
M  END
>  <MODEL>
4

>  <REMARK>
 VINA RESULT:      -7.6      2.625      3.524
  Name = 
  0 active torsions:
  status: ('A' for Active; 'I' for Inactive)
                            x       y       z     vdW  Elec       q    Type
                         _______ _______ _______ _____ _____    ______ ____

>  <TORSDO>
F 0

$$$$
=
 OpenBabel11052418213D

 27 32  0  0  1  0  0  0  0  0999 V2000
  195.9160  173.2170  145.3720 C   0  0  2  0  0  0  0  0  0  0  0  0
  194.3020  176.5670  144.5520 S   0  0  0  0  0  0  0  0  0  0  0  0
  193.4250  173.0760  145.8070 N   0  0  0  0  0  2  0  0  0  0  0  0
  189.9400  176.9180  146.9610 C   0  0  0  0  0  2  0  0  0  0  0  0
  187.6040  176.2750  146.9880 O   0  0  0  0  0  0  0  0  0  0  0  0
  193.3700  175.5270  145.7280 C   0  0  2  0  0  3  0  0  0  0  0  0
  195.0920  176.2640  141.0890 C   0  0  0  0  0  3  0  0  0  0  0  0
  191.2880  174.0620  145.0350 C   0  0  0  0  0  2  0  0  0  0  0  0
  195.5250  175.3730  143.8020 C   0  0  2  0  0  0  0  0  0  0  0  0
  194.5880  170.9500  143.1310 C   0  0  0  0  0  1  0  0  0  0  0  0
  194.8240  174.4750  142.7550 C   0  0  0  0  0  2  0  0  0  0  0  0
  189.1920  174.7320  146.1990 N   0  0  0  0  0  2  0  0  0  0  0  0
  195.4900  170.3370  145.3880 C   0  0  0  0  0  2  0  0  0  0  0  0
  192.8200  174.2090  145.1270 C   0  0  2  0  0  3  0  0  0  0  0  0
  196.4280  174.5450  144.7800 C   0  0  1  0  0  3  0  0  0  0  0  0
  188.8030  175.9870  146.7360 C   0  0  0  0  0  0  0  0  0  0  0  0
  191.0130  176.2120  146.1520 C   0  0  2  0  0  3  0  0  0  0  0  0
  195.9310  174.4760  146.2160 C   0  0  0  0  0  2  0  0  0  0  0  0
  190.6390  174.7520  146.2130 C   0  0  2  0  0  3  0  0  0  0  0  0
  194.4590  171.1700  144.6270 C   0  0  1  0  0  3  0  0  0  0  0  0
  192.4370  176.3490  146.6370 C   0  0  0  0  0  2  0  0  0  0  0  0
  196.8890  170.8990  145.1870 C   0  0  0  0  0  2  0  0  0  0  0  0
  194.3640  175.2430  141.5440 C   0  0  0  0  0  3  0  0  0  0  0  0
  196.9910  172.2540  145.8670 C   0  0  0  0  0  2  0  0  0  0  0  0
  196.2930  176.6920  141.8230 C   0  0  0  0  0  3  0  0  0  0  0  0
  194.5260  172.6670  144.9480 C   0  0  2  0  0  3  0  0  0  0  0  0
  196.5170  176.2490  143.0660 C   0  0  0  0  0  3  0  0  0  0  0  0
  1 24  1  1  0  0  0
  1 18  1  0  0  0  0
  2  6  1  0  0  0  0
  6 21  1  6  0  0  0
  7 23  2  0  0  0  0
  7 25  1  0  0  0  0
  9 11  1  6  0  0  0
  9  2  1  0  0  0  0
  9 15  1  0  0  0  0
 12 19  1  0  0  0  0
 12 16  1  0  0  0  0
 14  8  1  1  0  0  0
 14  6  1  0  0  0  0
 14  3  1  0  0  0  0
 15  1  1  0  0  0  0
 15 18  1  1  0  0  0
 16  4  1  0  0  0  0
 16  5  2  0  0  0  0
 17 19  1  0  0  0  0
 17 21  1  1  0  0  0
 17  4  1  0  0  0  0
 19  8  1  6  0  0  0
 20 10  1  6  0  0  0
 20 26  1  0  0  0  0
 20 13  1  0  0  0  0
 22 13  1  0  0  0  0
 22 24  1  0  0  0  0
 23 11  1  0  0  0  0
 25 27  2  0  0  0  0
 26  1  1  0  0  0  0
 26  3  1  1  0  0  0
 27  9  1  0  0  0  0
M  END
>  <MODEL>
5

>  <REMARK>
 VINA RESULT:      -7.4      4.441      6.629
  Name = 
  0 active torsions:
  status: ('A' for Active; 'I' for Inactive)
                            x       y       z     vdW  Elec       q    Type
                         _______ _______ _______ _____ _____    ______ ____

>  <TORSDO>
F 0

$$$$
=
 OpenBabel11052418213D

 27 32  0  0  1  0  0  0  0  0999 V2000
  189.9990  176.8200  144.7980 C   0  0  2  0  0  0  0  0  0  0  0  0
  193.0160  175.3210  143.0230 S   0  0  0  0  0  0  0  0  0  0  0  0
  189.4480  174.4620  144.0570 N   0  0  0  0  0  2  0  0  0  0  0  0
  191.4970  171.5630  140.1030 C   0  0  0  0  0  2  0  0  0  0  0  0
  190.8160  169.2390  140.0120 O   0  0  0  0  0  0  0  0  0  0  0  0
  191.4090  174.5690  142.5880 C   0  0  2  0  0  3  0  0  0  0  0  0
  194.9790  175.3800  145.9970 C   0  0  0  0  0  3  0  0  0  0  0  0
  190.5510  172.2910  143.6040 C   0  0  0  0  0  2  0  0  0  0  0  0
  192.6310  176.2800  144.5770 C   0  0  2  0  0  0  0  0  0  0  0  0
  189.5250  174.9130  147.6380 C   0  0  0  0  0  1  0  0  0  0  0  0
  192.5290  175.3220  145.7870 C   0  0  0  0  0  2  0  0  0  0  0  0
  190.2090  170.5220  141.8850 N   0  0  0  0  0  2  0  0  0  0  0  0
  187.7090  176.1990  146.4850 C   0  0  0  0  0  2  0  0  0  0  0  0
  190.7140  173.8170  143.7500 C   0  0  2  0  0  3  0  0  0  0  0  0
  191.4390  177.2980  144.5290 C   0  0  1  0  0  3  0  0  0  0  0  0
  190.8310  170.3400  140.6220 C   0  0  0  0  0  0  0  0  0  0  0  0
  191.5200  172.3990  141.3690 C   0  0  2  0  0  3  0  0  0  0  0  0
  190.4610  177.0930  143.3820 C   0  0  0  0  0  2  0  0  0  0  0  0
  190.3150  171.9410  142.1520 C   0  0  2  0  0  3  0  0  0  0  0  0
  188.7600  175.1000  146.3410 C   0  0  1  0  0  3  0  0  0  0  0  0
  191.4240  173.8980  141.2010 C   0  0  0  0  0  2  0  0  0  0  0  0
  188.3680  177.5680  146.5700 C   0  0  0  0  0  2  0  0  0  0  0  0
  193.8490  174.6860  146.1390 C   0  0  0  0  0  3  0  0  0  0  0  0
  189.0130  177.9000  145.2350 C   0  0  0  0  0  2  0  0  0  0  0  0
  194.9410  176.7320  145.4160 C   0  0  0  0  0  3  0  0  0  0  0  0
  189.7360  175.3380  145.1830 C   0  0  2  0  0  3  0  0  0  0  0  0
  193.8400  177.1660  144.7920 C   0  0  0  0  0  3  0  0  0  0  0  0
  1 18  1  6  0  0  0
  1 26  1  0  0  0  0
  1 24  1  0  0  0  0
  2  9  1  0  0  0  0
  4 16  1  0  0  0  0
  5 16  2  0  0  0  0
  6 21  1  6  0  0  0
  6  2  1  0  0  0  0
  6 14  1  0  0  0  0
  7 23  2  0  0  0  0
  9 27  1  1  0  0  0
  9 11  1  0  0  0  0
 11 23  1  0  0  0  0
 12 19  1  0  0  0  0
 13 22  1  0  0  0  0
 14  8  1  6  0  0  0
 14  3  1  0  0  0  0
 15 18  1  6  0  0  0
 15  9  1  0  0  0  0
 15  1  1  0  0  0  0
 16 12  1  0  0  0  0
 17  4  1  6  0  0  0
 17 19  1  0  0  0  0
 19  8  1  1  0  0  0
 20 13  1  0  0  0  0
 20 10  1  1  0  0  0
 21 17  1  0  0  0  0
 24 22  1  0  0  0  0
 25  7  1  0  0  0  0
 26  3  1  6  0  0  0
 26 20  1  0  0  0  0
 27 25  2  0  0  0  0
M  END
>  <MODEL>
6

>  <REMARK>
 VINA RESULT:      -7.3      3.693      5.660
  Name = 
  0 active torsions:
  status: ('A' for Active; 'I' for Inactive)
                            x       y       z     vdW  Elec       q    Type
                         _______ _______ _______ _____ _____    ______ ____

>  <TORSDO>
F 0

$$$$
=
 OpenBabel11052418213D

 27 32  0  0  1  0  0  0  0  0999 V2000
  189.6020  176.8770  142.7680 C   0  0  2  0  0  0  0  0  0  0  0  0
  191.8530  174.5620  144.7860 S   0  0  0  0  0  0  0  0  0  0  0  0
  189.3870  174.5160  141.8790 N   0  0  0  0  0  2  0  0  0  0  0  0
  192.8160  170.4630  142.0990 C   0  0  0  0  0  2  0  0  0  0  0  0
  191.9870  168.3130  141.3480 O   0  0  0  0  0  0  0  0  0  0  0  0
  191.4370  173.9680  143.1100 C   0  0  2  0  0  3  0  0  0  0  0  0
  189.9520  175.0670  147.7590 C   0  0  0  0  0  3  0  0  0  0  0  0
  189.5750  172.1630  142.6300 C   0  0  0  0  0  2  0  0  0  0  0  0
  190.6080  175.9210  145.0800 C   0  0  2  0  0  0  0  0  0  0  0  0
  186.3700  175.8210  143.3710 C   0  0  0  0  0  1  0  0  0  0  0  0
  189.2250  175.3170  145.4230 C   0  0  0  0  0  2  0  0  0  0  0  0
  190.4690  170.0940  141.5730 N   0  0  0  0  0  2  0  0  0  0  0  0
  187.0930  177.0340  141.3000 C   0  0  0  0  0  2  0  0  0  0  0  0
  189.9390  173.6370  142.8970 C   0  0  2  0  0  3  0  0  0  0  0  0
  190.5040  177.0580  144.0050 C   0  0  1  0  0  3  0  0  0  0  0  0
  191.7640  169.5160  141.6430 C   0  0  0  0  0  0  0  0  0  0  0  0
  191.9410  171.5730  142.6500 C   0  0  2  0  0  3  0  0  0  0  0  0
  191.1040  176.7210  142.6480 C   0  0  0  0  0  2  0  0  0  0  0  0
  190.6750  171.5040  141.8310 C   0  0  2  0  0  3  0  0  0  0  0  0
  187.2930  175.7920  142.1670 C   0  0  1  0  0  3  0  0  0  0  0  0
  192.4800  172.9810  142.5540 C   0  0  0  0  0  2  0  0  0  0  0  0
  187.6490  178.2690  141.9930 C   0  0  0  0  0  2  0  0  0  0  0  0
  189.2160  174.6030  146.7490 C   0  0  0  0  0  3  0  0  0  0  0  0
  189.1620  178.1640  142.0750 C   0  0  0  0  0  2  0  0  0  0  0  0
  190.8380  176.2230  147.5490 C   0  0  0  0  0  3  0  0  0  0  0  0
  188.7440  175.5910  142.6190 C   0  0  2  0  0  3  0  0  0  0  0  0
  191.1120  176.6460  146.3090 C   0  0  0  0  0  3  0  0  0  0  0  0
  1 24  1  6  0  0  0
  1 15  1  0  0  0  0
  2  9  1  0  0  0  0
  3 14  1  0  0  0  0
  5 16  2  0  0  0  0
  6 21  1  1  0  0  0
  6  2  1  0  0  0  0
  9 11  1  1  0  0  0
  9 27  1  0  0  0  0
 11 23  1  0  0  0  0
 12 16  1  0  0  0  0
 12 19  1  0  0  0  0
 13 22  1  0  0  0  0
 13 20  1  0  0  0  0
 14  8  1  6  0  0  0
 14  6  1  0  0  0  0
 15 18  1  6  0  0  0
 15  9  1  0  0  0  0
 16  4  1  0  0  0  0
 17  4  1  6  0  0  0
 18  1  1  0  0  0  0
 19  8  1  1  0  0  0
 19 17  1  0  0  0  0
 20 26  1  0  0  0  0
 20 10  1  1  0  0  0
 21 17  1  0  0  0  0
 22 24  1  0  0  0  0
 23  7  2  0  0  0  0
 25  7  1  0  0  0  0
 26  3  1  6  0  0  0
 26  1  1  0  0  0  0
 27 25  2  0  0  0  0
M  END
>  <MODEL>
7

>  <REMARK>
 VINA RESULT:      -7.1      3.397      6.433
  Name = 
  0 active torsions:
  status: ('A' for Active; 'I' for Inactive)
                            x       y       z     vdW  Elec       q    Type
                         _______ _______ _______ _____ _____    ______ ____

>  <TORSDO>
F 0

$$$$
=
 OpenBabel11052418213D

 27 32  0  0  1  0  0  0  0  0999 V2000
  190.4070  175.2400  145.6450 C   0  0  2  0  0  0  0  0  0  0  0  0
  188.1180  174.7750  142.6380 S   0  0  0  0  0  0  0  0  0  0  0  0
  191.7260  174.2220  143.7390 N   0  0  0  0  0  2  0  0  0  0  0  0
  190.0660  171.3060  139.6180 C   0  0  0  0  0  2  0  0  0  0  0  0
  191.7150  170.8300  137.9070 O   0  0  0  0  0  0  0  0  0  0  0  0
  189.5840  173.6870  142.6700 C   0  0  2  0  0  3  0  0  0  0  0  0
  187.6730  178.2910  142.2500 C   0  0  0  0  0  3  0  0  0  0  0  0
  191.7670  174.1490  141.2630 C   0  0  0  0  0  2  0  0  0  0  0  0
  188.5300  176.0840  143.9040 C   0  0  2  0  0  0  0  0  0  0  0  0
  192.7930  177.5410  144.6750 C   0  0  0  0  0  1  0  0  0  0  0  0
  189.5410  177.0980  143.3170 C   0  0  0  0  0  2  0  0  0  0  0  0
  192.2620  172.3550  139.6100 N   0  0  0  0  0  2  0  0  0  0  0  0
  193.1440  175.8140  146.4580 C   0  0  0  0  0  2  0  0  0  0  0  0
  190.9390  174.4260  142.5340 C   0  0  2  0  0  3  0  0  0  0  0  0
  188.9410  175.6050  145.3390 C   0  0  1  0  0  3  0  0  0  0  0  0
  191.3890  171.4470  138.9540 C   0  0  0  0  0  0  0  0  0  0  0  0
  190.1110  172.5120  140.5380 C   0  0  2  0  0  3  0  0  0  0  0  0
  189.3760  174.1510  145.4350 C   0  0  0  0  0  2  0  0  0  0  0  0
  191.5770  172.7120  140.8340 C   0  0  2  0  0  3  0  0  0  0  0  0
  192.8100  176.0560  144.9870 C   0  0  1  0  0  3  0  0  0  0  0  0
  189.3820  172.3950  141.8560 C   0  0  0  0  0  2  0  0  0  0  0  0
  191.9820  176.2280  147.3490 C   0  0  0  0  0  2  0  0  0  0  0  0
  188.9540  177.9250  142.2030 C   0  0  0  0  0  3  0  0  0  0  0  0
  190.8090  175.2910  147.1170 C   0  0  0  0  0  2  0  0  0  0  0  0
  186.8140  177.8130  143.3460 C   0  0  0  0  0  3  0  0  0  0  0  0
  191.4920  175.4090  144.5460 C   0  0  2  0  0  3  0  0  0  0  0  0
  187.2260  176.8160  144.1390 C   0  0  0  0  0  3  0  0  0  0  0  0
  1 18  1  6  0  0  0
  1 24  1  0  0  0  0
  2  6  1  0  0  0  0
  2  9  1  0  0  0  0
  5 16  2  0  0  0  0
  6 21  1  6  0  0  0
  7 25  1  0  0  0  0
  9 11  1  6  0  0  0
  9 27  1  0  0  0  0
  9 15  1  0  0  0  0
 12 19  1  0  0  0  0
 13 22  1  0  0  0  0
 14  8  1  6  0  0  0
 14  6  1  0  0  0  0
 14  3  1  0  0  0  0
 15 18  1  6  0  0  0
 15  1  1  0  0  0  0
 16 12  1  0  0  0  0
 16  4  1  0  0  0  0
 17  4  1  6  0  0  0
 17 19  1  0  0  0  0
 17 21  1  0  0  0  0
 19  8  1  6  0  0  0
 20 10  1  1  0  0  0
 20 13  1  0  0  0  0
 23  7  2  0  0  0  0
 23 11  1  0  0  0  0
 24 22  1  0  0  0  0
 25 27  2  0  0  0  0
 26  3  1  1  0  0  0
 26 20  1  0  0  0  0
 26  1  1  0  0  0  0
M  END
>  <MODEL>
8

>  <REMARK>
 VINA RESULT:      -7.0      3.221      5.743
  Name = 
  0 active torsions:
  status: ('A' for Active; 'I' for Inactive)
                            x       y       z     vdW  Elec       q    Type
                         _______ _______ _______ _____ _____    ______ ____

>  <TORSDO>
F 0

$$$$
=
 OpenBabel11052418213D

 27 32  0  0  1  0  0  0  0  0999 V2000
  189.5190  174.9620  145.8410 C   0  0  2  0  0  0  0  0  0  0  0  0
  191.5530  172.9630  143.3180 S   0  0  0  0  0  0  0  0  0  0  0  0
  191.6420  176.2260  145.2880 N   0  0  0  0  0  2  0  0  0  0  0  0
  196.3240  174.4260  143.5340 C   0  0  0  0  0  2  0  0  0  0  0  0
  197.9410  176.1060  142.8750 O   0  0  0  0  0  0  0  0  0  0  0  0
  192.5140  174.1460  144.3240 C   0  0  2  0  0  3  0  0  0  0  0  0
  189.0610  173.3340  140.7970 C   0  0  0  0  0  3  0  0  0  0  0  0
  193.2730  176.5150  143.4460 C   0  0  0  0  0  2  0  0  0  0  0  0
  189.7880  173.5110  143.5860 C   0  0  2  0  0  0  0  0  0  0  0  0
  188.6130  177.8800  144.2320 C   0  0  0  0  0  1  0  0  0  0  0  0
  189.4860  174.7740  142.7450 C   0  0  0  0  0  2  0  0  0  0  0  0
  195.7470  176.7840  143.3760 N   0  0  0  0  0  2  0  0  0  0  0  0
  188.8400  177.6550  146.7180 C   0  0  0  0  0  2  0  0  0  0  0  0
  192.1710  175.6350  144.0700 C   0  0  2  0  0  3  0  0  0  0  0  0
  189.2850  173.6520  145.0640 C   0  0  1  0  0  3  0  0  0  0  0  0
  196.7710  175.8110  143.2320 C   0  0  0  0  0  0  0  0  0  0  0  0
  194.8210  174.6320  143.5180 C   0  0  2  0  0  3  0  0  0  0  0  0
  190.3830  173.7480  146.1130 C   0  0  0  0  0  2  0  0  0  0  0  0
  194.6270  176.0660  143.9460 C   0  0  2  0  0  3  0  0  0  0  0  0
  189.5540  177.5410  145.3720 C   0  0  1  0  0  3  0  0  0  0  0  0
  194.0010  173.7570  144.4370 C   0  0  0  0  0  2  0  0  0  0  0  0
  187.8400  176.5210  146.8930 C   0  0  0  0  0  2  0  0  0  0  0  0
  189.5000  174.5040  141.2640 C   0  0  0  0  0  3  0  0  0  0  0  0
  188.5870  175.2050  147.0260 C   0  0  0  0  0  2  0  0  0  0  0  0
  188.6450  172.2800  141.7360 C   0  0  0  0  0  3  0  0  0  0  0  0
  190.1960  176.1690  145.1360 C   0  0  2  0  0  3  0  0  0  0  0  0
  188.9460  172.3790  143.0360 C   0  0  0  0  0  3  0  0  0  0  0  0
  1 18  1  1  0  0  0
  1 24  1  0  0  0  0
  2  9  1  0  0  0  0
  2  6  1  0  0  0  0
  5 16  2  0  0  0  0
  6 21  1  6  0  0  0
  7 23  2  0  0  0  0
  7 25  1  0  0  0  0
  9 11  1  6  0  0  0
  9 15  1  0  0  0  0
 12 19  1  0  0  0  0
 13 22  1  0  0  0  0
 14  8  1  1  0  0  0
 14  6  1  0  0  0  0
 14  3  1  0  0  0  0
 15  1  1  0  0  0  0
 15 18  1  1  0  0  0
 16 12  1  0  0  0  0
 16  4  1  0  0  0  0
 17  4  1  1  0  0  0
 17 19  1  0  0  0  0
 17 21  1  0  0  0  0
 19  8  1  6  0  0  0
 20 10  1  6  0  0  0
 20 13  1  0  0  0  0
 22 24  1  0  0  0  0
 23 11  1  0  0  0  0
 25 27  2  0  0  0  0
 26  3  1  1  0  0  0
 26 20  1  0  0  0  0
 26  1  1  0  0  0  0
 27  9  1  0  0  0  0
M  END
>  <MODEL>
9

>  <REMARK>
 VINA RESULT:      -6.9      4.056      6.456
  Name = 
  0 active torsions:
  status: ('A' for Active; 'I' for Inactive)
                            x       y       z     vdW  Elec       q    Type
                         _______ _______ _______ _____ _____    ______ ____

>  <TORSDO>
F 0

$$$$
