=
 OpenBabel11052420123D

 37 37  0  0  1  0  0  0  0  0999 V2000
  189.7360  174.0680  142.5600 C   0  0  0  0  0  2  0  0  0  0  0  0
  195.0720  172.4890  145.7810 O   0  0  0  0  0  1  0  0  0  0  0  0
  189.4530  172.7200  141.9140 C   0  0  2  0  0  3  0  0  0  0  0  0
  194.1980  175.3410  144.8760 C   0  0  0  0  0  2  0  0  0  0  0  0
  195.1460  171.0020  143.4920 C   0  0  0  0  0  3  0  0  0  0  0  0
  195.4860  175.6360  145.6210 C   0  0  0  0  0  2  0  0  0  0  0  0
  190.5590  176.2470  145.6160 C   0  0  2  0  0  3  0  0  0  0  0  0
  192.8050  170.9610  142.7250 C   0  0  2  0  0  3  0  0  0  0  0  0
  190.0180  170.3950  141.8950 O   0  0  0  0  0  1  0  0  0  0  0  0
  189.2910  174.2760  146.5070 C   0  0  0  0  0  1  0  0  0  0  0  0
  191.7410  175.4970  145.0070 C   0  0  0  0  0  2  0  0  0  0  0  0
  197.0580  175.1380  143.9400 O   0  0  0  0  0  0  0  0  0  0  0  0
  190.4040  171.6310  142.4170 C   0  0  1  0  0  3  0  0  0  0  0  0
  197.1640  173.6670  145.7840 C   0  0  0  0  0  2  0  0  0  0  0  0
  196.6030  174.8390  145.0330 C   0  0  0  0  0  0  0  0  0  0  0  0
  189.2080  175.4910  145.5650 C   0  0  2  0  0  0  0  0  0  0  0  0
  189.5310  172.8400  140.5240 O   0  0  0  0  0  1  0  0  0  0  0  0
  191.8540  171.9320  142.0470 C   0  0  0  0  0  2  0  0  0  0  0  0
  196.6980  171.8750  143.7120 S   0  0  0  0  0  0  0  0  0  0  0  0
  188.8790  175.1230  144.2330 O   0  0  0  0  0  0  0  0  0  0  0  0
  193.0440  176.0430  145.5540 C   0  0  0  0  0  2  0  0  0  0  0  0
  194.1270  171.6270  142.9040 C   0  0  0  0  0  3  0  0  0  0  0  0
  192.9490  169.8200  141.9330 O   0  0  0  0  0  1  0  0  0  0  0  0
  196.4270  172.3680  145.4600 C   0  0  2  0  0  3  0  0  0  0  0  0
  189.5100  173.9990  143.9360 O   0  0  0  0  0  0  0  0  0  0  0  0
  187.4770  175.9330  147.2300 O   0  0  0  0  0  1  0  0  0  0  0  0
  188.1000  176.4340  146.0820 C   0  0  2  0  0  3  0  0  0  0  0  0
  187.0580  176.8150  145.0280 C   0  0  0  0  0  2  0  0  0  0  0  0
  187.0060  178.2090  144.8510 O   0  0  0  0  0  0  0  0  0  0  0  0
  185.3500  179.8470  144.1920 C   0  0  0  0  0  1  0  0  0  0  0  0
  185.6840  178.6500  145.0730 C   0  0  0  0  0  0  0  0  0  0  0  0
  185.5640  179.0870  146.5180 C   0  0  0  0  0  1  0  0  0  0  0  0
  184.7630  177.6340  144.8560 F   0  0  0  0  0  0  0  0  0  0  0  0
  190.4750  177.6000  145.1520 O   0  0  0  0  0  0  0  0  0  0  0  0
  190.6710  178.0020  143.8260 C   0  0  0  0  0  0  0  0  0  0  0  0
  189.7430  177.7050  142.8370 O   0  0  0  0  0  0  0  0  0  0  0  0
  191.7170  178.6310  143.5220 O   0  0  0  0  0  1  0  0  0  0  0  0
  1 25  1  0  0  0  0
  3 17  1  6  0  0  0
  3 13  1  0  0  0  0
  3  1  1  0  0  0  0
  4 21  1  0  0  0  0
  4  6  1  0  0  0  0
  5 19  1  0  0  0  0
  7 34  1  6  0  0  0
  8 23  1  6  0  0  0
  8 22  1  0  0  0  0
 11 21  1  0  0  0  0
 11  7  1  0  0  0  0
 12 15  2  0  0  0  0
 13  9  1  6  0  0  0
 15  6  1  0  0  0  0
 15 14  1  0  0  0  0
 16  7  1  0  0  0  0
 16 27  1  0  0  0  0
 16 10  1  1  0  0  0
 18 13  1  0  0  0  0
 18  8  1  0  0  0  0
 19 24  1  0  0  0  0
 20 16  1  0  0  0  0
 22  5  2  0  0  0  0
 24  2  1  6  0  0  0
 24 14  1  0  0  0  0
 25 20  1  0  0  0  0
 27 26  1  1  0  0  0
 28 27  1  0  0  0  0
 29 28  1  0  0  0  0
 29 31  1  0  0  0  0
 30 31  1  0  0  0  0
 31 32  1  0  0  0  0
 33 31  1  0  0  0  0
 35 34  1  0  0  0  0
 36 35  2  0  0  0  0
 37 35  1  0  0  0  0
M  END
>  <MODEL>
1

>  <REMARK>
 VINA RESULT:      -7.6      0.000      0.000
  Name = 
  6 active torsions:
  status: ('A' for Active; 'I' for Inactive)
    1  A    between atoms: C_4  and  O_22
    2  A    between atoms: C_10  and  O_22
    3  A    between atoms: O_16  and  C_21
    4  A    between atoms: O_16  and  C_30
    5  A    between atoms: C_20  and  C_24
    6  A    between atoms: C_24  and  C_30
                            x       y       z     vdW  Elec       q    Type
                         _______ _______ _______ _____ _____    ______ ____

>  <TORSDO>
F 6

$$$$
=
 OpenBabel11052420123D

 37 37  0  0  1  0  0  0  0  0999 V2000
  189.2810  175.1990  145.3400 C   0  0  0  0  0  2  0  0  0  0  0  0
  194.8270  175.9040  142.1650 O   0  0  0  0  0  1  0  0  0  0  0  0
  189.7080  175.7880  146.6760 C   0  0  2  0  0  3  0  0  0  0  0  0
  192.5440  173.8790  141.5310 C   0  0  0  0  0  2  0  0  0  0  0  0
  195.5380  175.3970  144.7520 C   0  0  0  0  0  3  0  0  0  0  0  0
  193.5280  173.5930  140.4130 C   0  0  0  0  0  2  0  0  0  0  0  0
  189.0150  175.3480  141.5100 C   0  0  2  0  0  3  0  0  0  0  0  0
  193.5240  175.9660  146.0520 C   0  0  2  0  0  3  0  0  0  0  0  0
  191.4010  177.0300  147.8240 O   0  0  0  0  0  1  0  0  0  0  0  0
  189.0150  177.7330  142.2850 C   0  0  0  0  0  1  0  0  0  0  0  0
  190.3790  174.9340  142.0570 C   0  0  0  0  0  2  0  0  0  0  0  0
  195.0310  172.1740  141.5410 O   0  0  0  0  0  0  0  0  0  0  0  0
  191.1130  176.3900  146.6160 C   0  0  1  0  0  3  0  0  0  0  0  0
  195.9930  174.2320  140.8970 C   0  0  0  0  0  2  0  0  0  0  0  0
  194.8620  173.2500  140.9900 C   0  0  0  0  0  0  0  0  0  0  0  0
  188.2570  176.3950  142.3640 C   0  0  2  0  0  0  0  0  0  0  0  0
  189.6330  174.8050  147.6660 O   0  0  0  0  0  1  0  0  0  0  0  0
  192.1700  175.3300  146.3140 C   0  0  0  0  0  2  0  0  0  0  0  0
  196.4160  174.2930  143.6430 S   0  0  0  0  0  0  0  0  0  0  0  0
  188.0940  175.9420  143.7000 O   0  0  0  0  0  0  0  0  0  0  0  0
  191.2330  174.3550  140.9480 C   0  0  0  0  0  2  0  0  0  0  0  0
  194.3120  175.0700  145.1570 C   0  0  0  0  0  3  0  0  0  0  0  0
  194.1980  176.1430  147.2620 O   0  0  0  0  0  1  0  0  0  0  0  0
  196.0260  175.1890  142.0880 C   0  0  2  0  0  3  0  0  0  0  0  0
  189.2020  176.2050  144.3750 O   0  0  0  0  0  0  0  0  0  0  0  0
  186.8910  177.3280  140.5680 O   0  0  0  0  0  1  0  0  0  0  0  0
  186.8510  176.5950  141.7580 C   0  0  2  0  0  3  0  0  0  0  0  0
  185.8310  177.1970  142.7270 C   0  0  0  0  0  2  0  0  0  0  0  0
  185.7740  178.5970  142.5930 O   0  0  0  0  0  0  0  0  0  0  0  0
  186.2870  178.5200  144.9560 C   0  0  0  0  0  1  0  0  0  0  0  0
  185.4670  179.1650  143.8470 C   0  0  0  0  0  0  0  0  0  0  0  0
  184.0030  178.9080  144.1400 C   0  0  0  0  0  1  0  0  0  0  0  0
  185.6680  180.5390  143.8500 F   0  0  0  0  0  0  0  0  0  0  0  0
  188.2110  174.2210  141.1400 O   0  0  0  0  0  0  0  0  0  0  0  0
  188.1330  173.6860  139.8500 C   0  0  0  0  0  0  0  0  0  0  0  0
  188.0750  174.5070  138.7310 O   0  0  0  0  0  0  0  0  0  0  0  0
  188.0990  172.4380  139.7010 O   0  0  0  0  0  1  0  0  0  0  0  0
  1  3  1  0  0  0  0
  3 17  1  1  0  0  0
  5 22  2  0  0  0  0
  6 15  1  0  0  0  0
  6  4  1  0  0  0  0
  7 34  1  1  0  0  0
  7 11  1  0  0  0  0
  7 16  1  0  0  0  0
  8 18  1  0  0  0  0
  8 23  1  1  0  0  0
 13  3  1  0  0  0  0
 13  9  1  1  0  0  0
 14 15  1  0  0  0  0
 14 24  1  0  0  0  0
 15 12  2  0  0  0  0
 16 10  1  6  0  0  0
 16 20  1  0  0  0  0
 18 13  1  0  0  0  0
 19  5  1  0  0  0  0
 20 25  1  0  0  0  0
 21  4  1  0  0  0  0
 21 11  1  0  0  0  0
 22  8  1  0  0  0  0
 24  2  1  1  0  0  0
 24 19  1  0  0  0  0
 25  1  1  0  0  0  0
 27 26  1  6  0  0  0
 27 16  1  0  0  0  0
 27 28  1  0  0  0  0
 29 28  1  0  0  0  0
 29 31  1  0  0  0  0
 31 33  1  0  0  0  0
 31 32  1  0  0  0  0
 31 30  1  0  0  0  0
 35 34  1  0  0  0  0
 36 35  2  0  0  0  0
 37 35  1  0  0  0  0
M  END
>  <MODEL>
2

>  <REMARK>
 VINA RESULT:      -7.2      2.348      5.042
  Name = 
  6 active torsions:
  status: ('A' for Active; 'I' for Inactive)
    1  A    between atoms: C_4  and  O_22
    2  A    between atoms: C_10  and  O_22
    3  A    between atoms: O_16  and  C_21
    4  A    between atoms: O_16  and  C_30
    5  A    between atoms: C_20  and  C_24
    6  A    between atoms: C_24  and  C_30
                            x       y       z     vdW  Elec       q    Type
                         _______ _______ _______ _____ _____    ______ ____

>  <TORSDO>
F 6

$$$$
=
 OpenBabel11052420123D

 37 37  0  0  1  0  0  0  0  0999 V2000
  189.1970  174.9300  141.9920 C   0  0  0  0  0  2  0  0  0  0  0  0
  195.3730  173.1560  142.1960 O   0  0  0  0  0  1  0  0  0  0  0  0
  188.6970  173.8990  140.9930 C   0  0  2  0  0  3  0  0  0  0  0  0
  194.1970  175.9530  142.9110 C   0  0  0  0  0  2  0  0  0  0  0  0
  194.5700  172.6750  139.6300 C   0  0  0  0  0  3  0  0  0  0  0  0
  195.6710  176.1520  143.2110 C   0  0  0  0  0  2  0  0  0  0  0  0
  191.1180  175.9000  145.1750 C   0  0  2  0  0  3  0  0  0  0  0  0
  192.1150  172.5420  139.7840 C   0  0  2  0  0  3  0  0  0  0  0  0
  189.2270  171.8790  139.8240 O   0  0  0  0  0  1  0  0  0  0  0  0
  190.3050  173.5590  145.5580 C   0  0  0  0  0  1  0  0  0  0  0  0
  191.9790  175.6400  143.9420 C   0  0  0  0  0  2  0  0  0  0  0  0
  196.4760  176.5910  141.0420 O   0  0  0  0  0  0  0  0  0  0  0  0
  189.7760  172.8730  140.6370 C   0  0  1  0  0  3  0  0  0  0  0  0
  197.2960  174.5730  141.9540 C   0  0  0  0  0  2  0  0  0  0  0  0
  196.4800  175.8320  141.9990 C   0  0  0  0  0  0  0  0  0  0  0  0
  189.8570  175.0070  145.2930 C   0  0  2  0  0  0  0  0  0  0  0  0
  188.2320  174.5450  139.8450 O   0  0  0  0  0  1  0  0  0  0  0  0
  190.9690  173.5250  139.9440 C   0  0  0  0  0  2  0  0  0  0  0  0
  196.0810  173.6440  139.6340 S   0  0  0  0  0  0  0  0  0  0  0  0
  189.0430  175.1200  144.1350 O   0  0  0  0  0  0  0  0  0  0  0  0
  193.3880  176.1470  144.1740 C   0  0  0  0  0  2  0  0  0  0  0  0
  193.3990  173.2990  139.7470 C   0  0  0  0  0  3  0  0  0  0  0  0
  191.9510  171.8240  138.5970 O   0  0  0  0  0  1  0  0  0  0  0  0
  196.5010  173.3900  141.4040 C   0  0  2  0  0  3  0  0  0  0  0  0
  189.5190  174.3110  143.2020 O   0  0  0  0  0  0  0  0  0  0  0  0
  188.8280  174.4730  147.4410 O   0  0  0  0  0  1  0  0  0  0  0  0
  189.0270  175.4900  146.5030 C   0  0  2  0  0  3  0  0  0  0  0  0
  187.6960  176.1440  146.1280 C   0  0  0  0  0  2  0  0  0  0  0  0
  187.5590  177.4000  146.7460 O   0  0  0  0  0  0  0  0  0  0  0  0
  185.8260  178.9640  147.3830 C   0  0  0  0  0  1  0  0  0  0  0  0
  186.3380  177.9800  146.3400 C   0  0  0  0  0  0  0  0  0  0  0  0
  185.3110  176.8760  146.1980 C   0  0  0  0  0  1  0  0  0  0  0  0
  186.4560  178.6150  145.1110 F   0  0  0  0  0  0  0  0  0  0  0  0
  190.8510  177.2950  145.3700 O   0  0  0  0  0  0  0  0  0  0  0  0
  190.4800  178.1850  144.3570 C   0  0  0  0  0  0  0  0  0  0  0  0
  191.3940  179.0750  143.8090 O   0  0  0  0  0  0  0  0  0  0  0  0
  189.2910  178.1900  143.9470 O   0  0  0  0  0  1  0  0  0  0  0  0
  1 25  1  0  0  0  0
  3 17  1  6  0  0  0
  3  1  1  0  0  0  0
  4  6  1  0  0  0  0
  4 21  1  0  0  0  0
  5 19  1  0  0  0  0
  5 22  2  0  0  0  0
  7 16  1  0  0  0  0
  7 34  1  6  0  0  0
  8 23  1  6  0  0  0
  8 18  1  0  0  0  0
 11 21  1  0  0  0  0
 11  7  1  0  0  0  0
 12 15  2  0  0  0  0
 13  9  1  6  0  0  0
 13  3  1  0  0  0  0
 14 15  1  0  0  0  0
 15  6  1  0  0  0  0
 16 10  1  1  0  0  0
 16 27  1  0  0  0  0
 18 13  1  0  0  0  0
 19 24  1  0  0  0  0
 20 16  1  0  0  0  0
 22  8  1  0  0  0  0
 24 14  1  0  0  0  0
 24  2  1  1  0  0  0
 25 20  1  0  0  0  0
 27 26  1  1  0  0  0
 28 27  1  0  0  0  0
 28 29  1  0  0  0  0
 31 29  1  0  0  0  0
 31 30  1  0  0  0  0
 32 31  1  0  0  0  0
 33 31  1  0  0  0  0
 35 34  1  0  0  0  0
 36 35  2  0  0  0  0
 37 35  1  0  0  0  0
M  END
>  <MODEL>
3

>  <REMARK>
 VINA RESULT:      -7.1      2.308      2.555
  Name = 
  6 active torsions:
  status: ('A' for Active; 'I' for Inactive)
    1  A    between atoms: C_4  and  O_22
    2  A    between atoms: C_10  and  O_22
    3  A    between atoms: O_16  and  C_21
    4  A    between atoms: O_16  and  C_30
    5  A    between atoms: C_20  and  C_24
    6  A    between atoms: C_24  and  C_30
                            x       y       z     vdW  Elec       q    Type
                         _______ _______ _______ _____ _____    ______ ____

>  <TORSDO>
F 6

$$$$
=
 OpenBabel11052420123D

 37 37  0  0  1  0  0  0  0  0999 V2000
  192.0020  175.5380  145.1920 C   0  0  0  0  0  2  0  0  0  0  0  0
  194.4080  175.5420  139.2300 O   0  0  0  0  0  1  0  0  0  0  0  0
  193.0660  176.3890  145.8670 C   0  0  2  0  0  3  0  0  0  0  0  0
  192.4700  173.4390  140.4720 C   0  0  0  0  0  2  0  0  0  0  0  0
  196.5810  175.5800  140.8830 C   0  0  0  0  0  3  0  0  0  0  0  0
  192.6160  172.9230  139.0540 C   0  0  0  0  0  2  0  0  0  0  0  0
  189.4820  174.8890  142.3650 C   0  0  2  0  0  3  0  0  0  0  0  0
  195.6930  176.4160  143.0240 C   0  0  2  0  0  3  0  0  0  0  0  0
  194.9410  177.8340  145.5140 O   0  0  0  0  0  1  0  0  0  0  0  0
  189.6510  177.3830  142.5670 C   0  0  0  0  0  1  0  0  0  0  0  0
  190.9400  174.5920  142.0250 C   0  0  0  0  0  2  0  0  0  0  0  0
  194.6560  171.7620  139.2460 O   0  0  0  0  0  0  0  0  0  0  0  0
  194.0690  176.9590  144.8620 C   0  0  1  0  0  3  0  0  0  0  0  0
  194.7780  173.6370  137.8160 C   0  0  0  0  0  2  0  0  0  0  0  0
  194.0590  172.7010  138.7430 C   0  0  0  0  0  0  0  0  0  0  0  0
  189.2640  176.0940  143.3140 C   0  0  2  0  0  0  0  0  0  0  0  0
  193.7210  175.6340  146.8440 O   0  0  0  0  0  1  0  0  0  0  0  0
  194.8560  175.8550  144.1600 C   0  0  0  0  0  2  0  0  0  0  0  0
  196.7480  174.2650  139.6730 S   0  0  0  0  0  0  0  0  0  0  0  0
  189.9900  175.9290  144.5240 O   0  0  0  0  0  0  0  0  0  0  0  0
  191.0250  173.7910  140.7420 C   0  0  0  0  0  2  0  0  0  0  0  0
  195.8920  175.3500  142.0000 C   0  0  0  0  0  3  0  0  0  0  0  0
  196.9290  176.8370  143.5200 O   0  0  0  0  0  1  0  0  0  0  0  0
  195.3990  174.8210  138.5580 C   0  0  2  0  0  3  0  0  0  0  0  0
  191.2380  176.3220  144.3250 O   0  0  0  0  0  0  0  0  0  0  0  0
  186.9950  176.6580  142.6080 O   0  0  0  0  0  1  0  0  0  0  0  0
  187.7630  176.1700  143.6710 C   0  0  2  0  0  3  0  0  0  0  0  0
  187.4620  176.9480  144.9530 C   0  0  0  0  0  2  0  0  0  0  0  0
  186.8590  178.1850  144.6630 O   0  0  0  0  0  0  0  0  0  0  0  0
  185.4410  177.0880  146.2900 C   0  0  0  0  0  1  0  0  0  0  0  0
  185.7460  178.3620  145.5130 C   0  0  0  0  0  0  0  0  0  0  0  0
  184.5400  178.6850  144.6560 C   0  0  0  0  0  1  0  0  0  0  0  0
  185.9380  179.4180  146.3940 F   0  0  0  0  0  0  0  0  0  0  0  0
  188.7630  173.7140  142.7580 O   0  0  0  0  0  0  0  0  0  0  0  0
  189.3160  172.6390  143.4630 C   0  0  0  0  0  0  0  0  0  0  0  0
  189.6920  172.7670  144.7940 O   0  0  0  0  0  1  0  0  0  0  0  0
  189.4920  171.5410  142.8750 O   0  0  0  0  0  0  0  0  0  0  0  0
  1  3  1  0  0  0  0
  3 17  1  1  0  0  0
  4 21  1  0  0  0  0
  5 22  2  0  0  0  0
  6  4  1  0  0  0  0
  7 34  1  1  0  0  0
  7 16  1  0  0  0  0
  8 23  1  1  0  0  0
  8 18  1  0  0  0  0
 11  7  1  0  0  0  0
 13  9  1  1  0  0  0
 13  3  1  0  0  0  0
 14 24  1  0  0  0  0
 14 15  1  0  0  0  0
 15  6  1  0  0  0  0
 15 12  2  0  0  0  0
 16 10  1  6  0  0  0
 16 27  1  0  0  0  0
 16 20  1  0  0  0  0
 18 13  1  0  0  0  0
 19  5  1  0  0  0  0
 21 11  1  0  0  0  0
 22  8  1  0  0  0  0
 24  2  1  1  0  0  0
 24 19  1  0  0  0  0
 25 20  1  0  0  0  0
 25  1  1  0  0  0  0
 27 26  1  6  0  0  0
 27 28  1  0  0  0  0
 29 28  1  0  0  0  0
 29 31  1  0  0  0  0
 31 30  1  0  0  0  0
 31 33  1  0  0  0  0
 32 31  1  0  0  0  0
 34 35  1  0  0  0  0
 35 36  1  0  0  0  0
 37 35  2  0  0  0  0
M  END
>  <MODEL>
4

>  <REMARK>
 VINA RESULT:      -6.9      2.746      5.466
  Name = 
  6 active torsions:
  status: ('A' for Active; 'I' for Inactive)
    1  A    between atoms: C_4  and  O_22
    2  A    between atoms: C_10  and  O_22
    3  A    between atoms: O_16  and  C_21
    4  A    between atoms: O_16  and  C_30
    5  A    between atoms: C_20  and  C_24
    6  A    between atoms: C_24  and  C_30
                            x       y       z     vdW  Elec       q    Type
                         _______ _______ _______ _____ _____    ______ ____

>  <TORSDO>
F 6

$$$$
=
 OpenBabel11052420123D

 37 37  0  0  1  0  0  0  0  0999 V2000
  190.9530  175.7410  142.6600 C   0  0  0  0  0  2  0  0  0  0  0  0
  185.5500  176.7520  145.9940 O   0  0  0  0  0  1  0  0  0  0  0  0
  191.8840  175.4340  143.8220 C   0  0  2  0  0  3  0  0  0  0  0  0
  186.2260  177.8200  143.1440 C   0  0  0  0  0  2  0  0  0  0  0  0
  187.5660  177.6600  147.5970 C   0  0  0  0  0  3  0  0  0  0  0  0
  184.8170  178.3430  143.3420 C   0  0  0  0  0  2  0  0  0  0  0  0
  187.6700  175.2310  140.7300 C   0  0  2  0  0  3  0  0  0  0  0  0
  189.5770  176.5310  146.7310 C   0  0  2  0  0  3  0  0  0  0  0  0
  192.0080  174.9360  146.1600 O   0  0  0  0  0  1  0  0  0  0  0  0
  188.1230  173.0540  141.8890 C   0  0  0  0  0  1  0  0  0  0  0  0
  187.5740  176.1260  141.9630 C   0  0  0  0  0  2  0  0  0  0  0  0
  185.2690  180.2700  144.6180 O   0  0  0  0  0  0  0  0  0  0  0  0
  191.1320  175.3480  145.1530 C   0  0  1  0  0  3  0  0  0  0  0  0
  184.0610  178.6260  145.8050 C   0  0  0  0  0  2  0  0  0  0  0  0
  184.7540  179.1640  144.5880 C   0  0  0  0  0  0  0  0  0  0  0  0
  188.6680  174.0530  140.8520 C   0  0  2  0  0  0  0  0  0  0  0  0
  192.8900  176.4010  143.8860 O   0  0  0  0  0  1  0  0  0  0  0  0
  190.4870  176.6810  145.5250 C   0  0  0  0  0  2  0  0  0  0  0  0
  186.2920  178.9140  147.4360 S   0  0  0  0  0  0  0  0  0  0  0  0
  189.9690  174.5190  141.1800 O   0  0  0  0  0  0  0  0  0  0  0  0
  186.2610  176.8810  141.9600 C   0  0  0  0  0  2  0  0  0  0  0  0
  188.5140  177.5750  146.6650 C   0  0  0  0  0  3  0  0  0  0  0  0
  190.3240  176.6850  147.9010 O   0  0  0  0  0  1  0  0  0  0  0  0
  185.0060  177.8280  146.7020 C   0  0  2  0  0  3  0  0  0  0  0  0
  190.0370  174.7020  142.4890 O   0  0  0  0  0  0  0  0  0  0  0  0
  187.8170  172.3060  139.3740 O   0  0  0  0  0  1  0  0  0  0  0  0
  188.7530  173.3390  139.4850 C   0  0  2  0  0  3  0  0  0  0  0  0
  190.1530  172.8380  139.1260 C   0  0  0  0  0  2  0  0  0  0  0  0
  190.2800  171.4620  139.3910 O   0  0  0  0  0  0  0  0  0  0  0  0
  192.3430  170.2210  139.6290 C   0  0  0  0  0  1  0  0  0  0  0  0
  191.4000  171.2570  140.2240 C   0  0  0  0  0  0  0  0  0  0  0  0
  190.9110  170.7310  141.5570 C   0  0  0  0  0  1  0  0  0  0  0  0
  192.0870  172.4410  140.4590 F   0  0  0  0  0  0  0  0  0  0  0  0
  187.8190  175.9840  139.5200 O   0  0  0  0  0  0  0  0  0  0  0  0
  186.8620  176.0540  138.5020 C   0  0  0  0  0  0  0  0  0  0  0  0
  187.0130  175.3430  137.3190 O   0  0  0  0  0  0  0  0  0  0  0  0
  185.8530  176.7900  138.6550 O   0  0  0  0  0  1  0  0  0  0  0  0
  1  3  1  0  0  0  0
  3 17  1  1  0  0  0
  3 13  1  0  0  0  0
  4  6  1  0  0  0  0
  6 15  1  0  0  0  0
  7 34  1  6  0  0  0
  7 16  1  0  0  0  0
  7 11  1  0  0  0  0
  8 23  1  1  0  0  0
 13 18  1  0  0  0  0
 13  9  1  1  0  0  0
 14 24  1  0  0  0  0
 15 12  2  0  0  0  0
 15 14  1  0  0  0  0
 16 20  1  0  0  0  0
 16 10  1  1  0  0  0
 18  8  1  0  0  0  0
 19  5  1  0  0  0  0
 20 25  1  0  0  0  0
 21 11  1  0  0  0  0
 21  4  1  0  0  0  0
 22  8  1  0  0  0  0
 22  5  2  0  0  0  0
 24  2  1  6  0  0  0
 24 19  1  0  0  0  0
 25  1  1  0  0  0  0
 27 26  1  1  0  0  0
 27 16  1  0  0  0  0
 28 29  1  0  0  0  0
 28 27  1  0  0  0  0
 29 31  1  0  0  0  0
 30 31  1  0  0  0  0
 31 33  1  0  0  0  0
 31 32  1  0  0  0  0
 35 37  1  0  0  0  0
 35 34  1  0  0  0  0
 36 35  2  0  0  0  0
M  END
>  <MODEL>
5

>  <REMARK>
 VINA RESULT:      -6.8      3.923      8.720
  Name = 
  6 active torsions:
  status: ('A' for Active; 'I' for Inactive)
    1  A    between atoms: C_4  and  O_22
    2  A    between atoms: C_10  and  O_22
    3  A    between atoms: O_16  and  C_21
    4  A    between atoms: O_16  and  C_30
    5  A    between atoms: C_20  and  C_24
    6  A    between atoms: C_24  and  C_30
                            x       y       z     vdW  Elec       q    Type
                         _______ _______ _______ _____ _____    ______ ____

>  <TORSDO>
F 6

$$$$
=
 OpenBabel11052420123D

 37 37  0  0  1  0  0  0  0  0999 V2000
  190.6330  174.2040  141.7900 C   0  0  0  0  0  2  0  0  0  0  0  0
  194.9480  170.9040  145.2300 O   0  0  0  0  0  1  0  0  0  0  0  0
  190.2130  173.1000  140.8320 C   0  0  2  0  0  3  0  0  0  0  0  0
  194.7980  173.9970  144.8740 C   0  0  0  0  0  2  0  0  0  0  0  0
  195.1250  169.8980  142.6960 C   0  0  0  0  0  3  0  0  0  0  0  0
  195.9730  173.8530  145.8220 C   0  0  0  0  0  2  0  0  0  0  0  0
  191.3250  175.5280  145.3300 C   0  0  2  0  0  3  0  0  0  0  0  0
  192.9830  170.5220  141.6510 C   0  0  2  0  0  3  0  0  0  0  0  0
  190.3210  170.7540  140.3710 O   0  0  0  0  0  1  0  0  0  0  0  0
  189.5730  173.7540  145.5970 C   0  0  0  0  0  1  0  0  0  0  0  0
  192.4290  174.6640  144.7250 C   0  0  0  0  0  2  0  0  0  0  0  0
  197.6830  173.3480  144.2840 O   0  0  0  0  0  0  0  0  0  0  0  0
  190.8400  171.7530  141.1980 C   0  0  1  0  0  3  0  0  0  0  0  0
  197.1940  171.5680  145.7560 C   0  0  0  0  0  2  0  0  0  0  0  0
  197.0010  172.9550  145.2180 C   0  0  0  0  0  0  0  0  0  0  0  0
  189.8830  175.1130  144.9440 C   0  0  2  0  0  0  0  0  0  0  0  0
  190.5470  173.4610  139.5250 O   0  0  0  0  0  1  0  0  0  0  0  0
  192.3630  171.7900  141.0900 C   0  0  0  0  0  2  0  0  0  0  0  0
  196.7540  170.3490  143.2980 S   0  0  0  0  0  0  0  0  0  0  0  0
  189.7210  175.0860  143.5330 O   0  0  0  0  0  0  0  0  0  0  0  0
  193.6990  174.7950  145.5390 C   0  0  0  0  0  2  0  0  0  0  0  0
  194.3580  170.8330  142.1370 C   0  0  0  0  0  3  0  0  0  0  0  0
  193.0400  169.5490  140.6510 O   0  0  0  0  0  1  0  0  0  0  0  0
  196.2890  170.5490  145.0630 C   0  0  2  0  0  3  0  0  0  0  0  0
  190.1680  173.9270  143.0770 O   0  0  0  0  0  0  0  0  0  0  0  0
  188.2050  175.6800  146.6250 O   0  0  0  0  0  1  0  0  0  0  0  0
  188.9030  176.1620  145.5130 C   0  0  2  0  0  3  0  0  0  0  0  0
  187.9340  176.7390  144.4790 C   0  0  0  0  0  2  0  0  0  0  0  0
  187.4390  177.9890  144.8940 O   0  0  0  0  0  0  0  0  0  0  0  0
  185.5770  177.1900  143.5700 C   0  0  0  0  0  1  0  0  0  0  0  0
  186.0320  177.9820  144.7890 C   0  0  0  0  0  0  0  0  0  0  0  0
  185.5610  179.4120  144.6170 C   0  0  0  0  0  1  0  0  0  0  0  0
  185.4350  177.4710  145.9330 F   0  0  0  0  0  0  0  0  0  0  0  0
  191.5790  176.9290  145.1700 O   0  0  0  0  0  0  0  0  0  0  0  0
  191.5650  177.6070  143.9460 C   0  0  0  0  0  0  0  0  0  0  0  0
  192.3120  177.1590  142.8640 O   0  0  0  0  0  0  0  0  0  0  0  0
  190.8740  178.6510  143.8280 O   0  0  0  0  0  1  0  0  0  0  0  0
  1 25  1  0  0  0  0
  3 17  1  6  0  0  0
  3 13  1  0  0  0  0
  3  1  1  0  0  0  0
  4 21  1  0  0  0  0
  4  6  1  0  0  0  0
  5 19  1  0  0  0  0
  7 34  1  6  0  0  0
  8 23  1  6  0  0  0
  8 22  1  0  0  0  0
 11  7  1  0  0  0  0
 11 21  1  0  0  0  0
 12 15  2  0  0  0  0
 13  9  1  6  0  0  0
 15 14  1  0  0  0  0
 15  6  1  0  0  0  0
 16  7  1  0  0  0  0
 16 27  1  0  0  0  0
 16 10  1  1  0  0  0
 18 13  1  0  0  0  0
 18  8  1  0  0  0  0
 19 24  1  0  0  0  0
 20 16  1  0  0  0  0
 22  5  2  0  0  0  0
 24  2  1  6  0  0  0
 24 14  1  0  0  0  0
 25 20  1  0  0  0  0
 27 26  1  1  0  0  0
 28 29  1  0  0  0  0
 28 27  1  0  0  0  0
 30 31  1  0  0  0  0
 31 29  1  0  0  0  0
 31 33  1  0  0  0  0
 32 31  1  0  0  0  0
 35 34  1  0  0  0  0
 36 35  2  0  0  0  0
 37 35  1  0  0  0  0
M  END
>  <MODEL>
6

>  <REMARK>
 VINA RESULT:      -6.6      1.262      1.469
  Name = 
  6 active torsions:
  status: ('A' for Active; 'I' for Inactive)
    1  A    between atoms: C_4  and  O_22
    2  A    between atoms: C_10  and  O_22
    3  A    between atoms: O_16  and  C_21
    4  A    between atoms: O_16  and  C_30
    5  A    between atoms: C_20  and  C_24
    6  A    between atoms: C_24  and  C_30
                            x       y       z     vdW  Elec       q    Type
                         _______ _______ _______ _____ _____    ______ ____

>  <TORSDO>
F 6

$$$$
=
 OpenBabel11052420123D

 37 37  0  0  1  0  0  0  0  0999 V2000
  193.4770  175.6950  144.9620 C   0  0  0  0  0  2  0  0  0  0  0  0
  192.6930  174.5400  138.6860 O   0  0  0  0  0  1  0  0  0  0  0  0
  194.9150  176.1890  144.9250 C   0  0  2  0  0  3  0  0  0  0  0  0
  191.0940  173.2730  141.0440 C   0  0  0  0  0  2  0  0  0  0  0  0
  195.3120  173.9630  139.2030 C   0  0  0  0  0  3  0  0  0  0  0  0
  190.4130  172.6510  139.8400 C   0  0  0  0  0  2  0  0  0  0  0  0
  189.8520  175.7390  143.6880 C   0  0  2  0  0  3  0  0  0  0  0  0
  195.7930  175.1750  141.2940 C   0  0  2  0  0  3  0  0  0  0  0  0
  196.7060  176.9120  143.5130 O   0  0  0  0  0  1  0  0  0  0  0  0
  190.7460  178.0460  143.2760 C   0  0  0  0  0  1  0  0  0  0  0  0
  190.8420  174.9580  142.8260 C   0  0  0  0  0  2  0  0  0  0  0  0
  191.9150  170.8980  139.3770 O   0  0  0  0  0  0  0  0  0  0  0  0
  195.4350  176.3340  143.4930 C   0  0  1  0  0  3  0  0  0  0  0  0
  191.8380  172.5360  137.6790 C   0  0  0  0  0  2  0  0  0  0  0  0
  191.4230  171.9480  138.9950 C   0  0  0  0  0  0  0  0  0  0  0  0
  190.4320  177.0050  144.3660 C   0  0  2  0  0  0  0  0  0  0  0  0
  195.7270  175.3230  145.6600 O   0  0  0  0  0  1  0  0  0  0  0  0
  195.4760  174.9920  142.7680 C   0  0  0  0  0  2  0  0  0  0  0  0
  194.5360  172.5950  138.3390 S   0  0  0  0  0  0  0  0  0  0  0  0
  191.5700  176.6850  145.1540 O   0  0  0  0  0  0  0  0  0  0  0  0
  190.0970  174.0970  141.8270 C   0  0  0  0  0  2  0  0  0  0  0  0
  195.1970  174.0420  140.5280 C   0  0  0  0  0  3  0  0  0  0  0  0
  197.1780  175.1960  141.1140 O   0  0  0  0  0  1  0  0  0  0  0  0
  193.0210  173.4930  137.8210 C   0  0  2  0  0  3  0  0  0  0  0  0
  192.6310  176.6320  144.3640 O   0  0  0  0  0  0  0  0  0  0  0  0
  189.5900  177.2550  146.6440 O   0  0  0  0  0  1  0  0  0  0  0  0
  189.3570  177.5920  145.3070 C   0  0  2  0  0  3  0  0  0  0  0  0
  187.9210  177.2500  144.9070 C   0  0  0  0  0  2  0  0  0  0  0  0
  187.0430  178.2990  145.2350 O   0  0  0  0  0  0  0  0  0  0  0  0
  184.6620  178.3100  145.6720 C   0  0  0  0  0  1  0  0  0  0  0  0
  186.0360  177.8030  146.0910 C   0  0  0  0  0  0  0  0  0  0  0  0
  186.3110  178.3090  147.4920 C   0  0  0  0  0  1  0  0  0  0  0  0
  186.0350  176.4160  146.1300 F   0  0  0  0  0  0  0  0  0  0  0  0
  189.1230  174.8920  144.5840 O   0  0  0  0  0  0  0  0  0  0  0  0
  189.6910  173.8790  145.3630 C   0  0  0  0  0  0  0  0  0  0  0  0
  189.6920  172.5570  144.9380 O   0  0  0  0  0  0  0  0  0  0  0  0
  190.1980  174.1690  146.4780 O   0  0  0  0  0  1  0  0  0  0  0  0
  3  1  1  0  0  0  0
  3 17  1  1  0  0  0
  4 21  1  0  0  0  0
  5 22  2  0  0  0  0
  6  4  1  0  0  0  0
  7 16  1  0  0  0  0
  7 34  1  1  0  0  0
  8 23  1  1  0  0  0
  8 18  1  0  0  0  0
 11  7  1  0  0  0  0
 13  9  1  1  0  0  0
 13  3  1  0  0  0  0
 14 24  1  0  0  0  0
 14 15  1  0  0  0  0
 15 12  2  0  0  0  0
 15  6  1  0  0  0  0
 16 10  1  6  0  0  0
 16 20  1  0  0  0  0
 16 27  1  0  0  0  0
 18 13  1  0  0  0  0
 19  5  1  0  0  0  0
 21 11  1  0  0  0  0
 22  8  1  0  0  0  0
 24 19  1  0  0  0  0
 24  2  1  1  0  0  0
 25  1  1  0  0  0  0
 25 20  1  0  0  0  0
 27 26  1  1  0  0  0
 28 29  1  0  0  0  0
 28 27  1  0  0  0  0
 29 31  1  0  0  0  0
 30 31  1  0  0  0  0
 31 33  1  0  0  0  0
 31 32  1  0  0  0  0
 34 35  1  0  0  0  0
 35 37  1  0  0  0  0
 36 35  2  0  0  0  0
M  END
>  <MODEL>
7

>  <REMARK>
 VINA RESULT:      -6.4      2.550      5.523
  Name = 
  6 active torsions:
  status: ('A' for Active; 'I' for Inactive)
    1  A    between atoms: C_4  and  O_22
    2  A    between atoms: C_10  and  O_22
    3  A    between atoms: O_16  and  C_21
    4  A    between atoms: O_16  and  C_30
    5  A    between atoms: C_20  and  C_24
    6  A    between atoms: C_24  and  C_30
                            x       y       z     vdW  Elec       q    Type
                         _______ _______ _______ _____ _____    ______ ____

>  <TORSDO>
F 6

$$$$
=
 OpenBabel11052420123D

 37 37  0  0  1  0  0  0  0  0999 V2000
  193.0750  173.0650  141.5510 C   0  0  0  0  0  2  0  0  0  0  0  0
  188.7970  177.6780  142.8770 O   0  0  0  0  0  1  0  0  0  0  0  0
  192.4680  172.5590  140.2520 C   0  0  2  0  0  3  0  0  0  0  0  0
  190.6620  176.2080  144.8970 C   0  0  0  0  0  2  0  0  0  0  0  0
  187.3670  175.7010  141.6510 C   0  0  0  0  0  3  0  0  0  0  0  0
  189.9510  177.1990  145.7990 C   0  0  0  0  0  2  0  0  0  0  0  0
  194.3180  175.9040  143.8230 C   0  0  2  0  0  3  0  0  0  0  0  0
  189.0660  174.3970  140.4330 C   0  0  2  0  0  3  0  0  0  0  0  0
  190.8580  172.9950  138.5360 O   0  0  0  0  0  1  0  0  0  0  0  0
  194.6500  176.7170  141.4740 C   0  0  0  0  0  1  0  0  0  0  0  0
  192.8040  175.7110  143.7820 C   0  0  0  0  0  2  0  0  0  0  0  0
  187.9390  176.0370  146.1810 O   0  0  0  0  0  0  0  0  0  0  0  0
  191.2910  173.4220  139.7930 C   0  0  1  0  0  3  0  0  0  0  0  0
  187.6470  178.0330  144.9540 C   0  0  0  0  0  2  0  0  0  0  0  0
  188.4740  177.0150  145.6850 C   0  0  0  0  0  0  0  0  0  0  0  0
  195.0490  175.6280  142.4850 C   0  0  2  0  0  0  0  0  0  0  0  0
  192.0740  171.2270  140.4050 O   0  0  0  0  0  1  0  0  0  0  0  0
  190.1370  173.3810  140.7910 C   0  0  0  0  0  2  0  0  0  0  0  0
  186.5750  176.1730  143.1900 S   0  0  0  0  0  0  0  0  0  0  0  0
  194.7680  174.3180  142.0120 O   0  0  0  0  0  0  0  0  0  0  0  0
  192.1490  176.4810  144.9100 C   0  0  0  0  0  2  0  0  0  0  0  0
  188.3500  174.8020  141.6770 C   0  0  0  0  0  3  0  0  0  0  0  0
  188.1670  173.8270  139.5290 O   0  0  0  0  0  1  0  0  0  0  0  0
  187.5290  177.7180  143.4640 C   0  0  2  0  0  3  0  0  0  0  0  0
  193.6130  174.3400  141.3660 O   0  0  0  0  0  0  0  0  0  0  0  0
  197.0010  177.0500  142.8400 O   0  0  0  0  0  1  0  0  0  0  0  0
  196.5710  175.7240  142.7310 C   0  0  2  0  0  3  0  0  0  0  0  0
  197.4200  174.9650  141.7090 C   0  0  0  0  0  2  0  0  0  0  0  0
  197.4930  175.6680  140.4930 O   0  0  0  0  0  0  0  0  0  0  0  0
  197.7930  173.3880  139.7370 C   0  0  0  0  0  1  0  0  0  0  0  0
  197.2390  174.7730  139.4310 C   0  0  0  0  0  0  0  0  0  0  0  0
  197.9410  175.2920  138.1940 C   0  0  0  0  0  1  0  0  0  0  0  0
  195.8830  174.6870  139.1470 F   0  0  0  0  0  0  0  0  0  0  0  0
  194.9200  175.2540  144.9490 O   0  0  0  0  0  0  0  0  0  0  0  0
  194.7930  173.8930  145.2460 C   0  0  0  0  0  0  0  0  0  0  0  0
  193.6460  173.3900  145.8490 O   0  0  0  0  0  1  0  0  0  0  0  0
  195.7410  173.1120  144.9770 O   0  0  0  0  0  0  0  0  0  0  0  0
  3 17  1  1  0  0  0
  3  1  1  0  0  0  0
  4 21  1  0  0  0  0
  4  6  1  0  0  0  0
  5 22  2  0  0  0  0
  5 19  1  0  0  0  0
  7 34  1  1  0  0  0
  8 23  1  6  0  0  0
  8 18  1  0  0  0  0
  8 22  1  0  0  0  0
 11  7  1  0  0  0  0
 11 21  1  0  0  0  0
 13  9  1  6  0  0  0
 13  3  1  0  0  0  0
 13 18  1  0  0  0  0
 14 15  1  0  0  0  0
 15  6  1  0  0  0  0
 15 12  2  0  0  0  0
 16 10  1  6  0  0  0
 16 27  1  0  0  0  0
 16  7  1  0  0  0  0
 19 24  1  0  0  0  0
 20 16  1  0  0  0  0
 24  2  1  1  0  0  0
 24 14  1  0  0  0  0
 25  1  1  0  0  0  0
 25 20  1  0  0  0  0
 27 26  1  6  0  0  0
 28 27  1  0  0  0  0
 29 28  1  0  0  0  0
 31 30  1  0  0  0  0
 31 29  1  0  0  0  0
 32 31  1  0  0  0  0
 33 31  1  0  0  0  0
 34 35  1  0  0  0  0
 35 36  1  0  0  0  0
 37 35  2  0  0  0  0
M  END
>  <MODEL>
8

>  <REMARK>
 VINA RESULT:      -6.4      3.869      8.210
  Name = 
  6 active torsions:
  status: ('A' for Active; 'I' for Inactive)
    1  A    between atoms: C_4  and  O_22
    2  A    between atoms: C_10  and  O_22
    3  A    between atoms: O_16  and  C_21
    4  A    between atoms: O_16  and  C_30
    5  A    between atoms: C_20  and  C_24
    6  A    between atoms: C_24  and  C_30
                            x       y       z     vdW  Elec       q    Type
                         _______ _______ _______ _____ _____    ______ ____

>  <TORSDO>
F 6

$$$$
=
 OpenBabel11052420123D

 37 37  0  0  1  0  0  0  0  0999 V2000
  189.2380  175.1040  142.0360 C   0  0  0  0  0  2  0  0  0  0  0  0
  194.0270  170.8150  141.9400 O   0  0  0  0  0  1  0  0  0  0  0  0
  188.3240  174.4460  141.0140 C   0  0  2  0  0  3  0  0  0  0  0  0
  194.1980  173.8030  142.8120 C   0  0  0  0  0  2  0  0  0  0  0  0
  193.0560  170.8670  139.3880 C   0  0  0  0  0  3  0  0  0  0  0  0
  195.6160  173.3270  143.0650 C   0  0  0  0  0  2  0  0  0  0  0  0
  191.4380  174.9740  145.1830 C   0  0  2  0  0  3  0  0  0  0  0  0
  190.7900  171.8050  139.6260 C   0  0  2  0  0  3  0  0  0  0  0  0
  187.9030  172.4620  139.7450 O   0  0  0  0  0  1  0  0  0  0  0  0
  189.6930  173.2010  145.4990 C   0  0  0  0  0  1  0  0  0  0  0  0
  192.0820  174.4310  143.9100 C   0  0  0  0  0  2  0  0  0  0  0  0
  196.4990  173.4860  140.8880 O   0  0  0  0  0  0  0  0  0  0  0  0
  188.8420  173.0750  140.5780 C   0  0  1  0  0  3  0  0  0  0  0  0
  196.3710  171.2670  141.6850 C   0  0  0  0  0  2  0  0  0  0  0  0
  196.1860  172.7510  141.8110 C   0  0  0  0  0  0  0  0  0  0  0  0
  189.9170  174.7120  145.3110 C   0  0  2  0  0  0  0  0  0  0  0  0
  188.1690  175.2900  139.9110 O   0  0  0  0  0  1  0  0  0  0  0  0
  190.1900  173.1790  139.8680 C   0  0  0  0  0  2  0  0  0  0  0  0
  194.8370  171.0820  139.3750 S   0  0  0  0  0  0  0  0  0  0  0  0
  189.2150  175.2290  144.1890 O   0  0  0  0  0  0  0  0  0  0  0  0
  193.5740  174.2620  144.1100 C   0  0  0  0  0  2  0  0  0  0  0  0
  192.2750  171.9310  139.5730 C   0  0  0  0  0  3  0  0  0  0  0  0
  190.3110  171.2940  138.4180 O   0  0  0  0  0  1  0  0  0  0  0  0
  195.1310  170.5770  141.1170 C   0  0  2  0  0  3  0  0  0  0  0  0
  189.2770  174.3440  143.2070 O   0  0  0  0  0  0  0  0  0  0  0  0
  188.9390  174.5500  147.5420 O   0  0  0  0  0  1  0  0  0  0  0  0
  189.3980  175.4430  146.5690 C   0  0  2  0  0  3  0  0  0  0  0  0
  188.3450  176.5140  146.2810 C   0  0  0  0  0  2  0  0  0  0  0  0
  187.2350  176.3720  147.1340 O   0  0  0  0  0  0  0  0  0  0  0  0
  186.5390  177.7990  145.3070 C   0  0  0  0  0  1  0  0  0  0  0  0
  186.1730  177.1600  146.6400 C   0  0  0  0  0  0  0  0  0  0  0  0
  185.9070  178.2730  147.6320 C   0  0  0  0  0  1  0  0  0  0  0  0
  185.0070  176.4200  146.5050 F   0  0  0  0  0  0  0  0  0  0  0  0
  191.8090  176.3330  145.4450 O   0  0  0  0  0  0  0  0  0  0  0  0
  192.7420  176.7340  146.4070 C   0  0  0  0  0  0  0  0  0  0  0  0
  194.0280  177.1180  146.0490 O   0  0  0  0  0  0  0  0  0  0  0  0
  192.4150  176.7310  147.6220 O   0  0  0  0  0  1  0  0  0  0  0  0
  1 25  1  0  0  0  0
  3 17  1  6  0  0  0
  3  1  1  0  0  0  0
  4  6  1  0  0  0  0
  4 21  1  0  0  0  0
  5 22  2  0  0  0  0
  7 16  1  0  0  0  0
  7 34  1  6  0  0  0
  8 23  1  6  0  0  0
  8 18  1  0  0  0  0
 11 21  1  0  0  0  0
 11  7  1  0  0  0  0
 12 15  2  0  0  0  0
 13  9  1  6  0  0  0
 13  3  1  0  0  0  0
 14 15  1  0  0  0  0
 15  6  1  0  0  0  0
 16 10  1  1  0  0  0
 16 27  1  0  0  0  0
 18 13  1  0  0  0  0
 19  5  1  0  0  0  0
 19 24  1  0  0  0  0
 20 16  1  0  0  0  0
 22  8  1  0  0  0  0
 24 14  1  0  0  0  0
 24  2  1  1  0  0  0
 25 20  1  0  0  0  0
 27 26  1  1  0  0  0
 28 27  1  0  0  0  0
 28 29  1  0  0  0  0
 30 31  1  0  0  0  0
 31 29  1  0  0  0  0
 31 32  1  0  0  0  0
 33 31  1  0  0  0  0
 34 35  1  0  0  0  0
 35 37  1  0  0  0  0
 36 35  2  0  0  0  0
M  END
>  <MODEL>
9

>  <REMARK>
 VINA RESULT:      -6.3      2.367      3.159
  Name = 
  6 active torsions:
  status: ('A' for Active; 'I' for Inactive)
    1  A    between atoms: C_4  and  O_22
    2  A    between atoms: C_10  and  O_22
    3  A    between atoms: O_16  and  C_21
    4  A    between atoms: O_16  and  C_30
    5  A    between atoms: C_20  and  C_24
    6  A    between atoms: C_24  and  C_30
                            x       y       z     vdW  Elec       q    Type
                         _______ _______ _______ _____ _____    ______ ____

>  <TORSDO>
F 6

$$$$
