=
 OpenBabel11052418283D

 27 31  0  0  1  0  0  0  0  0999 V2000
  188.2410  175.6850  143.1050 O   0  0  0  0  0  0  0  0  0  0  0  0
  189.4960  176.6880  144.9680 C   0  0  1  0  0  3  0  0  0  0  0  0
  189.6790  174.1750  145.2820 C   0  0  0  0  0  2  0  0  0  0  0  0
  193.6980  176.8940  144.8200 N   0  0  0  0  0  0  0  0  0  0  0  0
  195.8320  176.1260  145.4390 F   0  0  0  0  0  0  0  0  0  0  0  0
  190.2450  177.7010  144.1330 C   0  0  0  0  0  3  0  0  0  0  0  0
  192.5360  174.6350  145.9130 C   0  0  0  0  0  3  0  0  0  0  0  0
  189.8180  171.8930  142.2930 C   0  0  0  0  0  0  0  0  0  0  0  0
  193.9210  174.8040  145.9590 C   0  0  0  0  0  3  0  0  0  0  0  0
  190.4570  170.3120  141.8950 Cl  0  0  0  0  0  0  0  0  0  0  0  0
  191.7370  175.6200  145.3220 C   0  0  0  0  0  0  0  0  0  0  0  0
  188.1250  176.3230  144.3770 C   0  0  1  0  0  3  0  0  0  0  0  0
  194.4890  175.9530  145.4040 C   0  0  0  0  0  0  0  0  0  0  0  0
  192.3460  176.7560  144.7740 C   0  0  0  0  0  0  0  0  0  0  0  0
  188.7890  174.4090  142.8950 C   0  0  0  0  0  0  0  0  0  0  0  0
  190.3090  175.4900  145.2300 N   0  0  0  0  0  0  0  0  0  0  0  0
  189.9740  172.4020  143.5820 C   0  0  0  0  0  3  0  0  0  0  0  0
  191.5440  177.7320  144.0990 N   0  0  0  0  0  0  0  0  0  0  0  0
  189.1780  172.6240  141.3440 N   0  0  0  0  0  0  0  0  0  0  0  0
  188.6690  173.8550  141.6170 C   0  0  0  0  0  3  0  0  0  0  0  0
  189.4640  173.6630  143.8930 C   0  0  0  0  0  0  0  0  0  0  0  0
  185.4200  179.6580  144.1520 C   0  0  0  0  0  3  0  0  0  0  0  0
  187.1950  177.4970  144.3150 C   0  0  0  0  0  0  0  0  0  0  0  0
  186.8080  177.9970  143.0670 C   0  0  0  0  0  3  0  0  0  0  0  0
  185.9240  179.0770  142.9840 C   0  0  0  0  0  3  0  0  0  0  0  0
  185.7960  179.1580  145.4010 C   0  0  0  0  0  3  0  0  0  0  0  0
  186.6800  178.0780  145.4840 C   0  0  0  0  0  3  0  0  0  0  0  0
  1 12  1  0  0  0  0
  2  6  1  6  0  0  0
  2 16  1  0  0  0  0
  4 13  1  0  0  0  0
  7  9  1  0  0  0  0
  8 17  1  0  0  0  0
 10  8  1  0  0  0  0
 11  7  2  0  0  0  0
 12 23  1  6  0  0  0
 12  2  1  0  0  0  0
 13  5  1  0  0  0  0
 13  9  2  0  0  0  0
 14  4  2  0  0  0  0
 14 11  1  0  0  0  0
 15  1  1  0  0  0  0
 15 21  1  0  0  0  0
 16  3  1  0  0  0  0
 16 11  1  0  0  0  0
 17 21  2  0  0  0  0
 18  6  2  0  0  0  0
 18 14  1  0  0  0  0
 19 20  1  0  0  0  0
 19  8  2  0  0  0  0
 20 15  2  0  0  0  0
 21  3  1  0  0  0  0
 22 26  1  0  0  0  0
 23 27  1  0  0  0  0
 24 23  2  0  0  0  0
 25 24  1  0  0  0  0
 25 22  2  0  0  0  0
 26 27  2  0  0  0  0
M  END
>  <MODEL>
1

>  <REMARK>
 VINA RESULT:      -8.4      0.000      0.000
  Name = 
  1 active torsions:
  status: ('A' for Active; 'I' for Inactive)
    1  A    between atoms: C_9  and  C_15
                            x       y       z     vdW  Elec       q    Type
                         _______ _______ _______ _____ _____    ______ ____

>  <TORSDO>
F 1

$$$$
=
 OpenBabel11052418283D

 27 31  0  0  1  0  0  0  0  0999 V2000
  188.0910  176.0300  143.4010 O   0  0  0  0  0  0  0  0  0  0  0  0
  189.6110  176.2290  145.3240 C   0  0  1  0  0  3  0  0  0  0  0  0
  189.8000  173.8220  144.5370 C   0  0  0  0  0  2  0  0  0  0  0  0
  193.7530  176.6690  144.7090 N   0  0  0  0  0  0  0  0  0  0  0  0
  195.9420  175.8120  144.6590 F   0  0  0  0  0  0  0  0  0  0  0  0
  190.2500  177.5300  144.8920 C   0  0  0  0  0  3  0  0  0  0  0  0
  192.7240  174.1100  144.9110 C   0  0  0  0  0  3  0  0  0  0  0  0
  189.4810  172.9880  140.8820 C   0  0  0  0  0  0  0  0  0  0  0  0
  194.1040  174.3070  144.8360 C   0  0  0  0  0  3  0  0  0  0  0  0
  190.0330  171.7440  139.7810 Cl  0  0  0  0  0  0  0  0  0  0  0  0
  191.8640  175.2140  144.8960 C   0  0  0  0  0  0  0  0  0  0  0  0
  188.1650  176.0800  144.8260 C   0  0  1  0  0  3  0  0  0  0  0  0
  194.6050  175.6080  144.7370 C   0  0  0  0  0  0  0  0  0  0  0  0
  192.4060  176.5010  144.7920 C   0  0  0  0  0  0  0  0  0  0  0  0
  188.5850  174.9820  142.6070 C   0  0  0  0  0  0  0  0  0  0  0  0
  190.4360  175.0690  144.9520 N   0  0  0  0  0  0  0  0  0  0  0  0
  189.8250  172.9260  142.2310 C   0  0  0  0  0  3  0  0  0  0  0  0
  191.5310  177.6310  144.6990 N   0  0  0  0  0  0  0  0  0  0  0  0
  188.7230  174.0160  140.4180 N   0  0  0  0  0  0  0  0  0  0  0  0
  188.2770  175.0000  141.2440 C   0  0  0  0  0  3  0  0  0  0  0  0
  189.3830  173.9210  143.1040 C   0  0  0  0  0  0  0  0  0  0  0  0
  185.5950  179.1070  146.4730 C   0  0  0  0  0  3  0  0  0  0  0  0
  187.2540  177.1300  145.3830 C   0  0  0  0  0  0  0  0  0  0  0  0
  187.0160  177.1680  146.7620 C   0  0  0  0  0  3  0  0  0  0  0  0
  186.1870  178.1520  147.3070 C   0  0  0  0  0  3  0  0  0  0  0  0
  185.8340  179.0790  145.0970 C   0  0  0  0  0  3  0  0  0  0  0  0
  186.6630  178.0940  144.5520 C   0  0  0  0  0  3  0  0  0  0  0  0
  1 12  1  0  0  0  0
  2  6  1  6  0  0  0
  3 16  1  0  0  0  0
  4 13  1  0  0  0  0
  4 14  2  0  0  0  0
  5 13  1  0  0  0  0
  8 17  1  0  0  0  0
  9  7  1  0  0  0  0
 10  8  1  0  0  0  0
 11  7  2  0  0  0  0
 11 16  1  0  0  0  0
 12  2  1  0  0  0  0
 12 23  1  6  0  0  0
 13  9  2  0  0  0  0
 14 11  1  0  0  0  0
 15 21  1  0  0  0  0
 15  1  1  0  0  0  0
 16  2  1  0  0  0  0
 17 21  2  0  0  0  0
 18 14  1  0  0  0  0
 18  6  2  0  0  0  0
 19  8  2  0  0  0  0
 19 20  1  0  0  0  0
 20 15  2  0  0  0  0
 21  3  1  0  0  0  0
 22 25  1  0  0  0  0
 23 24  1  0  0  0  0
 24 25  2  0  0  0  0
 26 22  2  0  0  0  0
 27 26  1  0  0  0  0
 27 23  2  0  0  0  0
M  END
>  <MODEL>
2

>  <REMARK>
 VINA RESULT:      -8.1      1.092      1.579
  Name = 
  1 active torsions:
  status: ('A' for Active; 'I' for Inactive)
    1  A    between atoms: C_9  and  C_15
                            x       y       z     vdW  Elec       q    Type
                         _______ _______ _______ _____ _____    ______ ____

>  <TORSDO>
F 1

$$$$
=
 OpenBabel11052418283D

 27 31  0  0  1  0  0  0  0  0999 V2000
  190.1480  175.4750  143.3220 O   0  0  0  0  0  0  0  0  0  0  0  0
  189.6760  176.8710  145.2910 C   0  0  1  0  0  3  0  0  0  0  0  0
  188.8630  178.2020  143.2870 C   0  0  0  0  0  2  0  0  0  0  0  0
  185.7810  177.0380  146.8800 N   0  0  0  0  0  0  0  0  0  0  0  0
  183.7100  178.1100  147.1770 F   0  0  0  0  0  0  0  0  0  0  0  0
  189.0790  175.7660  146.1330 C   0  0  0  0  0  3  0  0  0  0  0  0
  186.4680  178.8490  144.9060 C   0  0  0  0  0  3  0  0  0  0  0  0
  187.4220  176.4360  140.2930 C   0  0  0  0  0  0  0  0  0  0  0  0
  185.2350  178.9490  145.5510 C   0  0  0  0  0  3  0  0  0  0  0  0
  186.2900  176.7810  139.0020 Cl  0  0  0  0  0  0  0  0  0  0  0  0
  187.3620  177.8350  145.2710 C   0  0  0  0  0  0  0  0  0  0  0  0
  190.7210  176.3580  144.2870 C   0  0  1  0  0  3  0  0  0  0  0  0
  184.9070  178.0260  146.5470 C   0  0  0  0  0  0  0  0  0  0  0  0
  186.9940  176.9280  146.2730 C   0  0  0  0  0  0  0  0  0  0  0  0
  189.2290  175.8570  142.3310 C   0  0  0  0  0  0  0  0  0  0  0  0
  188.6360  177.6730  144.6290 N   0  0  0  0  0  0  0  0  0  0  0  0
  187.7070  177.4120  141.2470 C   0  0  0  0  0  3  0  0  0  0  0  0
  187.8680  175.8420  146.6000 N   0  0  0  0  0  0  0  0  0  0  0  0
  188.0160  175.2160  140.3660 N   0  0  0  0  0  0  0  0  0  0  0  0
  188.9000  174.9130  141.3530 C   0  0  0  0  0  3  0  0  0  0  0  0
  188.6100  177.1300  142.2740 C   0  0  0  0  0  0  0  0  0  0  0  0
  194.1420  174.5440  146.1550 C   0  0  0  0  0  3  0  0  0  0  0  0
  191.9070  175.7350  144.9590 C   0  0  0  0  0  0  0  0  0  0  0  0
  192.1940  174.3860  144.7260 C   0  0  0  0  0  3  0  0  0  0  0  0
  193.3080  173.7890  145.3240 C   0  0  0  0  0  3  0  0  0  0  0  0
  193.8650  175.8930  146.3860 C   0  0  0  0  0  3  0  0  0  0  0  0
  192.7510  176.4900  145.7870 C   0  0  0  0  0  3  0  0  0  0  0  0
  1 12  1  0  0  0  0
  2  6  1  6  0  0  0
  3 16  1  0  0  0  0
  6 18  2  0  0  0  0
  7 11  2  0  0  0  0
  7  9  1  0  0  0  0
  8 19  2  0  0  0  0
  8 17  1  0  0  0  0
  9 13  2  0  0  0  0
 10  8  1  0  0  0  0
 11 14  1  0  0  0  0
 12 23  1  1  0  0  0
 12  2  1  0  0  0  0
 13  4  1  0  0  0  0
 13  5  1  0  0  0  0
 14 18  1  0  0  0  0
 14  4  2  0  0  0  0
 15  1  1  0  0  0  0
 16 11  1  0  0  0  0
 16  2  1  0  0  0  0
 17 21  2  0  0  0  0
 19 20  1  0  0  0  0
 20 15  2  0  0  0  0
 21 15  1  0  0  0  0
 21  3  1  0  0  0  0
 22 26  1  0  0  0  0
 23 27  1  0  0  0  0
 24 23  2  0  0  0  0
 24 25  1  0  0  0  0
 25 22  2  0  0  0  0
 27 26  2  0  0  0  0
M  END
>  <MODEL>
3

>  <REMARK>
 VINA RESULT:      -8.1      3.527      6.487
  Name = 
  1 active torsions:
  status: ('A' for Active; 'I' for Inactive)
    1  A    between atoms: C_9  and  C_15
                            x       y       z     vdW  Elec       q    Type
                         _______ _______ _______ _____ _____    ______ ____

>  <TORSDO>
F 1

$$$$
=
 OpenBabel11052418283D

 27 31  0  0  1  0  0  0  0  0999 V2000
  187.4400  176.7820  143.0900 O   0  0  0  0  0  0  0  0  0  0  0  0
  189.1440  176.3140  144.8010 C   0  0  1  0  0  3  0  0  0  0  0  0
  189.0400  174.2400  143.3400 C   0  0  0  0  0  2  0  0  0  0  0  0
  193.2330  176.6690  143.8650 N   0  0  0  0  0  0  0  0  0  0  0  0
  195.3210  175.7380  143.3180 F   0  0  0  0  0  0  0  0  0  0  0  0
  189.8540  177.6440  144.6900 C   0  0  0  0  0  3  0  0  0  0  0  0
  192.0000  174.2310  143.4400 C   0  0  0  0  0  3  0  0  0  0  0  0
  188.3080  174.5420  139.6610 C   0  0  0  0  0  0  0  0  0  0  0  0
  193.3790  174.3590  143.2660 C   0  0  0  0  0  3  0  0  0  0  0  0
  188.6410  173.6480  138.1930 Cl  0  0  0  0  0  0  0  0  0  0  0  0
  191.2460  175.3380  143.8420 C   0  0  0  0  0  0  0  0  0  0  0  0
  187.6500  176.4040  144.4510 C   0  0  1  0  0  3  0  0  0  0  0  0
  193.9840  175.5990  143.4880 C   0  0  0  0  0  0  0  0  0  0  0  0
  191.8900  176.5640  144.0510 C   0  0  0  0  0  0  0  0  0  0  0  0
  187.7600  175.9870  141.9780 C   0  0  0  0  0  0  0  0  0  0  0  0
  189.8220  175.2690  144.0180 N   0  0  0  0  0  0  0  0  0  0  0  0
  188.7690  174.0640  140.8870 C   0  0  0  0  0  3  0  0  0  0  0  0
  191.1160  177.7220  144.3880 N   0  0  0  0  0  0  0  0  0  0  0  0
  187.6070  175.7040  139.6030 N   0  0  0  0  0  0  0  0  0  0  0  0
  187.3300  176.4250  140.7220 C   0  0  0  0  0  3  0  0  0  0  0  0
  188.5020  174.7820  142.0530 C   0  0  0  0  0  0  0  0  0  0  0  0
  185.5290  178.9580  147.1820 C   0  0  0  0  0  3  0  0  0  0  0  0
  186.8930  177.2950  145.3870 C   0  0  0  0  0  0  0  0  0  0  0  0
  186.8300  176.9640  146.7460 C   0  0  0  0  0  3  0  0  0  0  0  0
  186.1480  177.7920  147.6420 C   0  0  0  0  0  3  0  0  0  0  0  0
  185.5940  179.2980  145.8290 C   0  0  0  0  0  3  0  0  0  0  0  0
  186.2760  178.4700  144.9330 C   0  0  0  0  0  3  0  0  0  0  0  0
  1 12  1  0  0  0  0
  2  6  1  6  0  0  0
  3 16  1  0  0  0  0
  4 14  2  0  0  0  0
  5 13  1  0  0  0  0
  7 11  2  0  0  0  0
  8 17  1  0  0  0  0
  9  7  1  0  0  0  0
  9 13  2  0  0  0  0
 10  8  1  0  0  0  0
 11 16  1  0  0  0  0
 11 14  1  0  0  0  0
 12  2  1  0  0  0  0
 12 23  1  1  0  0  0
 13  4  1  0  0  0  0
 14 18  1  0  0  0  0
 15 21  1  0  0  0  0
 15  1  1  0  0  0  0
 16  2  1  0  0  0  0
 17 21  2  0  0  0  0
 18  6  2  0  0  0  0
 19  8  2  0  0  0  0
 19 20  1  0  0  0  0
 20 15  2  0  0  0  0
 21  3  1  0  0  0  0
 22 25  1  0  0  0  0
 23 24  1  0  0  0  0
 24 25  2  0  0  0  0
 26 22  2  0  0  0  0
 27 23  2  0  0  0  0
 27 26  1  0  0  0  0
M  END
>  <MODEL>
4

>  <REMARK>
 VINA RESULT:      -7.8      1.984      2.557
  Name = 
  1 active torsions:
  status: ('A' for Active; 'I' for Inactive)
    1  A    between atoms: C_9  and  C_15
                            x       y       z     vdW  Elec       q    Type
                         _______ _______ _______ _____ _____    ______ ____

>  <TORSDO>
F 1

$$$$
=
 OpenBabel11052418283D

 27 31  0  0  1  0  0  0  0  0999 V2000
  189.3980  174.8880  144.3070 O   0  0  0  0  0  0  0  0  0  0  0  0
  188.4630  177.1560  144.4840 C   0  0  1  0  0  3  0  0  0  0  0  0
  188.9230  176.7870  142.0150 C   0  0  0  0  0  2  0  0  0  0  0  0
  184.4190  177.8550  143.5430 N   0  0  0  0  0  0  0  0  0  0  0  0
  182.7320  178.6210  142.0950 F   0  0  0  0  0  0  0  0  0  0  0  0
  187.3230  176.7900  145.4090 C   0  0  0  0  0  3  0  0  0  0  0  0
  186.2870  178.0410  141.5120 C   0  0  0  0  0  3  0  0  0  0  0  0
  188.5450  173.3620  140.5030 C   0  0  0  0  0  0  0  0  0  0  0  0
  184.9560  178.3890  141.2750 C   0  0  0  0  0  3  0  0  0  0  0  0
  188.1910  172.6660  138.9360 Cl  0  0  0  0  0  0  0  0  0  0  0  0
  186.6750  177.6090  142.7860 C   0  0  0  0  0  0  0  0  0  0  0  0
  189.6870  176.2430  144.6550 C   0  0  1  0  0  3  0  0  0  0  0  0
  184.0280  178.2910  142.3150 C   0  0  0  0  0  0  0  0  0  0  0  0
  185.7130  177.5210  143.8000 C   0  0  0  0  0  0  0  0  0  0  0  0
  189.1100  174.4370  143.0090 C   0  0  0  0  0  0  0  0  0  0  0  0
  188.0260  177.2210  143.0810 N   0  0  0  0  0  0  0  0  0  0  0  0
  188.6090  174.7470  140.6510 C   0  0  0  0  0  3  0  0  0  0  0  0
  186.0830  177.0080  145.0840 N   0  0  0  0  0  0  0  0  0  0  0  0
  188.7490  172.5520  141.5750 N   0  0  0  0  0  0  0  0  0  0  0  0
  189.0250  173.0570  142.8060 C   0  0  0  0  0  3  0  0  0  0  0  0
  188.8900  175.2950  141.9030 C   0  0  0  0  0  0  0  0  0  0  0  0
  191.4720  176.4880  148.5590 C   0  0  0  0  0  3  0  0  0  0  0  0
  190.2890  176.3380  146.0240 C   0  0  0  0  0  0  0  0  0  0  0  0
  190.9780  175.2370  146.5450 C   0  0  0  0  0  3  0  0  0  0  0  0
  191.5670  175.3100  147.8120 C   0  0  0  0  0  3  0  0  0  0  0  0
  190.7910  177.5930  148.0410 C   0  0  0  0  0  3  0  0  0  0  0  0
  190.2020  177.5200  146.7750 C   0  0  0  0  0  3  0  0  0  0  0  0
  1 12  1  0  0  0  0
  2 12  1  0  0  0  0
  2  6  1  1  0  0  0
  3 16  1  0  0  0  0
  4 14  2  0  0  0  0
  5 13  1  0  0  0  0
  7 11  2  0  0  0  0
  8 17  2  0  0  0  0
  8 19  1  0  0  0  0
  9  7  1  0  0  0  0
  9 13  2  0  0  0  0
 10  8  1  0  0  0  0
 11 16  1  0  0  0  0
 11 14  1  0  0  0  0
 12 23  1  1  0  0  0
 13  4  1  0  0  0  0
 14 18  1  0  0  0  0
 15  1  1  0  0  0  0
 16  2  1  0  0  0  0
 17 21  1  0  0  0  0
 18  6  2  0  0  0  0
 19 20  2  0  0  0  0
 20 15  1  0  0  0  0
 21  3  1  0  0  0  0
 21 15  2  0  0  0  0
 23 24  2  0  0  0  0
 23 27  1  0  0  0  0
 24 25  1  0  0  0  0
 25 22  2  0  0  0  0
 26 22  1  0  0  0  0
 27 26  2  0  0  0  0
M  END
>  <MODEL>
5

>  <REMARK>
 VINA RESULT:      -7.5      3.626      6.196
  Name = 
  1 active torsions:
  status: ('A' for Active; 'I' for Inactive)
    1  A    between atoms: C_9  and  C_15
                            x       y       z     vdW  Elec       q    Type
                         _______ _______ _______ _____ _____    ______ ____

>  <TORSDO>
F 1

$$$$
=
 OpenBabel11052418283D

 27 31  0  0  1  0  0  0  0  0999 V2000
  189.2460  177.0680  145.0980 O   0  0  0  0  0  0  0  0  0  0  0  0
  188.8400  176.4190  142.7600 C   0  0  1  0  0  3  0  0  0  0  0  0
  191.3240  176.9210  142.9190 C   0  0  0  0  0  2  0  0  0  0  0  0
  189.7920  172.5330  141.4490 N   0  0  0  0  0  0  0  0  0  0  0  0
  191.1840  171.0110  140.3210 F   0  0  0  0  0  0  0  0  0  0  0  0
  187.9890  175.2090  143.0740 C   0  0  0  0  0  3  0  0  0  0  0  0
  191.7460  174.4840  141.2890 C   0  0  0  0  0  3  0  0  0  0  0  0
  193.2150  176.1720  146.0850 C   0  0  0  0  0  0  0  0  0  0  0  0
  191.9730  173.2170  140.7490 C   0  0  0  0  0  3  0  0  0  0  0  0
  194.8580  175.7920  146.5580 Cl  0  0  0  0  0  0  0  0  0  0  0  0
  190.5190  174.7670  141.9010 C   0  0  0  0  0  0  0  0  0  0  0  0
  188.7440  177.5120  143.8370 C   0  0  1  0  0  3  0  0  0  0  0  0
  190.9730  172.2460  140.8370 C   0  0  0  0  0  0  0  0  0  0  0  0
  189.5440  173.7640  141.9720 C   0  0  0  0  0  0  0  0  0  0  0  0
  190.5930  176.7750  145.3660 C   0  0  0  0  0  0  0  0  0  0  0  0
  190.2370  176.0460  142.4900 N   0  0  0  0  0  0  0  0  0  0  0  0
  192.9130  176.4040  144.7440 C   0  0  0  0  0  3  0  0  0  0  0  0
  188.3160  174.0200  142.6640 N   0  0  0  0  0  0  0  0  0  0  0  0
  192.2360  176.2320  147.0250 N   0  0  0  0  0  0  0  0  0  0  0  0
  190.9500  176.5240  146.6950 C   0  0  0  0  0  3  0  0  0  0  0  0
  191.6020  176.7050  144.3730 C   0  0  0  0  0  0  0  0  0  0  0  0
  184.7920  179.1490  144.2650 C   0  0  0  0  0  3  0  0  0  0  0  0
  187.3590  178.0690  143.9680 C   0  0  0  0  0  0  0  0  0  0  0  0
  186.7600  178.1230  145.2310 C   0  0  0  0  0  3  0  0  0  0  0  0
  185.4780  178.6590  145.3810 C   0  0  0  0  0  3  0  0  0  0  0  0
  185.3870  179.1060  143.0020 C   0  0  0  0  0  3  0  0  0  0  0  0
  186.6690  178.5690  142.8530 C   0  0  0  0  0  3  0  0  0  0  0  0
  1 15  1  0  0  0  0
  2  6  1  1  0  0  0
  2 12  1  0  0  0  0
  3 21  1  0  0  0  0
  4 14  2  0  0  0  0
  5 13  1  0  0  0  0
  7 11  2  0  0  0  0
  8 10  1  0  0  0  0
  8 19  1  0  0  0  0
  9 13  2  0  0  0  0
  9  7  1  0  0  0  0
 11 14  1  0  0  0  0
 11 16  1  0  0  0  0
 12 23  1  1  0  0  0
 12  1  1  0  0  0  0
 13  4  1  0  0  0  0
 14 18  1  0  0  0  0
 15 20  1  0  0  0  0
 16  2  1  0  0  0  0
 16  3  1  0  0  0  0
 17  8  2  0  0  0  0
 18  6  2  0  0  0  0
 20 19  2  0  0  0  0
 21 17  1  0  0  0  0
 21 15  2  0  0  0  0
 22 25  1  0  0  0  0
 23 24  1  0  0  0  0
 24 25  2  0  0  0  0
 26 22  2  0  0  0  0
 27 26  1  0  0  0  0
 27 23  2  0  0  0  0
M  END
>  <MODEL>
6

>  <REMARK>
 VINA RESULT:      -7.5      2.846      4.813
  Name = 
  1 active torsions:
  status: ('A' for Active; 'I' for Inactive)
    1  A    between atoms: C_9  and  C_15
                            x       y       z     vdW  Elec       q    Type
                         _______ _______ _______ _____ _____    ______ ____

>  <TORSDO>
F 1

$$$$
=
 OpenBabel11052418283D

 27 31  0  0  1  0  0  0  0  0999 V2000
  191.0480  175.0410  142.0940 O   0  0  0  0  0  0  0  0  0  0  0  0
  188.6350  174.9750  142.5660 C   0  0  1  0  0  3  0  0  0  0  0  0
  189.7880  174.6570  144.8060 C   0  0  0  0  0  2  0  0  0  0  0  0
  186.6940  178.3640  144.1380 N   0  0  0  0  0  0  0  0  0  0  0  0
  185.7410  179.5640  145.9210 F   0  0  0  0  0  0  0  0  0  0  0  0
  188.2730  176.1820  141.7300 C   0  0  0  0  0  3  0  0  0  0  0  0
  187.7880  176.5440  145.9080 C   0  0  0  0  0  3  0  0  0  0  0  0
  193.0630  176.3690  145.5160 C   0  0  0  0  0  0  0  0  0  0  0  0
  187.0260  177.6120  146.3830 C   0  0  0  0  0  3  0  0  0  0  0  0
  193.9520  176.9450  146.9100 Cl  0  0  0  0  0  0  0  0  0  0  0  0
  187.9860  176.3900  144.5320 C   0  0  0  0  0  0  0  0  0  0  0  0
  189.8720  174.2320  142.0380 C   0  0  1  0  0  3  0  0  0  0  0  0
  186.4790  178.5200  145.4720 C   0  0  0  0  0  0  0  0  0  0  0  0
  187.4240  177.3240  143.6520 C   0  0  0  0  0  0  0  0  0  0  0  0
  191.6750  175.4620  143.2780 C   0  0  0  0  0  0  0  0  0  0  0  0
  188.7770  175.3200  143.9890 N   0  0  0  0  0  0  0  0  0  0  0  0
  191.8260  175.7490  145.6870 C   0  0  0  0  0  3  0  0  0  0  0  0
  187.6840  177.2190  142.2480 N   0  0  0  0  0  0  0  0  0  0  0  0
  193.5770  176.5330  144.2690 N   0  0  0  0  0  0  0  0  0  0  0  0
  192.9150  176.0980  143.1630 C   0  0  0  0  0  3  0  0  0  0  0  0
  191.1220  175.2930  144.5710 C   0  0  0  0  0  0  0  0  0  0  0  0
  189.3310  172.5860  138.1030 C   0  0  0  0  0  3  0  0  0  0  0  0
  189.6630  173.6700  140.6650 C   0  0  0  0  0  0  0  0  0  0  0  0
  190.7220  173.6880  139.7500 C   0  0  0  0  0  3  0  0  0  0  0  0
  190.5570  173.1500  138.4700 C   0  0  0  0  0  3  0  0  0  0  0  0
  188.2720  172.5580  139.0140 C   0  0  0  0  0  3  0  0  0  0  0  0
  188.4370  173.0970  140.2930 C   0  0  0  0  0  3  0  0  0  0  0  0
  1 15  1  0  0  0  0
  2  6  1  6  0  0  0
  2 16  1  0  0  0  0
  4 13  1  0  0  0  0
  6 18  2  0  0  0  0
  7  9  1  0  0  0  0
  8 17  1  0  0  0  0
  8 10  1  0  0  0  0
 11  7  2  0  0  0  0
 12 23  1  6  0  0  0
 12  1  1  0  0  0  0
 12  2  1  0  0  0  0
 13  5  1  0  0  0  0
 13  9  2  0  0  0  0
 14  4  2  0  0  0  0
 14 11  1  0  0  0  0
 15 21  1  0  0  0  0
 16 11  1  0  0  0  0
 16  3  1  0  0  0  0
 18 14  1  0  0  0  0
 19  8  2  0  0  0  0
 20 15  2  0  0  0  0
 20 19  1  0  0  0  0
 21  3  1  0  0  0  0
 21 17  2  0  0  0  0
 22 25  2  0  0  0  0
 22 26  1  0  0  0  0
 24 23  2  0  0  0  0
 25 24  1  0  0  0  0
 26 27  2  0  0  0  0
 27 23  1  0  0  0  0
M  END
>  <MODEL>
7

>  <REMARK>
 VINA RESULT:      -7.5      3.448      6.249
  Name = 
  1 active torsions:
  status: ('A' for Active; 'I' for Inactive)
    1  A    between atoms: C_9  and  C_15
                            x       y       z     vdW  Elec       q    Type
                         _______ _______ _______ _____ _____    ______ ____

>  <TORSDO>
F 1

$$$$
=
 OpenBabel11052418283D

 27 31  0  0  1  0  0  0  0  0999 V2000
  187.2880  177.1970  144.1040 O   0  0  0  0  0  0  0  0  0  0  0  0
  188.1650  176.3370  141.9730 C   0  0  1  0  0  3  0  0  0  0  0  0
  190.1680  177.2770  143.2190 C   0  0  0  0  0  2  0  0  0  0  0  0
  190.1040  172.6030  141.8370 N   0  0  0  0  0  0  0  0  0  0  0  0
  192.0440  171.2790  141.7340 F   0  0  0  0  0  0  0  0  0  0  0  0
  187.4240  175.0190  142.0130 C   0  0  0  0  0  3  0  0  0  0  0  0
  191.6290  174.8520  142.3480 C   0  0  0  0  0  3  0  0  0  0  0  0
  190.3350  177.0780  146.9720 C   0  0  0  0  0  0  0  0  0  0  0  0
  192.2450  173.6130  142.1670 C   0  0  0  0  0  3  0  0  0  0  0  0
  191.5660  177.0240  148.2170 Cl  0  0  0  0  0  0  0  0  0  0  0  0
  190.2360  174.9530  142.2580 C   0  0  0  0  0  0  0  0  0  0  0  0
  187.4190  177.4630  142.7070 C   0  0  1  0  0  3  0  0  0  0  0  0
  191.4580  172.4880  141.9080 C   0  0  0  0  0  0  0  0  0  0  0  0
  189.4830  173.8020  141.9990 C   0  0  0  0  0  0  0  0  0  0  0  0
  188.3530  177.1630  145.0180 C   0  0  0  0  0  0  0  0  0  0  0  0
  189.5480  176.1990  142.4540 N   0  0  0  0  0  0  0  0  0  0  0  0
  190.7050  177.1660  145.6310 C   0  0  0  0  0  3  0  0  0  0  0  0
  188.0530  173.8820  141.9820 N   0  0  0  0  0  0  0  0  0  0  0  0
  189.0220  177.0260  147.3160 N   0  0  0  0  0  0  0  0  0  0  0  0
  188.0390  177.0650  146.3770 C   0  0  0  0  0  3  0  0  0  0  0  0
  189.7190  177.2070  144.6440 C   0  0  0  0  0  0  0  0  0  0  0  0
  183.6050  178.4110  140.9660 C   0  0  0  0  0  3  0  0  0  0  0  0
  186.0930  177.7760  142.0850 C   0  0  0  0  0  0  0  0  0  0  0  0
  184.9780  177.9660  142.9090 C   0  0  0  0  0  3  0  0  0  0  0  0
  183.7350  178.2800  142.3520 C   0  0  0  0  0  3  0  0  0  0  0  0
  184.7150  178.2300  140.1380 C   0  0  0  0  0  3  0  0  0  0  0  0
  185.9580  177.9150  140.6950 C   0  0  0  0  0  3  0  0  0  0  0  0
  1 15  1  0  0  0  0
  2  6  1  1  0  0  0
  2 16  1  0  0  0  0
  2 12  1  0  0  0  0
  3 21  1  0  0  0  0
  4 13  1  0  0  0  0
  4 14  2  0  0  0  0
  5 13  1  0  0  0  0
  8 19  1  0  0  0  0
  8 10  1  0  0  0  0
  9  7  1  0  0  0  0
 11  7  2  0  0  0  0
 11 16  1  0  0  0  0
 12 23  1  6  0  0  0
 12  1  1  0  0  0  0
 13  9  2  0  0  0  0
 14 11  1  0  0  0  0
 15 20  1  0  0  0  0
 16  3  1  0  0  0  0
 17  8  2  0  0  0  0
 18 14  1  0  0  0  0
 18  6  2  0  0  0  0
 20 19  2  0  0  0  0
 21 15  2  0  0  0  0
 21 17  1  0  0  0  0
 22 25  1  0  0  0  0
 23 24  1  0  0  0  0
 25 24  2  0  0  0  0
 26 27  1  0  0  0  0
 26 22  2  0  0  0  0
 27 23  2  0  0  0  0
M  END
>  <MODEL>
8

>  <REMARK>
 VINA RESULT:      -7.3      3.221      4.899
  Name = 
  1 active torsions:
  status: ('A' for Active; 'I' for Inactive)
    1  A    between atoms: C_9  and  C_15
                            x       y       z     vdW  Elec       q    Type
                         _______ _______ _______ _____ _____    ______ ____

>  <TORSDO>
F 1

$$$$
=
 OpenBabel11052418283D

 27 31  0  0  1  0  0  0  0  0999 V2000
  190.9600  175.1840  143.7960 O   0  0  0  0  0  0  0  0  0  0  0  0
  188.6100  175.3490  143.0900 C   0  0  1  0  0  3  0  0  0  0  0  0
  188.5670  175.2710  145.6270 C   0  0  0  0  0  2  0  0  0  0  0  0
  186.6080  179.0500  143.2510 N   0  0  0  0  0  0  0  0  0  0  0  0
  185.1080  180.5500  144.2630 F   0  0  0  0  0  0  0  0  0  0  0  0
  188.8230  176.4500  142.0740 C   0  0  0  0  0  3  0  0  0  0  0  0
  186.5380  177.4250  145.4880 C   0  0  0  0  0  3  0  0  0  0  0  0
  191.3450  176.8380  147.6230 C   0  0  0  0  0  0  0  0  0  0  0  0
  185.7850  178.5990  145.4500 C   0  0  0  0  0  3  0  0  0  0  0  0
  191.5660  177.5420  149.2110 Cl  0  0  0  0  0  0  0  0  0  0  0  0
  187.3210  177.0670  144.3840 C   0  0  0  0  0  0  0  0  0  0  0  0
  189.8480  174.4580  143.2720 C   0  0  1  0  0  3  0  0  0  0  0  0
  185.8310  179.4060  144.3100 C   0  0  0  0  0  0  0  0  0  0  0  0
  187.3420  177.9050  143.2610 C   0  0  0  0  0  0  0  0  0  0  0  0
  191.0270  175.7240  145.0910 C   0  0  0  0  0  0  0  0  0  0  0  0
  188.1300  175.8810  144.3750 N   0  0  0  0  0  0  0  0  0  0  0  0
  190.0990  176.3340  147.2530 C   0  0  0  0  0  3  0  0  0  0  0  0
  188.1980  177.5860  142.1580 N   0  0  0  0  0  0  0  0  0  0  0  0
  192.3860  176.7910  146.7520 N   0  0  0  0  0  0  0  0  0  0  0  0
  192.2520  176.2510  145.5110 C   0  0  0  0  0  3  0  0  0  0  0  0
  189.9290  175.7750  145.9860 C   0  0  0  0  0  0  0  0  0  0  0  0
  190.9710  172.3370  139.7040 C   0  0  0  0  0  3  0  0  0  0  0  0
  190.2180  173.7240  142.0190 C   0  0  0  0  0  0  0  0  0  0  0  0
  191.4820  173.9320  141.4530 C   0  0  0  0  0  3  0  0  0  0  0  0
  191.8570  173.2420  140.2970 C   0  0  0  0  0  3  0  0  0  0  0  0
  189.7110  172.1200  140.2680 C   0  0  0  0  0  3  0  0  0  0  0  0
  189.3350  172.8100  141.4250 C   0  0  0  0  0  3  0  0  0  0  0  0
  1 15  1  0  0  0  0
  2  6  1  6  0  0  0
  2 12  1  0  0  0  0
  2 16  1  0  0  0  0
  3 21  1  0  0  0  0
  4 14  2  0  0  0  0
  4 13  1  0  0  0  0
  5 13  1  0  0  0  0
  6 18  2  0  0  0  0
  8 10  1  0  0  0  0
  9  7  1  0  0  0  0
 11  7  2  0  0  0  0
 12 23  1  6  0  0  0
 12  1  1  0  0  0  0
 13  9  2  0  0  0  0
 14 11  1  0  0  0  0
 15 20  2  0  0  0  0
 15 21  1  0  0  0  0
 16 11  1  0  0  0  0
 16  3  1  0  0  0  0
 17  8  1  0  0  0  0
 18 14  1  0  0  0  0
 19  8  2  0  0  0  0
 20 19  1  0  0  0  0
 21 17  2  0  0  0  0
 22 26  2  0  0  0  0
 22 25  1  0  0  0  0
 24 23  1  0  0  0  0
 25 24  2  0  0  0  0
 26 27  1  0  0  0  0
 27 23  2  0  0  0  0
M  END
>  <MODEL>
9

>  <REMARK>
 VINA RESULT:      -7.2      3.678      6.682
  Name = 
  1 active torsions:
  status: ('A' for Active; 'I' for Inactive)
    1  A    between atoms: C_9  and  C_15
                            x       y       z     vdW  Elec       q    Type
                         _______ _______ _______ _____ _____    ______ ____

>  <TORSDO>
F 1

$$$$
