=
 OpenBabel11052418163D

 28 32  0  0  1  0  0  0  0  0999 V2000
  190.4600  175.0880  144.4420 C   0  0  2  0  0  3  0  0  0  0  0  0
  186.5850  177.1750  141.7480 C   0  0  0  0  0  3  0  0  0  0  0  0
  187.0750  176.4060  147.9920 C   0  0  0  0  0  1  0  0  0  0  0  0
  184.9490  177.8260  143.5210 C   0  0  0  0  0  0  0  0  0  0  0  0
  187.0340  176.7430  144.1830 C   0  0  0  0  0  0  0  0  0  0  0  0
  184.5040  178.2530  141.0770 C   0  0  0  0  0  0  0  0  0  0  0  0
  186.1880  177.2480  143.1710 C   0  0  0  0  0  0  0  0  0  0  0  0
  185.4020  177.3990  145.8600 C   0  0  0  0  0  3  0  0  0  0  0  0
  184.0040  178.3800  142.4880 C   0  0  0  0  0  2  0  0  0  0  0  0
  188.7300  175.7500  146.2090 C   0  0  0  0  0  0  0  0  0  0  0  0
  188.2650  176.1630  143.8620 C   0  0  0  0  0  3  0  0  0  0  0  0
  184.5680  177.8960  144.8610 C   0  0  0  0  0  3  0  0  0  0  0  0
  191.0820  175.1780  146.8680 C   0  0  0  0  0  2  0  0  0  0  0  0
  187.4870  176.3220  146.5510 C   0  0  0  0  0  0  0  0  0  0  0  0
  189.6220  175.1920  147.2910 C   0  0  0  0  0  2  0  0  0  0  0  0
  183.7930  178.6820  140.1320 O   0  0  0  0  0  0  0  0  0  0  0  0
  185.8040  177.6410  140.7770 C   0  0  0  0  0  3  0  0  0  0  0  0
  186.6390  176.8200  145.5400 C   0  0  0  0  0  0  0  0  0  0  0  0
  191.2090  174.3870  145.5780 C   0  0  0  0  0  2  0  0  0  0  0  0
  189.1050  175.6400  144.8500 C   0  0  0  0  0  0  0  0  0  0  0  0
  190.3790  174.1860  143.2470 C   0  0  0  0  0  0  0  0  0  0  0  0
  191.1620  174.4200  142.1070 C   0  0  0  0  0  3  0  0  0  0  0  0
  190.2120  172.4590  141.0420 C   0  0  0  0  0  0  0  0  0  0  0  0
  189.5140  173.0870  143.2780 C   0  0  0  0  0  3  0  0  0  0  0  0
  191.8900  173.8190  139.8610 N   0  0  0  0  0  1  0  0  0  0  0  0
  191.0820  173.5620  141.0070 C   0  0  0  0  0  0  0  0  0  0  0  0
  190.1040  171.5240  139.8870 C   0  0  0  0  0  1  0  0  0  0  0  0
  189.4310  172.2270  142.1790 C   0  0  0  0  0  3  0  0  0  0  0  0
  1 21  1  6  0  0  0
  1 20  1  0  0  0  0
  1 19  1  0  0  0  0
  2  7  1  0  0  0  0
  4 12  1  0  0  0  0
  5 18  1  0  0  0  0
  6  9  1  0  0  0  0
  7  4  2  0  0  0  0
  7  5  1  0  0  0  0
  9  4  1  0  0  0  0
 10 14  1  0  0  0  0
 10 15  1  0  0  0  0
 11  5  2  0  0  0  0
 11 20  1  0  0  0  0
 12  8  2  0  0  0  0
 13 15  1  0  0  0  0
 14  3  1  0  0  0  0
 16  6  2  0  0  0  0
 17  6  1  0  0  0  0
 17  2  2  0  0  0  0
 18  8  1  0  0  0  0
 18 14  2  0  0  0  0
 19 13  1  0  0  0  0
 20 10  2  0  0  0  0
 21 24  1  0  0  0  0
 22 21  2  0  0  0  0
 23 28  1  0  0  0  0
 25 26  1  0  0  0  0
 26 23  2  0  0  0  0
 26 22  1  0  0  0  0
 27 23  1  0  0  0  0
 28 24  2  0  0  0  0
M  END
>  <MODEL>
1

>  <REMARK>
 VINA RESULT:      -8.6      0.000      0.000
  Name = 
  1 active torsions:
  status: ('A' for Active; 'I' for Inactive)
    1  A    between atoms: C_1  and  C_2
                            x       y       z     vdW  Elec       q    Type
                         _______ _______ _______ _____ _____    ______ ____

>  <TORSDO>
F 1

$$$$
=
 OpenBabel11052418163D

 28 32  0  0  1  0  0  0  0  0999 V2000
  190.2390  176.5850  144.8410 C   0  0  2  0  0  3  0  0  0  0  0  0
  186.0960  177.5580  141.9230 C   0  0  0  0  0  3  0  0  0  0  0  0
  186.7770  178.2660  148.1560 C   0  0  0  0  0  1  0  0  0  0  0  0
  184.4220  178.3970  143.5770 C   0  0  0  0  0  0  0  0  0  0  0  0
  186.6340  177.7350  144.3710 C   0  0  0  0  0  0  0  0  0  0  0  0
  183.8880  178.2130  141.1200 C   0  0  0  0  0  0  0  0  0  0  0  0
  185.7160  177.9010  143.3100 C   0  0  0  0  0  0  0  0  0  0  0  0
  184.9620  178.5580  145.9320 C   0  0  0  0  0  3  0  0  0  0  0  0
  183.4000  178.5940  142.4890 C   0  0  0  0  0  2  0  0  0  0  0  0
  188.4700  177.4220  146.4920 C   0  0  0  0  0  0  0  0  0  0  0  0
  187.9200  177.2430  144.1340 C   0  0  0  0  0  3  0  0  0  0  0  0
  184.0580  178.7200  144.8840 C   0  0  0  0  0  3  0  0  0  0  0  0
  190.8850  177.2850  147.1590 C   0  0  0  0  0  2  0  0  0  0  0  0
  187.1720  177.9090  146.7520 C   0  0  0  0  0  0  0  0  0  0  0  0
  189.4400  177.2250  147.6300 C   0  0  0  0  0  2  0  0  0  0  0  0
  183.1160  178.3350  140.1360 O   0  0  0  0  0  0  0  0  0  0  0  0
  185.2490  177.7030  140.9070 C   0  0  0  0  0  3  0  0  0  0  0  0
  186.2540  178.0680  145.6940 C   0  0  0  0  0  0  0  0  0  0  0  0
  191.0860  176.2460  146.0700 C   0  0  0  0  0  2  0  0  0  0  0  0
  188.8340  177.0550  145.1750 C   0  0  0  0  0  0  0  0  0  0  0  0
  190.2480  175.4340  143.8780 C   0  0  0  0  0  0  0  0  0  0  0  0
  189.7090  174.1890  144.2330 C   0  0  0  0  0  3  0  0  0  0  0  0
  190.2650  173.3160  142.0400 C   0  0  0  0  0  0  0  0  0  0  0  0
  190.7940  175.6140  142.6040 C   0  0  0  0  0  3  0  0  0  0  0  0
  189.1600  171.8750  143.7020 N   0  0  0  0  0  1  0  0  0  0  0  0
  189.7150  173.1310  143.3190 C   0  0  0  0  0  0  0  0  0  0  0  0
  190.2860  172.2100  141.0420 C   0  0  0  0  0  1  0  0  0  0  0  0
  190.8020  174.5580  141.6880 C   0  0  0  0  0  3  0  0  0  0  0  0
  1 21  1  6  0  0  0
  1 20  1  0  0  0  0
  1 19  1  0  0  0  0
  2  7  1  0  0  0  0
  4 12  1  0  0  0  0
  5 18  1  0  0  0  0
  6  9  1  0  0  0  0
  7  4  2  0  0  0  0
  7  5  1  0  0  0  0
  9  4  1  0  0  0  0
 10 14  1  0  0  0  0
 10 15  1  0  0  0  0
 11  5  2  0  0  0  0
 11 20  1  0  0  0  0
 12  8  2  0  0  0  0
 13 15  1  0  0  0  0
 14  3  1  0  0  0  0
 16  6  2  0  0  0  0
 17  6  1  0  0  0  0
 17  2  2  0  0  0  0
 18  8  1  0  0  0  0
 18 14  2  0  0  0  0
 19 13  1  0  0  0  0
 20 10  2  0  0  0  0
 21 22  1  0  0  0  0
 23 26  1  0  0  0  0
 24 21  2  0  0  0  0
 26 25  1  0  0  0  0
 26 22  2  0  0  0  0
 27 23  1  0  0  0  0
 28 23  2  0  0  0  0
 28 24  1  0  0  0  0
M  END
>  <MODEL>
2

>  <REMARK>
 VINA RESULT:      -8.6      1.518      1.872
  Name = 
  1 active torsions:
  status: ('A' for Active; 'I' for Inactive)
    1  A    between atoms: C_1  and  C_2
                            x       y       z     vdW  Elec       q    Type
                         _______ _______ _______ _____ _____    ______ ____

>  <TORSDO>
F 1

$$$$
=
 OpenBabel11052418163D

 28 32  0  0  1  0  0  0  0  0999 V2000
  185.4510  177.2370  144.3890 C   0  0  2  0  0  3  0  0  0  0  0  0
  190.0140  174.8300  144.4490 C   0  0  0  0  0  3  0  0  0  0  0  0
  187.7560  179.0910  148.5170 C   0  0  0  0  0  1  0  0  0  0  0  0
  191.1130  175.7490  146.4950 C   0  0  0  0  0  0  0  0  0  0  0  0
  188.8810  176.5380  145.9010 C   0  0  0  0  0  0  0  0  0  0  0  0
  192.2460  174.0380  145.0320 C   0  0  0  0  0  0  0  0  0  0  0  0
  189.9980  175.7180  145.6300 C   0  0  0  0  0  0  0  0  0  0  0  0
  190.0030  177.3960  147.8800 C   0  0  0  0  0  3  0  0  0  0  0  0
  192.3340  174.9000  146.2590 C   0  0  0  0  0  2  0  0  0  0  0  0
  186.6420  178.1650  146.4560 C   0  0  0  0  0  0  0  0  0  0  0  0
  187.7660  176.5280  145.0590 C   0  0  0  0  0  3  0  0  0  0  0  0
  191.1040  176.5870  147.6110 C   0  0  0  0  0  3  0  0  0  0  0  0
  184.1760  178.5030  146.1360 C   0  0  0  0  0  2  0  0  0  0  0  0
  187.7630  178.1970  147.3110 C   0  0  0  0  0  0  0  0  0  0  0  0
  185.4580  179.0580  146.7360 C   0  0  0  0  0  2  0  0  0  0  0  0
  193.2110  173.2890  144.7360 O   0  0  0  0  0  0  0  0  0  0  0  0
  191.0560  174.0500  144.1710 C   0  0  0  0  0  3  0  0  0  0  0  0
  188.8820  177.3830  147.0370 C   0  0  0  0  0  0  0  0  0  0  0  0
  184.3820  178.3030  144.6450 C   0  0  0  0  0  2  0  0  0  0  0  0
  186.6590  177.3480  145.3020 C   0  0  0  0  0  0  0  0  0  0  0  0
  185.8250  177.2240  142.9360 C   0  0  0  0  0  0  0  0  0  0  0  0
  186.7810  176.3240  142.4420 C   0  0  0  0  0  3  0  0  0  0  0  0
  186.4790  177.2190  140.2080 C   0  0  0  0  0  0  0  0  0  0  0  0
  185.2010  178.1190  142.0620 C   0  0  0  0  0  3  0  0  0  0  0  0
  188.0820  175.3930  140.6040 N   0  0  0  0  0  1  0  0  0  0  0  0
  187.1090  176.3180  141.0840 C   0  0  0  0  0  0  0  0  0  0  0  0
  186.8050  177.2380  138.7550 C   0  0  0  0  0  1  0  0  0  0  0  0
  185.5270  178.1160  140.7030 C   0  0  0  0  0  3  0  0  0  0  0  0
  1 21  1  6  0  0  0
  1 19  1  0  0  0  0
  1 20  1  0  0  0  0
  2  7  1  0  0  0  0
  4 12  1  0  0  0  0
  5 18  1  0  0  0  0
  6  9  1  0  0  0  0
  7  5  1  0  0  0  0
  7  4  2  0  0  0  0
  9  4  1  0  0  0  0
 10 15  1  0  0  0  0
 10 14  1  0  0  0  0
 11 20  1  0  0  0  0
 11  5  2  0  0  0  0
 12  8  2  0  0  0  0
 13 15  1  0  0  0  0
 14  3  1  0  0  0  0
 16  6  2  0  0  0  0
 17  2  2  0  0  0  0
 17  6  1  0  0  0  0
 18 14  2  0  0  0  0
 18  8  1  0  0  0  0
 19 13  1  0  0  0  0
 20 10  2  0  0  0  0
 22 21  1  0  0  0  0
 23 28  2  0  0  0  0
 23 26  1  0  0  0  0
 24 21  2  0  0  0  0
 25 26  1  0  0  0  0
 26 22  2  0  0  0  0
 27 23  1  0  0  0  0
 28 24  1  0  0  0  0
M  END
>  <MODEL>
3

>  <REMARK>
 VINA RESULT:      -8.3      2.993      6.156
  Name = 
  1 active torsions:
  status: ('A' for Active; 'I' for Inactive)
    1  A    between atoms: C_1  and  C_2
                            x       y       z     vdW  Elec       q    Type
                         _______ _______ _______ _____ _____    ______ ____

>  <TORSDO>
F 1

$$$$
=
 OpenBabel11052418163D

 28 32  0  0  1  0  0  0  0  0999 V2000
  189.1740  173.7550  142.0520 C   0  0  2  0  0  3  0  0  0  0  0  0
  187.3030  176.8910  145.6970 C   0  0  0  0  0  3  0  0  0  0  0  0
  186.4710  177.1770  139.4490 C   0  0  0  0  0  1  0  0  0  0  0  0
  185.9680  178.5480  144.3880 C   0  0  0  0  0  0  0  0  0  0  0  0
  187.1440  176.7740  143.1920 C   0  0  0  0  0  0  0  0  0  0  0  0
  186.1340  178.6600  146.9010 C   0  0  0  0  0  0  0  0  0  0  0  0
  186.7990  177.4070  144.4070 C   0  0  0  0  0  0  0  0  0  0  0  0
  185.8300  178.4170  141.9740 C   0  0  0  0  0  3  0  0  0  0  0  0
  185.5660  179.2670  145.6490 C   0  0  0  0  0  2  0  0  0  0  0  0
  187.8170  175.5010  140.7640 C   0  0  0  0  0  0  0  0  0  0  0  0
  187.9680  175.6460  143.1830 C   0  0  0  0  0  3  0  0  0  0  0  0
  185.4920  179.0410  143.1730 C   0  0  0  0  0  3  0  0  0  0  0  0
  188.5470  173.3720  139.6560 C   0  0  0  0  0  2  0  0  0  0  0  0
  186.9920  176.6460  140.7530 C   0  0  0  0  0  0  0  0  0  0  0  0
  188.2010  174.8400  139.4640 C   0  0  0  0  0  2  0  0  0  0  0  0
  185.8650  179.1820  148.0130 O   0  0  0  0  0  0  0  0  0  0  0  0
  186.9940  177.4710  146.8540 C   0  0  0  0  0  3  0  0  0  0  0  0
  186.6540  177.2820  141.9650 C   0  0  0  0  0  0  0  0  0  0  0  0
  189.6590  173.2650  140.6850 C   0  0  0  0  0  2  0  0  0  0  0  0
  188.3350  175.0190  141.9880 C   0  0  0  0  0  0  0  0  0  0  0  0
  190.3360  173.8810  142.9930 C   0  0  0  0  0  0  0  0  0  0  0  0
  191.3520  174.8220  142.7680 C   0  0  0  0  0  3  0  0  0  0  0  0
  192.4790  174.1000  144.7900 C   0  0  0  0  0  0  0  0  0  0  0  0
  190.3970  173.0530  144.1180 C   0  0  0  0  0  3  0  0  0  0  0  0
  193.4400  175.8980  143.4120 N   0  0  0  0  0  1  0  0  0  0  0  0
  192.4210  174.9340  143.6610 C   0  0  0  0  0  0  0  0  0  0  0  0
  193.6040  174.1940  145.7630 C   0  0  0  0  0  1  0  0  0  0  0  0
  191.4650  173.1620  145.0130 C   0  0  0  0  0  3  0  0  0  0  0  0
  1 21  1  1  0  0  0
  2 17  2  0  0  0  0
  3 14  1  0  0  0  0
  4  7  1  0  0  0  0
  4  9  1  0  0  0  0
  5  7  2  0  0  0  0
  6 16  2  0  0  0  0
  7  2  1  0  0  0  0
  8 12  1  0  0  0  0
  9  6  1  0  0  0  0
 10 20  1  0  0  0  0
 11  5  1  0  0  0  0
 12  4  2  0  0  0  0
 13 19  1  0  0  0  0
 14 10  2  0  0  0  0
 14 18  1  0  0  0  0
 15 13  1  0  0  0  0
 15 10  1  0  0  0  0
 17  6  1  0  0  0  0
 18  8  2  0  0  0  0
 18  5  1  0  0  0  0
 19  1  1  0  0  0  0
 20  1  1  0  0  0  0
 20 11  2  0  0  0  0
 21 24  1  0  0  0  0
 22 21  2  0  0  0  0
 22 26  1  0  0  0  0
 23 28  1  0  0  0  0
 23 27  1  0  0  0  0
 24 28  2  0  0  0  0
 25 26  1  0  0  0  0
 26 23  2  0  0  0  0
M  END
>  <MODEL>
4

>  <REMARK>
 VINA RESULT:      -8.3      2.352      4.789
  Name = 
  1 active torsions:
  status: ('A' for Active; 'I' for Inactive)
    1  A    between atoms: C_1  and  C_2
                            x       y       z     vdW  Elec       q    Type
                         _______ _______ _______ _____ _____    ______ ____

>  <TORSDO>
F 1

$$$$
=
 OpenBabel11052418163D

 28 32  0  0  1  0  0  0  0  0999 V2000
  193.7180  175.9250  143.6530 C   0  0  2  0  0  3  0  0  0  0  0  0
  189.0110  177.5080  142.2530 C   0  0  0  0  0  3  0  0  0  0  0  0
  191.2390  176.4290  148.0570 C   0  0  0  0  0  1  0  0  0  0  0  0
  187.8250  177.7620  144.4380 C   0  0  0  0  0  0  0  0  0  0  0  0
  190.1450  177.0000  144.4370 C   0  0  0  0  0  0  0  0  0  0  0  0
  186.6930  178.2660  142.2430 C   0  0  0  0  0  0  0  0  0  0  0  0
  188.9980  177.4220  143.7290 C   0  0  0  0  0  0  0  0  0  0  0  0
  188.9380  177.2660  146.5300 C   0  0  0  0  0  3  0  0  0  0  0  0
  186.5720  178.2170  143.7400 C   0  0  0  0  0  2  0  0  0  0  0  0
  192.4400  176.1740  145.8570 C   0  0  0  0  0  0  0  0  0  0  0  0
  191.3170  176.6540  143.7590 C   0  0  0  0  0  3  0  0  0  0  0  0
  187.8070  177.6810  145.8300 C   0  0  0  0  0  3  0  0  0  0  0  0
  194.9400  175.9590  145.8400 C   0  0  0  0  0  2  0  0  0  0  0  0
  191.2630  176.5080  146.5580 C   0  0  0  0  0  0  0  0  0  0  0  0
  193.6570  175.7030  146.6150 C   0  0  0  0  0  2  0  0  0  0  0  0
  185.7040  178.6310  141.5580 O   0  0  0  0  0  0  0  0  0  0  0  0
  187.9420  177.9000  141.5640 C   0  0  0  0  0  3  0  0  0  0  0  0
  190.1150  176.9220  145.8500 C   0  0  0  0  0  0  0  0  0  0  0  0
  194.8340  175.2860  144.4840 C   0  0  0  0  0  2  0  0  0  0  0  0
  192.4550  176.2160  144.4440 C   0  0  0  0  0  0  0  0  0  0  0  0
  193.4540  175.1000  142.4280 C   0  0  0  0  0  0  0  0  0  0  0  0
  193.9220  175.5030  141.1680 C   0  0  0  0  0  3  0  0  0  0  0  0
  192.9580  173.5160  140.1660 C   0  0  0  0  0  0  0  0  0  0  0  0
  192.7390  173.9050  142.5500 C   0  0  0  0  0  3  0  0  0  0  0  0
  194.1630  175.1470  138.7700 N   0  0  0  0  0  1  0  0  0  0  0  0
  193.6770  174.7170  140.0390 C   0  0  0  0  0  0  0  0  0  0  0  0
  192.6810  172.6540  138.9830 C   0  0  0  0  0  1  0  0  0  0  0  0
  192.4920  173.1160  141.4230 C   0  0  0  0  0  3  0  0  0  0  0  0
  1 21  1  6  0  0  0
  1 20  1  0  0  0  0
  1 19  1  0  0  0  0
  2  7  1  0  0  0  0
  4 12  1  0  0  0  0
  5 18  1  0  0  0  0
  6  9  1  0  0  0  0
  7  5  1  0  0  0  0
  7  4  2  0  0  0  0
  9  4  1  0  0  0  0
 10 14  1  0  0  0  0
 10 15  1  0  0  0  0
 11  5  2  0  0  0  0
 11 20  1  0  0  0  0
 12  8  2  0  0  0  0
 13 15  1  0  0  0  0
 14  3  1  0  0  0  0
 16  6  2  0  0  0  0
 17  6  1  0  0  0  0
 17  2  2  0  0  0  0
 18  8  1  0  0  0  0
 18 14  2  0  0  0  0
 19 13  1  0  0  0  0
 20 10  2  0  0  0  0
 21 24  1  0  0  0  0
 22 21  2  0  0  0  0
 23 28  1  0  0  0  0
 25 26  1  0  0  0  0
 26 23  2  0  0  0  0
 26 22  1  0  0  0  0
 27 23  1  0  0  0  0
 28 24  2  0  0  0  0
M  END
>  <MODEL>
5

>  <REMARK>
 VINA RESULT:      -8.1      2.299      3.280
  Name = 
  1 active torsions:
  status: ('A' for Active; 'I' for Inactive)
    1  A    between atoms: C_1  and  C_2
                            x       y       z     vdW  Elec       q    Type
                         _______ _______ _______ _____ _____    ______ ____

>  <TORSDO>
F 1

$$$$
=
 OpenBabel11052418163D

 28 32  0  0  1  0  0  0  0  0999 V2000
  192.1020  175.7630  143.5640 C   0  0  2  0  0  3  0  0  0  0  0  0
  187.6500  177.2050  141.3900 C   0  0  0  0  0  3  0  0  0  0  0  0
  189.4040  177.6430  147.4360 C   0  0  0  0  0  1  0  0  0  0  0  0
  186.3570  178.1380  143.3140 C   0  0  0  0  0  0  0  0  0  0  0  0
  188.5950  177.2520  143.7180 C   0  0  0  0  0  0  0  0  0  0  0  0
  185.4140  178.0850  140.9760 C   0  0  0  0  0  0  0  0  0  0  0  0
  187.5370  177.5360  142.8270 C   0  0  0  0  0  0  0  0  0  0  0  0
  187.2860  178.1720  145.5490 C   0  0  0  0  0  3  0  0  0  0  0  0
  185.1940  178.4640  142.4130 C   0  0  0  0  0  2  0  0  0  0  0  0
  190.7150  176.7030  145.5000 C   0  0  0  0  0  0  0  0  0  0  0  0
  189.7730  176.6530  143.2620 C   0  0  0  0  0  3  0  0  0  0  0  0
  186.2430  178.4500  144.6680 C   0  0  0  0  0  3  0  0  0  0  0  0
  193.1820  176.3250  145.7550 C   0  0  0  0  0  2  0  0  0  0  0  0
  189.5300  177.2980  145.9800 C   0  0  0  0  0  0  0  0  0  0  0  0
  191.8350  176.3810  146.4580 C   0  0  0  0  0  2  0  0  0  0  0  0
  184.5060  178.3100  140.1360 O   0  0  0  0  0  0  0  0  0  0  0  0
  186.6670  177.4600  140.5310 C   0  0  0  0  0  3  0  0  0  0  0  0
  188.4700  177.5740  145.0910 C   0  0  0  0  0  0  0  0  0  0  0  0
  193.1020  175.3080  144.6300 C   0  0  0  0  0  2  0  0  0  0  0  0
  190.8220  176.3480  144.1350 C   0  0  0  0  0  0  0  0  0  0  0  0
  191.8440  174.6490  142.5940 C   0  0  0  0  0  0  0  0  0  0  0  0
  191.0610  173.5420  142.9520 C   0  0  0  0  0  3  0  0  0  0  0  0
  191.3680  172.5980  140.7400 C   0  0  0  0  0  0  0  0  0  0  0  0
  192.3870  174.7240  141.3070 C   0  0  0  0  0  3  0  0  0  0  0  0
  190.0210  171.4040  142.4190 N   0  0  0  0  0  1  0  0  0  0  0  0
  190.8210  172.5180  142.0320 C   0  0  0  0  0  0  0  0  0  0  0  0
  191.1310  171.5250  139.7340 C   0  0  0  0  0  1  0  0  0  0  0  0
  192.1490  173.7020  140.3840 C   0  0  0  0  0  3  0  0  0  0  0  0
  1 21  1  1  0  0  0
  1 20  1  0  0  0  0
  1 19  1  0  0  0  0
  2  7  1  0  0  0  0
  4 12  1  0  0  0  0
  5 18  1  0  0  0  0
  6  9  1  0  0  0  0
  7  4  2  0  0  0  0
  7  5  1  0  0  0  0
  9  4  1  0  0  0  0
 10 14  1  0  0  0  0
 10 15  1  0  0  0  0
 11  5  2  0  0  0  0
 11 20  1  0  0  0  0
 12  8  2  0  0  0  0
 13 15  1  0  0  0  0
 14  3  1  0  0  0  0
 16  6  2  0  0  0  0
 17  6  1  0  0  0  0
 17  2  2  0  0  0  0
 18  8  1  0  0  0  0
 18 14  2  0  0  0  0
 19 13  1  0  0  0  0
 20 10  2  0  0  0  0
 21 22  1  0  0  0  0
 23 26  1  0  0  0  0
 24 21  2  0  0  0  0
 26 25  1  0  0  0  0
 26 22  2  0  0  0  0
 27 23  1  0  0  0  0
 28 23  2  0  0  0  0
 28 24  1  0  0  0  0
M  END
>  <MODEL>
6

>  <REMARK>
 VINA RESULT:      -8.0      1.687      2.106
  Name = 
  1 active torsions:
  status: ('A' for Active; 'I' for Inactive)
    1  A    between atoms: C_1  and  C_2
                            x       y       z     vdW  Elec       q    Type
                         _______ _______ _______ _____ _____    ______ ____

>  <TORSDO>
F 1

$$$$
=
 OpenBabel11052418163D

 28 32  0  0  1  0  0  0  0  0999 V2000
  186.5260  177.6480  146.0270 C   0  0  2  0  0  3  0  0  0  0  0  0
  189.6620  174.0550  144.0580 C   0  0  0  0  0  3  0  0  0  0  0  0
  190.7610  178.0710  148.7990 C   0  0  0  0  0  1  0  0  0  0  0  0
  191.7240  174.2770  145.4510 C   0  0  0  0  0  0  0  0  0  0  0  0
  189.8360  175.7590  145.8960 C   0  0  0  0  0  0  0  0  0  0  0  0
  191.5440  172.5720  143.6040 C   0  0  0  0  0  0  0  0  0  0  0  0
  190.4130  174.7080  145.1510 C   0  0  0  0  0  0  0  0  0  0  0  0
  191.8690  175.9270  147.2170 C   0  0  0  0  0  3  0  0  0  0  0  0
  192.3940  173.1630  144.6920 C   0  0  0  0  0  2  0  0  0  0  0  0
  188.6770  177.8490  147.3990 C   0  0  0  0  0  0  0  0  0  0  0  0
  188.5410  176.2060  145.6170 C   0  0  0  0  0  3  0  0  0  0  0  0
  192.4380  174.8910  146.4800 C   0  0  0  0  0  3  0  0  0  0  0  0
  186.5520  178.9280  148.1810 C   0  0  0  0  0  2  0  0  0  0  0  0
  189.9890  177.4190  147.6880 C   0  0  0  0  0  0  0  0  0  0  0  0
  188.0710  178.9870  148.1820 C   0  0  0  0  0  2  0  0  0  0  0  0
  192.0050  171.6350  142.9040 O   0  0  0  0  0  0  0  0  0  0  0  0
  190.1850  173.0640  143.3400 C   0  0  0  0  0  3  0  0  0  0  0  0
  190.5690  176.3740  146.9390 C   0  0  0  0  0  0  0  0  0  0  0  0
  186.0650  178.9210  146.7430 C   0  0  0  0  0  2  0  0  0  0  0  0
  187.9620  177.2590  146.3320 C   0  0  0  0  0  0  0  0  0  0  0  0
  186.2600  177.7630  144.5550 C   0  0  0  0  0  0  0  0  0  0  0  0
  187.3120  177.9020  143.6370 C   0  0  0  0  0  3  0  0  0  0  0  0
  185.7210  177.9520  141.8080 C   0  0  0  0  0  0  0  0  0  0  0  0
  184.9410  177.7200  144.0930 C   0  0  0  0  0  3  0  0  0  0  0  0
  188.1330  178.1360  141.3550 N   0  0  0  0  0  1  0  0  0  0  0  0
  187.0480  177.9970  142.2680 C   0  0  0  0  0  0  0  0  0  0  0  0
  185.4040  178.0490  140.3560 C   0  0  0  0  0  1  0  0  0  0  0  0
  184.6730  177.8140  142.7250 C   0  0  0  0  0  3  0  0  0  0  0  0
  1 21  1  6  0  0  0
  1 20  1  0  0  0  0
  1 19  1  0  0  0  0
  2  7  1  0  0  0  0
  4 12  1  0  0  0  0
  5 18  1  0  0  0  0
  6  9  1  0  0  0  0
  7  4  2  0  0  0  0
  7  5  1  0  0  0  0
  9  4  1  0  0  0  0
 10 14  1  0  0  0  0
 10 15  1  0  0  0  0
 11  5  2  0  0  0  0
 11 20  1  0  0  0  0
 12  8  2  0  0  0  0
 13 15  1  0  0  0  0
 14  3  1  0  0  0  0
 16  6  2  0  0  0  0
 17  6  1  0  0  0  0
 17  2  2  0  0  0  0
 18  8  1  0  0  0  0
 18 14  2  0  0  0  0
 19 13  1  0  0  0  0
 20 10  2  0  0  0  0
 22 21  2  0  0  0  0
 23 26  2  0  0  0  0
 23 28  1  0  0  0  0
 24 21  1  0  0  0  0
 25 26  1  0  0  0  0
 26 22  1  0  0  0  0
 27 23  1  0  0  0  0
 28 24  2  0  0  0  0
M  END
>  <MODEL>
7

>  <REMARK>
 VINA RESULT:      -8.0      2.841      6.381
  Name = 
  1 active torsions:
  status: ('A' for Active; 'I' for Inactive)
    1  A    between atoms: C_1  and  C_2
                            x       y       z     vdW  Elec       q    Type
                         _______ _______ _______ _____ _____    ______ ____

>  <TORSDO>
F 1

$$$$
=
 OpenBabel11052418163D

 28 32  0  0  1  0  0  0  0  0999 V2000
  189.2500  176.1310  146.4410 C   0  0  2  0  0  3  0  0  0  0  0  0
  188.6860  173.7590  141.8930 C   0  0  0  0  0  3  0  0  0  0  0  0
  194.0170  175.3380  144.8770 C   0  0  0  0  0  1  0  0  0  0  0  0
  191.0430  173.3690  141.1610 C   0  0  0  0  0  0  0  0  0  0  0  0
  190.6410  174.5020  143.2860 C   0  0  0  0  0  0  0  0  0  0  0  0
  189.0770  172.6290  139.7680 C   0  0  0  0  0  0  0  0  0  0  0  0
  190.1420  173.8790  142.1210 C   0  0  0  0  0  0  0  0  0  0  0  0
  192.9110  174.0950  142.5190 C   0  0  0  0  0  3  0  0  0  0  0  0
  190.5720  172.6960  139.8990 C   0  0  0  0  0  2  0  0  0  0  0  0
  191.6420  175.7320  145.6210 C   0  0  0  0  0  0  0  0  0  0  0  0
  189.7700  175.0190  144.2490 C   0  0  0  0  0  3  0  0  0  0  0  0
  192.4170  173.4820  141.3700 C   0  0  0  0  0  3  0  0  0  0  0  0
  191.1910  176.3540  148.0090 C   0  0  0  0  0  2  0  0  0  0  0  0
  192.5360  175.2260  144.6550 C   0  0  0  0  0  0  0  0  0  0  0  0
  192.1780  176.4160  146.8540 C   0  0  0  0  0  2  0  0  0  0  0  0
  188.5730  172.0890  138.7510 O   0  0  0  0  0  0  0  0  0  0  0  0
  188.1910  173.1790  140.8030 C   0  0  0  0  0  3  0  0  0  0  0  0
  192.0380  174.6100  143.4880 C   0  0  0  0  0  0  0  0  0  0  0  0
  189.8770  176.9660  147.5600 C   0  0  0  0  0  2  0  0  0  0  0  0
  190.2480  175.6560  145.3990 C   0  0  0  0  0  0  0  0  0  0  0  0
  188.0930  176.8700  145.8360 C   0  0  0  0  0  0  0  0  0  0  0  0
  186.8290  176.8610  146.4460 C   0  0  0  0  0  3  0  0  0  0  0  0
  185.9610  178.2830  144.6840 C   0  0  0  0  0  0  0  0  0  0  0  0
  188.2840  177.5860  144.6510 C   0  0  0  0  0  3  0  0  0  0  0  0
  184.4910  177.5410  146.5130 N   0  0  0  0  0  1  0  0  0  0  0  0
  185.7650  177.5630  145.8750 C   0  0  0  0  0  0  0  0  0  0  0  0
  184.8480  179.0440  144.0500 C   0  0  0  0  0  1  0  0  0  0  0  0
  187.2210  178.2900  144.0770 C   0  0  0  0  0  3  0  0  0  0  0  0
  1 21  1  6  0  0  0
  1 19  1  0  0  0  0
  2  7  1  0  0  0  0
  4 12  2  0  0  0  0
  4  7  1  0  0  0  0
  5 18  1  0  0  0  0
  5 11  1  0  0  0  0
  6  9  1  0  0  0  0
  6 17  1  0  0  0  0
  7  5  2  0  0  0  0
  8 18  2  0  0  0  0
  9  4  1  0  0  0  0
 10 15  1  0  0  0  0
 11 20  2  0  0  0  0
 12  8  1  0  0  0  0
 14  3  1  0  0  0  0
 14 10  2  0  0  0  0
 15 13  1  0  0  0  0
 16  6  2  0  0  0  0
 17  2  2  0  0  0  0
 18 14  1  0  0  0  0
 19 13  1  0  0  0  0
 20 10  1  0  0  0  0
 20  1  1  0  0  0  0
 21 22  1  0  0  0  0
 23 26  1  0  0  0  0
 24 21  2  0  0  0  0
 26 22  2  0  0  0  0
 26 25  1  0  0  0  0
 27 23  1  0  0  0  0
 28 24  1  0  0  0  0
 28 23  2  0  0  0  0
M  END
>  <MODEL>
8

>  <REMARK>
 VINA RESULT:      -7.8      2.982      6.487
  Name = 
  1 active torsions:
  status: ('A' for Active; 'I' for Inactive)
    1  A    between atoms: C_1  and  C_2
                            x       y       z     vdW  Elec       q    Type
                         _______ _______ _______ _____ _____    ______ ____

>  <TORSDO>
F 1

$$$$
=
 OpenBabel11052418163D

 28 32  0  0  1  0  0  0  0  0999 V2000
  190.3920  173.2480  143.4610 C   0  0  2  0  0  3  0  0  0  0  0  0
  187.3930  177.3920  144.1410 C   0  0  0  0  0  3  0  0  0  0  0  0
  188.4240  174.1020  138.8570 C   0  0  0  0  0  1  0  0  0  0  0  0
  186.4300  177.7740  141.8670 C   0  0  0  0  0  0  0  0  0  0  0  0
  187.9830  175.9200  142.1930 C   0  0  0  0  0  0  0  0  0  0  0  0
  185.8450  179.2500  143.8260 C   0  0  0  0  0  0  0  0  0  0  0  0
  187.2690  177.0200  142.7160 C   0  0  0  0  0  0  0  0  0  0  0  0
  187.0140  176.3430  140.0040 C   0  0  0  0  0  3  0  0  0  0  0  0
  185.6440  178.9580  142.3660 C   0  0  0  0  0  2  0  0  0  0  0  0
  189.3970  173.7100  141.1480 C   0  0  0  0  0  0  0  0  0  0  0  0
  188.8230  175.1590  143.0110 C   0  0  0  0  0  3  0  0  0  0  0  0
  186.3110  177.4290  140.5210 C   0  0  0  0  0  3  0  0  0  0  0  0
  190.5140  171.5210  141.6500 C   0  0  0  0  0  2  0  0  0  0  0  0
  188.5620  174.4740  140.3050 C   0  0  0  0  0  0  0  0  0  0  0  0
  190.1750  172.5490  140.5820 C   0  0  0  0  0  2  0  0  0  0  0  0
  185.2380  180.2190  144.3480 O   0  0  0  0  0  0  0  0  0  0  0  0
  186.7320  178.4260  144.6570 C   0  0  0  0  0  3  0  0  0  0  0  0
  187.8550  175.5770  140.8250 C   0  0  0  0  0  0  0  0  0  0  0  0
  191.2780  172.2120  142.7660 C   0  0  0  0  0  2  0  0  0  0  0  0
  189.5530  174.0780  142.5040 C   0  0  0  0  0  0  0  0  0  0  0  0
  191.2180  174.0930  144.3850 C   0  0  0  0  0  0  0  0  0  0  0  0
  190.8040  174.3450  145.7010 C   0  0  0  0  0  3  0  0  0  0  0  0
  192.8050  175.6600  146.0860 C   0  0  0  0  0  0  0  0  0  0  0  0
  192.4250  174.6280  143.9250 C   0  0  0  0  0  3  0  0  0  0  0  0
  191.1520  175.3660  147.8860 N   0  0  0  0  0  1  0  0  0  0  0  0
  191.5920  175.1250  146.5520 C   0  0  0  0  0  0  0  0  0  0  0  0
  193.6700  176.4950  146.9670 C   0  0  0  0  0  1  0  0  0  0  0  0
  193.2160  175.4080  144.7730 C   0  0  0  0  0  3  0  0  0  0  0  0
  1 21  1  6  0  0  0
  2 17  2  0  0  0  0
  3 14  1  0  0  0  0
  4  9  1  0  0  0  0
  4  7  1  0  0  0  0
  5  7  2  0  0  0  0
  5 11  1  0  0  0  0
  6 16  2  0  0  0  0
  6 17  1  0  0  0  0
  7  2  1  0  0  0  0
  8 12  1  0  0  0  0
  8 18  2  0  0  0  0
  9  6  1  0  0  0  0
 10 20  1  0  0  0  0
 12  4  2  0  0  0  0
 13 19  1  0  0  0  0
 14 18  1  0  0  0  0
 14 10  2  0  0  0  0
 15 10  1  0  0  0  0
 15 13  1  0  0  0  0
 18  5  1  0  0  0  0
 19  1  1  0  0  0  0
 20 11  2  0  0  0  0
 20  1  1  0  0  0  0
 21 22  1  0  0  0  0
 22 26  2  0  0  0  0
 23 26  1  0  0  0  0
 23 27  1  0  0  0  0
 24 21  2  0  0  0  0
 24 28  1  0  0  0  0
 26 25  1  0  0  0  0
 28 23  2  0  0  0  0
M  END
>  <MODEL>
9

>  <REMARK>
 VINA RESULT:      -7.8      2.442      5.102
  Name = 
  1 active torsions:
  status: ('A' for Active; 'I' for Inactive)
    1  A    between atoms: C_1  and  C_2
                            x       y       z     vdW  Elec       q    Type
                         _______ _______ _______ _____ _____    ______ ____

>  <TORSDO>
F 1

$$$$
