=
 OpenBabel11052418303D

 27 31  0  0  0  0  0  0  0  0999 V2000
  188.9480  176.6740  145.7250 N   0  0  0  0  0  0  0  0  0  0  0  0
  188.1760  176.1040  143.4680 C   0  0  0  0  0  0  0  0  0  0  0  0
  189.5680  174.2250  144.2240 O   0  0  0  0  0  0  0  0  0  0  0  0
  188.1980  174.5210  139.5890 C   0  0  0  0  0  3  0  0  0  0  0  0
  188.8390  172.7780  138.0040 N   0  0  0  0  0  1  0  0  0  0  0  0
  187.5630  176.7370  142.4260 N   0  0  0  0  0  0  0  0  0  0  0  0
  189.4930  172.6220  140.3520 C   0  0  0  0  0  3  0  0  0  0  0  0
  193.9520  174.1660  146.1770 O   0  0  0  0  0  1  0  0  0  0  0  0
  189.5000  173.1420  141.6490 C   0  0  0  0  0  3  0  0  0  0  0  0
  192.7250  174.7950  146.0220 C   0  0  0  0  0  0  0  0  0  0  0  0
  188.8510  174.3540  141.9300 C   0  0  0  0  0  0  0  0  0  0  0  0
  188.0010  176.6720  144.8310 C   0  0  0  0  0  0  0  0  0  0  0  0
  188.8430  173.3100  139.3230 C   0  0  0  0  0  0  0  0  0  0  0  0
  188.2000  175.0420  140.8850 C   0  0  0  0  0  0  0  0  0  0  0  0
  190.2450  176.0710  145.6960 C   0  0  0  0  0  0  0  0  0  0  0  0
  188.8660  174.8980  143.2250 C   0  0  0  0  0  0  0  0  0  0  0  0
  191.7390  174.2170  145.2210 C   0  0  0  0  0  3  0  0  0  0  0  0
  187.5670  176.2480  141.1600 C   0  0  0  0  0  3  0  0  0  0  0  0
  192.4730  176.0060  146.6680 C   0  0  0  0  0  3  0  0  0  0  0  0
  191.2330  176.6290  146.5150 C   0  0  0  0  0  3  0  0  0  0  0  0
  190.5020  174.8490  145.0430 C   0  0  0  0  0  0  0  0  0  0  0  0
  184.3600  178.7000  145.8880 C   0  0  0  0  0  3  0  0  0  0  0  0
  186.7310  177.3600  145.1840 C   0  0  0  0  0  0  0  0  0  0  0  0
  185.7860  176.7490  146.0260 C   0  0  0  0  0  3  0  0  0  0  0  0
  184.6060  177.4130  146.3720 C   0  0  0  0  0  3  0  0  0  0  0  0
  185.2950  179.3230  145.0580 C   0  0  0  0  0  3  0  0  0  0  0  0
  186.4750  178.6580  144.7120 C   0  0  0  0  0  3  0  0  0  0  0  0
  2 12  1  0  0  0  0
  3 21  1  0  0  0  0
  4 14  1  0  0  0  0
  5 13  1  0  0  0  0
  6  2  2  0  0  0  0
  7  9  2  0  0  0  0
  9 11  1  0  0  0  0
 10  8  1  0  0  0  0
 10 19  1  0  0  0  0
 11 16  2  0  0  0  0
 12 23  1  0  0  0  0
 12  1  2  0  0  0  0
 13  4  2  0  0  0  0
 13  7  1  0  0  0  0
 14 18  2  0  0  0  0
 14 11  1  0  0  0  0
 15  1  1  0  0  0  0
 15 20  1  0  0  0  0
 16  2  1  0  0  0  0
 16  3  1  0  0  0  0
 17 10  2  0  0  0  0
 18  6  1  0  0  0  0
 20 19  2  0  0  0  0
 21 17  1  0  0  0  0
 21 15  2  0  0  0  0
 22 25  1  0  0  0  0
 23 24  1  0  0  0  0
 24 25  2  0  0  0  0
 26 22  2  0  0  0  0
 27 26  1  0  0  0  0
 27 23  2  0  0  0  0
M  END
>  <MODEL>
1

>  <REMARK>
 VINA RESULT:      -8.6      0.000      0.000
  Name = 
  1 active torsions:
  status: ('A' for Active; 'I' for Inactive)
    1  A    between atoms: C_9  and  C_15
                            x       y       z     vdW  Elec       q    Type
                         _______ _______ _______ _____ _____    ______ ____

>  <TORSDO>
F 1

$$$$
=
 OpenBabel11052418303D

 27 31  0  0  0  0  0  0  0  0999 V2000
  188.6710  176.9440  145.9140 N   0  0  0  0  0  0  0  0  0  0  0  0
  189.0510  176.0080  143.6790 C   0  0  0  0  0  0  0  0  0  0  0  0
  187.5050  177.8980  143.3900 O   0  0  0  0  0  0  0  0  0  0  0  0
  188.2920  174.8240  139.7320 C   0  0  0  0  0  3  0  0  0  0  0  0
  187.2000  175.1740  137.5770 N   0  0  0  0  0  1  0  0  0  0  0  0
  189.6110  174.8860  143.1410 N   0  0  0  0  0  0  0  0  0  0  0  0
  186.8400  176.7370  139.4190 C   0  0  0  0  0  3  0  0  0  0  0  0
  183.4510  179.0060  145.7090 O   0  0  0  0  0  1  0  0  0  0  0  0
  187.0780  177.1400  140.7350 C   0  0  0  0  0  3  0  0  0  0  0  0
  184.7270  178.4610  145.7340 C   0  0  0  0  0  0  0  0  0  0  0  0
  187.9300  176.3920  141.5620 C   0  0  0  0  0  0  0  0  0  0  0  0
  189.4830  176.4220  145.0400 C   0  0  0  0  0  0  0  0  0  0  0  0
  187.4460  175.5810  138.9170 C   0  0  0  0  0  0  0  0  0  0  0  0
  188.5350  175.2260  141.0480 C   0  0  0  0  0  0  0  0  0  0  0  0
  187.3060  177.3510  145.7760 C   0  0  0  0  0  0  0  0  0  0  0  0
  188.1650  176.7750  142.8930 C   0  0  0  0  0  0  0  0  0  0  0  0
  185.5050  178.4480  144.5740 C   0  0  0  0  0  3  0  0  0  0  0  0
  189.3700  174.4780  141.8690 C   0  0  0  0  0  3  0  0  0  0  0  0
  185.2370  177.9280  146.9180 C   0  0  0  0  0  3  0  0  0  0  0  0
  186.5260  177.3910  146.9380 C   0  0  0  0  0  3  0  0  0  0  0  0
  186.7880  177.8880  144.5810 C   0  0  0  0  0  0  0  0  0  0  0  0
  193.4990  175.6660  146.3760 C   0  0  0  0  0  3  0  0  0  0  0  0
  190.8760  176.1500  145.4840 C   0  0  0  0  0  0  0  0  0  0  0  0
  191.9660  176.8200  144.9020 C   0  0  0  0  0  3  0  0  0  0  0  0
  193.2700  176.5760  145.3420 C   0  0  0  0  0  3  0  0  0  0  0  0
  192.4250  175.0000  146.9710 C   0  0  0  0  0  3  0  0  0  0  0  0
  191.1210  175.2440  146.5290 C   0  0  0  0  0  3  0  0  0  0  0  0
  2 12  1  0  0  0  0
  3 21  1  0  0  0  0
  4 14  1  0  0  0  0
  5 13  1  0  0  0  0
  6  2  1  0  0  0  0
  7  9  2  0  0  0  0
  8 10  1  0  0  0  0
  9 11  1  0  0  0  0
 10 19  1  0  0  0  0
 11 16  1  0  0  0  0
 12 23  1  0  0  0  0
 12  1  2  0  0  0  0
 13  7  1  0  0  0  0
 13  4  2  0  0  0  0
 14 11  2  0  0  0  0
 14 18  1  0  0  0  0
 15  1  1  0  0  0  0
 15 20  1  0  0  0  0
 16  3  1  0  0  0  0
 16  2  2  0  0  0  0
 17 21  1  0  0  0  0
 17 10  2  0  0  0  0
 18  6  2  0  0  0  0
 19 20  2  0  0  0  0
 21 15  2  0  0  0  0
 22 26  1  0  0  0  0
 23 27  1  0  0  0  0
 24 25  1  0  0  0  0
 24 23  2  0  0  0  0
 25 22  2  0  0  0  0
 27 26  2  0  0  0  0
M  END
>  <MODEL>
2

>  <REMARK>
 VINA RESULT:      -8.1      2.182      5.540
  Name = 
  1 active torsions:
  status: ('A' for Active; 'I' for Inactive)
    1  A    between atoms: C_9  and  C_15
                            x       y       z     vdW  Elec       q    Type
                         _______ _______ _______ _____ _____    ______ ____

>  <TORSDO>
F 1

$$$$
=
 OpenBabel11052418303D

 27 31  0  0  0  0  0  0  0  0999 V2000
  187.6150  176.7740  144.1560 N   0  0  0  0  0  0  0  0  0  0  0  0
  188.6740  174.8770  143.0200 C   0  0  0  0  0  0  0  0  0  0  0  0
  187.9710  176.4400  141.2580 O   0  0  0  0  0  0  0  0  0  0  0  0
  189.4400  171.9750  140.0960 C   0  0  0  0  0  3  0  0  0  0  0  0
  189.5370  171.2840  137.7560 N   0  0  0  0  0  1  0  0  0  0  0  0
  189.0960  173.6200  143.3420 N   0  0  0  0  0  0  0  0  0  0  0  0
  188.8320  173.5440  138.3540 C   0  0  0  0  0  3  0  0  0  0  0  0
  183.7620  178.6270  140.5140 O   0  0  0  0  0  1  0  0  0  0  0  0
  188.5670  174.5200  139.3180 C   0  0  0  0  0  3  0  0  0  0  0  0
  184.7050  178.1260  141.4020 C   0  0  0  0  0  0  0  0  0  0  0  0
  188.7400  174.2340  140.6810 C   0  0  0  0  0  0  0  0  0  0  0  0
  188.5590  175.8780  144.1130 C   0  0  0  0  0  0  0  0  0  0  0  0
  189.2690  172.2740  138.7410 C   0  0  0  0  0  0  0  0  0  0  0  0
  189.1770  172.9490  141.0630 C   0  0  0  0  0  0  0  0  0  0  0  0
  186.6100  177.1020  143.1930 C   0  0  0  0  0  0  0  0  0  0  0  0
  188.4590  175.1990  141.6630 C   0  0  0  0  0  0  0  0  0  0  0  0
  185.8780  177.5410  140.9200 C   0  0  0  0  0  3  0  0  0  0  0  0
  189.3380  172.6610  142.4130 C   0  0  0  0  0  3  0  0  0  0  0  0
  184.4840  178.2080  142.7760 C   0  0  0  0  0  3  0  0  0  0  0  0
  185.4410  177.7120  143.6640 C   0  0  0  0  0  3  0  0  0  0  0  0
  186.8300  177.0190  141.8040 C   0  0  0  0  0  0  0  0  0  0  0  0
  191.2160  175.7340  147.4900 C   0  0  0  0  0  3  0  0  0  0  0  0
  189.4890  175.8140  145.2710 C   0  0  0  0  0  0  0  0  0  0  0  0
  190.7740  176.3800  145.2000 C   0  0  0  0  0  3  0  0  0  0  0  0
  191.6330  176.3370  146.3010 C   0  0  0  0  0  3  0  0  0  0  0  0
  189.9390  175.1760  147.5780 C   0  0  0  0  0  3  0  0  0  0  0  0
  189.0800  175.2190  146.4760 C   0  0  0  0  0  3  0  0  0  0  0  0
  2  6  1  0  0  0  0
  2 12  1  0  0  0  0
  3 16  1  0  0  0  0
  3 21  1  0  0  0  0
  4 14  1  0  0  0  0
  5 13  1  0  0  0  0
  7 13  1  0  0  0  0
  7  9  2  0  0  0  0
  8 10  1  0  0  0  0
  9 11  1  0  0  0  0
 10 19  1  0  0  0  0
 11 14  2  0  0  0  0
 11 16  1  0  0  0  0
 12  1  2  0  0  0  0
 12 23  1  0  0  0  0
 13  4  2  0  0  0  0
 14 18  1  0  0  0  0
 15 20  1  0  0  0  0
 15  1  1  0  0  0  0
 16  2  2  0  0  0  0
 17 10  2  0  0  0  0
 17 21  1  0  0  0  0
 18  6  2  0  0  0  0
 19 20  2  0  0  0  0
 21 15  2  0  0  0  0
 22 26  1  0  0  0  0
 23 27  1  0  0  0  0
 24 23  2  0  0  0  0
 24 25  1  0  0  0  0
 25 22  2  0  0  0  0
 27 26  2  0  0  0  0
M  END
>  <MODEL>
3

>  <REMARK>
 VINA RESULT:      -8.1      2.365      5.423
  Name = 
  1 active torsions:
  status: ('A' for Active; 'I' for Inactive)
    1  A    between atoms: C_9  and  C_15
                            x       y       z     vdW  Elec       q    Type
                         _______ _______ _______ _____ _____    ______ ____

>  <TORSDO>
F 1

$$$$
=
 OpenBabel11052418303D

 27 31  0  0  0  0  0  0  0  0999 V2000
  186.8820  175.9740  142.9490 N   0  0  0  0  0  0  0  0  0  0  0  0
  189.3170  175.9600  143.2410 C   0  0  0  0  0  0  0  0  0  0  0  0
  188.3440  175.8590  145.4960 O   0  0  0  0  0  0  0  0  0  0  0  0
  193.0780  176.7050  144.9300 C   0  0  0  0  0  3  0  0  0  0  0  0
  194.5190  176.9790  146.8810 N   0  0  0  0  0  1  0  0  0  0  0  0
  190.4220  176.1820  142.4730 N   0  0  0  0  0  0  0  0  0  0  0  0
  192.1360  176.5160  147.1530 C   0  0  0  0  0  3  0  0  0  0  0  0
  184.9270  178.5320  147.5510 O   0  0  0  0  0  1  0  0  0  0  0  0
  190.8750  176.2730  146.6040 C   0  0  0  0  0  3  0  0  0  0  0  0
  185.4450  177.9290  146.4140 C   0  0  0  0  0  0  0  0  0  0  0  0
  190.7030  176.2390  145.2120 C   0  0  0  0  0  0  0  0  0  0  0  0
  188.0550  175.5710  142.5550 C   0  0  0  0  0  0  0  0  0  0  0  0
  193.2370  176.7310  146.3180 C   0  0  0  0  0  0  0  0  0  0  0  0
  191.8180  176.4600  144.3770 C   0  0  0  0  0  0  0  0  0  0  0  0
  186.5040  176.7160  144.1130 C   0  0  0  0  0  0  0  0  0  0  0  0
  189.4370  176.0140  144.6450 C   0  0  0  0  0  0  0  0  0  0  0  0
  186.6220  177.1810  146.4930 C   0  0  0  0  0  3  0  0  0  0  0  0
  191.6470  176.4370  142.9980 C   0  0  0  0  0  3  0  0  0  0  0  0
  184.7910  178.0650  145.1900 C   0  0  0  0  0  3  0  0  0  0  0  0
  185.3120  177.4480  144.0510 C   0  0  0  0  0  3  0  0  0  0  0  0
  187.1640  176.5800  145.3500 C   0  0  0  0  0  0  0  0  0  0  0  0
  188.2860  173.2410  138.9500 C   0  0  0  0  0  3  0  0  0  0  0  0
  188.1140  174.7670  141.3060 C   0  0  0  0  0  0  0  0  0  0  0  0
  187.9310  175.3680  140.0480 C   0  0  0  0  0  3  0  0  0  0  0  0
  188.0120  174.6090  138.8780 C   0  0  0  0  0  3  0  0  0  0  0  0
  188.4800  172.6330  140.1920 C   0  0  0  0  0  3  0  0  0  0  0  0
  188.3980  173.3930  141.3620 C   0  0  0  0  0  3  0  0  0  0  0  0
  1 15  1  0  0  0  0
  2 16  1  0  0  0  0
  4 13  2  0  0  0  0
  6 18  1  0  0  0  0
  6  2  2  0  0  0  0
  9  7  2  0  0  0  0
 10 17  1  0  0  0  0
 10  8  1  0  0  0  0
 11  9  1  0  0  0  0
 12  1  2  0  0  0  0
 12  2  1  0  0  0  0
 13  5  1  0  0  0  0
 13  7  1  0  0  0  0
 14  4  1  0  0  0  0
 14 11  1  0  0  0  0
 15 21  1  0  0  0  0
 16 11  2  0  0  0  0
 16  3  1  0  0  0  0
 18 14  2  0  0  0  0
 19 10  2  0  0  0  0
 20 15  2  0  0  0  0
 20 19  1  0  0  0  0
 21  3  1  0  0  0  0
 21 17  2  0  0  0  0
 22 26  1  0  0  0  0
 23 27  1  0  0  0  0
 23 12  1  0  0  0  0
 24 23  2  0  0  0  0
 25 22  2  0  0  0  0
 25 24  1  0  0  0  0
 26 27  2  0  0  0  0
M  END
>  <MODEL>
4

>  <REMARK>
 VINA RESULT:      -8.0      2.242      6.583
  Name = 
  1 active torsions:
  status: ('A' for Active; 'I' for Inactive)
    1  A    between atoms: C_9  and  C_15
                            x       y       z     vdW  Elec       q    Type
                         _______ _______ _______ _____ _____    ______ ____

>  <TORSDO>
F 1

$$$$
=
 OpenBabel11052418303D

 27 31  0  0  0  0  0  0  0  0999 V2000
  189.1680  177.1290  144.8100 N   0  0  0  0  0  0  0  0  0  0  0  0
  189.9790  175.2440  143.4660 C   0  0  0  0  0  0  0  0  0  0  0  0
  188.4710  176.5370  142.0170 O   0  0  0  0  0  0  0  0  0  0  0  0
  189.9960  172.1520  140.6390 C   0  0  0  0  0  3  0  0  0  0  0  0
  189.3160  171.2370  138.4800 N   0  0  0  0  0  1  0  0  0  0  0  0
  190.6550  174.0780  143.6750 N   0  0  0  0  0  0  0  0  0  0  0  0
  188.5840  173.4620  139.1710 C   0  0  0  0  0  3  0  0  0  0  0  0
  184.0310  178.1850  142.8000 O   0  0  0  0  0  1  0  0  0  0  0  0
  188.5640  174.4990  140.1070 C   0  0  0  0  0  3  0  0  0  0  0  0
  185.2930  177.8790  143.2910 C   0  0  0  0  0  0  0  0  0  0  0  0
  189.2630  174.3740  141.3170 C   0  0  0  0  0  0  0  0  0  0  0  0
  190.1410  176.3350  144.4640 C   0  0  0  0  0  0  0  0  0  0  0  0
  189.2990  172.2910  139.4360 C   0  0  0  0  0  0  0  0  0  0  0  0
  189.9800  173.1880  141.5770 C   0  0  0  0  0  0  0  0  0  0  0  0
  187.8440  177.2490  144.2820 C   0  0  0  0  0  0  0  0  0  0  0  0
  189.2370  175.4010  142.2760 C   0  0  0  0  0  0  0  0  0  0  0  0
  186.2730  177.3730  142.4350 C   0  0  0  0  0  3  0  0  0  0  0  0
  190.6650  173.0590  142.7790 C   0  0  0  0  0  3  0  0  0  0  0  0
  185.5860  178.0800  144.6400 C   0  0  0  0  0  3  0  0  0  0  0  0
  186.8600  177.7800  145.1260 C   0  0  0  0  0  3  0  0  0  0  0  0
  187.5450  177.0470  142.9200 C   0  0  0  0  0  0  0  0  0  0  0  0
  193.8940  176.7260  146.5220 C   0  0  0  0  0  3  0  0  0  0  0  0
  191.4320  176.4880  145.1840 C   0  0  0  0  0  0  0  0  0  0  0  0
  191.5140  176.2930  146.5740 C   0  0  0  0  0  3  0  0  0  0  0  0
  192.7370  176.4150  147.2390 C   0  0  0  0  0  3  0  0  0  0  0  0
  193.8300  176.9130  145.1400 C   0  0  0  0  0  3  0  0  0  0  0  0
  192.6060  176.7910  144.4750 C   0  0  0  0  0  3  0  0  0  0  0  0
  2  6  1  0  0  0  0
  2 12  1  0  0  0  0
  3 16  1  0  0  0  0
  3 21  1  0  0  0  0
  4 14  1  0  0  0  0
  5 13  1  0  0  0  0
  7 13  1  0  0  0  0
  7  9  2  0  0  0  0
  8 10  1  0  0  0  0
  9 11  1  0  0  0  0
 10 19  1  0  0  0  0
 11 14  2  0  0  0  0
 11 16  1  0  0  0  0
 12  1  2  0  0  0  0
 12 23  1  0  0  0  0
 13  4  2  0  0  0  0
 14 18  1  0  0  0  0
 15  1  1  0  0  0  0
 15 20  1  0  0  0  0
 16  2  2  0  0  0  0
 17 21  1  0  0  0  0
 17 10  2  0  0  0  0
 18  6  2  0  0  0  0
 19 20  2  0  0  0  0
 21 15  2  0  0  0  0
 22 25  1  0  0  0  0
 23 24  1  0  0  0  0
 24 25  2  0  0  0  0
 26 22  2  0  0  0  0
 27 26  1  0  0  0  0
 27 23  2  0  0  0  0
M  END
>  <MODEL>
5

>  <REMARK>
 VINA RESULT:      -8.0      2.065      5.386
  Name = 
  1 active torsions:
  status: ('A' for Active; 'I' for Inactive)
    1  A    between atoms: C_9  and  C_15
                            x       y       z     vdW  Elec       q    Type
                         _______ _______ _______ _____ _____    ______ ____

>  <TORSDO>
F 1

$$$$
=
 OpenBabel11052418303D

 27 31  0  0  0  0  0  0  0  0999 V2000
  188.7940  177.1640  144.5510 N   0  0  0  0  0  0  0  0  0  0  0  0
  187.4030  177.1860  142.5320 C   0  0  0  0  0  0  0  0  0  0  0  0
  188.9960  175.3340  142.2610 O   0  0  0  0  0  0  0  0  0  0  0  0
  186.3120  176.7970  138.5050 C   0  0  0  0  0  3  0  0  0  0  0  0
  186.4950  175.6650  136.3490 N   0  0  0  0  0  1  0  0  0  0  0  0
  186.4960  178.0200  141.9450 N   0  0  0  0  0  0  0  0  0  0  0  0
  187.8160  174.9140  138.2610 C   0  0  0  0  0  3  0  0  0  0  0  0
  193.7620  175.2010  142.8180 O   0  0  0  0  0  1  0  0  0  0  0  0
  188.1940  175.0360  139.6010 C   0  0  0  0  0  3  0  0  0  0  0  0
  192.5300  175.7090  143.2070 C   0  0  0  0  0  0  0  0  0  0  0  0
  187.6320  176.0370  140.4070 C   0  0  0  0  0  0  0  0  0  0  0  0
  187.6250  177.3150  143.9960 C   0  0  0  0  0  0  0  0  0  0  0  0
  186.8770  175.7930  137.7140 C   0  0  0  0  0  0  0  0  0  0  0  0
  186.6870  176.9210  139.8460 C   0  0  0  0  0  0  0  0  0  0  0  0
  190.0370  176.7420  143.9830 C   0  0  0  0  0  0  0  0  0  0  0  0
  188.0160  176.1840  141.7510 C   0  0  0  0  0  0  0  0  0  0  0  0
  191.3640  175.2800  142.5700 C   0  0  0  0  0  3  0  0  0  0  0  0
  186.1370  177.9190  140.6400 C   0  0  0  0  0  3  0  0  0  0  0  0
  192.4540  176.6470  144.2370 C   0  0  0  0  0  3  0  0  0  0  0  0
  191.2110  177.1470  144.6300 C   0  0  0  0  0  3  0  0  0  0  0  0
  190.1170  175.7950  142.9420 C   0  0  0  0  0  0  0  0  0  0  0  0
  184.3390  178.4760  146.5120 C   0  0  0  0  0  3  0  0  0  0  0  0
  186.5020  177.7280  144.8780 C   0  0  0  0  0  0  0  0  0  0  0  0
  186.0080  179.0430  144.8550 C   0  0  0  0  0  3  0  0  0  0  0  0
  184.9350  179.4160  145.6700 C   0  0  0  0  0  3  0  0  0  0  0  0
  184.8130  177.1620  146.5390 C   0  0  0  0  0  3  0  0  0  0  0  0
  185.8860  176.7900  145.7240 C   0  0  0  0  0  3  0  0  0  0  0  0
  2 12  1  0  0  0  0
  3 21  1  0  0  0  0
  4 14  1  0  0  0  0
  5 13  1  0  0  0  0
  6  2  1  0  0  0  0
  7  9  2  0  0  0  0
  8 10  1  0  0  0  0
  9 11  1  0  0  0  0
 10 19  1  0  0  0  0
 11 16  1  0  0  0  0
 12  1  2  0  0  0  0
 12 23  1  0  0  0  0
 13  7  1  0  0  0  0
 13  4  2  0  0  0  0
 14 11  2  0  0  0  0
 14 18  1  0  0  0  0
 15  1  1  0  0  0  0
 15 20  1  0  0  0  0
 16  3  1  0  0  0  0
 16  2  2  0  0  0  0
 17 21  1  0  0  0  0
 17 10  2  0  0  0  0
 18  6  2  0  0  0  0
 19 20  2  0  0  0  0
 21 15  2  0  0  0  0
 22 26  1  0  0  0  0
 23 27  1  0  0  0  0
 24 23  2  0  0  0  0
 24 25  1  0  0  0  0
 25 22  2  0  0  0  0
 27 26  2  0  0  0  0
M  END
>  <MODEL>
6

>  <REMARK>
 VINA RESULT:      -7.8      1.976      2.514
  Name = 
  1 active torsions:
  status: ('A' for Active; 'I' for Inactive)
    1  A    between atoms: C_9  and  C_15
                            x       y       z     vdW  Elec       q    Type
                         _______ _______ _______ _____ _____    ______ ____

>  <TORSDO>
F 1

$$$$
=
 OpenBabel11052418303D

 27 31  0  0  0  0  0  0  0  0999 V2000
  187.2460  175.6570  143.1270 N   0  0  0  0  0  0  0  0  0  0  0  0
  188.8750  176.4150  144.7960 C   0  0  0  0  0  0  0  0  0  0  0  0
  190.1230  176.0830  142.7040 O   0  0  0  0  0  0  0  0  0  0  0  0
  192.5000  176.7910  146.8630 C   0  0  0  0  0  3  0  0  0  0  0  0
  194.9400  176.8730  146.8850 N   0  0  0  0  0  1  0  0  0  0  0  0
  188.9210  176.5920  146.1480 N   0  0  0  0  0  0  0  0  0  0  0  0
  193.7280  176.5530  144.7890 C   0  0  0  0  0  3  0  0  0  0  0  0
  190.2030  172.3680  139.6650 O   0  0  0  0  0  1  0  0  0  0  0  0
  192.5270  176.4200  144.0870 C   0  0  0  0  0  3  0  0  0  0  0  0
  189.4960  173.1640  140.5560 C   0  0  0  0  0  0  0  0  0  0  0  0
  191.3000  176.4750  144.7660 C   0  0  0  0  0  0  0  0  0  0  0  0
  187.5440  176.4280  144.1330 C   0  0  0  0  0  0  0  0  0  0  0  0
  193.7150  176.7390  146.1750 C   0  0  0  0  0  0  0  0  0  0  0  0
  191.2970  176.6600  146.1640 C   0  0  0  0  0  0  0  0  0  0  0  0
  188.0740  174.7720  142.3660 C   0  0  0  0  0  0  0  0  0  0  0  0
  190.0850  176.3240  144.0760 C   0  0  0  0  0  0  0  0  0  0  0  0
  190.1280  174.2360  141.1880 C   0  0  0  0  0  3  0  0  0  0  0  0
  190.0830  176.7040  146.8390 C   0  0  0  0  0  3  0  0  0  0  0  0
  188.1530  172.8970  140.8180 C   0  0  0  0  0  3  0  0  0  0  0  0
  187.4450  173.7080  141.7070 C   0  0  0  0  0  3  0  0  0  0  0  0
  189.4320  175.0380  142.1000 C   0  0  0  0  0  0  0  0  0  0  0  0
  184.4370  178.9170  145.7560 C   0  0  0  0  0  3  0  0  0  0  0  0
  186.4550  177.2770  144.6840 C   0  0  0  0  0  0  0  0  0  0  0  0
  185.5900  176.7910  145.6800 C   0  0  0  0  0  3  0  0  0  0  0  0
  184.5850  177.6050  146.2100 C   0  0  0  0  0  3  0  0  0  0  0  0
  185.2960  179.4170  144.7740 C   0  0  0  0  0  3  0  0  0  0  0  0
  186.3010  178.6020  144.2450 C   0  0  0  0  0  3  0  0  0  0  0  0
  1 12  2  0  0  0  0
  2  6  1  0  0  0  0
  3 16  1  0  0  0  0
  6 18  2  0  0  0  0
  7 13  2  0  0  0  0
  8 10  1  0  0  0  0
  9 11  2  0  0  0  0
  9  7  1  0  0  0  0
 10 19  2  0  0  0  0
 10 17  1  0  0  0  0
 11 14  1  0  0  0  0
 12 23  1  0  0  0  0
 12  2  1  0  0  0  0
 13  4  1  0  0  0  0
 13  5  1  0  0  0  0
 14 18  1  0  0  0  0
 14  4  2  0  0  0  0
 15  1  1  0  0  0  0
 16 11  1  0  0  0  0
 16  2  2  0  0  0  0
 17 21  2  0  0  0  0
 19 20  1  0  0  0  0
 20 15  2  0  0  0  0
 21 15  1  0  0  0  0
 21  3  1  0  0  0  0
 22 25  1  0  0  0  0
 23 24  1  0  0  0  0
 24 25  2  0  0  0  0
 26 22  2  0  0  0  0
 27 23  2  0  0  0  0
 27 26  1  0  0  0  0
M  END
>  <MODEL>
7

>  <REMARK>
 VINA RESULT:      -7.7      2.020      5.328
  Name = 
  1 active torsions:
  status: ('A' for Active; 'I' for Inactive)
    1  A    between atoms: C_9  and  C_15
                            x       y       z     vdW  Elec       q    Type
                         _______ _______ _______ _____ _____    ______ ____

>  <TORSDO>
F 1

$$$$
=
 OpenBabel11052418303D

 27 31  0  0  0  0  0  0  0  0999 V2000
  190.8810  176.3060  145.6310 N   0  0  0  0  0  0  0  0  0  0  0  0
  189.9190  175.0480  143.7580 C   0  0  0  0  0  0  0  0  0  0  0  0
  191.6440  173.6070  144.7520 O   0  0  0  0  0  0  0  0  0  0  0  0
  189.6740  172.4450  140.4840 C   0  0  0  0  0  3  0  0  0  0  0  0
  190.3490  170.3990  139.3360 N   0  0  0  0  0  1  0  0  0  0  0  0
  189.0970  175.2970  142.6980 N   0  0  0  0  0  0  0  0  0  0  0  0
  191.3080  170.9780  141.5060 C   0  0  0  0  0  3  0  0  0  0  0  0
  196.2040  174.5400  145.9270 O   0  0  0  0  0  1  0  0  0  0  0  0
  191.4050  171.8400  142.6010 C   0  0  0  0  0  3  0  0  0  0  0  0
  194.8910  174.9740  145.8080 C   0  0  0  0  0  0  0  0  0  0  0  0
  190.6340  173.0120  142.6510 C   0  0  0  0  0  0  0  0  0  0  0  0
  189.8390  175.9570  144.9330 C   0  0  0  0  0  0  0  0  0  0  0  0
  190.4440  171.2790  140.4490 C   0  0  0  0  0  0  0  0  0  0  0  0
  189.7670  173.3090  141.5790 C   0  0  0  0  0  0  0  0  0  0  0  0
  192.2360  175.8510  145.5560 C   0  0  0  0  0  0  0  0  0  0  0  0
  190.7350  173.8970  143.7370 C   0  0  0  0  0  0  0  0  0  0  0  0
  193.9030  174.0980  145.3560 C   0  0  0  0  0  3  0  0  0  0  0  0
  189.0110  174.4740  141.6220 C   0  0  0  0  0  3  0  0  0  0  0  0
  194.5560  176.2860  146.1420 C   0  0  0  0  0  3  0  0  0  0  0  0
  193.2310  176.7140  146.0300 C   0  0  0  0  0  3  0  0  0  0  0  0
  192.5780  174.5270  145.2180 C   0  0  0  0  0  0  0  0  0  0  0  0
  186.1120  177.8270  145.9800 C   0  0  0  0  0  3  0  0  0  0  0  0
  188.5400  176.5860  145.2890 C   0  0  0  0  0  0  0  0  0  0  0  0
  187.8280  176.1810  146.4310 C   0  0  0  0  0  3  0  0  0  0  0  0
  186.6190  176.7950  146.7720 C   0  0  0  0  0  3  0  0  0  0  0  0
  186.8140  178.2470  144.8470 C   0  0  0  0  0  3  0  0  0  0  0  0
  188.0230  177.6320  144.5070 C   0  0  0  0  0  3  0  0  0  0  0  0
  2 12  1  0  0  0  0
  3 21  1  0  0  0  0
  4 14  1  0  0  0  0
  5 13  1  0  0  0  0
  6  2  2  0  0  0  0
  7  9  2  0  0  0  0
  9 11  1  0  0  0  0
 10  8  1  0  0  0  0
 10 19  1  0  0  0  0
 11 16  2  0  0  0  0
 12 23  1  0  0  0  0
 12  1  2  0  0  0  0
 13  4  2  0  0  0  0
 13  7  1  0  0  0  0
 14 18  2  0  0  0  0
 14 11  1  0  0  0  0
 15  1  1  0  0  0  0
 15 20  1  0  0  0  0
 16  2  1  0  0  0  0
 16  3  1  0  0  0  0
 17 10  2  0  0  0  0
 18  6  1  0  0  0  0
 20 19  2  0  0  0  0
 21 17  1  0  0  0  0
 21 15  2  0  0  0  0
 22 25  1  0  0  0  0
 23 24  1  0  0  0  0
 24 25  2  0  0  0  0
 26 22  2  0  0  0  0
 27 26  1  0  0  0  0
 27 23  2  0  0  0  0
M  END
>  <MODEL>
8

>  <REMARK>
 VINA RESULT:      -7.6      1.662      2.259
  Name = 
  1 active torsions:
  status: ('A' for Active; 'I' for Inactive)
    1  A    between atoms: C_9  and  C_15
                            x       y       z     vdW  Elec       q    Type
                         _______ _______ _______ _____ _____    ______ ____

>  <TORSDO>
F 1

$$$$
=
 OpenBabel11052418303D

 27 31  0  0  0  0  0  0  0  0999 V2000
  187.7320  175.7450  141.5800 N   0  0  0  0  0  0  0  0  0  0  0  0
  190.0220  175.3740  142.3750 C   0  0  0  0  0  0  0  0  0  0  0  0
  188.6920  175.9990  144.3460 O   0  0  0  0  0  0  0  0  0  0  0  0
  193.5230  175.8330  144.6300 C   0  0  0  0  0  3  0  0  0  0  0  0
  194.6470  176.3170  146.7420 N   0  0  0  0  0  1  0  0  0  0  0  0
  191.2600  175.2040  141.8290 N   0  0  0  0  0  0  0  0  0  0  0  0
  192.2100  176.3610  146.5950 C   0  0  0  0  0  3  0  0  0  0  0  0
  185.6550  179.6510  145.0400 O   0  0  0  0  0  1  0  0  0  0  0  0
  191.0340  176.2180  145.8540 C   0  0  0  0  0  3  0  0  0  0  0  0
  186.2090  178.7070  144.1860 C   0  0  0  0  0  0  0  0  0  0  0  0
  191.0910  175.8760  144.4940 C   0  0  0  0  0  0  0  0  0  0  0  0
  188.8370  175.0580  141.5340 C   0  0  0  0  0  0  0  0  0  0  0  0
  193.4530  176.1690  145.9840 C   0  0  0  0  0  0  0  0  0  0  0  0
  192.3490  175.6870  143.8860 C   0  0  0  0  0  0  0  0  0  0  0  0
  187.3400  176.8030  142.4600 C   0  0  0  0  0  0  0  0  0  0  0  0
  189.9180  175.7470  143.7320 C   0  0  0  0  0  0  0  0  0  0  0  0
  187.1630  177.8060  144.6640 C   0  0  0  0  0  3  0  0  0  0  0  0
  192.4070  175.3590  142.5370 C   0  0  0  0  0  3  0  0  0  0  0  0
  185.8120  178.6550  142.8500 C   0  0  0  0  0  3  0  0  0  0  0  0
  186.3650  177.6960  141.9990 C   0  0  0  0  0  3  0  0  0  0  0  0
  187.7400  176.8590  143.8100 C   0  0  0  0  0  0  0  0  0  0  0  0
  189.1460  171.9380  138.5920 C   0  0  0  0  0  3  0  0  0  0  0  0
  188.9230  173.9760  140.5170 C   0  0  0  0  0  0  0  0  0  0  0  0
  188.4500  174.1730  139.2080 C   0  0  0  0  0  3  0  0  0  0  0  0
  188.5580  173.1590  138.2530 C   0  0  0  0  0  3  0  0  0  0  0  0
  189.6280  171.7320  139.8860 C   0  0  0  0  0  3  0  0  0  0  0  0
  189.5210  172.7470  140.8420 C   0  0  0  0  0  3  0  0  0  0  0  0
  1 15  1  0  0  0  0
  2 16  1  0  0  0  0
  4 13  2  0  0  0  0
  6  2  2  0  0  0  0
  6 18  1  0  0  0  0
  9  7  2  0  0  0  0
 10 17  1  0  0  0  0
 10  8  1  0  0  0  0
 11  9  1  0  0  0  0
 12  1  2  0  0  0  0
 12  2  1  0  0  0  0
 13  7  1  0  0  0  0
 13  5  1  0  0  0  0
 14 11  1  0  0  0  0
 14  4  1  0  0  0  0
 15 21  1  0  0  0  0
 16  3  1  0  0  0  0
 16 11  2  0  0  0  0
 18 14  2  0  0  0  0
 19 10  2  0  0  0  0
 20 15  2  0  0  0  0
 20 19  1  0  0  0  0
 21  3  1  0  0  0  0
 21 17  2  0  0  0  0
 22 26  1  0  0  0  0
 23 27  1  0  0  0  0
 23 12  1  0  0  0  0
 24 23  2  0  0  0  0
 25 22  2  0  0  0  0
 25 24  1  0  0  0  0
 26 27  2  0  0  0  0
M  END
>  <MODEL>
9

>  <REMARK>
 VINA RESULT:      -7.3      2.327      6.915
  Name = 
  1 active torsions:
  status: ('A' for Active; 'I' for Inactive)
    1  A    between atoms: C_9  and  C_15
                            x       y       z     vdW  Elec       q    Type
                         _______ _______ _______ _____ _____    ______ ____

>  <TORSDO>
F 1

$$$$
