=
 OpenBabel11052421413D

 32 36  0  0  1  0  0  0  0  0999 V2000
  194.3210  174.8770  143.3630 C   0  0  0  0  0  0  0  0  0  0  0  0
  189.4760  175.6600  143.9080 C   0  0  1  0  0  3  0  0  0  0  0  0
  187.9890  176.9140  145.4870 C   0  0  0  0  0  0  0  0  0  0  0  0
  186.6920  177.5210  145.8220 C   0  0  0  0  0  0  0  0  0  0  0  0
  191.7210  175.8710  143.9850 C   0  0  1  0  0  3  0  0  0  0  0  0
  190.8180  174.2200  142.3080 C   0  0  0  0  0  2  0  0  0  0  0  0
  184.2340  178.7470  146.3710 C   0  0  0  0  0  3  0  0  0  0  0  0
  193.2880  174.4730  142.6050 C   0  0  0  0  0  3  0  0  0  0  0  0
  189.5220  174.9240  142.5820 C   0  0  0  0  0  0  0  0  0  0  0  0
  188.5410  175.0130  141.6670 C   0  0  0  0  0  0  0  0  0  0  0  0
  187.0070  175.9570  143.3720 C   0  0  2  0  0  3  0  0  0  0  0  0
  185.2510  178.7600  147.3310 C   0  0  0  0  0  3  0  0  0  0  0  0
  194.1830  175.9700  144.4030 C   0  0  0  0  0  2  0  0  0  0  0  0
  191.9630  175.1800  142.6290 C   0  0  2  0  0  3  0  0  0  0  0  0
  186.4790  178.1510  147.0560 C   0  0  0  0  0  3  0  0  0  0  0  0
  192.8980  176.7920  144.2640 C   0  0  0  0  0  2  0  0  0  0  0  0
  187.3740  175.9280  141.8850 C   0  0  1  0  0  3  0  0  0  0  0  0
  185.8800  176.8620  143.6100 N   0  0  0  0  0  2  0  0  0  0  0  0
  190.5200  176.6080  143.9470 O   0  0  0  0  0  0  0  0  0  0  0  0
  188.9340  176.9510  146.3230 O   0  0  0  0  0  0  0  0  0  0  0  0
  184.4430  178.1190  145.1390 C   0  0  0  0  0  3  0  0  0  0  0  0
  188.1800  176.2940  144.1990 N   0  0  0  0  0  0  0  0  0  0  0  0
  185.6670  177.4980  144.8690 C   0  0  0  0  0  0  0  0  0  0  0  0
  188.6830  173.7400  139.4040 N   0  0  0  0  0  0  0  0  0  0  0  0
  188.6200  174.3070  140.4110 C   0  0  0  0  0  0  0  0  0  0  0  0
  186.7790  177.6970  140.2230 C   0  0  0  0  0  1  0  0  0  0  0  0
  187.7180  177.3170  141.3520 C   0  0  0  0  0  2  0  0  0  0  0  0
  195.6120  174.1390  143.2690 C   0  0  0  0  0  2  0  0  0  0  0  0
  196.8070  173.2500  145.2930 C   0  0  0  0  0  0  0  0  0  0  0  0
  195.7200  173.1970  144.3700 N   0  0  0  0  0  2  0  0  0  0  0  0
  196.8700  172.4130  146.2300 O   0  0  0  0  0  1  0  0  0  0  0  0
  197.7970  174.2170  145.1630 O   0  0  0  0  0  0  0  0  0  0  0  0
  1 13  1  0  0  0  0
  2  9  1  6  0  0  0
  2 19  1  0  0  0  0
  2 22  1  0  0  0  0
  3  4  1  0  0  0  0
  3 20  2  0  0  0  0
  4 15  1  0  0  0  0
  5 16  1  6  0  0  0
  6  9  1  0  0  0  0
  7 12  1  0  0  0  0
  8 14  1  0  0  0  0
  8  1  2  0  0  0  0
 10 17  1  0  0  0  0
 10  9  2  0  0  0  0
 11 18  1  6  0  0  0
 11 22  1  0  0  0  0
 14  6  1  1  0  0  0
 14  5  1  0  0  0  0
 15 12  2  0  0  0  0
 16 13  1  0  0  0  0
 17 27  1  1  0  0  0
 17 11  1  0  0  0  0
 18 23  1  0  0  0  0
 19  5  1  0  0  0  0
 21  7  2  0  0  0  0
 22  3  1  0  0  0  0
 23 21  1  0  0  0  0
 23  4  2  0  0  0  0
 24 25  3  0  0  0  0
 25 10  1  0  0  0  0
 26 27  1  0  0  0  0
 28  1  1  0  0  0  0
 28 30  1  0  0  0  0
 29 31  1  0  0  0  0
 30 29  1  0  0  0  0
 32 29  2  0  0  0  0
M  END
>  <MODEL>
1

>  <REMARK>
 VINA RESULT:      -8.1      0.000      0.000
  Name = 
  4 active torsions:
  status: ('A' for Active; 'I' for Inactive)
    1  A    between atoms: C_2  and  C_24
    2  A    between atoms: N_10  and  C_24
    3  A    between atoms: C_13  and  C_15
    4  A    between atoms: C_25  and  C_26
                            x       y       z     vdW  Elec       q    Type
                         _______ _______ _______ _____ _____    ______ ____

>  <TORSDO>
F 4

$$$$
=
 OpenBabel11052421413D

 32 36  0  0  1  0  0  0  0  0999 V2000
  184.8400  177.8570  143.5420 C   0  0  0  0  0  0  0  0  0  0  0  0
  189.4730  176.1810  143.2160 C   0  0  1  0  0  3  0  0  0  0  0  0
  191.5250  176.1730  144.6550 C   0  0  0  0  0  0  0  0  0  0  0  0
  192.8560  175.6480  144.9920 C   0  0  0  0  0  0  0  0  0  0  0  0
  187.4820  176.8880  144.0070 C   0  0  1  0  0  3  0  0  0  0  0  0
  187.5400  176.2270  141.5750 C   0  0  0  0  0  2  0  0  0  0  0  0
  195.3440  174.5430  145.6500 C   0  0  0  0  0  3  0  0  0  0  0  0
  185.4400  177.1540  142.5660 C   0  0  0  0  0  3  0  0  0  0  0  0
  188.8470  175.6000  141.9620 C   0  0  0  0  0  0  0  0  0  0  0  0
  189.3470  174.5220  141.3330 C   0  0  0  0  0  0  0  0  0  0  0  0
  191.4860  174.7660  142.5650 C   0  0  2  0  0  3  0  0  0  0  0  0
  194.8350  175.6100  146.3950 C   0  0  0  0  0  3  0  0  0  0  0  0
  185.4370  177.9900  144.9270 C   0  0  0  0  0  2  0  0  0  0  0  0
  186.6670  176.3260  142.8250 C   0  0  2  0  0  3  0  0  0  0  0  0
  193.5910  176.1600  146.0700 C   0  0  0  0  0  3  0  0  0  0  0  0
  186.5610  176.9900  145.2120 C   0  0  0  0  0  2  0  0  0  0  0  0
  190.5180  173.7810  141.9010 C   0  0  1  0  0  3  0  0  0  0  0  0
  192.6290  174.0600  143.1440 N   0  0  0  0  0  2  0  0  0  0  0  0
  188.5720  176.0400  144.2920 O   0  0  0  0  0  0  0  0  0  0  0  0
  191.0270  177.1090  145.3420 O   0  0  0  0  0  0  0  0  0  0  0  0
  194.6140  174.0300  144.5740 C   0  0  0  0  0  3  0  0  0  0  0  0
  190.7870  175.6070  143.5540 N   0  0  0  0  0  0  0  0  0  0  0  0
  193.3750  174.5880  144.2390 C   0  0  0  0  0  0  0  0  0  0  0  0
  188.2190  173.5630  139.1940 N   0  0  0  0  0  0  0  0  0  0  0  0
  188.7210  173.9900  140.1460 C   0  0  0  0  0  0  0  0  0  0  0  0
  190.1700  171.3360  142.2840 C   0  0  0  0  0  1  0  0  0  0  0  0
  190.0160  172.7220  142.8800 C   0  0  0  0  0  2  0  0  0  0  0  0
  183.6130  178.6370  143.2130 C   0  0  0  0  0  2  0  0  0  0  0  0
  181.7740  178.5310  141.5050 C   0  0  0  0  0  0  0  0  0  0  0  0
  183.1070  178.2290  141.9130 N   0  0  0  0  0  2  0  0  0  0  0  0
  181.3680  178.1570  140.3740 O   0  0  0  0  0  0  0  0  0  0  0  0
  180.9190  179.2330  142.3460 O   0  0  0  0  0  1  0  0  0  0  0  0
  1 13  1  0  0  0  0
  2  9  1  6  0  0  0
  2 22  1  0  0  0  0
  2 19  1  0  0  0  0
  3  4  1  0  0  0  0
  3 20  2  0  0  0  0
  4 15  1  0  0  0  0
  5 19  1  0  0  0  0
  5 16  1  1  0  0  0
  6  9  1  0  0  0  0
  7 12  1  0  0  0  0
  8 14  1  0  0  0  0
  8  1  2  0  0  0  0
 10 17  1  0  0  0  0
 10  9  2  0  0  0  0
 11 18  1  1  0  0  0
 11 22  1  0  0  0  0
 13 16  1  0  0  0  0
 14  6  1  6  0  0  0
 14  5  1  0  0  0  0
 15 12  2  0  0  0  0
 17 11  1  0  0  0  0
 17 27  1  1  0  0  0
 18 23  1  0  0  0  0
 21  7  2  0  0  0  0
 22  3  1  0  0  0  0
 23 21  1  0  0  0  0
 23  4  2  0  0  0  0
 24 25  3  0  0  0  0
 25 10  1  0  0  0  0
 26 27  1  0  0  0  0
 28  1  1  0  0  0  0
 29 30  1  0  0  0  0
 29 32  1  0  0  0  0
 30 28  1  0  0  0  0
 31 29  2  0  0  0  0
M  END
>  <MODEL>
2

>  <REMARK>
 VINA RESULT:      -8.1      2.995      8.555
  Name = 
  4 active torsions:
  status: ('A' for Active; 'I' for Inactive)
    1  A    between atoms: C_2  and  C_24
    2  A    between atoms: N_10  and  C_24
    3  A    between atoms: C_13  and  C_15
    4  A    between atoms: C_25  and  C_26
                            x       y       z     vdW  Elec       q    Type
                         _______ _______ _______ _____ _____    ______ ____

>  <TORSDO>
F 4

$$$$
=
 OpenBabel11052421413D

 32 36  0  0  1  0  0  0  0  0999 V2000
  190.4440  172.8990  139.7650 C   0  0  0  0  0  0  0  0  0  0  0  0
  189.1660  175.9970  143.3920 C   0  0  1  0  0  3  0  0  0  0  0  0
  187.0450  176.7810  144.4710 C   0  0  0  0  0  0  0  0  0  0  0  0
  186.3310  177.4230  145.5840 C   0  0  0  0  0  0  0  0  0  0  0  0
  189.1740  174.3100  141.8940 C   0  0  1  0  0  3  0  0  0  0  0  0
  191.3930  175.4260  142.3200 C   0  0  0  0  0  2  0  0  0  0  0  0
  185.0100  178.5650  147.7740 C   0  0  0  0  0  3  0  0  0  0  0  0
  191.2120  173.6280  140.5930 C   0  0  0  0  0  3  0  0  0  0  0  0
  190.6790  175.9870  143.5150 C   0  0  0  0  0  0  0  0  0  0  0  0
  191.3180  176.3180  144.6500 C   0  0  0  0  0  0  0  0  0  0  0  0
  189.2530  177.3710  145.5330 C   0  0  2  0  0  3  0  0  0  0  0  0
  184.2800  178.1600  146.6520 C   0  0  0  0  0  3  0  0  0  0  0  0
  188.9730  172.6550  140.0330 C   0  0  0  0  0  2  0  0  0  0  0  0
  190.7030  174.1240  141.9160 C   0  0  2  0  0  3  0  0  0  0  0  0
  184.9390  177.5870  145.5600 C   0  0  0  0  0  3  0  0  0  0  0  0
  188.5420  172.9960  141.4630 C   0  0  0  0  0  2  0  0  0  0  0  0
  190.5480  176.6360  145.8950 C   0  0  1  0  0  3  0  0  0  0  0  0
  188.4750  177.6740  146.7350 N   0  0  0  0  0  2  0  0  0  0  0  0
  188.7110  174.6810  143.1730 O   0  0  0  0  0  0  0  0  0  0  0  0
  186.4010  176.3690  143.4660 O   0  0  0  0  0  0  0  0  0  0  0  0
  186.3980  178.4040  147.8010 C   0  0  0  0  0  3  0  0  0  0  0  0
  188.4740  176.6080  144.5400 N   0  0  0  0  0  0  0  0  0  0  0  0
  187.0590  177.8420  146.7030 C   0  0  0  0  0  0  0  0  0  0  0  0
  193.9140  176.2660  144.8020 N   0  0  0  0  0  0  0  0  0  0  0  0
  192.7580  176.2890  144.7350 C   0  0  0  0  0  0  0  0  0  0  0  0
  191.1310  175.2900  147.9180 C   0  0  0  0  0  1  0  0  0  0  0  0
  190.2800  175.3450  146.6640 C   0  0  0  0  0  2  0  0  0  0  0  0
  191.0250  172.4230  138.4790 C   0  0  0  0  0  2  0  0  0  0  0  0
  190.5390  174.0990  136.6720 C   0  0  0  0  0  0  0  0  0  0  0  0
  191.4120  173.5620  137.6640 N   0  0  0  0  0  2  0  0  0  0  0  0
  190.9100  175.0830  135.9810 O   0  0  0  0  0  0  0  0  0  0  0  0
  189.2820  173.5450  136.4620 O   0  0  0  0  0  1  0  0  0  0  0  0
  1 13  1  0  0  0  0
  1  8  2  0  0  0  0
  2 19  1  1  0  0  0
  2  9  1  0  0  0  0
  2 22  1  0  0  0  0
  3 22  1  0  0  0  0
  3  4  1  0  0  0  0
  4 23  1  0  0  0  0
  5 16  1  1  0  0  0
  5 14  1  0  0  0  0
  5 19  1  0  0  0  0
  6  9  1  0  0  0  0
  7 21  1  0  0  0  0
  9 10  2  0  0  0  0
 10 25  1  0  0  0  0
 10 17  1  0  0  0  0
 11 17  1  0  0  0  0
 11 18  1  1  0  0  0
 12  7  2  0  0  0  0
 13 16  1  0  0  0  0
 14  8  1  6  0  0  0
 14  6  1  0  0  0  0
 15  4  2  0  0  0  0
 15 12  1  0  0  0  0
 17 27  1  6  0  0  0
 20  3  2  0  0  0  0
 22 11  1  0  0  0  0
 23 18  1  0  0  0  0
 23 21  2  0  0  0  0
 25 24  3  0  0  0  0
 27 26  1  0  0  0  0
 28  1  1  0  0  0  0
 29 30  1  0  0  0  0
 30 28  1  0  0  0  0
 31 29  2  0  0  0  0
 32 29  1  0  0  0  0
M  END
>  <MODEL>
3

>  <REMARK>
 VINA RESULT:      -8.0      3.169      5.680
  Name = 
  4 active torsions:
  status: ('A' for Active; 'I' for Inactive)
    1  A    between atoms: C_2  and  C_24
    2  A    between atoms: N_10  and  C_24
    3  A    between atoms: C_13  and  C_15
    4  A    between atoms: C_25  and  C_26
                            x       y       z     vdW  Elec       q    Type
                         _______ _______ _______ _____ _____    ______ ____

>  <TORSDO>
F 4

$$$$
=
 OpenBabel11052421413D

 32 36  0  0  1  0  0  0  0  0999 V2000
  184.6750  178.1950  141.1360 C   0  0  0  0  0  0  0  0  0  0  0  0
  188.0560  175.8080  143.8300 C   0  0  1  0  0  3  0  0  0  0  0  0
  190.2500  174.6680  143.4250 C   0  0  0  0  0  0  0  0  0  0  0  0
  191.5210  174.1150  143.9170 C   0  0  0  0  0  0  0  0  0  0  0  0
  187.0310  177.0010  142.2120 C   0  0  1  0  0  3  0  0  0  0  0  0
  185.7860  176.7900  144.3930 C   0  0  0  0  0  2  0  0  0  0  0  0
  193.9700  173.1670  144.8910 C   0  0  0  0  0  3  0  0  0  0  0  0
  184.7270  177.9700  142.4610 C   0  0  0  0  0  3  0  0  0  0  0  0
  187.1210  176.3320  144.9040 C   0  0  0  0  0  0  0  0  0  0  0  0
  187.5030  176.5040  146.1810 C   0  0  0  0  0  0  0  0  0  0  0  0
  189.5030  175.0870  145.7960 C   0  0  2  0  0  3  0  0  0  0  0  0
  193.6610  173.0370  143.5340 C   0  0  0  0  0  3  0  0  0  0  0  0
  185.8800  178.0110  140.2380 C   0  0  0  0  0  2  0  0  0  0  0  0
  186.0190  177.6670  143.1640 C   0  0  2  0  0  3  0  0  0  0  0  0
  192.4400  173.5140  143.0460 C   0  0  0  0  0  3  0  0  0  0  0  0
  187.2050  177.9010  140.9990 C   0  0  0  0  0  2  0  0  0  0  0  0
  188.9240  176.2610  146.5910 C   0  0  1  0  0  3  0  0  0  0  0  0
  190.8980  174.8460  146.1670 N   0  0  0  0  0  2  0  0  0  0  0  0
  188.2660  176.8180  142.8680 O   0  0  0  0  0  0  0  0  0  0  0  0
  189.9700  174.5990  142.1960 O   0  0  0  0  0  0  0  0  0  0  0  0
  193.0550  173.7660  145.7630 C   0  0  0  0  0  3  0  0  0  0  0  0
  189.3390  175.3000  144.3460 N   0  0  0  0  0  0  0  0  0  0  0  0
  191.8280  174.2310  145.2780 C   0  0  0  0  0  0  0  0  0  0  0  0
  185.8570  177.4190  147.9740 N   0  0  0  0  0  0  0  0  0  0  0  0
  186.5900  177.0110  147.1760 C   0  0  0  0  0  0  0  0  0  0  0  0
  190.0660  178.1700  147.7310 C   0  0  0  0  0  1  0  0  0  0  0  0
  189.7300  177.5430  146.3920 C   0  0  0  0  0  2  0  0  0  0  0  0
  183.3590  178.5110  140.5130 C   0  0  0  0  0  2  0  0  0  0  0  0
  180.9690  178.4550  141.2850 C   0  0  0  0  0  0  0  0  0  0  0  0
  182.2900  177.9160  141.2960 N   0  0  0  0  0  2  0  0  0  0  0  0
  180.0700  177.9160  141.9800 O   0  0  0  0  0  1  0  0  0  0  0  0
  180.6680  179.5700  140.5130 O   0  0  0  0  0  0  0  0  0  0  0  0
  1  8  2  0  0  0  0
  2 19  1  6  0  0  0
  2 22  1  0  0  0  0
  2  9  1  0  0  0  0
  3  4  1  0  0  0  0
  3 22  1  0  0  0  0
  4 23  1  0  0  0  0
  5 16  1  6  0  0  0
  5 19  1  0  0  0  0
  5 14  1  0  0  0  0
  6  9  1  0  0  0  0
  7 21  1  0  0  0  0
  9 10  2  0  0  0  0
 10 17  1  0  0  0  0
 10 25  1  0  0  0  0
 11 18  1  6  0  0  0
 11 17  1  0  0  0  0
 12  7  2  0  0  0  0
 13 16  1  0  0  0  0
 13  1  1  0  0  0  0
 14  8  1  6  0  0  0
 14  6  1  0  0  0  0
 15 12  1  0  0  0  0
 15  4  2  0  0  0  0
 17 27  1  6  0  0  0
 20  3  2  0  0  0  0
 22 11  1  0  0  0  0
 23 21  2  0  0  0  0
 23 18  1  0  0  0  0
 25 24  3  0  0  0  0
 27 26  1  0  0  0  0
 28  1  1  0  0  0  0
 28 30  1  0  0  0  0
 29 30  1  0  0  0  0
 29 31  1  0  0  0  0
 32 29  2  0  0  0  0
M  END
>  <MODEL>
4

>  <REMARK>
 VINA RESULT:      -8.0      3.480      9.184
  Name = 
  4 active torsions:
  status: ('A' for Active; 'I' for Inactive)
    1  A    between atoms: C_2  and  C_24
    2  A    between atoms: N_10  and  C_24
    3  A    between atoms: C_13  and  C_15
    4  A    between atoms: C_25  and  C_26
                            x       y       z     vdW  Elec       q    Type
                         _______ _______ _______ _____ _____    ______ ____

>  <TORSDO>
F 4

$$$$
=
 OpenBabel11052421413D

 32 36  0  0  1  0  0  0  0  0999 V2000
  194.1500  174.3950  142.7830 C   0  0  0  0  0  0  0  0  0  0  0  0
  190.0010  176.8250  143.9090 C   0  0  1  0  0  3  0  0  0  0  0  0
  187.8070  177.3150  142.8040 C   0  0  0  0  0  0  0  0  0  0  0  0
  186.4000  177.7390  142.8720 C   0  0  0  0  0  0  0  0  0  0  0  0
  191.4860  175.3910  142.9980 C   0  0  1  0  0  3  0  0  0  0  0  0
  192.2160  176.5490  145.1150 C   0  0  0  0  0  2  0  0  0  0  0  0
  183.7000  178.4560  143.0690 C   0  0  0  0  0  3  0  0  0  0  0  0
  193.7970  175.0290  143.9140 C   0  0  0  0  0  3  0  0  0  0  0  0
  190.7570  176.8790  145.2240 C   0  0  0  0  0  0  0  0  0  0  0  0
  190.1450  177.0670  146.4070 C   0  0  0  0  0  0  0  0  0  0  0  0
  188.0990  177.8560  145.2480 C   0  0  2  0  0  3  0  0  0  0  0  0
  184.2620  178.1890  141.8170 C   0  0  0  0  0  3  0  0  0  0  0  0
  193.1420  174.0320  141.7120 C   0  0  0  0  0  2  0  0  0  0  0  0
  192.3600  175.2880  144.2630 C   0  0  2  0  0  3  0  0  0  0  0  0
  185.6090  177.8270  141.7180 C   0  0  0  0  0  3  0  0  0  0  0  0
  191.6860  174.1250  142.1800 C   0  0  0  0  0  2  0  0  0  0  0  0
  188.6510  177.1480  146.4890 C   0  0  1  0  0  3  0  0  0  0  0  0
  186.6370  177.9280  145.3000 N   0  0  0  0  0  2  0  0  0  0  0  0
  190.1290  175.5340  143.3560 O   0  0  0  0  0  0  0  0  0  0  0  0
  188.3220  177.0280  141.6880 O   0  0  0  0  0  0  0  0  0  0  0  0
  184.4860  178.3690  144.2220 C   0  0  0  0  0  3  0  0  0  0  0  0
  188.5840  177.2130  144.0140 N   0  0  0  0  0  0  0  0  0  0  0  0
  185.8380  178.0200  144.1220 C   0  0  0  0  0  0  0  0  0  0  0  0
  191.4930  177.1360  148.6290 N   0  0  0  0  0  0  0  0  0  0  0  0
  190.8930  177.1050  147.6400 C   0  0  0  0  0  0  0  0  0  0  0  0
  189.1860  174.7550  146.9730 C   0  0  0  0  0  1  0  0  0  0  0  0
  188.0800  175.7400  146.6490 C   0  0  0  0  0  2  0  0  0  0  0  0
  195.5950  174.1540  142.5150 C   0  0  0  0  0  2  0  0  0  0  0  0
  196.7990  176.3580  142.6190 C   0  0  0  0  0  0  0  0  0  0  0  0
  196.3960  175.1330  143.2310 N   0  0  0  0  0  2  0  0  0  0  0  0
  197.4970  177.1790  143.2680 O   0  0  0  0  0  1  0  0  0  0  0  0
  196.4280  176.6490  141.3120 O   0  0  0  0  0  0  0  0  0  0  0  0
  1  8  2  0  0  0  0
  2 19  1  1  0  0  0
  2 22  1  0  0  0  0
  2  9  1  0  0  0  0
  3  4  1  0  0  0  0
  3 22  1  0  0  0  0
  4 23  1  0  0  0  0
  5 16  1  6  0  0  0
  5 19  1  0  0  0  0
  5 14  1  0  0  0  0
  6  9  1  0  0  0  0
  7 21  1  0  0  0  0
  9 10  2  0  0  0  0
 10 17  1  0  0  0  0
 10 25  1  0  0  0  0
 11 18  1  1  0  0  0
 11 17  1  0  0  0  0
 12  7  2  0  0  0  0
 13 16  1  0  0  0  0
 13  1  1  0  0  0  0
 14  8  1  6  0  0  0
 14  6  1  0  0  0  0
 15 12  1  0  0  0  0
 15  4  2  0  0  0  0
 17 27  1  6  0  0  0
 20  3  2  0  0  0  0
 22 11  1  0  0  0  0
 23 21  2  0  0  0  0
 23 18  1  0  0  0  0
 25 24  3  0  0  0  0
 27 26  1  0  0  0  0
 28  1  1  0  0  0  0
 28 30  1  0  0  0  0
 29 30  1  0  0  0  0
 29 31  1  0  0  0  0
 32 29  2  0  0  0  0
M  END
>  <MODEL>
5

>  <REMARK>
 VINA RESULT:      -7.5      2.388      4.259
  Name = 
  4 active torsions:
  status: ('A' for Active; 'I' for Inactive)
    1  A    between atoms: C_2  and  C_24
    2  A    between atoms: N_10  and  C_24
    3  A    between atoms: C_13  and  C_15
    4  A    between atoms: C_25  and  C_26
                            x       y       z     vdW  Elec       q    Type
                         _______ _______ _______ _____ _____    ______ ____

>  <TORSDO>
F 4

$$$$
=
 OpenBabel11052421413D

 32 36  0  0  1  0  0  0  0  0999 V2000
  194.0790  172.1280  144.7140 C   0  0  0  0  0  0  0  0  0  0  0  0
  190.7010  175.6840  144.1370 C   0  0  1  0  0  3  0  0  0  0  0  0
  188.9140  176.2620  142.4790 C   0  0  0  0  0  0  0  0  0  0  0  0
  187.6950  176.9950  142.1070 C   0  0  0  0  0  0  0  0  0  0  0  0
  191.8150  173.7240  144.0340 C   0  0  1  0  0  3  0  0  0  0  0  0
  192.5560  175.3300  145.8300 C   0  0  0  0  0  2  0  0  0  0  0  0
  185.3180  178.3390  141.4840 C   0  0  0  0  0  3  0  0  0  0  0  0
  193.7760  173.1720  145.5040 C   0  0  0  0  0  3  0  0  0  0  0  0
  191.2540  176.0050  145.5130 C   0  0  0  0  0  0  0  0  0  0  0  0
  190.5690  176.7190  146.4240 C   0  0  0  0  0  0  0  0  0  0  0  0
  189.0160  177.5170  144.6620 C   0  0  2  0  0  3  0  0  0  0  0  0
  185.9420  177.5410  140.5210 C   0  0  0  0  0  3  0  0  0  0  0  0
  193.1640  171.6670  143.5990 C   0  0  0  0  0  2  0  0  0  0  0  0
  192.4420  173.8580  145.4360 C   0  0  2  0  0  3  0  0  0  0  0  0
  187.1270  176.8670  140.8320 C   0  0  0  0  0  3  0  0  0  0  0  0
  191.7490  172.2470  143.6840 C   0  0  0  0  0  2  0  0  0  0  0  0
  189.1660  177.1650  146.1450 C   0  0  1  0  0  3  0  0  0  0  0  0
  187.6460  177.9370  144.3650 N   0  0  0  0  0  2  0  0  0  0  0  0
  190.5230  174.2890  144.0250 O   0  0  0  0  0  0  0  0  0  0  0  0
  189.4700  175.5020  141.6380 O   0  0  0  0  0  0  0  0  0  0  0  0
  185.8820  178.4700  142.7560 C   0  0  0  0  0  3  0  0  0  0  0  0
  189.4570  176.4000  143.8070 N   0  0  0  0  0  0  0  0  0  0  0  0
  187.0740  177.8060  143.0650 C   0  0  0  0  0  0  0  0  0  0  0  0
  191.5660  177.2250  148.7720 N   0  0  0  0  0  0  0  0  0  0  0  0
  191.1220  176.9990  147.7260 C   0  0  0  0  0  0  0  0  0  0  0  0
  186.9850  176.6720  147.2610 C   0  0  0  0  0  1  0  0  0  0  0  0
  188.1950  176.0670  146.5760 C   0  0  0  0  0  2  0  0  0  0  0  0
  195.4160  171.4850  144.8550 C   0  0  0  0  0  2  0  0  0  0  0  0
  196.5860  169.8870  146.4010 C   0  0  0  0  0  0  0  0  0  0  0  0
  195.4360  170.6530  146.0460 N   0  0  0  0  0  2  0  0  0  0  0  0
  196.5640  169.1720  147.4360 O   0  0  0  0  0  1  0  0  0  0  0  0
  197.7290  169.9220  145.6110 O   0  0  0  0  0  0  0  0  0  0  0  0
  1 28  1  0  0  0  0
  1  8  2  0  0  0  0
  2 19  1  1  0  0  0
  2  9  1  0  0  0  0
  3 22  1  0  0  0  0
  4  3  1  0  0  0  0
  4 23  1  0  0  0  0
  5 16  1  1  0  0  0
  5 14  1  0  0  0  0
  7 21  1  0  0  0  0
  9  6  1  0  0  0  0
  9 10  2  0  0  0  0
 10 25  1  0  0  0  0
 11 18  1  1  0  0  0
 11 17  1  0  0  0  0
 12 15  1  0  0  0  0
 12  7  2  0  0  0  0
 13 16  1  0  0  0  0
 13  1  1  0  0  0  0
 14  8  1  6  0  0  0
 14  6  1  0  0  0  0
 15  4  2  0  0  0  0
 17 10  1  0  0  0  0
 17 27  1  6  0  0  0
 19  5  1  0  0  0  0
 20  3  2  0  0  0  0
 21 23  2  0  0  0  0
 22  2  1  0  0  0  0
 22 11  1  0  0  0  0
 23 18  1  0  0  0  0
 25 24  3  0  0  0  0
 27 26  1  0  0  0  0
 28 30  1  0  0  0  0
 29 31  1  0  0  0  0
 30 29  1  0  0  0  0
 32 29  2  0  0  0  0
M  END
>  <MODEL>
6

>  <REMARK>
 VINA RESULT:      -7.5      2.480      4.593
  Name = 
  4 active torsions:
  status: ('A' for Active; 'I' for Inactive)
    1  A    between atoms: C_2  and  C_24
    2  A    between atoms: N_10  and  C_24
    3  A    between atoms: C_13  and  C_15
    4  A    between atoms: C_25  and  C_26
                            x       y       z     vdW  Elec       q    Type
                         _______ _______ _______ _____ _____    ______ ____

>  <TORSDO>
F 4

$$$$
=
 OpenBabel11052421413D

 32 36  0  0  1  0  0  0  0  0999 V2000
  186.8150  177.2620  145.8790 C   0  0  0  0  0  0  0  0  0  0  0  0
  191.1120  175.4580  144.2490 C   0  0  1  0  0  3  0  0  0  0  0  0
  193.3750  174.9660  145.2070 C   0  0  0  0  0  0  0  0  0  0  0  0
  194.6820  174.2960  145.1370 C   0  0  0  0  0  0  0  0  0  0  0  0
  189.3800  176.0560  145.5650 C   0  0  1  0  0  3  0  0  0  0  0  0
  188.9320  176.0290  143.0850 C   0  0  0  0  0  2  0  0  0  0  0  0
  197.1170  172.9190  145.0040 C   0  0  0  0  0  3  0  0  0  0  0  0
  187.1540  176.7950  144.6650 C   0  0  0  0  0  3  0  0  0  0  0  0
  190.2140  175.2500  143.0440 C   0  0  0  0  0  0  0  0  0  0  0  0
  190.4760  174.3390  142.0900 C   0  0  0  0  0  0  0  0  0  0  0  0
  192.8150  174.1390  142.8930 C   0  0  2  0  0  3  0  0  0  0  0  0
  196.8650  173.7900  146.0680 C   0  0  0  0  0  3  0  0  0  0  0  0
  187.6610  177.0060  147.1090 C   0  0  0  0  0  2  0  0  0  0  0  0
  188.3120  175.8590  144.4710 C   0  0  2  0  0  3  0  0  0  0  0  0
  195.6480  174.4750  146.1370 C   0  0  0  0  0  3  0  0  0  0  0  0
  188.7050  175.9020  146.9190 C   0  0  0  0  0  2  0  0  0  0  0  0
  191.6460  173.4120  142.2210 C   0  0  1  0  0  3  0  0  0  0  0  0
  193.9620  173.2440  143.0480 N   0  0  0  0  0  2  0  0  0  0  0  0
  190.4070  175.1010  145.4180 O   0  0  0  0  0  0  0  0  0  0  0  0
  193.1100  175.7250  146.1800 O   0  0  0  0  0  0  0  0  0  0  0  0
  196.1560  172.7380  144.0050 C   0  0  0  0  0  3  0  0  0  0  0  0
  192.3970  174.7410  144.1720 N   0  0  0  0  0  0  0  0  0  0  0  0
  194.9440  173.4330  144.0660 C   0  0  0  0  0  0  0  0  0  0  0  0
  188.8900  174.0200  140.0540 N   0  0  0  0  0  0  0  0  0  0  0  0
  189.5960  174.1620  140.9600 C   0  0  0  0  0  0  0  0  0  0  0  0
  190.9760  171.0100  142.0550 C   0  0  0  0  0  1  0  0  0  0  0  0
  191.2180  172.1710  143.0010 C   0  0  0  0  0  2  0  0  0  0  0  0
  185.6380  178.1690  145.9970 C   0  0  0  0  0  2  0  0  0  0  0  0
  184.5150  178.8920  143.8680 C   0  0  0  0  0  0  0  0  0  0  0  0
  184.7200  177.9250  144.8970 N   0  0  0  0  0  2  0  0  0  0  0  0
  183.7070  178.6480  142.9350 O   0  0  0  0  0  0  0  0  0  0  0  0
  185.2000  180.1000  143.8880 O   0  0  0  0  0  1  0  0  0  0  0  0
  1 28  1  0  0  0  0
  1 13  1  0  0  0  0
  2  9  1  6  0  0  0
  2 19  1  0  0  0  0
  3 20  2  0  0  0  0
  4  3  1  0  0  0  0
  4 15  1  0  0  0  0
  5 16  1  1  0  0  0
  7 12  1  0  0  0  0
  8  1  2  0  0  0  0
  9  6  1  0  0  0  0
 10 17  1  0  0  0  0
 10  9  2  0  0  0  0
 11 18  1  1  0  0  0
 11 22  1  0  0  0  0
 12 15  2  0  0  0  0
 14  6  1  6  0  0  0
 14  8  1  0  0  0  0
 14  5  1  0  0  0  0
 16 13  1  0  0  0  0
 17 11  1  0  0  0  0
 17 27  1  1  0  0  0
 18 23  1  0  0  0  0
 19  5  1  0  0  0  0
 21 23  1  0  0  0  0
 21  7  2  0  0  0  0
 22  2  1  0  0  0  0
 22  3  1  0  0  0  0
 23  4  2  0  0  0  0
 24 25  3  0  0  0  0
 25 10  1  0  0  0  0
 26 27  1  0  0  0  0
 29 32  1  0  0  0  0
 29 30  1  0  0  0  0
 30 28  1  0  0  0  0
 31 29  2  0  0  0  0
M  END
>  <MODEL>
7

>  <REMARK>
 VINA RESULT:      -7.4      2.256      8.358
  Name = 
  4 active torsions:
  status: ('A' for Active; 'I' for Inactive)
    1  A    between atoms: C_2  and  C_24
    2  A    between atoms: N_10  and  C_24
    3  A    between atoms: C_13  and  C_15
    4  A    between atoms: C_25  and  C_26
                            x       y       z     vdW  Elec       q    Type
                         _______ _______ _______ _____ _____    ______ ____

>  <TORSDO>
F 4

$$$$
=
 OpenBabel11052421413D

 32 36  0  0  1  0  0  0  0  0999 V2000
  191.3140  173.2530  139.6810 C   0  0  0  0  0  0  0  0  0  0  0  0
  189.6480  176.1160  143.3430 C   0  0  1  0  0  3  0  0  0  0  0  0
  187.4240  176.7410  144.3140 C   0  0  0  0  0  0  0  0  0  0  0  0
  186.6080  177.2950  145.4040 C   0  0  0  0  0  0  0  0  0  0  0  0
  189.8390  174.5010  141.7800 C   0  0  1  0  0  3  0  0  0  0  0  0
  191.9650  175.7070  142.3960 C   0  0  0  0  0  2  0  0  0  0  0  0
  185.0930  178.2680  147.5500 C   0  0  0  0  0  3  0  0  0  0  0  0
  191.9890  173.9820  140.5870 C   0  0  0  0  0  3  0  0  0  0  0  0
  191.1480  176.1760  143.5640 C   0  0  0  0  0  0  0  0  0  0  0  0
  191.6970  176.4870  144.7510 C   0  0  0  0  0  0  0  0  0  0  0  0
  189.5260  177.3930  145.5410 C   0  0  2  0  0  3  0  0  0  0  0  0
  184.4580  177.8780  146.3670 C   0  0  0  0  0  3  0  0  0  0  0  0
  189.8450  172.9230  139.8420 C   0  0  0  0  0  2  0  0  0  0  0  0
  191.3720  174.3910  141.8940 C   0  0  2  0  0  3  0  0  0  0  0  0
  185.2140  177.3890  145.2970 C   0  0  0  0  0  3  0  0  0  0  0  0
  189.3080  173.1770  141.2540 C   0  0  0  0  0  2  0  0  0  0  0  0
  190.8330  176.7100  145.9560 C   0  0  1  0  0  3  0  0  0  0  0  0
  188.6590  177.6020  146.7020 N   0  0  0  0  0  2  0  0  0  0  0  0
  189.2780  174.7890  143.0410 O   0  0  0  0  0  0  0  0  0  0  0  0
  186.8670  176.3430  143.2530 O   0  0  0  0  0  0  0  0  0  0  0  0
  186.4840  178.1760  147.6610 C   0  0  0  0  0  3  0  0  0  0  0  0
  188.8530  176.6380  144.4680 N   0  0  0  0  0  0  0  0  0  0  0  0
  187.2410  177.6990  146.5860 C   0  0  0  0  0  0  0  0  0  0  0  0
  194.2760  176.5600  145.0700 N   0  0  0  0  0  0  0  0  0  0  0  0
  193.1280  176.5280  144.9280 C   0  0  0  0  0  0  0  0  0  0  0  0
  191.2160  175.3710  148.0310 C   0  0  0  0  0  1  0  0  0  0  0  0
  190.5870  175.3720  146.6510 C   0  0  0  0  0  2  0  0  0  0  0  0
  192.0000  172.8660  138.4160 C   0  0  0  0  0  2  0  0  0  0  0  0
  194.3450  172.0370  138.0590 C   0  0  0  0  0  0  0  0  0  0  0  0
  193.4370  173.0090  138.5750 N   0  0  0  0  0  2  0  0  0  0  0  0
  195.5830  172.1910  138.2200 O   0  0  0  0  0  1  0  0  0  0  0  0
  193.8720  170.9200  137.3800 O   0  0  0  0  0  0  0  0  0  0  0  0
  1 13  1  0  0  0  0
  1  8  2  0  0  0  0
  2 19  1  1  0  0  0
  2  9  1  0  0  0  0
  2 22  1  0  0  0  0
  3 22  1  0  0  0  0
  3  4  1  0  0  0  0
  4 23  1  0  0  0  0
  5 16  1  1  0  0  0
  5 14  1  0  0  0  0
  5 19  1  0  0  0  0
  6  9  1  0  0  0  0
  7 21  1  0  0  0  0
  9 10  2  0  0  0  0
 10 25  1  0  0  0  0
 10 17  1  0  0  0  0
 11 17  1  0  0  0  0
 11 18  1  1  0  0  0
 12  7  2  0  0  0  0
 13 16  1  0  0  0  0
 14  8  1  6  0  0  0
 14  6  1  0  0  0  0
 15  4  2  0  0  0  0
 15 12  1  0  0  0  0
 17 27  1  6  0  0  0
 20  3  2  0  0  0  0
 22 11  1  0  0  0  0
 23 18  1  0  0  0  0
 23 21  2  0  0  0  0
 25 24  3  0  0  0  0
 27 26  1  0  0  0  0
 28 30  1  0  0  0  0
 28  1  1  0  0  0  0
 29 31  1  0  0  0  0
 29 30  1  0  0  0  0
 32 29  2  0  0  0  0
M  END
>  <MODEL>
8

>  <REMARK>
 VINA RESULT:      -7.3      3.145      4.997
  Name = 
  4 active torsions:
  status: ('A' for Active; 'I' for Inactive)
    1  A    between atoms: C_2  and  C_24
    2  A    between atoms: N_10  and  C_24
    3  A    between atoms: C_13  and  C_15
    4  A    between atoms: C_25  and  C_26
                            x       y       z     vdW  Elec       q    Type
                         _______ _______ _______ _____ _____    ______ ____

>  <TORSDO>
F 4

$$$$
=
 OpenBabel11052421413D

 32 36  0  0  1  0  0  0  0  0999 V2000
  194.2520  174.3460  141.7360 C   0  0  0  0  0  0  0  0  0  0  0  0
  189.5700  175.2060  143.0500 C   0  0  1  0  0  3  0  0  0  0  0  0
  188.3740  176.2970  144.9620 C   0  0  0  0  0  0  0  0  0  0  0  0
  187.1660  176.8970  145.5480 C   0  0  0  0  0  0  0  0  0  0  0  0
  191.8120  175.3350  142.8330 C   0  0  1  0  0  3  0  0  0  0  0  0
  190.6100  173.9380  141.1140 C   0  0  0  0  0  2  0  0  0  0  0  0
  184.8680  178.1210  146.5810 C   0  0  0  0  0  3  0  0  0  0  0  0
  193.1060  174.0740  141.0870 C   0  0  0  0  0  3  0  0  0  0  0  0
  189.3980  174.6430  141.6510 C   0  0  0  0  0  0  0  0  0  0  0  0
  188.3070  174.8770  140.9010 C   0  0  0  0  0  0  0  0  0  0  0  0
  187.0670  175.6460  142.9070 C   0  0  2  0  0  3  0  0  0  0  0  0
  186.0050  177.9810  147.3820 C   0  0  0  0  0  3  0  0  0  0  0  0
  194.3090  175.3030  142.9080 C   0  0  0  0  0  2  0  0  0  0  0  0
  191.8320  174.8140  141.3830 C   0  0  2  0  0  3  0  0  0  0  0  0
  187.1540  177.3730  146.8660 C   0  0  0  0  0  3  0  0  0  0  0  0
  193.0590  176.1770  143.0520 C   0  0  0  0  0  2  0  0  0  0  0  0
  187.2270  175.7930  141.3910 C   0  0  1  0  0  3  0  0  0  0  0  0
  186.0290  176.5480  143.4090 N   0  0  0  0  0  2  0  0  0  0  0  0
  190.6540  176.1080  143.0550 O   0  0  0  0  0  0  0  0  0  0  0  0
  189.4250  176.1990  145.6540 O   0  0  0  0  0  0  0  0  0  0  0  0
  184.8760  177.6470  145.2660 C   0  0  0  0  0  3  0  0  0  0  0  0
  188.3570  175.8390  143.5950 N   0  0  0  0  0  0  0  0  0  0  0  0
  186.0210  177.0270  144.7530 C   0  0  0  0  0  0  0  0  0  0  0  0
  188.0780  173.8960  138.5040 N   0  0  0  0  0  0  0  0  0  0  0  0
  188.1800  174.3320  139.5710 C   0  0  0  0  0  0  0  0  0  0  0  0
  186.6090  177.7080  139.9080 C   0  0  0  0  0  1  0  0  0  0  0  0
  187.5630  177.2270  140.9850 C   0  0  0  0  0  2  0  0  0  0  0  0
  195.4800  173.5860  141.3720 C   0  0  0  0  0  2  0  0  0  0  0  0
  197.0770  175.1310  140.1990 C   0  0  0  0  0  0  0  0  0  0  0  0
  196.0550  174.1360  140.1560 N   0  0  0  0  0  2  0  0  0  0  0  0
  197.5470  175.5890  139.1260 O   0  0  0  0  0  0  0  0  0  0  0  0
  197.5560  175.5990  141.4170 O   0  0  0  0  0  1  0  0  0  0  0  0
  1 13  1  0  0  0  0
  2  9  1  6  0  0  0
  2 19  1  0  0  0  0
  2 22  1  0  0  0  0
  3  4  1  0  0  0  0
  3 20  2  0  0  0  0
  4 15  1  0  0  0  0
  5 16  1  6  0  0  0
  5 19  1  0  0  0  0
  6 14  1  0  0  0  0
  6  9  1  0  0  0  0
  7 12  1  0  0  0  0
  8  1  2  0  0  0  0
 10 17  1  0  0  0  0
 10  9  2  0  0  0  0
 11 18  1  1  0  0  0
 11 22  1  0  0  0  0
 13 16  1  0  0  0  0
 14  8  1  1  0  0  0
 14  5  1  0  0  0  0
 15 12  2  0  0  0  0
 17 27  1  1  0  0  0
 17 11  1  0  0  0  0
 18 23  1  0  0  0  0
 21  7  2  0  0  0  0
 22  3  1  0  0  0  0
 23 21  1  0  0  0  0
 23  4  2  0  0  0  0
 24 25  3  0  0  0  0
 25 10  1  0  0  0  0
 26 27  1  0  0  0  0
 28  1  1  0  0  0  0
 29 32  1  0  0  0  0
 30 29  1  0  0  0  0
 30 28  1  0  0  0  0
 31 29  2  0  0  0  0
M  END
>  <MODEL>
9

>  <REMARK>
 VINA RESULT:      -7.2      1.870      2.223
  Name = 
  4 active torsions:
  status: ('A' for Active; 'I' for Inactive)
    1  A    between atoms: C_2  and  C_24
    2  A    between atoms: N_10  and  C_24
    3  A    between atoms: C_13  and  C_15
    4  A    between atoms: C_25  and  C_26
                            x       y       z     vdW  Elec       q    Type
                         _______ _______ _______ _____ _____    ______ ____

>  <TORSDO>
F 4

$$$$
