=
 OpenBabel11052418213D

 27 31  0  0  1  0  0  0  0  0999 V2000
  188.8340  176.0410  145.6090 C   0  0  2  0  0  3  0  0  0  0  0  0
  188.4130  176.8780  143.4200 N   0  0  2  0  0  0  0  0  0  0  0  0
  190.0260  175.5660  144.7610 C   0  0  1  0  0  3  0  0  0  0  0  0
  189.0320  174.0270  140.3000 C   0  0  0  0  0  3  0  0  0  0  0  0
  190.4750  172.5410  139.0080 N   0  0  0  0  0  1  0  0  0  0  0  0
  187.3300  175.9720  142.9970 C   0  0  0  0  0  2  0  0  0  0  0  0
  191.1560  174.6210  142.0180 C   0  0  0  0  0  3  0  0  0  0  0  0
  193.5700  175.7210  146.3150 C   0  0  0  0  0  1  0  0  0  0  0  0
  191.3440  173.7370  140.9520 C   0  0  0  0  0  3  0  0  0  0  0  0
  191.4680  175.3000  147.5150 N   0  0  0  0  0  2  0  0  0  0  0  0
  189.7170  176.1710  143.3870 C   0  0  1  0  0  3  0  0  0  0  0  0
  188.2610  177.2130  144.8420 C   0  0  1  0  0  3  0  0  0  0  0  0
  190.2820  173.4380  140.0950 C   0  0  0  0  0  0  0  0  0  0  0  0
  188.8350  174.9040  141.3710 C   0  0  0  0  0  0  0  0  0  0  0  0
  189.0170  176.2640  147.0510 N   0  0  0  0  0  2  0  0  0  0  0  0
  189.9030  175.2080  142.2360 C   0  0  0  0  0  0  0  0  0  0  0  0
  192.1210  175.2840  146.2010 C   0  0  1  0  0  3  0  0  0  0  0  0
  187.5110  175.5690  141.5430 C   0  0  0  0  0  2  0  0  0  0  0  0
  191.2320  176.6650  148.0030 C   0  0  0  0  0  2  0  0  0  0  0  0
  190.0110  177.2940  147.3300 C   0  0  0  0  0  2  0  0  0  0  0  0
  191.3950  176.1260  145.1530 C   0  0  0  0  0  2  0  0  0  0  0  0
  184.3100  178.5020  145.9010 C   0  0  0  0  0  3  0  0  0  0  0  0
  186.8740  177.6500  145.2470 C   0  0  0  0  0  0  0  0  0  0  0  0
  186.3810  178.8200  144.7530 N   0  0  0  0  0  0  0  0  0  0  0  0
  185.1310  179.2580  145.0620 C   0  0  0  0  0  3  0  0  0  0  0  0
  184.7880  177.2960  146.4130 C   0  0  0  0  0  3  0  0  0  0  0  0
  186.0730  176.8620  146.0860 C   0  0  0  0  0  3  0  0  0  0  0  0
  1 15  1  1  0  0  0
  2  6  1  1  0  0  0
  2 12  1  0  0  0  0
  3 21  1  1  0  0  0
  3  1  1  0  0  0  0
  4 14  1  0  0  0  0
  5 13  1  0  0  0  0
  7 16  1  0  0  0  0
  9  7  2  0  0  0  0
 10 19  1  0  0  0  0
 11 16  1  6  0  0  0
 11  2  1  0  0  0  0
 11  3  1  0  0  0  0
 12 23  1  1  0  0  0
 12  1  1  0  0  0  0
 13  4  2  0  0  0  0
 13  9  1  0  0  0  0
 14 18  1  0  0  0  0
 14 16  2  0  0  0  0
 15 20  1  0  0  0  0
 17  8  1  1  0  0  0
 17 10  1  0  0  0  0
 18  6  1  0  0  0  0
 20 19  1  0  0  0  0
 21 17  1  0  0  0  0
 22 26  1  0  0  0  0
 23 27  1  0  0  0  0
 24 25  1  0  0  0  0
 24 23  2  0  0  0  0
 25 22  2  0  0  0  0
 27 26  2  0  0  0  0
M  END
>  <MODEL>
1

>  <REMARK>
 VINA RESULT:      -8.4      0.000      0.000
  Name = 
  1 active torsions:
  status: ('A' for Active; 'I' for Inactive)
    1  A    between atoms: C_9  and  C_15
                            x       y       z     vdW  Elec       q    Type
                         _______ _______ _______ _____ _____    ______ ____

>  <TORSDO>
F 1

$$$$
=
 OpenBabel11052418213D

 27 31  0  0  1  0  0  0  0  0999 V2000
  190.8030  174.5490  143.5280 C   0  0  2  0  0  3  0  0  0  0  0  0
  190.5840  176.7020  144.5210 N   0  0  2  0  0  0  0  0  0  0  0  0
  189.4000  175.0350  143.1280 C   0  0  1  0  0  3  0  0  0  0  0  0
  186.8630  177.3470  146.5160 C   0  0  0  0  0  3  0  0  0  0  0  0
  184.4300  177.5600  146.5010 N   0  0  0  0  0  1  0  0  0  0  0  0
  190.4070  176.3220  145.9350 C   0  0  0  0  0  2  0  0  0  0  0  0
  186.8330  176.6630  143.8050 C   0  0  0  0  0  3  0  0  0  0  0  0
  188.1790  174.3650  139.5140 C   0  0  0  0  0  1  0  0  0  0  0  0
  185.6350  176.9370  144.4700 C   0  0  0  0  0  3  0  0  0  0  0  0
  189.6740  172.9340  140.8380 N   0  0  0  0  0  2  0  0  0  0  0  0
  189.3420  176.4320  143.7570 C   0  0  1  0  0  3  0  0  0  0  0  0
  191.5600  175.8110  143.8800 C   0  0  1  0  0  3  0  0  0  0  0  0
  185.6500  177.2760  145.8260 C   0  0  0  0  0  0  0  0  0  0  0  0
  188.0630  177.0630  145.8580 C   0  0  0  0  0  0  0  0  0  0  0  0
  191.5200  173.6110  142.6510 N   0  0  0  0  0  2  0  0  0  0  0  0
  188.0530  176.7210  144.4930 C   0  0  0  0  0  0  0  0  0  0  0  0
  188.6720  174.0040  140.9040 C   0  0  1  0  0  3  0  0  0  0  0  0
  189.3540  177.1970  146.5930 C   0  0  0  0  0  2  0  0  0  0  0  0
  190.9520  173.4000  140.2840 C   0  0  0  0  0  2  0  0  0  0  0  0
  191.7640  174.1690  141.3260 C   0  0  0  0  0  2  0  0  0  0  0  0
  189.1650  175.2530  141.6320 C   0  0  0  0  0  2  0  0  0  0  0  0
  195.2150  175.1620  146.0280 C   0  0  0  0  0  3  0  0  0  0  0  0
  192.8440  175.6160  144.6500 C   0  0  0  0  0  0  0  0  0  0  0  0
  193.1790  174.3640  145.0680 N   0  0  0  0  0  0  0  0  0  0  0  0
  194.3320  174.1180  145.7460 C   0  0  0  0  0  3  0  0  0  0  0  0
  194.9010  176.4530  145.6030 C   0  0  0  0  0  3  0  0  0  0  0  0
  193.7130  176.6870  144.9090 C   0  0  0  0  0  3  0  0  0  0  0  0
  1 15  1  6  0  0  0
  1 12  1  0  0  0  0
  2  6  1  1  0  0  0
  3 21  1  6  0  0  0
  3  1  1  0  0  0  0
  3 11  1  0  0  0  0
  6 18  1  0  0  0  0
  7  9  2  0  0  0  0
  7 16  1  0  0  0  0
  9 13  1  0  0  0  0
 10 17  1  0  0  0  0
 11 16  1  1  0  0  0
 11  2  1  0  0  0  0
 12  2  1  0  0  0  0
 12 23  1  1  0  0  0
 13  5  1  0  0  0  0
 13  4  2  0  0  0  0
 14  4  1  0  0  0  0
 14 18  1  0  0  0  0
 16 14  2  0  0  0  0
 17  8  1  6  0  0  0
 17 21  1  0  0  0  0
 19 10  1  0  0  0  0
 19 20  1  0  0  0  0
 20 15  1  0  0  0  0
 23 27  2  0  0  0  0
 23 24  1  0  0  0  0
 24 25  2  0  0  0  0
 25 22  1  0  0  0  0
 26 22  2  0  0  0  0
 27 26  1  0  0  0  0
M  END
>  <MODEL>
2

>  <REMARK>
 VINA RESULT:      -7.7      1.691      6.928
  Name = 
  1 active torsions:
  status: ('A' for Active; 'I' for Inactive)
    1  A    between atoms: C_9  and  C_15
                            x       y       z     vdW  Elec       q    Type
                         _______ _______ _______ _____ _____    ______ ____

>  <TORSDO>
F 1

$$$$
=
 OpenBabel11052418213D

 27 31  0  0  1  0  0  0  0  0999 V2000
  190.5540  174.2850  143.3290 C   0  0  2  0  0  3  0  0  0  0  0  0
  190.4620  176.6550  143.5420 N   0  0  2  0  0  0  0  0  0  0  0  0
  189.2290  174.6970  142.6670 C   0  0  1  0  0  3  0  0  0  0  0  0
  186.6900  178.1540  144.8720 C   0  0  0  0  0  3  0  0  0  0  0  0
  184.2920  178.5000  144.5690 N   0  0  0  0  0  1  0  0  0  0  0  0
  190.1600  176.7770  144.9800 C   0  0  0  0  0  2  0  0  0  0  0  0
  186.7770  176.6130  142.5420 C   0  0  0  0  0  3  0  0  0  0  0  0
  188.1920  172.9430  139.3740 C   0  0  0  0  0  1  0  0  0  0  0  0
  185.5670  177.1650  142.9700 C   0  0  0  0  0  3  0  0  0  0  0  0
  189.4640  171.9420  141.2210 N   0  0  0  0  0  2  0  0  0  0  0  0
  189.2530  176.2240  142.7990 C   0  0  1  0  0  3  0  0  0  0  0  0
  191.3950  175.5430  143.3180 C   0  0  1  0  0  3  0  0  0  0  0  0
  185.5230  177.9340  144.1360 C   0  0  0  0  0  0  0  0  0  0  0  0
  187.9000  177.5940  144.4540 C   0  0  0  0  0  0  0  0  0  0  0  0
  191.2410  173.0670  142.8740 N   0  0  0  0  0  2  0  0  0  0  0  0
  187.9490  176.8200  143.2800 C   0  0  0  0  0  0  0  0  0  0  0  0
  188.5580  173.0330  140.8440 C   0  0  1  0  0  3  0  0  0  0  0  0
  189.1480  177.8850  145.2190 C   0  0  0  0  0  2  0  0  0  0  0  0
  190.8120  172.1180  140.6640 C   0  0  0  0  0  2  0  0  0  0  0  0
  191.6190  173.1370  141.4680 C   0  0  0  0  0  2  0  0  0  0  0  0
  189.1120  174.4200  141.1670 C   0  0  0  0  0  2  0  0  0  0  0  0
  194.8410  175.6230  145.8700 C   0  0  0  0  0  3  0  0  0  0  0  0
  192.6040  175.5360  144.2220 C   0  0  0  0  0  0  0  0  0  0  0  0
  193.6140  176.4160  143.9800 N   0  0  0  0  0  0  0  0  0  0  0  0
  194.7200  176.4750  144.7710 C   0  0  0  0  0  3  0  0  0  0  0  0
  193.8160  174.7180  146.1460 C   0  0  0  0  0  3  0  0  0  0  0  0
  192.6890  174.6710  145.3240 C   0  0  0  0  0  3  0  0  0  0  0  0
  1 15  1  6  0  0  0
  2  6  1  1  0  0  0
  3 21  1  6  0  0  0
  3 11  1  0  0  0  0
  3  1  1  0  0  0  0
  6 18  1  0  0  0  0
  7  9  2  0  0  0  0
  7 16  1  0  0  0  0
  9 13  1  0  0  0  0
 11 16  1  1  0  0  0
 11  2  1  0  0  0  0
 12  1  1  0  0  0  0
 12  2  1  0  0  0  0
 12 23  1  1  0  0  0
 13  5  1  0  0  0  0
 13  4  2  0  0  0  0
 14  4  1  0  0  0  0
 14 18  1  0  0  0  0
 16 14  2  0  0  0  0
 17  8  1  6  0  0  0
 17 21  1  0  0  0  0
 17 10  1  0  0  0  0
 19 10  1  0  0  0  0
 19 20  1  0  0  0  0
 20 15  1  0  0  0  0
 22 26  1  0  0  0  0
 23 27  1  0  0  0  0
 24 23  2  0  0  0  0
 24 25  1  0  0  0  0
 25 22  2  0  0  0  0
 27 26  2  0  0  0  0
M  END
>  <MODEL>
3

>  <REMARK>
 VINA RESULT:      -7.6      1.946      6.670
  Name = 
  1 active torsions:
  status: ('A' for Active; 'I' for Inactive)
    1  A    between atoms: C_9  and  C_15
                            x       y       z     vdW  Elec       q    Type
                         _______ _______ _______ _____ _____    ______ ____

>  <TORSDO>
F 1

$$$$
=
 OpenBabel11052418213D

 27 31  0  0  1  0  0  0  0  0999 V2000
  188.9890  174.8570  143.6360 C   0  0  2  0  0  3  0  0  0  0  0  0
  188.6920  177.1700  144.1180 N   0  0  2  0  0  0  0  0  0  0  0  0
  188.0450  175.3780  142.5400 C   0  0  1  0  0  3  0  0  0  0  0  0
  184.6380  178.4990  143.9210 C   0  0  0  0  0  3  0  0  0  0  0  0
  182.5740  178.9140  142.6830 N   0  0  0  0  0  1  0  0  0  0  0  0
  187.8080  177.0800  145.2950 C   0  0  0  0  0  2  0  0  0  0  0  0
  185.7770  177.3200  141.6570 C   0  0  0  0  0  3  0  0  0  0  0  0
  188.5820  174.1450  138.9070 C   0  0  0  0  0  1  0  0  0  0  0  0
  184.4720  177.8170  141.6050 C   0  0  0  0  0  3  0  0  0  0  0  0
  189.0110  172.8670  140.9610 N   0  0  0  0  0  2  0  0  0  0  0  0
  187.9320  176.8690  142.8810 C   0  0  1  0  0  3  0  0  0  0  0  0
  189.6900  176.0930  144.1570 C   0  0  1  0  0  3  0  0  0  0  0  0
  183.9010  178.4040  142.7380 C   0  0  0  0  0  0  0  0  0  0  0  0
  185.9390  177.9930  143.9810 C   0  0  0  0  0  0  0  0  0  0  0  0
  189.8660  173.7120  143.3490 N   0  0  0  0  0  2  0  0  0  0  0  0
  186.5180  177.4020  142.8430 C   0  0  0  0  0  0  0  0  0  0  0  0
  188.2920  174.0120  140.3910 C   0  0  1  0  0  3  0  0  0  0  0  0
  186.7330  178.1520  145.2350 C   0  0  0  0  0  2  0  0  0  0  0  0
  190.4570  173.1070  141.0560 C   0  0  0  0  0  2  0  0  0  0  0  0
  190.7970  173.9870  142.2600 C   0  0  0  0  0  2  0  0  0  0  0  0
  188.5840  175.3280  141.1080 C   0  0  0  0  0  2  0  0  0  0  0  0
  191.7620  175.7450  147.8960 C   0  0  0  0  0  3  0  0  0  0  0  0
  190.4060  175.9370  145.4780 C   0  0  0  0  0  0  0  0  0  0  0  0
  191.5920  176.5790  145.6640 N   0  0  0  0  0  0  0  0  0  0  0  0
  192.2750  176.4970  146.8380 C   0  0  0  0  0  3  0  0  0  0  0  0
  190.5430  175.0850  147.7340 C   0  0  0  0  0  3  0  0  0  0  0  0
  189.8570  175.1800  146.5230 C   0  0  0  0  0  3  0  0  0  0  0  0
  1 15  1  6  0  0  0
  1 12  1  0  0  0  0
  2 12  1  0  0  0  0
  2  6  1  1  0  0  0
  3 21  1  6  0  0  0
  3 11  1  0  0  0  0
  3  1  1  0  0  0  0
  4 14  1  0  0  0  0
  5 13  1  0  0  0  0
  7 16  1  0  0  0  0
  9  7  2  0  0  0  0
  9 13  1  0  0  0  0
 10 19  1  0  0  0  0
 11 16  1  1  0  0  0
 11  2  1  0  0  0  0
 12 23  1  1  0  0  0
 13  4  2  0  0  0  0
 14 18  1  0  0  0  0
 16 14  2  0  0  0  0
 17  8  1  6  0  0  0
 17 10  1  0  0  0  0
 17 21  1  0  0  0  0
 18  6  1  0  0  0  0
 19 20  1  0  0  0  0
 20 15  1  0  0  0  0
 23 24  2  0  0  0  0
 23 27  1  0  0  0  0
 24 25  1  0  0  0  0
 25 22  2  0  0  0  0
 26 22  1  0  0  0  0
 27 26  2  0  0  0  0
M  END
>  <MODEL>
4

>  <REMARK>
 VINA RESULT:      -7.5      1.899      6.085
  Name = 
  1 active torsions:
  status: ('A' for Active; 'I' for Inactive)
    1  A    between atoms: C_9  and  C_15
                            x       y       z     vdW  Elec       q    Type
                         _______ _______ _______ _____ _____    ______ ____

>  <TORSDO>
F 1

$$$$
=
 OpenBabel11052418213D

 27 31  0  0  1  0  0  0  0  0999 V2000
  188.7900  176.7950  143.4120 C   0  0  2  0  0  3  0  0  0  0  0  0
  189.1800  174.4520  143.2450 N   0  0  2  0  0  0  0  0  0  0  0  0
  188.1650  176.3790  142.0710 C   0  0  1  0  0  3  0  0  0  0  0  0
  190.6300  173.1810  139.4330 C   0  0  0  0  0  3  0  0  0  0  0  0
  190.3610  172.8930  137.0240 N   0  0  0  0  0  1  0  0  0  0  0  0
  190.6240  174.4480  142.9480 C   0  0  0  0  0  2  0  0  0  0  0  0
  188.1900  174.5410  139.5570 C   0  0  0  0  0  3  0  0  0  0  0  0
  184.7520  177.9160  141.0720 C   0  0  0  0  0  1  0  0  0  0  0  0
  188.6620  174.0620  138.3320 C   0  0  0  0  0  3  0  0  0  0  0  0
  186.5160  179.0090  142.3880 N   0  0  0  0  0  2  0  0  0  0  0  0
  188.4100  174.8660  142.0460 C   0  0  1  0  0  3  0  0  0  0  0  0
  188.8700  175.5130  144.2120 C   0  0  1  0  0  3  0  0  0  0  0  0
  189.8830  173.3840  138.2700 C   0  0  0  0  0  0  0  0  0  0  0  0
  190.1670  173.6680  140.6590 C   0  0  0  0  0  0  0  0  0  0  0  0
  188.2430  177.9530  144.1360 N   0  0  0  0  0  2  0  0  0  0  0  0
  188.9380  174.3510  140.7270 C   0  0  0  0  0  0  0  0  0  0  0  0
  186.2240  177.9240  141.4450 C   0  0  1  0  0  3  0  0  0  0  0  0
  190.9480  173.3950  141.9010 C   0  0  0  0  0  2  0  0  0  0  0  0
  185.9680  178.7480  143.7250 C   0  0  0  0  0  2  0  0  0  0  0  0
  186.8440  177.7650  144.5040 C   0  0  0  0  0  2  0  0  0  0  0  0
  186.6480  176.5470  141.9540 C   0  0  0  0  0  2  0  0  0  0  0  0
  191.4450  175.7100  147.6360 C   0  0  0  0  0  3  0  0  0  0  0  0
  189.7670  175.5480  145.4260 C   0  0  0  0  0  0  0  0  0  0  0  0
  190.8860  176.3230  145.3960 N   0  0  0  0  0  0  0  0  0  0  0  0
  191.7230  176.4160  146.4640 C   0  0  0  0  0  3  0  0  0  0  0  0
  190.2990  174.9160  147.6960 C   0  0  0  0  0  3  0  0  0  0  0  0
  189.4520  174.8330  146.5910 C   0  0  0  0  0  3  0  0  0  0  0  0
  1 15  1  1  0  0  0
  1 12  1  0  0  0  0
  2  6  1  6  0  0  0
  2 12  1  0  0  0  0
  3 21  1  1  0  0  0
  3  1  1  0  0  0  0
  4 14  1  0  0  0  0
  5 13  1  0  0  0  0
  7 16  1  0  0  0  0
  9  7  2  0  0  0  0
 10 19  1  0  0  0  0
 11 16  1  6  0  0  0
 11  3  1  0  0  0  0
 11  2  1  0  0  0  0
 12 23  1  1  0  0  0
 13  9  1  0  0  0  0
 13  4  2  0  0  0  0
 14 16  2  0  0  0  0
 14 18  1  0  0  0  0
 15 20  1  0  0  0  0
 17  8  1  1  0  0  0
 17 21  1  0  0  0  0
 17 10  1  0  0  0  0
 18  6  1  0  0  0  0
 19 20  1  0  0  0  0
 22 26  1  0  0  0  0
 23 27  1  0  0  0  0
 24 23  2  0  0  0  0
 24 25  1  0  0  0  0
 25 22  2  0  0  0  0
 27 26  2  0  0  0  0
M  END
>  <MODEL>
5

>  <REMARK>
 VINA RESULT:      -7.4      1.689      4.986
  Name = 
  1 active torsions:
  status: ('A' for Active; 'I' for Inactive)
    1  A    between atoms: C_9  and  C_15
                            x       y       z     vdW  Elec       q    Type
                         _______ _______ _______ _____ _____    ______ ____

>  <TORSDO>
F 1

$$$$
=
 OpenBabel11052418213D

 27 31  0  0  1  0  0  0  0  0999 V2000
  190.9720  175.2610  143.5360 C   0  0  2  0  0  3  0  0  0  0  0  0
  188.7080  174.6610  143.1070 N   0  0  2  0  0  0  0  0  0  0  0  0
  190.1500  176.0140  144.5950 C   0  0  1  0  0  3  0  0  0  0  0  0
  185.9850  177.9510  143.1250 C   0  0  0  0  0  3  0  0  0  0  0  0
  184.8510  179.7910  144.2630 N   0  0  0  0  0  1  0  0  0  0  0  0
  188.4580  175.4430  141.8820 C   0  0  0  0  0  2  0  0  0  0  0  0
  187.5170  177.4630  145.4120 C   0  0  0  0  0  3  0  0  0  0  0  0
  191.5220  176.1880  148.2130 C   0  0  0  0  0  1  0  0  0  0  0  0
  186.5760  178.4960  145.4080 C   0  0  0  0  0  3  0  0  0  0  0  0
  192.8530  176.1320  146.1480 N   0  0  0  0  0  2  0  0  0  0  0  0
  188.7190  175.5520  144.2920 C   0  0  1  0  0  3  0  0  0  0  0  0
  190.0760  174.1260  143.0900 C   0  0  1  0  0  3  0  0  0  0  0  0
  185.8120  178.7420  144.2640 C   0  0  0  0  0  0  0  0  0  0  0  0
  186.9330  176.9240  143.1200 C   0  0  0  0  0  0  0  0  0  0  0  0
  192.3610  174.8830  143.8350 N   0  0  0  0  0  2  0  0  0  0  0  0
  187.7040  176.6730  144.2700 C   0  0  0  0  0  0  0  0  0  0  0  0
  191.5280  176.4160  146.7120 C   0  0  1  0  0  3  0  0  0  0  0  0
  187.0670  176.0530  141.9160 C   0  0  0  0  0  2  0  0  0  0  0  0
  193.1590  174.6960  146.1380 C   0  0  0  0  0  2  0  0  0  0  0  0
  192.4570  173.9850  144.9800 C   0  0  0  0  0  2  0  0  0  0  0  0
  190.4050  175.6180  146.0510 C   0  0  0  0  0  2  0  0  0  0  0  0
  191.2960  172.2220  139.4460 C   0  0  0  0  0  3  0  0  0  0  0  0
  190.4740  173.4380  141.8060 C   0  0  0  0  0  0  0  0  0  0  0  0
  191.3170  174.0780  140.9490 N   0  0  0  0  0  0  0  0  0  0  0  0
  191.7300  173.5040  139.7870 C   0  0  0  0  0  3  0  0  0  0  0  0
  190.4390  171.5410  140.3100 C   0  0  0  0  0  3  0  0  0  0  0  0
  190.0250  172.1460  141.4980 C   0  0  0  0  0  3  0  0  0  0  0  0
  1 15  1  1  0  0  0
  1  3  1  0  0  0  0
  2  6  1  6  0  0  0
  2 11  1  0  0  0  0
  3 21  1  1  0  0  0
  4 13  1  0  0  0  0
  5 13  1  0  0  0  0
  6 18  1  0  0  0  0
  9  7  1  0  0  0  0
 10 17  1  0  0  0  0
 11 16  1  6  0  0  0
 11  3  1  0  0  0  0
 12 23  1  6  0  0  0
 12  2  1  0  0  0  0
 12  1  1  0  0  0  0
 13  9  2  0  0  0  0
 14  4  2  0  0  0  0
 14 16  1  0  0  0  0
 15 20  1  0  0  0  0
 16  7  2  0  0  0  0
 17  8  1  1  0  0  0
 18 14  1  0  0  0  0
 19 10  1  0  0  0  0
 20 19  1  0  0  0  0
 21 17  1  0  0  0  0
 22 25  2  0  0  0  0
 22 26  1  0  0  0  0
 24 23  2  0  0  0  0
 25 24  1  0  0  0  0
 26 27  2  0  0  0  0
 27 23  1  0  0  0  0
M  END
>  <MODEL>
6

>  <REMARK>
 VINA RESULT:      -7.3      1.707      5.897
  Name = 
  1 active torsions:
  status: ('A' for Active; 'I' for Inactive)
    1  A    between atoms: C_9  and  C_15
                            x       y       z     vdW  Elec       q    Type
                         _______ _______ _______ _____ _____    ______ ____

>  <TORSDO>
F 1

$$$$
=
 OpenBabel11052418213D

 27 31  0  0  1  0  0  0  0  0999 V2000
  189.1090  175.0200  141.4030 C   0  0  2  0  0  3  0  0  0  0  0  0
  188.8570  175.4590  143.7300 N   0  0  2  0  0  0  0  0  0  0  0  0
  190.2390  174.2320  142.0850 C   0  0  1  0  0  3  0  0  0  0  0  0
  192.5020  176.4160  145.7410 C   0  0  0  0  0  3  0  0  0  0  0  0
  194.7430  175.8310  146.5130 N   0  0  0  0  0  1  0  0  0  0  0  0
  189.3470  176.8480  143.7890 C   0  0  0  0  0  2  0  0  0  0  0  0
  192.3120  173.9740  144.3950 C   0  0  0  0  0  3  0  0  0  0  0  0
  191.0370  170.6680  140.7960 C   0  0  0  0  0  1  0  0  0  0  0  0
  193.4700  174.2900  145.1100 C   0  0  0  0  0  3  0  0  0  0  0  0
  190.2270  172.5580  139.4520 N   0  0  0  0  0  2  0  0  0  0  0  0
  189.9940  174.5200  143.5710 C   0  0  1  0  0  3  0  0  0  0  0  0
  188.0880  175.2500  142.4970 C   0  0  1  0  0  3  0  0  0  0  0  0
  193.5660  175.5120  145.7810 C   0  0  0  0  0  0  0  0  0  0  0  0
  191.3460  176.1090  145.0180 C   0  0  0  0  0  0  0  0  0  0  0  0
  188.5620  174.5400  140.1260 N   0  0  0  0  0  2  0  0  0  0  0  0
  191.2450  174.8800  144.3410 C   0  0  0  0  0  0  0  0  0  0  0  0
  190.8830  172.1750  140.7070 C   0  0  1  0  0  3  0  0  0  0  0  0
  190.1960  177.0600  145.0310 C   0  0  0  0  0  2  0  0  0  0  0  0
  188.8010  172.2070  139.4390 C   0  0  0  0  0  2  0  0  0  0  0  0
  187.9720  173.2120  140.2400 C   0  0  0  0  0  2  0  0  0  0  0  0
  190.1730  172.7090  141.9500 C   0  0  0  0  0  2  0  0  0  0  0  0
  185.1290  178.2190  141.5900 C   0  0  0  0  0  3  0  0  0  0  0  0
  187.0430  176.3030  142.2130 C   0  0  0  0  0  0  0  0  0  0  0  0
  187.0870  176.9720  141.0280 N   0  0  0  0  0  0  0  0  0  0  0  0
  186.1630  177.9160  140.7030 C   0  0  0  0  0  3  0  0  0  0  0  0
  185.0550  177.5410  142.8070 C   0  0  0  0  0  3  0  0  0  0  0  0
  186.0120  176.5760  143.1240 C   0  0  0  0  0  3  0  0  0  0  0  0
  1 15  1  6  0  0  0
  1  3  1  0  0  0  0
  1 12  1  0  0  0  0
  2  6  1  6  0  0  0
  3 21  1  1  0  0  0
  3 11  1  0  0  0  0
  4 13  1  0  0  0  0
  6 18  1  0  0  0  0
  7  9  1  0  0  0  0
  9 13  2  0  0  0  0
 10 17  1  0  0  0  0
 11  2  1  0  0  0  0
 11 16  1  6  0  0  0
 12 23  1  6  0  0  0
 12  2  1  0  0  0  0
 13  5  1  0  0  0  0
 14 18  1  0  0  0  0
 14  4  2  0  0  0  0
 15 20  1  0  0  0  0
 16  7  2  0  0  0  0
 16 14  1  0  0  0  0
 17  8  1  1  0  0  0
 17 21  1  0  0  0  0
 19 10  1  0  0  0  0
 19 20  1  0  0  0  0
 22 26  1  0  0  0  0
 23 27  1  0  0  0  0
 24 23  2  0  0  0  0
 25 24  1  0  0  0  0
 25 22  2  0  0  0  0
 26 27  2  0  0  0  0
M  END
>  <MODEL>
7

>  <REMARK>
 VINA RESULT:      -7.1      2.151      5.515
  Name = 
  1 active torsions:
  status: ('A' for Active; 'I' for Inactive)
    1  A    between atoms: C_9  and  C_15
                            x       y       z     vdW  Elec       q    Type
                         _______ _______ _______ _____ _____    ______ ____

>  <TORSDO>
F 1

$$$$
=
 OpenBabel11052418213D

 27 31  0  0  1  0  0  0  0  0999 V2000
  189.7990  175.3870  142.6800 C   0  0  2  0  0  3  0  0  0  0  0  0
  191.1170  175.2480  144.6580 N   0  0  2  0  0  0  0  0  0  0  0  0
  191.1030  174.6990  142.2450 C   0  0  1  0  0  3  0  0  0  0  0  0
  195.1920  176.4180  144.1380 C   0  0  0  0  0  3  0  0  0  0  0  0
  197.3990  176.1170  143.1380 N   0  0  0  0  0  1  0  0  0  0  0  0
  191.5240  176.6570  144.8010 C   0  0  0  0  0  2  0  0  0  0  0  0
  194.1800  174.3410  142.5650 C   0  0  0  0  0  3  0  0  0  0  0  0
  190.8820  171.7250  139.7740 C   0  0  0  0  0  1  0  0  0  0  0  0
  195.5240  174.7070  142.4580 C   0  0  0  0  0  3  0  0  0  0  0  0
  189.3880  173.6740  139.8490 N   0  0  0  0  0  2  0  0  0  0  0  0
  191.8810  174.6020  143.5630 C   0  0  1  0  0  3  0  0  0  0  0  0
  189.7310  175.1710  144.1770 C   0  0  1  0  0  3  0  0  0  0  0  0
  196.0290  175.7470  143.2430 C   0  0  0  0  0  0  0  0  0  0  0  0
  193.8440  176.0630  144.2400 C   0  0  0  0  0  0  0  0  0  0  0  0
  188.5540  175.1040  141.9500 N   0  0  0  0  0  2  0  0  0  0  0  0
  193.3310  175.0160  143.4520 C   0  0  0  0  0  0  0  0  0  0  0  0
  190.7030  173.1580  140.2440 C   0  0  1  0  0  3  0  0  0  0  0  0
  192.9760  176.7500  145.2400 C   0  0  0  0  0  2  0  0  0  0  0  0
  188.2960  173.0680  140.6220 C   0  0  0  0  0  2  0  0  0  0  0  0
  188.1830  173.6950  142.0130 C   0  0  0  0  0  2  0  0  0  0  0  0
  190.9690  173.2590  141.7450 C   0  0  0  0  0  2  0  0  0  0  0  0
  186.8960  177.6630  146.2130 C   0  0  0  0  0  3  0  0  0  0  0  0
  188.7500  176.0420  144.9250 C   0  0  0  0  0  0  0  0  0  0  0  0
  188.1930  177.1070  144.2860 N   0  0  0  0  0  0  0  0  0  0  0  0
  187.2860  177.9160  144.8970 C   0  0  0  0  0  3  0  0  0  0  0  0
  187.4450  176.5720  146.8880 C   0  0  0  0  0  3  0  0  0  0  0  0
  188.3750  175.7530  146.2460 C   0  0  0  0  0  3  0  0  0  0  0  0
  1 15  1  6  0  0  0
  1 12  1  0  0  0  0
  2  6  1  6  0  0  0
  3 21  1  1  0  0  0
  3  1  1  0  0  0  0
  3 11  1  0  0  0  0
  4 14  1  0  0  0  0
  5 13  1  0  0  0  0
  6 18  1  0  0  0  0
  7 16  1  0  0  0  0
  9  7  2  0  0  0  0
  9 13  1  0  0  0  0
 10 17  1  0  0  0  0
 10 19  1  0  0  0  0
 11 16  1  6  0  0  0
 11  2  1  0  0  0  0
 12  2  1  0  0  0  0
 12 23  1  1  0  0  0
 13  4  2  0  0  0  0
 14 18  1  0  0  0  0
 15 20  1  0  0  0  0
 16 14  2  0  0  0  0
 17  8  1  1  0  0  0
 17 21  1  0  0  0  0
 19 20  1  0  0  0  0
 22 26  1  0  0  0  0
 23 27  1  0  0  0  0
 24 25  1  0  0  0  0
 24 23  2  0  0  0  0
 25 22  2  0  0  0  0
 27 26  2  0  0  0  0
M  END
>  <MODEL>
8

>  <REMARK>
 VINA RESULT:      -7.1      2.409      5.289
  Name = 
  1 active torsions:
  status: ('A' for Active; 'I' for Inactive)
    1  A    between atoms: C_9  and  C_15
                            x       y       z     vdW  Elec       q    Type
                         _______ _______ _______ _____ _____    ______ ____

>  <TORSDO>
F 1

$$$$
=
 OpenBabel11052418213D

 27 31  0  0  1  0  0  0  0  0999 V2000
  189.5030  175.4420  143.1510 C   0  0  2  0  0  3  0  0  0  0  0  0
  190.1300  175.1170  145.4250 N   0  0  2  0  0  0  0  0  0  0  0  0
  190.6910  174.4680  143.1040 C   0  0  1  0  0  3  0  0  0  0  0  0
  194.3350  175.3510  146.1380 C   0  0  0  0  0  3  0  0  0  0  0  0
  196.6130  174.5310  145.8210 N   0  0  0  0  0  1  0  0  0  0  0  0
  190.7790  176.4110  145.7050 C   0  0  0  0  0  2  0  0  0  0  0  0
  193.3860  173.4680  144.3020 C   0  0  0  0  0  3  0  0  0  0  0  0
  190.5390  171.4950  140.6260 C   0  0  0  0  0  1  0  0  0  0  0  0
  194.7500  173.5290  144.5990 C   0  0  0  0  0  3  0  0  0  0  0  0
  189.5580  173.7230  140.2950 N   0  0  0  0  0  2  0  0  0  0  0  0
  191.0140  174.2690  144.5900 C   0  0  1  0  0  3  0  0  0  0  0  0
  188.9610  175.3200  144.5590 C   0  0  1  0  0  3  0  0  0  0  0  0
  195.2240  174.4720  145.5150 C   0  0  0  0  0  0  0  0  0  0  0  0
  192.9710  175.3010  145.8350 C   0  0  0  0  0  0  0  0  0  0  0  0
  188.4910  175.4000  142.0840 N   0  0  0  0  0  2  0  0  0  0  0  0
  192.4890  174.3530  144.9140 C   0  0  0  0  0  0  0  0  0  0  0  0
  190.5550  172.9540  141.0470 C   0  0  1  0  0  3  0  0  0  0  0  0
  192.0260  176.2080  146.5500 C   0  0  0  0  0  2  0  0  0  0  0  0
  188.1830  173.4060  140.7050 C   0  0  0  0  0  2  0  0  0  0  0  0
  187.8160  174.1100  142.0120 C   0  0  0  0  0  2  0  0  0  0  0  0
  190.3920  173.0690  142.5620 C   0  0  0  0  0  2  0  0  0  0  0  0
  186.2650  178.4450  145.7220 C   0  0  0  0  0  3  0  0  0  0  0  0
  188.0230  176.4170  145.0030 C   0  0  0  0  0  0  0  0  0  0  0  0
  187.7040  177.4070  144.1240 N   0  0  0  0  0  0  0  0  0  0  0  0
  186.8480  178.4110  144.4540 C   0  0  0  0  0  3  0  0  0  0  0  0
  186.5680  177.4380  146.6380 C   0  0  0  0  0  3  0  0  0  0  0  0
  187.4480  176.4160  146.2820 C   0  0  0  0  0  3  0  0  0  0  0  0
  1 15  1  6  0  0  0
  1 12  1  0  0  0  0
  2  6  1  6  0  0  0
  3 21  1  1  0  0  0
  3  1  1  0  0  0  0
  3 11  1  0  0  0  0
  6 18  1  0  0  0  0
  7  9  2  0  0  0  0
  7 16  1  0  0  0  0
  9 13  1  0  0  0  0
 10 19  1  0  0  0  0
 10 17  1  0  0  0  0
 11 16  1  6  0  0  0
 11  2  1  0  0  0  0
 12 23  1  1  0  0  0
 12  2  1  0  0  0  0
 13  5  1  0  0  0  0
 13  4  2  0  0  0  0
 14  4  1  0  0  0  0
 14 18  1  0  0  0  0
 16 14  2  0  0  0  0
 17  8  1  6  0  0  0
 17 21  1  0  0  0  0
 19 20  1  0  0  0  0
 20 15  1  0  0  0  0
 22 26  1  0  0  0  0
 23 27  1  0  0  0  0
 24 25  1  0  0  0  0
 24 23  2  0  0  0  0
 25 22  2  0  0  0  0
 27 26  2  0  0  0  0
M  END
>  <MODEL>
9

>  <REMARK>
 VINA RESULT:      -7.0      1.894      5.179
  Name = 
  1 active torsions:
  status: ('A' for Active; 'I' for Inactive)
    1  A    between atoms: C_9  and  C_15
                            x       y       z     vdW  Elec       q    Type
                         _______ _______ _______ _____ _____    ______ ____

>  <TORSDO>
F 1

$$$$
