=
 OpenBabel11052419083D

 32 38  0  0  1  0  0  0  0  0999 V2000
  188.3550  175.8540  143.0190 C   0  0  1  0  0  3  0  0  0  0  0  0
  188.4900  176.3380  145.3470 C   0  0  1  0  0  0  0  0  0  0  0  0
  191.3310  172.0900  143.0190 C   0  0  1  0  0  3  0  0  0  0  0  0
  188.0180  174.6590  142.2640 N   0  0  0  0  0  2  0  0  0  0  0  0
  187.5210  175.8960  144.2890 C   0  0  1  0  0  3  0  0  0  0  0  0
  187.9890  176.9490  146.6000 C   0  0  2  0  0  3  0  0  0  0  0  0
  191.9800  171.0150  143.8750 C   0  0  0  0  0  1  0  0  0  0  0  0
  189.8780  175.8330  145.0130 C   0  0  1  0  0  3  0  0  0  0  0  0
  186.4470  177.0870  146.6400 C   0  0  1  0  0  3  0  0  0  0  0  0
  190.1480  171.5080  142.1960 C   0  0  1  0  0  3  0  0  0  0  0  0
  189.1140  173.7690  142.2870 C   0  0  0  0  0  0  0  0  0  0  0  0
  188.4930  177.7360  145.5410 O   0  0  0  0  0  0  0  0  0  0  0  0
  186.3550  176.7670  144.2000 N   0  0  0  0  0  0  0  0  0  0  0  0
  189.0160  172.4810  141.9560 C   0  0  0  0  0  3  0  0  0  0  0  0
  190.9640  173.3190  143.8650 C   0  0  2  0  0  3  0  0  0  0  0  0
  190.0820  172.9540  144.8910 O   0  0  0  0  0  1  0  0  0  0  0  0
  189.8340  175.6920  143.4810 C   0  0  1  0  0  3  0  0  0  0  0  0
  186.1320  178.2340  147.5860 C   0  0  0  0  0  1  0  0  0  0  0  0
  190.3190  174.3420  142.9210 C   0  0  2  0  0  3  0  0  0  0  0  0
  185.7920  177.2750  145.2600 C   0  0  0  0  0  0  0  0  0  0  0  0
  193.2000  176.3830  146.6210 C   0  0  0  0  0  2  0  0  0  0  0  0
  193.4550  176.9600  145.2330 C   0  0  2  0  0  3  0  0  0  0  0  0
  192.1190  177.0690  144.5200 C   0  0  2  0  0  3  0  0  0  0  0  0
  191.0560  176.6690  145.5490 C   0  0  2  0  0  3  0  0  0  0  0  0
  193.0880  175.9510  144.1640 C   0  0  0  0  0  2  0  0  0  0  0  0
  191.7370  176.0020  146.7240 C   0  0  0  0  0  2  0  0  0  0  0  0
  184.5800  177.9540  145.0860 O   0  0  0  0  0  0  0  0  0  0  0  0
  184.3580  178.9170  144.0660 C   0  0  0  0  0  2  0  0  0  0  0  0
  185.4070  180.0050  144.1620 C   0  0  0  0  0  1  0  0  0  0  0  0
  190.6380  170.9820  140.8560 C   0  0  0  0  0  2  0  0  0  0  0  0
  191.1780  172.5680  139.1700 O   0  0  0  0  0  1  0  0  0  0  0  0
  191.6980  171.8980  140.2740 C   0  0  0  0  0  2  0  0  0  0  0  0
  1  4  1  6  0  0  0
  1 17  1  0  0  0  0
  1  5  1  0  0  0  0
  2 12  1  6  0  0  0
  2  6  1  0  0  0  0
  3 15  1  0  0  0  0
  3  7  1  1  0  0  0
  4 11  1  0  0  0  0
  5 13  1  6  0  0  0
  5  2  1  0  0  0  0
  6 12  1  6  0  0  0
  6  9  1  0  0  0  0
  8  2  1  0  0  0  0
  8 24  1  6  0  0  0
  9 18  1  1  0  0  0
 10 30  1  6  0  0  0
 10  3  1  0  0  0  0
 11 19  1  0  0  0  0
 13 20  2  0  0  0  0
 14 10  1  0  0  0  0
 14 11  2  0  0  0  0
 15 16  1  1  0  0  0
 17  8  1  0  0  0  0
 19 17  1  0  0  0  0
 19 15  1  0  0  0  0
 20  9  1  0  0  0  0
 21 26  1  0  0  0  0
 22 21  1  0  0  0  0
 23 22  1  0  0  0  0
 23 24  1  0  0  0  0
 24 26  1  0  0  0  0
 25 23  1  0  0  0  0
 25 22  1  0  0  0  0
 27 20  1  0  0  0  0
 28 29  1  0  0  0  0
 28 27  1  0  0  0  0
 31 32  1  0  0  0  0
 32 30  1  0  0  0  0
M  END
>  <MODEL>
1

>  <REMARK>
 VINA RESULT:      -7.6      0.000      0.000
  Name = 
  5 active torsions:
  status: ('A' for Active; 'I' for Inactive)
    1  A    between atoms: C_10  and  C_28
    2  A    between atoms: O_14  and  C_21
    3  A    between atoms: O_14  and  C_29
    4  A    between atoms: C_15  and  C_19
    5  A    between atoms: C_19  and  C_26
                            x       y       z     vdW  Elec       q    Type
                         _______ _______ _______ _____ _____    ______ ____

>  <TORSDO>
F 5

$$$$
=
 OpenBabel11052419083D

 32 38  0  0  1  0  0  0  0  0999 V2000
  188.8320  176.6500  142.9170 C   0  0  1  0  0  3  0  0  0  0  0  0
  188.9180  176.5510  145.2950 C   0  0  1  0  0  0  0  0  0  0  0  0
  190.8170  172.3630  142.0690 C   0  0  1  0  0  3  0  0  0  0  0  0
  188.2730  175.7760  141.8990 N   0  0  0  0  0  2  0  0  0  0  0  0
  187.9470  176.6110  144.1520 C   0  0  1  0  0  3  0  0  0  0  0  0
  188.4920  176.9690  146.6510 C   0  0  2  0  0  3  0  0  0  0  0  0
  191.1290  170.9970  142.6570 C   0  0  0  0  0  1  0  0  0  0  0  0
  190.1650  175.8050  144.8680 C   0  0  1  0  0  3  0  0  0  0  0  0
  187.0280  177.4730  146.7040 C   0  0  1  0  0  3  0  0  0  0  0  0
  189.5890  172.2930  141.1200 C   0  0  1  0  0  3  0  0  0  0  0  0
  189.1200  174.6600  141.7260 C   0  0  0  0  0  0  0  0  0  0  0  0
  189.2420  177.8240  145.8110 O   0  0  0  0  0  0  0  0  0  0  0  0
  187.0320  177.7420  144.2560 N   0  0  0  0  0  0  0  0  0  0  0  0
  188.7400  173.5450  141.1010 C   0  0  0  0  0  3  0  0  0  0  0  0
  190.6960  173.4230  143.1760 C   0  0  2  0  0  3  0  0  0  0  0  0
  189.6830  173.0690  144.0770 O   0  0  0  0  0  1  0  0  0  0  0  0
  190.1940  176.0260  143.3450 C   0  0  1  0  0  3  0  0  0  0  0  0
  186.9320  178.4210  147.8890 C   0  0  0  0  0  1  0  0  0  0  0  0
  190.3800  174.7580  142.4900 C   0  0  2  0  0  3  0  0  0  0  0  0
  186.5350  178.1220  145.3990 C   0  0  0  0  0  0  0  0  0  0  0  0
  193.5910  175.2140  146.2260 C   0  0  0  0  0  2  0  0  0  0  0  0
  193.8710  176.3170  145.2110 C   0  0  2  0  0  3  0  0  0  0  0  0
  192.5370  176.8780  144.7500 C   0  0  2  0  0  3  0  0  0  0  0  0
  191.4690  176.1800  145.5990 C   0  0  2  0  0  3  0  0  0  0  0  0
  193.3250  175.9360  143.8490 C   0  0  0  0  0  2  0  0  0  0  0  0
  192.0930  174.9890  146.2920 C   0  0  0  0  0  2  0  0  0  0  0  0
  185.5350  179.1030  145.3740 O   0  0  0  0  0  0  0  0  0  0  0  0
  184.1510  178.8120  145.2500 C   0  0  0  0  0  2  0  0  0  0  0  0
  183.7480  178.8880  143.7920 C   0  0  0  0  0  1  0  0  0  0  0  0
  190.0290  171.9760  139.6990 C   0  0  0  0  0  2  0  0  0  0  0  0
  191.0140  173.6710  138.3550 O   0  0  0  0  0  1  0  0  0  0  0  0
  191.2950  172.7360  139.3480 C   0  0  0  0  0  2  0  0  0  0  0  0
  1  4  1  6  0  0  0
  1 17  1  0  0  0  0
  1  5  1  0  0  0  0
  2 12  1  6  0  0  0
  2  6  1  0  0  0  0
  3  7  1  1  0  0  0
  3 15  1  0  0  0  0
  5 13  1  1  0  0  0
  5  2  1  0  0  0  0
  6 12  1  6  0  0  0
  6  9  1  0  0  0  0
  8  2  1  0  0  0  0
  8 24  1  1  0  0  0
  9 18  1  1  0  0  0
 10 30  1  6  0  0  0
 10  3  1  0  0  0  0
 11  4  1  0  0  0  0
 11 19  1  0  0  0  0
 13 20  2  0  0  0  0
 14 10  1  0  0  0  0
 14 11  2  0  0  0  0
 15 16  1  1  0  0  0
 17  8  1  0  0  0  0
 19 15  1  0  0  0  0
 19 17  1  0  0  0  0
 20  9  1  0  0  0  0
 21 26  1  0  0  0  0
 22 21  1  0  0  0  0
 23 22  1  0  0  0  0
 23 24  1  0  0  0  0
 24 26  1  0  0  0  0
 25 23  1  0  0  0  0
 25 22  1  0  0  0  0
 27 20  1  0  0  0  0
 28 27  1  0  0  0  0
 29 28  1  0  0  0  0
 31 32  1  0  0  0  0
 32 30  1  0  0  0  0
M  END
>  <MODEL>
2

>  <REMARK>
 VINA RESULT:      -7.2      1.041      1.082
  Name = 
  5 active torsions:
  status: ('A' for Active; 'I' for Inactive)
    1  A    between atoms: C_10  and  C_28
    2  A    between atoms: O_14  and  C_21
    3  A    between atoms: O_14  and  C_29
    4  A    between atoms: C_15  and  C_19
    5  A    between atoms: C_19  and  C_26
                            x       y       z     vdW  Elec       q    Type
                         _______ _______ _______ _____ _____    ______ ____

>  <TORSDO>
F 5

$$$$
=
 OpenBabel11052419083D

 32 38  0  0  1  0  0  0  0  0999 V2000
  188.9520  176.2910  145.2950 C   0  0  1  0  0  3  0  0  0  0  0  0
  187.9240  176.6020  143.1700 C   0  0  1  0  0  0  0  0  0  0  0  0
  193.3540  175.2630  143.6850 C   0  0  1  0  0  3  0  0  0  0  0  0
  190.1180  176.8750  145.9380 N   0  0  0  0  0  2  0  0  0  0  0  0
  188.2800  177.3420  144.4270 C   0  0  1  0  0  3  0  0  0  0  0  0
  186.8600  177.1240  142.2810 C   0  0  2  0  0  3  0  0  0  0  0  0
  194.3070  175.3760  142.5060 C   0  0  0  0  0  1  0  0  0  0  0  0
  188.9450  175.5150  142.9090 C   0  0  1  0  0  3  0  0  0  0  0  0
  186.1960  178.4180  142.8150 C   0  0  1  0  0  3  0  0  0  0  0  0
  193.6970  176.3100  144.7800 C   0  0  1  0  0  3  0  0  0  0  0  0
  191.2870  176.2970  145.3950 C   0  0  0  0  0  0  0  0  0  0  0  0
  186.6160  176.0730  143.1940 O   0  0  0  0  0  0  0  0  0  0  0  0
  187.1220  177.9700  145.0530 N   0  0  0  0  0  0  0  0  0  0  0  0
  192.5010  176.8260  145.5480 C   0  0  0  0  0  3  0  0  0  0  0  0
  191.8920  175.3020  143.2140 C   0  0  2  0  0  3  0  0  0  0  0  0
  191.6350  176.4970  142.5290 O   0  0  0  0  0  1  0  0  0  0  0  0
  189.4780  175.1970  144.3180 C   0  0  1  0  0  3  0  0  0  0  0  0
  184.7980  178.4720  142.2220 C   0  0  0  0  0  1  0  0  0  0  0  0
  191.0110  175.1840  144.4640 C   0  0  2  0  0  3  0  0  0  0  0  0
  186.1820  178.5360  144.3490 C   0  0  0  0  0  0  0  0  0  0  0  0
  188.9070  173.0940  140.0690 C   0  0  0  0  0  2  0  0  0  0  0  0
  189.2610  172.1700  141.2290 C   0  0  2  0  0  3  0  0  0  0  0  0
  189.0540  172.9400  142.5210 C   0  0  2  0  0  3  0  0  0  0  0  0
  188.4510  174.2900  142.1160 C   0  0  2  0  0  3  0  0  0  0  0  0
  190.4600  172.7050  141.9870 C   0  0  0  0  0  2  0  0  0  0  0  0
  188.6180  174.4750  140.6240 C   0  0  0  0  0  2  0  0  0  0  0  0
  185.2040  179.2610  145.0420 O   0  0  0  0  0  0  0  0  0  0  0  0
  184.1540  178.6560  145.7820 C   0  0  0  0  0  2  0  0  0  0  0  0
  184.5750  178.5110  147.2290 C   0  0  0  0  0  1  0  0  0  0  0  0
  194.7060  175.7400  145.7660 C   0  0  0  0  0  2  0  0  0  0  0  0
  195.8830  173.6760  145.7650 O   0  0  0  0  0  1  0  0  0  0  0  0
  194.6060  174.2270  145.8220 C   0  0  0  0  0  2  0  0  0  0  0  0
  1  4  1  6  0  0  0
  2 12  1  1  0  0  0
  2  5  1  0  0  0  0
  3  7  1  6  0  0  0
  3 10  1  0  0  0  0
  5 13  1  1  0  0  0
  5  1  1  0  0  0  0
  6  9  1  0  0  0  0
  6  2  1  0  0  0  0
  6 12  1  1  0  0  0
  8 24  1  1  0  0  0
  8  2  1  0  0  0  0
  8 17  1  0  0  0  0
  9 18  1  1  0  0  0
  9 20  1  0  0  0  0
 10 14  1  0  0  0  0
 10 30  1  1  0  0  0
 11 14  2  0  0  0  0
 11  4  1  0  0  0  0
 15 16  1  1  0  0  0
 15  3  1  0  0  0  0
 15 19  1  0  0  0  0
 17 19  1  0  0  0  0
 17  1  1  0  0  0  0
 19 11  1  0  0  0  0
 20 27  1  0  0  0  0
 20 13  2  0  0  0  0
 21 26  1  0  0  0  0
 21 22  1  0  0  0  0
 22 25  1  0  0  0  0
 22 23  1  0  0  0  0
 24 23  1  0  0  0  0
 25 23  1  0  0  0  0
 26 24  1  0  0  0  0
 27 28  1  0  0  0  0
 28 29  1  0  0  0  0
 30 32  1  0  0  0  0
 31 32  1  0  0  0  0
M  END
>  <MODEL>
3

>  <REMARK>
 VINA RESULT:      -7.2      2.152      4.846
  Name = 
  5 active torsions:
  status: ('A' for Active; 'I' for Inactive)
    1  A    between atoms: C_10  and  C_28
    2  A    between atoms: O_14  and  C_21
    3  A    between atoms: O_14  and  C_29
    4  A    between atoms: C_15  and  C_19
    5  A    between atoms: C_19  and  C_26
                            x       y       z     vdW  Elec       q    Type
                         _______ _______ _______ _____ _____    ______ ____

>  <TORSDO>
F 5

$$$$
=
 OpenBabel11052419083D

 32 38  0  0  1  0  0  0  0  0999 V2000
  188.3870  176.3000  142.0530 C   0  0  1  0  0  3  0  0  0  0  0  0
  187.6680  176.4240  144.3190 C   0  0  1  0  0  0  0  0  0  0  0  0
  191.1810  172.4260  142.5240 C   0  0  1  0  0  3  0  0  0  0  0  0
  188.3530  175.2490  141.0480 N   0  0  0  0  0  2  0  0  0  0  0  0
  187.1500  176.1950  142.9290 C   0  0  1  0  0  3  0  0  0  0  0  0
  186.7440  176.8660  145.3900 C   0  0  2  0  0  3  0  0  0  0  0  0
  191.4810  171.2030  143.3750 C   0  0  0  0  0  1  0  0  0  0  0  0
  189.0850  175.9020  144.4300 C   0  0  1  0  0  3  0  0  0  0  0  0
  185.2910  177.0770  144.8960 C   0  0  1  0  0  3  0  0  0  0  0  0
  190.3790  172.0370  141.2520 C   0  0  1  0  0  3  0  0  0  0  0  0
  189.3710  174.3090  141.3220 C   0  0  0  0  0  0  0  0  0  0  0  0
  187.5940  177.7750  144.7200 O   0  0  0  0  0  0  0  0  0  0  0  0
  186.0910  177.1300  142.5670 N   0  0  0  0  0  0  0  0  0  0  0  0
  189.4050  173.0930  140.7790 C   0  0  0  0  0  3  0  0  0  0  0  0
  190.5260  173.5330  143.3660 C   0  0  2  0  0  3  0  0  0  0  0  0
  189.3340  173.0670  143.9360 O   0  0  0  0  0  1  0  0  0  0  0  0
  189.6000  175.9930  142.9820 C   0  0  1  0  0  3  0  0  0  0  0  0
  184.6500  178.0860  145.8350 C   0  0  0  0  0  1  0  0  0  0  0  0
  190.2610  174.7170  142.4280 C   0  0  2  0  0  3  0  0  0  0  0  0
  185.1800  177.5030  143.4210 C   0  0  0  0  0  0  0  0  0  0  0  0
  191.1900  176.0770  147.5070 C   0  0  0  0  0  2  0  0  0  0  0  0
  192.2200  176.4190  146.4350 C   0  0  2  0  0  3  0  0  0  0  0  0
  191.4770  176.6620  145.1330 C   0  0  2  0  0  3  0  0  0  0  0  0
  189.9850  176.5860  145.4770 C   0  0  2  0  0  3  0  0  0  0  0  0
  192.2300  175.3570  145.3530 C   0  0  0  0  0  2  0  0  0  0  0  0
  189.8280  175.9680  146.8500 C   0  0  0  0  0  2  0  0  0  0  0  0
  184.1100  178.2630  142.9330 O   0  0  0  0  0  0  0  0  0  0  0  0
  183.6890  178.2510  141.5770 C   0  0  0  0  0  2  0  0  0  0  0  0
  182.1760  178.2520  141.5180 C   0  0  0  0  0  1  0  0  0  0  0  0
  191.3230  171.6910  140.1110 C   0  0  0  0  0  2  0  0  0  0  0  0
  191.1040  169.3290  140.2570 O   0  0  0  0  0  1  0  0  0  0  0  0
  190.8820  170.4160  139.4160 C   0  0  0  0  0  2  0  0  0  0  0  0
  1  4  1  6  0  0  0
  1  5  1  0  0  0  0
  1 17  1  0  0  0  0
  2  8  1  0  0  0  0
  2 12  1  6  0  0  0
  2  6  1  0  0  0  0
  3 15  1  0  0  0  0
  3  7  1  1  0  0  0
  4 11  1  0  0  0  0
  5 13  1  6  0  0  0
  5  2  1  0  0  0  0
  6 12  1  6  0  0  0
  8 24  1  1  0  0  0
  9  6  1  0  0  0  0
  9 18  1  1  0  0  0
 10 30  1  6  0  0  0
 10  3  1  0  0  0  0
 11 19  1  0  0  0  0
 13 20  2  0  0  0  0
 14 10  1  0  0  0  0
 14 11  2  0  0  0  0
 15 16  1  6  0  0  0
 17  8  1  0  0  0  0
 19 17  1  0  0  0  0
 19 15  1  0  0  0  0
 20  9  1  0  0  0  0
 22 21  1  0  0  0  0
 23 25  1  0  0  0  0
 23 24  1  0  0  0  0
 23 22  1  0  0  0  0
 24 26  1  0  0  0  0
 25 22  1  0  0  0  0
 26 21  1  0  0  0  0
 27 20  1  0  0  0  0
 28 27  1  0  0  0  0
 29 28  1  0  0  0  0
 32 30  1  0  0  0  0
 32 31  1  0  0  0  0
M  END
>  <MODEL>
4

>  <REMARK>
 VINA RESULT:      -7.2      1.498      1.791
  Name = 
  5 active torsions:
  status: ('A' for Active; 'I' for Inactive)
    1  A    between atoms: C_10  and  C_28
    2  A    between atoms: O_14  and  C_21
    3  A    between atoms: O_14  and  C_29
    4  A    between atoms: C_15  and  C_19
    5  A    between atoms: C_19  and  C_26
                            x       y       z     vdW  Elec       q    Type
                         _______ _______ _______ _____ _____    ______ ____

>  <TORSDO>
F 5

$$$$
=
 OpenBabel11052419083D

 32 38  0  0  1  0  0  0  0  0999 V2000
  190.6550  175.0230  146.0070 C   0  0  1  0  0  3  0  0  0  0  0  0
  189.5210  175.9700  144.1400 C   0  0  1  0  0  0  0  0  0  0  0  0
  194.8870  174.3370  143.8500 C   0  0  1  0  0  3  0  0  0  0  0  0
  191.8890  175.3530  146.7010 N   0  0  0  0  0  2  0  0  0  0  0  0
  189.9940  176.3030  145.5250 C   0  0  1  0  0  3  0  0  0  0  0  0
  188.4370  176.7640  143.5170 C   0  0  2  0  0  3  0  0  0  0  0  0
  195.7720  174.7480  142.6850 C   0  0  0  0  0  1  0  0  0  0  0  0
  190.4610  174.9670  143.5060 C   0  0  1  0  0  3  0  0  0  0  0  0
  187.8810  177.8750  144.4440 C   0  0  1  0  0  3  0  0  0  0  0  0
  195.3540  175.0110  145.1700 C   0  0  1  0  0  3  0  0  0  0  0  0
  192.9890  174.9120  145.9320 C   0  0  0  0  0  0  0  0  0  0  0  0
  188.1890  175.5060  144.1100 O   0  0  0  0  0  0  0  0  0  0  0  0
  188.9130  176.7690  146.3880 N   0  0  0  0  0  0  0  0  0  0  0  0
  194.2370  175.3300  146.1390 C   0  0  0  0  0  3  0  0  0  0  0  0
  193.4040  174.5640  143.5190 C   0  0  2  0  0  3  0  0  0  0  0  0
  193.1750  175.9150  143.2230 O   0  0  0  0  0  1  0  0  0  0  0  0
  191.0590  174.2370  144.7240 C   0  0  1  0  0  3  0  0  0  0  0  0
  186.4550  178.1490  143.9960 C   0  0  0  0  0  1  0  0  0  0  0  0
  192.5940  174.1250  144.7460 C   0  0  2  0  0  3  0  0  0  0  0  0
  187.9660  177.5470  145.9450 C   0  0  0  0  0  0  0  0  0  0  0  0
  190.5160  172.6960  140.5450 C   0  0  0  0  0  2  0  0  0  0  0  0
  190.0030  171.7480  141.6230 C   0  0  2  0  0  3  0  0  0  0  0  0
  189.6570  172.5760  142.8480 C   0  0  2  0  0  3  0  0  0  0  0  0
  189.8510  174.0400  142.4370 C   0  0  2  0  0  3  0  0  0  0  0  0
  190.9360  171.7500  142.8180 C   0  0  0  0  0  2  0  0  0  0  0  0
  190.6240  174.0870  141.1380 C   0  0  0  0  0  2  0  0  0  0  0  0
  187.0750  178.0790  146.8850 O   0  0  0  0  0  0  0  0  0  0  0  0
  185.9300  177.3870  147.3620 C   0  0  0  0  0  2  0  0  0  0  0  0
  184.7180  178.2910  147.2660 C   0  0  0  0  0  1  0  0  0  0  0  0
  196.3860  174.1450  145.8750 C   0  0  0  0  0  2  0  0  0  0  0  0
  197.1880  171.9130  145.7180 O   0  0  0  0  0  1  0  0  0  0  0  0
  196.0240  172.6760  145.7590 C   0  0  0  0  0  2  0  0  0  0  0  0
  1  4  1  6  0  0  0
  2 12  1  1  0  0  0
  2  5  1  0  0  0  0
  3  7  1  6  0  0  0
  3 10  1  0  0  0  0
  5  1  1  0  0  0  0
  5 13  1  1  0  0  0
  6 12  1  1  0  0  0
  6  2  1  0  0  0  0
  6  9  1  0  0  0  0
  8 24  1  6  0  0  0
  8  2  1  0  0  0  0
  8 17  1  0  0  0  0
  9 18  1  6  0  0  0
  9 20  1  0  0  0  0
 10 30  1  1  0  0  0
 10 14  1  0  0  0  0
 11 14  2  0  0  0  0
 11  4  1  0  0  0  0
 15 16  1  1  0  0  0
 15  3  1  0  0  0  0
 15 19  1  0  0  0  0
 17 19  1  0  0  0  0
 17  1  1  0  0  0  0
 19 11  1  0  0  0  0
 20 13  2  0  0  0  0
 20 27  1  0  0  0  0
 21 26  1  0  0  0  0
 21 22  1  0  0  0  0
 22 25  1  0  0  0  0
 22 23  1  0  0  0  0
 24 23  1  0  0  0  0
 25 23  1  0  0  0  0
 26 24  1  0  0  0  0
 27 28  1  0  0  0  0
 29 28  1  0  0  0  0
 31 32  1  0  0  0  0
 32 30  1  0  0  0  0
M  END
>  <MODEL>
5

>  <REMARK>
 VINA RESULT:      -6.9      2.672      4.973
  Name = 
  5 active torsions:
  status: ('A' for Active; 'I' for Inactive)
    1  A    between atoms: C_10  and  C_28
    2  A    between atoms: O_14  and  C_21
    3  A    between atoms: O_14  and  C_29
    4  A    between atoms: C_15  and  C_19
    5  A    between atoms: C_19  and  C_26
                            x       y       z     vdW  Elec       q    Type
                         _______ _______ _______ _____ _____    ______ ____

>  <TORSDO>
F 5

$$$$
=
 OpenBabel11052419083D

 32 38  0  0  1  0  0  0  0  0999 V2000
  189.5230  174.3200  141.8390 C   0  0  1  0  0  3  0  0  0  0  0  0
  191.4880  174.9660  143.0170 C   0  0  1  0  0  0  0  0  0  0  0  0
  186.6150  177.6900  143.6340 C   0  0  1  0  0  3  0  0  0  0  0  0
  188.6010  175.0280  140.9660 N   0  0  0  0  0  2  0  0  0  0  0  0
  190.9270  174.8610  141.6290 C   0  0  1  0  0  3  0  0  0  0  0  0
  192.9550  174.9980  143.2220 C   0  0  2  0  0  3  0  0  0  0  0  0
  186.5530  179.0450  144.3190 C   0  0  0  0  0  1  0  0  0  0  0  0
  190.3760  175.2750  143.9970 C   0  0  1  0  0  3  0  0  0  0  0  0
  193.7600  174.8780  141.9040 C   0  0  1  0  0  3  0  0  0  0  0  0
  186.2830  177.8140  142.1220 C   0  0  1  0  0  3  0  0  0  0  0  0
  187.7500  175.8400  141.7470 C   0  0  0  0  0  0  0  0  0  0  0  0
  192.2040  173.8160  143.4110 O   0  0  0  0  0  0  0  0  0  0  0  0
  191.7520  174.0340  140.7540 N   0  0  0  0  0  0  0  0  0  0  0  0
  187.0140  176.8280  141.2380 C   0  0  0  0  0  3  0  0  0  0  0  0
  187.9490  176.9860  143.9290 C   0  0  2  0  0  3  0  0  0  0  0  0
  189.0200  177.7740  143.4860 O   0  0  0  0  0  1  0  0  0  0  0  0
  189.1320  174.6920  143.3000 C   0  0  1  0  0  3  0  0  0  0  0  0
  195.1150  174.2930  142.2680 C   0  0  0  0  0  1  0  0  0  0  0  0
  187.9200  175.6370  143.2000 C   0  0  2  0  0  3  0  0  0  0  0  0
  193.0540  174.0680  140.8030 C   0  0  0  0  0  0  0  0  0  0  0  0
  190.8580  175.6750  147.6760 C   0  0  0  0  0  2  0  0  0  0  0  0
  189.5380  174.9130  147.6420 C   0  0  2  0  0  3  0  0  0  0  0  0
  189.3190  174.4210  146.2210 C   0  0  2  0  0  3  0  0  0  0  0  0
  190.5870  174.7920  145.4450 C   0  0  2  0  0  3  0  0  0  0  0  0
  188.5410  175.6200  146.7460 C   0  0  0  0  0  2  0  0  0  0  0  0
  191.3900  175.7820  146.2600 C   0  0  0  0  0  2  0  0  0  0  0  0
  193.7550  173.3720  139.8100 O   0  0  0  0  0  0  0  0  0  0  0  0
  193.6510  171.9700  139.6090 C   0  0  0  0  0  2  0  0  0  0  0  0
  193.6670  171.2660  140.9500 C   0  0  0  0  0  1  0  0  0  0  0  0
  184.7870  177.6670  141.8900 C   0  0  0  0  0  2  0  0  0  0  0  0
  183.0010  178.2390  140.4300 O   0  0  0  0  0  1  0  0  0  0  0  0
  184.3860  178.2850  140.5640 C   0  0  0  0  0  2  0  0  0  0  0  0
  1  4  1  6  0  0  0
  1 17  1  0  0  0  0
  2  6  1  0  0  0  0
  2 12  1  1  0  0  0
  2  8  1  0  0  0  0
  3 15  1  0  0  0  0
  3  7  1  6  0  0  0
  4 11  1  0  0  0  0
  5 13  1  6  0  0  0
  5  1  1  0  0  0  0
  5  2  1  0  0  0  0
  6 12  1  1  0  0  0
  8 24  1  1  0  0  0
  9 18  1  1  0  0  0
  9  6  1  0  0  0  0
 10 30  1  1  0  0  0
 10  3  1  0  0  0  0
 11 19  1  0  0  0  0
 13 20  2  0  0  0  0
 14 11  2  0  0  0  0
 14 10  1  0  0  0  0
 15 16  1  6  0  0  0
 17  8  1  0  0  0  0
 19 17  1  0  0  0  0
 19 15  1  0  0  0  0
 20  9  1  0  0  0  0
 22 21  1  0  0  0  0
 23 25  1  0  0  0  0
 23 22  1  0  0  0  0
 24 23  1  0  0  0  0
 24 26  1  0  0  0  0
 25 22  1  0  0  0  0
 26 21  1  0  0  0  0
 27 20  1  0  0  0  0
 28 27  1  0  0  0  0
 28 29  1  0  0  0  0
 31 32  1  0  0  0  0
 32 30  1  0  0  0  0
M  END
>  <MODEL>
6

>  <REMARK>
 VINA RESULT:      -6.5      2.309      6.948
  Name = 
  5 active torsions:
  status: ('A' for Active; 'I' for Inactive)
    1  A    between atoms: C_10  and  C_28
    2  A    between atoms: O_14  and  C_21
    3  A    between atoms: O_14  and  C_29
    4  A    between atoms: C_15  and  C_19
    5  A    between atoms: C_19  and  C_26
                            x       y       z     vdW  Elec       q    Type
                         _______ _______ _______ _____ _____    ______ ____

>  <TORSDO>
F 5

$$$$
=
 OpenBabel11052419083D

 32 38  0  0  1  0  0  0  0  0999 V2000
  189.8750  175.3960  142.9480 C   0  0  1  0  0  3  0  0  0  0  0  0
  190.5720  175.9300  145.1610 C   0  0  1  0  0  0  0  0  0  0  0  0
  192.1200  171.1670  142.6200 C   0  0  1  0  0  3  0  0  0  0  0  0
  189.1950  174.2530  142.3610 N   0  0  0  0  0  2  0  0  0  0  0  0
  189.3440  175.6290  144.3520 C   0  0  1  0  0  3  0  0  0  0  0  0
  190.4520  176.6630  146.4430 C   0  0  2  0  0  3  0  0  0  0  0  0
  192.7460  170.0250  143.4030 C   0  0  0  0  0  1  0  0  0  0  0  0
  191.7560  175.1760  144.5940 C   0  0  1  0  0  3  0  0  0  0  0  0
  188.9960  177.0730  146.7800 C   0  0  1  0  0  3  0  0  0  0  0  0
  190.7120  170.7750  142.0930 C   0  0  1  0  0  3  0  0  0  0  0  0
  190.1090  173.1840  142.2280 C   0  0  0  0  0  0  0  0  0  0  0  0
  190.8470  177.3110  145.2510 O   0  0  0  0  0  0  0  0  0  0  0  0
  188.3450  176.6890  144.4360 N   0  0  0  0  0  0  0  0  0  0  0  0
  189.7310  171.9240  142.0150 C   0  0  0  0  0  3  0  0  0  0  0  0
  192.1470  172.4710  143.4330 C   0  0  2  0  0  3  0  0  0  0  0  0
  191.4500  172.3040  144.6370 O   0  0  0  0  0  1  0  0  0  0  0  0
  191.3710  174.9910  143.1150 C   0  0  1  0  0  3  0  0  0  0  0  0
  189.0810  178.2900  147.6860 C   0  0  0  0  0  1  0  0  0  0  0  0
  191.4980  173.5570  142.5670 C   0  0  2  0  0  3  0  0  0  0  0  0
  188.1090  177.3250  145.5490 C   0  0  0  0  0  0  0  0  0  0  0  0
  195.3000  175.2670  145.7620 C   0  0  0  0  0  2  0  0  0  0  0  0
  195.4880  175.4600  144.2610 C   0  0  2  0  0  3  0  0  0  0  0  0
  194.1230  175.7230  143.6490 C   0  0  2  0  0  3  0  0  0  0  0  0
  193.1420  175.8090  144.8240 C   0  0  2  0  0  3  0  0  0  0  0  0
  194.7830  174.3600  143.4930 C   0  0  0  0  0  2  0  0  0  0  0  0
  193.8140  175.2670  146.0660 C   0  0  0  0  0  2  0  0  0  0  0  0
  187.0160  178.2010  145.5720 O   0  0  0  0  0  0  0  0  0  0  0  0
  185.9350  178.0870  146.4840 C   0  0  0  0  0  2  0  0  0  0  0  0
  185.1920  176.7930  146.2270 C   0  0  0  0  0  1  0  0  0  0  0  0
  190.8170  170.1240  140.7230 C   0  0  0  0  0  2  0  0  0  0  0  0
  191.4390  171.6560  139.0160 O   0  0  0  0  0  1  0  0  0  0  0  0
  191.9530  170.7340  139.9240 C   0  0  0  0  0  2  0  0  0  0  0  0
  1  4  1  1  0  0  0
  1 17  1  0  0  0  0
  1  5  1  0  0  0  0
  2 12  1  6  0  0  0
  2  6  1  0  0  0  0
  3  7  1  1  0  0  0
  3 15  1  0  0  0  0
  5 13  1  6  0  0  0
  5  2  1  0  0  0  0
  6 12  1  6  0  0  0
  6  9  1  0  0  0  0
  8 24  1  6  0  0  0
  8  2  1  0  0  0  0
  9 18  1  1  0  0  0
 10 30  1  6  0  0  0
 10  3  1  0  0  0  0
 11  4  1  0  0  0  0
 11 19  1  0  0  0  0
 13 20  2  0  0  0  0
 14 10  1  0  0  0  0
 14 11  2  0  0  0  0
 15 16  1  1  0  0  0
 17  8  1  0  0  0  0
 19 17  1  0  0  0  0
 19 15  1  0  0  0  0
 20 27  1  0  0  0  0
 20  9  1  0  0  0  0
 21 26  1  0  0  0  0
 22 21  1  0  0  0  0
 23 22  1  0  0  0  0
 23 24  1  0  0  0  0
 24 26  1  0  0  0  0
 25 23  1  0  0  0  0
 25 22  1  0  0  0  0
 27 28  1  0  0  0  0
 29 28  1  0  0  0  0
 31 32  1  0  0  0  0
 32 30  1  0  0  0  0
M  END
>  <MODEL>
7

>  <REMARK>
 VINA RESULT:      -6.0      1.475      2.086
  Name = 
  5 active torsions:
  status: ('A' for Active; 'I' for Inactive)
    1  A    between atoms: C_10  and  C_28
    2  A    between atoms: O_14  and  C_21
    3  A    between atoms: O_14  and  C_29
    4  A    between atoms: C_15  and  C_19
    5  A    between atoms: C_19  and  C_26
                            x       y       z     vdW  Elec       q    Type
                         _______ _______ _______ _____ _____    ______ ____

>  <TORSDO>
F 5

$$$$
=
 OpenBabel11052419083D

 32 38  0  0  1  0  0  0  0  0999 V2000
  191.7600  176.5500  142.7940 C   0  0  1  0  0  3  0  0  0  0  0  0
  192.4660  175.1100  144.5540 C   0  0  1  0  0  0  0  0  0  0  0  0
  187.1300  176.7850  144.0350 C   0  0  1  0  0  3  0  0  0  0  0  0
  191.0610  177.8240  142.7630 N   0  0  0  0  0  2  0  0  0  0  0  0
  192.6560  176.5000  144.0200 C   0  0  1  0  0  3  0  0  0  0  0  0
  193.4920  174.5110  145.4400 C   0  0  2  0  0  3  0  0  0  0  0  0
  186.1330  176.5940  145.1660 C   0  0  0  0  0  1  0  0  0  0  0  0
  191.0590  174.6360  144.2570 C   0  0  1  0  0  3  0  0  0  0  0  0
  194.7080  175.4400  145.6830 C   0  0  1  0  0  3  0  0  0  0  0  0
  187.4330  178.2910  143.8080 C   0  0  1  0  0  3  0  0  0  0  0  0
  189.6870  177.6070  143.0070 C   0  0  0  0  0  0  0  0  0  0  0  0
  193.4230  174.1960  144.0640 O   0  0  0  0  0  0  0  0  0  0  0  0
  194.0550  176.8050  143.7400 N   0  0  0  0  0  0  0  0  0  0  0  0
  188.8430  178.5830  143.3440 C   0  0  0  0  0  3  0  0  0  0  0  0
  188.3800  175.9180  144.2540 C   0  0  2  0  0  3  0  0  0  0  0  0
  188.9940  176.2520  145.4690 O   0  0  0  0  0  1  0  0  0  0  0  0
  190.6780  175.4490  143.0070 C   0  0  1  0  0  3  0  0  0  0  0  0
  195.8870  174.5410  146.0170 C   0  0  0  0  0  1  0  0  0  0  0  0
  189.3230  176.1770  143.0720 C   0  0  2  0  0  3  0  0  0  0  0  0
  195.0170  176.3960  144.5180 C   0  0  0  0  0  0  0  0  0  0  0  0
  189.1150  171.4520  144.1450 C   0  0  0  0  0  2  0  0  0  0  0  0
  189.6980  171.4820  142.7360 C   0  0  2  0  0  3  0  0  0  0  0  0
  190.7460  172.5800  142.6870 C   0  0  2  0  0  3  0  0  0  0  0  0
  190.8670  173.1130  144.1180 C   0  0  2  0  0  3  0  0  0  0  0  0
  189.3770  172.7990  142.0580 C   0  0  0  0  0  2  0  0  0  0  0  0
  189.6920  172.6140  144.9300 C   0  0  0  0  0  2  0  0  0  0  0  0
  196.3050  176.8830  144.2630 O   0  0  0  0  0  0  0  0  0  0  0  0
  196.9450  176.7900  142.9980 C   0  0  0  0  0  2  0  0  0  0  0  0
  197.1860  175.3340  142.6600 C   0  0  0  0  0  1  0  0  0  0  0  0
  186.4530  178.8880  142.8100 C   0  0  0  0  0  2  0  0  0  0  0  0
  186.7690  177.9110  140.6670 O   0  0  0  0  0  1  0  0  0  0  0  0
  185.9900  177.8380  141.8180 C   0  0  0  0  0  2  0  0  0  0  0  0
  1  4  1  1  0  0  0
  1 17  1  0  0  0  0
  1  5  1  0  0  0  0
  2 12  1  6  0  0  0
  2  6  1  0  0  0  0
  3 15  1  0  0  0  0
  3  7  1  1  0  0  0
  4 11  1  0  0  0  0
  5 13  1  6  0  0  0
  5  2  1  0  0  0  0
  6 12  1  6  0  0  0
  6  9  1  0  0  0  0
  8 24  1  6  0  0  0
  8  2  1  0  0  0  0
  9 18  1  6  0  0  0
 10 30  1  6  0  0  0
 10  3  1  0  0  0  0
 11 19  1  0  0  0  0
 11 14  2  0  0  0  0
 13 20  2  0  0  0  0
 14 10  1  0  0  0  0
 15 16  1  1  0  0  0
 17 19  1  0  0  0  0
 17  8  1  0  0  0  0
 19 15  1  0  0  0  0
 20  9  1  0  0  0  0
 21 26  1  0  0  0  0
 22 21  1  0  0  0  0
 23 22  1  0  0  0  0
 23 24  1  0  0  0  0
 24 26  1  0  0  0  0
 25 23  1  0  0  0  0
 25 22  1  0  0  0  0
 27 20  1  0  0  0  0
 28 27  1  0  0  0  0
 29 28  1  0  0  0  0
 31 32  1  0  0  0  0
 32 30  1  0  0  0  0
M  END
>  <MODEL>
8

>  <REMARK>
 VINA RESULT:      -6.0      2.890      7.050
  Name = 
  5 active torsions:
  status: ('A' for Active; 'I' for Inactive)
    1  A    between atoms: C_10  and  C_28
    2  A    between atoms: O_14  and  C_21
    3  A    between atoms: O_14  and  C_29
    4  A    between atoms: C_15  and  C_19
    5  A    between atoms: C_19  and  C_26
                            x       y       z     vdW  Elec       q    Type
                         _______ _______ _______ _____ _____    ______ ____

>  <TORSDO>
F 5

$$$$
=
 OpenBabel11052419083D

 32 38  0  0  1  0  0  0  0  0999 V2000
  193.9070  176.0250  142.7260 C   0  0  1  0  0  3  0  0  0  0  0  0
  192.9640  174.2040  143.9360 C   0  0  1  0  0  0  0  0  0  0  0  0
  197.4030  173.5550  140.5580 C   0  0  1  0  0  3  0  0  0  0  0  0
  194.1930  176.2500  141.3180 N   0  0  0  0  0  2  0  0  0  0  0  0
  192.6420  175.1920  142.8520 C   0  0  1  0  0  3  0  0  0  0  0  0
  191.8690  173.5370  144.6780 C   0  0  2  0  0  3  0  0  0  0  0  0
  197.8740  172.1730  140.1340 C   0  0  0  0  0  1  0  0  0  0  0  0
  194.4420  173.8780  143.9090 C   0  0  1  0  0  3  0  0  0  0  0  0
  190.4580  173.9990  144.2340 C   0  0  1  0  0  3  0  0  0  0  0  0
  196.8280  174.3420  139.3480 C   0  0  1  0  0  3  0  0  0  0  0  0
  195.3570  175.5350  140.9600 C   0  0  0  0  0  0  0  0  0  0  0  0
  192.5650  174.6420  145.2170 O   0  0  0  0  0  0  0  0  0  0  0  0
  191.4480  175.9760  143.1480 N   0  0  0  0  0  0  0  0  0  0  0  0
  195.7020  175.2890  139.6960 C   0  0  0  0  0  3  0  0  0  0  0  0
  196.4500  173.4660  141.7600 C   0  0  2  0  0  3  0  0  0  0  0  0
  195.3350  172.6800  141.4370 O   0  0  0  0  0  1  0  0  0  0  0  0
  195.0620  175.1410  143.2840 C   0  0  1  0  0  3  0  0  0  0  0  0
  189.5300  173.7750  145.4160 C   0  0  0  0  0  1  0  0  0  0  0  0
  196.0300  174.8990  142.1110 C   0  0  2  0  0  3  0  0  0  0  0  0
  190.4010  175.4470  143.7160 C   0  0  0  0  0  0  0  0  0  0  0  0
  196.7950  171.9920  146.1070 C   0  0  0  0  0  2  0  0  0  0  0  0
  197.2200  173.4280  146.3980 C   0  0  2  0  0  3  0  0  0  0  0  0
  196.1810  174.3540  145.7910 C   0  0  2  0  0  3  0  0  0  0  0  0
  195.0710  173.4480  145.2480 C   0  0  2  0  0  3  0  0  0  0  0  0
  197.5280  174.1610  145.1080 C   0  0  0  0  0  2  0  0  0  0  0  0
  195.5780  172.0230  145.2040 C   0  0  0  0  0  2  0  0  0  0  0  0
  189.2450  176.2340  143.7990 O   0  0  0  0  0  0  0  0  0  0  0  0
  189.1920  177.4840  144.4690 C   0  0  0  0  0  2  0  0  0  0  0  0
  188.2630  177.3800  145.6600 C   0  0  0  0  0  1  0  0  0  0  0  0
  197.9290  175.1230  138.6470 C   0  0  0  0  0  2  0  0  0  0  0  0
  197.5650  175.9610  136.4530 O   0  0  0  0  0  1  0  0  0  0  0  0
  197.9390  174.8220  137.1610 C   0  0  0  0  0  2  0  0  0  0  0  0
  1  4  1  6  0  0  0
  1  5  1  0  0  0  0
  1 17  1  0  0  0  0
  2  6  1  0  0  0  0
  2 12  1  1  0  0  0
  3  7  1  6  0  0  0
  3 15  1  0  0  0  0
  5 13  1  1  0  0  0
  5  2  1  0  0  0  0
  6 12  1  1  0  0  0
  8  2  1  0  0  0  0
  8 24  1  1  0  0  0
  9  6  1  0  0  0  0
  9 18  1  1  0  0  0
 10 30  1  1  0  0  0
 10 14  1  0  0  0  0
 10  3  1  0  0  0  0
 11  4  1  0  0  0  0
 11 19  1  0  0  0  0
 13 20  2  0  0  0  0
 14 11  2  0  0  0  0
 15 16  1  6  0  0  0
 15 19  1  0  0  0  0
 17  8  1  0  0  0  0
 19 17  1  0  0  0  0
 20 27  1  0  0  0  0
 20  9  1  0  0  0  0
 21 22  1  0  0  0  0
 23 22  1  0  0  0  0
 24 23  1  0  0  0  0
 25 23  1  0  0  0  0
 25 22  1  0  0  0  0
 26 24  1  0  0  0  0
 26 21  1  0  0  0  0
 27 28  1  0  0  0  0
 28 29  1  0  0  0  0
 31 32  1  0  0  0  0
 32 30  1  0  0  0  0
M  END
>  <MODEL>
9

>  <REMARK>
 VINA RESULT:      -5.9      4.324      6.010
  Name = 
  5 active torsions:
  status: ('A' for Active; 'I' for Inactive)
    1  A    between atoms: C_10  and  C_28
    2  A    between atoms: O_14  and  C_21
    3  A    between atoms: O_14  and  C_29
    4  A    between atoms: C_15  and  C_19
    5  A    between atoms: C_19  and  C_26
                            x       y       z     vdW  Elec       q    Type
                         _______ _______ _______ _____ _____    ______ ____

>  <TORSDO>
F 5

$$$$
