=
 OpenBabel11052419113D

 32 37  0  0  1  0  0  0  0  0999 V2000
  189.3700  174.5660  143.3020 C   0  0  1  0  0  3  0  0  0  0  0  0
  188.3750  176.8080  142.9430 C   0  0  1  0  0  3  0  0  0  0  0  0
  189.4550  173.1100  142.8120 C   0  0  0  0  0  2  0  0  0  0  0  0
  188.2860  175.3520  142.5800 C   0  0  1  0  0  3  0  0  0  0  0  0
  187.0910  177.4270  142.4910 C   0  0  1  0  0  3  0  0  0  0  0  0
  188.5050  177.1120  144.4260 C   0  0  1  0  0  3  0  0  0  0  0  0
  187.5520  178.3060  144.6660 C   0  0  1  0  0  3  0  0  0  0  0  0
  188.3830  175.2430  141.0580 C   0  0  2  0  0  3  0  0  0  0  0  0
  187.0180  178.7110  143.2850 C   0  0  0  0  0  2  0  0  0  0  0  0
  187.2360  176.0450  140.3990 C   0  0  0  0  0  2  0  0  0  0  0  0
  188.3940  173.7810  140.5880 C   0  0  0  0  0  2  0  0  0  0  0  0
  188.3090  175.8580  145.3050 C   0  0  0  0  0  2  0  0  0  0  0  0
  189.1690  174.6520  144.8310 C   0  0  2  0  0  3  0  0  0  0  0  0
  187.1070  177.4860  140.9560 C   0  0  1  0  0  3  0  0  0  0  0  0
  188.4060  172.7620  141.7420 C   0  0  0  0  0  2  0  0  0  0  0  0
  191.0210  176.6710  146.9540 C   0  0  1  0  0  3  0  0  0  0  0  0
  191.2150  177.0750  148.2790 O   0  0  0  0  0  1  0  0  0  0  0  0
  192.0570  176.3940  144.8000 C   0  0  0  0  0  2  0  0  0  0  0  0
  190.5060  174.5270  145.5730 C   0  0  1  0  0  3  0  0  0  0  0  0
  192.2640  176.8390  146.1850 N   0  0  0  0  0  0  0  0  0  0  0  0
  191.7280  174.8970  144.7200 C   0  0  0  0  0  2  0  0  0  0  0  0
  190.4940  175.2570  146.8860 C   0  0  0  0  0  0  0  0  0  0  0  0
  189.9850  174.7320  147.8640 O   0  0  0  0  0  0  0  0  0  0  0  0
  194.4300  176.7670  146.4760 C   0  0  0  0  0  1  0  0  0  0  0  0
  193.2440  176.0790  146.7440 O   0  0  0  0  0  0  0  0  0  0  0  0
  184.4400  177.5320  146.4030 N   0  0  0  0  0  0  0  0  0  0  0  0
  186.4300  178.1600  146.9930 C   0  0  0  0  0  3  0  0  0  0  0  0
  186.4250  178.0220  145.6200 C   0  0  0  0  0  0  0  0  0  0  0  0
  185.2200  177.8480  147.3970 O   0  0  0  0  0  0  0  0  0  0  0  0
  185.1540  177.6330  145.2660 C   0  0  0  0  0  3  0  0  0  0  0  0
  185.8480  178.0930  140.4220 C   0  0  0  0  0  3  0  0  0  0  0  0
  184.6920  177.9520  141.0660 C   0  0  0  0  0  2  0  0  0  0  0  0
  1  3  1  6  0  0  0
  1 13  1  0  0  0  0
  2  6  1  0  0  0  0
  4  2  1  0  0  0  0
  4  1  1  0  0  0  0
  5  2  1  0  0  0  0
  5  9  1  0  0  0  0
  6  7  1  0  0  0  0
  6 12  1  0  0  0  0
  7 28  1  0  0  0  0
  8  4  1  0  0  0  0
  9  7  1  0  0  0  0
 10 14  1  0  0  0  0
 10  8  1  0  0  0  0
 11  8  1  0  0  0  0
 11 15  1  0  0  0  0
 13 12  1  0  0  0  0
 13 19  1  0  0  0  0
 14  5  1  0  0  0  0
 15  3  1  0  0  0  0
 16 17  1  0  0  0  0
 18 20  1  0  0  0  0
 19 22  1  0  0  0  0
 20 25  1  0  0  0  0
 20 16  1  0  0  0  0
 21 18  1  0  0  0  0
 21 19  1  0  0  0  0
 22 16  1  0  0  0  0
 22 23  2  0  0  0  0
 24 25  1  0  0  0  0
 26 29  1  0  0  0  0
 27 29  1  0  0  0  0
 28 27  2  0  0  0  0
 30 28  1  0  0  0  0
 30 26  2  0  0  0  0
 31 14  1  0  0  0  0
 31 32  2  0  0  0  0
M  END
>  <MODEL>
1

>  <REMARK>
 VINA RESULT:      -8.0      0.000      0.000
  Name = 
  4 active torsions:
  status: ('A' for Active; 'I' for Inactive)
    1  A    between atoms: C_12  and  C_28
    2  A    between atoms: C_13  and  C_29
    3  A    between atoms: C_16  and  C_27
    4  A    between atoms: N_19  and  O_26
                            x       y       z     vdW  Elec       q    Type
                         _______ _______ _______ _____ _____    ______ ____

>  <TORSDO>
F 4

$$$$
=
 OpenBabel11052419113D

 32 37  0  0  1  0  0  0  0  0999 V2000
  190.3410  177.0130  145.8530 C   0  0  1  0  0  3  0  0  0  0  0  0
  191.7030  176.1560  143.9660 C   0  0  1  0  0  3  0  0  0  0  0  0
  190.2370  177.1920  147.3770 C   0  0  0  0  0  2  0  0  0  0  0  0
  191.5210  176.1370  145.4590 C   0  0  1  0  0  3  0  0  0  0  0  0
  192.6220  175.0210  143.6470 C   0  0  1  0  0  3  0  0  0  0  0  0
  190.4430  175.9400  143.1450 C   0  0  1  0  0  3  0  0  0  0  0  0
  190.8710  174.9720  142.0180 C   0  0  1  0  0  3  0  0  0  0  0  0
  192.8370  176.5860  146.0950 C   0  0  2  0  0  3  0  0  0  0  0  0
  192.3870  174.7810  142.1730 C   0  0  0  0  0  2  0  0  0  0  0  0
  193.9790  175.6340  145.6680 C   0  0  0  0  0  2  0  0  0  0  0  0
  192.7270  176.6890  147.6240 C   0  0  0  0  0  2  0  0  0  0  0  0
  189.2350  175.5290  144.0150 C   0  0  0  0  0  2  0  0  0  0  0  0
  189.0340  176.4610  145.2430 C   0  0  2  0  0  3  0  0  0  0  0  0
  194.0290  175.3970  144.1370 C   0  0  1  0  0  3  0  0  0  0  0  0
  191.3100  176.4190  148.1610 C   0  0  0  0  0  2  0  0  0  0  0  0
  185.6100  176.8390  145.6240 C   0  0  1  0  0  3  0  0  0  0  0  0
  184.5810  177.1660  146.5130 O   0  0  0  0  0  1  0  0  0  0  0  0
  186.2850  176.7810  143.3150 C   0  0  0  0  0  2  0  0  0  0  0  0
  188.0210  177.5870  144.9960 C   0  0  1  0  0  3  0  0  0  0  0  0
  185.1920  177.1090  144.2400 N   0  0  0  0  0  0  0  0  0  0  0  0
  187.5180  177.6650  143.5480 C   0  0  0  0  0  2  0  0  0  0  0  0
  186.8900  177.5550  145.9840 C   0  0  0  0  0  0  0  0  0  0  0  0
  187.0450  178.0380  147.0950 O   0  0  0  0  0  0  0  0  0  0  0  0
  184.0080  178.4960  143.0330 C   0  0  0  0  0  1  0  0  0  0  0  0
  184.8940  178.4300  144.1110 O   0  0  0  0  0  0  0  0  0  0  0  0
  189.6910  171.5410  142.3880 N   0  0  0  0  0  0  0  0  0  0  0  0
  188.9970  173.3160  141.3540 C   0  0  0  0  0  3  0  0  0  0  0  0
  190.1560  173.6500  142.0270 C   0  0  0  0  0  0  0  0  0  0  0  0
  188.7740  172.0490  141.6160 O   0  0  0  0  0  0  0  0  0  0  0  0
  190.5840  172.5100  142.6670 C   0  0  0  0  0  3  0  0  0  0  0  0
  195.0120  174.3040  143.8560 C   0  0  0  0  0  3  0  0  0  0  0  0
  195.2640  173.3590  144.7580 C   0  0  0  0  0  2  0  0  0  0  0  0
  1  3  1  1  0  0  0
  2  4  1  0  0  0  0
  3 15  1  0  0  0  0
  4  1  1  0  0  0  0
  4  8  1  0  0  0  0
  5  2  1  0  0  0  0
  5 14  1  0  0  0  0
  6  2  1  0  0  0  0
  6 12  1  0  0  0  0
  7 28  1  0  0  0  0
  7  9  1  0  0  0  0
  7  6  1  0  0  0  0
  8 11  1  0  0  0  0
  9  5  1  0  0  0  0
 10  8  1  0  0  0  0
 11 15  1  0  0  0  0
 12 13  1  0  0  0  0
 13  1  1  0  0  0  0
 14 10  1  0  0  0  0
 16 22  1  0  0  0  0
 16 17  1  0  0  0  0
 18 21  1  0  0  0  0
 18 20  1  0  0  0  0
 19 13  1  0  0  0  0
 19 22  1  0  0  0  0
 20 16  1  0  0  0  0
 21 19  1  0  0  0  0
 22 23  2  0  0  0  0
 24 25  1  0  0  0  0
 25 20  1  0  0  0  0
 26 30  2  0  0  0  0
 27 29  1  0  0  0  0
 27 28  2  0  0  0  0
 28 30  1  0  0  0  0
 29 26  1  0  0  0  0
 31 14  1  0  0  0  0
 31 32  2  0  0  0  0
M  END
>  <MODEL>
2

>  <REMARK>
 VINA RESULT:      -7.7      2.543      7.010
  Name = 
  4 active torsions:
  status: ('A' for Active; 'I' for Inactive)
    1  A    between atoms: C_12  and  C_28
    2  A    between atoms: C_13  and  C_29
    3  A    between atoms: C_16  and  C_27
    4  A    between atoms: N_19  and  O_26
                            x       y       z     vdW  Elec       q    Type
                         _______ _______ _______ _____ _____    ______ ____

>  <TORSDO>
F 4

$$$$
=
 OpenBabel11052419113D

 32 37  0  0  1  0  0  0  0  0999 V2000
  190.3940  176.9530  145.1050 C   0  0  1  0  0  3  0  0  0  0  0  0
  192.2280  175.8310  143.8690 C   0  0  1  0  0  3  0  0  0  0  0  0
  189.8080  177.3040  146.4840 C   0  0  0  0  0  2  0  0  0  0  0  0
  191.5630  175.9860  145.2090 C   0  0  1  0  0  3  0  0  0  0  0  0
  193.1060  174.6270  143.9790 C   0  0  1  0  0  3  0  0  0  0  0  0
  191.2950  175.5850  142.6950 C   0  0  1  0  0  3  0  0  0  0  0  0
  191.9910  174.4790  141.8680 C   0  0  1  0  0  3  0  0  0  0  0  0
  192.6280  176.4410  146.2080 C   0  0  2  0  0  3  0  0  0  0  0  0
  193.3510  174.2360  142.5390 C   0  0  0  0  0  2  0  0  0  0  0  0
  193.7670  175.3960  146.2760 C   0  0  0  0  0  2  0  0  0  0  0  0
  192.0300  176.7170  147.5960 C   0  0  0  0  0  2  0  0  0  0  0  0
  189.8390  175.3280  143.1420 C   0  0  0  0  0  2  0  0  0  0  0  0
  189.3210  176.3980  144.1430 C   0  0  2  0  0  3  0  0  0  0  0  0
  194.2990  174.9890  144.8770 C   0  0  1  0  0  3  0  0  0  0  0  0
  190.4990  176.5730  147.6470 C   0  0  0  0  0  2  0  0  0  0  0  0
  185.9980  176.9920  143.3570 C   0  0  1  0  0  3  0  0  0  0  0  0
  184.7730  177.4760  143.8280 O   0  0  0  0  0  1  0  0  0  0  0  0
  187.3600  176.6200  141.4090 C   0  0  0  0  0  2  0  0  0  0  0  0
  188.5390  177.5350  143.4720 C   0  0  1  0  0  3  0  0  0  0  0  0
  186.0630  177.1120  141.8920 N   0  0  0  0  0  0  0  0  0  0  0  0
  188.5280  177.4620  141.9390 C   0  0  0  0  0  2  0  0  0  0  0  0
  187.1560  177.6810  144.0390 C   0  0  0  0  0  0  0  0  0  0  0  0
  186.9940  178.2860  145.0870 O   0  0  0  0  0  0  0  0  0  0  0  0
  185.0510  178.4230  140.4640 C   0  0  0  0  0  1  0  0  0  0  0  0
  185.9370  178.4210  141.5440 O   0  0  0  0  0  0  0  0  0  0  0  0
  190.4550  171.1830  142.1490 N   0  0  0  0  0  0  0  0  0  0  0  0
  190.3630  172.8210  140.7300 C   0  0  0  0  0  3  0  0  0  0  0  0
  191.2090  173.2010  141.7530 C   0  0  0  0  0  0  0  0  0  0  0  0
  189.9450  171.6130  141.0300 O   0  0  0  0  0  0  0  0  0  0  0  0
  191.2610  172.1460  142.6350 C   0  0  0  0  0  3  0  0  0  0  0  0
  195.2290  173.8280  145.0400 C   0  0  0  0  0  3  0  0  0  0  0  0
  196.3160  173.9220  145.8020 C   0  0  0  0  0  2  0  0  0  0  0  0
  1  4  1  0  0  0  0
  1  3  1  1  0  0  0
  2  5  1  0  0  0  0
  2  4  1  0  0  0  0
  3 15  1  0  0  0  0
  4  8  1  0  0  0  0
  5 14  1  0  0  0  0
  6 12  1  0  0  0  0
  6  2  1  0  0  0  0
  7  9  1  0  0  0  0
  7  6  1  0  0  0  0
  8 10  1  0  0  0  0
  8 11  1  0  0  0  0
  9  5  1  0  0  0  0
 11 15  1  0  0  0  0
 12 13  1  0  0  0  0
 13  1  1  0  0  0  0
 14 31  1  0  0  0  0
 14 10  1  0  0  0  0
 16 17  1  0  0  0  0
 16 22  1  0  0  0  0
 18 20  1  0  0  0  0
 18 21  1  0  0  0  0
 19 22  1  0  0  0  0
 19 13  1  0  0  0  0
 20 16  1  0  0  0  0
 21 19  1  0  0  0  0
 22 23  2  0  0  0  0
 24 25  1  0  0  0  0
 25 20  1  0  0  0  0
 26 30  2  0  0  0  0
 27 29  1  0  0  0  0
 27 28  2  0  0  0  0
 28  7  1  0  0  0  0
 28 30  1  0  0  0  0
 29 26  1  0  0  0  0
 31 32  2  0  0  0  0
M  END
>  <MODEL>
3

>  <REMARK>
 VINA RESULT:      -7.7      2.942      7.471
  Name = 
  4 active torsions:
  status: ('A' for Active; 'I' for Inactive)
    1  A    between atoms: C_12  and  C_28
    2  A    between atoms: C_13  and  C_29
    3  A    between atoms: C_16  and  C_27
    4  A    between atoms: N_19  and  O_26
                            x       y       z     vdW  Elec       q    Type
                         _______ _______ _______ _____ _____    ______ ____

>  <TORSDO>
F 4

$$$$
=
 OpenBabel11052419113D

 32 37  0  0  1  0  0  0  0  0999 V2000
  188.9950  175.7360  143.2410 C   0  0  1  0  0  3  0  0  0  0  0  0
  187.6140  177.7710  142.9240 C   0  0  1  0  0  3  0  0  0  0  0  0
  189.3020  174.3100  142.7520 C   0  0  0  0  0  2  0  0  0  0  0  0
  187.7580  176.3170  142.5720 C   0  0  1  0  0  3  0  0  0  0  0  0
  186.2230  178.1560  142.5370 C   0  0  1  0  0  3  0  0  0  0  0  0
  187.7650  178.1120  144.3980 C   0  0  1  0  0  3  0  0  0  0  0  0
  186.6350  179.1280  144.6830 C   0  0  1  0  0  3  0  0  0  0  0  0
  187.7960  176.2080  141.0480 C   0  0  2  0  0  3  0  0  0  0  0  0
  185.9720  179.4190  143.3290 C   0  0  0  0  0  2  0  0  0  0  0  0
  186.4970  176.7930  140.4460 C   0  0  0  0  0  2  0  0  0  0  0  0
  188.0330  174.7620  140.5830 C   0  0  0  0  0  2  0  0  0  0  0  0
  187.8300  176.8530  145.2910 C   0  0  0  0  0  2  0  0  0  0  0  0
  188.8580  175.8060  144.7770 C   0  0  2  0  0  3  0  0  0  0  0  0
  186.1520  178.1990  141.0020 C   0  0  1  0  0  3  0  0  0  0  0  0
  188.2770  173.7750  141.7380 C   0  0  0  0  0  2  0  0  0  0  0  0
  192.1550  175.7080  143.7080 C   0  0  1  0  0  3  0  0  0  0  0  0
  193.2160  176.4520  143.1840 O   0  0  0  0  0  1  0  0  0  0  0  0
  191.5460  173.7810  145.0150 C   0  0  0  0  0  2  0  0  0  0  0  0
  190.2330  175.9200  145.4500 C   0  0  1  0  0  3  0  0  0  0  0  0
  192.6660  174.5460  144.4510 N   0  0  0  0  0  0  0  0  0  0  0  0
  190.7490  174.6000  146.0390 C   0  0  0  0  0  2  0  0  0  0  0  0
  191.2480  176.5710  144.5540 C   0  0  0  0  0  0  0  0  0  0  0  0
  191.2750  177.7880  144.4560 O   0  0  0  0  0  0  0  0  0  0  0  0
  194.5320  174.0870  145.4950 C   0  0  0  0  0  1  0  0  0  0  0  0
  193.4560  174.9770  145.4710 O   0  0  0  0  0  0  0  0  0  0  0  0
  184.5950  178.3220  147.5960 N   0  0  0  0  0  0  0  0  0  0  0  0
  184.5480  177.8260  145.4850 C   0  0  0  0  0  3  0  0  0  0  0  0
  185.6230  178.6680  145.6930 C   0  0  0  0  0  0  0  0  0  0  0  0
  183.9770  177.6650  146.6560 O   0  0  0  0  0  0  0  0  0  0  0  0
  185.6400  178.9620  147.0370 C   0  0  0  0  0  3  0  0  0  0  0  0
  184.7830  178.5750  140.5320 C   0  0  0  0  0  3  0  0  0  0  0  0
  183.6980  178.0120  141.0570 C   0  0  0  0  0  2  0  0  0  0  0  0
  1  3  1  1  0  0  0
  1 13  1  0  0  0  0
  2  6  1  0  0  0  0
  4  2  1  0  0  0  0
  4  1  1  0  0  0  0
  5  2  1  0  0  0  0
  5  9  1  0  0  0  0
  6  7  1  0  0  0  0
  6 12  1  0  0  0  0
  7 28  1  0  0  0  0
  8  4  1  0  0  0  0
  9  7  1  0  0  0  0
 10 14  1  0  0  0  0
 10  8  1  0  0  0  0
 11  8  1  0  0  0  0
 11 15  1  0  0  0  0
 13 12  1  0  0  0  0
 13 19  1  0  0  0  0
 14  5  1  0  0  0  0
 15  3  1  0  0  0  0
 16 20  1  0  0  0  0
 16 22  1  0  0  0  0
 17 16  1  0  0  0  0
 18 21  1  0  0  0  0
 19 21  1  0  0  0  0
 20 18  1  0  0  0  0
 20 25  1  0  0  0  0
 22 19  1  0  0  0  0
 23 22  2  0  0  0  0
 25 24  1  0  0  0  0
 27 28  2  0  0  0  0
 27 29  1  0  0  0  0
 28 30  1  0  0  0  0
 29 26  1  0  0  0  0
 30 26  2  0  0  0  0
 31 14  1  0  0  0  0
 31 32  2  0  0  0  0
M  END
>  <MODEL>
4

>  <REMARK>
 VINA RESULT:      -7.5      1.593      2.120
  Name = 
  4 active torsions:
  status: ('A' for Active; 'I' for Inactive)
    1  A    between atoms: C_12  and  C_28
    2  A    between atoms: C_13  and  C_29
    3  A    between atoms: C_16  and  C_27
    4  A    between atoms: N_19  and  O_26
                            x       y       z     vdW  Elec       q    Type
                         _______ _______ _______ _____ _____    ______ ____

>  <TORSDO>
F 4

$$$$
=
 OpenBabel11052419113D

 32 37  0  0  1  0  0  0  0  0999 V2000
  190.8660  174.2330  141.7110 C   0  0  1  0  0  3  0  0  0  0  0  0
  190.1150  176.2740  142.9010 C   0  0  1  0  0  3  0  0  0  0  0  0
  190.4430  173.0060  140.8850 C   0  0  0  0  0  2  0  0  0  0  0  0
  189.6690  174.9810  142.2780 C   0  0  1  0  0  3  0  0  0  0  0  0
  188.9660  176.7550  143.7270 C   0  0  1  0  0  3  0  0  0  0  0  0
  191.3110  176.1800  143.8330 C   0  0  1  0  0  3  0  0  0  0  0  0
  190.9400  177.0740  145.0390 C   0  0  1  0  0  3  0  0  0  0  0  0
  188.6150  175.3110  141.2210 C   0  0  2  0  0  3  0  0  0  0  0  0
  189.6030  177.7390  144.6810 C   0  0  0  0  0  2  0  0  0  0  0  0
  187.4230  176.0450  141.8780 C   0  0  0  0  0  2  0  0  0  0  0  0
  188.1570  174.0580  140.4580 C   0  0  0  0  0  2  0  0  0  0  0  0
  191.7150  174.7190  144.1290 C   0  0  0  0  0  2  0  0  0  0  0  0
  191.8520  173.8610  142.8390 C   0  0  2  0  0  3  0  0  0  0  0  0
  187.8610  177.2340  142.7720 C   0  0  1  0  0  3  0  0  0  0  0  0
  188.9220  172.7830  140.8520 C   0  0  0  0  0  2  0  0  0  0  0  0
  194.9130  175.1960  143.7690 C   0  0  1  0  0  3  0  0  0  0  0  0
  196.0330  175.0410  144.5910 O   0  0  0  0  0  1  0  0  0  0  0  0
  194.0850  176.1200  141.7060 C   0  0  0  0  0  2  0  0  0  0  0  0
  193.2910  173.7780  142.3110 C   0  0  1  0  0  3  0  0  0  0  0  0
  195.2630  175.9790  142.5730 N   0  0  0  0  0  0  0  0  0  0  0  0
  193.5960  174.7660  141.1770 C   0  0  0  0  0  2  0  0  0  0  0  0
  194.3030  173.8590  143.4180 C   0  0  0  0  0  0  0  0  0  0  0  0
  194.5640  172.8630  144.0740 O   0  0  0  0  0  0  0  0  0  0  0  0
  196.8330  176.3120  141.0880 C   0  0  0  0  0  1  0  0  0  0  0  0
  196.2370  175.3290  141.8810 O   0  0  0  0  0  0  0  0  0  0  0  0
  191.3820  175.4820  148.2900 N   0  0  0  0  0  0  0  0  0  0  0  0
  189.7950  175.5810  146.8150 C   0  0  0  0  0  3  0  0  0  0  0  0
  190.8470  176.3440  146.3500 C   0  0  0  0  0  0  0  0  0  0  0  0
  190.1780  175.1010  147.9760 O   0  0  0  0  0  0  0  0  0  0  0  0
  191.8450  176.2610  147.2940 C   0  0  0  0  0  3  0  0  0  0  0  0
  186.6680  177.7290  143.5260 C   0  0  0  0  0  3  0  0  0  0  0  0
  186.1030  178.8960  143.2250 C   0  0  0  0  0  2  0  0  0  0  0  0
  1  3  1  1  0  0  0
  1  4  1  0  0  0  0
  1 13  1  0  0  0  0
  2  5  1  0  0  0  0
  2  6  1  0  0  0  0
  4  2  1  0  0  0  0
  5  9  1  0  0  0  0
  6 12  1  0  0  0  0
  6  7  1  0  0  0  0
  7 28  1  0  0  0  0
  8 10  1  0  0  0  0
  8  4  1  0  0  0  0
  9  7  1  0  0  0  0
 10 14  1  0  0  0  0
 11 15  1  0  0  0  0
 11  8  1  0  0  0  0
 13 12  1  0  0  0  0
 14 31  1  0  0  0  0
 14  5  1  0  0  0  0
 15  3  1  0  0  0  0
 16 17  1  0  0  0  0
 18 20  1  0  0  0  0
 19 13  1  0  0  0  0
 19 22  1  0  0  0  0
 20 16  1  0  0  0  0
 21 18  1  0  0  0  0
 21 19  1  0  0  0  0
 22 16  1  0  0  0  0
 22 23  2  0  0  0  0
 24 25  1  0  0  0  0
 25 20  1  0  0  0  0
 27 29  1  0  0  0  0
 28 27  2  0  0  0  0
 28 30  1  0  0  0  0
 29 26  1  0  0  0  0
 30 26  2  0  0  0  0
 32 31  2  0  0  0  0
M  END
>  <MODEL>
5

>  <REMARK>
 VINA RESULT:      -6.9      2.633      4.181
  Name = 
  4 active torsions:
  status: ('A' for Active; 'I' for Inactive)
    1  A    between atoms: C_12  and  C_28
    2  A    between atoms: C_13  and  C_29
    3  A    between atoms: C_16  and  C_27
    4  A    between atoms: N_19  and  O_26
                            x       y       z     vdW  Elec       q    Type
                         _______ _______ _______ _____ _____    ______ ____

>  <TORSDO>
F 4

$$$$
=
 OpenBabel11052419113D

 32 37  0  0  1  0  0  0  0  0999 V2000
  193.2770  174.5010  143.5390 C   0  0  1  0  0  3  0  0  0  0  0  0
  191.3630  174.8480  145.0760 C   0  0  1  0  0  3  0  0  0  0  0  0
  194.7270  174.8850  143.1930 C   0  0  0  0  0  2  0  0  0  0  0  0
  192.6960  175.3850  144.6320 C   0  0  1  0  0  3  0  0  0  0  0  0
  190.7180  175.9430  145.8640 C   0  0  1  0  0  3  0  0  0  0  0  0
  190.3940  174.4840  143.9630 C   0  0  1  0  0  3  0  0  0  0  0  0
  189.0270  175.0280  144.4400 C   0  0  1  0  0  3  0  0  0  0  0  0
  193.5940  175.4800  145.8650 C   0  0  2  0  0  3  0  0  0  0  0  0
  189.2540  175.5640  145.8610 C   0  0  0  0  0  2  0  0  0  0  0  0
  192.9480  176.4140  146.9150 C   0  0  0  0  0  2  0  0  0  0  0  0
  195.0160  175.9350  145.5030 C   0  0  0  0  0  2  0  0  0  0  0  0
  190.8940  174.9370  142.5740 C   0  0  0  0  0  2  0  0  0  0  0  0
  192.3620  174.5100  142.2950 C   0  0  2  0  0  3  0  0  0  0  0  0
  191.4640  176.0680  147.2010 C   0  0  1  0  0  3  0  0  0  0  0  0
  195.2470  176.0940  143.9890 C   0  0  0  0  0  2  0  0  0  0  0  0
  190.1310  172.2540  140.9000 C   0  0  1  0  0  3  0  0  0  0  0  0
  189.3560  171.9480  139.7770 O   0  0  0  0  0  1  0  0  0  0  0  0
  191.2840  171.3560  142.8110 C   0  0  0  0  0  2  0  0  0  0  0  0
  192.4780  173.1940  141.5140 C   0  0  1  0  0  3  0  0  0  0  0  0
  190.4540  171.0280  141.6450 N   0  0  0  0  0  0  0  0  0  0  0  0
  192.6370  171.9540  142.4040 C   0  0  0  0  0  2  0  0  0  0  0  0
  191.3680  173.0320  140.5150 C   0  0  0  0  0  0  0  0  0  0  0  0
  191.4400  173.5950  139.4340 O   0  0  0  0  0  0  0  0  0  0  0  0
  190.8580  168.9040  141.3140 C   0  0  0  0  0  1  0  0  0  0  0  0
  191.1520  170.1840  140.8370 O   0  0  0  0  0  0  0  0  0  0  0  0
  187.8930  178.0360  142.7190 N   0  0  0  0  0  0  0  0  0  0  0  0
  187.5330  175.9070  142.5200 C   0  0  0  0  0  3  0  0  0  0  0  0
  188.4330  176.0840  143.5520 C   0  0  0  0  0  0  0  0  0  0  0  0
  187.2570  177.1070  142.0640 O   0  0  0  0  0  0  0  0  0  0  0  0
  188.6400  177.4400  143.6670 C   0  0  0  0  0  3  0  0  0  0  0  0
  190.8770  177.1510  148.0510 C   0  0  0  0  0  3  0  0  0  0  0  0
  191.5430  177.6400  149.0940 C   0  0  0  0  0  2  0  0  0  0  0  0
  1  3  1  6  0  0  0
  1  4  1  0  0  0  0
  2  5  1  0  0  0  0
  3 15  1  0  0  0  0
  4  2  1  0  0  0  0
  4  8  1  0  0  0  0
  5 14  1  0  0  0  0
  6  7  1  0  0  0  0
  6  2  1  0  0  0  0
  7  9  1  0  0  0  0
  8 10  1  0  0  0  0
  9  5  1  0  0  0  0
 10 14  1  0  0  0  0
 11  8  1  0  0  0  0
 12  6  1  0  0  0  0
 13 12  1  0  0  0  0
 13  1  1  0  0  0  0
 14 31  1  0  0  0  0
 15 11  1  0  0  0  0
 16 20  1  0  0  0  0
 17 16  1  0  0  0  0
 19 13  1  0  0  0  0
 19 21  1  0  0  0  0
 20 18  1  0  0  0  0
 21 18  1  0  0  0  0
 22 16  1  0  0  0  0
 22 19  1  0  0  0  0
 23 22  2  0  0  0  0
 25 24  1  0  0  0  0
 25 20  1  0  0  0  0
 26 30  2  0  0  0  0
 27 28  2  0  0  0  0
 28 30  1  0  0  0  0
 28  7  1  0  0  0  0
 29 27  1  0  0  0  0
 29 26  1  0  0  0  0
 31 32  2  0  0  0  0
M  END
>  <MODEL>
6

>  <REMARK>
 VINA RESULT:      -6.9      3.720      6.613
  Name = 
  4 active torsions:
  status: ('A' for Active; 'I' for Inactive)
    1  A    between atoms: C_12  and  C_28
    2  A    between atoms: C_13  and  C_29
    3  A    between atoms: C_16  and  C_27
    4  A    between atoms: N_19  and  O_26
                            x       y       z     vdW  Elec       q    Type
                         _______ _______ _______ _____ _____    ______ ____

>  <TORSDO>
F 4

$$$$
=
 OpenBabel11052419113D

 32 37  0  0  1  0  0  0  0  0999 V2000
  189.8110  173.9440  143.1870 C   0  0  1  0  0  3  0  0  0  0  0  0
  191.8740  173.1150  144.2840 C   0  0  1  0  0  3  0  0  0  0  0  0
  189.0360  174.0960  141.8670 C   0  0  0  0  0  2  0  0  0  0  0  0
  191.2280  173.4400  142.9650 C   0  0  1  0  0  3  0  0  0  0  0  0
  193.3370  172.9800  144.0060 C   0  0  1  0  0  3  0  0  0  0  0  0
  191.7330  174.1730  145.3660 C   0  0  1  0  0  3  0  0  0  0  0  0
  193.1310  174.2520  146.0210 C   0  0  1  0  0  3  0  0  0  0  0  0
  191.2860  172.1840  142.0960 C   0  0  2  0  0  3  0  0  0  0  0  0
  193.9710  173.1450  145.3680 C   0  0  0  0  0  2  0  0  0  0  0  0
  192.7570  171.7500  141.8960 C   0  0  0  0  0  2  0  0  0  0  0  0
  190.5680  172.3840  140.7530 C   0  0  0  0  0  2  0  0  0  0  0  0
  191.1230  175.4880  144.8310 C   0  0  0  0  0  2  0  0  0  0  0  0
  189.8270  175.2550  144.0040 C   0  0  2  0  0  3  0  0  0  0  0  0
  193.5530  171.6750  143.2240 C   0  0  1  0  0  3  0  0  0  0  0  0
  189.8720  173.7510  140.6230 C   0  0  0  0  0  2  0  0  0  0  0  0
  187.6790  177.8640  144.7760 C   0  0  1  0  0  3  0  0  0  0  0  0
  186.5720  178.6050  144.3540 O   0  0  0  0  0  1  0  0  0  0  0  0
  188.9470  177.1110  146.6790 C   0  0  0  0  0  2  0  0  0  0  0  0
  188.5410  175.4100  144.8280 C   0  0  1  0  0  3  0  0  0  0  0  0
  187.7920  177.9080  146.2420 N   0  0  0  0  0  0  0  0  0  0  0  0
  188.7850  175.6270  146.3270 C   0  0  0  0  0  2  0  0  0  0  0  0
  187.6230  176.4490  144.2500 C   0  0  0  0  0  0  0  0  0  0  0  0
  186.8990  176.1610  143.3100 O   0  0  0  0  0  0  0  0  0  0  0  0
  186.3310  178.2550  147.8320 C   0  0  0  0  0  1  0  0  0  0  0  0
  186.6660  177.3810  146.7950 O   0  0  0  0  0  0  0  0  0  0  0  0
  195.0240  177.2360  145.1210 N   0  0  0  0  0  0  0  0  0  0  0  0
  193.8480  176.6030  146.8290 C   0  0  0  0  0  3  0  0  0  0  0  0
  193.8050  175.5900  145.8930 C   0  0  0  0  0  0  0  0  0  0  0  0
  194.5850  177.5550  146.3050 O   0  0  0  0  0  0  0  0  0  0  0  0
  194.5630  176.0070  144.8240 C   0  0  0  0  0  3  0  0  0  0  0  0
  194.9990  171.4670  142.9030 C   0  0  0  0  0  3  0  0  0  0  0  0
  195.6500  172.3030  142.0970 C   0  0  0  0  0  2  0  0  0  0  0  0
  1  3  1  6  0  0  0
  1 13  1  0  0  0  0
  2  6  1  0  0  0  0
  4  1  1  0  0  0  0
  4  2  1  0  0  0  0
  5  2  1  0  0  0  0
  5  9  1  0  0  0  0
  6  7  1  0  0  0  0
  8  4  1  0  0  0  0
  9  7  1  0  0  0  0
 10  8  1  0  0  0  0
 10 14  1  0  0  0  0
 11  8  1  0  0  0  0
 12  6  1  0  0  0  0
 13 19  1  0  0  0  0
 13 12  1  0  0  0  0
 14  5  1  0  0  0  0
 15 11  1  0  0  0  0
 15  3  1  0  0  0  0
 16 20  1  0  0  0  0
 17 16  1  0  0  0  0
 19 21  1  0  0  0  0
 20 18  1  0  0  0  0
 20 25  1  0  0  0  0
 21 18  1  0  0  0  0
 22 16  1  0  0  0  0
 22 19  1  0  0  0  0
 23 22  2  0  0  0  0
 25 24  1  0  0  0  0
 26 29  1  0  0  0  0
 28  7  1  0  0  0  0
 28 27  2  0  0  0  0
 29 27  1  0  0  0  0
 30 26  2  0  0  0  0
 30 28  1  0  0  0  0
 31 14  1  0  0  0  0
 32 31  2  0  0  0  0
M  END
>  <MODEL>
7

>  <REMARK>
 VINA RESULT:      -6.8      2.522      6.612
  Name = 
  4 active torsions:
  status: ('A' for Active; 'I' for Inactive)
    1  A    between atoms: C_12  and  C_28
    2  A    between atoms: C_13  and  C_29
    3  A    between atoms: C_16  and  C_27
    4  A    between atoms: N_19  and  O_26
                            x       y       z     vdW  Elec       q    Type
                         _______ _______ _______ _____ _____    ______ ____

>  <TORSDO>
F 4

$$$$
=
 OpenBabel11052419113D

 32 37  0  0  1  0  0  0  0  0999 V2000
  192.1850  172.2450  144.1400 C   0  0  1  0  0  3  0  0  0  0  0  0
  194.2990  172.6030  145.3850 C   0  0  1  0  0  3  0  0  0  0  0  0
  191.3670  171.2860  143.2560 C   0  0  0  0  0  2  0  0  0  0  0  0
  193.6060  171.7490  144.3590 C   0  0  1  0  0  3  0  0  0  0  0  0
  195.7550  172.2830  145.2750 C   0  0  1  0  0  3  0  0  0  0  0  0
  194.1670  174.1040  145.1910 C   0  0  1  0  0  3  0  0  0  0  0  0
  195.5830  174.6610  145.4690 C   0  0  1  0  0  3  0  0  0  0  0  0
  193.6650  170.3000  144.8430 C   0  0  2  0  0  3  0  0  0  0  0  0
  196.4270  173.4650  145.9350 C   0  0  0  0  0  2  0  0  0  0  0  0
  195.1380  169.8630  145.0180 C   0  0  0  0  0  2  0  0  0  0  0  0
  192.9010  169.3520  143.9050 C   0  0  0  0  0  2  0  0  0  0  0  0
  193.5130  174.4700  143.8400 C   0  0  0  0  0  2  0  0  0  0  0  0
  192.1980  173.6830  143.5780 C   0  0  2  0  0  3  0  0  0  0  0  0
  195.9760  170.8730  145.8440 C   0  0  1  0  0  3  0  0  0  0  0  0
  192.1720  170.0740  142.7590 C   0  0  0  0  0  2  0  0  0  0  0  0
  191.4760  176.9380  144.5260 C   0  0  1  0  0  3  0  0  0  0  0  0
  191.1670  178.2250  144.0760 O   0  0  0  0  0  1  0  0  0  0  0  0
  191.2640  175.3740  146.3430 C   0  0  0  0  0  2  0  0  0  0  0  0
  190.9350  174.4500  143.9930 C   0  0  1  0  0  3  0  0  0  0  0  0
  190.9520  176.7350  145.8860 N   0  0  0  0  0  0  0  0  0  0  0  0
  190.5800  174.3070  145.4790 C   0  0  0  0  0  2  0  0  0  0  0  0
  190.9800  175.8880  143.5600 C   0  0  0  0  0  0  0  0  0  0  0  0
  190.6930  176.1820  142.4100 O   0  0  0  0  0  0  0  0  0  0  0  0
  189.2950  177.4860  147.1000 C   0  0  0  0  0  1  0  0  0  0  0  0
  189.6010  176.8910  145.8730 O   0  0  0  0  0  0  0  0  0  0  0  0
  197.5060  175.7520  142.5690 N   0  0  0  0  0  0  0  0  0  0  0  0
  196.0600  176.6640  143.9030 C   0  0  0  0  0  3  0  0  0  0  0  0
  196.2230  175.3510  144.2970 C   0  0  0  0  0  0  0  0  0  0  0  0
  196.8480  176.8350  142.8660 O   0  0  0  0  0  0  0  0  0  0  0  0
  197.1490  174.7940  143.4460 C   0  0  0  0  0  3  0  0  0  0  0  0
  197.4160  170.4750  145.7670 C   0  0  0  0  0  3  0  0  0  0  0  0
  197.7750  169.1940  145.7850 C   0  0  0  0  0  2  0  0  0  0  0  0
  1  3  1  6  0  0  0
  1  4  1  0  0  0  0
  4  8  1  0  0  0  0
  4  2  1  0  0  0  0
  5  2  1  0  0  0  0
  5 14  1  0  0  0  0
  5  9  1  0  0  0  0
  6  2  1  0  0  0  0
  6  7  1  0  0  0  0
  7  9  1  0  0  0  0
  8 10  1  0  0  0  0
 10 14  1  0  0  0  0
 11  8  1  0  0  0  0
 12  6  1  0  0  0  0
 13 12  1  0  0  0  0
 13 19  1  0  0  0  0
 13  1  1  0  0  0  0
 15  3  1  0  0  0  0
 15 11  1  0  0  0  0
 16 20  1  0  0  0  0
 17 16  1  0  0  0  0
 19 21  1  0  0  0  0
 20 18  1  0  0  0  0
 21 18  1  0  0  0  0
 22 19  1  0  0  0  0
 22 16  1  0  0  0  0
 23 22  2  0  0  0  0
 25 20  1  0  0  0  0
 25 24  1  0  0  0  0
 26 29  1  0  0  0  0
 26 30  2  0  0  0  0
 27 28  2  0  0  0  0
 28  7  1  0  0  0  0
 29 27  1  0  0  0  0
 30 28  1  0  0  0  0
 31 32  2  0  0  0  0
 31 14  1  0  0  0  0
M  END
>  <MODEL>
8

>  <REMARK>
 VINA RESULT:      -6.8      4.071      8.386
  Name = 
  4 active torsions:
  status: ('A' for Active; 'I' for Inactive)
    1  A    between atoms: C_12  and  C_28
    2  A    between atoms: C_13  and  C_29
    3  A    between atoms: C_16  and  C_27
    4  A    between atoms: N_19  and  O_26
                            x       y       z     vdW  Elec       q    Type
                         _______ _______ _______ _____ _____    ______ ____

>  <TORSDO>
F 4

$$$$
=
 OpenBabel11052419113D

 32 37  0  0  1  0  0  0  0  0999 V2000
  191.5390  175.0510  144.0220 C   0  0  1  0  0  3  0  0  0  0  0  0
  189.1350  175.3440  144.5530 C   0  0  1  0  0  3  0  0  0  0  0  0
  192.9810  175.4870  144.3360 C   0  0  0  0  0  2  0  0  0  0  0  0
  190.5110  175.9260  144.7220 C   0  0  1  0  0  3  0  0  0  0  0  0
  188.1780  176.4230  144.9440 C   0  0  1  0  0  3  0  0  0  0  0  0
  188.7650  174.9260  143.1400 C   0  0  1  0  0  3  0  0  0  0  0  0
  187.3120  175.4220  142.9520 C   0  0  1  0  0  3  0  0  0  0  0  0
  190.7730  176.0750  146.2210 C   0  0  2  0  0  3  0  0  0  0  0  0
  186.8760  175.9870  144.3120 C   0  0  0  0  0  2  0  0  0  0  0  0
  189.7050  176.9970  146.8530 C   0  0  0  0  0  2  0  0  0  0  0  0
  192.1960  176.5800  146.5050 C   0  0  0  0  0  2  0  0  0  0  0  0
  189.8100  175.3790  142.0970 C   0  0  0  0  0  2  0  0  0  0  0  0
  191.2640  175.0060  142.5040 C   0  0  2  0  0  3  0  0  0  0  0  0
  188.2570  176.5970  146.4690 C   0  0  1  0  0  3  0  0  0  0  0  0
  193.0630  176.7260  145.2420 C   0  0  0  0  0  2  0  0  0  0  0  0
  189.8210  172.4580  140.6490 C   0  0  1  0  0  3  0  0  0  0  0  0
  189.4750  172.0230  139.3660 O   0  0  0  0  0  1  0  0  0  0  0  0
  190.3940  171.7690  142.8830 C   0  0  0  0  0  2  0  0  0  0  0  0
  191.7490  173.6840  141.8920 C   0  0  1  0  0  3  0  0  0  0  0  0
  190.0120  171.3040  141.5420 N   0  0  0  0  0  0  0  0  0  0  0  0
  191.7410  172.5040  142.8730 C   0  0  0  0  0  2  0  0  0  0  0  0
  191.0330  173.3580  140.6120 C   0  0  0  0  0  0  0  0  0  0  0  0
  191.3870  173.8870  139.5700 O   0  0  0  0  0  0  0  0  0  0  0  0
  190.8210  169.2760  141.6650 C   0  0  0  0  0  1  0  0  0  0  0  0
  191.0090  170.5190  141.0540 O   0  0  0  0  0  0  0  0  0  0  0  0
  186.5640  178.2660  140.7950 N   0  0  0  0  0  0  0  0  0  0  0  0
  187.4300  176.2960  140.5200 C   0  0  0  0  0  3  0  0  0  0  0  0
  187.1370  176.4410  141.8610 C   0  0  0  0  0  0  0  0  0  0  0  0
  187.0690  177.4200  139.9440 O   0  0  0  0  0  0  0  0  0  0  0  0
  186.5820  177.6910  142.0120 C   0  0  0  0  0  3  0  0  0  0  0  0
  187.3250  177.6680  146.9430 C   0  0  0  0  0  3  0  0  0  0  0  0
  186.2280  177.3660  147.6330 C   0  0  0  0  0  2  0  0  0  0  0  0
  1  3  1  6  0  0  0
  1  4  1  0  0  0  0
  2  4  1  0  0  0  0
  2  5  1  0  0  0  0
  3 15  1  0  0  0  0
  4  8  1  0  0  0  0
  5 14  1  0  0  0  0
  6  2  1  0  0  0  0
  7  6  1  0  0  0  0
  7  9  1  0  0  0  0
  8 11  1  0  0  0  0
  8 10  1  0  0  0  0
  9  5  1  0  0  0  0
 12 13  1  0  0  0  0
 12  6  1  0  0  0  0
 13  1  1  0  0  0  0
 14 10  1  0  0  0  0
 14 31  1  0  0  0  0
 15 11  1  0  0  0  0
 16 20  1  0  0  0  0
 17 16  1  0  0  0  0
 19 13  1  0  0  0  0
 19 21  1  0  0  0  0
 20 18  1  0  0  0  0
 21 18  1  0  0  0  0
 22 16  1  0  0  0  0
 22 19  1  0  0  0  0
 23 22  2  0  0  0  0
 25 20  1  0  0  0  0
 25 24  1  0  0  0  0
 26 30  2  0  0  0  0
 27 28  2  0  0  0  0
 28 30  1  0  0  0  0
 28  7  1  0  0  0  0
 29 27  1  0  0  0  0
 29 26  1  0  0  0  0
 31 32  2  0  0  0  0
M  END
>  <MODEL>
9

>  <REMARK>
 VINA RESULT:      -6.8      3.665      5.953
  Name = 
  4 active torsions:
  status: ('A' for Active; 'I' for Inactive)
    1  A    between atoms: C_12  and  C_28
    2  A    between atoms: C_13  and  C_29
    3  A    between atoms: C_16  and  C_27
    4  A    between atoms: N_19  and  O_26
                            x       y       z     vdW  Elec       q    Type
                         _______ _______ _______ _____ _____    ______ ____

>  <TORSDO>
F 4

$$$$
