=
 OpenBabel11052421263D

 32 37  0  0  0  0  0  0  0  0999 V2000
  192.1510  174.9420  146.6660 C   0  0  0  0  0  3  0  0  0  0  0  0
  187.8640  176.8380  144.2570 C   0  0  0  0  0  0  0  0  0  0  0  0
  185.2070  178.7440  147.9330 C   0  0  0  0  0  2  0  0  0  0  0  0
  184.0880  178.3710  147.1640 O   0  0  0  0  0  0  0  0  0  0  0  0
  186.6520  177.2420  142.0880 C   0  0  0  0  0  0  0  0  0  0  0  0
  187.4040  176.7740  140.9960 C   0  0  0  0  0  0  0  0  0  0  0  0
  190.0060  175.8030  144.5220 C   0  0  0  0  0  0  0  0  0  0  0  0
  188.7990  176.5860  146.4660 C   0  0  0  0  0  3  0  0  0  0  0  0
  184.8750  178.0010  140.6160 C   0  0  0  0  0  0  0  0  0  0  0  0
  190.8510  175.6020  146.8200 C   0  0  0  0  0  3  0  0  0  0  0  0
  186.3740  177.7950  147.6420 C   0  0  0  0  0  2  0  0  0  0  0  0
  187.7570  177.0250  145.6500 C   0  0  0  0  0  0  0  0  0  0  0  0
  186.5820  177.6660  146.1960 N   0  0  0  0  0  0  0  0  0  0  0  0
  185.7120  177.8740  143.9810 C   0  0  0  0  0  0  0  0  0  0  0  0
  185.6120  177.5390  139.5160 C   0  0  0  0  0  3  0  0  0  0  0  0
  192.2540  174.6580  144.2090 C   0  0  0  0  0  3  0  0  0  0  0  0
  189.9340  175.9720  145.9270 C   0  0  0  0  0  0  0  0  0  0  0  0
  186.8670  176.9300  139.7060 C   0  0  0  0  0  3  0  0  0  0  0  0
  191.1120  175.1840  143.7820 C   0  0  0  0  0  3  0  0  0  0  0  0
  192.7810  174.5260  145.5730 C   0  0  0  0  0  0  0  0  0  0  0  0
  184.3380  178.7910  145.8430 C   0  0  0  0  0  2  0  0  0  0  0  0
  185.5350  178.0740  145.2910 C   0  0  0  0  0  0  0  0  0  0  0  0
  184.8720  178.2110  143.0260 O   0  0  0  0  0  0  0  0  0  0  0  0
  188.9730  176.2410  143.7500 N   0  0  0  0  0  0  0  0  0  0  0  0
  188.6430  176.1690  141.1450 O   0  0  0  0  0  1  0  0  0  0  0  0
  183.6370  178.6020  140.4360 O   0  0  0  0  0  1  0  0  0  0  0  0
  186.8530  177.2630  143.4680 C   0  0  0  0  0  0  0  0  0  0  0  0
  185.4190  177.8400  141.8900 C   0  0  0  0  0  0  0  0  0  0  0  0
  195.3500  174.5320  145.6780 C   0  0  0  0  0  0  0  0  0  0  0  0
  194.0600  173.9120  145.7800 N   0  0  0  0  0  2  0  0  0  0  0  0
  195.4730  175.7480  145.3800 O   0  0  0  0  0  0  0  0  0  0  0  0
  196.5680  173.7190  145.9320 C   0  0  0  0  0  1  0  0  0  0  0  0
  1 10  1  0  0  0  0
  2 12  1  0  0  0  0
  4  3  1  0  0  0  0
  5 27  1  0  0  0  0
  6 25  1  0  0  0  0
  6  5  2  0  0  0  0
  7 17  1  0  0  0  0
  9 28  2  0  0  0  0
 11  3  1  0  0  0  0
 12 13  1  0  0  0  0
 12  8  2  0  0  0  0
 13 11  1  0  0  0  0
 14 22  2  0  0  0  0
 15 18  2  0  0  0  0
 15  9  1  0  0  0  0
 16 20  1  0  0  0  0
 17  8  1  0  0  0  0
 17 10  2  0  0  0  0
 18  6  1  0  0  0  0
 19 16  2  0  0  0  0
 19  7  1  0  0  0  0
 20 30  1  0  0  0  0
 20  1  2  0  0  0  0
 21  4  1  0  0  0  0
 22 21  1  0  0  0  0
 22 13  1  0  0  0  0
 23 14  1  0  0  0  0
 24  2  1  0  0  0  0
 24  7  2  0  0  0  0
 26  9  1  0  0  0  0
 27 14  1  0  0  0  0
 27  2  2  0  0  0  0
 28  5  1  0  0  0  0
 28 23  1  0  0  0  0
 29 30  1  0  0  0  0
 29 32  1  0  0  0  0
 31 29  2  0  0  0  0
M  END
>  <MODEL>
1

>  <REMARK>
 VINA RESULT:      -9.4      0.000      0.000
  Name = 
  1 active torsions:
  status: ('A' for Active; 'I' for Inactive)
    1  A    between atoms: N_10  and  C_24
                            x       y       z     vdW  Elec       q    Type
                         _______ _______ _______ _____ _____    ______ ____

>  <TORSDO>
F 1

$$$$
=
 OpenBabel11052421263D

 32 37  0  0  0  0  0  0  0  0999 V2000
  190.8300  173.3170  139.7430 C   0  0  0  0  0  3  0  0  0  0  0  0
  188.8020  176.0080  143.7940 C   0  0  0  0  0  0  0  0  0  0  0  0
  192.4600  176.0970  147.0840 C   0  0  0  0  0  2  0  0  0  0  0  0
  191.4360  176.0780  148.0510 O   0  0  0  0  0  0  0  0  0  0  0  0
  186.8480  177.2950  144.7230 C   0  0  0  0  0  0  0  0  0  0  0  0
  185.7970  177.3560  143.7900 C   0  0  0  0  0  0  0  0  0  0  0  0
  188.9420  174.9900  141.6330 C   0  0  0  0  0  0  0  0  0  0  0  0
  190.8130  174.8380  143.1580 C   0  0  0  0  0  3  0  0  0  0  0  0
  185.5740  178.5900  146.3350 C   0  0  0  0  0  0  0  0  0  0  0  0
  191.0400  173.8270  141.1020 C   0  0  0  0  0  3  0  0  0  0  0  0
  191.9840  175.3840  145.8140 C   0  0  0  0  0  2  0  0  0  0  0  0
  190.1050  175.5710  144.1090 C   0  0  0  0  0  0  0  0  0  0  0  0
  190.6750  175.8960  145.3980 N   0  0  0  0  0  0  0  0  0  0  0  0
  188.6520  177.0310  145.9660 C   0  0  0  0  0  0  0  0  0  0  0  0
  184.5160  178.6610  145.4170 C   0  0  0  0  0  3  0  0  0  0  0  0
  188.5380  174.1260  139.2770 C   0  0  0  0  0  3  0  0  0  0  0  0
  190.2540  174.5340  141.9130 C   0  0  0  0  0  0  0  0  0  0  0  0
  184.6280  178.0470  144.1540 C   0  0  0  0  0  3  0  0  0  0  0  0
  188.1970  174.7690  140.3880 C   0  0  0  0  0  3  0  0  0  0  0  0
  189.7810  173.4240  138.9350 C   0  0  0  0  0  0  0  0  0  0  0  0
  190.4790  177.0320  147.6550 C   0  0  0  0  0  2  0  0  0  0  0  0
  189.8740  176.6420  146.3380 C   0  0  0  0  0  0  0  0  0  0  0  0
  187.8090  177.7360  146.6890 O   0  0  0  0  0  0  0  0  0  0  0  0
  188.2750  175.7050  142.5810 N   0  0  0  0  0  0  0  0  0  0  0  0
  185.8710  176.7640  142.5390 O   0  0  0  0  0  1  0  0  0  0  0  0
  185.4700  179.1930  147.5810 O   0  0  0  0  0  1  0  0  0  0  0  0
  188.1180  176.7190  144.7190 C   0  0  0  0  0  0  0  0  0  0  0  0
  186.7270  177.9020  145.9620 C   0  0  0  0  0  0  0  0  0  0  0  0
  189.7370  171.4100  137.3380 C   0  0  0  0  0  0  0  0  0  0  0  0
  189.9100  172.7980  137.6510 N   0  0  0  0  0  2  0  0  0  0  0  0
  189.4350  170.5690  138.2250 O   0  0  0  0  0  0  0  0  0  0  0  0
  189.9160  170.9540  135.9350 C   0  0  0  0  0  1  0  0  0  0  0  0
  1 10  1  0  0  0  0
  2 12  1  0  0  0  0
  2 27  2  0  0  0  0
  3  4  1  0  0  0  0
  5 28  1  0  0  0  0
  6 18  1  0  0  0  0
  6  5  2  0  0  0  0
  7 17  1  0  0  0  0
  7 24  2  0  0  0  0
  8 12  2  0  0  0  0
  9 26  1  0  0  0  0
 10 17  2  0  0  0  0
 11  3  1  0  0  0  0
 12 13  1  0  0  0  0
 13 11  1  0  0  0  0
 13 22  1  0  0  0  0
 14 22  2  0  0  0  0
 14 23  1  0  0  0  0
 15  9  1  0  0  0  0
 16 19  2  0  0  0  0
 17  8  1  0  0  0  0
 18 15  2  0  0  0  0
 19  7  1  0  0  0  0
 20 16  1  0  0  0  0
 20  1  2  0  0  0  0
 21  4  1  0  0  0  0
 22 21  1  0  0  0  0
 24  2  1  0  0  0  0
 25  6  1  0  0  0  0
 27  5  1  0  0  0  0
 27 14  1  0  0  0  0
 28  9  2  0  0  0  0
 28 23  1  0  0  0  0
 29 30  1  0  0  0  0
 29 31  2  0  0  0  0
 30 20  1  0  0  0  0
 32 29  1  0  0  0  0
M  END
>  <MODEL>
2

>  <REMARK>
 VINA RESULT:      -9.0      3.252      6.143
  Name = 
  1 active torsions:
  status: ('A' for Active; 'I' for Inactive)
    1  A    between atoms: N_10  and  C_24
                            x       y       z     vdW  Elec       q    Type
                         _______ _______ _______ _____ _____    ______ ____

>  <TORSDO>
F 1

$$$$
=
 OpenBabel11052421263D

 32 37  0  0  0  0  0  0  0  0999 V2000
  192.8690  173.9630  143.4680 C   0  0  0  0  0  3  0  0  0  0  0  0
  188.2190  176.3870  143.9980 C   0  0  0  0  0  0  0  0  0  0  0  0
  186.5460  176.7220  139.3830 C   0  0  0  0  0  2  0  0  0  0  0  0
  185.9400  177.9190  139.8120 O   0  0  0  0  0  0  0  0  0  0  0  0
  186.4980  177.3580  145.5560 C   0  0  0  0  0  0  0  0  0  0  0  0
  186.9000  177.2260  146.8970 C   0  0  0  0  0  0  0  0  0  0  0  0
  190.2900  175.3600  144.6220 C   0  0  0  0  0  0  0  0  0  0  0  0
  189.6850  175.5260  142.2860 C   0  0  0  0  0  3  0  0  0  0  0  0
  184.4300  178.4450  146.2210 C   0  0  0  0  0  0  0  0  0  0  0  0
  191.6960  174.5240  142.7890 C   0  0  0  0  0  3  0  0  0  0  0  0
  187.8170  176.4640  140.1990 C   0  0  0  0  0  2  0  0  0  0  0  0
  188.4940  176.1600  142.6330 C   0  0  0  0  0  0  0  0  0  0  0  0
  187.5380  176.5840  141.6340 N   0  0  0  0  0  0  0  0  0  0  0  0
  186.1390  177.4230  143.3790 C   0  0  0  0  0  0  0  0  0  0  0  0
  184.8160  178.3210  147.5630 C   0  0  0  0  0  3  0  0  0  0  0  0
  192.3040  174.4000  145.8380 C   0  0  0  0  0  3  0  0  0  0  0  0
  190.6000  175.1160  143.2610 C   0  0  0  0  0  0  0  0  0  0  0  0
  186.0430  177.7160  147.8970 C   0  0  0  0  0  3  0  0  0  0  0  0
  191.1230  175.0030  145.7760 C   0  0  0  0  0  3  0  0  0  0  0  0
  193.1630  173.8920  144.7610 C   0  0  0  0  0  0  0  0  0  0  0  0
  185.3130  177.6450  141.0430 C   0  0  0  0  0  2  0  0  0  0  0  0
  186.3360  177.2530  142.0690 C   0  0  0  0  0  0  0  0  0  0  0  0
  185.0900  177.9850  143.9390 O   0  0  0  0  0  0  0  0  0  0  0  0
  189.1180  175.9820  144.9310 N   0  0  0  0  0  0  0  0  0  0  0  0
  188.1010  176.6360  147.2630 O   0  0  0  0  0  1  0  0  0  0  0  0
  183.2220  179.0410  145.8840 O   0  0  0  0  0  1  0  0  0  0  0  0
  187.0640  177.0030  144.3320 C   0  0  0  0  0  0  0  0  0  0  0  0
  185.2890  177.9550  145.2380 C   0  0  0  0  0  0  0  0  0  0  0  0
  195.6330  173.9170  145.4740 C   0  0  0  0  0  0  0  0  0  0  0  0
  194.4140  173.2690  145.0880 N   0  0  0  0  0  2  0  0  0  0  0  0
  195.7120  175.1690  145.5660 O   0  0  0  0  0  0  0  0  0  0  0  0
  196.8310  173.0890  145.7740 C   0  0  0  0  0  1  0  0  0  0  0  0
  1 20  2  0  0  0  0
  2 27  2  0  0  0  0
  2 24  1  0  0  0  0
  3  4  1  0  0  0  0
  3 11  1  0  0  0  0
  4 21  1  0  0  0  0
  5  6  1  0  0  0  0
  6 25  1  0  0  0  0
  6 18  2  0  0  0  0
  7 24  2  0  0  0  0
  7 19  1  0  0  0  0
  8 12  2  0  0  0  0
  8 17  1  0  0  0  0
  9 15  2  0  0  0  0
 10 17  2  0  0  0  0
 10  1  1  0  0  0  0
 11 13  1  0  0  0  0
 12  2  1  0  0  0  0
 13 22  1  0  0  0  0
 13 12  1  0  0  0  0
 14 23  1  0  0  0  0
 14 27  1  0  0  0  0
 15 18  1  0  0  0  0
 17  7  1  0  0  0  0
 19 16  2  0  0  0  0
 20 30  1  0  0  0  0
 20 16  1  0  0  0  0
 21 22  1  0  0  0  0
 22 14  2  0  0  0  0
 23 28  1  0  0  0  0
 26  9  1  0  0  0  0
 27  5  1  0  0  0  0
 28  5  2  0  0  0  0
 28  9  1  0  0  0  0
 29 31  2  0  0  0  0
 29 32  1  0  0  0  0
 30 29  1  0  0  0  0
M  END
>  <MODEL>
3

>  <REMARK>
 VINA RESULT:      -8.3      1.387      4.442
  Name = 
  1 active torsions:
  status: ('A' for Active; 'I' for Inactive)
    1  A    between atoms: N_10  and  C_24
                            x       y       z     vdW  Elec       q    Type
                         _______ _______ _______ _____ _____    ______ ____

>  <TORSDO>
F 1

$$$$
=
 OpenBabel11052421263D

 32 37  0  0  0  0  0  0  0  0999 V2000
  189.1470  173.0490  138.4460 C   0  0  0  0  0  3  0  0  0  0  0  0
  189.0730  175.7260  142.9840 C   0  0  0  0  0  0  0  0  0  0  0  0
  184.9530  178.4010  142.6930 C   0  0  0  0  0  2  0  0  0  0  0  0
  185.6580  179.3560  143.4510 O   0  0  0  0  0  0  0  0  0  0  0  0
  190.1670  176.1640  145.2080 C   0  0  0  0  0  0  0  0  0  0  0  0
  191.3170  175.3710  145.3690 C   0  0  0  0  0  0  0  0  0  0  0  0
  189.8170  174.1890  141.3070 C   0  0  0  0  0  0  0  0  0  0  0  0
  187.8180  175.4980  140.9370 C   0  0  0  0  0  3  0  0  0  0  0  0
  190.4810  177.1680  147.3980 C   0  0  0  0  0  0  0  0  0  0  0  0
  188.4560  174.0480  139.2660 C   0  0  0  0  0  3  0  0  0  0  0  0
  185.9360  177.5860  141.8460 C   0  0  0  0  0  2  0  0  0  0  0  0
  187.9740  176.1000  142.1850 C   0  0  0  0  0  0  0  0  0  0  0  0
  187.0380  177.0880  142.6750 N   0  0  0  0  0  0  0  0  0  0  0  0
  188.3340  177.2700  144.6730 C   0  0  0  0  0  0  0  0  0  0  0  0
  191.6300  176.3850  147.5740 C   0  0  0  0  0  3  0  0  0  0  0  0
  191.0460  172.4520  139.9170 C   0  0  0  0  0  3  0  0  0  0  0  0
  188.7250  174.5410  140.4750 C   0  0  0  0  0  0  0  0  0  0  0  0
  192.0440  175.4930  146.5660 C   0  0  0  0  0  3  0  0  0  0  0  0
  190.8640  173.2100  140.9920 C   0  0  0  0  0  3  0  0  0  0  0  0
  190.2500  172.3490  138.6880 C   0  0  0  0  0  0  0  0  0  0  0  0
  186.2810  178.6660  144.5090 C   0  0  0  0  0  2  0  0  0  0  0  0
  187.2770  177.6820  143.9680 C   0  0  0  0  0  0  0  0  0  0  0  0
  188.6760  177.6870  145.8730 O   0  0  0  0  0  0  0  0  0  0  0  0
  189.9440  174.7940  142.5210 N   0  0  0  0  0  0  0  0  0  0  0  0
  191.7550  174.4830  144.3980 O   0  0  0  0  0  1  0  0  0  0  0  0
  190.0660  178.0490  148.3880 O   0  0  0  0  0  1  0  0  0  0  0  0
  189.2220  176.3110  144.1930 C   0  0  0  0  0  0  0  0  0  0  0  0
  189.7680  177.0380  146.2070 C   0  0  0  0  0  0  0  0  0  0  0  0
  190.5570  170.0110  137.6640 C   0  0  0  0  0  0  0  0  0  0  0  0
  190.6580  171.4410  137.6550 N   0  0  0  0  0  2  0  0  0  0  0  0
  190.0660  169.3920  138.6440 O   0  0  0  0  0  0  0  0  0  0  0  0
  191.0400  169.2410  136.4870 C   0  0  0  0  0  1  0  0  0  0  0  0
  1 20  2  0  0  0  0
  1 10  1  0  0  0  0
  2 27  2  0  0  0  0
  3  4  1  0  0  0  0
  4 21  1  0  0  0  0
  5  6  2  0  0  0  0
  5 28  1  0  0  0  0
  6 18  1  0  0  0  0
  7 24  2  0  0  0  0
  8 12  2  0  0  0  0
  9 15  1  0  0  0  0
  9 26  1  0  0  0  0
 10 17  2  0  0  0  0
 11 13  1  0  0  0  0
 11  3  1  0  0  0  0
 12 13  1  0  0  0  0
 12  2  1  0  0  0  0
 13 22  1  0  0  0  0
 14 23  1  0  0  0  0
 16 19  2  0  0  0  0
 17  8  1  0  0  0  0
 17  7  1  0  0  0  0
 18 15  2  0  0  0  0
 19  7  1  0  0  0  0
 20 16  1  0  0  0  0
 22 21  1  0  0  0  0
 22 14  2  0  0  0  0
 23 28  1  0  0  0  0
 24  2  1  0  0  0  0
 25  6  1  0  0  0  0
 27 14  1  0  0  0  0
 27  5  1  0  0  0  0
 28  9  2  0  0  0  0
 29 31  2  0  0  0  0
 30 29  1  0  0  0  0
 30 20  1  0  0  0  0
 32 29  1  0  0  0  0
M  END
>  <MODEL>
4

>  <REMARK>
 VINA RESULT:      -8.1      3.932      6.636
  Name = 
  1 active torsions:
  status: ('A' for Active; 'I' for Inactive)
    1  A    between atoms: N_10  and  C_24
                            x       y       z     vdW  Elec       q    Type
                         _______ _______ _______ _____ _____    ______ ____

>  <TORSDO>
F 1

$$$$
=
 OpenBabel11052421263D

 32 37  0  0  0  0  0  0  0  0999 V2000
  186.4490  176.4500  143.1400 C   0  0  0  0  0  3  0  0  0  0  0  0
  191.4130  174.8540  142.3740 C   0  0  0  0  0  0  0  0  0  0  0  0
  191.0210  171.5040  138.7910 C   0  0  0  0  0  2  0  0  0  0  0  0
  192.1130  170.8740  139.4190 O   0  0  0  0  0  0  0  0  0  0  0  0
  193.8420  175.1080  142.9820 C   0  0  0  0  0  0  0  0  0  0  0  0
  194.0150  176.1050  143.9590 C   0  0  0  0  0  0  0  0  0  0  0  0
  189.5780  176.0940  143.2820 C   0  0  0  0  0  0  0  0  0  0  0  0
  189.1730  174.4080  141.5960 C   0  0  0  0  0  3  0  0  0  0  0  0
  196.2310  174.6750  142.9150 C   0  0  0  0  0  0  0  0  0  0  0  0
  187.3460  175.5490  142.4110 C   0  0  0  0  0  3  0  0  0  0  0  0
  190.2000  172.2730  139.8320 C   0  0  0  0  0  2  0  0  0  0  0  0
  190.5380  174.1290  141.5390 C   0  0  0  0  0  0  0  0  0  0  0  0
  191.0720  173.1240  140.6470 N   0  0  0  0  0  0  0  0  0  0  0  0
  193.2610  173.6100  141.4690 C   0  0  0  0  0  0  0  0  0  0  0  0
  196.4210  175.6660  143.8880 C   0  0  0  0  0  3  0  0  0  0  0  0
  188.0580  177.6750  144.5680 C   0  0  0  0  0  3  0  0  0  0  0  0
  188.6680  175.3850  142.4580 C   0  0  0  0  0  0  0  0  0  0  0  0
  195.3200  176.3750  144.4060 C   0  0  0  0  0  3  0  0  0  0  0  0
  189.2330  177.1480  144.2430 C   0  0  0  0  0  3  0  0  0  0  0  0
  186.7140  177.3670  144.0640 C   0  0  0  0  0  0  0  0  0  0  0  0
  193.0630  171.8760  139.6960 C   0  0  0  0  0  2  0  0  0  0  0  0
  192.4930  172.8760  140.6590 C   0  0  0  0  0  0  0  0  0  0  0  0
  194.5700  173.5300  141.5800 O   0  0  0  0  0  0  0  0  0  0  0  0
  190.9060  175.8000  143.2040 N   0  0  0  0  0  0  0  0  0  0  0  0
  192.9550  176.8230  144.4910 O   0  0  0  0  0  1  0  0  0  0  0  0
  197.3120  173.9720  142.4000 O   0  0  0  0  0  1  0  0  0  0  0  0
  192.7350  174.5810  142.3170 C   0  0  0  0  0  0  0  0  0  0  0  0
  194.9320  174.4170  142.4800 C   0  0  0  0  0  0  0  0  0  0  0  0
  184.8400  177.7960  145.7710 C   0  0  0  0  0  0  0  0  0  0  0  0
  185.5840  178.0850  144.5800 N   0  0  0  0  0  2  0  0  0  0  0  0
  185.1380  176.8240  146.5130 O   0  0  0  0  0  0  0  0  0  0  0  0
  183.6910  178.6660  146.1380 C   0  0  0  0  0  1  0  0  0  0  0  0
  1 20  2  0  0  0  0
  2 24  1  0  0  0  0
  3  4  1  0  0  0  0
  3 11  1  0  0  0  0
  4 21  1  0  0  0  0
  5  6  1  0  0  0  0
  6 18  2  0  0  0  0
  6 25  1  0  0  0  0
  7 19  1  0  0  0  0
  8 17  1  0  0  0  0
  9 15  2  0  0  0  0
 10 17  2  0  0  0  0
 10  1  1  0  0  0  0
 11 13  1  0  0  0  0
 12  8  2  0  0  0  0
 12  2  1  0  0  0  0
 13 22  1  0  0  0  0
 13 12  1  0  0  0  0
 14 23  1  0  0  0  0
 14 27  1  0  0  0  0
 15 18  1  0  0  0  0
 17  7  1  0  0  0  0
 19 16  2  0  0  0  0
 20 16  1  0  0  0  0
 20 30  1  0  0  0  0
 21 22  1  0  0  0  0
 22 14  2  0  0  0  0
 23 28  1  0  0  0  0
 24  7  2  0  0  0  0
 26  9  1  0  0  0  0
 27  2  2  0  0  0  0
 27  5  1  0  0  0  0
 28  9  1  0  0  0  0
 28  5  2  0  0  0  0
 29 32  1  0  0  0  0
 29 31  2  0  0  0  0
 30 29  1  0  0  0  0
M  END
>  <MODEL>
5

>  <REMARK>
 VINA RESULT:      -7.7      3.147      9.077
  Name = 
  1 active torsions:
  status: ('A' for Active; 'I' for Inactive)
    1  A    between atoms: N_10  and  C_24
                            x       y       z     vdW  Elec       q    Type
                         _______ _______ _______ _____ _____    ______ ____

>  <TORSDO>
F 1

$$$$
=
 OpenBabel11052421263D

 32 37  0  0  0  0  0  0  0  0999 V2000
  184.5460  178.7540  144.3290 C   0  0  0  0  0  3  0  0  0  0  0  0
  189.0790  176.0880  143.9890 C   0  0  0  0  0  0  0  0  0  0  0  0
  191.2210  176.8670  148.3500 C   0  0  0  0  0  2  0  0  0  0  0  0
  192.4340  176.7910  147.6380 O   0  0  0  0  0  0  0  0  0  0  0  0
  190.5520  174.5710  142.6230 C   0  0  0  0  0  0  0  0  0  0  0  0
  189.9520  174.2630  141.3890 C   0  0  0  0  0  0  0  0  0  0  0  0
  186.9360  176.9430  143.3550 C   0  0  0  0  0  0  0  0  0  0  0  0
  187.8740  177.5230  145.5070 C   0  0  0  0  0  3  0  0  0  0  0  0
  192.4930  173.2120  142.0870 C   0  0  0  0  0  0  0  0  0  0  0  0
  185.8070  178.3940  144.9850 C   0  0  0  0  0  3  0  0  0  0  0  0
  190.1130  177.3900  147.4290 C   0  0  0  0  0  2  0  0  0  0  0  0
  189.0050  176.7590  145.2270 C   0  0  0  0  0  0  0  0  0  0  0  0
  190.0930  176.6350  146.1720 N   0  0  0  0  0  0  0  0  0  0  0  0
  191.2350  175.2270  144.6160 C   0  0  0  0  0  0  0  0  0  0  0  0
  191.9080  172.8950  140.8530 C   0  0  0  0  0  3  0  0  0  0  0  0
  184.7610  177.5410  142.1820 C   0  0  0  0  0  3  0  0  0  0  0  0
  186.8260  177.6320  144.5880 C   0  0  0  0  0  0  0  0  0  0  0  0
  190.6470  173.4170  140.5070 C   0  0  0  0  0  3  0  0  0  0  0  0
  185.9410  176.9390  142.2750 C   0  0  0  0  0  3  0  0  0  0  0  0
  184.0660  178.4110  143.1380 C   0  0  0  0  0  0  0  0  0  0  0  0
  192.3480  175.6630  146.7990 C   0  0  0  0  0  2  0  0  0  0  0  0
  191.2410  175.8430  145.8020 C   0  0  0  0  0  0  0  0  0  0  0  0
  192.1850  174.4510  144.1420 O   0  0  0  0  0  0  0  0  0  0  0  0
  188.0530  176.2030  143.1090 N   0  0  0  0  0  0  0  0  0  0  0  0
  188.7120  174.7600  141.0160 O   0  0  0  0  0  1  0  0  0  0  0  0
  193.7360  172.6990  142.4340 O   0  0  0  0  0  1  0  0  0  0  0  0
  190.1780  175.3480  143.7190 C   0  0  0  0  0  0  0  0  0  0  0  0
  191.7930  174.0510  142.9530 C   0  0  0  0  0  0  0  0  0  0  0  0
  182.0120  178.6870  141.6180 C   0  0  0  0  0  0  0  0  0  0  0  0
  182.7790  178.9470  142.8010 N   0  0  0  0  0  2  0  0  0  0  0  0
  182.4320  177.9150  140.7180 O   0  0  0  0  0  0  0  0  0  0  0  0
  180.6890  179.3450  141.4520 C   0  0  0  0  0  1  0  0  0  0  0  0
  1 10  1  0  0  0  0
  2 12  1  0  0  0  0
  4  3  1  0  0  0  0
  5 28  1  0  0  0  0
  5 27  1  0  0  0  0
  6  5  2  0  0  0  0
  7 17  1  0  0  0  0
  9 26  1  0  0  0  0
  9 28  2  0  0  0  0
 11  3  1  0  0  0  0
 12  8  2  0  0  0  0
 12 13  1  0  0  0  0
 13 11  1  0  0  0  0
 14 22  2  0  0  0  0
 15  9  1  0  0  0  0
 16 19  2  0  0  0  0
 16 20  1  0  0  0  0
 17 10  2  0  0  0  0
 17  8  1  0  0  0  0
 18 15  2  0  0  0  0
 18  6  1  0  0  0  0
 19  7  1  0  0  0  0
 20  1  2  0  0  0  0
 21  4  1  0  0  0  0
 22 13  1  0  0  0  0
 22 21  1  0  0  0  0
 23 14  1  0  0  0  0
 24  7  2  0  0  0  0
 24  2  1  0  0  0  0
 25  6  1  0  0  0  0
 27  2  2  0  0  0  0
 27 14  1  0  0  0  0
 28 23  1  0  0  0  0
 29 30  1  0  0  0  0
 30 20  1  0  0  0  0
 31 29  2  0  0  0  0
 32 29  1  0  0  0  0
M  END
>  <MODEL>
6

>  <REMARK>
 VINA RESULT:      -7.7      2.513      7.909
  Name = 
  1 active torsions:
  status: ('A' for Active; 'I' for Inactive)
    1  A    between atoms: N_10  and  C_24
                            x       y       z     vdW  Elec       q    Type
                         _______ _______ _______ _____ _____    ______ ____

>  <TORSDO>
F 1

$$$$
=
 OpenBabel11052421263D

 32 37  0  0  0  0  0  0  0  0999 V2000
  187.6260  176.0590  142.8150 C   0  0  0  0  0  3  0  0  0  0  0  0
  192.0000  173.2910  143.8020 C   0  0  0  0  0  0  0  0  0  0  0  0
  191.1960  168.9940  141.5420 C   0  0  0  0  0  2  0  0  0  0  0  0
  191.9680  168.4360  142.5800 O   0  0  0  0  0  0  0  0  0  0  0  0
  194.2920  173.2420  144.8420 C   0  0  0  0  0  0  0  0  0  0  0  0
  194.5970  174.4750  145.4450 C   0  0  0  0  0  0  0  0  0  0  0  0
  190.4770  175.1370  143.7930 C   0  0  0  0  0  0  0  0  0  0  0  0
  189.8590  173.0620  142.7150 C   0  0  0  0  0  3  0  0  0  0  0  0
  196.4490  172.3260  145.4810 C   0  0  0  0  0  0  0  0  0  0  0  0
  188.3280  174.7820  142.6560 C   0  0  0  0  0  3  0  0  0  0  0  0
  190.4850  170.2540  142.0470 C   0  0  0  0  0  2  0  0  0  0  0  0
  191.0840  172.5040  143.0740 C   0  0  0  0  0  0  0  0  0  0  0  0
  191.4360  171.1480  142.7150 N   0  0  0  0  0  0  0  0  0  0  0  0
  193.5350  171.4400  143.8180 C   0  0  0  0  0  0  0  0  0  0  0  0
  196.7690  173.5490  146.0880 C   0  0  0  0  0  3  0  0  0  0  0  0
  189.2950  177.3670  144.0920 C   0  0  0  0  0  3  0  0  0  0  0  0
  189.5310  174.3760  143.0620 C   0  0  0  0  0  0  0  0  0  0  0  0
  195.8490  174.6150  146.0700 C   0  0  0  0  0  3  0  0  0  0  0  0
  190.3090  176.5240  144.2430 C   0  0  0  0  0  3  0  0  0  0  0  0
  188.0030  177.1800  143.4190 C   0  0  0  0  0  0  0  0  0  0  0  0
  193.1120  169.2450  142.7240 C   0  0  0  0  0  2  0  0  0  0  0  0
  192.7150  170.6320  143.1400 C   0  0  0  0  0  0  0  0  0  0  0  0
  194.7390  171.1350  144.2520 O   0  0  0  0  0  0  0  0  0  0  0  0
  191.6660  174.5640  144.1300 N   0  0  0  0  0  0  0  0  0  0  0  0
  193.7160  175.5460  145.4470 O   0  0  0  0  0  1  0  0  0  0  0  0
  197.3510  171.2710  145.4950 O   0  0  0  0  0  1  0  0  0  0  0  0
  193.1870  172.7460  144.1490 C   0  0  0  0  0  0  0  0  0  0  0  0
  195.2040  172.2000  144.8650 C   0  0  0  0  0  0  0  0  0  0  0  0
  186.2920  178.7750  144.4860 C   0  0  0  0  0  0  0  0  0  0  0  0
  187.0590  178.2600  143.3890 N   0  0  0  0  0  2  0  0  0  0  0  0
  186.3930  178.2920  145.6430 O   0  0  0  0  0  0  0  0  0  0  0  0
  185.3580  179.9070  144.2500 C   0  0  0  0  0  1  0  0  0  0  0  0
  1 20  2  0  0  0  0
  2 24  1  0  0  0  0
  2 27  2  0  0  0  0
  3 11  1  0  0  0  0
  3  4  1  0  0  0  0
  4 21  1  0  0  0  0
  5 28  2  0  0  0  0
  5  6  1  0  0  0  0
  6 25  1  0  0  0  0
  6 18  2  0  0  0  0
  7 24  2  0  0  0  0
  7 19  1  0  0  0  0
  8 17  1  0  0  0  0
  8 12  2  0  0  0  0
  9 26  1  0  0  0  0
  9 15  2  0  0  0  0
 10  1  1  0  0  0  0
 10 17  2  0  0  0  0
 11 13  1  0  0  0  0
 12  2  1  0  0  0  0
 13 12  1  0  0  0  0
 13 22  1  0  0  0  0
 14 27  1  0  0  0  0
 14 23  1  0  0  0  0
 16 19  2  0  0  0  0
 17  7  1  0  0  0  0
 18 15  1  0  0  0  0
 20 16  1  0  0  0  0
 21 22  1  0  0  0  0
 22 14  2  0  0  0  0
 23 28  1  0  0  0  0
 27  5  1  0  0  0  0
 28  9  1  0  0  0  0
 29 31  2  0  0  0  0
 30 20  1  0  0  0  0
 30 29  1  0  0  0  0
 32 29  1  0  0  0  0
M  END
>  <MODEL>
7

>  <REMARK>
 VINA RESULT:      -7.6      3.339      9.534
  Name = 
  1 active torsions:
  status: ('A' for Active; 'I' for Inactive)
    1  A    between atoms: N_10  and  C_24
                            x       y       z     vdW  Elec       q    Type
                         _______ _______ _______ _____ _____    ______ ____

>  <TORSDO>
F 1

$$$$
=
 OpenBabel11052421263D

 32 37  0  0  0  0  0  0  0  0999 V2000
  192.4560  171.6620  140.8190 C   0  0  0  0  0  3  0  0  0  0  0  0
  189.5670  175.4740  143.0300 C   0  0  0  0  0  0  0  0  0  0  0  0
  191.7460  176.2140  147.3800 C   0  0  0  0  0  2  0  0  0  0  0  0
  190.4530  176.5240  147.8440 O   0  0  0  0  0  0  0  0  0  0  0  0
  187.6480  177.0860  142.8020 C   0  0  0  0  0  0  0  0  0  0  0  0
  187.0310  176.9600  141.5440 C   0  0  0  0  0  0  0  0  0  0  0  0
  190.3130  173.9020  141.3870 C   0  0  0  0  0  0  0  0  0  0  0  0
  191.4520  174.0480  143.5150 C   0  0  0  0  0  3  0  0  0  0  0  0
  186.1070  178.8490  143.4480 C   0  0  0  0  0  0  0  0  0  0  0  0
  192.2390  172.5050  141.9980 C   0  0  0  0  0  3  0  0  0  0  0  0
  191.6530  175.2160  146.2210 C   0  0  0  0  0  2  0  0  0  0  0  0
  190.5780  175.0550  143.9200 C   0  0  0  0  0  0  0  0  0  0  0  0
  190.6870  175.6800  145.2210 N   0  0  0  0  0  0  0  0  0  0  0  0
  188.8100  177.0540  144.6780 C   0  0  0  0  0  0  0  0  0  0  0  0
  185.4800  178.7360  142.1990 C   0  0  0  0  0  3  0  0  0  0  0  0
  190.6540  172.4600  139.3220 C   0  0  0  0  0  3  0  0  0  0  0  0
  191.3400  173.4550  142.2540 C   0  0  0  0  0  0  0  0  0  0  0  0
  185.9400  177.7970  141.2540 C   0  0  0  0  0  3  0  0  0  0  0  0
  190.0440  173.4000  140.0340 C   0  0  0  0  0  3  0  0  0  0  0  0
  191.8040  171.6130  139.6630 C   0  0  0  0  0  0  0  0  0  0  0  0
  189.8740  177.3940  146.9010 C   0  0  0  0  0  2  0  0  0  0  0  0
  189.7330  176.7020  145.5770 C   0  0  0  0  0  0  0  0  0  0  0  0
  187.8900  177.9810  144.8330 O   0  0  0  0  0  0  0  0  0  0  0  0
  189.4740  174.8880  141.8100 N   0  0  0  0  0  0  0  0  0  0  0  0
  187.4570  176.0470  140.5910 O   0  0  0  0  0  1  0  0  0  0  0  0
  185.6590  179.7720  144.3830 O   0  0  0  0  0  1  0  0  0  0  0  0
  188.7210  176.4500  143.4260 C   0  0  0  0  0  0  0  0  0  0  0  0
  187.1880  178.0130  143.7230 C   0  0  0  0  0  0  0  0  0  0  0  0
  191.6720  169.4140  138.3370 C   0  0  0  0  0  0  0  0  0  0  0  0
  192.2850  170.6560  138.7090 N   0  0  0  0  0  2  0  0  0  0  0  0
  190.5870  169.0370  138.8510 O   0  0  0  0  0  0  0  0  0  0  0  0
  192.3330  168.5540  137.3200 C   0  0  0  0  0  1  0  0  0  0  0  0
  1 10  1  0  0  0  0
  2 27  2  0  0  0  0
  2 12  1  0  0  0  0
  3  4  1  0  0  0  0
  5 27  1  0  0  0  0
  5 28  1  0  0  0  0
  6  5  2  0  0  0  0
  7 24  2  0  0  0  0
  7 17  1  0  0  0  0
  8 12  2  0  0  0  0
  9 28  2  0  0  0  0
  9 26  1  0  0  0  0
 10 17  2  0  0  0  0
 11  3  1  0  0  0  0
 12 13  1  0  0  0  0
 13 22  1  0  0  0  0
 13 11  1  0  0  0  0
 14 23  1  0  0  0  0
 14 22  2  0  0  0  0
 15  9  1  0  0  0  0
 16 20  1  0  0  0  0
 16 19  2  0  0  0  0
 17  8  1  0  0  0  0
 18  6  1  0  0  0  0
 18 15  2  0  0  0  0
 19  7  1  0  0  0  0
 20  1  2  0  0  0  0
 21  4  1  0  0  0  0
 22 21  1  0  0  0  0
 24  2  1  0  0  0  0
 25  6  1  0  0  0  0
 27 14  1  0  0  0  0
 28 23  1  0  0  0  0
 29 30  1  0  0  0  0
 29 31  2  0  0  0  0
 30 20  1  0  0  0  0
 32 29  1  0  0  0  0
M  END
>  <MODEL>
8

>  <REMARK>
 VINA RESULT:      -7.5      3.830      5.400
  Name = 
  1 active torsions:
  status: ('A' for Active; 'I' for Inactive)
    1  A    between atoms: N_10  and  C_24
                            x       y       z     vdW  Elec       q    Type
                         _______ _______ _______ _____ _____    ______ ____

>  <TORSDO>
F 1

$$$$
=
 OpenBabel11052421263D

 32 37  0  0  0  0  0  0  0  0999 V2000
  188.7960  175.7620  146.1880 C   0  0  0  0  0  3  0  0  0  0  0  0
  190.1070  172.8410  142.0020 C   0  0  0  0  0  0  0  0  0  0  0  0
  192.9900  169.3280  143.8870 C   0  0  0  0  0  2  0  0  0  0  0  0
  193.6560  169.3700  142.6470 O   0  0  0  0  0  0  0  0  0  0  0  0
  189.8470  172.4350  139.5310 C   0  0  0  0  0  0  0  0  0  0  0  0
  188.9750  173.3770  138.9560 C   0  0  0  0  0  0  0  0  0  0  0  0
  189.0570  174.5700  143.2810 C   0  0  0  0  0  0  0  0  0  0  0  0
  190.5300  172.9920  144.3720 C   0  0  0  0  0  3  0  0  0  0  0  0
  190.1830  171.3450  137.3870 C   0  0  0  0  0  0  0  0  0  0  0  0
  189.5660  174.6200  145.6840 C   0  0  0  0  0  3  0  0  0  0  0  0
  192.3880  170.7030  144.1970 C   0  0  0  0  0  2  0  0  0  0  0  0
  190.7510  172.3490  143.1550 C   0  0  0  0  0  0  0  0  0  0  0  0
  191.6160  171.1940  143.0510 N   0  0  0  0  0  0  0  0  0  0  0  0
  191.1610  171.1100  140.7080 C   0  0  0  0  0  0  0  0  0  0  0  0
  189.3170  172.2760  136.7970 C   0  0  0  0  0  3  0  0  0  0  0  0
  187.7060  176.5560  144.1120 C   0  0  0  0  0  3  0  0  0  0  0  0
  189.6880  174.1040  144.4620 C   0  0  0  0  0  0  0  0  0  0  0  0
  188.7170  173.2840  137.5770 C   0  0  0  0  0  3  0  0  0  0  0  0
  188.1450  175.7160  143.1830 C   0  0  0  0  0  3  0  0  0  0  0  0
  187.9940  176.6080  145.5510 C   0  0  0  0  0  0  0  0  0  0  0  0
  192.6640  169.3630  141.6470 C   0  0  0  0  0  2  0  0  0  0  0  0
  191.8130  170.5950  141.7540 C   0  0  0  0  0  0  0  0  0  0  0  0
  191.2090  170.6670  139.4700 O   0  0  0  0  0  0  0  0  0  0  0  0
  189.2920  173.9210  142.1070 N   0  0  0  0  0  0  0  0  0  0  0  0
  188.3680  174.3830  139.6920 O   0  0  0  0  0  1  0  0  0  0  0  0
  190.7770  170.3480  136.6240 O   0  0  0  0  0  1  0  0  0  0  0  0
  190.3240  172.2160  140.8240 C   0  0  0  0  0  0  0  0  0  0  0  0
  190.4300  171.4470  138.7550 C   0  0  0  0  0  0  0  0  0  0  0  0
  186.0250  177.6880  146.8030 C   0  0  0  0  0  0  0  0  0  0  0  0
  187.3870  177.6270  146.3580 N   0  0  0  0  0  2  0  0  0  0  0  0
  185.1950  176.7910  146.5030 O   0  0  0  0  0  0  0  0  0  0  0  0
  185.5850  178.8360  147.6380 C   0  0  0  0  0  1  0  0  0  0  0  0
  2 24  1  0  0  0  0
  2 12  1  0  0  0  0
  3 11  1  0  0  0  0
  4  3  1  0  0  0  0
  5 27  1  0  0  0  0
  6  5  1  0  0  0  0
  6 25  1  0  0  0  0
  7 17  1  0  0  0  0
  8 17  1  0  0  0  0
  9 28  1  0  0  0  0
 10  1  1  0  0  0  0
 12  8  2  0  0  0  0
 13 12  1  0  0  0  0
 13 11  1  0  0  0  0
 14 27  1  0  0  0  0
 14 22  2  0  0  0  0
 15  9  2  0  0  0  0
 15 18  1  0  0  0  0
 16 20  1  0  0  0  0
 17 10  2  0  0  0  0
 18  6  2  0  0  0  0
 19  7  1  0  0  0  0
 19 16  2  0  0  0  0
 20  1  2  0  0  0  0
 20 30  1  0  0  0  0
 21 22  1  0  0  0  0
 21  4  1  0  0  0  0
 22 13  1  0  0  0  0
 23 14  1  0  0  0  0
 24  7  2  0  0  0  0
 26  9  1  0  0  0  0
 27  2  2  0  0  0  0
 28 23  1  0  0  0  0
 28  5  2  0  0  0  0
 29 32  1  0  0  0  0
 30 29  1  0  0  0  0
 31 29  2  0  0  0  0
M  END
>  <MODEL>
9

>  <REMARK>
 VINA RESULT:      -7.4      4.191      8.056
  Name = 
  1 active torsions:
  status: ('A' for Active; 'I' for Inactive)
    1  A    between atoms: N_10  and  C_24
                            x       y       z     vdW  Elec       q    Type
                         _______ _______ _______ _____ _____    ______ ____

>  <TORSDO>
F 1

$$$$
