=
 OpenBabel11052421343D

 32 37  0  0  1  0  0  0  0  0999 V2000
  184.9050  178.0220  146.1560 C   0  0  0  0  0  0  0  0  0  0  0  0
  186.2470  176.6480  143.2310 O   0  0  0  0  0  0  0  0  0  0  0  0
  190.8920  174.9760  143.6020 C   0  0  0  0  0  0  0  0  0  0  0  0
  190.9150  172.6480  139.3460 C   0  0  0  0  0  3  0  0  0  0  0  0
  192.0790  171.9770  139.7300 C   0  0  0  0  0  3  0  0  0  0  0  0
  189.1480  176.5700  144.1190 C   0  0  0  0  0  0  0  0  0  0  0  0
  189.1590  175.4230  142.0100 N   0  0  0  0  0  0  0  0  0  0  0  0
  184.8720  177.7600  144.7650 N   0  0  0  0  0  2  0  0  0  0  0  0
  187.3210  177.0140  142.4080 C   0  0  0  0  0  2  0  0  0  0  0  0
  190.3190  173.5670  140.2110 C   0  0  0  0  0  3  0  0  0  0  0  0
  190.2920  174.7490  142.3480 C   0  0  0  0  0  0  0  0  0  0  0  0
  190.8810  173.8270  141.4690 C   0  0  0  0  0  0  0  0  0  0  0  0
  192.6210  173.4120  143.1240 C   0  0  0  0  0  0  0  0  0  0  0  0
  186.5250  178.0930  146.8880 S   0  0  0  0  0  0  0  0  0  0  0  0
  187.1120  177.2060  145.4050 C   0  0  2  0  0  3  0  0  0  0  0  0
  183.8520  178.1130  146.8370 O   0  0  0  0  0  0  0  0  0  0  0  0
  188.5760  176.3220  142.8500 C   0  0  0  0  0  0  0  0  0  0  0  0
  188.5610  177.5500  145.0940 C   0  0  0  0  0  2  0  0  0  0  0  0
  186.2140  177.6190  144.2380 C   0  0  1  0  0  3  0  0  0  0  0  0
  192.6490  172.2250  140.9800 C   0  0  0  0  0  3  0  0  0  0  0  0
  192.0610  173.1470  141.8600 C   0  0  0  0  0  0  0  0  0  0  0  0
  190.3120  175.8890  144.4810 C   0  0  0  0  0  3  0  0  0  0  0  0
  192.0230  174.3120  143.9530 N   0  0  0  0  0  0  0  0  0  0  0  0
  194.8280  171.2180  145.3220 C   0  0  2  0  0  3  0  0  0  0  0  0
  195.6480  172.3440  145.7500 N   0  0  0  0  0  2  0  0  0  0  0  0
  194.9750  173.7180  143.9750 C   0  0  1  0  0  3  0  0  0  0  0  0
  197.0590  174.0080  145.0800 C   0  0  0  0  0  1  0  0  0  0  0  0
  196.1090  173.0130  144.5990 N   0  0  0  0  0  0  0  0  0  0  0  0
  193.5430  171.7580  144.7220 C   0  0  0  0  0  2  0  0  0  0  0  0
  194.5280  170.4250  146.4120 F   0  0  0  0  0  0  0  0  0  0  0  0
  195.4360  174.4500  142.7160 C   0  0  0  0  0  1  0  0  0  0  0  0
  193.8730  172.7140  143.5800 C   0  0  1  0  0  3  0  0  0  0  0  0
  1 16  2  0  0  0  0
  1 14  1  0  0  0  0
  3 23  1  0  0  0  0
  3 22  1  0  0  0  0
  4  5  2  0  0  0  0
  4 10  1  0  0  0  0
  5 20  1  0  0  0  0
  6 22  2  0  0  0  0
  6 18  1  0  0  0  0
  7 11  1  0  0  0  0
  7 17  2  0  0  0  0
  8  1  1  0  0  0  0
  9 17  1  0  0  0  0
  9  2  1  0  0  0  0
 10 12  2  0  0  0  0
 11  3  2  0  0  0  0
 12 21  1  0  0  0  0
 12 11  1  0  0  0  0
 13 23  2  0  0  0  0
 15 18  1  6  0  0  0
 15 14  1  0  0  0  0
 17  6  1  0  0  0  0
 19  2  1  6  0  0  0
 19  8  1  0  0  0  0
 19 15  1  0  0  0  0
 20 21  2  0  0  0  0
 21 13  1  0  0  0  0
 24 25  1  0  0  0  0
 24 30  1  1  0  0  0
 26 31  1  6  0  0  0
 26 28  1  0  0  0  0
 28 27  1  0  0  0  0
 28 25  1  0  0  0  0
 29 24  1  0  0  0  0
 32 13  1  1  0  0  0
 32 26  1  0  0  0  0
 32 29  1  0  0  0  0
M  END
>  <MODEL>
1

>  <REMARK>
 VINA RESULT:      -7.5      0.000      0.000
  Name = 
  1 active torsions:
  status: ('A' for Active; 'I' for Inactive)
    1  A    between atoms: C_16  and  C_32
                            x       y       z     vdW  Elec       q    Type
                         _______ _______ _______ _____ _____    ______ ____

>  <TORSDO>
F 1

$$$$
=
 OpenBabel11052421343D

 32 37  0  0  1  0  0  0  0  0999 V2000
  184.6440  178.4350  145.8420 C   0  0  0  0  0  0  0  0  0  0  0  0
  185.3950  177.1550  142.6730 O   0  0  0  0  0  0  0  0  0  0  0  0
  189.6370  174.6240  142.3520 C   0  0  0  0  0  0  0  0  0  0  0  0
  188.7830  172.7960  137.9400 C   0  0  0  0  0  3  0  0  0  0  0  0
  189.8250  171.8850  138.1260 C   0  0  0  0  0  3  0  0  0  0  0  0
  188.2980  176.4480  143.2040 C   0  0  0  0  0  0  0  0  0  0  0  0
  187.8760  175.5500  141.0190 N   0  0  0  0  0  0  0  0  0  0  0  0
  184.4230  178.3330  144.4480 N   0  0  0  0  0  2  0  0  0  0  0  0
  186.4330  177.4010  141.7640 C   0  0  0  0  0  2  0  0  0  0  0  0
  188.4670  173.7130  138.9440 C   0  0  0  0  0  3  0  0  0  0  0  0
  188.8830  174.6460  141.1630 C   0  0  0  0  0  0  0  0  0  0  0  0
  189.1900  173.7290  140.1450 C   0  0  0  0  0  0  0  0  0  0  0  0
  190.9710  172.8270  141.5430 C   0  0  0  0  0  0  0  0  0  0  0  0
  186.3110  178.1270  146.3820 S   0  0  0  0  0  0  0  0  0  0  0  0
  186.5640  177.3100  144.7710 C   0  0  2  0  0  3  0  0  0  0  0  0
  183.7020  178.6470  146.6480 O   0  0  0  0  0  0  0  0  0  0  0  0
  187.5660  176.4470  141.9950 C   0  0  0  0  0  0  0  0  0  0  0  0
  188.0140  177.4120  144.3210 C   0  0  0  0  0  2  0  0  0  0  0  0
  185.6520  178.0030  143.7570 C   0  0  1  0  0  3  0  0  0  0  0  0
  190.5540  171.8890  139.3170 C   0  0  0  0  0  3  0  0  0  0  0  0
  190.2480  172.8050  140.3350 C   0  0  0  0  0  0  0  0  0  0  0  0
  189.3370  175.5300  143.3670 C   0  0  0  0  0  3  0  0  0  0  0  0
  190.6460  173.7290  142.5100 N   0  0  0  0  0  0  0  0  0  0  0  0
  192.9080  170.0320  143.2620 C   0  0  2  0  0  3  0  0  0  0  0  0
  193.9660  170.9340  143.6980 N   0  0  0  0  0  2  0  0  0  0  0  0
  193.4080  172.6000  142.1460 C   0  0  1  0  0  3  0  0  0  0  0  0
  195.6030  172.3770  143.0310 C   0  0  0  0  0  1  0  0  0  0  0  0
  194.4390  171.6340  142.5700 N   0  0  0  0  0  0  0  0  0  0  0  0
  191.7010  170.8630  142.8640 C   0  0  0  0  0  2  0  0  0  0  0  0
  192.5630  169.1890  144.3010 F   0  0  0  0  0  0  0  0  0  0  0  0
  193.8830  173.3730  140.9180 C   0  0  0  0  0  1  0  0  0  0  0  0
  192.1020  171.8650  141.7870 C   0  0  1  0  0  3  0  0  0  0  0  0
  1 14  1  0  0  0  0
  1 16  2  0  0  0  0
  3 23  1  0  0  0  0
  3 22  1  0  0  0  0
  4  5  2  0  0  0  0
  4 10  1  0  0  0  0
  5 20  1  0  0  0  0
  6 22  2  0  0  0  0
  6 18  1  0  0  0  0
  7 11  1  0  0  0  0
  7 17  2  0  0  0  0
  8  1  1  0  0  0  0
  9 17  1  0  0  0  0
  9  2  1  0  0  0  0
 10 12  2  0  0  0  0
 11  3  2  0  0  0  0
 12 21  1  0  0  0  0
 12 11  1  0  0  0  0
 13 23  2  0  0  0  0
 15 18  1  6  0  0  0
 15 14  1  0  0  0  0
 17  6  1  0  0  0  0
 19  2  1  6  0  0  0
 19  8  1  0  0  0  0
 19 15  1  0  0  0  0
 20 21  2  0  0  0  0
 21 13  1  0  0  0  0
 24 25  1  0  0  0  0
 24 30  1  1  0  0  0
 26 31  1  6  0  0  0
 26 28  1  0  0  0  0
 28 27  1  0  0  0  0
 28 25  1  0  0  0  0
 29 24  1  0  0  0  0
 32 13  1  1  0  0  0
 32 26  1  0  0  0  0
 32 29  1  0  0  0  0
M  END
>  <MODEL>
2

>  <REMARK>
 VINA RESULT:      -7.3      1.664      2.113
  Name = 
  1 active torsions:
  status: ('A' for Active; 'I' for Inactive)
    1  A    between atoms: C_16  and  C_32
                            x       y       z     vdW  Elec       q    Type
                         _______ _______ _______ _____ _____    ______ ____

>  <TORSDO>
F 1

$$$$
=
 OpenBabel11052421343D

 32 37  0  0  1  0  0  0  0  0999 V2000
  190.7630  169.6940  139.0680 C   0  0  0  0  0  0  0  0  0  0  0  0
  191.9650  171.5170  141.8020 O   0  0  0  0  0  0  0  0  0  0  0  0
  189.3190  175.5180  143.0220 C   0  0  0  0  0  0  0  0  0  0  0  0
  191.5250  176.2870  147.2740 C   0  0  0  0  0  3  0  0  0  0  0  0
  190.5010  177.1660  147.6350 C   0  0  0  0  0  3  0  0  0  0  0  0
  190.2790  174.0070  141.3960 C   0  0  0  0  0  0  0  0  0  0  0  0
  191.3760  174.3880  143.4970 N   0  0  0  0  0  0  0  0  0  0  0  0
  191.7500  169.9940  140.0360 N   0  0  0  0  0  2  0  0  0  0  0  0
  192.4610  172.8210  141.9380 C   0  0  0  0  0  2  0  0  0  0  0  0
  191.4940  175.6490  146.0320 C   0  0  0  0  0  3  0  0  0  0  0  0
  190.3970  175.2510  143.8860 C   0  0  0  0  0  0  0  0  0  0  0  0
  190.4400  175.8850  145.1370 C   0  0  0  0  0  0  0  0  0  0  0  0
  188.3460  177.0100  144.6010 C   0  0  0  0  0  0  0  0  0  0  0  0
  189.6910  171.0410  138.6180 S   0  0  0  0  0  0  0  0  0  0  0  0
  190.2340  171.8430  140.1640 C   0  0  2  0  0  3  0  0  0  0  0  0
  190.6060  168.5280  138.6220 O   0  0  0  0  0  0  0  0  0  0  0  0
  191.3510  173.7670  142.2870 C   0  0  0  0  0  0  0  0  0  0  0  0
  190.1890  173.3590  140.0440 C   0  0  0  0  0  2  0  0  0  0  0  0
  191.6650  171.3820  140.4410 C   0  0  1  0  0  3  0  0  0  0  0  0
  189.4450  177.4100  146.7550 C   0  0  0  0  0  3  0  0  0  0  0  0
  189.4010  176.7760  145.5030 C   0  0  0  0  0  0  0  0  0  0  0  0
  189.2680  174.8910  141.7780 C   0  0  0  0  0  3  0  0  0  0  0  0
  188.3350  176.3770  143.3950 N   0  0  0  0  0  0  0  0  0  0  0  0
  185.3540  178.3580  146.5360 C   0  0  2  0  0  3  0  0  0  0  0  0
  184.4410  178.1420  145.4200 N   0  0  0  0  0  2  0  0  0  0  0  0
  186.1590  178.0010  143.8320 C   0  0  1  0  0  3  0  0  0  0  0  0
  183.9540  178.6750  143.2560 C   0  0  0  0  0  1  0  0  0  0  0  0
  184.9840  178.7690  144.2810 N   0  0  0  0  0  0  0  0  0  0  0  0
  186.6160  177.5520  146.2890 C   0  0  0  0  0  2  0  0  0  0  0  0
  184.7580  177.9330  147.7070 F   0  0  0  0  0  0  0  0  0  0  0  0
  186.7800  178.6580  142.6010 C   0  0  0  0  0  1  0  0  0  0  0  0
  187.2230  177.9480  144.9470 C   0  0  1  0  0  3  0  0  0  0  0  0
  1  8  1  0  0  0  0
  2  9  1  0  0  0  0
  3 23  2  0  0  0  0
  3 11  1  0  0  0  0
  4  5  1  0  0  0  0
  6 22  2  0  0  0  0
  6 17  1  0  0  0  0
  7 11  1  0  0  0  0
  9 17  1  0  0  0  0
 10  4  2  0  0  0  0
 11 12  2  0  0  0  0
 12 21  1  0  0  0  0
 12 10  1  0  0  0  0
 13 21  2  0  0  0  0
 14  1  1  0  0  0  0
 14 15  1  0  0  0  0
 15 18  1  6  0  0  0
 15 19  1  0  0  0  0
 16  1  2  0  0  0  0
 17  7  2  0  0  0  0
 18  6  1  0  0  0  0
 19  8  1  1  0  0  0
 19  2  1  0  0  0  0
 20  5  2  0  0  0  0
 21 20  1  0  0  0  0
 22  3  1  0  0  0  0
 23 13  1  0  0  0  0
 24 30  1  1  0  0  0
 25 24  1  0  0  0  0
 26 31  1  6  0  0  0
 26 28  1  0  0  0  0
 26 32  1  0  0  0  0
 27 28  1  0  0  0  0
 28 25  1  0  0  0  0
 29 24  1  0  0  0  0
 32 13  1  6  0  0  0
 32 29  1  0  0  0  0
M  END
>  <MODEL>
3

>  <REMARK>
 VINA RESULT:      -7.3      4.478      8.851
  Name = 
  1 active torsions:
  status: ('A' for Active; 'I' for Inactive)
    1  A    between atoms: C_16  and  C_32
                            x       y       z     vdW  Elec       q    Type
                         _______ _______ _______ _____ _____    ______ ____

>  <TORSDO>
F 1

$$$$
=
 OpenBabel11052421343D

 32 37  0  0  1  0  0  0  0  0999 V2000
  191.4320  169.3650  136.9540 C   0  0  0  0  0  0  0  0  0  0  0  0
  193.5100  171.6800  138.5560 O   0  0  0  0  0  0  0  0  0  0  0  0
  191.3410  174.4100  142.0700 C   0  0  0  0  0  0  0  0  0  0  0  0
  195.4550  176.2420  143.8760 C   0  0  0  0  0  3  0  0  0  0  0  0
  194.7550  176.6760  145.0040 C   0  0  0  0  0  3  0  0  0  0  0  0
  191.3330  173.2910  139.9270 C   0  0  0  0  0  0  0  0  0  0  0  0
  193.3690  174.2000  140.8140 N   0  0  0  0  0  0  0  0  0  0  0  0
  192.6450  170.0850  137.0770 N   0  0  0  0  0  2  0  0  0  0  0  0
  193.5070  173.0800  138.6250 C   0  0  0  0  0  2  0  0  0  0  0  0
  194.7850  175.5650  142.8540 C   0  0  0  0  0  3  0  0  0  0  0  0
  192.7230  174.6380  141.9300 C   0  0  0  0  0  0  0  0  0  0  0  0
  193.4080  175.3170  142.9490 C   0  0  0  0  0  0  0  0  0  0  0  0
  191.3150  175.5050  144.1830 C   0  0  0  0  0  0  0  0  0  0  0  0
  189.9920  170.1590  137.6330 S   0  0  0  0  0  0  0  0  0  0  0  0
  191.1510  171.2050  138.5770 C   0  0  2  0  0  3  0  0  0  0  0  0
  191.3990  168.2040  136.4720 O   0  0  0  0  0  0  0  0  0  0  0  0
  192.7200  173.5420  139.8160 C   0  0  0  0  0  0  0  0  0  0  0  0
  190.5520  172.5750  138.8620 C   0  0  0  0  0  2  0  0  0  0  0  0
  192.4220  171.3540  137.7380 C   0  0  1  0  0  3  0  0  0  0  0  0
  193.3840  176.4350  145.1130 C   0  0  0  0  0  3  0  0  0  0  0  0
  192.6980  175.7560  144.0940 C   0  0  0  0  0  0  0  0  0  0  0  0
  190.6540  173.7360  141.0620 C   0  0  0  0  0  3  0  0  0  0  0  0
  190.6820  174.8420  143.1760 N   0  0  0  0  0  0  0  0  0  0  0  0
  189.1480  175.1710  147.2990 C   0  0  2  0  0  3  0  0  0  0  0  0
  188.0050  175.8140  146.6630 N   0  0  0  0  0  2  0  0  0  0  0  0
  189.2940  176.7920  144.9680 C   0  0  1  0  0  3  0  0  0  0  0  0
  187.2240  177.7180  145.6790 C   0  0  0  0  0  1  0  0  0  0  0  0
  188.4340  177.0480  146.1370 N   0  0  0  0  0  0  0  0  0  0  0  0
  190.1240  174.7430  146.2180 C   0  0  0  0  0  2  0  0  0  0  0  0
  188.7210  174.0580  147.9980 F   0  0  0  0  0  0  0  0  0  0  0  0
  189.7860  178.1110  144.3740 C   0  0  0  0  0  1  0  0  0  0  0  0
  190.5210  175.9540  145.3800 C   0  0  1  0  0  3  0  0  0  0  0  0
  1  8  1  0  0  0  0
  1 14  1  0  0  0  0
  2  9  1  0  0  0  0
  3 23  1  0  0  0  0
  4  5  1  0  0  0  0
  5 20  2  0  0  0  0
  6 22  1  0  0  0  0
  7 11  2  0  0  0  0
  9 17  1  0  0  0  0
 10 12  1  0  0  0  0
 10  4  2  0  0  0  0
 11  3  1  0  0  0  0
 11 12  1  0  0  0  0
 12 21  2  0  0  0  0
 14 15  1  0  0  0  0
 15 18  1  6  0  0  0
 16  1  2  0  0  0  0
 17  6  2  0  0  0  0
 17  7  1  0  0  0  0
 18  6  1  0  0  0  0
 19  8  1  1  0  0  0
 19  2  1  0  0  0  0
 19 15  1  0  0  0  0
 21 13  1  0  0  0  0
 21 20  1  0  0  0  0
 22  3  2  0  0  0  0
 23 13  2  0  0  0  0
 24 30  1  6  0  0  0
 25 24  1  0  0  0  0
 26 31  1  1  0  0  0
 26 32  1  0  0  0  0
 26 28  1  0  0  0  0
 27 28  1  0  0  0  0
 28 25  1  0  0  0  0
 29 24  1  0  0  0  0
 32 13  1  6  0  0  0
 32 29  1  0  0  0  0
M  END
>  <MODEL>
4

>  <REMARK>
 VINA RESULT:      -7.2      4.661      8.064
  Name = 
  1 active torsions:
  status: ('A' for Active; 'I' for Inactive)
    1  A    between atoms: C_16  and  C_32
                            x       y       z     vdW  Elec       q    Type
                         _______ _______ _______ _____ _____    ______ ____

>  <TORSDO>
F 1

$$$$
=
 OpenBabel11052421343D

 32 37  0  0  1  0  0  0  0  0999 V2000
  185.2490  178.8340  144.3270 C   0  0  0  0  0  0  0  0  0  0  0  0
  188.1810  177.7410  145.8930 O   0  0  0  0  0  0  0  0  0  0  0  0
  191.3090  175.2010  143.0180 C   0  0  0  0  0  0  0  0  0  0  0  0
  195.0240  175.2910  146.1380 C   0  0  0  0  0  3  0  0  0  0  0  0
  195.8810  174.8800  145.1140 C   0  0  0  0  0  3  0  0  0  0  0  0
  189.0810  175.7950  143.7460 C   0  0  0  0  0  0  0  0  0  0  0  0
  190.9150  175.8350  145.2940 N   0  0  0  0  0  0  0  0  0  0  0  0
  186.0480  178.6120  145.4730 N   0  0  0  0  0  2  0  0  0  0  0  0
  188.7020  176.4690  146.1670 C   0  0  0  0  0  2  0  0  0  0  0  0
  193.6640  175.4770  145.8800 C   0  0  0  0  0  3  0  0  0  0  0  0
  191.7830  175.4370  144.3230 C   0  0  0  0  0  0  0  0  0  0  0  0
  193.1470  175.2540  144.5960 C   0  0  0  0  0  0  0  0  0  0  0  0
  193.4910  174.6130  142.2700 C   0  0  0  0  0  0  0  0  0  0  0  0
  185.5580  177.7490  142.9510 S   0  0  0  0  0  0  0  0  0  0  0  0
  187.1560  177.3750  143.7480 C   0  0  2  0  0  3  0  0  0  0  0  0
  184.4350  179.7910  144.2630 O   0  0  0  0  0  0  0  0  0  0  0  0
  189.5890  176.0160  145.0460 C   0  0  0  0  0  0  0  0  0  0  0  0
  187.6290  175.9700  143.4030 C   0  0  0  0  0  2  0  0  0  0  0  0
  186.9560  177.5040  145.2580 C   0  0  1  0  0  3  0  0  0  0  0  0
  195.3800  174.6540  143.8310 C   0  0  0  0  0  3  0  0  0  0  0  0
  194.0160  174.8370  143.5570 C   0  0  0  0  0  0  0  0  0  0  0  0
  189.9560  175.3820  142.7390 C   0  0  0  0  0  3  0  0  0  0  0  0
  192.1620  174.8020  142.0390 N   0  0  0  0  0  0  0  0  0  0  0  0
  195.1280  174.7180  138.8310 C   0  0  2  0  0  3  0  0  0  0  0  0
  194.4490  173.5070  138.3890 N   0  0  0  0  0  2  0  0  0  0  0  0
  193.9330  172.8080  140.5660 C   0  0  1  0  0  3  0  0  0  0  0  0
  194.1450  171.2760  138.7610 C   0  0  0  0  0  1  0  0  0  0  0  0
  194.6910  172.4960  139.3400 N   0  0  0  0  0  0  0  0  0  0  0  0
  194.4140  175.2500  140.0600 C   0  0  0  0  0  2  0  0  0  0  0  0
  195.0810  175.6660  137.8270 F   0  0  0  0  0  0  0  0  0  0  0  0
  194.1780  171.7360  141.6260 C   0  0  0  0  0  1  0  0  0  0  0  0
  194.3760  174.1700  141.1370 C   0  0  1  0  0  3  0  0  0  0  0  0
  1  8  1  0  0  0  0
  2  9  1  0  0  0  0
  3 11  1  0  0  0  0
  5  4  2  0  0  0  0
  6 17  2  0  0  0  0
 10  4  1  0  0  0  0
 11 12  1  0  0  0  0
 11  7  2  0  0  0  0
 12 10  2  0  0  0  0
 13 21  1  0  0  0  0
 14 15  1  0  0  0  0
 14  1  1  0  0  0  0
 15 18  1  1  0  0  0
 15 19  1  0  0  0  0
 16  1  2  0  0  0  0
 17  7  1  0  0  0  0
 17  9  1  0  0  0  0
 18  6  1  0  0  0  0
 19  8  1  6  0  0  0
 19  2  1  0  0  0  0
 20  5  1  0  0  0  0
 21 20  2  0  0  0  0
 21 12  1  0  0  0  0
 22  3  2  0  0  0  0
 22  6  1  0  0  0  0
 23 13  2  0  0  0  0
 23  3  1  0  0  0  0
 24 30  1  6  0  0  0
 24 29  1  0  0  0  0
 25 24  1  0  0  0  0
 25 28  1  0  0  0  0
 26 32  1  0  0  0  0
 26 31  1  1  0  0  0
 27 28  1  0  0  0  0
 28 26  1  0  0  0  0
 29 32  1  0  0  0  0
 32 13  1  1  0  0  0
M  END
>  <MODEL>
5

>  <REMARK>
 VINA RESULT:      -7.0      3.060      4.652
  Name = 
  1 active torsions:
  status: ('A' for Active; 'I' for Inactive)
    1  A    between atoms: C_16  and  C_32
                            x       y       z     vdW  Elec       q    Type
                         _______ _______ _______ _____ _____    ______ ____

>  <TORSDO>
F 1

$$$$
=
 OpenBabel11052421343D

 32 37  0  0  1  0  0  0  0  0999 V2000
  186.7060  178.3040  143.2470 C   0  0  0  0  0  0  0  0  0  0  0  0
  189.3450  176.9610  145.1110 O   0  0  0  0  0  0  0  0  0  0  0  0
  192.9180  174.7770  142.4730 C   0  0  0  0  0  0  0  0  0  0  0  0
  196.0660  174.3840  146.1440 C   0  0  0  0  0  3  0  0  0  0  0  0
  197.0830  174.0990  145.2290 C   0  0  0  0  0  3  0  0  0  0  0  0
  190.5970  175.3050  142.8980 C   0  0  0  0  0  0  0  0  0  0  0  0
  192.1510  175.1070  144.7170 N   0  0  0  0  0  0  0  0  0  0  0  0
  187.3060  177.9170  144.4690 N   0  0  0  0  0  2  0  0  0  0  0  0
  189.8200  175.6550  145.2930 C   0  0  0  0  0  2  0  0  0  0  0  0
  194.7670  174.6260  145.6930 C   0  0  0  0  0  3  0  0  0  0  0  0
  193.1690  174.8270  143.8580 C   0  0  0  0  0  0  0  0  0  0  0  0
  194.4700  174.5860  144.3230 C   0  0  0  0  0  0  0  0  0  0  0  0
  195.1960  174.2570  142.0200 C   0  0  0  0  0  0  0  0  0  0  0  0
  187.2430  177.4080  141.8070 S   0  0  0  0  0  0  0  0  0  0  0  0
  188.6890  176.9030  142.7970 C   0  0  2  0  0  3  0  0  0  0  0  0
  185.9090  179.2740  143.1800 O   0  0  0  0  0  0  0  0  0  0  0  0
  190.8830  175.3420  144.2830 C   0  0  0  0  0  0  0  0  0  0  0  0
  189.2210  175.5500  142.3490 C   0  0  0  0  0  2  0  0  0  0  0  0
  188.2430  176.8320  144.2580 C   0  0  1  0  0  3  0  0  0  0  0  0
  196.8020  174.0560  143.8620 C   0  0  0  0  0  3  0  0  0  0  0  0
  195.5010  174.2970  143.3950 C   0  0  0  0  0  0  0  0  0  0  0  0
  191.6290  175.0170  142.0020 C   0  0  0  0  0  3  0  0  0  0  0  0
  193.9230  174.4980  141.6020 N   0  0  0  0  0  0  0  0  0  0  0  0
  197.5490  174.8940  139.0910 C   0  0  2  0  0  3  0  0  0  0  0  0
  196.8640  173.9320  138.2370 N   0  0  0  0  0  2  0  0  0  0  0  0
  195.8170  172.8420  140.0290 C   0  0  1  0  0  3  0  0  0  0  0  0
  196.2630  171.7470  137.9670 C   0  0  0  0  0  1  0  0  0  0  0  0
  196.7890  172.7060  138.9290 N   0  0  0  0  0  0  0  0  0  0  0  0
  196.6400  175.2330  140.2590 C   0  0  0  0  0  2  0  0  0  0  0  0
  197.8180  176.0410  138.3700 F   0  0  0  0  0  0  0  0  0  0  0  0
  195.7150  171.5320  140.8080 C   0  0  0  0  0  1  0  0  0  0  0  0
  196.2590  173.9550  140.9990 C   0  0  1  0  0  3  0  0  0  0  0  0
  1  8  1  0  0  0  0
  2  9  1  0  0  0  0
  3 11  1  0  0  0  0
  5  4  2  0  0  0  0
  6 17  2  0  0  0  0
 10  4  1  0  0  0  0
 11 12  1  0  0  0  0
 11  7  2  0  0  0  0
 12 10  2  0  0  0  0
 13 21  1  0  0  0  0
 14 15  1  0  0  0  0
 14  1  1  0  0  0  0
 15 18  1  6  0  0  0
 15 19  1  0  0  0  0
 16  1  2  0  0  0  0
 17  7  1  0  0  0  0
 17  9  1  0  0  0  0
 18  6  1  0  0  0  0
 19  8  1  1  0  0  0
 19  2  1  0  0  0  0
 20  5  1  0  0  0  0
 21 20  2  0  0  0  0
 21 12  1  0  0  0  0
 22  3  2  0  0  0  0
 22  6  1  0  0  0  0
 23 13  2  0  0  0  0
 23  3  1  0  0  0  0
 24 30  1  6  0  0  0
 24 29  1  0  0  0  0
 25 28  1  0  0  0  0
 25 24  1  0  0  0  0
 26 31  1  1  0  0  0
 26 32  1  0  0  0  0
 27 28  1  0  0  0  0
 28 26  1  0  0  0  0
 29 32  1  0  0  0  0
 32 13  1  1  0  0  0
M  END
>  <MODEL>
6

>  <REMARK>
 VINA RESULT:      -6.7      3.254      5.139
  Name = 
  1 active torsions:
  status: ('A' for Active; 'I' for Inactive)
    1  A    between atoms: C_16  and  C_32
                            x       y       z     vdW  Elec       q    Type
                         _______ _______ _______ _____ _____    ______ ____

>  <TORSDO>
F 1

$$$$
=
 OpenBabel11052421343D

 32 37  0  0  1  0  0  0  0  0999 V2000
  184.7400  178.3060  141.0030 C   0  0  0  0  0  0  0  0  0  0  0  0
  186.8520  177.8190  143.7500 O   0  0  0  0  0  0  0  0  0  0  0  0
  191.1210  175.5140  142.7710 C   0  0  0  0  0  0  0  0  0  0  0  0
  193.1820  176.4550  147.0610 C   0  0  0  0  0  3  0  0  0  0  0  0
  194.4220  176.0820  146.5360 C   0  0  0  0  0  3  0  0  0  0  0  0
  188.7450  175.8340  142.4540 C   0  0  0  0  0  0  0  0  0  0  0  0
  189.7600  176.2960  144.5790 N   0  0  0  0  0  0  0  0  0  0  0  0
  185.0100  178.3170  142.3920 N   0  0  0  0  0  2  0  0  0  0  0  0
  187.3330  176.6720  144.3950 C   0  0  0  0  0  2  0  0  0  0  0  0
  192.0400  176.4110  146.2580 C   0  0  0  0  0  3  0  0  0  0  0  0
  190.9860  175.9410  144.1050 C   0  0  0  0  0  0  0  0  0  0  0  0
  192.1260  175.9910  144.9230 C   0  0  0  0  0  0  0  0  0  0  0  0
  193.4620  175.1900  143.0490 C   0  0  0  0  0  0  0  0  0  0  0  0
  185.6950  177.1530  140.0410 S   0  0  0  0  0  0  0  0  0  0  0  0
  186.8480  177.1000  141.4540 C   0  0  2  0  0  3  0  0  0  0  0  0
  183.9370  179.1200  140.4790 O   0  0  0  0  0  0  0  0  0  0  0  0
  188.6450  176.2520  143.8010 C   0  0  0  0  0  0  0  0  0  0  0  0
  187.5560  175.7560  141.5400 C   0  0  0  0  0  2  0  0  0  0  0  0
  186.0290  177.3420  142.7240 C   0  0  1  0  0  3  0  0  0  0  0  0
  194.5220  175.6620  145.2090 C   0  0  0  0  0  3  0  0  0  0  0  0
  193.3830  175.6120  144.3900 C   0  0  0  0  0  0  0  0  0  0  0  0
  189.9940  175.4630  141.9520 C   0  0  0  0  0  3  0  0  0  0  0  0
  192.3370  175.1550  142.2830 N   0  0  0  0  0  0  0  0  0  0  0  0
  196.3500  175.1990  140.5630 C   0  0  2  0  0  3  0  0  0  0  0  0
  196.0410  173.8560  140.0870 N   0  0  0  0  0  2  0  0  0  0  0  0
  194.7500  173.3130  141.9660 C   0  0  1  0  0  3  0  0  0  0  0  0
  195.8420  171.6560  140.6580 C   0  0  0  0  0  1  0  0  0  0  0  0
  195.9730  173.0000  141.2040 N   0  0  0  0  0  0  0  0  0  0  0  0
  195.1430  175.7340  141.3110 C   0  0  0  0  0  2  0  0  0  0  0  0
  196.6230  176.0180  139.4850 F   0  0  0  0  0  0  0  0  0  0  0  0
  194.6460  172.4070  143.1920 C   0  0  0  0  0  1  0  0  0  0  0  0
  194.7760  174.7790  142.4420 C   0  0  1  0  0  3  0  0  0  0  0  0
  1  8  1  0  0  0  0
  2  9  1  0  0  0  0
  3 11  1  0  0  0  0
  5  4  1  0  0  0  0
  6 17  1  0  0  0  0
 10  4  2  0  0  0  0
 11  7  1  0  0  0  0
 11 12  2  0  0  0  0
 12 10  1  0  0  0  0
 13 21  2  0  0  0  0
 14  1  1  0  0  0  0
 14 15  1  0  0  0  0
 15 18  1  1  0  0  0
 15 19  1  0  0  0  0
 16  1  2  0  0  0  0
 17  9  1  0  0  0  0
 17  7  2  0  0  0  0
 18  6  1  0  0  0  0
 19  8  1  6  0  0  0
 19  2  1  0  0  0  0
 20  5  2  0  0  0  0
 21 12  1  0  0  0  0
 21 20  1  0  0  0  0
 22  6  2  0  0  0  0
 22  3  1  0  0  0  0
 23  3  2  0  0  0  0
 23 13  1  0  0  0  0
 24 30  1  6  0  0  0
 24 29  1  0  0  0  0
 25 24  1  0  0  0  0
 25 28  1  0  0  0  0
 26 32  1  0  0  0  0
 26 31  1  1  0  0  0
 27 28  1  0  0  0  0
 28 26  1  0  0  0  0
 29 32  1  0  0  0  0
 32 13  1  6  0  0  0
M  END
>  <MODEL>
7

>  <REMARK>
 VINA RESULT:      -6.6      3.087      4.676
  Name = 
  1 active torsions:
  status: ('A' for Active; 'I' for Inactive)
    1  A    between atoms: C_16  and  C_32
                            x       y       z     vdW  Elec       q    Type
                         _______ _______ _______ _____ _____    ______ ____

>  <TORSDO>
F 1

$$$$
=
 OpenBabel11052421343D

 32 37  0  0  1  0  0  0  0  0999 V2000
  185.2280  179.0880  144.1580 C   0  0  0  0  0  0  0  0  0  0  0  0
  188.2960  177.5410  144.8230 O   0  0  0  0  0  0  0  0  0  0  0  0
  189.8750  174.3730  141.3640 C   0  0  0  0  0  0  0  0  0  0  0  0
  194.3640  173.9030  143.1430 C   0  0  0  0  0  3  0  0  0  0  0  0
  194.7660  173.3060  141.9460 C   0  0  0  0  0  3  0  0  0  0  0  0
  188.1280  175.3860  142.6930 C   0  0  0  0  0  0  0  0  0  0  0  0
  190.3460  175.1510  143.5790 N   0  0  0  0  0  0  0  0  0  0  0  0
  186.3100  178.7680  145.0130 N   0  0  0  0  0  2  0  0  0  0  0  0
  188.6670  176.2070  145.0380 C   0  0  0  0  0  2  0  0  0  0  0  0
  193.0430  174.3230  143.3070 C   0  0  0  0  0  3  0  0  0  0  0  0
  190.7770  174.5670  142.4270 C   0  0  0  0  0  0  0  0  0  0  0  0
  192.1080  174.1500  142.2760 C   0  0  0  0  0  0  0  0  0  0  0  0
  191.5730  173.3730  140.0290 C   0  0  0  0  0  0  0  0  0  0  0  0
  184.8970  177.9160  142.8610 S   0  0  0  0  0  0  0  0  0  0  0  0
  186.5860  177.2880  143.1500 C   0  0  2  0  0  3  0  0  0  0  0  0
  184.6020  180.1740  144.2630 O   0  0  0  0  0  0  0  0  0  0  0  0
  189.0590  175.5600  143.7430 C   0  0  0  0  0  0  0  0  0  0  0  0
  186.6910  175.8090  142.8070 C   0  0  0  0  0  2  0  0  0  0  0  0
  186.9100  177.5070  144.6280 C   0  0  1  0  0  3  0  0  0  0  0  0
  193.8470  173.1280  140.9100 C   0  0  0  0  0  3  0  0  0  0  0  0
  192.5150  173.5450  141.0610 C   0  0  0  0  0  0  0  0  0  0  0  0
  188.5520  174.7860  141.5060 C   0  0  0  0  0  3  0  0  0  0  0  0
  190.2890  173.7900  140.2090 N   0  0  0  0  0  0  0  0  0  0  0  0
  192.0600  173.0780  136.2620 C   0  0  2  0  0  3  0  0  0  0  0  0
  191.0520  172.0320  136.1390 N   0  0  0  0  0  2  0  0  0  0  0  0
  191.1030  171.4910  138.4190 C   0  0  1  0  0  3  0  0  0  0  0  0
  190.4420  169.9230  136.7590 C   0  0  0  0  0  1  0  0  0  0  0  0
  191.3700  171.0070  137.0520 N   0  0  0  0  0  0  0  0  0  0  0  0
  191.8790  173.7660  137.6020 C   0  0  0  0  0  2  0  0  0  0  0  0
  191.8940  173.9990  135.2460 F   0  0  0  0  0  0  0  0  0  0  0  0
  191.4450  170.4060  139.4380 C   0  0  0  0  0  1  0  0  0  0  0  0
  191.9610  172.7350  138.7230 C   0  0  1  0  0  3  0  0  0  0  0  0
  1 16  2  0  0  0  0
  1  8  1  0  0  0  0
  2  9  1  0  0  0  0
  3 22  2  0  0  0  0
  3 11  1  0  0  0  0
  4 10  1  0  0  0  0
  5  4  2  0  0  0  0
  6 18  1  0  0  0  0
  6 17  2  0  0  0  0
  7 17  1  0  0  0  0
 11  7  2  0  0  0  0
 12 11  1  0  0  0  0
 12 10  2  0  0  0  0
 13 23  2  0  0  0  0
 13 21  1  0  0  0  0
 14 15  1  0  0  0  0
 14  1  1  0  0  0  0
 15 18  1  1  0  0  0
 15 19  1  0  0  0  0
 17  9  1  0  0  0  0
 19  2  1  6  0  0  0
 19  8  1  0  0  0  0
 20 21  2  0  0  0  0
 20  5  1  0  0  0  0
 21 12  1  0  0  0  0
 22  6  1  0  0  0  0
 23  3  1  0  0  0  0
 24 30  1  6  0  0  0
 24 29  1  0  0  0  0
 25 24  1  0  0  0  0
 25 28  1  0  0  0  0
 26 32  1  0  0  0  0
 26 31  1  1  0  0  0
 27 28  1  0  0  0  0
 28 26  1  0  0  0  0
 29 32  1  0  0  0  0
 32 13  1  1  0  0  0
M  END
>  <MODEL>
8

>  <REMARK>
 VINA RESULT:      -6.6      3.345      5.417
  Name = 
  1 active torsions:
  status: ('A' for Active; 'I' for Inactive)
    1  A    between atoms: C_16  and  C_32
                            x       y       z     vdW  Elec       q    Type
                         _______ _______ _______ _____ _____    ______ ____

>  <TORSDO>
F 1

$$$$
=
 OpenBabel11052421343D

 32 37  0  0  1  0  0  0  0  0999 V2000
  185.2360  178.8350  144.3600 C   0  0  0  0  0  0  0  0  0  0  0  0
  188.1140  177.7480  146.0250 O   0  0  0  0  0  0  0  0  0  0  0  0
  191.3280  175.1840  143.2690 C   0  0  0  0  0  0  0  0  0  0  0  0
  194.9410  175.2880  146.5050 C   0  0  0  0  0  3  0  0  0  0  0  0
  195.8300  174.8690  145.5110 C   0  0  0  0  0  3  0  0  0  0  0  0
  189.0790  175.7860  143.9210 C   0  0  0  0  0  0  0  0  0  0  0  0
  190.8630  175.8340  145.5260 N   0  0  0  0  0  0  0  0  0  0  0  0
  185.9970  178.6200  145.5330 N   0  0  0  0  0  2  0  0  0  0  0  0
  188.6240  176.4770  146.3250 C   0  0  0  0  0  2  0  0  0  0  0  0
  193.5910  175.4750  146.2020 C   0  0  0  0  0  3  0  0  0  0  0  0
  191.7600  175.4280  144.5860 C   0  0  0  0  0  0  0  0  0  0  0  0
  193.1150  175.2440  144.9040 C   0  0  0  0  0  0  0  0  0  0  0  0
  193.5310  174.5880  142.5940 C   0  0  0  0  0  0  0  0  0  0  0  0
  185.5860  177.7410  143.0010 S   0  0  0  0  0  0  0  0  0  0  0  0
  187.1570  177.3690  143.8510 C   0  0  2  0  0  3  0  0  0  0  0  0
  184.4260  179.7930  144.2640 O   0  0  0  0  0  0  0  0  0  0  0  0
  189.5450  176.0150  145.2360 C   0  0  0  0  0  0  0  0  0  0  0  0
  187.6390  175.9620  143.5310 C   0  0  0  0  0  2  0  0  0  0  0  0
  186.9100  177.5090  145.3540 C   0  0  1  0  0  3  0  0  0  0  0  0
  195.3700  174.6360  144.2140 C   0  0  0  0  0  3  0  0  0  0  0  0
  194.0150  174.8190  143.8960 C   0  0  0  0  0  0  0  0  0  0  0  0
  189.9850  175.3660  142.9450 C   0  0  0  0  0  3  0  0  0  0  0  0
  192.2100  174.7770  142.3200 N   0  0  0  0  0  0  0  0  0  0  0  0
  195.9330  172.2890  140.7330 C   0  0  2  0  0  3  0  0  0  0  0  0
  197.0550  173.2050  140.9000 N   0  0  0  0  0  2  0  0  0  0  0  0
  195.6880  175.0490  141.3730 C   0  0  1  0  0  3  0  0  0  0  0  0
  197.8650  175.2900  140.4510 C   0  0  0  0  0  1  0  0  0  0  0  0
  196.6600  174.4720  140.4270 N   0  0  0  0  0  0  0  0  0  0  0  0
  194.8430  172.6790  141.7150 C   0  0  0  0  0  2  0  0  0  0  0  0
  196.3490  170.9980  140.9970 F   0  0  0  0  0  0  0  0  0  0  0  0
  195.2310  176.4230  140.8880 C   0  0  0  0  0  1  0  0  0  0  0  0
  194.4520  174.1360  141.4930 C   0  0  1  0  0  3  0  0  0  0  0  0
  1  8  1  0  0  0  0
  2  9  1  0  0  0  0
  3 11  1  0  0  0  0
  5  4  2  0  0  0  0
  6 17  2  0  0  0  0
 10  4  1  0  0  0  0
 11 12  1  0  0  0  0
 11  7  2  0  0  0  0
 12 10  2  0  0  0  0
 13 21  1  0  0  0  0
 14 15  1  0  0  0  0
 14  1  1  0  0  0  0
 15 18  1  1  0  0  0
 15 19  1  0  0  0  0
 16  1  2  0  0  0  0
 17  7  1  0  0  0  0
 17  9  1  0  0  0  0
 18  6  1  0  0  0  0
 19  8  1  6  0  0  0
 19  2  1  0  0  0  0
 20  5  1  0  0  0  0
 21 20  2  0  0  0  0
 21 12  1  0  0  0  0
 22  3  2  0  0  0  0
 22  6  1  0  0  0  0
 23 13  2  0  0  0  0
 23  3  1  0  0  0  0
 24 25  1  0  0  0  0
 24 30  1  1  0  0  0
 24 29  1  0  0  0  0
 26 31  1  6  0  0  0
 26 32  1  0  0  0  0
 28 27  1  0  0  0  0
 28 25  1  0  0  0  0
 28 26  1  0  0  0  0
 32 29  1  0  0  0  0
 32 13  1  1  0  0  0
M  END
>  <MODEL>
9

>  <REMARK>
 VINA RESULT:      -6.4      2.717      3.976
  Name = 
  1 active torsions:
  status: ('A' for Active; 'I' for Inactive)
    1  A    between atoms: C_16  and  C_32
                            x       y       z     vdW  Elec       q    Type
                         _______ _______ _______ _____ _____    ______ ____

>  <TORSDO>
F 1

$$$$
