=
 OpenBabel11052418273D

 27 31  0  0  1  0  0  0  0  0999 V2000
  188.4660  176.7950  144.1020 N   0  0  0  0  0  2  0  0  0  0  0  0
  188.6240  176.3730  146.5920 C   0  0  2  0  0  3  0  0  0  0  0  0
  189.6140  174.1080  144.4460 N   0  0  0  0  0  2  0  0  0  0  0  0
  192.0200  176.3550  147.3010 C   0  0  0  0  0  2  0  0  0  0  0  0
  189.9920  176.8350  146.4550 C   0  0  2  0  0  3  0  0  0  0  0  0
  192.0020  174.1600  145.7550 S   0  0  0  0  0  0  0  0  0  0  0  0
  188.5350  174.0510  140.8890 C   0  0  0  0  0  0  0  0  0  0  0  0
  188.4950  173.1240  139.8120 N   0  0  0  0  0  1  0  0  0  0  0  0
  189.7080  175.3730  146.4840 N   0  0  2  0  0  0  0  0  0  0  0  0
  187.7590  176.4050  145.3190 C   0  0  1  0  0  3  0  0  0  0  0  0
  192.8070  175.5210  146.6800 C   0  0  1  0  0  3  0  0  0  0  0  0
  188.5950  175.8760  143.0160 C   0  0  0  0  0  0  0  0  0  0  0  0
  190.4210  175.0030  145.2630 C   0  0  2  0  0  3  0  0  0  0  0  0
  188.9740  173.6380  142.1490 C   0  0  0  0  0  3  0  0  0  0  0  0
  190.9460  177.0370  147.5840 C   0  0  0  0  0  2  0  0  0  0  0  0
  188.1620  175.3800  140.6800 C   0  0  0  0  0  3  0  0  0  0  0  0
  188.1880  176.2880  141.7430 C   0  0  0  0  0  3  0  0  0  0  0  0
  189.0260  174.5430  143.2160 C   0  0  0  0  0  0  0  0  0  0  0  0
  184.3080  178.9010  145.8660 C   0  0  0  0  0  3  0  0  0  0  0  0
  186.5530  177.2640  145.5170 C   0  0  0  0  0  0  0  0  0  0  0  0
  186.4360  178.4580  144.7980 C   0  0  0  0  0  3  0  0  0  0  0  0
  185.3150  179.2760  144.9720 C   0  0  0  0  0  3  0  0  0  0  0  0
  184.4210  177.7100  146.5870 C   0  0  0  0  0  3  0  0  0  0  0  0
  185.5410  176.8910  146.4150 C   0  0  0  0  0  3  0  0  0  0  0  0
  194.2450  177.1320  145.4580 C   0  0  0  0  0  1  0  0  0  0  0  0
  194.9750  174.7780  145.7600 C   0  0  0  0  0  1  0  0  0  0  0  0
  194.2120  175.9300  146.3830 C   0  0  0  0  0  3  0  0  0  0  0  0
  1 10  1  0  0  0  0
  3 13  1  0  0  0  0
  4 15  1  0  0  0  0
  5  9  1  0  0  0  0
  5  2  1  0  0  0  0
  5 15  1  0  0  0  0
  6 11  1  0  0  0  0
  7 14  1  0  0  0  0
  8  7  1  0  0  0  0
  9  2  1  0  0  0  0
 10 20  1  0  0  0  0
 10  2  1  0  0  0  0
 11  4  1  0  0  0  0
 12 18  1  0  0  0  0
 12  1  1  0  0  0  0
 13  6  1  0  0  0  0
 13  9  1  0  0  0  0
 14 18  2  0  0  0  0
 16  7  2  0  0  0  0
 16 17  1  0  0  0  0
 17 12  2  0  0  0  0
 18  3  1  0  0  0  0
 19 23  1  0  0  0  0
 20 24  1  0  0  0  0
 21 22  1  0  0  0  0
 21 20  2  0  0  0  0
 22 19  2  0  0  0  0
 24 23  2  0  0  0  0
 25 27  1  0  0  0  0
 26 27  1  0  0  0  0
 27 11  1  0  0  0  0
M  END
>  <MODEL>
1

>  <REMARK>
 VINA RESULT:      -8.9      0.000      0.000
  Name = 
  2 active torsions:
  status: ('A' for Active; 'I' for Inactive)
    1  A    between atoms: C_9  and  C_15
    2  A    between atoms: C_16  and  C_17
                            x       y       z     vdW  Elec       q    Type
                         _______ _______ _______ _____ _____    ______ ____

>  <TORSDO>
F 2

$$$$
=
 OpenBabel11052418273D

 27 31  0  0  1  0  0  0  0  0999 V2000
  189.3030  175.7090  145.1510 N   0  0  0  0  0  2  0  0  0  0  0  0
  188.0890  176.0070  142.9510 C   0  0  2  0  0  3  0  0  0  0  0  0
  191.3570  176.1200  143.0850 N   0  0  0  0  0  2  0  0  0  0  0  0
  188.8370  173.1690  141.1030 C   0  0  0  0  0  2  0  0  0  0  0  0
  188.3290  174.5880  142.7720 C   0  0  2  0  0  3  0  0  0  0  0  0
  191.3290  174.1630  141.1900 S   0  0  0  0  0  0  0  0  0  0  0  0
  193.2560  176.7600  146.2150 C   0  0  0  0  0  0  0  0  0  0  0  0
  194.5640  177.1710  146.5920 N   0  0  0  0  0  1  0  0  0  0  0  0
  189.2290  175.5770  142.1150 N   0  0  2  0  0  0  0  0  0  0  0  0
  188.5640  176.6200  144.2810 C   0  0  1  0  0  3  0  0  0  0  0  0
  190.0810  172.8640  140.8600 C   0  0  1  0  0  3  0  0  0  0  0  0
  190.6710  175.9690  145.4750 C   0  0  0  0  0  0  0  0  0  0  0  0
  190.5020  175.0470  142.6000 C   0  0  2  0  0  3  0  0  0  0  0  0
  192.9040  176.7050  144.8640 C   0  0  0  0  0  3  0  0  0  0  0  0
  187.8100  173.7680  141.6380 C   0  0  0  0  0  2  0  0  0  0  0  0
  192.3320  176.3860  147.1930 C   0  0  0  0  0  3  0  0  0  0  0  0
  191.0420  175.9970  146.8230 C   0  0  0  0  0  3  0  0  0  0  0  0
  191.6230  176.2950  144.4800 C   0  0  0  0  0  0  0  0  0  0  0  0
  185.2790  178.4120  146.3860 C   0  0  0  0  0  3  0  0  0  0  0  0
  187.4230  177.2350  145.0230 C   0  0  0  0  0  0  0  0  0  0  0  0
  186.7150  178.2900  144.4390 C   0  0  0  0  0  3  0  0  0  0  0  0
  185.6440  178.8790  145.1200 C   0  0  0  0  0  3  0  0  0  0  0  0
  185.9840  177.3580  146.9720 C   0  0  0  0  0  3  0  0  0  0  0  0
  187.0540  176.7690  146.2940 C   0  0  0  0  0  3  0  0  0  0  0  0
  190.4400  170.7600  142.1250 C   0  0  0  0  0  1  0  0  0  0  0  0
  191.8540  171.2960  140.1560 C   0  0  0  0  0  1  0  0  0  0  0  0
  190.4720  171.4260  140.7630 C   0  0  0  0  0  3  0  0  0  0  0  0
  1 12  1  0  0  0  0
  2 10  1  0  0  0  0
  3 18  1  0  0  0  0
  4 15  1  0  0  0  0
  5  2  1  0  0  0  0
  6 13  1  0  0  0  0
  7  8  1  0  0  0  0
  7 16  1  0  0  0  0
  9 13  1  0  0  0  0
  9  5  1  0  0  0  0
  9  2  1  0  0  0  0
 10 20  1  0  0  0  0
 10  1  1  0  0  0  0
 11  4  1  0  0  0  0
 11  6  1  0  0  0  0
 12 17  1  0  0  0  0
 13  3  1  0  0  0  0
 14  7  2  0  0  0  0
 15  5  1  0  0  0  0
 17 16  2  0  0  0  0
 18 14  1  0  0  0  0
 18 12  2  0  0  0  0
 19 23  1  0  0  0  0
 20 24  1  0  0  0  0
 21 20  2  0  0  0  0
 21 22  1  0  0  0  0
 22 19  2  0  0  0  0
 24 23  2  0  0  0  0
 26 27  1  0  0  0  0
 27 11  1  0  0  0  0
 27 25  1  0  0  0  0
M  END
>  <MODEL>
2

>  <REMARK>
 VINA RESULT:      -7.7      2.179      5.301
  Name = 
  2 active torsions:
  status: ('A' for Active; 'I' for Inactive)
    1  A    between atoms: C_9  and  C_15
    2  A    between atoms: C_16  and  C_17
                            x       y       z     vdW  Elec       q    Type
                         _______ _______ _______ _____ _____    ______ ____

>  <TORSDO>
F 2

$$$$
=
 OpenBabel11052418273D

 27 31  0  0  1  0  0  0  0  0999 V2000
  190.0110  174.4220  144.2630 N   0  0  0  0  0  2  0  0  0  0  0  0
  190.5150  176.7350  145.1560 C   0  0  2  0  0  3  0  0  0  0  0  0
  188.6630  176.3410  142.4860 N   0  0  0  0  0  2  0  0  0  0  0  0
  187.4920  177.9230  146.3740 C   0  0  0  0  0  2  0  0  0  0  0  0
  189.2390  176.6130  145.8340 C   0  0  2  0  0  3  0  0  0  0  0  0
  186.7770  177.8120  143.7890 S   0  0  0  0  0  0  0  0  0  0  0  0
  188.6650  173.2420  140.4350 C   0  0  0  0  0  0  0  0  0  0  0  0
  188.2720  172.8380  139.1290 N   0  0  0  0  0  1  0  0  0  0  0  0
  189.3230  177.3690  144.5540 N   0  0  2  0  0  0  0  0  0  0  0  0
  190.9780  175.5140  144.3410 C   0  0  1  0  0  3  0  0  0  0  0  0
  186.4580  177.9910  145.5840 C   0  0  1  0  0  3  0  0  0  0  0  0
  189.4560  174.0360  143.0040 C   0  0  0  0  0  0  0  0  0  0  0  0
  188.2490  176.6800  143.8400 C   0  0  2  0  0  3  0  0  0  0  0  0
  188.5530  174.5810  140.8150 C   0  0  0  0  0  3  0  0  0  0  0  0
  188.6830  177.6060  146.7990 C   0  0  0  0  0  2  0  0  0  0  0  0
  189.1360  172.2940  141.3460 C   0  0  0  0  0  3  0  0  0  0  0  0
  189.5350  172.6930  142.6250 C   0  0  0  0  0  3  0  0  0  0  0  0
  188.9280  174.9890  142.1000 C   0  0  0  0  0  0  0  0  0  0  0  0
  194.7700  174.0990  145.7720 C   0  0  0  0  0  3  0  0  0  0  0  0
  192.2930  175.0100  144.8380 C   0  0  0  0  0  0  0  0  0  0  0  0
  193.2670  175.9250  145.2490 C   0  0  0  0  0  3  0  0  0  0  0  0
  194.5050  175.4700  145.7160 C   0  0  0  0  0  3  0  0  0  0  0  0
  193.8000  173.1810  145.3620 C   0  0  0  0  0  3  0  0  0  0  0  0
  192.5620  173.6340  144.8950 C   0  0  0  0  0  3  0  0  0  0  0  0
  184.0720  178.6630  145.4690 C   0  0  0  0  0  1  0  0  0  0  0  0
  185.0940  178.0330  147.6420 C   0  0  0  0  0  1  0  0  0  0  0  0
  185.0930  177.7720  146.1490 C   0  0  0  0  0  3  0  0  0  0  0  0
  1 10  1  0  0  0  0
  2  5  1  0  0  0  0
  3 13  1  0  0  0  0
  4 15  1  0  0  0  0
  5 15  1  0  0  0  0
  6 13  1  0  0  0  0
  6 11  1  0  0  0  0
  7 14  2  0  0  0  0
  7 16  1  0  0  0  0
  8  7  1  0  0  0  0
  9  2  1  0  0  0  0
  9  5  1  0  0  0  0
 10 20  1  0  0  0  0
 10  2  1  0  0  0  0
 11 27  1  0  0  0  0
 11  4  1  0  0  0  0
 12  1  1  0  0  0  0
 13  9  1  0  0  0  0
 14 18  1  0  0  0  0
 16 17  2  0  0  0  0
 17 12  1  0  0  0  0
 18  3  1  0  0  0  0
 18 12  2  0  0  0  0
 20 24  2  0  0  0  0
 20 21  1  0  0  0  0
 21 22  2  0  0  0  0
 22 19  1  0  0  0  0
 23 19  2  0  0  0  0
 24 23  1  0  0  0  0
 25 27  1  0  0  0  0
 27 26  1  0  0  0  0
M  END
>  <MODEL>
3

>  <REMARK>
 VINA RESULT:      -7.5      1.812      6.124
  Name = 
  2 active torsions:
  status: ('A' for Active; 'I' for Inactive)
    1  A    between atoms: C_9  and  C_15
    2  A    between atoms: C_16  and  C_17
                            x       y       z     vdW  Elec       q    Type
                         _______ _______ _______ _____ _____    ______ ____

>  <TORSDO>
F 2

$$$$
=
 OpenBabel11052418273D

 27 31  0  0  1  0  0  0  0  0999 V2000
  187.6690  175.2600  143.5510 N   0  0  0  0  0  2  0  0  0  0  0  0
  187.4240  177.7070  144.1470 C   0  0  2  0  0  3  0  0  0  0  0  0
  187.5070  176.7480  141.0180 N   0  0  0  0  0  2  0  0  0  0  0  0
  184.1980  178.5580  143.1990 C   0  0  0  0  0  2  0  0  0  0  0  0
  186.0020  177.4720  143.9880 C   0  0  2  0  0  3  0  0  0  0  0  0
  185.1360  178.0580  140.7340 S   0  0  0  0  0  0  0  0  0  0  0  0
  188.8830  173.4760  139.9170 C   0  0  0  0  0  0  0  0  0  0  0  0
  189.3510  172.8760  138.7150 N   0  0  0  0  0  1  0  0  0  0  0  0
  186.7750  178.0850  142.8730 N   0  0  2  0  0  0  0  0  0  0  0  0
  188.3440  176.4850  143.9690 C   0  0  1  0  0  3  0  0  0  0  0  0
  183.8190  178.3840  141.9640 C   0  0  1  0  0  3  0  0  0  0  0  0
  187.9770  174.6590  142.2910 C   0  0  0  0  0  0  0  0  0  0  0  0
  186.3620  177.1690  141.8110 C   0  0  2  0  0  3  0  0  0  0  0  0
  188.4950  174.8170  139.9230 C   0  0  0  0  0  3  0  0  0  0  0  0
  184.9310  178.4710  144.2730 C   0  0  0  0  0  2  0  0  0  0  0  0
  188.7850  172.7150  141.0840 C   0  0  0  0  0  3  0  0  0  0  0  0
  188.3390  173.3080  142.2680 C   0  0  0  0  0  3  0  0  0  0  0  0
  188.0240  175.4160  141.0960 C   0  0  0  0  0  0  0  0  0  0  0  0
  190.6360  175.7440  147.5240 C   0  0  0  0  0  3  0  0  0  0  0  0
  189.1470  176.2400  145.2050 C   0  0  0  0  0  0  0  0  0  0  0  0
  189.1370  174.9680  145.7870 C   0  0  0  0  0  3  0  0  0  0  0  0
  189.8800  174.7200  146.9460 C   0  0  0  0  0  3  0  0  0  0  0  0
  190.6490  177.0160  146.9450 C   0  0  0  0  0  3  0  0  0  0  0  0
  189.9060  177.2660  145.7880 C   0  0  0  0  0  3  0  0  0  0  0  0
  182.1660  177.8370  140.1950 C   0  0  0  0  0  1  0  0  0  0  0  0
  181.4690  179.1030  142.2140 C   0  0  0  0  0  1  0  0  0  0  0  0
  182.3960  178.0290  141.6830 C   0  0  0  0  0  3  0  0  0  0  0  0
  1 10  1  0  0  0  0
  3 18  1  0  0  0  0
  3 13  1  0  0  0  0
  4 15  1  0  0  0  0
  5  2  1  0  0  0  0
  5 15  1  0  0  0  0
  6 13  1  0  0  0  0
  6 11  1  0  0  0  0
  7 14  2  0  0  0  0
  7 16  1  0  0  0  0
  8  7  1  0  0  0  0
  9  5  1  0  0  0  0
  9  2  1  0  0  0  0
 10  2  1  0  0  0  0
 10 20  1  0  0  0  0
 11  4  1  0  0  0  0
 12  1  1  0  0  0  0
 13  9  1  0  0  0  0
 14 18  1  0  0  0  0
 16 17  2  0  0  0  0
 17 12  1  0  0  0  0
 18 12  2  0  0  0  0
 20 21  1  0  0  0  0
 20 24  2  0  0  0  0
 21 22  2  0  0  0  0
 22 19  1  0  0  0  0
 23 19  2  0  0  0  0
 24 23  1  0  0  0  0
 25 27  1  0  0  0  0
 27 11  1  0  0  0  0
 27 26  1  0  0  0  0
M  END
>  <MODEL>
4

>  <REMARK>
 VINA RESULT:      -7.4      2.925      6.744
  Name = 
  2 active torsions:
  status: ('A' for Active; 'I' for Inactive)
    1  A    between atoms: C_9  and  C_15
    2  A    between atoms: C_16  and  C_17
                            x       y       z     vdW  Elec       q    Type
                         _______ _______ _______ _____ _____    ______ ____

>  <TORSDO>
F 2

$$$$
=
 OpenBabel11052418273D

 27 31  0  0  1  0  0  0  0  0999 V2000
  191.6240  173.4840  144.7440 N   0  0  0  0  0  2  0  0  0  0  0  0
  192.3170  175.7570  145.6120 C   0  0  2  0  0  3  0  0  0  0  0  0
  190.2760  175.4920  143.0670 N   0  0  0  0  0  2  0  0  0  0  0  0
  189.4530  177.1060  147.0290 C   0  0  0  0  0  2  0  0  0  0  0  0
  191.0830  175.7030  146.3710 C   0  0  2  0  0  3  0  0  0  0  0  0
  188.5660  177.0580  144.4960 S   0  0  0  0  0  0  0  0  0  0  0  0
  189.9670  172.4140  141.0060 C   0  0  0  0  0  0  0  0  0  0  0  0
  189.4680  172.0440  139.7270 N   0  0  0  0  0  1  0  0  0  0  0  0
  191.1270  176.4630  145.0910 N   0  0  2  0  0  0  0  0  0  0  0  0
  192.6550  174.5190  144.7630 C   0  0  1  0  0  3  0  0  0  0  0  0
  188.3750  177.2400  146.3080 C   0  0  1  0  0  3  0  0  0  0  0  0
  190.9670  173.1410  143.5220 C   0  0  0  0  0  0  0  0  0  0  0  0
  189.9710  175.8420  144.4460 C   0  0  2  0  0  3  0  0  0  0  0  0
  189.9570  173.7540  141.3990 C   0  0  0  0  0  3  0  0  0  0  0  0
  190.6480  176.7180  147.3750 C   0  0  0  0  0  2  0  0  0  0  0  0
  190.4400  171.4330  141.8810 C   0  0  0  0  0  3  0  0  0  0  0  0
  190.9440  171.7990  143.1320 C   0  0  0  0  0  3  0  0  0  0  0  0
  190.4370  174.1300  142.6580 C   0  0  0  0  0  0  0  0  0  0  0  0
  196.4140  172.8070  145.9350 C   0  0  0  0  0  3  0  0  0  0  0  0
  193.9680  173.9350  145.1710 C   0  0  0  0  0  0  0  0  0  0  0  0
  194.1170  172.5450  145.2150 C   0  0  0  0  0  3  0  0  0  0  0  0
  195.3380  171.9810  145.5980 C   0  0  0  0  0  3  0  0  0  0  0  0
  196.2700  174.1960  145.8930 C   0  0  0  0  0  3  0  0  0  0  0  0
  195.0500  174.7620  145.5120 C   0  0  0  0  0  3  0  0  0  0  0  0
  185.9610  176.8000  145.9350 C   0  0  0  0  0  1  0  0  0  0  0  0
  186.6900  178.3510  147.7320 C   0  0  0  0  0  1  0  0  0  0  0  0
  187.0400  177.0940  146.9610 C   0  0  0  0  0  3  0  0  0  0  0  0
  1 10  1  0  0  0  0
  2  5  1  0  0  0  0
  3 13  1  0  0  0  0
  4 15  1  0  0  0  0
  5 15  1  0  0  0  0
  6 11  1  0  0  0  0
  7 14  2  0  0  0  0
  7 16  1  0  0  0  0
  8  7  1  0  0  0  0
  9  2  1  0  0  0  0
  9  5  1  0  0  0  0
 10 20  1  0  0  0  0
 10  2  1  0  0  0  0
 11 27  1  0  0  0  0
 11  4  1  0  0  0  0
 12  1  1  0  0  0  0
 13  6  1  0  0  0  0
 13  9  1  0  0  0  0
 14 18  1  0  0  0  0
 16 17  2  0  0  0  0
 17 12  1  0  0  0  0
 18  3  1  0  0  0  0
 18 12  2  0  0  0  0
 20 21  2  0  0  0  0
 20 24  1  0  0  0  0
 21 22  1  0  0  0  0
 22 19  2  0  0  0  0
 23 19  1  0  0  0  0
 24 23  2  0  0  0  0
 25 27  1  0  0  0  0
 27 26  1  0  0  0  0
M  END
>  <MODEL>
5

>  <REMARK>
 VINA RESULT:      -7.3      2.024      6.555
  Name = 
  2 active torsions:
  status: ('A' for Active; 'I' for Inactive)
    1  A    between atoms: C_9  and  C_15
    2  A    between atoms: C_16  and  C_17
                            x       y       z     vdW  Elec       q    Type
                         _______ _______ _______ _____ _____    ______ ____

>  <TORSDO>
F 2

$$$$
=
 OpenBabel11052418273D

 27 31  0  0  1  0  0  0  0  0999 V2000
  190.5730  175.9230  142.4900 N   0  0  0  0  0  2  0  0  0  0  0  0
  188.3280  174.7600  142.4040 C   0  0  2  0  0  3  0  0  0  0  0  0
  189.7900  175.3600  145.2700 N   0  0  0  0  0  2  0  0  0  0  0  0
  186.0700  177.0310  143.7370 C   0  0  0  0  0  2  0  0  0  0  0  0
  187.7760  176.0840  142.6180 C   0  0  2  0  0  3  0  0  0  0  0  0
  187.4910  176.6360  145.9800 S   0  0  0  0  0  0  0  0  0  0  0  0
  193.4260  176.0550  145.6050 C   0  0  0  0  0  0  0  0  0  0  0  0
  194.4140  176.0470  146.6280 N   0  0  0  0  0  1  0  0  0  0  0  0
  187.9260  175.1530  143.7710 N   0  0  2  0  0  0  0  0  0  0  0  0
  189.8590  174.6690  142.2700 C   0  0  1  0  0  3  0  0  0  0  0  0
  186.2560  177.5000  144.9390 C   0  0  1  0  0  3  0  0  0  0  0  0
  191.4860  176.0530  143.5820 C   0  0  0  0  0  0  0  0  0  0  0  0
  188.6620  176.0490  144.6620 C   0  0  2  0  0  3  0  0  0  0  0  0
  192.1220  175.6430  145.8900 C   0  0  0  0  0  3  0  0  0  0  0  0
  186.3210  176.4170  142.6150 C   0  0  0  0  0  2  0  0  0  0  0  0
  193.7530  176.4990  144.3230 C   0  0  0  0  0  3  0  0  0  0  0  0
  192.7860  176.4930  143.3140 C   0  0  0  0  0  3  0  0  0  0  0  0
  191.1390  175.6550  144.8950 C   0  0  0  0  0  0  0  0  0  0  0  0
  191.0020  172.9680  138.4970 C   0  0  0  0  0  3  0  0  0  0  0  0
  190.2440  174.0760  140.9540 C   0  0  0  0  0  0  0  0  0  0  0  0
  191.5840  173.7590  140.7110 C   0  0  0  0  0  3  0  0  0  0  0  0
  191.9640  173.2060  139.4840 C   0  0  0  0  0  3  0  0  0  0  0  0
  189.6620  173.2830  138.7360 C   0  0  0  0  0  3  0  0  0  0  0  0
  189.2810  173.8360  139.9620 C   0  0  0  0  0  3  0  0  0  0  0  0
  184.5830  178.9040  146.1170 C   0  0  0  0  0  1  0  0  0  0  0  0
  185.5710  179.6660  143.9700 C   0  0  0  0  0  1  0  0  0  0  0  0
  185.8280  178.8960  145.2500 C   0  0  0  0  0  3  0  0  0  0  0  0
  1 12  1  0  0  0  0
  2  5  1  0  0  0  0
  2  9  1  0  0  0  0
  4 11  1  0  0  0  0
  5  9  1  0  0  0  0
  7 14  1  0  0  0  0
  7  8  1  0  0  0  0
  9 13  1  0  0  0  0
 10  2  1  0  0  0  0
 10  1  1  0  0  0  0
 11 27  1  0  0  0  0
 11  6  1  0  0  0  0
 12 18  1  0  0  0  0
 13  3  1  0  0  0  0
 13  6  1  0  0  0  0
 15  5  1  0  0  0  0
 15  4  1  0  0  0  0
 16  7  2  0  0  0  0
 17 12  2  0  0  0  0
 17 16  1  0  0  0  0
 18  3  1  0  0  0  0
 18 14  2  0  0  0  0
 19 23  2  0  0  0  0
 19 22  1  0  0  0  0
 20 10  1  0  0  0  0
 21 20  1  0  0  0  0
 22 21  2  0  0  0  0
 23 24  1  0  0  0  0
 24 20  2  0  0  0  0
 26 27  1  0  0  0  0
 27 25  1  0  0  0  0
M  END
>  <MODEL>
6

>  <REMARK>
 VINA RESULT:      -7.1      2.287      7.020
  Name = 
  2 active torsions:
  status: ('A' for Active; 'I' for Inactive)
    1  A    between atoms: C_9  and  C_15
    2  A    between atoms: C_16  and  C_17
                            x       y       z     vdW  Elec       q    Type
                         _______ _______ _______ _____ _____    ______ ____

>  <TORSDO>
F 2

$$$$
=
 OpenBabel11052418273D

 27 31  0  0  1  0  0  0  0  0999 V2000
  189.0320  175.4210  144.4190 N   0  0  0  0  0  2  0  0  0  0  0  0
  188.3090  175.5100  141.9960 C   0  0  2  0  0  3  0  0  0  0  0  0
  191.4830  175.5120  142.7940 N   0  0  0  0  0  2  0  0  0  0  0  0
  189.2410  172.4520  140.6510 C   0  0  0  0  0  2  0  0  0  0  0  0
  188.4930  174.0720  142.0200 C   0  0  2  0  0  3  0  0  0  0  0  0
  191.7200  173.3520  141.1510 S   0  0  0  0  0  0  0  0  0  0  0  0
  192.7440  176.4350  146.1660 C   0  0  0  0  0  0  0  0  0  0  0  0
  193.9720  176.8360  146.7630 N   0  0  0  0  0  1  0  0  0  0  0  0
  189.5670  174.9430  141.4650 N   0  0  2  0  0  0  0  0  0  0  0  0
  188.5420  176.2530  143.3240 C   0  0  1  0  0  3  0  0  0  0  0  0
  190.4870  172.0730  140.7060 C   0  0  1  0  0  3  0  0  0  0  0  0
  190.3190  175.6640  144.9920 C   0  0  0  0  0  0  0  0  0  0  0  0
  190.6800  174.4240  142.2570 C   0  0  2  0  0  3  0  0  0  0  0  0
  192.6710  176.2380  144.7860 C   0  0  0  0  0  3  0  0  0  0  0  0
  188.1660  173.1470  140.8960 C   0  0  0  0  0  2  0  0  0  0  0  0
  191.6200  176.2120  146.9650 C   0  0  0  0  0  3  0  0  0  0  0  0
  190.4110  175.8330  146.3760 C   0  0  0  0  0  3  0  0  0  0  0  0
  191.4710  175.8360  144.1880 C   0  0  0  0  0  0  0  0  0  0  0  0
  185.0290  178.3900  144.5600 C   0  0  0  0  0  3  0  0  0  0  0  0
  187.3140  176.9920  143.7430 C   0  0  0  0  0  0  0  0  0  0  0  0
  187.3670  177.8330  144.8600 C   0  0  0  0  0  3  0  0  0  0  0  0
  186.2260  178.5310  145.2680 C   0  0  0  0  0  3  0  0  0  0  0  0
  184.9720  177.5510  143.4440 C   0  0  0  0  0  3  0  0  0  0  0  0
  186.1110  176.8520  143.0340 C   0  0  0  0  0  3  0  0  0  0  0  0
  191.2930  170.2980  142.2420 C   0  0  0  0  0  1  0  0  0  0  0  0
  191.8420  170.2060  139.8230 C   0  0  0  0  0  1  0  0  0  0  0  0
  190.8010  170.6190  140.8440 C   0  0  0  0  0  3  0  0  0  0  0  0
  1 12  1  0  0  0  0
  2  5  1  0  0  0  0
  2 10  1  0  0  0  0
  3 18  1  0  0  0  0
  4 11  1  0  0  0  0
  4 15  1  0  0  0  0
  6 13  1  0  0  0  0
  7  8  1  0  0  0  0
  7 16  1  0  0  0  0
  9  2  1  0  0  0  0
  9  5  1  0  0  0  0
  9 13  1  0  0  0  0
 10 20  1  0  0  0  0
 10  1  1  0  0  0  0
 11 27  1  0  0  0  0
 11  6  1  0  0  0  0
 12 17  1  0  0  0  0
 13  3  1  0  0  0  0
 14  7  2  0  0  0  0
 15  5  1  0  0  0  0
 17 16  2  0  0  0  0
 18 14  1  0  0  0  0
 18 12  2  0  0  0  0
 19 22  1  0  0  0  0
 20 21  1  0  0  0  0
 21 22  2  0  0  0  0
 23 19  2  0  0  0  0
 24 23  1  0  0  0  0
 24 20  2  0  0  0  0
 26 27  1  0  0  0  0
 27 25  1  0  0  0  0
M  END
>  <MODEL>
7

>  <REMARK>
 VINA RESULT:      -7.1      2.416      5.475
  Name = 
  2 active torsions:
  status: ('A' for Active; 'I' for Inactive)
    1  A    between atoms: C_9  and  C_15
    2  A    between atoms: C_16  and  C_17
                            x       y       z     vdW  Elec       q    Type
                         _______ _______ _______ _____ _____    ______ ____

>  <TORSDO>
F 2

$$$$
=
 OpenBabel11052418273D

 27 31  0  0  1  0  0  0  0  0999 V2000
  187.2810  175.9280  143.6660 N   0  0  0  0  0  2  0  0  0  0  0  0
  188.0080  175.6150  141.2630 C   0  0  2  0  0  3  0  0  0  0  0  0
  190.2210  176.0450  143.6360 N   0  0  0  0  0  2  0  0  0  0  0  0
  189.5560  172.5130  141.1730 C   0  0  0  0  0  2  0  0  0  0  0  0
  188.1630  174.2190  141.6240 C   0  0  2  0  0  3  0  0  0  0  0  0
  191.3430  173.7170  142.7730 S   0  0  0  0  0  0  0  0  0  0  0  0
  189.4110  177.5370  146.9420 C   0  0  0  0  0  0  0  0  0  0  0  0
  190.1050  178.1370  148.0300 N   0  0  0  0  0  1  0  0  0  0  0  0
  189.3560  175.1110  141.6000 N   0  0  2  0  0  0  0  0  0  0  0  0
  187.4650  176.5510  142.3590 C   0  0  1  0  0  3  0  0  0  0  0  0
  190.5700  172.2720  141.9560 C   0  0  1  0  0  3  0  0  0  0  0  0
  188.0390  176.3740  144.7930 C   0  0  0  0  0  0  0  0  0  0  0  0
  189.8550  174.8180  142.9430 C   0  0  2  0  0  3  0  0  0  0  0  0
  190.1110  177.1490  145.7970 C   0  0  0  0  0  3  0  0  0  0  0  0
  188.5160  173.1230  140.6760 C   0  0  0  0  0  2  0  0  0  0  0  0
  188.0360  177.3130  147.0300 C   0  0  0  0  0  3  0  0  0  0  0  0
  187.3530  176.7370  145.9560 C   0  0  0  0  0  3  0  0  0  0  0  0
  189.4410  176.5510  144.7240 C   0  0  0  0  0  0  0  0  0  0  0  0
  183.8470  178.4580  141.0520 C   0  0  0  0  0  3  0  0  0  0  0  0
  186.2010  177.2130  141.9160 C   0  0  0  0  0  0  0  0  0  0  0  0
  186.0530  177.5790  140.5740 C   0  0  0  0  0  3  0  0  0  0  0  0
  184.8770  178.2010  140.1420 C   0  0  0  0  0  3  0  0  0  0  0  0
  183.9920  178.0940  142.3930 C   0  0  0  0  0  3  0  0  0  0  0  0
  185.1660  177.4720  142.8270 C   0  0  0  0  0  3  0  0  0  0  0  0
  192.0490  170.7960  143.2950 C   0  0  0  0  0  1  0  0  0  0  0  0
  190.8090  169.8910  141.3440 C   0  0  0  0  0  1  0  0  0  0  0  0
  190.7710  170.8890  142.4830 C   0  0  0  0  0  3  0  0  0  0  0  0
  1 12  1  0  0  0  0
  2  9  1  0  0  0  0
  2  5  1  0  0  0  0
  2 10  1  0  0  0  0
  3 18  1  0  0  0  0
  4 11  1  0  0  0  0
  6 13  1  0  0  0  0
  7 16  1  0  0  0  0
  7  8  1  0  0  0  0
  9  5  1  0  0  0  0
  9 13  1  0  0  0  0
 10  1  1  0  0  0  0
 11 27  1  0  0  0  0
 11  6  1  0  0  0  0
 12 17  1  0  0  0  0
 13  3  1  0  0  0  0
 14  7  2  0  0  0  0
 15  4  1  0  0  0  0
 15  5  1  0  0  0  0
 17 16  2  0  0  0  0
 18 12  2  0  0  0  0
 18 14  1  0  0  0  0
 19 23  1  0  0  0  0
 20 10  1  0  0  0  0
 20 24  1  0  0  0  0
 21 20  2  0  0  0  0
 22 21  1  0  0  0  0
 22 19  2  0  0  0  0
 23 24  2  0  0  0  0
 26 27  1  0  0  0  0
 27 25  1  0  0  0  0
M  END
>  <MODEL>
8

>  <REMARK>
 VINA RESULT:      -7.0      2.512      5.451
  Name = 
  2 active torsions:
  status: ('A' for Active; 'I' for Inactive)
    1  A    between atoms: C_9  and  C_15
    2  A    between atoms: C_16  and  C_17
                            x       y       z     vdW  Elec       q    Type
                         _______ _______ _______ _____ _____    ______ ____

>  <TORSDO>
F 2

$$$$
=
 OpenBabel11052418273D

 27 31  0  0  1  0  0  0  0  0999 V2000
  190.4260  175.8500  143.2070 N   0  0  0  0  0  2  0  0  0  0  0  0
  191.5660  175.9470  145.4640 C   0  0  2  0  0  3  0  0  0  0  0  0
  192.2110  173.5160  143.3680 N   0  0  0  0  0  2  0  0  0  0  0  0
  194.8930  176.6480  144.7760 C   0  0  0  0  0  2  0  0  0  0  0  0
  192.6450  176.6020  144.7490 C   0  0  2  0  0  3  0  0  0  0  0  0
  194.8290  174.2280  143.6170 S   0  0  0  0  0  0  0  0  0  0  0  0
  189.9660  172.5920  140.5540 C   0  0  0  0  0  0  0  0  0  0  0  0
  189.7560  171.4820  139.6900 N   0  0  0  0  0  1  0  0  0  0  0  0
  192.7380  175.1470  145.0500 N   0  0  2  0  0  0  0  0  0  0  0  0
  190.3170  175.5850  144.6390 C   0  0  1  0  0  3  0  0  0  0  0  0
  195.5730  175.8590  143.9930 C   0  0  1  0  0  3  0  0  0  0  0  0
  190.3640  174.7750  142.2670 C   0  0  0  0  0  0  0  0  0  0  0  0
  193.0270  174.6760  143.6960 C   0  0  2  0  0  3  0  0  0  0  0  0
  190.9130  172.5110  141.5770 C   0  0  0  0  0  3  0  0  0  0  0  0
  193.8670  177.1780  145.3810 C   0  0  0  0  0  2  0  0  0  0  0  0
  189.2450  173.7720  140.3620 C   0  0  0  0  0  3  0  0  0  0  0  0
  189.4410  174.8580  141.2200 C   0  0  0  0  0  3  0  0  0  0  0  0
  191.1350  173.5990  142.4290 C   0  0  0  0  0  0  0  0  0  0  0  0
  186.8200  177.5110  146.2190 C   0  0  0  0  0  3  0  0  0  0  0  0
  189.1000  176.2460  145.1990 C   0  0  0  0  0  0  0  0  0  0  0  0
  188.4970  177.2870  144.4860 C   0  0  0  0  0  3  0  0  0  0  0  0
  187.3580  177.9200  144.9950 C   0  0  0  0  0  3  0  0  0  0  0  0
  187.4200  176.4710  146.9340 C   0  0  0  0  0  3  0  0  0  0  0  0
  188.5580  175.8390  146.4270 C   0  0  0  0  0  3  0  0  0  0  0  0
  196.1260  176.6740  141.7150 C   0  0  0  0  0  1  0  0  0  0  0  0
  197.8450  175.5210  143.0860 C   0  0  0  0  0  1  0  0  0  0  0  0
  196.6400  176.4380  143.1230 C   0  0  0  0  0  3  0  0  0  0  0  0
  1 10  1  0  0  0  0
  3 13  1  0  0  0  0
  4 15  1  0  0  0  0
  5  9  1  0  0  0  0
  5 15  1  0  0  0  0
  5  2  1  0  0  0  0
  6 13  1  0  0  0  0
  6 11  1  0  0  0  0
  7 14  1  0  0  0  0
  8  7  1  0  0  0  0
  9  2  1  0  0  0  0
 10 20  1  0  0  0  0
 10  2  1  0  0  0  0
 11  4  1  0  0  0  0
 12 18  1  0  0  0  0
 12  1  1  0  0  0  0
 13  9  1  0  0  0  0
 14 18  2  0  0  0  0
 16  7  2  0  0  0  0
 16 17  1  0  0  0  0
 17 12  2  0  0  0  0
 18  3  1  0  0  0  0
 19 23  1  0  0  0  0
 20 24  1  0  0  0  0
 21 22  1  0  0  0  0
 21 20  2  0  0  0  0
 22 19  2  0  0  0  0
 24 23  2  0  0  0  0
 25 27  1  0  0  0  0
 26 27  1  0  0  0  0
 27 11  1  0  0  0  0
M  END
>  <MODEL>
9

>  <REMARK>
 VINA RESULT:      -7.0      2.231      3.040
  Name = 
  2 active torsions:
  status: ('A' for Active; 'I' for Inactive)
    1  A    between atoms: C_9  and  C_15
    2  A    between atoms: C_16  and  C_17
                            x       y       z     vdW  Elec       q    Type
                         _______ _______ _______ _____ _____    ______ ____

>  <TORSDO>
F 2

$$$$
