=
 OpenBabel11052419523D

 37 42  0  0  1  0  0  0  0  0999 V2000
  185.9210  178.6520  142.4960 C   0  0  0  0  0  2  0  0  0  0  0  0
  188.7830  176.1530  145.0950 C   0  0  1  0  0  3  0  0  0  0  0  0
  189.5010  174.2010  140.2970 C   0  0  2  0  0  3  0  0  0  0  0  0
  190.7880  173.6070  143.8460 C   0  0  1  0  0  3  0  0  0  0  0  0
  187.0120  177.7790  144.5830 C   0  0  2  0  0  3  0  0  0  0  0  0
  189.1260  174.8010  145.1570 O   0  0  0  0  0  0  0  0  0  0  0  0
  187.3600  176.2880  144.5560 C   0  0  1  0  0  3  0  0  0  0  0  0
  190.4860  174.7610  144.8230 C   0  0  1  0  0  3  0  0  0  0  0  0
  187.0780  178.2430  145.9300 O   0  0  0  0  0  0  0  0  0  0  0  0
  190.7880  173.0120  139.8000 S   0  0  0  0  0  0  0  0  0  0  0  0
  187.2890  175.6860  143.1600 C   0  0  0  0  0  2  0  0  0  0  0  0
  187.2280  177.0230  141.0010 C   0  0  0  0  0  2  0  0  0  0  0  0
  190.2160  176.6640  147.2330 C   0  0  0  0  0  2  0  0  0  0  0  0
  188.1380  177.8540  146.7670 C   0  0  0  0  0  3  0  0  0  0  0  0
  188.0600  176.5690  142.1900 C   0  0  2  0  0  3  0  0  0  0  0  0
  191.2620  172.7590  141.5320 C   0  0  0  0  0  2  0  0  0  0  0  0
  189.8700  172.4020  144.0670 C   0  0  0  0  0  1  0  0  0  0  0  0
  188.9560  176.8430  146.4350 C   0  0  0  0  0  0  0  0  0  0  0  0
  189.4870  176.1070  141.9000 C   0  0  0  0  0  2  0  0  0  0  0  0
  185.6830  178.1210  143.9160 C   0  0  0  0  0  2  0  0  0  0  0  0
  191.3290  174.6340  146.1020 C   0  0  2  0  0  3  0  0  0  0  0  0
  185.8490  177.5440  141.4410 C   0  0  0  0  0  2  0  0  0  0  0  0
  190.9440  174.0130  142.3510 C   0  0  1  0  0  0  0  0  0  0  0  0
  189.6290  174.5870  141.7690 C   0  0  2  0  0  3  0  0  0  0  0  0
  190.6510  175.2010  147.3650 C   0  0  0  0  0  2  0  0  0  0  0  0
  192.8820  176.5260  145.5930 C   0  0  0  0  0  3  0  0  0  0  0  0
  192.7140  175.1740  145.9170 C   0  0  0  0  0  0  0  0  0  0  0  0
  193.8410  174.3490  146.0530 C   0  0  0  0  0  3  0  0  0  0  0  0
  196.3130  173.9980  146.0250 C   0  0  0  0  0  1  0  0  0  0  0  0
  195.2840  176.2260  145.5540 C   0  0  0  0  0  3  0  0  0  0  0  0
  195.1230  174.8740  145.8740 C   0  0  0  0  0  0  0  0  0  0  0  0
  194.1640  177.0510  145.4120 C   0  0  0  0  0  3  0  0  0  0  0  0
  192.1120  175.0080  142.1820 C   0  0  0  0  0  2  0  0  0  0  0  0
  193.4820  174.3650  142.3610 C   0  0  0  0  0  1  0  0  0  0  0  0
  188.1960  173.8090  139.9270 O   0  0  0  0  0  0  0  0  0  0  0  0
  188.1870  173.4890  138.5590 C   0  0  0  0  0  2  0  0  0  0  0  0
  187.8120  174.6110  137.8220 O   0  0  0  0  0  1  0  0  0  0  0  0
  1 20  1  0  0  0  0
  2  6  1  1  0  0  0
  2 18  1  0  0  0  0
  3 35  1  1  0  0  0
  3 24  1  0  0  0  0
  4 17  1  6  0  0  0
  4  8  1  0  0  0  0
  5 20  1  1  0  0  0
  5  9  1  0  0  0  0
  7 11  1  6  0  0  0
  7  5  1  0  0  0  0
  7  2  1  0  0  0  0
  8  6  1  1  0  0  0
  8 21  1  0  0  0  0
  9 14  1  0  0  0  0
 10  3  1  0  0  0  0
 10 16  1  0  0  0  0
 12 22  1  0  0  0  0
 13 25  1  0  0  0  0
 15 12  1  6  0  0  0
 15 11  1  0  0  0  0
 16 23  1  0  0  0  0
 18 14  2  0  0  0  0
 18 13  1  0  0  0  0
 19 15  1  0  0  0  0
 21 27  1  6  0  0  0
 21 25  1  0  0  0  0
 22  1  1  0  0  0  0
 23 33  1  6  0  0  0
 23  4  1  0  0  0  0
 24 19  1  6  0  0  0
 24 23  1  0  0  0  0
 26 27  1  0  0  0  0
 27 28  2  0  0  0  0
 30 31  2  0  0  0  0
 31 29  1  0  0  0  0
 31 28  1  0  0  0  0
 32 30  1  0  0  0  0
 32 26  2  0  0  0  0
 33 34  1  0  0  0  0
 36 35  1  0  0  0  0
 37 36  1  0  0  0  0
M  END
>  <MODEL>
1

>  <REMARK>
 VINA RESULT:      -8.5      0.000      0.000
  Name = 
  4 active torsions:
  status: ('A' for Active; 'I' for Inactive)
    1  A    between atoms: O_1  and  C_5
    2  A    between atoms: O_1  and  C_12
    3  A    between atoms: C_6  and  C_31
    4  A    between atoms: C_11  and  C_33
                            x       y       z     vdW  Elec       q    Type
                         _______ _______ _______ _____ _____    ______ ____

>  <TORSDO>
F 4

$$$$
=
 OpenBabel11052419523D

 37 42  0  0  1  0  0  0  0  0999 V2000
  184.4600  178.2190  147.4380 C   0  0  0  0  0  2  0  0  0  0  0  0
  186.8210  177.5370  143.5450 C   0  0  1  0  0  3  0  0  0  0  0  0
  190.2920  176.3660  147.2770 C   0  0  2  0  0  3  0  0  0  0  0  0
  190.1400  176.5160  143.4620 C   0  0  1  0  0  3  0  0  0  0  0  0
  184.9480  178.2380  144.9740 C   0  0  2  0  0  3  0  0  0  0  0  0
  188.1200  177.8240  143.1210 O   0  0  0  0  0  0  0  0  0  0  0  0
  186.4000  178.5530  144.6040 C   0  0  1  0  0  3  0  0  0  0  0  0
  188.7080  176.5730  142.8940 C   0  0  1  0  0  3  0  0  0  0  0  0
  184.1370  178.3710  143.8090 O   0  0  0  0  0  0  0  0  0  0  0  0
  191.9300  175.6120  147.0250 S   0  0  0  0  0  0  0  0  0  0  0  0
  187.3480  178.4690  145.7920 C   0  0  0  0  0  2  0  0  0  0  0  0
  186.8090  177.3470  148.0060 C   0  0  0  0  0  2  0  0  0  0  0  0
  186.1720  176.6960  141.1460 C   0  0  0  0  0  2  0  0  0  0  0  0
  184.5720  177.8580  142.5740 C   0  0  0  0  0  3  0  0  0  0  0  0
  187.1170  177.1580  146.5290 C   0  0  2  0  0  3  0  0  0  0  0  0
  191.7720  175.8030  145.2290 C   0  0  0  0  0  2  0  0  0  0  0  0
  190.8420  177.8750  143.4040 C   0  0  0  0  0  1  0  0  0  0  0  0
  185.8460  177.4810  142.3850 C   0  0  0  0  0  0  0  0  0  0  0  0
  188.0890  176.0380  146.1630 C   0  0  0  0  0  2  0  0  0  0  0  0
  184.4130  179.0510  146.1500 C   0  0  0  0  0  2  0  0  0  0  0  0
  188.7000  176.2630  141.3890 C   0  0  2  0  0  3  0  0  0  0  0  0
  185.7530  178.4440  148.2280 C   0  0  0  0  0  2  0  0  0  0  0  0
  190.2950  175.7860  144.8280 C   0  0  1  0  0  0  0  0  0  0  0  0
  189.5310  176.5140  145.9620 C   0  0  2  0  0  3  0  0  0  0  0  0
  187.5780  176.9710  140.6030 C   0  0  0  0  0  2  0  0  0  0  0  0
  187.8960  173.9420  141.8550 C   0  0  0  0  0  3  0  0  0  0  0  0
  188.7320  174.7890  141.1180 C   0  0  0  0  0  0  0  0  0  0  0  0
  189.5910  174.2470  140.1500 C   0  0  0  0  0  3  0  0  0  0  0  0
  190.5120  172.3000  138.8870 C   0  0  0  0  0  1  0  0  0  0  0  0
  188.7650  172.0280  140.6530 C   0  0  0  0  0  3  0  0  0  0  0  0
  189.6050  172.8690  139.9160 C   0  0  0  0  0  0  0  0  0  0  0  0
  187.9120  172.5640  141.6220 C   0  0  0  0  0  3  0  0  0  0  0  0
  189.8460  174.3140  144.7060 C   0  0  0  0  0  2  0  0  0  0  0  0
  190.8490  173.4370  143.9680 C   0  0  0  0  0  1  0  0  0  0  0  0
  190.3260  177.5500  148.0460 O   0  0  0  0  0  0  0  0  0  0  0  0
  191.5370  177.5970  148.7570 C   0  0  0  0  0  2  0  0  0  0  0  0
  191.3920  178.4290  149.8650 O   0  0  0  0  0  1  0  0  0  0  0  0
  1 22  1  0  0  0  0
  2 18  1  6  0  0  0
  2  7  1  0  0  0  0
  3 35  1  6  0  0  0
  4 17  1  1  0  0  0
  4 23  1  0  0  0  0
  5 20  1  1  0  0  0
  6  2  1  0  0  0  0
  7  5  1  0  0  0  0
  7 11  1  1  0  0  0
  8  6  1  6  0  0  0
  8  4  1  0  0  0  0
  9  5  1  0  0  0  0
 10  3  1  0  0  0  0
 12 22  1  0  0  0  0
 13 18  1  0  0  0  0
 14  9  1  0  0  0  0
 15 11  1  1  0  0  0
 15 12  1  0  0  0  0
 16 10  1  0  0  0  0
 18 14  2  0  0  0  0
 19 15  1  0  0  0  0
 20  1  1  0  0  0  0
 21 27  1  1  0  0  0
 21  8  1  0  0  0  0
 23 33  1  6  0  0  0
 23 16  1  0  0  0  0
 23 24  1  0  0  0  0
 24 19  1  1  0  0  0
 24  3  1  0  0  0  0
 25 13  1  0  0  0  0
 25 21  1  0  0  0  0
 27 26  2  0  0  0  0
 28 27  1  0  0  0  0
 29 31  1  0  0  0  0
 30 32  2  0  0  0  0
 31 28  2  0  0  0  0
 31 30  1  0  0  0  0
 32 26  1  0  0  0  0
 34 33  1  0  0  0  0
 35 36  1  0  0  0  0
 36 37  1  0  0  0  0
M  END
>  <MODEL>
2

>  <REMARK>
 VINA RESULT:      -7.8      2.703      6.399
  Name = 
  4 active torsions:
  status: ('A' for Active; 'I' for Inactive)
    1  A    between atoms: O_1  and  C_5
    2  A    between atoms: O_1  and  C_12
    3  A    between atoms: C_6  and  C_31
    4  A    between atoms: C_11  and  C_33
                            x       y       z     vdW  Elec       q    Type
                         _______ _______ _______ _____ _____    ______ ____

>  <TORSDO>
F 4

$$$$
=
 OpenBabel11052419523D

 37 42  0  0  1  0  0  0  0  0999 V2000
  195.2430  174.0930  139.6650 C   0  0  0  0  0  2  0  0  0  0  0  0
  190.8870  173.8240  141.1300 C   0  0  1  0  0  3  0  0  0  0  0  0
  193.4430  175.6860  145.2940 C   0  0  2  0  0  3  0  0  0  0  0  0
  189.8780  174.6990  144.3360 C   0  0  1  0  0  3  0  0  0  0  0  0
  192.7990  173.5140  139.6170 C   0  0  2  0  0  3  0  0  0  0  0  0
  190.2720  173.4100  142.3130 O   0  0  0  0  0  0  0  0  0  0  0  0
  192.2100  173.0800  140.9620 C   0  0  1  0  0  3  0  0  0  0  0  0
  189.6530  174.5620  142.8170 C   0  0  1  0  0  3  0  0  0  0  0  0
  191.8910  173.1510  138.5790 O   0  0  0  0  0  0  0  0  0  0  0  0
  192.6890  176.3150  146.8280 S   0  0  0  0  0  0  0  0  0  0  0  0
  193.1210  173.3970  142.1400 C   0  0  0  0  0  2  0  0  0  0  0  0
  195.0920  174.9970  142.0650 C   0  0  0  0  0  2  0  0  0  0  0  0
  188.5540  174.1310  139.9700 C   0  0  0  0  0  2  0  0  0  0  0  0
  190.5100  173.3640  138.7320 C   0  0  0  0  0  3  0  0  0  0  0  0
  193.5790  174.8450  142.0480 C   0  0  2  0  0  3  0  0  0  0  0  0
  191.0550  175.7360  146.2940 C   0  0  0  0  0  2  0  0  0  0  0  0
  189.9770  173.3400  145.0340 C   0  0  0  0  0  1  0  0  0  0  0  0
  189.9760  173.6510  139.9290 C   0  0  0  0  0  0  0  0  0  0  0  0
  192.7750  175.8260  142.8990 C   0  0  0  0  0  2  0  0  0  0  0  0
  194.2120  172.9990  139.3590 C   0  0  0  0  0  2  0  0  0  0  0  0
  188.1540  174.5300  142.4830 C   0  0  2  0  0  3  0  0  0  0  0  0
  195.7720  174.0100  141.1010 C   0  0  0  0  0  2  0  0  0  0  0  0
  190.9830  175.7090  144.7660 C   0  0  1  0  0  0  0  0  0  0  0  0
  192.3850  175.2730  144.2740 C   0  0  2  0  0  3  0  0  0  0  0  0
  187.8010  173.7010  141.2330 C   0  0  0  0  0  2  0  0  0  0  0  0
  188.1500  176.8710  141.6070 C   0  0  0  0  0  3  0  0  0  0  0  0
  187.5600  175.9060  142.4310 C   0  0  0  0  0  0  0  0  0  0  0  0
  186.4360  176.2420  143.1990 C   0  0  0  0  0  3  0  0  0  0  0  0
  184.7070  177.8820  143.9470 C   0  0  0  0  0  1  0  0  0  0  0  0
  186.4920  178.4920  142.3080 C   0  0  0  0  0  3  0  0  0  0  0  0
  185.9020  177.5320  143.1360 C   0  0  0  0  0  0  0  0  0  0  0  0
  187.6160  178.1620  141.5450 C   0  0  0  0  0  3  0  0  0  0  0  0
  190.6330  177.1300  144.2740 C   0  0  0  0  0  2  0  0  0  0  0  0
  189.4460  177.7450  145.0050 C   0  0  0  0  0  1  0  0  0  0  0  0
  194.4320  174.7010  145.5130 O   0  0  0  0  0  0  0  0  0  0  0  0
  193.8040  173.4590  145.7060 C   0  0  0  0  0  2  0  0  0  0  0  0
  194.6910  172.4360  145.3820 O   0  0  0  0  0  1  0  0  0  0  0  0
  1 22  1  0  0  0  0
  2 18  1  6  0  0  0
  2  6  1  0  0  0  0
  3 35  1  1  0  0  0
  3 10  1  0  0  0  0
  4 23  1  0  0  0  0
  4 17  1  6  0  0  0
  5 20  1  6  0  0  0
  5  7  1  0  0  0  0
  7  2  1  0  0  0  0
  7 11  1  1  0  0  0
  8  6  1  1  0  0  0
  8  4  1  0  0  0  0
  9 14  1  0  0  0  0
  9  5  1  0  0  0  0
 13 25  1  0  0  0  0
 14 18  2  0  0  0  0
 15 12  1  1  0  0  0
 15 11  1  0  0  0  0
 15 19  1  0  0  0  0
 16 10  1  0  0  0  0
 18 13  1  0  0  0  0
 20  1  1  0  0  0  0
 21 27  1  6  0  0  0
 21  8  1  0  0  0  0
 22 12  1  0  0  0  0
 23 33  1  6  0  0  0
 23 16  1  0  0  0  0
 24 19  1  6  0  0  0
 24 23  1  0  0  0  0
 24  3  1  0  0  0  0
 25 21  1  0  0  0  0
 26 27  1  0  0  0  0
 27 28  2  0  0  0  0
 30 31  2  0  0  0  0
 31 28  1  0  0  0  0
 31 29  1  0  0  0  0
 32 26  2  0  0  0  0
 32 30  1  0  0  0  0
 33 34  1  0  0  0  0
 35 36  1  0  0  0  0
 37 36  1  0  0  0  0
M  END
>  <MODEL>
3

>  <REMARK>
 VINA RESULT:      -7.6      2.530      7.476
  Name = 
  4 active torsions:
  status: ('A' for Active; 'I' for Inactive)
    1  A    between atoms: O_1  and  C_5
    2  A    between atoms: O_1  and  C_12
    3  A    between atoms: C_6  and  C_31
    4  A    between atoms: C_11  and  C_33
                            x       y       z     vdW  Elec       q    Type
                         _______ _______ _______ _____ _____    ______ ____

>  <TORSDO>
F 4

$$$$
=
 OpenBabel11052419523D

 37 42  0  0  1  0  0  0  0  0999 V2000
  192.9530  174.6030  137.4860 C   0  0  0  0  0  2  0  0  0  0  0  0
  191.1450  173.0550  141.4270 C   0  0  1  0  0  3  0  0  0  0  0  0
  195.7420  175.0540  142.9160 C   0  0  2  0  0  3  0  0  0  0  0  0
  192.7470  173.2860  144.5000 C   0  0  1  0  0  3  0  0  0  0  0  0
  191.3400  173.4180  139.0040 C   0  0  2  0  0  3  0  0  0  0  0  0
  191.6460  172.3700  142.5350 O   0  0  0  0  0  0  0  0  0  0  0  0
  191.9790  172.7030  140.1970 C   0  0  1  0  0  3  0  0  0  0  0  0
  191.4910  173.2600  143.6060 C   0  0  1  0  0  3  0  0  0  0  0  0
  190.0030  172.9470  138.8470 O   0  0  0  0  0  0  0  0  0  0  0  0
  196.3060  175.2960  144.6310 S   0  0  0  0  0  0  0  0  0  0  0  0
  193.4260  173.1160  140.4320 C   0  0  0  0  0  2  0  0  0  0  0  0
  194.5320  175.1720  139.4310 C   0  0  0  0  0  2  0  0  0  0  0  0
  188.6990  172.8710  142.3590 C   0  0  0  0  0  2  0  0  0  0  0  0
  189.1710  172.7760  139.9670 C   0  0  0  0  0  3  0  0  0  0  0  0
  193.5230  174.6340  140.4330 C   0  0  2  0  0  3  0  0  0  0  0  0
  194.8760  174.3740  145.2600 C   0  0  0  0  0  2  0  0  0  0  0  0
  193.4600  171.9320  144.5380 C   0  0  0  0  0  1  0  0  0  0  0  0
  189.6680  172.7830  141.2140 C   0  0  0  0  0  0  0  0  0  0  0  0
  193.5160  175.2750  141.8200 C   0  0  0  0  0  2  0  0  0  0  0  0
  192.1450  173.3180  137.7110 C   0  0  0  0  0  2  0  0  0  0  0  0
  190.2450  172.8770  144.4200 C   0  0  2  0  0  3  0  0  0  0  0  0
  194.3730  174.5040  138.0540 C   0  0  0  0  0  2  0  0  0  0  0  0
  193.7040  174.4950  144.2830 C   0  0  1  0  0  0  0  0  0  0  0  0
  194.3220  174.4940  142.8630 C   0  0  2  0  0  3  0  0  0  0  0  0
  189.1690  172.1250  143.6120 C   0  0  0  0  0  2  0  0  0  0  0  0
  189.4610  173.9440  146.5400 C   0  0  0  0  0  3  0  0  0  0  0  0
  189.6750  174.0480  145.1610 C   0  0  0  0  0  0  0  0  0  0  0  0
  189.3430  175.2380  144.4960 C   0  0  0  0  0  3  0  0  0  0  0  0
  188.4660  177.5760  144.4990 C   0  0  0  0  0  1  0  0  0  0  0  0
  188.6020  176.2080  146.5860 C   0  0  0  0  0  3  0  0  0  0  0  0
  188.8100  176.3160  145.2070 C   0  0  0  0  0  0  0  0  0  0  0  0
  188.9260  175.0220  147.2510 C   0  0  0  0  0  3  0  0  0  0  0  0
  192.9690  175.8210  144.5740 C   0  0  0  0  0  2  0  0  0  0  0  0
  192.6860  176.0420  146.0540 C   0  0  0  0  0  1  0  0  0  0  0  0
  196.6610  174.3420  142.1140 O   0  0  0  0  0  0  0  0  0  0  0  0
  196.5360  172.9700  142.3880 C   0  0  0  0  0  2  0  0  0  0  0  0
  196.7840  172.2410  141.2260 O   0  0  0  0  0  1  0  0  0  0  0  0
  1 20  1  0  0  0  0
  1 22  1  0  0  0  0
  2 18  1  6  0  0  0
  2  6  1  0  0  0  0
  3 35  1  1  0  0  0
  3 10  1  0  0  0  0
  4 17  1  6  0  0  0
  5 20  1  6  0  0  0
  5  7  1  0  0  0  0
  7 11  1  1  0  0  0
  7  2  1  0  0  0  0
  8  6  1  6  0  0  0
  8 21  1  0  0  0  0
  8  4  1  0  0  0  0
  9  5  1  0  0  0  0
  9 14  1  0  0  0  0
 10 16  1  0  0  0  0
 11 15  1  0  0  0  0
 13 25  1  0  0  0  0
 14 18  2  0  0  0  0
 15 12  1  1  0  0  0
 15 19  1  0  0  0  0
 18 13  1  0  0  0  0
 21 27  1  6  0  0  0
 22 12  1  0  0  0  0
 23  4  1  0  0  0  0
 23 33  1  1  0  0  0
 23 16  1  0  0  0  0
 24 19  1  6  0  0  0
 24  3  1  0  0  0  0
 24 23  1  0  0  0  0
 25 21  1  0  0  0  0
 26 32  1  0  0  0  0
 27 26  2  0  0  0  0
 28 27  1  0  0  0  0
 28 31  2  0  0  0  0
 29 31  1  0  0  0  0
 30 32  2  0  0  0  0
 31 30  1  0  0  0  0
 33 34  1  0  0  0  0
 35 36  1  0  0  0  0
 37 36  1  0  0  0  0
M  END
>  <MODEL>
4

>  <REMARK>
 VINA RESULT:      -7.3      3.161      6.634
  Name = 
  4 active torsions:
  status: ('A' for Active; 'I' for Inactive)
    1  A    between atoms: O_1  and  C_5
    2  A    between atoms: O_1  and  C_12
    3  A    between atoms: C_6  and  C_31
    4  A    between atoms: C_11  and  C_33
                            x       y       z     vdW  Elec       q    Type
                         _______ _______ _______ _____ _____    ______ ____

>  <TORSDO>
F 4

$$$$
=
 OpenBabel11052419523D

 37 42  0  0  1  0  0  0  0  0999 V2000
  188.2170  177.0820  146.8810 C   0  0  0  0  0  2  0  0  0  0  0  0
  189.8480  175.3330  142.9470 C   0  0  1  0  0  3  0  0  0  0  0  0
  194.0100  175.2580  146.1120 C   0  0  2  0  0  3  0  0  0  0  0  0
  193.1440  174.3300  142.5080 C   0  0  1  0  0  3  0  0  0  0  0  0
  188.2370  176.4070  144.4620 C   0  0  2  0  0  3  0  0  0  0  0  0
  191.0270  175.4890  142.2170 O   0  0  0  0  0  0  0  0  0  0  0  0
  189.5760  176.6060  143.7450 C   0  0  1  0  0  3  0  0  0  0  0  0
  191.6300  174.2250  142.2340 C   0  0  1  0  0  3  0  0  0  0  0  0
  187.2180  176.2070  143.4850 O   0  0  0  0  0  0  0  0  0  0  0  0
  195.6120  174.4640  145.7650 S   0  0  0  0  0  0  0  0  0  0  0  0
  190.7310  176.8590  144.7030 C   0  0  0  0  0  2  0  0  0  0  0  0
  190.6750  176.4040  147.2020 C   0  0  0  0  0  2  0  0  0  0  0  0
  188.8110  173.8520  141.0450 C   0  0  0  0  0  2  0  0  0  0  0  0
  187.4430  175.3680  142.3800 C   0  0  0  0  0  3  0  0  0  0  0  0
  190.7130  175.8080  145.8030 C   0  0  2  0  0  3  0  0  0  0  0  0
  195.1120  174.1420  144.0520 C   0  0  0  0  0  2  0  0  0  0  0  0
  193.7480  175.6180  141.9420 C   0  0  0  0  0  1  0  0  0  0  0  0
  188.6780  174.9530  142.0590 C   0  0  0  0  0  0  0  0  0  0  0  0
  191.6590  174.6300  145.5790 C   0  0  0  0  0  2  0  0  0  0  0  0
  187.8870  177.5170  145.4480 C   0  0  0  0  0  2  0  0  0  0  0  0
  191.3590  173.5050  140.9040 C   0  0  2  0  0  3  0  0  0  0  0  0
  189.6210  177.5200  147.3130 C   0  0  0  0  0  2  0  0  0  0  0  0
  193.5890  174.0130  143.9650 C   0  0  1  0  0  0  0  0  0  0  0  0
  193.0110  175.0310  144.9800 C   0  0  2  0  0  3  0  0  0  0  0  0
  190.0750  173.9630  140.1870 C   0  0  0  0  0  2  0  0  0  0  0  0
  190.7550  171.4050  142.1190 C   0  0  0  0  0  3  0  0  0  0  0  0
  191.4210  172.0140  141.0490 C   0  0  0  0  0  0  0  0  0  0  0  0
  192.1410  171.2240  140.1400 C   0  0  0  0  0  3  0  0  0  0  0  0
  192.9460  169.0040  139.3290 C   0  0  0  0  0  1  0  0  0  0  0  0
  191.5160  169.2330  141.3650 C   0  0  0  0  0  3  0  0  0  0  0  0
  192.1860  169.8370  140.2970 C   0  0  0  0  0  0  0  0  0  0  0  0
  190.8020  170.0170  142.2760 C   0  0  0  0  0  3  0  0  0  0  0  0
  193.2060  172.5660  144.3430 C   0  0  0  0  0  2  0  0  0  0  0  0
  194.0880  171.5160  143.6790 C   0  0  0  0  0  1  0  0  0  0  0  0
  194.1220  176.6110  146.5030 O   0  0  0  0  0  0  0  0  0  0  0  0
  194.4480  177.3850  145.3770 C   0  0  0  0  0  2  0  0  0  0  0  0
  195.3160  178.4080  145.7530 O   0  0  0  0  0  1  0  0  0  0  0  0
  1 22  1  0  0  0  0
  2 18  1  6  0  0  0
  2  7  1  0  0  0  0
  3 35  1  6  0  0  0
  4 17  1  1  0  0  0
  4 23  1  0  0  0  0
  5 20  1  6  0  0  0
  6  2  1  0  0  0  0
  7  5  1  0  0  0  0
  7 11  1  1  0  0  0
  8  6  1  6  0  0  0
  8  4  1  0  0  0  0
  9  5  1  0  0  0  0
 10  3  1  0  0  0  0
 12 22  1  0  0  0  0
 13 18  1  0  0  0  0
 14  9  1  0  0  0  0
 15 11  1  6  0  0  0
 15 12  1  0  0  0  0
 16 10  1  0  0  0  0
 18 14  2  0  0  0  0
 19 15  1  0  0  0  0
 20  1  1  0  0  0  0
 21 27  1  1  0  0  0
 21  8  1  0  0  0  0
 23 16  1  0  0  0  0
 23 33  1  1  0  0  0
 23 24  1  0  0  0  0
 24 19  1  1  0  0  0
 24  3  1  0  0  0  0
 25 21  1  0  0  0  0
 25 13  1  0  0  0  0
 26 32  1  0  0  0  0
 27 26  2  0  0  0  0
 28 31  2  0  0  0  0
 28 27  1  0  0  0  0
 29 31  1  0  0  0  0
 30 32  2  0  0  0  0
 31 30  1  0  0  0  0
 34 33  1  0  0  0  0
 36 37  1  0  0  0  0
 36 35  1  0  0  0  0
M  END
>  <MODEL>
5

>  <REMARK>
 VINA RESULT:      -7.2      2.718      6.130
  Name = 
  4 active torsions:
  status: ('A' for Active; 'I' for Inactive)
    1  A    between atoms: O_1  and  C_5
    2  A    between atoms: O_1  and  C_12
    3  A    between atoms: C_6  and  C_31
    4  A    between atoms: C_11  and  C_33
                            x       y       z     vdW  Elec       q    Type
                         _______ _______ _______ _____ _____    ______ ____

>  <TORSDO>
F 4

$$$$
=
 OpenBabel11052419523D

 37 42  0  0  1  0  0  0  0  0999 V2000
  189.4870  177.3500  145.7000 C   0  0  0  0  0  2  0  0  0  0  0  0
  193.1400  174.5590  145.4480 C   0  0  1  0  0  3  0  0  0  0  0  0
  189.8390  172.5390  141.9310 C   0  0  2  0  0  3  0  0  0  0  0  0
  193.3200  171.8130  143.3300 C   0  0  1  0  0  3  0  0  0  0  0  0
  191.7150  176.3660  146.3130 C   0  0  2  0  0  3  0  0  0  0  0  0
  193.3160  173.1790  145.3410 O   0  0  0  0  0  0  0  0  0  0  0  0
  191.8170  174.8460  146.1550 C   0  0  1  0  0  3  0  0  0  0  0  0
  193.9430  172.9930  144.1020 C   0  0  1  0  0  3  0  0  0  0  0  0
  192.8100  176.8210  147.1060 O   0  0  0  0  0  0  0  0  0  0  0  0
  190.2160  171.2190  140.7350 S   0  0  0  0  0  0  0  0  0  0  0  0
  190.6720  174.2540  145.3460 C   0  0  0  0  0  2  0  0  0  0  0  0
  189.0910  175.5890  143.8720 C   0  0  0  0  0  2  0  0  0  0  0  0
  195.7250  174.9150  145.7240 C   0  0  0  0  0  2  0  0  0  0  0  0
  194.1050  176.3210  146.8870 C   0  0  0  0  0  3  0  0  0  0  0  0
  190.5000  175.0490  144.0600 C   0  0  2  0  0  3  0  0  0  0  0  0
  191.8180  170.9180  141.5310 C   0  0  0  0  0  2  0  0  0  0  0  0
  192.8070  170.7140  144.2640 C   0  0  0  0  0  1  0  0  0  0  0  0
  194.3140  175.2280  146.1370 C   0  0  0  0  0  0  0  0  0  0  0  0
  191.1760  174.4370  142.8340 C   0  0  0  0  0  2  0  0  0  0  0  0
  190.3700  176.8480  146.8490 C   0  0  0  0  0  2  0  0  0  0  0  0
  195.4500  172.7770  144.3140 C   0  0  2  0  0  3  0  0  0  0  0  0
  188.5640  176.2550  145.1550 C   0  0  0  0  0  2  0  0  0  0  0  0
  192.3180  172.1990  142.2030 C   0  0  1  0  0  0  0  0  0  0  0  0
  191.0630  172.9100  142.7660 C   0  0  2  0  0  3  0  0  0  0  0  0
  196.0050  173.4140  145.6030 C   0  0  0  0  0  2  0  0  0  0  0  0
  197.1820  172.2610  142.5860 C   0  0  0  0  0  3  0  0  0  0  0  0
  196.2490  173.1660  143.1060 C   0  0  0  0  0  0  0  0  0  0  0  0
  196.0850  174.4200  142.4980 C   0  0  0  0  0  3  0  0  0  0  0  0
  196.6620  176.0870  140.7320 C   0  0  0  0  0  1  0  0  0  0  0  0
  197.7710  173.8520  140.8580 C   0  0  0  0  0  3  0  0  0  0  0  0
  196.8430  174.7610  141.3750 C   0  0  0  0  0  0  0  0  0  0  0  0
  197.9410  172.6030  141.4630 C   0  0  0  0  0  3  0  0  0  0  0  0
  193.0190  173.0620  141.1320 C   0  0  0  0  0  2  0  0  0  0  0  0
  194.0240  172.2840  140.2930 C   0  0  0  0  0  1  0  0  0  0  0  0
  188.6830  172.2890  142.7040 O   0  0  0  0  0  0  0  0  0  0  0  0
  187.5520  172.6940  141.9750 C   0  0  0  0  0  2  0  0  0  0  0  0
  187.8490  173.8550  141.2660 O   0  0  0  0  0  1  0  0  0  0  0  0
  1 20  1  0  0  0  0
  2  6  1  1  0  0  0
  2 18  1  0  0  0  0
  2  7  1  0  0  0  0
  3 35  1  1  0  0  0
  3 24  1  0  0  0  0
  4  8  1  0  0  0  0
  4 17  1  1  0  0  0
  5 20  1  1  0  0  0
  5  9  1  0  0  0  0
  7 11  1  6  0  0  0
  7  5  1  0  0  0  0
  8 21  1  0  0  0  0
  8  6  1  1  0  0  0
 10 16  1  0  0  0  0
 10  3  1  0  0  0  0
 12 15  1  0  0  0  0
 12 22  1  0  0  0  0
 13 18  1  0  0  0  0
 14  9  1  0  0  0  0
 15 19  1  6  0  0  0
 15 11  1  0  0  0  0
 16 23  1  0  0  0  0
 18 14  2  0  0  0  0
 21 27  1  6  0  0  0
 21 25  1  0  0  0  0
 22  1  1  0  0  0  0
 23 33  1  6  0  0  0
 23 24  1  0  0  0  0
 23  4  1  0  0  0  0
 24 19  1  6  0  0  0
 25 13  1  0  0  0  0
 26 27  1  0  0  0  0
 28 27  2  0  0  0  0
 29 31  1  0  0  0  0
 30 31  2  0  0  0  0
 30 32  1  0  0  0  0
 31 28  1  0  0  0  0
 32 26  2  0  0  0  0
 34 33  1  0  0  0  0
 36 35  1  0  0  0  0
 37 36  1  0  0  0  0
M  END
>  <MODEL>
6

>  <REMARK>
 VINA RESULT:      -7.0      2.514      4.539
  Name = 
  4 active torsions:
  status: ('A' for Active; 'I' for Inactive)
    1  A    between atoms: O_1  and  C_5
    2  A    between atoms: O_1  and  C_12
    3  A    between atoms: C_6  and  C_31
    4  A    between atoms: C_11  and  C_33
                            x       y       z     vdW  Elec       q    Type
                         _______ _______ _______ _____ _____    ______ ____

>  <TORSDO>
F 4

$$$$
=
 OpenBabel11052419523D

 37 42  0  0  1  0  0  0  0  0999 V2000
  196.1670  169.3580  145.6970 C   0  0  0  0  0  2  0  0  0  0  0  0
  194.8610  173.6260  144.5680 C   0  0  1  0  0  3  0  0  0  0  0  0
  191.8410  170.6070  141.5500 C   0  0  2  0  0  3  0  0  0  0  0  0
  192.4280  174.3280  142.1910 C   0  0  1  0  0  3  0  0  0  0  0  0
  196.2050  171.8690  145.6410 C   0  0  2  0  0  3  0  0  0  0  0  0
  194.5520  174.2740  143.3720 O   0  0  0  0  0  0  0  0  0  0  0  0
  195.8440  172.4910  144.2890 C   0  0  1  0  0  3  0  0  0  0  0  0
  193.2010  174.6250  143.4920 C   0  0  1  0  0  3  0  0  0  0  0  0
  196.8160  172.8650  146.4580 O   0  0  0  0  0  0  0  0  0  0  0  0
  190.4410  171.1650  140.5270 S   0  0  0  0  0  0  0  0  0  0  0  0
  195.2090  171.4970  143.3270 C   0  0  0  0  0  2  0  0  0  0  0  0
  194.2500  169.2410  143.9900 C   0  0  0  0  0  2  0  0  0  0  0  0
  194.6650  175.8800  145.8960 C   0  0  0  0  0  2  0  0  0  0  0  0
  196.2870  174.1660  146.5130 C   0  0  0  0  0  3  0  0  0  0  0  0
  194.0900  170.7520  144.0380 C   0  0  2  0  0  3  0  0  0  0  0  0
  190.8640  172.8990  140.8470 C   0  0  0  0  0  2  0  0  0  0  0  0
  193.3020  174.4900  140.9460 C   0  0  0  0  0  1  0  0  0  0  0  0
  195.3820  174.5900  145.6170 C   0  0  0  0  0  0  0  0  0  0  0  0
  192.6890  171.3070  143.7850 C   0  0  0  0  0  2  0  0  0  0  0  0
  197.0500  170.6020  145.5390 C   0  0  0  0  0  2  0  0  0  0  0  0
  193.0840  176.1080  143.8750 C   0  0  2  0  0  3  0  0  0  0  0  0
  195.6830  168.8120  144.3490 C   0  0  0  0  0  2  0  0  0  0  0  0
  191.5760  173.0250  142.1960 C   0  0  1  0  0  0  0  0  0  0  0  0
  192.4580  171.7590  142.3390 C   0  0  2  0  0  3  0  0  0  0  0  0
  194.3070  176.6650  144.6300 C   0  0  0  0  0  2  0  0  0  0  0  0
  191.1000  177.5750  144.2740 C   0  0  0  0  0  3  0  0  0  0  0  0
  191.8000  176.4050  144.5890 C   0  0  0  0  0  0  0  0  0  0  0  0
  191.2980  175.5390  145.5720 C   0  0  0  0  0  3  0  0  0  0  0  0
  189.5700  174.9160  147.2630 C   0  0  0  0  0  1  0  0  0  0  0  0
  189.4020  177.0060  145.9050 C   0  0  0  0  0  3  0  0  0  0  0  0
  190.1000  175.8380  146.2270 C   0  0  0  0  0  0  0  0  0  0  0  0
  189.9020  177.8750  144.9300 C   0  0  0  0  0  3  0  0  0  0  0  0
  190.5030  173.0870  143.3040 C   0  0  0  0  0  2  0  0  0  0  0  0
  189.3310  173.9980  142.9580 C   0  0  0  0  0  1  0  0  0  0  0  0
  192.7890  169.8370  140.8400 O   0  0  0  0  0  0  0  0  0  0  0  0
  193.6340  170.7020  140.1240 C   0  0  0  0  0  2  0  0  0  0  0  0
  193.5210  170.4370  138.7610 O   0  0  0  0  0  1  0  0  0  0  0  0
  2  6  1  6  0  0  0
  2 18  1  0  0  0  0
  3 35  1  6  0  0  0
  3 24  1  0  0  0  0
  4 17  1  6  0  0  0
  4 23  1  0  0  0  0
  4  8  1  0  0  0  0
  5 20  1  6  0  0  0
  5  9  1  0  0  0  0
  7 11  1  6  0  0  0
  7  2  1  0  0  0  0
  7  5  1  0  0  0  0
  8  6  1  6  0  0  0
  8 21  1  0  0  0  0
  9 14  1  0  0  0  0
 10 16  1  0  0  0  0
 10  3  1  0  0  0  0
 12 15  1  0  0  0  0
 12 22  1  0  0  0  0
 15 11  1  6  0  0  0
 16 23  1  0  0  0  0
 18 13  1  0  0  0  0
 18 14  2  0  0  0  0
 19 15  1  0  0  0  0
 20  1  1  0  0  0  0
 21 27  1  1  0  0  0
 21 25  1  0  0  0  0
 22  1  1  0  0  0  0
 23 24  1  0  0  0  0
 23 33  1  1  0  0  0
 24 19  1  1  0  0  0
 25 13  1  0  0  0  0
 26 27  2  0  0  0  0
 26 32  1  0  0  0  0
 27 28  1  0  0  0  0
 28 31  2  0  0  0  0
 30 31  1  0  0  0  0
 31 29  1  0  0  0  0
 32 30  2  0  0  0  0
 34 33  1  0  0  0  0
 36 35  1  0  0  0  0
 37 36  1  0  0  0  0
M  END
>  <MODEL>
7

>  <REMARK>
 VINA RESULT:      -6.8      3.172      7.081
  Name = 
  4 active torsions:
  status: ('A' for Active; 'I' for Inactive)
    1  A    between atoms: O_1  and  C_5
    2  A    between atoms: O_1  and  C_12
    3  A    between atoms: C_6  and  C_31
    4  A    between atoms: C_11  and  C_33
                            x       y       z     vdW  Elec       q    Type
                         _______ _______ _______ _____ _____    ______ ____

>  <TORSDO>
F 4

$$$$
=
 OpenBabel11052419523D

 37 42  0  0  1  0  0  0  0  0999 V2000
  196.8130  172.2810  146.1150 C   0  0  0  0  0  2  0  0  0  0  0  0
  193.7670  174.9610  143.9390 C   0  0  1  0  0  3  0  0  0  0  0  0
  192.3310  170.1310  142.5430 C   0  0  2  0  0  3  0  0  0  0  0  0
  191.2460  173.7350  141.8890 C   0  0  1  0  0  3  0  0  0  0  0  0
  195.7530  174.3970  145.2730 C   0  0  2  0  0  3  0  0  0  0  0  0
  193.1940  174.9640  142.6670 O   0  0  0  0  0  0  0  0  0  0  0  0
  195.1430  174.3020  143.8720 C   0  0  1  0  0  3  0  0  0  0  0  0
  191.8260  174.7560  142.8890 C   0  0  1  0  0  3  0  0  0  0  0  0
  195.8780  175.7720  145.6290 O   0  0  0  0  0  0  0  0  0  0  0  0
  190.8170  169.6770  141.6380 S   0  0  0  0  0  0  0  0  0  0  0  0
  194.9940  172.8680  143.3840 C   0  0  0  0  0  2  0  0  0  0  0  0
  195.1200  170.8080  144.8640 C   0  0  0  0  0  2  0  0  0  0  0  0
  192.6230  177.2520  144.5120 C   0  0  0  0  0  2  0  0  0  0  0  0
  194.8360  176.6760  145.3600 C   0  0  0  0  0  3  0  0  0  0  0  0
  194.3180  172.0360  144.4630 C   0  0  2  0  0  3  0  0  0  0  0  0
  190.4450  171.4240  141.3290 C   0  0  0  0  0  2  0  0  0  0  0  0
  191.9480  173.7890  140.5300 C   0  0  0  0  0  1  0  0  0  0  0  0
  193.8270  176.3540  144.5360 C   0  0  0  0  0  0  0  0  0  0  0  0
  192.8130  171.8500  144.2800 C   0  0  0  0  0  2  0  0  0  0  0  0
  197.0640  173.6330  145.4360 C   0  0  0  0  0  2  0  0  0  0  0  0
  191.0790  176.0960  142.8040 C   0  0  2  0  0  3  0  0  0  0  0  0
  196.6010  171.1510  145.1010 C   0  0  0  0  0  2  0  0  0  0  0  0
  191.0460  172.2920  142.4380 C   0  0  1  0  0  0  0  0  0  0  0  0
  192.3920  171.6300  142.8230 C   0  0  2  0  0  3  0  0  0  0  0  0
  191.9460  177.3250  143.1390 C   0  0  0  0  0  2  0  0  0  0  0  0
  188.6100  176.4560  142.9580 C   0  0  0  0  0  3  0  0  0  0  0  0
  189.8020  176.0780  143.5880 C   0  0  0  0  0  0  0  0  0  0  0  0
  189.7830  175.7020  144.9400 C   0  0  0  0  0  3  0  0  0  0  0  0
  188.5650  175.2910  147.0800 C   0  0  0  0  0  1  0  0  0  0  0  0
  187.3920  176.0700  145.0160 C   0  0  0  0  0  3  0  0  0  0  0  0
  188.5800  175.6950  145.6510 C   0  0  0  0  0  0  0  0  0  0  0  0
  187.4070  176.4510  143.6700 C   0  0  0  0  0  3  0  0  0  0  0  0
  190.0640  172.3000  143.6290 C   0  0  0  0  0  2  0  0  0  0  0  0
  188.6100  172.4770  143.2110 C   0  0  0  0  0  1  0  0  0  0  0  0
  193.5110  169.6150  141.9650 O   0  0  0  0  0  0  0  0  0  0  0  0
  193.8930  170.4400  140.8940 C   0  0  0  0  0  2  0  0  0  0  0  0
  195.2830  170.5170  140.8400 O   0  0  0  0  0  1  0  0  0  0  0  0
  2  6  1  6  0  0  0
  2 18  1  0  0  0  0
  3 35  1  6  0  0  0
  3 24  1  0  0  0  0
  4 17  1  6  0  0  0
  4 23  1  0  0  0  0
  4  8  1  0  0  0  0
  5 20  1  6  0  0  0
  5  9  1  0  0  0  0
  7 11  1  1  0  0  0
  7  2  1  0  0  0  0
  7  5  1  0  0  0  0
  8  6  1  6  0  0  0
 10  3  1  0  0  0  0
 12 22  1  0  0  0  0
 13 18  1  0  0  0  0
 14  9  1  0  0  0  0
 15 11  1  6  0  0  0
 15 12  1  0  0  0  0
 16 10  1  0  0  0  0
 16 23  1  0  0  0  0
 18 14  2  0  0  0  0
 19 15  1  0  0  0  0
 20  1  1  0  0  0  0
 21  8  1  0  0  0  0
 21 25  1  0  0  0  0
 21 27  1  1  0  0  0
 22  1  1  0  0  0  0
 23 24  1  0  0  0  0
 23 33  1  1  0  0  0
 24 19  1  1  0  0  0
 25 13  1  0  0  0  0
 26 27  2  0  0  0  0
 26 32  1  0  0  0  0
 27 28  1  0  0  0  0
 28 31  2  0  0  0  0
 30 31  1  0  0  0  0
 31 29  1  0  0  0  0
 32 30  2  0  0  0  0
 34 33  1  0  0  0  0
 36 35  1  0  0  0  0
 37 36  1  0  0  0  0
M  END
>  <MODEL>
8

>  <REMARK>
 VINA RESULT:      -6.8      2.892      6.944
  Name = 
  4 active torsions:
  status: ('A' for Active; 'I' for Inactive)
    1  A    between atoms: O_1  and  C_5
    2  A    between atoms: O_1  and  C_12
    3  A    between atoms: C_6  and  C_31
    4  A    between atoms: C_11  and  C_33
                            x       y       z     vdW  Elec       q    Type
                         _______ _______ _______ _____ _____    ______ ____

>  <TORSDO>
F 4

$$$$
=
 OpenBabel11052419523D

 37 42  0  0  1  0  0  0  0  0999 V2000
  190.8370  176.3850  147.2440 C   0  0  0  0  0  2  0  0  0  0  0  0
  190.6280  174.8890  142.8950 C   0  0  1  0  0  3  0  0  0  0  0  0
  195.6350  174.1170  144.1930 C   0  0  2  0  0  3  0  0  0  0  0  0
  193.3620  173.6330  141.1600 C   0  0  1  0  0  3  0  0  0  0  0  0
  189.8570  175.9530  144.9720 C   0  0  2  0  0  3  0  0  0  0  0  0
  191.4530  175.0060  141.7760 O   0  0  0  0  0  0  0  0  0  0  0  0
  190.8380  176.0960  143.8060 C   0  0  1  0  0  3  0  0  0  0  0  0
  191.8570  173.6960  141.4880 C   0  0  1  0  0  3  0  0  0  0  0  0
  188.5270  175.9460  144.4570 O   0  0  0  0  0  0  0  0  0  0  0  0
  196.8750  173.2160  143.2100 S   0  0  0  0  0  0  0  0  0  0  0  0
  192.2920  176.1460  144.2540 C   0  0  0  0  0  2  0  0  0  0  0  0
  193.1290  175.4540  146.5510 C   0  0  0  0  0  2  0  0  0  0  0  0
  188.7740  173.7050  141.4650 C   0  0  0  0  0  2  0  0  0  0  0  0
  188.2120  175.2020  143.3070 C   0  0  0  0  0  3  0  0  0  0  0  0
  192.5620  174.9980  145.2160 C   0  0  2  0  0  3  0  0  0  0  0  0
  195.7290  173.1120  141.8080 C   0  0  0  0  0  2  0  0  0  0  0  0
  193.8610  174.9080  140.4760 C   0  0  0  0  0  1  0  0  0  0  0  0
  189.1720  174.7080  142.5100 C   0  0  0  0  0  0  0  0  0  0  0  0
  193.1990  173.7650  144.5780 C   0  0  0  0  0  2  0  0  0  0  0  0
  190.0450  176.9880  146.0780 C   0  0  0  0  0  2  0  0  0  0  0  0
  191.0160  173.1380  140.3290 C   0  0  2  0  0  3  0  0  0  0  0  0
  192.3430  176.6460  147.1230 C   0  0  0  0  0  2  0  0  0  0  0  0
  194.2830  173.1340  142.3110 C   0  0  1  0  0  0  0  0  0  0  0  0
  194.2620  174.0960  143.5250 C   0  0  2  0  0  3  0  0  0  0  0  0
  189.6230  173.7820  140.1920 C   0  0  0  0  0  2  0  0  0  0  0  0
  190.8550  170.9850  141.5890 C   0  0  0  0  0  3  0  0  0  0  0  0
  190.9430  171.6410  140.3560 C   0  0  0  0  0  0  0  0  0  0  0  0
  190.9740  170.8900  139.1710 C   0  0  0  0  0  3  0  0  0  0  0  0
  190.9340  168.7050  137.9640 C   0  0  0  0  0  1  0  0  0  0  0  0
  190.8150  168.8460  140.4560 C   0  0  0  0  0  3  0  0  0  0  0  0
  190.9070  169.4960  139.2210 C   0  0  0  0  0  0  0  0  0  0  0  0
  190.7900  169.5900  141.6390 C   0  0  0  0  0  3  0  0  0  0  0  0
  193.8960  171.6980  142.7270 C   0  0  0  0  0  2  0  0  0  0  0  0
  194.3860  170.6350  141.7520 C   0  0  0  0  0  1  0  0  0  0  0  0
  196.0530  175.4080  144.5840 O   0  0  0  0  0  0  0  0  0  0  0  0
  195.8470  176.2970  143.5160 C   0  0  0  0  0  2  0  0  0  0  0  0
  197.0570  176.8950  143.1700 O   0  0  0  0  0  1  0  0  0  0  0  0
  2  6  1  6  0  0  0
  2  7  1  0  0  0  0
  3 35  1  6  0  0  0
  4 17  1  1  0  0  0
  4  8  1  0  0  0  0
  4 23  1  0  0  0  0
  5 20  1  1  0  0  0
  7 11  1  1  0  0  0
  7  5  1  0  0  0  0
  8  6  1  6  0  0  0
  9  5  1  0  0  0  0
 10  3  1  0  0  0  0
 12 22  1  0  0  0  0
 13 18  1  0  0  0  0
 14  9  1  0  0  0  0
 15 11  1  6  0  0  0
 15 12  1  0  0  0  0
 16 23  1  0  0  0  0
 16 10  1  0  0  0  0
 18  2  1  0  0  0  0
 18 14  2  0  0  0  0
 19 15  1  0  0  0  0
 20  1  1  0  0  0  0
 21 27  1  1  0  0  0
 21  8  1  0  0  0  0
 22  1  1  0  0  0  0
 23 33  1  1  0  0  0
 23 24  1  0  0  0  0
 24  3  1  0  0  0  0
 24 19  1  1  0  0  0
 25 21  1  0  0  0  0
 25 13  1  0  0  0  0
 26 32  1  0  0  0  0
 27 26  2  0  0  0  0
 28 31  2  0  0  0  0
 28 27  1  0  0  0  0
 29 31  1  0  0  0  0
 30 32  2  0  0  0  0
 31 30  1  0  0  0  0
 34 33  1  0  0  0  0
 36 35  1  0  0  0  0
 37 36  1  0  0  0  0
M  END
>  <MODEL>
9

>  <REMARK>
 VINA RESULT:      -6.7      3.047      6.669
  Name = 
  4 active torsions:
  status: ('A' for Active; 'I' for Inactive)
    1  A    between atoms: O_1  and  C_5
    2  A    between atoms: O_1  and  C_12
    3  A    between atoms: C_6  and  C_31
    4  A    between atoms: C_11  and  C_33
                            x       y       z     vdW  Elec       q    Type
                         _______ _______ _______ _____ _____    ______ ____

>  <TORSDO>
F 4

$$$$
