=
 OpenBabel11052417513D

 31 34  0  0  1  0  0  0  0  0999 V2000
  187.6710  177.2880  146.2010 C   0  0  2  0  0  3  0  0  0  0  0  0
  189.3990  177.1290  144.3800 C   0  0  1  0  0  3  0  0  0  0  0  0
  186.6900  177.8950  145.2080 C   0  0  0  0  0  2  0  0  0  0  0  0
  187.3960  177.8360  147.5840 C   0  0  0  0  0  1  0  0  0  0  0  0
  189.1000  177.6300  145.7950 C   0  0  0  0  0  2  0  0  0  0  0  0
  188.3700  177.6550  143.3580 C   0  0  2  0  0  3  0  0  0  0  0  0
  186.9500  177.3310  143.8170 C   0  0  0  0  0  2  0  0  0  0  0  0
  190.8200  177.4520  144.0060 C   0  0  0  0  0  0  0  0  0  0  0  0
  191.1270  178.6680  143.8890 O   0  0  0  0  0  0  0  0  0  0  0  0
  191.8400  176.3930  143.7520 C   0  0  0  0  0  0  0  0  0  0  0  0
  192.9190  174.9010  142.1520 C   0  0  0  0  0  3  0  0  0  0  0  0
  191.9830  175.8910  142.4470 C   0  0  0  0  0  3  0  0  0  0  0  0
  193.7310  174.3890  143.1610 C   0  0  0  0  0  3  0  0  0  0  0  0
  193.6030  174.8640  144.4660 C   0  0  0  0  0  3  0  0  0  0  0  0
  192.6660  175.8640  144.7800 C   0  0  0  0  0  0  0  0  0  0  0  0
  193.8710  176.6620  146.8170 C   0  0  0  0  0  1  0  0  0  0  0  0
  191.8360  175.2420  147.0470 C   0  0  0  0  0  1  0  0  0  0  0  0
  192.5270  176.3040  146.2110 C   0  0  0  0  0  3  0  0  0  0  0  0
  188.5800  177.0210  141.9930 C   0  0  0  0  0  2  0  0  0  0  0  0
  187.3770  176.1730  141.6180 C   0  0  0  0  0  2  0  0  0  0  0  0
  187.5050  174.8430  142.1920 N   0  0  0  0  0  2  0  0  0  0  0  0
  191.4220  171.8030  143.7570 C   0  0  0  0  0  0  0  0  0  0  0  0
  189.5990  173.4180  143.8600 C   0  0  0  0  0  3  0  0  0  0  0  0
  189.9180  172.2860  140.3910 C   0  0  0  0  0  3  0  0  0  0  0  0
  188.6270  173.3500  140.1310 S   0  0  0  0  0  0  0  0  0  0  0  0
  192.6840  170.9010  144.5680 Cl  0  0  0  0  0  0  0  0  0  0  0  0
  188.4550  173.8860  141.7170 C   0  0  0  0  0  0  0  0  0  0  0  0
  190.6150  172.6880  144.4930 C   0  0  0  0  0  3  0  0  0  0  0  0
  190.2130  172.3630  141.7510 C   0  0  0  0  0  0  0  0  0  0  0  0
  189.4060  173.2470  142.4880 C   0  0  0  0  0  0  0  0  0  0  0  0
  191.2230  171.6360  142.3790 C   0  0  0  0  0  3  0  0  0  0  0  0
  1  4  1  1  0  0  0
  2  8  1  6  0  0  0
  2  5  1  0  0  0  0
  3  1  1  0  0  0  0
  5  1  1  0  0  0  0
  6 19  1  6  0  0  0
  6  7  1  0  0  0  0
  6  2  1  0  0  0  0
  7  3  1  0  0  0  0
  9  8  2  0  0  0  0
 10  8  1  0  0  0  0
 10 15  1  0  0  0  0
 11 12  1  0  0  0  0
 11 13  2  0  0  0  0
 12 10  2  0  0  0  0
 13 14  1  0  0  0  0
 14 15  2  0  0  0  0
 15 18  1  0  0  0  0
 18 16  1  0  0  0  0
 18 17  1  0  0  0  0
 20 19  1  0  0  0  0
 20 21  1  0  0  0  0
 22 28  1  0  0  0  0
 22 26  1  0  0  0  0
 23 28  2  0  0  0  0
 24 29  2  0  0  0  0
 25 24  1  0  0  0  0
 25 27  1  0  0  0  0
 27 21  1  0  0  0  0
 27 30  2  0  0  0  0
 29 31  1  0  0  0  0
 29 30  1  0  0  0  0
 30 23  1  0  0  0  0
 31 22  2  0  0  0  0
M  END
>  <MODEL>
1

>  <REMARK>
 VINA RESULT:      -6.5      0.000      0.000
  Name = 
  7 active torsions:
  status: ('A' for Active; 'I' for Inactive)
    1  A    between atoms: C_4  and  C_5
    2  A    between atoms: C_4  and  C_12
    3  A    between atoms: C_9  and  N_23
    4  A    between atoms: C_15  and  C_20
    5  A    between atoms: C_15  and  N_23
    6  A    between atoms: C_20  and  C_27
    7  A    between atoms: C_30  and  C_31
                            x       y       z     vdW  Elec       q    Type
                         _______ _______ _______ _____ _____    ______ ____

>  <TORSDO>
F 7

$$$$
=
 OpenBabel11052417513D

 31 34  0  0  1  0  0  0  0  0999 V2000
  193.0890  176.0890  146.3330 C   0  0  2  0  0  3  0  0  0  0  0  0
  191.0540  175.7440  144.8960 C   0  0  1  0  0  3  0  0  0  0  0  0
  192.2000  176.5970  147.4600 C   0  0  0  0  0  2  0  0  0  0  0  0
  194.4370  176.7730  146.4040 C   0  0  0  0  0  1  0  0  0  0  0  0
  192.4410  176.3850  144.9850 C   0  0  0  0  0  2  0  0  0  0  0  0
  190.1510  176.1680  146.0730 C   0  0  2  0  0  3  0  0  0  0  0  0
  190.8480  175.8960  147.4040 C   0  0  0  0  0  2  0  0  0  0  0  0
  190.4390  176.0240  143.5510 C   0  0  0  0  0  0  0  0  0  0  0  0
  190.2910  177.2300  143.2220 O   0  0  0  0  0  0  0  0  0  0  0  0
  189.9920  174.9350  142.6360 C   0  0  0  0  0  0  0  0  0  0  0  0
  188.1520  173.5910  141.7630 C   0  0  0  0  0  3  0  0  0  0  0  0
  188.6270  174.6000  142.6000 C   0  0  0  0  0  3  0  0  0  0  0  0
  189.0360  172.8910  140.9470 C   0  0  0  0  0  3  0  0  0  0  0  0
  190.3960  173.1980  140.9700 C   0  0  0  0  0  3  0  0  0  0  0  0
  190.8910  174.2150  141.8050 C   0  0  0  0  0  0  0  0  0  0  0  0
  192.9740  174.4340  140.4430 C   0  0  0  0  0  1  0  0  0  0  0  0
  193.0820  173.4830  142.7440 C   0  0  0  0  0  1  0  0  0  0  0  0
  192.3730  174.4710  141.8360 C   0  0  0  0  0  3  0  0  0  0  0  0
  188.8390  175.4010  146.0630 C   0  0  0  0  0  2  0  0  0  0  0  0
  187.8380  176.0630  146.9930 C   0  0  0  0  0  2  0  0  0  0  0  0
  187.6020  177.4360  146.5760 N   0  0  0  0  0  2  0  0  0  0  0  0
  184.8780  178.1300  142.2010 C   0  0  0  0  0  0  0  0  0  0  0  0
  186.7240  177.5240  143.6740 C   0  0  0  0  0  3  0  0  0  0  0  0
  183.9860  178.7960  145.7500 C   0  0  0  0  0  3  0  0  0  0  0  0
  185.0610  178.4800  147.0180 S   0  0  0  0  0  0  0  0  0  0  0  0
  184.2170  178.2520  140.5850 Cl  0  0  0  0  0  0  0  0  0  0  0  0
  186.3350  177.8880  146.0910 C   0  0  0  0  0  0  0  0  0  0  0  0
  186.1780  177.6290  142.3870 C   0  0  0  0  0  3  0  0  0  0  0  0
  184.6500  178.4290  144.5810 C   0  0  0  0  0  0  0  0  0  0  0  0
  185.9500  177.9270  144.7650 C   0  0  0  0  0  0  0  0  0  0  0  0
  184.1070  178.5330  143.3010 C   0  0  0  0  0  3  0  0  0  0  0  0
  1  4  1  6  0  0  0
  1  3  1  0  0  0  0
  2  8  1  6  0  0  0
  2  5  1  0  0  0  0
  2  6  1  0  0  0  0
  5  1  1  0  0  0  0
  6 19  1  1  0  0  0
  6  7  1  0  0  0  0
  7  3  1  0  0  0  0
  9  8  2  0  0  0  0
 10  8  1  0  0  0  0
 11 12  2  0  0  0  0
 12 10  1  0  0  0  0
 13 14  2  0  0  0  0
 13 11  1  0  0  0  0
 14 15  1  0  0  0  0
 15 18  1  0  0  0  0
 15 10  2  0  0  0  0
 16 18  1  0  0  0  0
 18 17  1  0  0  0  0
 19 20  1  0  0  0  0
 21 20  1  0  0  0  0
 22 28  1  0  0  0  0
 22 31  2  0  0  0  0
 23 30  1  0  0  0  0
 24 25  1  0  0  0  0
 26 22  1  0  0  0  0
 27 21  1  0  0  0  0
 27 25  1  0  0  0  0
 28 23  2  0  0  0  0
 29 30  1  0  0  0  0
 29 24  2  0  0  0  0
 30 27  2  0  0  0  0
 31 29  1  0  0  0  0
M  END
>  <MODEL>
2

>  <REMARK>
 VINA RESULT:      -6.5      3.254      6.257
  Name = 
  7 active torsions:
  status: ('A' for Active; 'I' for Inactive)
    1  A    between atoms: C_4  and  C_5
    2  A    between atoms: C_4  and  C_12
    3  A    between atoms: C_9  and  N_23
    4  A    between atoms: C_15  and  C_20
    5  A    between atoms: C_15  and  N_23
    6  A    between atoms: C_20  and  C_27
    7  A    between atoms: C_30  and  C_31
                            x       y       z     vdW  Elec       q    Type
                         _______ _______ _______ _____ _____    ______ ____

>  <TORSDO>
F 7

$$$$
=
 OpenBabel11052417513D

 31 34  0  0  1  0  0  0  0  0999 V2000
  188.6680  174.3030  142.4990 C   0  0  2  0  0  3  0  0  0  0  0  0
  188.5660  175.6960  144.5910 C   0  0  1  0  0  3  0  0  0  0  0  0
  189.9310  173.6290  143.0180 C   0  0  0  0  0  2  0  0  0  0  0  0
  188.7110  174.3630  140.9880 C   0  0  0  0  0  1  0  0  0  0  0  0
  188.5660  175.7160  143.0600 C   0  0  0  0  0  2  0  0  0  0  0  0
  189.7900  174.9420  145.1530 C   0  0  2  0  0  3  0  0  0  0  0  0
  189.8840  173.5480  144.5380 C   0  0  0  0  0  2  0  0  0  0  0  0
  188.4390  177.0960  145.1280 C   0  0  0  0  0  0  0  0  0  0  0  0
  189.4080  177.8790  144.9420 O   0  0  0  0  0  0  0  0  0  0  0  0
  187.2340  177.5570  145.8770 C   0  0  0  0  0  0  0  0  0  0  0  0
  186.0750  177.7500  148.0150 C   0  0  0  0  0  3  0  0  0  0  0  0
  187.1760  177.3400  147.2640 C   0  0  0  0  0  3  0  0  0  0  0  0
  185.0040  178.3830  147.3900 C   0  0  0  0  0  3  0  0  0  0  0  0
  185.0330  178.6030  146.0130 C   0  0  0  0  0  3  0  0  0  0  0  0
  186.1370  178.1990  145.2420 C   0  0  0  0  0  0  0  0  0  0  0  0
  185.5870  179.7920  143.3990 C   0  0  0  0  0  1  0  0  0  0  0  0
  185.2580  177.3440  143.0720 C   0  0  0  0  0  1  0  0  0  0  0  0
  186.0980  178.4080  143.7540 C   0  0  0  0  0  3  0  0  0  0  0  0
  189.6930  174.7870  146.6620 C   0  0  0  0  0  2  0  0  0  0  0  0
  190.7390  175.6520  147.3450 C   0  0  0  0  0  2  0  0  0  0  0  0
  192.0110  174.9500  147.3960 N   0  0  0  0  0  2  0  0  0  0  0  0
  195.1170  172.9440  143.7400 C   0  0  0  0  0  0  0  0  0  0  0  0
  193.3370  173.0910  145.4000 C   0  0  0  0  0  3  0  0  0  0  0  0
  195.0350  176.3340  145.2660 C   0  0  0  0  0  3  0  0  0  0  0  0
  193.9090  176.7540  146.4580 S   0  0  0  0  0  0  0  0  0  0  0  0
  195.9940  172.0070  142.5500 Cl  0  0  0  0  0  0  0  0  0  0  0  0
  193.1080  175.2760  146.5390 C   0  0  0  0  0  0  0  0  0  0  0  0
  194.0520  172.3550  144.4440 C   0  0  0  0  0  3  0  0  0  0  0  0
  194.7700  175.0070  144.9340 C   0  0  0  0  0  0  0  0  0  0  0  0
  193.7050  174.4170  145.6370 C   0  0  0  0  0  0  0  0  0  0  0  0
  195.4810  174.2770  143.9830 C   0  0  0  0  0  3  0  0  0  0  0  0
  1  4  1  6  0  0  0
  1  3  1  0  0  0  0
  1  5  1  0  0  0  0
  2  8  1  1  0  0  0
  2  6  1  0  0  0  0
  3  7  1  0  0  0  0
  5  2  1  0  0  0  0
  6 19  1  1  0  0  0
  7  6  1  0  0  0  0
  8 10  1  0  0  0  0
  9  8  2  0  0  0  0
 10 12  1  0  0  0  0
 12 11  2  0  0  0  0
 13 11  1  0  0  0  0
 14 13  2  0  0  0  0
 15 10  2  0  0  0  0
 15 14  1  0  0  0  0
 16 18  1  0  0  0  0
 17 18  1  0  0  0  0
 18 15  1  0  0  0  0
 19 20  1  0  0  0  0
 20 21  1  0  0  0  0
 22 31  2  0  0  0  0
 22 28  1  0  0  0  0
 23 30  1  0  0  0  0
 24 25  1  0  0  0  0
 25 27  1  0  0  0  0
 26 22  1  0  0  0  0
 27 21  1  0  0  0  0
 28 23  2  0  0  0  0
 29 24  2  0  0  0  0
 29 30  1  0  0  0  0
 30 27  2  0  0  0  0
 31 29  1  0  0  0  0
M  END
>  <MODEL>
3

>  <REMARK>
 VINA RESULT:      -6.4      2.772      6.381
  Name = 
  7 active torsions:
  status: ('A' for Active; 'I' for Inactive)
    1  A    between atoms: C_4  and  C_5
    2  A    between atoms: C_4  and  C_12
    3  A    between atoms: C_9  and  N_23
    4  A    between atoms: C_15  and  C_20
    5  A    between atoms: C_15  and  N_23
    6  A    between atoms: C_20  and  C_27
    7  A    between atoms: C_30  and  C_31
                            x       y       z     vdW  Elec       q    Type
                         _______ _______ _______ _____ _____    ______ ____

>  <TORSDO>
F 7

$$$$
=
 OpenBabel11052417513D

 31 34  0  0  1  0  0  0  0  0999 V2000
  185.3170  178.5320  145.9220 C   0  0  2  0  0  3  0  0  0  0  0  0
  187.4080  177.7930  144.7360 C   0  0  1  0  0  3  0  0  0  0  0  0
  185.3580  177.2680  146.7700 C   0  0  0  0  0  2  0  0  0  0  0  0
  183.8790  178.9590  145.7200 C   0  0  0  0  0  1  0  0  0  0  0  0
  185.9630  178.2710  144.5670 C   0  0  0  0  0  2  0  0  0  0  0  0
  187.4980  176.5620  145.6630 C   0  0  2  0  0  3  0  0  0  0  0  0
  186.8040  176.8450  146.9930 C   0  0  0  0  0  2  0  0  0  0  0  0
  188.0390  177.5640  143.3890 C   0  0  0  0  0  0  0  0  0  0  0  0
  187.2970  177.6640  142.3770 O   0  0  0  0  0  0  0  0  0  0  0  0
  189.4790  177.2080  143.2330 C   0  0  0  0  0  0  0  0  0  0  0  0
  191.8090  177.9240  143.3210 C   0  0  0  0  0  3  0  0  0  0  0  0
  190.4490  178.2000  143.4530 C   0  0  0  0  0  3  0  0  0  0  0  0
  192.2270  176.6460  142.9600 C   0  0  0  0  0  3  0  0  0  0  0  0
  191.2840  175.6450  142.7270 C   0  0  0  0  0  3  0  0  0  0  0  0
  189.9090  175.9060  142.8590 C   0  0  0  0  0  0  0  0  0  0  0  0
  189.3650  173.4840  143.1390 C   0  0  0  0  0  1  0  0  0  0  0  0
  188.7220  174.6740  141.0450 C   0  0  0  0  0  1  0  0  0  0  0  0
  188.9290  174.8100  142.5430 C   0  0  0  0  0  3  0  0  0  0  0  0
  188.9450  176.2000  145.9530 C   0  0  0  0  0  2  0  0  0  0  0  0
  189.0170  174.8540  146.6540 C   0  0  0  0  0  2  0  0  0  0  0  0
  190.1540  174.8240  147.5610 N   0  0  0  0  0  2  0  0  0  0  0  0
  194.5150  174.2650  144.7850 C   0  0  0  0  0  0  0  0  0  0  0  0
  192.3100  173.7770  145.7020 C   0  0  0  0  0  3  0  0  0  0  0  0
  193.4290  176.9790  147.0830 C   0  0  0  0  0  3  0  0  0  0  0  0
  191.9380  176.9340  147.8830 S   0  0  0  0  0  0  0  0  0  0  0  0
  195.8550  173.8070  143.7560 Cl  0  0  0  0  0  0  0  0  0  0  0  0
  191.3960  175.4660  147.2620 C   0  0  0  0  0  0  0  0  0  0  0  0
  193.3920  173.4250  144.8830 C   0  0  0  0  0  3  0  0  0  0  0  0
  193.4940  175.8160  146.3200 C   0  0  0  0  0  0  0  0  0  0  0  0
  192.3710  174.9750  146.4160 C   0  0  0  0  0  0  0  0  0  0  0  0
  194.5700  175.4680  145.5050 C   0  0  0  0  0  3  0  0  0  0  0  0
  1  4  1  6  0  0  0
  1  3  1  0  0  0  0
  2  8  1  6  0  0  0
  2  6  1  0  0  0  0
  3  7  1  0  0  0  0
  5  2  1  0  0  0  0
  5  1  1  0  0  0  0
  6 19  1  1  0  0  0
  6  7  1  0  0  0  0
  9  8  2  0  0  0  0
 10  8  1  0  0  0  0
 10 12  1  0  0  0  0
 11 12  2  0  0  0  0
 13 11  1  0  0  0  0
 14 15  1  0  0  0  0
 14 13  2  0  0  0  0
 15 10  2  0  0  0  0
 17 18  1  0  0  0  0
 18 15  1  0  0  0  0
 18 16  1  0  0  0  0
 19 20  1  0  0  0  0
 20 21  1  0  0  0  0
 22 28  1  0  0  0  0
 22 31  2  0  0  0  0
 23 30  1  0  0  0  0
 24 25  1  0  0  0  0
 26 22  1  0  0  0  0
 27 21  1  0  0  0  0
 27 25  1  0  0  0  0
 28 23  2  0  0  0  0
 29 30  1  0  0  0  0
 29 24  2  0  0  0  0
 30 27  2  0  0  0  0
 31 29  1  0  0  0  0
M  END
>  <MODEL>
4

>  <REMARK>
 VINA RESULT:      -6.4      2.663      4.788
  Name = 
  7 active torsions:
  status: ('A' for Active; 'I' for Inactive)
    1  A    between atoms: C_4  and  C_5
    2  A    between atoms: C_4  and  C_12
    3  A    between atoms: C_9  and  N_23
    4  A    between atoms: C_15  and  C_20
    5  A    between atoms: C_15  and  N_23
    6  A    between atoms: C_20  and  C_27
    7  A    between atoms: C_30  and  C_31
                            x       y       z     vdW  Elec       q    Type
                         _______ _______ _______ _____ _____    ______ ____

>  <TORSDO>
F 7

$$$$
=
 OpenBabel11052417513D

 31 34  0  0  1  0  0  0  0  0999 V2000
  192.0160  171.3500  141.7040 C   0  0  2  0  0  3  0  0  0  0  0  0
  191.4110  173.3880  143.0480 C   0  0  1  0  0  3  0  0  0  0  0  0
  190.7230  170.6810  142.1500 C   0  0  0  0  0  2  0  0  0  0  0  0
  193.0810  170.2980  141.4870 C   0  0  0  0  0  1  0  0  0  0  0  0
  192.4850  172.3340  142.7700 C   0  0  0  0  0  2  0  0  0  0  0  0
  190.0590  172.7430  143.4180 C   0  0  2  0  0  3  0  0  0  0  0  0
  189.6410  171.7340  142.3510 C   0  0  0  0  0  2  0  0  0  0  0  0
  191.9000  174.3660  144.0830 C   0  0  0  0  0  0  0  0  0  0  0  0
  192.9020  174.0310  144.7690 O   0  0  0  0  0  0  0  0  0  0  0  0
  191.2290  175.6760  144.3240 C   0  0  0  0  0  0  0  0  0  0  0  0
  190.6280  177.8810  143.4710 C   0  0  0  0  0  3  0  0  0  0  0  0
  191.2400  176.6400  143.3010 C   0  0  0  0  0  3  0  0  0  0  0  0
  189.9950  178.1860  144.6730 C   0  0  0  0  0  3  0  0  0  0  0  0
  189.9780  177.2500  145.7070 C   0  0  0  0  0  3  0  0  0  0  0  0
  190.5870  175.9930  145.5510 C   0  0  0  0  0  0  0  0  0  0  0  0
  189.1790  174.7130  147.1700 C   0  0  0  0  0  1  0  0  0  0  0  0
  191.4060  175.5860  147.8710 C   0  0  0  0  0  1  0  0  0  0  0  0
  190.5890  175.0390  146.7140 C   0  0  0  0  0  3  0  0  0  0  0  0
  188.9640  173.7910  143.5310 C   0  0  0  0  0  2  0  0  0  0  0  0
  188.5960  174.3140  142.1530 C   0  0  0  0  0  2  0  0  0  0  0  0
  187.2520  174.8690  142.1720 N   0  0  0  0  0  2  0  0  0  0  0  0
  186.0870  178.3020  145.9010 C   0  0  0  0  0  0  0  0  0  0  0  0
  186.6140  176.1730  144.8360 C   0  0  0  0  0  3  0  0  0  0  0  0
  186.5960  178.7630  142.2460 C   0  0  0  0  0  3  0  0  0  0  0  0
  186.9750  177.4690  141.2230 S   0  0  0  0  0  0  0  0  0  0  0  0
  185.7040  179.2090  147.3470 Cl  0  0  0  0  0  0  0  0  0  0  0  0
  186.9930  176.2580  142.3920 C   0  0  0  0  0  0  0  0  0  0  0  0
  186.3050  176.9150  145.9840 C   0  0  0  0  0  3  0  0  0  0  0  0
  186.4820  178.2240  143.5250 C   0  0  0  0  0  0  0  0  0  0  0  0
  186.7000  176.8380  143.6110 C   0  0  0  0  0  0  0  0  0  0  0  0
  186.1750  178.9630  144.6670 C   0  0  0  0  0  3  0  0  0  0  0  0
  1  4  1  1  0  0  0
  1  3  1  0  0  0  0
  1  5  1  0  0  0  0
  2  6  1  0  0  0  0
  2  8  1  1  0  0  0
  3  7  1  0  0  0  0
  5  2  1  0  0  0  0
  6 19  1  6  0  0  0
  7  6  1  0  0  0  0
  8 10  1  0  0  0  0
  8  9  2  0  0  0  0
 10 15  1  0  0  0  0
 11 13  2  0  0  0  0
 12 11  1  0  0  0  0
 12 10  2  0  0  0  0
 13 14  1  0  0  0  0
 15 14  2  0  0  0  0
 15 18  1  0  0  0  0
 18 16  1  0  0  0  0
 18 17  1  0  0  0  0
 20 21  1  0  0  0  0
 20 19  1  0  0  0  0
 21 27  1  0  0  0  0
 22 28  1  0  0  0  0
 22 26  1  0  0  0  0
 23 28  2  0  0  0  0
 24 29  2  0  0  0  0
 25 24  1  0  0  0  0
 25 27  1  0  0  0  0
 27 30  2  0  0  0  0
 29 30  1  0  0  0  0
 29 31  1  0  0  0  0
 30 23  1  0  0  0  0
 31 22  2  0  0  0  0
M  END
>  <MODEL>
5

>  <REMARK>
 VINA RESULT:      -6.3      2.749      5.891
  Name = 
  7 active torsions:
  status: ('A' for Active; 'I' for Inactive)
    1  A    between atoms: C_4  and  C_5
    2  A    between atoms: C_4  and  C_12
    3  A    between atoms: C_9  and  N_23
    4  A    between atoms: C_15  and  C_20
    5  A    between atoms: C_15  and  N_23
    6  A    between atoms: C_20  and  C_27
    7  A    between atoms: C_30  and  C_31
                            x       y       z     vdW  Elec       q    Type
                         _______ _______ _______ _____ _____    ______ ____

>  <TORSDO>
F 7

$$$$
=
 OpenBabel11052417513D

 31 34  0  0  1  0  0  0  0  0999 V2000
  190.4840  172.9520  142.2220 C   0  0  2  0  0  3  0  0  0  0  0  0
  190.6610  175.4380  142.5620 C   0  0  1  0  0  3  0  0  0  0  0  0
  188.9660  173.0660  142.2260 C   0  0  0  0  0  2  0  0  0  0  0  0
  190.8920  171.6070  142.7820 C   0  0  0  0  0  1  0  0  0  0  0  0
  191.0910  174.0610  143.0740 C   0  0  0  0  0  2  0  0  0  0  0  0
  189.1260  175.5600  142.4690 C   0  0  2  0  0  3  0  0  0  0  0  0
  188.5490  174.4110  141.6440 C   0  0  0  0  0  2  0  0  0  0  0  0
  191.2890  176.5210  143.3980 C   0  0  0  0  0  0  0  0  0  0  0  0
  191.9810  177.3870  142.8010 O   0  0  0  0  0  0  0  0  0  0  0  0
  191.1340  176.5750  144.8810 C   0  0  0  0  0  0  0  0  0  0  0  0
  189.7520  177.1890  146.7960 C   0  0  0  0  0  3  0  0  0  0  0  0
  189.9510  177.1130  145.4170 C   0  0  0  0  0  3  0  0  0  0  0  0
  190.7370  176.7320  147.6670 C   0  0  0  0  0  3  0  0  0  0  0  0
  191.9230  176.2020  147.1600 C   0  0  0  0  0  3  0  0  0  0  0  0
  192.1380  176.1150  145.7730 C   0  0  0  0  0  0  0  0  0  0  0  0
  193.7140  174.1760  145.7710 C   0  0  0  0  0  1  0  0  0  0  0  0
  194.5990  176.5040  145.6720 C   0  0  0  0  0  1  0  0  0  0  0  0
  193.4560  175.5880  145.2760 C   0  0  0  0  0  3  0  0  0  0  0  0
  188.7180  176.8660  141.8070 C   0  0  0  0  0  2  0  0  0  0  0  0
  187.4400  176.6730  141.0100 C   0  0  0  0  0  2  0  0  0  0  0  0
  186.6870  177.9170  140.9650 N   0  0  0  0  0  2  0  0  0  0  0  0
  185.2000  178.6110  145.8990 C   0  0  0  0  0  0  0  0  0  0  0  0
  186.6570  178.2360  143.9810 C   0  0  0  0  0  3  0  0  0  0  0  0
  183.2190  178.5350  142.7520 C   0  0  0  0  0  3  0  0  0  0  0  0
  183.9450  178.2900  141.2420 S   0  0  0  0  0  0  0  0  0  0  0  0
  185.0040  178.8120  147.6260 Cl  0  0  0  0  0  0  0  0  0  0  0  0
  185.5340  178.1510  141.7770 C   0  0  0  0  0  0  0  0  0  0  0  0
  186.4810  178.3980  145.3630 C   0  0  0  0  0  3  0  0  0  0  0  0
  184.2530  178.5030  143.6860 C   0  0  0  0  0  0  0  0  0  0  0  0
  185.5350  178.2900  143.1520 C   0  0  0  0  0  0  0  0  0  0  0  0
  184.0770  178.6650  145.0590 C   0  0  0  0  0  3  0  0  0  0  0  0
  1  3  1  0  0  0  0
  1  4  1  1  0  0  0
  1  5  1  0  0  0  0
  2  5  1  0  0  0  0
  2  8  1  1  0  0  0
  6 19  1  6  0  0  0
  6  2  1  0  0  0  0
  7  3  1  0  0  0  0
  7  6  1  0  0  0  0
  8 10  1  0  0  0  0
  9  8  2  0  0  0  0
 10 12  2  0  0  0  0
 10 15  1  0  0  0  0
 11 13  2  0  0  0  0
 12 11  1  0  0  0  0
 14 13  1  0  0  0  0
 15 14  2  0  0  0  0
 18 17  1  0  0  0  0
 18 16  1  0  0  0  0
 18 15  1  0  0  0  0
 20 19  1  0  0  0  0
 21 20  1  0  0  0  0
 21 27  1  0  0  0  0
 22 26  1  0  0  0  0
 23 28  2  0  0  0  0
 24 29  2  0  0  0  0
 25 27  1  0  0  0  0
 25 24  1  0  0  0  0
 27 30  2  0  0  0  0
 28 22  1  0  0  0  0
 29 31  1  0  0  0  0
 30 29  1  0  0  0  0
 30 23  1  0  0  0  0
 31 22  2  0  0  0  0
M  END
>  <MODEL>
6

>  <REMARK>
 VINA RESULT:      -6.3      2.929      5.788
  Name = 
  7 active torsions:
  status: ('A' for Active; 'I' for Inactive)
    1  A    between atoms: C_4  and  C_5
    2  A    between atoms: C_4  and  C_12
    3  A    between atoms: C_9  and  N_23
    4  A    between atoms: C_15  and  C_20
    5  A    between atoms: C_15  and  N_23
    6  A    between atoms: C_20  and  C_27
    7  A    between atoms: C_30  and  C_31
                            x       y       z     vdW  Elec       q    Type
                         _______ _______ _______ _____ _____    ______ ____

>  <TORSDO>
F 7

$$$$
=
 OpenBabel11052417513D

 31 34  0  0  1  0  0  0  0  0999 V2000
  188.5710  173.8100  142.8220 C   0  0  2  0  0  3  0  0  0  0  0  0
  188.5690  175.7760  144.3920 C   0  0  1  0  0  3  0  0  0  0  0  0
  189.8340  173.2850  143.4910 C   0  0  0  0  0  2  0  0  0  0  0  0
  188.5660  173.4070  141.3640 C   0  0  0  0  0  1  0  0  0  0  0  0
  188.5200  175.3300  142.9280 C   0  0  0  0  0  2  0  0  0  0  0  0
  189.7930  175.1890  145.1270 C   0  0  2  0  0  3  0  0  0  0  0  0
  189.8340  173.6710  144.9650 C   0  0  0  0  0  2  0  0  0  0  0  0
  188.4930  177.2760  144.4800 C   0  0  0  0  0  0  0  0  0  0  0  0
  189.5770  177.9070  144.5880 O   0  0  0  0  0  0  0  0  0  0  0  0
  187.1950  178.0110  144.4670 C   0  0  0  0  0  0  0  0  0  0  0  0
  185.4860  179.1690  143.1670 C   0  0  0  0  0  3  0  0  0  0  0  0
  186.6940  178.4760  143.2390 C   0  0  0  0  0  3  0  0  0  0  0  0
  184.7560  179.4160  144.3260 C   0  0  0  0  0  3  0  0  0  0  0  0
  185.2360  178.9730  145.5590 C   0  0  0  0  0  3  0  0  0  0  0  0
  186.4500  178.2700  145.6480 C   0  0  0  0  0  0  0  0  0  0  0  0
  186.3080  176.5710  147.4740 C   0  0  0  0  0  1  0  0  0  0  0  0
  186.7340  178.9640  148.0270 C   0  0  0  0  0  1  0  0  0  0  0  0
  186.9530  177.8620  147.0050 C   0  0  0  0  0  3  0  0  0  0  0  0
  189.7410  175.5030  146.6140 C   0  0  0  0  0  2  0  0  0  0  0  0
  191.1450  175.7150  147.1530 C   0  0  0  0  0  2  0  0  0  0  0  0
  191.9100  176.5490  146.2390 N   0  0  0  0  0  2  0  0  0  0  0  0
  194.0010  175.2420  141.6610 C   0  0  0  0  0  0  0  0  0  0  0  0
  192.3430  175.9730  143.2930 C   0  0  0  0  0  3  0  0  0  0  0  0
  195.4860  175.3470  145.0690 C   0  0  0  0  0  3  0  0  0  0  0  0
  194.5870  175.8150  146.4250 S   0  0  0  0  0  0  0  0  0  0  0  0
  194.4190  174.8640  140.0050 Cl  0  0  0  0  0  0  0  0  0  0  0  0
  193.1300  176.1140  145.6350 C   0  0  0  0  0  0  0  0  0  0  0  0
  192.6960  175.6650  141.9720 C   0  0  0  0  0  3  0  0  0  0  0  0
  194.6170  175.4280  143.9830 C   0  0  0  0  0  0  0  0  0  0  0  0
  193.3120  175.8510  144.2910 C   0  0  0  0  0  0  0  0  0  0  0  0
  194.9690  175.1220  142.6690 C   0  0  0  0  0  3  0  0  0  0  0  0
  1  4  1  6  0  0  0
  1  5  1  0  0  0  0
  1  3  1  0  0  0  0
  2  8  1  6  0  0  0
  2  6  1  0  0  0  0
  3  7  1  0  0  0  0
  5  2  1  0  0  0  0
  6 19  1  1  0  0  0
  7  6  1  0  0  0  0
  8  9  2  0  0  0  0
 10  8  1  0  0  0  0
 10 15  1  0  0  0  0
 11 12  1  0  0  0  0
 11 13  2  0  0  0  0
 12 10  2  0  0  0  0
 13 14  1  0  0  0  0
 14 15  2  0  0  0  0
 15 18  1  0  0  0  0
 18 16  1  0  0  0  0
 18 17  1  0  0  0  0
 19 20  1  0  0  0  0
 21 20  1  0  0  0  0
 22 28  1  0  0  0  0
 22 31  2  0  0  0  0
 23 30  1  0  0  0  0
 24 25  1  0  0  0  0
 26 22  1  0  0  0  0
 27 21  1  0  0  0  0
 27 25  1  0  0  0  0
 28 23  2  0  0  0  0
 29 30  1  0  0  0  0
 29 24  2  0  0  0  0
 30 27  2  0  0  0  0
 31 29  1  0  0  0  0
M  END
>  <MODEL>
7

>  <REMARK>
 VINA RESULT:      -6.2      2.660      6.121
  Name = 
  7 active torsions:
  status: ('A' for Active; 'I' for Inactive)
    1  A    between atoms: C_4  and  C_5
    2  A    between atoms: C_4  and  C_12
    3  A    between atoms: C_9  and  N_23
    4  A    between atoms: C_15  and  C_20
    5  A    between atoms: C_15  and  N_23
    6  A    between atoms: C_20  and  C_27
    7  A    between atoms: C_30  and  C_31
                            x       y       z     vdW  Elec       q    Type
                         _______ _______ _______ _____ _____    ______ ____

>  <TORSDO>
F 7

$$$$
=
 OpenBabel11052417513D

 31 34  0  0  1  0  0  0  0  0999 V2000
  193.9910  175.8160  144.8510 C   0  0  2  0  0  3  0  0  0  0  0  0
  191.4910  175.7060  144.6070 C   0  0  1  0  0  3  0  0  0  0  0  0
  193.8230  176.3740  146.2570 C   0  0  0  0  0  2  0  0  0  0  0  0
  195.2590  176.3680  144.2360 C   0  0  0  0  0  1  0  0  0  0  0  0
  192.7970  176.2100  143.9890 C   0  0  0  0  0  2  0  0  0  0  0  0
  191.3270  176.1810  146.0660 C   0  0  2  0  0  3  0  0  0  0  0  0
  192.5580  175.8060  146.8880 C   0  0  0  0  0  2  0  0  0  0  0  0
  190.3250  176.0810  143.7320 C   0  0  0  0  0  0  0  0  0  0  0  0
  189.8940  177.2610  143.8150 O   0  0  0  0  0  0  0  0  0  0  0  0
  189.6720  175.1060  142.8110 C   0  0  0  0  0  0  0  0  0  0  0  0
  188.2440  174.7310  140.8690 C   0  0  0  0  0  3  0  0  0  0  0  0
  188.8780  175.5960  141.7600 C   0  0  0  0  0  3  0  0  0  0  0  0
  188.3880  173.3540  141.0150 C   0  0  0  0  0  3  0  0  0  0  0  0
  189.1640  172.8420  142.0540 C   0  0  0  0  0  3  0  0  0  0  0  0
  189.8130  173.7000  142.9590 C   0  0  0  0  0  0  0  0  0  0  0  0
  191.7410  172.2450  143.5950 C   0  0  0  0  0  1  0  0  0  0  0  0
  189.6910  172.2910  145.0130 C   0  0  0  0  0  1  0  0  0  0  0  0
  190.5920  173.1000  144.0970 C   0  0  0  0  0  3  0  0  0  0  0  0
  190.1120  175.5410  146.7180 C   0  0  0  0  0  2  0  0  0  0  0  0
  189.1420  176.6140  147.1820 C   0  0  0  0  0  2  0  0  0  0  0  0
  187.7770  176.2230  146.8630 N   0  0  0  0  0  2  0  0  0  0  0  0
  184.7310  177.9320  143.0120 C   0  0  0  0  0  0  0  0  0  0  0  0
  186.4140  176.6140  144.1820 C   0  0  0  0  0  3  0  0  0  0  0  0
  184.9990  179.0140  146.5600 C   0  0  0  0  0  3  0  0  0  0  0  0
  186.0840  178.2900  147.6380 S   0  0  0  0  0  0  0  0  0  0  0  0
  183.8510  178.2910  141.5420 Cl  0  0  0  0  0  0  0  0  0  0  0  0
  186.7510  177.1740  146.5690 C   0  0  0  0  0  0  0  0  0  0  0  0
  185.7010  176.9150  143.0130 C   0  0  0  0  0  3  0  0  0  0  0  0
  185.1730  178.3620  145.3410 C   0  0  0  0  0  0  0  0  0  0  0  0
  186.1420  177.3440  145.3410 C   0  0  0  0  0  0  0  0  0  0  0  0
  184.4620  178.6620  144.1790 C   0  0  0  0  0  3  0  0  0  0  0  0
  1  4  1  6  0  0  0
  1  3  1  0  0  0  0
  2  8  1  6  0  0  0
  2  6  1  0  0  0  0
  3  7  1  0  0  0  0
  5  2  1  0  0  0  0
  5  1  1  0  0  0  0
  6 19  1  1  0  0  0
  6  7  1  0  0  0  0
  8  9  2  0  0  0  0
 10 15  1  0  0  0  0
 10  8  1  0  0  0  0
 11 13  2  0  0  0  0
 11 12  1  0  0  0  0
 12 10  2  0  0  0  0
 13 14  1  0  0  0  0
 14 15  2  0  0  0  0
 15 18  1  0  0  0  0
 16 18  1  0  0  0  0
 18 17  1  0  0  0  0
 19 20  1  0  0  0  0
 21 20  1  0  0  0  0
 22 28  1  0  0  0  0
 22 31  2  0  0  0  0
 23 30  1  0  0  0  0
 24 25  1  0  0  0  0
 26 22  1  0  0  0  0
 27 21  1  0  0  0  0
 27 25  1  0  0  0  0
 28 23  2  0  0  0  0
 29 30  1  0  0  0  0
 29 24  2  0  0  0  0
 30 27  2  0  0  0  0
 31 29  1  0  0  0  0
M  END
>  <MODEL>
8

>  <REMARK>
 VINA RESULT:      -6.1      3.175      6.405
  Name = 
  7 active torsions:
  status: ('A' for Active; 'I' for Inactive)
    1  A    between atoms: C_4  and  C_5
    2  A    between atoms: C_4  and  C_12
    3  A    between atoms: C_9  and  N_23
    4  A    between atoms: C_15  and  C_20
    5  A    between atoms: C_15  and  N_23
    6  A    between atoms: C_20  and  C_27
    7  A    between atoms: C_30  and  C_31
                            x       y       z     vdW  Elec       q    Type
                         _______ _______ _______ _____ _____    ______ ____

>  <TORSDO>
F 7

$$$$
=
 OpenBabel11052417513D

 31 34  0  0  1  0  0  0  0  0999 V2000
  191.0030  172.9900  140.2150 C   0  0  2  0  0  3  0  0  0  0  0  0
  189.9210  173.7800  142.3430 C   0  0  1  0  0  3  0  0  0  0  0  0
  189.6510  173.0390  139.5160 C   0  0  0  0  0  2  0  0  0  0  0  0
  191.8490  171.8940  139.6040 C   0  0  0  0  0  1  0  0  0  0  0  0
  190.8110  172.7130  141.7010 C   0  0  0  0  0  2  0  0  0  0  0  0
  188.5730  173.9200  141.6050 C   0  0  2  0  0  3  0  0  0  0  0  0
  188.8040  174.1550  140.1150 C   0  0  0  0  0  2  0  0  0  0  0  0
  189.7620  173.5060  143.8140 C   0  0  0  0  0  0  0  0  0  0  0  0
  189.3150  172.3770  144.1490 O   0  0  0  0  0  0  0  0  0  0  0  0
  190.0890  174.5220  144.8560 C   0  0  0  0  0  0  0  0  0  0  0  0
  189.9630  175.2020  147.1960 C   0  0  0  0  0  3  0  0  0  0  0  0
  189.6850  174.2860  146.1810 C   0  0  0  0  0  3  0  0  0  0  0  0
  190.6490  176.3770  146.9020 C   0  0  0  0  0  3  0  0  0  0  0  0
  191.0530  176.6400  145.5940 C   0  0  0  0  0  3  0  0  0  0  0  0
  190.7830  175.7260  144.5600 C   0  0  0  0  0  0  0  0  0  0  0  0
  192.6920  175.9810  142.9690 C   0  0  0  0  0  1  0  0  0  0  0  0
  190.6980  177.4630  142.7730 C   0  0  0  0  0  1  0  0  0  0  0  0
  191.1890  176.0790  143.1560 C   0  0  0  0  0  3  0  0  0  0  0  0
  187.7690  175.0900  142.1480 C   0  0  0  0  0  2  0  0  0  0  0  0
  187.5500  176.1250  141.0580 C   0  0  0  0  0  2  0  0  0  0  0  0
  187.4250  177.4500  141.6460 N   0  0  0  0  0  2  0  0  0  0  0  0
  186.0950  177.9630  146.6460 C   0  0  0  0  0  0  0  0  0  0  0  0
  187.4570  177.5000  144.6780 C   0  0  0  0  0  3  0  0  0  0  0  0
  184.1310  178.5290  143.5400 C   0  0  0  0  0  3  0  0  0  0  0  0
  184.7970  178.2910  142.0020 S   0  0  0  0  0  0  0  0  0  0  0  0
  185.9410  178.0410  148.3880 Cl  0  0  0  0  0  0  0  0  0  0  0  0
  186.3350  177.8170  142.4960 C   0  0  0  0  0  0  0  0  0  0  0  0
  187.3160  177.5680  146.0710 C   0  0  0  0  0  3  0  0  0  0  0  0
  185.1420  178.2260  144.4490 C   0  0  0  0  0  0  0  0  0  0  0  0
  186.3630  177.8320  143.8760 C   0  0  0  0  0  0  0  0  0  0  0  0
  185.0000  178.2950  145.8350 C   0  0  0  0  0  3  0  0  0  0  0  0
  1  4  1  6  0  0  0
  1  5  1  0  0  0  0
  2  8  1  1  0  0  0
  3  7  1  0  0  0  0
  3  1  1  0  0  0  0
  5  2  1  0  0  0  0
  6 19  1  1  0  0  0
  6  2  1  0  0  0  0
  7  6  1  0  0  0  0
  8  9  2  0  0  0  0
  8 10  1  0  0  0  0
 10 12  1  0  0  0  0
 12 11  2  0  0  0  0
 13 11  1  0  0  0  0
 14 13  2  0  0  0  0
 15 10  2  0  0  0  0
 15 14  1  0  0  0  0
 16 18  1  0  0  0  0
 17 18  1  0  0  0  0
 18 15  1  0  0  0  0
 20 21  1  0  0  0  0
 20 19  1  0  0  0  0
 21 27  1  0  0  0  0
 22 26  1  0  0  0  0
 23 28  2  0  0  0  0
 24 29  2  0  0  0  0
 25 27  1  0  0  0  0
 25 24  1  0  0  0  0
 27 30  2  0  0  0  0
 28 22  1  0  0  0  0
 29 31  1  0  0  0  0
 30 29  1  0  0  0  0
 30 23  1  0  0  0  0
 31 22  2  0  0  0  0
M  END
>  <MODEL>
9

>  <REMARK>
 VINA RESULT:      -6.1      2.915      6.136
  Name = 
  7 active torsions:
  status: ('A' for Active; 'I' for Inactive)
    1  A    between atoms: C_4  and  C_5
    2  A    between atoms: C_4  and  C_12
    3  A    between atoms: C_9  and  N_23
    4  A    between atoms: C_15  and  C_20
    5  A    between atoms: C_15  and  N_23
    6  A    between atoms: C_20  and  C_27
    7  A    between atoms: C_30  and  C_31
                            x       y       z     vdW  Elec       q    Type
                         _______ _______ _______ _____ _____    ______ ____

>  <TORSDO>
F 7

$$$$
