=
 OpenBabel11052421093D

 43 49  0  0  1  0  0  0  0  0999 V2000
  185.1500  178.2860  147.5740 N   0  0  0  0  0  2  0  0  0  0  0  0
  187.6130  177.1940  142.7010 C   0  0  2  0  0  3  0  0  0  0  0  0
  185.4610  177.7810  144.5460 C   0  0  1  0  0  3  0  0  0  0  0  0
  186.0430  177.1700  147.2990 C   0  0  0  0  0  2  0  0  0  0  0  0
  184.0950  178.2830  146.5710 C   0  0  0  0  0  2  0  0  0  0  0  0
  186.9530  177.8720  144.9740 C   0  0  1  0  0  3  0  0  0  0  0  0
  184.6070  178.8270  145.2450 C   0  0  0  0  0  2  0  0  0  0  0  0
  187.2300  177.6570  146.4760 C   0  0  0  0  0  2  0  0  0  0  0  0
  189.2470  176.8500  144.3440 C   0  0  0  0  0  2  0  0  0  0  0  0
  187.7460  176.8610  144.1520 C   0  0  2  0  0  3  0  0  0  0  0  0
  186.1810  176.9640  142.2430 C   0  0  0  0  0  2  0  0  0  0  0  0
  188.7340  176.3970  142.0710 C   0  0  1  0  0  3  0  0  0  0  0  0
  189.8530  176.5360  143.0390 N   0  0  2  0  0  0  0  0  0  0  0  0
  185.2870  177.9340  143.0240 C   0  0  0  0  0  2  0  0  0  0  0  0
  192.0910  175.7240  143.6000 C   0  0  1  0  0  3  0  0  0  0  0  0
  191.8030  175.3750  142.1550 C   0  0  0  0  0  2  0  0  0  0  0  0
  190.6830  175.3370  143.1750 C   0  0  2  0  0  3  0  0  0  0  0  0
  192.7540  174.5400  144.2830 C   0  0  0  0  0  2  0  0  0  0  0  0
  192.9100  174.7870  145.7870 C   0  0  2  0  0  3  0  0  0  0  0  0
  192.7740  176.2640  146.1860 C   0  0  1  0  0  3  0  0  0  0  0  0
  191.6490  176.5110  147.1890 C   0  0  0  0  0  2  0  0  0  0  0  0
  191.1560  175.2000  147.7720 C   0  0  0  0  0  2  0  0  0  0  0  0
  189.7170  174.9740  147.3580 C   0  0  0  0  0  1  0  0  0  0  0  0
  194.0950  176.7950  146.7220 C   0  0  0  0  0  2  0  0  0  0  0  0
  195.3940  176.9610  144.7380 F   0  0  0  0  0  0  0  0  0  0  0  0
  194.7620  177.7120  145.7120 C   0  0  0  0  0  2  0  0  0  0  0  0
  194.1300  174.2710  146.2310 O   0  0  0  0  0  0  0  0  0  0  0  0
  194.7000  173.6720  145.1040 C   0  0  0  0  0  2  0  0  0  0  0  0
  195.2120  172.3180  145.4560 C   0  0  0  0  0  0  0  0  0  0  0  0
  194.7950  170.0460  146.0680 N   0  0  0  0  0  0  0  0  0  0  0  0
  197.0520  170.8260  145.9420 C   0  0  0  0  0  3  0  0  0  0  0  0
  196.1300  169.8030  146.1820 C   0  0  0  0  0  3  0  0  0  0  0  0
  196.5860  172.0910  145.5770 C   0  0  0  0  0  3  0  0  0  0  0  0
  194.3220  171.2730  145.7170 C   0  0  0  0  0  3  0  0  0  0  0  0
  188.2900  174.9440  141.8150 C   0  0  0  0  0  2  0  0  0  0  0  0
  190.8280  171.6090  140.3670 C   0  0  0  0  0  2  0  0  0  0  0  0
  189.3460  171.7310  138.2650 C   0  0  2  0  0  3  0  0  0  0  0  0
  190.1100  170.8370  139.2580 C   0  0  1  0  0  3  0  0  0  0  0  0
  188.5160  174.5700  140.3840 C   0  0  0  0  0  3  0  0  0  0  0  0
  189.8930  172.6080  141.0420 C   0  0  0  0  0  2  0  0  0  0  0  0
  189.2360  173.5040  140.0220 C   0  0  0  0  0  0  0  0  0  0  0  0
  190.7210  171.1960  137.9190 C   0  0  0  0  0  2  0  0  0  0  0  0
  189.4390  173.2310  138.5610 C   0  0  0  0  0  2  0  0  0  0  0  0
  2 11  1  6  0  0  0
  2 10  1  0  0  0  0
  3 14  1  6  0  0  0
  3  6  1  0  0  0  0
  3  7  1  0  0  0  0
  4  1  1  0  0  0  0
  5  1  1  0  0  0  0
  6  8  1  1  0  0  0
  7  5  1  0  0  0  0
  8  4  1  0  0  0  0
 10  9  1  1  0  0  0
 10  6  1  0  0  0  0
 11 14  1  0  0  0  0
 12 35  1  1  0  0  0
 12  2  1  0  0  0  0
 12 13  1  0  0  0  0
 13 17  1  0  0  0  0
 13  9  1  1  0  0  0
 15 18  1  1  0  0  0
 16 15  1  0  0  0  0
 17 16  1  6  0  0  0
 17 15  1  0  0  0  0
 19 18  1  6  0  0  0
 19 20  1  0  0  0  0
 19 27  1  0  0  0  0
 20 24  1  1  0  0  0
 20 21  1  0  0  0  0
 21 22  1  0  0  0  0
 23 22  1  0  0  0  0
 25 26  1  0  0  0  0
 26 24  1  0  0  0  0
 28 29  1  0  0  0  0
 28 27  1  0  0  0  0
 29 33  2  0  0  0  0
 29 34  1  0  0  0  0
 30 32  1  0  0  0  0
 31 32  2  0  0  0  0
 33 31  1  0  0  0  0
 34 30  2  0  0  0  0
 36 40  1  0  0  0  0
 37 42  1  6  0  0  0
 37 43  1  0  0  0  0
 37 38  1  0  0  0  0
 38 42  1  6  0  0  0
 38 36  1  0  0  0  0
 39 35  1  0  0  0  0
 41 39  2  0  0  0  0
 41 40  1  0  0  0  0
 43 41  1  0  0  0  0
M  END
>  <MODEL>
1

>  <REMARK>
 VINA RESULT:      -7.8      0.000      0.000
  Name = 
  13 active torsions:
  status: ('A' for Active; 'I' for Inactive)
    1  A    between atoms: C_1  and  C_28
    2  A    between atoms: C_1  and  C_34
    3  A    between atoms: C_2  and  C_6
    4  A    between atoms: C_3  and  C_4
    5  A    between atoms: C_3  and  C_12
    6  A    between atoms: C_4  and  C_15
    7  A    between atoms: C_4  and  C_22
    8  A    between atoms: C_6  and  C_22
    9  A    between atoms: C_11  and  C_14
   10  A    between atoms: C_13  and  N_38
   11  A    between atoms: C_14  and  O_41
   12  A    between atoms: C_15  and  C_42
   13  A    between atoms: C_22  and  O_41
                            x       y       z     vdW  Elec       q    Type
                         _______ _______ _______ _____ _____    ______ ____

>  <TORSDO>
F 13

$$$$
=
 OpenBabel11052421093D

 43 49  0  0  1  0  0  0  0  0999 V2000
  185.4490  178.1690  147.7650 N   0  0  0  0  0  2  0  0  0  0  0  0
  187.3780  177.3360  142.6090 C   0  0  2  0  0  3  0  0  0  0  0  0
  185.4290  177.7420  144.7090 C   0  0  1  0  0  3  0  0  0  0  0  0
  186.3750  177.1210  147.3580 C   0  0  0  0  0  2  0  0  0  0  0  0
  184.2840  178.1120  146.8940 C   0  0  0  0  0  2  0  0  0  0  0  0
  186.9520  177.9270  144.9600 C   0  0  1  0  0  3  0  0  0  0  0  0
  184.5970  178.7140  145.5320 C   0  0  0  0  0  2  0  0  0  0  0  0
  187.4210  177.7040  146.4130 C   0  0  0  0  0  2  0  0  0  0  0  0
  189.2160  177.0750  144.0370 C   0  0  0  0  0  2  0  0  0  0  0  0
  187.7050  176.9870  144.0240 C   0  0  2  0  0  3  0  0  0  0  0  0
  185.9200  177.0180  142.3170 C   0  0  0  0  0  2  0  0  0  0  0  0
  188.4660  176.6300  141.8300 C   0  0  1  0  0  3  0  0  0  0  0  0
  189.6810  176.8270  142.6630 N   0  0  2  0  0  0  0  0  0  0  0  0
  185.0640  177.9090  143.2230 C   0  0  0  0  0  2  0  0  0  0  0  0
  191.4330  175.6940  143.9390 C   0  0  1  0  0  3  0  0  0  0  0  0
  192.0300  176.1820  142.6360 C   0  0  0  0  0  2  0  0  0  0  0  0
  190.5980  175.6860  142.6680 C   0  0  2  0  0  3  0  0  0  0  0  0
  191.9270  174.2860  144.2260 C   0  0  0  0  0  2  0  0  0  0  0  0
  192.5130  174.1840  145.6380 C   0  0  2  0  0  3  0  0  0  0  0  0
  192.5290  175.5200  146.3960 C   0  0  1  0  0  3  0  0  0  0  0  0
  191.7310  175.4770  147.6980 C   0  0  0  0  0  2  0  0  0  0  0  0
  190.3030  175.9320  147.4660 C   0  0  0  0  0  2  0  0  0  0  0  0
  189.4140  174.7230  147.2670 C   0  0  0  0  0  1  0  0  0  0  0  0
  193.9590  175.9670  146.6590 C   0  0  0  0  0  2  0  0  0  0  0  0
  194.9890  178.0960  146.4270 F   0  0  0  0  0  0  0  0  0  0  0  0
  194.3600  177.0890  145.7190 C   0  0  0  0  0  2  0  0  0  0  0  0
  193.7980  173.6380  145.5830 O   0  0  0  0  0  0  0  0  0  0  0  0
  194.0460  173.4360  144.2220 C   0  0  0  0  0  2  0  0  0  0  0  0
  195.3600  174.0340  143.8550 C   0  0  0  0  0  0  0  0  0  0  0  0
  197.6630  174.4290  144.3570 N   0  0  0  0  0  0  0  0  0  0  0  0
  196.7130  175.4030  142.3910 C   0  0  0  0  0  3  0  0  0  0  0  0
  197.8050  175.1900  143.2370 C   0  0  0  0  0  3  0  0  0  0  0  0
  195.4830  174.8200  142.7060 C   0  0  0  0  0  3  0  0  0  0  0  0
  196.4730  173.8560  144.6820 C   0  0  0  0  0  3  0  0  0  0  0  0
  188.0910  175.1540  141.5910 C   0  0  0  0  0  2  0  0  0  0  0  0
  190.8070  171.9300  140.2200 C   0  0  0  0  0  2  0  0  0  0  0  0
  189.3440  171.9450  138.1010 C   0  0  2  0  0  3  0  0  0  0  0  0
  190.1420  171.1060  139.1150 C   0  0  1  0  0  3  0  0  0  0  0  0
  188.3500  174.7710  140.1680 C   0  0  0  0  0  3  0  0  0  0  0  0
  189.8160  172.8910  140.8700 C   0  0  0  0  0  2  0  0  0  0  0  0
  189.1270  173.7370  139.8300 C   0  0  0  0  0  0  0  0  0  0  0  0
  190.7480  171.4750  137.7770 C   0  0  0  0  0  2  0  0  0  0  0  0
  189.3590  173.4530  138.3750 C   0  0  0  0  0  2  0  0  0  0  0  0
  2 11  1  6  0  0  0
  2 10  1  0  0  0  0
  3 14  1  6  0  0  0
  3  6  1  0  0  0  0
  3  7  1  0  0  0  0
  4  1  1  0  0  0  0
  5  1  1  0  0  0  0
  6  8  1  1  0  0  0
  7  5  1  0  0  0  0
  8  4  1  0  0  0  0
 10  9  1  6  0  0  0
 10  6  1  0  0  0  0
 11 14  1  0  0  0  0
 12 35  1  1  0  0  0
 12  2  1  0  0  0  0
 12 13  1  0  0  0  0
 13 17  1  0  0  0  0
 13  9  1  1  0  0  0
 15 18  1  6  0  0  0
 16 15  1  0  0  0  0
 17 16  1  6  0  0  0
 17 15  1  0  0  0  0
 19 18  1  6  0  0  0
 19 20  1  0  0  0  0
 20 24  1  1  0  0  0
 20 21  1  0  0  0  0
 22 21  1  0  0  0  0
 23 22  1  0  0  0  0
 26 25  1  0  0  0  0
 26 24  1  0  0  0  0
 27 19  1  0  0  0  0
 28 27  1  0  0  0  0
 29 28  1  0  0  0  0
 29 34  1  0  0  0  0
 30 34  2  0  0  0  0
 31 33  1  0  0  0  0
 31 32  2  0  0  0  0
 32 30  1  0  0  0  0
 33 29  2  0  0  0  0
 36 40  1  0  0  0  0
 37 42  1  6  0  0  0
 37 43  1  0  0  0  0
 37 38  1  0  0  0  0
 38 42  1  6  0  0  0
 38 36  1  0  0  0  0
 39 35  1  0  0  0  0
 41 39  2  0  0  0  0
 41 40  1  0  0  0  0
 43 41  1  0  0  0  0
M  END
>  <MODEL>
2

>  <REMARK>
 VINA RESULT:      -7.5      1.456      1.906
  Name = 
  13 active torsions:
  status: ('A' for Active; 'I' for Inactive)
    1  A    between atoms: C_1  and  C_28
    2  A    between atoms: C_1  and  C_34
    3  A    between atoms: C_2  and  C_6
    4  A    between atoms: C_3  and  C_4
    5  A    between atoms: C_3  and  C_12
    6  A    between atoms: C_4  and  C_15
    7  A    between atoms: C_4  and  C_22
    8  A    between atoms: C_6  and  C_22
    9  A    between atoms: C_11  and  C_14
   10  A    between atoms: C_13  and  N_38
   11  A    between atoms: C_14  and  O_41
   12  A    between atoms: C_15  and  C_42
   13  A    between atoms: C_22  and  O_41
                            x       y       z     vdW  Elec       q    Type
                         _______ _______ _______ _____ _____    ______ ____

>  <TORSDO>
F 13

$$$$
=
 OpenBabel11052421093D

 43 49  0  0  1  0  0  0  0  0999 V2000
  185.2660  178.1900  147.5460 N   0  0  0  0  0  2  0  0  0  0  0  0
  188.0920  176.9270  142.9190 C   0  0  2  0  0  3  0  0  0  0  0  0
  185.7940  177.3270  144.6310 C   0  0  1  0  0  3  0  0  0  0  0  0
  186.3720  177.2490  147.4510 C   0  0  0  0  0  2  0  0  0  0  0  0
  184.2740  177.8300  146.5440 C   0  0  0  0  0  2  0  0  0  0  0  0
  187.2200  177.7780  145.0570 C   0  0  1  0  0  3  0  0  0  0  0  0
  184.7210  178.2690  145.1570 C   0  0  0  0  0  2  0  0  0  0  0  0
  187.4730  177.8420  146.5780 C   0  0  0  0  0  2  0  0  0  0  0  0
  189.6940  177.1600  144.6120 C   0  0  0  0  0  2  0  0  0  0  0  0
  188.2300  176.8400  144.4040 C   0  0  2  0  0  3  0  0  0  0  0  0
  186.7540  176.3490  142.4850 C   0  0  0  0  0  2  0  0  0  0  0  0
  189.3740  176.2900  142.4270 C   0  0  1  0  0  3  0  0  0  0  0  0
  190.4030  176.7900  143.3760 N   0  0  2  0  0  0  0  0  0  0  0  0
  185.6550  177.2210  143.1020 C   0  0  0  0  0  2  0  0  0  0  0  0
  192.7870  176.5180  143.8480 C   0  0  1  0  0  3  0  0  0  0  0  0
  192.4630  175.7670  142.5740 C   0  0  0  0  0  2  0  0  0  0  0  0
  191.4470  175.8150  143.6980 C   0  0  2  0  0  3  0  0  0  0  0  0
  193.7060  175.6730  144.7140 C   0  0  0  0  0  2  0  0  0  0  0  0
  194.8550  175.0840  143.8890 C   0  0  2  0  0  3  0  0  0  0  0  0
  195.0860  173.5860  144.1370 C   0  0  1  0  0  3  0  0  0  0  0  0
  195.3950  173.2640  145.5970 C   0  0  0  0  0  2  0  0  0  0  0  0
  196.8650  172.9360  145.7740 C   0  0  0  0  0  2  0  0  0  0  0  0
  197.4120  172.3610  144.4840 C   0  0  0  0  0  1  0  0  0  0  0  0
  193.8940  172.7750  143.6510 C   0  0  0  0  0  2  0  0  0  0  0  0
  191.9260  172.2930  144.8930 F   0  0  0  0  0  0  0  0  0  0  0  0
  193.2700  171.9890  144.7900 C   0  0  0  0  0  2  0  0  0  0  0  0
  196.0280  175.8050  144.1220 O   0  0  0  0  0  0  0  0  0  0  0  0
  196.1510  176.6600  143.0230 C   0  0  0  0  0  2  0  0  0  0  0  0
  196.5050  175.8720  141.8090 C   0  0  0  0  0  0  0  0  0  0  0  0
  196.0000  175.1710  139.5810 N   0  0  0  0  0  0  0  0  0  0  0  0
  197.9320  174.2840  140.6740 C   0  0  0  0  0  3  0  0  0  0  0  0
  197.0970  174.3650  139.5560 C   0  0  0  0  0  3  0  0  0  0  0  0
  197.6310  175.0440  141.8060 C   0  0  0  0  0  3  0  0  0  0  0  0
  195.6870  175.9160  140.6760 C   0  0  0  0  0  3  0  0  0  0  0  0
  189.2370  174.7550  142.3870 C   0  0  0  0  0  2  0  0  0  0  0  0
  191.4700  171.0360  141.4770 C   0  0  0  0  0  2  0  0  0  0  0  0
  190.2360  171.1470  139.2200 C   0  0  2  0  0  3  0  0  0  0  0  0
  190.7780  170.2590  140.3550 C   0  0  1  0  0  3  0  0  0  0  0  0
  189.5570  174.2360  141.0210 C   0  0  0  0  0  3  0  0  0  0  0  0
  190.6040  172.1910  141.9690 C   0  0  0  0  0  2  0  0  0  0  0  0
  190.1710  173.0660  140.8200 C   0  0  0  0  0  0  0  0  0  0  0  0
  191.5610  170.4280  139.0690 C   0  0  0  0  0  2  0  0  0  0  0  0
  190.4850  172.6460  139.4150 C   0  0  0  0  0  2  0  0  0  0  0  0
  2 11  1  6  0  0  0
  2 10  1  0  0  0  0
  3 14  1  6  0  0  0
  3  6  1  0  0  0  0
  3  7  1  0  0  0  0
  4  1  1  0  0  0  0
  5  1  1  0  0  0  0
  6  8  1  1  0  0  0
  7  5  1  0  0  0  0
  8  4  1  0  0  0  0
 10  9  1  6  0  0  0
 10  6  1  0  0  0  0
 11 14  1  0  0  0  0
 12 35  1  1  0  0  0
 12  2  1  0  0  0  0
 12 13  1  0  0  0  0
 13 17  1  0  0  0  0
 13  9  1  1  0  0  0
 15 18  1  1  0  0  0
 16 15  1  0  0  0  0
 17 16  1  6  0  0  0
 17 15  1  0  0  0  0
 19 27  1  0  0  0  0
 19 20  1  0  0  0  0
 19 18  1  1  0  0  0
 20 24  1  1  0  0  0
 20 21  1  0  0  0  0
 21 22  1  0  0  0  0
 23 22  1  0  0  0  0
 24 26  1  0  0  0  0
 26 25  1  0  0  0  0
 28 27  1  0  0  0  0
 29 28  1  0  0  0  0
 30 34  1  0  0  0  0
 31 33  2  0  0  0  0
 32 30  2  0  0  0  0
 32 31  1  0  0  0  0
 33 29  1  0  0  0  0
 34 29  2  0  0  0  0
 36 40  1  0  0  0  0
 37 42  1  6  0  0  0
 37 43  1  0  0  0  0
 37 38  1  0  0  0  0
 38 42  1  6  0  0  0
 38 36  1  0  0  0  0
 39 35  1  0  0  0  0
 41 39  2  0  0  0  0
 41 40  1  0  0  0  0
 43 41  1  0  0  0  0
M  END
>  <MODEL>
3

>  <REMARK>
 VINA RESULT:      -7.0      2.492      3.710
  Name = 
  13 active torsions:
  status: ('A' for Active; 'I' for Inactive)
    1  A    between atoms: C_1  and  C_28
    2  A    between atoms: C_1  and  C_34
    3  A    between atoms: C_2  and  C_6
    4  A    between atoms: C_3  and  C_4
    5  A    between atoms: C_3  and  C_12
    6  A    between atoms: C_4  and  C_15
    7  A    between atoms: C_4  and  C_22
    8  A    between atoms: C_6  and  C_22
    9  A    between atoms: C_11  and  C_14
   10  A    between atoms: C_13  and  N_38
   11  A    between atoms: C_14  and  O_41
   12  A    between atoms: C_15  and  C_42
   13  A    between atoms: C_22  and  O_41
                            x       y       z     vdW  Elec       q    Type
                         _______ _______ _______ _____ _____    ______ ____

>  <TORSDO>
F 13

$$$$
=
 OpenBabel11052421093D

 43 49  0  0  1  0  0  0  0  0999 V2000
  195.9130  175.3850  139.7030 N   0  0  0  0  0  2  0  0  0  0  0  0
  194.5830  176.0060  145.0740 C   0  0  2  0  0  3  0  0  0  0  0  0
  196.1410  175.1930  142.7740 C   0  0  1  0  0  3  0  0  0  0  0  0
  194.6470  175.0120  140.3190 C   0  0  0  0  0  2  0  0  0  0  0  0
  196.9900  174.7720  140.4670 C   0  0  0  0  0  2  0  0  0  0  0  0
  194.9160  176.1410  142.6390 C   0  0  1  0  0  3  0  0  0  0  0  0
  197.2300  175.5270  141.7660 C   0  0  0  0  0  2  0  0  0  0  0  0
  194.2000  176.1140  141.2730 C   0  0  0  0  0  2  0  0  0  0  0  0
  192.6950  176.6730  143.8590 C   0  0  0  0  0  2  0  0  0  0  0  0
  193.9260  175.7990  143.7480 C   0  0  2  0  0  3  0  0  0  0  0  0
  195.6900  174.9810  145.2720 C   0  0  0  0  0  2  0  0  0  0  0  0
  193.4090  176.0290  146.0280 C   0  0  1  0  0  3  0  0  0  0  0  0
  192.3690  176.7900  145.2890 N   0  0  2  0  0  0  0  0  0  0  0  0
  196.7450  175.2300  144.1890 C   0  0  0  0  0  2  0  0  0  0  0  0
  190.0460  177.4860  145.6110 C   0  0  1  0  0  3  0  0  0  0  0  0
  190.5100  176.7740  146.8640 C   0  0  0  0  0  2  0  0  0  0  0  0
  191.0030  176.3090  145.5080 C   0  0  2  0  0  3  0  0  0  0  0  0
  188.6420  177.0260  145.2590 C   0  0  0  0  0  2  0  0  0  0  0  0
  188.0880  177.8090  144.0630 C   0  0  2  0  0  3  0  0  0  0  0  0
  186.5980  178.1580  144.1930 C   0  0  1  0  0  3  0  0  0  0  0  0
  186.2570  178.8360  145.5180 C   0  0  0  0  0  2  0  0  0  0  0  0
  185.0020  178.2330  146.1210 C   0  0  0  0  0  2  0  0  0  0  0  0
  185.1630  176.7310  146.2240 C   0  0  0  0  0  1  0  0  0  0  0  0
  186.1480  179.0170  143.0210 C   0  0  0  0  0  2  0  0  0  0  0  0
  184.7390  177.1150  142.8080 F   0  0  0  0  0  0  0  0  0  0  0  0
  185.1000  178.2980  142.1900 C   0  0  0  0  0  2  0  0  0  0  0  0
  188.3240  177.1030  142.8810 O   0  0  0  0  0  0  0  0  0  0  0  0
  187.8570  175.8100  143.1330 C   0  0  0  0  0  2  0  0  0  0  0  0
  188.6450  174.8250  142.3400 C   0  0  0  0  0  0  0  0  0  0  0  0
  188.7770  172.7410  141.1770 N   0  0  0  0  0  0  0  0  0  0  0  0
  190.7390  174.0940  141.3760 C   0  0  0  0  0  3  0  0  0  0  0  0
  190.0990  172.9390  140.9180 C   0  0  0  0  0  3  0  0  0  0  0  0
  190.0030  175.0420  142.0920 C   0  0  0  0  0  3  0  0  0  0  0  0
  188.0450  173.6510  141.8760 C   0  0  0  0  0  3  0  0  0  0  0  0
  192.9960  174.5950  146.4160 C   0  0  0  0  0  2  0  0  0  0  0  0
  194.6780  170.7580  144.9680 C   0  0  0  0  0  2  0  0  0  0  0  0
  192.3830  170.4700  143.8370 C   0  0  2  0  0  3  0  0  0  0  0  0
  193.5530  169.7970  144.5760 C   0  0  1  0  0  3  0  0  0  0  0  0
  192.5400  173.8370  145.2090 C   0  0  0  0  0  3  0  0  0  0  0  0
  194.1320  171.9880  145.6850 C   0  0  0  0  0  2  0  0  0  0  0  0
  193.0450  172.6450  144.8730 C   0  0  0  0  0  0  0  0  0  0  0  0
  193.4550  169.7260  143.0660 C   0  0  0  0  0  2  0  0  0  0  0  0
  192.5520  171.9780  143.6240 C   0  0  0  0  0  2  0  0  0  0  0  0
  1  4  1  0  0  0  0
  1  5  1  0  0  0  0
  2 11  1  1  0  0  0
  2 12  1  0  0  0  0
  3  7  1  6  0  0  0
  3 14  1  0  0  0  0
  4  8  1  0  0  0  0
  5  7  1  0  0  0  0
  6  8  1  6  0  0  0
  6  3  1  0  0  0  0
  6 10  1  0  0  0  0
 10  9  1  1  0  0  0
 10  2  1  0  0  0  0
 12 35  1  6  0  0  0
 13  9  1  6  0  0  0
 13 17  1  0  0  0  0
 13 12  1  0  0  0  0
 14 11  1  0  0  0  0
 15 18  1  6  0  0  0
 15 16  1  0  0  0  0
 17 15  1  0  0  0  0
 17 16  1  1  0  0  0
 19 20  1  0  0  0  0
 19 18  1  1  0  0  0
 20 24  1  6  0  0  0
 20 21  1  0  0  0  0
 21 22  1  0  0  0  0
 22 23  1  0  0  0  0
 26 25  1  0  0  0  0
 26 24  1  0  0  0  0
 27 28  1  0  0  0  0
 27 19  1  0  0  0  0
 29 28  1  0  0  0  0
 30 34  1  0  0  0  0
 31 33  2  0  0  0  0
 32 30  2  0  0  0  0
 32 31  1  0  0  0  0
 33 29  1  0  0  0  0
 34 29  2  0  0  0  0
 36 40  1  0  0  0  0
 37 42  1  6  0  0  0
 37 38  1  0  0  0  0
 38 42  1  6  0  0  0
 38 36  1  0  0  0  0
 39 35  1  0  0  0  0
 41 39  2  0  0  0  0
 41 40  1  0  0  0  0
 43 37  1  0  0  0  0
 43 41  1  0  0  0  0
M  END
>  <MODEL>
4

>  <REMARK>
 VINA RESULT:      -6.9      3.120      8.084
  Name = 
  13 active torsions:
  status: ('A' for Active; 'I' for Inactive)
    1  A    between atoms: C_1  and  C_28
    2  A    between atoms: C_1  and  C_34
    3  A    between atoms: C_2  and  C_6
    4  A    between atoms: C_3  and  C_4
    5  A    between atoms: C_3  and  C_12
    6  A    between atoms: C_4  and  C_15
    7  A    between atoms: C_4  and  C_22
    8  A    between atoms: C_6  and  C_22
    9  A    between atoms: C_11  and  C_14
   10  A    between atoms: C_13  and  N_38
   11  A    between atoms: C_14  and  O_41
   12  A    between atoms: C_15  and  C_42
   13  A    between atoms: C_22  and  O_41
                            x       y       z     vdW  Elec       q    Type
                         _______ _______ _______ _____ _____    ______ ____

>  <TORSDO>
F 13

$$$$
=
 OpenBabel11052421093D

 43 49  0  0  1  0  0  0  0  0999 V2000
  192.8370  172.1280  137.9150 N   0  0  0  0  0  2  0  0  0  0  0  0
  188.7110  173.8640  141.2260 C   0  0  2  0  0  3  0  0  0  0  0  0
  190.1220  173.3290  138.7560 C   0  0  1  0  0  3  0  0  0  0  0  0
  192.9720  173.0360  139.0440 C   0  0  0  0  0  2  0  0  0  0  0  0
  191.7940  172.6420  137.0380 C   0  0  0  0  0  2  0  0  0  0  0  0
  190.6260  172.7820  140.1210 C   0  0  1  0  0  3  0  0  0  0  0  0
  190.4150  172.3640  137.6170 C   0  0  0  0  0  2  0  0  0  0  0  0
  192.1440  172.5210  140.2160 C   0  0  0  0  0  2  0  0  0  0  0  0
  190.5110  173.3690  142.6400 C   0  0  0  0  0  2  0  0  0  0  0  0
  190.2020  173.7610  141.2120 C   0  0  2  0  0  3  0  0  0  0  0  0
  188.2230  174.5350  139.9510 C   0  0  0  0  0  2  0  0  0  0  0  0
  188.4340  174.5150  142.5630 C   0  0  1  0  0  3  0  0  0  0  0  0
  189.4080  173.8670  143.4790 N   0  0  2  0  0  0  0  0  0  0  0  0
  188.6120  173.6300  138.7770 C   0  0  0  0  0  2  0  0  0  0  0  0
  190.9070  173.9920  145.4080 C   0  0  1  0  0  3  0  0  0  0  0  0
  189.5000  174.2980  145.8750 C   0  0  0  0  0  2  0  0  0  0  0  0
  189.9540  174.7590  144.5040 C   0  0  2  0  0  3  0  0  0  0  0  0
  191.8780  174.9640  146.0570 C   0  0  0  0  0  2  0  0  0  0  0  0
  193.2500  174.9110  145.3780 C   0  0  2  0  0  3  0  0  0  0  0  0
  193.5390  176.1220  144.4770 C   0  0  1  0  0  3  0  0  0  0  0  0
  193.5150  175.7780  142.9900 C   0  0  0  0  0  2  0  0  0  0  0  0
  194.8410  176.1250  142.3390 C   0  0  0  0  0  2  0  0  0  0  0  0
  195.9410  176.0760  143.3780 C   0  0  0  0  0  1  0  0  0  0  0  0
  192.5700  177.2540  144.7810 C   0  0  0  0  0  2  0  0  0  0  0  0
  191.0270  178.7700  143.7960 F   0  0  0  0  0  0  0  0  0  0  0  0
  191.7790  177.6390  143.5420 C   0  0  0  0  0  2  0  0  0  0  0  0
  193.3780  173.7220  144.6550 O   0  0  0  0  0  0  0  0  0  0  0  0
  194.3200  172.9700  145.3630 C   0  0  0  0  0  2  0  0  0  0  0  0
  194.0300  171.5170  145.2000 C   0  0  0  0  0  0  0  0  0  0  0  0
  194.5230  169.2400  145.7300 N   0  0  0  0  0  0  0  0  0  0  0  0
  192.8070  169.7230  144.1370 C   0  0  0  0  0  3  0  0  0  0  0  0
  193.5630  168.8030  144.8700 C   0  0  0  0  0  3  0  0  0  0  0  0
  193.0460  171.0890  144.3060 C   0  0  0  0  0  3  0  0  0  0  0  0
  194.7730  170.5660  145.9050 C   0  0  0  0  0  3  0  0  0  0  0  0
  188.5760  176.0460  142.4620 C   0  0  0  0  0  2  0  0  0  0  0  0
  186.3210  177.6570  145.9220 C   0  0  0  0  0  2  0  0  0  0  0  0
  185.1420  179.1110  144.1540 C   0  0  2  0  0  3  0  0  0  0  0  0
  185.7190  179.0220  145.5780 C   0  0  1  0  0  3  0  0  0  0  0  0
  187.2280  176.6950  142.4060 C   0  0  0  0  0  3  0  0  0  0  0  0
  187.2900  177.1890  144.8420 C   0  0  0  0  0  2  0  0  0  0  0  0
  186.6390  177.2260  143.4820 C   0  0  0  0  0  0  0  0  0  0  0  0
  184.2310  178.8700  145.3400 C   0  0  0  0  0  2  0  0  0  0  0  0
  185.2700  177.8210  143.3360 C   0  0  0  0  0  2  0  0  0  0  0  0
  1  4  1  0  0  0  0
  2 11  1  6  0  0  0
  2 12  1  0  0  0  0
  3  7  1  6  0  0  0
  3 14  1  0  0  0  0
  3  6  1  0  0  0  0
  4  8  1  0  0  0  0
  5  7  1  0  0  0  0
  5  1  1  0  0  0  0
  6  8  1  6  0  0  0
  6 10  1  0  0  0  0
 10  2  1  0  0  0  0
 10  9  1  1  0  0  0
 12 35  1  6  0  0  0
 12 13  1  0  0  0  0
 13  9  1  6  0  0  0
 13 17  1  0  0  0  0
 14 11  1  0  0  0  0
 15 16  1  0  0  0  0
 15 18  1  1  0  0  0
 17 15  1  0  0  0  0
 17 16  1  1  0  0  0
 19 18  1  6  0  0  0
 20 21  1  6  0  0  0
 20 24  1  0  0  0  0
 20 19  1  0  0  0  0
 22 21  1  0  0  0  0
 22 23  1  0  0  0  0
 26 25  1  0  0  0  0
 26 24  1  0  0  0  0
 27 28  1  0  0  0  0
 27 19  1  0  0  0  0
 29 28  1  0  0  0  0
 29 34  1  0  0  0  0
 30 34  2  0  0  0  0
 31 33  1  0  0  0  0
 31 32  2  0  0  0  0
 32 30  1  0  0  0  0
 33 29  2  0  0  0  0
 37 43  1  6  0  0  0
 37 42  1  0  0  0  0
 37 38  1  0  0  0  0
 38 42  1  1  0  0  0
 38 36  1  0  0  0  0
 39 35  1  0  0  0  0
 39 41  2  0  0  0  0
 40 36  1  0  0  0  0
 41 40  1  0  0  0  0
 43 41  1  0  0  0  0
M  END
>  <MODEL>
5

>  <REMARK>
 VINA RESULT:      -6.8      2.081      6.611
  Name = 
  13 active torsions:
  status: ('A' for Active; 'I' for Inactive)
    1  A    between atoms: C_1  and  C_28
    2  A    between atoms: C_1  and  C_34
    3  A    between atoms: C_2  and  C_6
    4  A    between atoms: C_3  and  C_4
    5  A    between atoms: C_3  and  C_12
    6  A    between atoms: C_4  and  C_15
    7  A    between atoms: C_4  and  C_22
    8  A    between atoms: C_6  and  C_22
    9  A    between atoms: C_11  and  C_14
   10  A    between atoms: C_13  and  N_38
   11  A    between atoms: C_14  and  O_41
   12  A    between atoms: C_15  and  C_42
   13  A    between atoms: C_22  and  O_41
                            x       y       z     vdW  Elec       q    Type
                         _______ _______ _______ _____ _____    ______ ____

>  <TORSDO>
F 13

$$$$
=
 OpenBabel11052421093D

 43 49  0  0  1  0  0  0  0  0999 V2000
  183.9460  179.0230  143.8880 N   0  0  0  0  0  2  0  0  0  0  0  0
  188.1350  175.6670  145.3690 C   0  0  2  0  0  3  0  0  0  0  0  0
  186.1000  177.7040  145.6610 C   0  0  1  0  0  3  0  0  0  0  0  0
  185.2120  178.8740  143.1840 C   0  0  0  0  0  2  0  0  0  0  0  0
  184.2330  179.3150  145.2850 C   0  0  0  0  0  2  0  0  0  0  0  0
  186.1720  176.7950  144.4020 C   0  0  1  0  0  3  0  0  0  0  0  0
  184.6650  178.0560  146.0230 C   0  0  0  0  0  2  0  0  0  0  0  0
  185.5830  177.3970  143.1090 C   0  0  0  0  0  2  0  0  0  0  0  0
  187.9170  175.4440  143.0470 C   0  0  0  0  0  2  0  0  0  0  0  0
  187.6310  176.4120  144.1750 C   0  0  2  0  0  3  0  0  0  0  0  0
  188.2040  176.5950  146.5710 C   0  0  0  0  0  2  0  0  0  0  0  0
  189.4010  175.0220  144.8500 C   0  0  1  0  0  3  0  0  0  0  0  0
  189.0420  174.5950  143.4730 N   0  0  2  0  0  0  0  0  0  0  0  0
  186.7750  177.0540  146.8820 C   0  0  0  0  0  2  0  0  0  0  0  0
  190.0200  173.6280  141.4510 C   0  0  1  0  0  3  0  0  0  0  0  0
  191.0250  173.5010  142.5760 C   0  0  0  0  0  2  0  0  0  0  0  0
  190.1300  174.7220  142.5010 C   0  0  2  0  0  3  0  0  0  0  0  0
  190.7330  174.0720  140.1850 C   0  0  0  0  0  2  0  0  0  0  0  0
  191.1370  172.8680  139.3280 C   0  0  2  0  0  3  0  0  0  0  0  0
  190.3590  171.5860  139.6610 C   0  0  1  0  0  3  0  0  0  0  0  0
  189.3760  171.1820  138.5640 C   0  0  0  0  0  2  0  0  0  0  0  0
  189.5720  172.0390  137.3280 C   0  0  0  0  0  2  0  0  0  0  0  0
  189.6770  171.1490  136.1080 C   0  0  0  0  0  1  0  0  0  0  0  0
  191.3180  170.4450  139.9660 C   0  0  0  0  0  2  0  0  0  0  0  0
  190.0650  170.4020  141.9850 F   0  0  0  0  0  0  0  0  0  0  0  0
  190.8200  169.6140  141.1360 C   0  0  0  0  0  2  0  0  0  0  0  0
  192.5120  172.6470  139.4340 O   0  0  0  0  0  0  0  0  0  0  0  0
  193.0650  173.9120  139.6560 C   0  0  0  0  0  2  0  0  0  0  0  0
  194.4150  173.7720  140.2690 C   0  0  0  0  0  0  0  0  0  0  0  0
  196.7390  174.3290  140.2990 N   0  0  0  0  0  0  0  0  0  0  0  0
  195.8980  172.7440  141.8790 C   0  0  0  0  0  3  0  0  0  0  0  0
  196.9560  173.4830  141.3430 C   0  0  0  0  0  3  0  0  0  0  0  0
  194.6200  172.8920  141.3360 C   0  0  0  0  0  3  0  0  0  0  0  0
  195.5020  174.4830  139.7530 C   0  0  0  0  0  3  0  0  0  0  0  0
  190.5820  176.0100  144.9230 C   0  0  0  0  0  2  0  0  0  0  0  0
  194.6850  175.9710  143.2450 C   0  0  0  0  0  2  0  0  0  0  0  0
  195.4070  175.5740  145.6850 C   0  0  2  0  0  3  0  0  0  0  0  0
  195.7130  176.2610  144.3420 C   0  0  1  0  0  3  0  0  0  0  0  0
  191.7770  175.3540  145.5410 C   0  0  0  0  0  3  0  0  0  0  0  0
  193.2620  176.2080  143.7400 C   0  0  0  0  0  2  0  0  0  0  0  0
  193.0030  175.4470  145.0150 C   0  0  0  0  0  0  0  0  0  0  0  0
  196.4160  174.9750  144.7260 C   0  0  0  0  0  2  0  0  0  0  0  0
  194.1320  174.7230  145.6860 C   0  0  0  0  0  2  0  0  0  0  0  0
  1  5  1  0  0  0  0
  2 11  1  1  0  0  0
  3  7  1  1  0  0  0
  3 14  1  0  0  0  0
  4  1  1  0  0  0  0
  5  7  1  0  0  0  0
  6  8  1  6  0  0  0
  6  3  1  0  0  0  0
  8  4  1  0  0  0  0
 10  9  1  6  0  0  0
 10  6  1  0  0  0  0
 10  2  1  0  0  0  0
 11 14  1  0  0  0  0
 12 35  1  6  0  0  0
 12  2  1  0  0  0  0
 13  9  1  6  0  0  0
 13 12  1  0  0  0  0
 15 18  1  6  0  0  0
 15 17  1  0  0  0  0
 15 16  1  0  0  0  0
 17 16  1  1  0  0  0
 17 13  1  0  0  0  0
 19 27  1  0  0  0  0
 19 20  1  0  0  0  0
 19 18  1  1  0  0  0
 20 21  1  6  0  0  0
 20 24  1  0  0  0  0
 22 21  1  0  0  0  0
 23 22  1  0  0  0  0
 24 26  1  0  0  0  0
 26 25  1  0  0  0  0
 27 28  1  0  0  0  0
 28 29  1  0  0  0  0
 29 33  1  0  0  0  0
 30 32  2  0  0  0  0
 32 31  1  0  0  0  0
 33 31  2  0  0  0  0
 34 29  2  0  0  0  0
 34 30  1  0  0  0  0
 35 39  1  0  0  0  0
 36 40  1  0  0  0  0
 37 42  1  6  0  0  0
 37 43  1  0  0  0  0
 38 36  1  6  0  0  0
 38 42  1  0  0  0  0
 38 37  1  0  0  0  0
 40 41  1  0  0  0  0
 41 39  2  0  0  0  0
 41 43  1  0  0  0  0
M  END
>  <MODEL>
6

>  <REMARK>
 VINA RESULT:      -6.8      2.920      6.402
  Name = 
  13 active torsions:
  status: ('A' for Active; 'I' for Inactive)
    1  A    between atoms: C_1  and  C_28
    2  A    between atoms: C_1  and  C_34
    3  A    between atoms: C_2  and  C_6
    4  A    between atoms: C_3  and  C_4
    5  A    between atoms: C_3  and  C_12
    6  A    between atoms: C_4  and  C_15
    7  A    between atoms: C_4  and  C_22
    8  A    between atoms: C_6  and  C_22
    9  A    between atoms: C_11  and  C_14
   10  A    between atoms: C_13  and  N_38
   11  A    between atoms: C_14  and  O_41
   12  A    between atoms: C_15  and  C_42
   13  A    between atoms: C_22  and  O_41
                            x       y       z     vdW  Elec       q    Type
                         _______ _______ _______ _____ _____    ______ ____

>  <TORSDO>
F 13

$$$$
=
 OpenBabel11052421093D

 43 49  0  0  1  0  0  0  0  0999 V2000
  185.7280  178.4230  147.2530 N   0  0  0  0  0  2  0  0  0  0  0  0
  188.4490  176.5960  142.7520 C   0  0  2  0  0  3  0  0  0  0  0  0
  186.2780  177.7240  144.2980 C   0  0  1  0  0  3  0  0  0  0  0  0
  186.3760  177.1270  147.1140 C   0  0  0  0  0  2  0  0  0  0  0  0
  184.8260  178.6050  146.1250 C   0  0  0  0  0  2  0  0  0  0  0  0
  187.6910  177.5050  144.9100 C   0  0  1  0  0  3  0  0  0  0  0  0
  185.6010  178.9620  144.8640 C   0  0  0  0  0  2  0  0  0  0  0  0
  187.7320  177.3040  146.4390 C   0  0  0  0  0  2  0  0  0  0  0  0
  189.7580  175.9790  144.5940 C   0  0  0  0  0  2  0  0  0  0  0  0
  188.3310  176.3080  144.2140 C   0  0  2  0  0  3  0  0  0  0  0  0
  187.0670  176.6640  142.1210 C   0  0  0  0  0  2  0  0  0  0  0  0
  189.4320  175.5450  142.2840 C   0  0  1  0  0  3  0  0  0  0  0  0
  190.4300  175.4800  143.3830 N   0  0  2  0  0  0  0  0  0  0  0  0
  186.3250  177.8400  142.7640 C   0  0  0  0  0  2  0  0  0  0  0  0
  192.4080  174.2150  144.0690 C   0  0  1  0  0  3  0  0  0  0  0  0
  192.0500  173.8140  142.6540 C   0  0  0  0  0  2  0  0  0  0  0  0
  190.9490  174.1360  143.6450 C   0  0  2  0  0  3  0  0  0  0  0  0
  192.7670  172.9760  144.8710 C   0  0  0  0  0  2  0  0  0  0  0  0
  194.2710  172.9190  145.1550 C   0  0  2  0  0  3  0  0  0  0  0  0
  194.9860  174.2640  144.9570 C   0  0  1  0  0  3  0  0  0  0  0  0
  195.1730  175.0380  146.2600 C   0  0  0  0  0  2  0  0  0  0  0  0
  194.5360  176.4110  146.1620 C   0  0  0  0  0  2  0  0  0  0  0  0
  193.2040  176.4020  146.8820 C   0  0  0  0  0  1  0  0  0  0  0  0
  196.3240  174.0580  144.2610 C   0  0  0  0  0  2  0  0  0  0  0  0
  195.3230  175.7220  142.8900 F   0  0  0  0  0  0  0  0  0  0  0  0
  196.5140  175.0660  143.1410 C   0  0  0  0  0  2  0  0  0  0  0  0
  194.8670  171.9280  144.3720 O   0  0  0  0  0  0  0  0  0  0  0  0
  194.2540  170.7360  144.7700 C   0  0  0  0  0  2  0  0  0  0  0  0
  195.1260  170.0200  145.7430 C   0  0  0  0  0  0  0  0  0  0  0  0
  197.3040  169.3410  146.4550 N   0  0  0  0  0  0  0  0  0  0  0  0
  195.3900  168.6070  147.6870 C   0  0  0  0  0  3  0  0  0  0  0  0
  196.7750  168.6420  147.4970 C   0  0  0  0  0  3  0  0  0  0  0  0
  194.5630  169.3020  146.8010 C   0  0  0  0  0  3  0  0  0  0  0  0
  196.5150  170.0210  145.5800 C   0  0  0  0  0  3  0  0  0  0  0  0
  188.7090  174.2140  142.0010 C   0  0  0  0  0  2  0  0  0  0  0  0
  191.1580  173.3210  138.4150 C   0  0  0  0  0  2  0  0  0  0  0  0
  188.9080  172.6500  137.3570 C   0  0  2  0  0  3  0  0  0  0  0  0
  190.4130  172.3580  137.4870 C   0  0  1  0  0  3  0  0  0  0  0  0
  188.2160  174.1750  140.5880 C   0  0  0  0  0  3  0  0  0  0  0  0
  190.4460  173.4600  139.7570 C   0  0  0  0  0  2  0  0  0  0  0  0
  188.9960  173.8240  139.5620 C   0  0  0  0  0  0  0  0  0  0  0  0
  189.8790  173.1210  136.2930 C   0  0  0  0  0  2  0  0  0  0  0  0
  188.4230  173.8520  138.1760 C   0  0  0  0  0  2  0  0  0  0  0  0
  2 11  1  6  0  0  0
  2 10  1  0  0  0  0
  3 14  1  6  0  0  0
  3  7  1  0  0  0  0
  3  6  1  0  0  0  0
  4  1  1  0  0  0  0
  5  1  1  0  0  0  0
  6  8  1  1  0  0  0
  7  5  1  0  0  0  0
  8  4  1  0  0  0  0
 10  9  1  1  0  0  0
 10  6  1  0  0  0  0
 11 14  1  0  0  0  0
 12 35  1  1  0  0  0
 12  2  1  0  0  0  0
 12 13  1  0  0  0  0
 13 17  1  0  0  0  0
 13  9  1  1  0  0  0
 15 18  1  1  0  0  0
 16 15  1  0  0  0  0
 17 16  1  6  0  0  0
 17 15  1  0  0  0  0
 19 18  1  6  0  0  0
 20 24  1  1  0  0  0
 20 19  1  0  0  0  0
 20 21  1  0  0  0  0
 22 21  1  0  0  0  0
 22 23  1  0  0  0  0
 25 26  1  0  0  0  0
 26 24  1  0  0  0  0
 27 28  1  0  0  0  0
 27 19  1  0  0  0  0
 28 29  1  0  0  0  0
 29 33  1  0  0  0  0
 30 32  2  0  0  0  0
 32 31  1  0  0  0  0
 33 31  2  0  0  0  0
 34 29  2  0  0  0  0
 34 30  1  0  0  0  0
 36 40  1  0  0  0  0
 37 42  1  6  0  0  0
 37 38  1  0  0  0  0
 37 43  1  0  0  0  0
 38 42  1  6  0  0  0
 38 36  1  0  0  0  0
 39 35  1  0  0  0  0
 41 40  1  0  0  0  0
 41 39  2  0  0  0  0
 43 41  1  0  0  0  0
M  END
>  <MODEL>
7

>  <REMARK>
 VINA RESULT:      -6.7      1.460      2.237
  Name = 
  13 active torsions:
  status: ('A' for Active; 'I' for Inactive)
    1  A    between atoms: C_1  and  C_28
    2  A    between atoms: C_1  and  C_34
    3  A    between atoms: C_2  and  C_6
    4  A    between atoms: C_3  and  C_4
    5  A    between atoms: C_3  and  C_12
    6  A    between atoms: C_4  and  C_15
    7  A    between atoms: C_4  and  C_22
    8  A    between atoms: C_6  and  C_22
    9  A    between atoms: C_11  and  C_14
   10  A    between atoms: C_13  and  N_38
   11  A    between atoms: C_14  and  O_41
   12  A    between atoms: C_15  and  C_42
   13  A    between atoms: C_22  and  O_41
                            x       y       z     vdW  Elec       q    Type
                         _______ _______ _______ _____ _____    ______ ____

>  <TORSDO>
F 13

$$$$
=
 OpenBabel11052421093D

 43 49  0  0  1  0  0  0  0  0999 V2000
  185.5350  178.0250  147.6920 N   0  0  0  0  0  2  0  0  0  0  0  0
  187.8060  177.1520  142.6830 C   0  0  2  0  0  3  0  0  0  0  0  0
  185.7450  177.7500  144.6260 C   0  0  1  0  0  3  0  0  0  0  0  0
  186.3310  176.8690  147.3040 C   0  0  0  0  0  2  0  0  0  0  0  0
  184.4630  178.1870  146.7200 C   0  0  0  0  0  2  0  0  0  0  0  0
  187.2470  177.6890  145.0200 C   0  0  1  0  0  3  0  0  0  0  0  0
  184.9900  178.7970  145.4300 C   0  0  0  0  0  2  0  0  0  0  0  0
  187.5370  177.3300  146.4920 C   0  0  0  0  0  2  0  0  0  0  0  0
  189.4400  176.5490  144.2490 C   0  0  0  0  0  2  0  0  0  0  0  0
  187.9410  176.6910  144.0980 C   0  0  2  0  0  3  0  0  0  0  0  0
  186.3510  177.0730  142.2460 C   0  0  0  0  0  2  0  0  0  0  0  0
  188.8470  176.3260  141.9610 C   0  0  1  0  0  3  0  0  0  0  0  0
  189.9930  176.2980  142.9080 N   0  0  2  0  0  0  0  0  0  0  0  0
  185.5530  178.0410  143.1260 C   0  0  0  0  0  2  0  0  0  0  0  0
  192.2040  175.2880  143.1850 C   0  0  1  0  0  3  0  0  0  0  0  0
  191.7200  175.0040  141.7790 C   0  0  0  0  0  2  0  0  0  0  0  0
  190.7270  175.0310  142.9230 C   0  0  2  0  0  3  0  0  0  0  0  0
  192.8380  174.0360  143.7650 C   0  0  0  0  0  2  0  0  0  0  0  0
  194.3590  174.1880  143.8750 C   0  0  2  0  0  3  0  0  0  0  0  0
  194.8880  174.0630  145.3120 C   0  0  1  0  0  3  0  0  0  0  0  0
  193.8550  174.4610  146.3640 C   0  0  0  0  0  2  0  0  0  0  0  0
  193.8870  175.9590  146.6050 C   0  0  0  0  0  2  0  0  0  0  0  0
  192.4930  176.4440  146.9440 C   0  0  0  0  0  1  0  0  0  0  0  0
  195.3990  172.6540  145.5700 C   0  0  0  0  0  2  0  0  0  0  0  0
  197.1350  173.6400  146.8600 F   0  0  0  0  0  0  0  0  0  0  0  0
  196.8790  172.6670  145.9120 C   0  0  0  0  0  2  0  0  0  0  0  0
  194.7590  175.4020  143.3100 O   0  0  0  0  0  0  0  0  0  0  0  0
  195.9670  175.1190  142.6670 C   0  0  0  0  0  2  0  0  0  0  0  0
  195.7050  174.6990  141.2620 C   0  0  0  0  0  0  0  0  0  0  0  0
  194.9580  175.2230  139.0530 N   0  0  0  0  0  0  0  0  0  0  0  0
  195.6070  172.9800  139.5640 C   0  0  0  0  0  3  0  0  0  0  0  0
  195.1400  173.9340  138.6560 C   0  0  0  0  0  3  0  0  0  0  0  0
  195.8890  173.3680  140.8760 C   0  0  0  0  0  3  0  0  0  0  0  0
  195.2240  175.6200  140.3270 C   0  0  0  0  0  3  0  0  0  0  0  0
  188.2840  174.9370  141.6010 C   0  0  0  0  0  2  0  0  0  0  0  0
  190.4740  171.5620  139.7390 C   0  0  0  0  0  2  0  0  0  0  0  0
  188.9220  171.9950  137.7300 C   0  0  2  0  0  3  0  0  0  0  0  0
  189.6500  170.9550  138.6010 C   0  0  1  0  0  3  0  0  0  0  0  0
  188.4190  174.6820  140.1320 C   0  0  0  0  0  3  0  0  0  0  0  0
  189.6540  172.5640  140.5450 C   0  0  0  0  0  2  0  0  0  0  0  0
  189.0320  173.6000  139.6420 C   0  0  0  0  0  0  0  0  0  0  0  0
  190.2320  171.3870  137.2720 C   0  0  0  0  0  2  0  0  0  0  0  0
  189.1520  173.4490  138.1550 C   0  0  0  0  0  2  0  0  0  0  0  0
  2 11  1  6  0  0  0
  2 10  1  0  0  0  0
  3 14  1  6  0  0  0
  3  6  1  0  0  0  0
  3  7  1  0  0  0  0
  4  1  1  0  0  0  0
  5  1  1  0  0  0  0
  6  8  1  1  0  0  0
  7  5  1  0  0  0  0
  8  4  1  0  0  0  0
 10  9  1  1  0  0  0
 10  6  1  0  0  0  0
 11 14  1  0  0  0  0
 12 35  1  1  0  0  0
 12  2  1  0  0  0  0
 12 13  1  0  0  0  0
 13 17  1  0  0  0  0
 13  9  1  1  0  0  0
 15 18  1  1  0  0  0
 16 15  1  0  0  0  0
 17 16  1  6  0  0  0
 17 15  1  0  0  0  0
 19 18  1  1  0  0  0
 19 20  1  0  0  0  0
 20 24  1  1  0  0  0
 20 21  1  0  0  0  0
 21 22  1  0  0  0  0
 22 23  1  0  0  0  0
 24 26  1  0  0  0  0
 26 25  1  0  0  0  0
 27 19  1  0  0  0  0
 28 27  1  0  0  0  0
 29 28  1  0  0  0  0
 30 34  1  0  0  0  0
 31 33  2  0  0  0  0
 32 30  2  0  0  0  0
 32 31  1  0  0  0  0
 33 29  1  0  0  0  0
 34 29  2  0  0  0  0
 36 40  1  0  0  0  0
 37 42  1  6  0  0  0
 37 43  1  0  0  0  0
 37 38  1  0  0  0  0
 38 42  1  6  0  0  0
 38 36  1  0  0  0  0
 39 35  1  0  0  0  0
 41 39  2  0  0  0  0
 41 40  1  0  0  0  0
 43 41  1  0  0  0  0
M  END
>  <MODEL>
8

>  <REMARK>
 VINA RESULT:      -6.7      2.134      3.180
  Name = 
  13 active torsions:
  status: ('A' for Active; 'I' for Inactive)
    1  A    between atoms: C_1  and  C_28
    2  A    between atoms: C_1  and  C_34
    3  A    between atoms: C_2  and  C_6
    4  A    between atoms: C_3  and  C_4
    5  A    between atoms: C_3  and  C_12
    6  A    between atoms: C_4  and  C_15
    7  A    between atoms: C_4  and  C_22
    8  A    between atoms: C_6  and  C_22
    9  A    between atoms: C_11  and  C_14
   10  A    between atoms: C_13  and  N_38
   11  A    between atoms: C_14  and  O_41
   12  A    between atoms: C_15  and  C_42
   13  A    between atoms: C_22  and  O_41
                            x       y       z     vdW  Elec       q    Type
                         _______ _______ _______ _____ _____    ______ ____

>  <TORSDO>
F 13

$$$$
=
 OpenBabel11052421093D

 43 49  0  0  1  0  0  0  0  0999 V2000
  194.4210  173.7760  138.7050 N   0  0  0  0  0  2  0  0  0  0  0  0
  195.4930  176.1240  143.6380 C   0  0  2  0  0  3  0  0  0  0  0  0
  196.0460  174.9260  141.0620 C   0  0  1  0  0  3  0  0  0  0  0  0
  193.8920  173.3420  139.9900 C   0  0  0  0  0  2  0  0  0  0  0  0
  195.8700  173.8630  138.8120 C   0  0  0  0  0  2  0  0  0  0  0  0
  194.6070  175.3440  141.4780 C   0  0  1  0  0  3  0  0  0  0  0  0
  196.2820  175.1160  139.5710 C   0  0  0  0  0  2  0  0  0  0  0  0
  193.4630  174.5600  140.8020 C   0  0  0  0  0  2  0  0  0  0  0  0
  193.1950  175.6690  143.6230 C   0  0  0  0  0  2  0  0  0  0  0  0
  194.4950  175.2170  142.9940 C   0  0  2  0  0  3  0  0  0  0  0  0
  196.9030  175.6320  143.3540 C   0  0  0  0  0  2  0  0  0  0  0  0
  195.0030  176.1980  145.0670 C   0  0  1  0  0  3  0  0  0  0  0  0
  193.5240  176.2610  144.9300 N   0  0  2  0  0  0  0  0  0  0  0  0
  197.1210  175.7070  141.8390 C   0  0  0  0  0  2  0  0  0  0  0  0
  191.4450  176.2040  146.2170 C   0  0  1  0  0  3  0  0  0  0  0  0
  192.5930  176.4520  147.1730 C   0  0  0  0  0  2  0  0  0  0  0  0
  192.7940  175.5430  145.9770 C   0  0  2  0  0  3  0  0  0  0  0  0
  190.4890  175.1920  146.8260 C   0  0  0  0  0  2  0  0  0  0  0  0
  189.3100  174.9130  145.8890 C   0  0  2  0  0  3  0  0  0  0  0  0
  189.7290  174.3430  144.5250 C   0  0  1  0  0  3  0  0  0  0  0  0
  189.8310  172.8200  144.5210 C   0  0  0  0  0  2  0  0  0  0  0  0
  191.2620  172.3800  144.2710 C   0  0  0  0  0  2  0  0  0  0  0  0
  191.3840  171.8380  142.8620 C   0  0  0  0  0  1  0  0  0  0  0  0
  188.7800  174.8190  143.4350 C   0  0  0  0  0  2  0  0  0  0  0  0
  190.3410  174.7030  141.6470 F   0  0  0  0  0  0  0  0  0  0  0  0
  189.5310  175.5730  142.3520 C   0  0  0  0  0  2  0  0  0  0  0  0
  188.5490  176.0720  145.7220 O   0  0  0  0  0  0  0  0  0  0  0  0
  187.7620  176.1570  146.8750 C   0  0  0  0  0  2  0  0  0  0  0  0
  186.5820  177.0280  146.6180 C   0  0  0  0  0  0  0  0  0  0  0  0
  184.7750  177.6960  145.2030 N   0  0  0  0  0  0  0  0  0  0  0  0
  185.1510  178.8720  147.2510 C   0  0  0  0  0  3  0  0  0  0  0  0
  184.4200  178.6790  146.0750 C   0  0  0  0  0  3  0  0  0  0  0  0
  186.2390  178.0390  147.5200 C   0  0  0  0  0  3  0  0  0  0  0  0
  185.8340  176.8770  145.4470 C   0  0  0  0  0  3  0  0  0  0  0  0
  195.5170  174.9950  145.8810 C   0  0  0  0  0  2  0  0  0  0  0  0
  197.4270  171.0250  145.3820 C   0  0  0  0  0  2  0  0  0  0  0  0
  195.0430  170.1160  145.7370 C   0  0  2  0  0  3  0  0  0  0  0  0
  196.5490  169.9310  145.9960 C   0  0  1  0  0  3  0  0  0  0  0  0
  194.8290  173.7380  145.4500 C   0  0  0  0  0  3  0  0  0  0  0  0
  196.9130  172.4150  145.7430 C   0  0  0  0  0  2  0  0  0  0  0  0
  195.4540  172.5570  145.3930 C   0  0  0  0  0  0  0  0  0  0  0  0
  195.8580  169.1600  144.8900 C   0  0  0  0  0  2  0  0  0  0  0  0
  194.6900  171.3590  144.9130 C   0  0  0  0  0  2  0  0  0  0  0  0
  1  5  1  0  0  0  0
  1  4  1  0  0  0  0
  2 11  1  1  0  0  0
  2 12  1  0  0  0  0
  3  7  1  6  0  0  0
  3  6  1  0  0  0  0
  3 14  1  0  0  0  0
  4  8  1  0  0  0  0
  5  7  1  0  0  0  0
  6  8  1  6  0  0  0
  6 10  1  0  0  0  0
 10  9  1  1  0  0  0
 10  2  1  0  0  0  0
 12 35  1  1  0  0  0
 13  9  1  6  0  0  0
 13 12  1  0  0  0  0
 13 17  1  0  0  0  0
 14 11  1  0  0  0  0
 15 18  1  1  0  0  0
 15 16  1  0  0  0  0
 17 15  1  0  0  0  0
 17 16  1  1  0  0  0
 19 18  1  1  0  0  0
 20 24  1  6  0  0  0
 20 19  1  0  0  0  0
 21 20  1  0  0  0  0
 22 21  1  0  0  0  0
 23 22  1  0  0  0  0
 25 26  1  0  0  0  0
 26 24  1  0  0  0  0
 27 19  1  0  0  0  0
 27 28  1  0  0  0  0
 29 28  1  0  0  0  0
 29 33  1  0  0  0  0
 30 34  1  0  0  0  0
 30 32  2  0  0  0  0
 31 33  2  0  0  0  0
 32 31  1  0  0  0  0
 34 29  2  0  0  0  0
 36 40  1  0  0  0  0
 36 38  1  0  0  0  0
 37 42  1  6  0  0  0
 37 38  1  0  0  0  0
 38 42  1  6  0  0  0
 39 35  1  0  0  0  0
 41 39  2  0  0  0  0
 41 40  1  0  0  0  0
 43 41  1  0  0  0  0
 43 37  1  0  0  0  0
M  END
>  <MODEL>
9

>  <REMARK>
 VINA RESULT:      -6.7      2.851      8.962
  Name = 
  13 active torsions:
  status: ('A' for Active; 'I' for Inactive)
    1  A    between atoms: C_1  and  C_28
    2  A    between atoms: C_1  and  C_34
    3  A    between atoms: C_2  and  C_6
    4  A    between atoms: C_3  and  C_4
    5  A    between atoms: C_3  and  C_12
    6  A    between atoms: C_4  and  C_15
    7  A    between atoms: C_4  and  C_22
    8  A    between atoms: C_6  and  C_22
    9  A    between atoms: C_11  and  C_14
   10  A    between atoms: C_13  and  N_38
   11  A    between atoms: C_14  and  O_41
   12  A    between atoms: C_15  and  C_42
   13  A    between atoms: C_22  and  O_41
                            x       y       z     vdW  Elec       q    Type
                         _______ _______ _______ _____ _____    ______ ____

>  <TORSDO>
F 13

$$$$
