=
 OpenBabel11052417573D

 31 33  0  0  1  0  0  0  0  0999 V2000
  185.2040  178.4030  146.0370 C   0  0  0  0  0  0  0  0  0  0  0  0
  188.2810  177.0800  144.2350 C   0  0  2  0  0  3  0  0  0  0  0  0
  188.2150  177.6050  142.8300 C   0  0  1  0  0  3  0  0  0  0  0  0
  187.3710  177.6320  145.2810 C   0  0  0  0  0  0  0  0  0  0  0  0
  185.6630  178.4000  147.3580 C   0  0  0  0  0  3  0  0  0  0  0  0
  190.0170  176.6530  145.7960 N   0  0  0  0  0  0  0  0  0  0  0  0
  183.5620  178.8910  145.6830 Cl  0  0  0  0  0  0  0  0  0  0  0  0
  190.3680  177.0490  143.3050 C   0  0  2  0  0  3  0  0  0  0  0  0
  189.2680  177.2260  146.9370 C   0  0  0  0  0  2  0  0  0  0  0  0
  189.6730  177.4240  144.5960 C   0  0  1  0  0  3  0  0  0  0  0  0
  186.0530  178.0080  144.9980 C   0  0  0  0  0  3  0  0  0  0  0  0
  187.8260  177.5950  146.6170 C   0  0  0  0  0  0  0  0  0  0  0  0
  186.9710  177.9980  147.6480 C   0  0  0  0  0  3  0  0  0  0  0  0
  191.6370  177.8630  143.1340 C   0  0  0  0  0  1  0  0  0  0  0  0
  189.4780  177.3470  142.2440 O   0  0  0  0  0  0  0  0  0  0  0  0
  187.1770  176.9040  142.0900 N   0  0  0  0  0  2  0  0  0  0  0  0
  186.8580  177.7070  140.9210 C   0  0  0  0  0  2  0  0  0  0  0  0
  185.4100  178.0550  140.9200 C   0  0  0  0  0  0  0  0  0  0  0  0
  184.6110  177.7000  139.8410 O   0  0  0  0  0  0  0  0  0  0  0  0
  184.9010  178.6410  141.9110 O   0  0  0  0  0  1  0  0  0  0  0  0
  191.4300  176.8500  146.0970 C   0  0  0  0  0  2  0  0  0  0  0  0
  194.3780  176.7640  145.9800 C   0  0  0  0  0  1  0  0  0  0  0  0
  191.5120  174.4910  145.8630 O   0  0  0  0  0  0  0  0  0  0  0  0
  192.1710  175.5640  145.9280 C   0  0  0  0  0  0  0  0  0  0  0  0
  193.6060  175.5460  145.7890 N   0  0  0  0  0  0  0  0  0  0  0  0
  194.3320  174.1290  143.9200 C   0  0  0  0  0  1  0  0  0  0  0  0
  194.3480  174.3380  145.4240 C   0  0  1  0  0  3  0  0  0  0  0  0
  195.7830  174.3800  145.9380 C   0  0  0  0  0  2  0  0  0  0  0  0
  196.6370  173.3080  145.2780 C   0  0  1  0  0  3  0  0  0  0  0  0
  197.9360  173.9280  144.8060 C   0  0  0  0  0  1  0  0  0  0  0  0
  196.9200  172.2920  146.1910 O   0  0  0  0  0  1  0  0  0  0  0  0
  1  5  1  0  0  0  0
  2 10  1  0  0  0  0
  2  4  1  1  0  0  0
  3 16  1  6  0  0  0
  3  2  1  0  0  0  0
  4 12  2  0  0  0  0
  5 13  2  0  0  0  0
  6 21  1  0  0  0  0
  6  9  1  0  0  0  0
  7  1  1  0  0  0  0
  8 14  1  6  0  0  0
  8 10  1  0  0  0  0
 10  6  1  1  0  0  0
 11  4  1  0  0  0  0
 11  1  2  0  0  0  0
 12  9  1  0  0  0  0
 12 13  1  0  0  0  0
 15  3  1  0  0  0  0
 15  8  1  0  0  0  0
 17 16  1  0  0  0  0
 18 17  1  0  0  0  0
 18 20  1  0  0  0  0
 19 18  2  0  0  0  0
 23 24  2  0  0  0  0
 24 21  1  0  0  0  0
 25 24  1  0  0  0  0
 25 22  1  0  0  0  0
 27 26  1  6  0  0  0
 27 25  1  0  0  0  0
 27 28  1  0  0  0  0
 29 30  1  1  0  0  0
 29 28  1  0  0  0  0
 29 31  1  0  0  0  0
M  END
>  <MODEL>
1

>  <REMARK>
 VINA RESULT:      -7.1      0.000      0.000
  Name = 
  8 active torsions:
  status: ('A' for Active; 'I' for Inactive)
    1  A    between atoms: C_1  and  C_24
    2  A    between atoms: C_5  and  N_14
    3  A    between atoms: C_9  and  C_23
    4  A    between atoms: C_10  and  N_14
    5  A    between atoms: C_10  and  C_18
    6  A    between atoms: N_15  and  C_23
    7  A    between atoms: C_19  and  N_22
    8  A    between atoms: C_19  and  C_24
                            x       y       z     vdW  Elec       q    Type
                         _______ _______ _______ _____ _____    ______ ____

>  <TORSDO>
F 8

$$$$
=
 OpenBabel11052417573D

 31 33  0  0  1  0  0  0  0  0999 V2000
  184.8890  177.8390  141.8600 C   0  0  0  0  0  0  0  0  0  0  0  0
  187.3390  177.1510  144.6860 C   0  0  2  0  0  3  0  0  0  0  0  0
  186.5270  176.6520  145.8470 C   0  0  1  0  0  3  0  0  0  0  0  0
  186.7200  177.2550  143.3330 C   0  0  0  0  0  0  0  0  0  0  0  0
  185.7290  177.6830  140.7520 C   0  0  0  0  0  3  0  0  0  0  0  0
  189.4880  176.6710  143.8020 N   0  0  0  0  0  0  0  0  0  0  0  0
  183.2180  178.2990  141.6300 Cl  0  0  0  0  0  0  0  0  0  0  0  0
  188.6830  175.9790  146.1160 C   0  0  2  0  0  3  0  0  0  0  0  0
  189.0220  176.6770  142.3970 C   0  0  0  0  0  2  0  0  0  0  0  0
  188.4080  176.1310  144.6350 C   0  0  1  0  0  3  0  0  0  0  0  0
  185.3860  177.6380  143.1510 C   0  0  0  0  0  3  0  0  0  0  0  0
  187.5790  177.1300  142.2190 C   0  0  0  0  0  0  0  0  0  0  0  0
  187.0710  177.3270  140.9310 C   0  0  0  0  0  3  0  0  0  0  0  0
  189.2350  174.5970  146.4100 C   0  0  0  0  0  1  0  0  0  0  0  0
  187.4490  176.1410  146.7930 O   0  0  0  0  0  0  0  0  0  0  0  0
  185.7780  177.7520  146.4330 N   0  0  0  0  0  2  0  0  0  0  0  0
  186.0890  177.7810  147.8530 C   0  0  0  0  0  2  0  0  0  0  0  0
  186.7320  179.0770  148.2080 C   0  0  0  0  0  0  0  0  0  0  0  0
  186.0570  180.2710  147.9880 O   0  0  0  0  0  0  0  0  0  0  0  0
  187.8730  179.0900  148.7390 O   0  0  0  0  0  1  0  0  0  0  0  0
  190.6240  175.7590  143.8480 C   0  0  0  0  0  2  0  0  0  0  0  0
  193.0770  174.4240  144.8050 C   0  0  0  0  0  1  0  0  0  0  0  0
  191.8910  177.7640  143.8970 O   0  0  0  0  0  0  0  0  0  0  0  0
  191.8810  176.5230  144.1170 C   0  0  0  0  0  0  0  0  0  0  0  0
  193.0450  175.8710  144.6620 N   0  0  0  0  0  0  0  0  0  0  0  0
  194.1900  176.7840  146.6330 C   0  0  0  0  0  1  0  0  0  0  0  0
  194.2200  176.6120  145.1230 C   0  0  1  0  0  3  0  0  0  0  0  0
  195.5180  175.9370  144.6930 C   0  0  0  0  0  2  0  0  0  0  0  0
  195.8310  176.2240  143.2320 C   0  0  1  0  0  3  0  0  0  0  0  0
  197.1890  176.8870  143.1360 C   0  0  0  0  0  1  0  0  0  0  0  0
  195.8500  175.0330  142.5050 O   0  0  0  0  0  1  0  0  0  0  0  0
  1 11  1  0  0  0  0
  2  4  1  6  0  0  0
  2  3  1  0  0  0  0
  3 16  1  1  0  0  0
  3 15  1  0  0  0  0
  5 13  1  0  0  0  0
  5  1  2  0  0  0  0
  6 21  1  0  0  0  0
  7  1  1  0  0  0  0
  8 14  1  6  0  0  0
  8 15  1  0  0  0  0
  9  6  1  0  0  0  0
 10  6  1  6  0  0  0
 10  2  1  0  0  0  0
 10  8  1  0  0  0  0
 11  4  2  0  0  0  0
 12  9  1  0  0  0  0
 12  4  1  0  0  0  0
 13 12  2  0  0  0  0
 16 17  1  0  0  0  0
 17 18  1  0  0  0  0
 18 20  1  0  0  0  0
 19 18  2  0  0  0  0
 21 24  1  0  0  0  0
 23 24  2  0  0  0  0
 24 25  1  0  0  0  0
 25 22  1  0  0  0  0
 25 27  1  0  0  0  0
 27 26  1  1  0  0  0
 28 27  1  0  0  0  0
 29 30  1  1  0  0  0
 29 28  1  0  0  0  0
 31 29  1  0  0  0  0
M  END
>  <MODEL>
2

>  <REMARK>
 VINA RESULT:      -7.0      2.752      4.489
  Name = 
  8 active torsions:
  status: ('A' for Active; 'I' for Inactive)
    1  A    between atoms: C_1  and  C_24
    2  A    between atoms: C_5  and  N_14
    3  A    between atoms: C_9  and  C_23
    4  A    between atoms: C_10  and  N_14
    5  A    between atoms: C_10  and  C_18
    6  A    between atoms: N_15  and  C_23
    7  A    between atoms: C_19  and  N_22
    8  A    between atoms: C_19  and  C_24
                            x       y       z     vdW  Elec       q    Type
                         _______ _______ _______ _____ _____    ______ ____

>  <TORSDO>
F 8

$$$$
=
 OpenBabel11052417573D

 31 33  0  0  1  0  0  0  0  0999 V2000
  185.8420  178.3280  142.9190 C   0  0  0  0  0  0  0  0  0  0  0  0
  188.6900  177.0130  145.0680 C   0  0  2  0  0  3  0  0  0  0  0  0
  188.0600  176.3780  146.2740 C   0  0  1  0  0  3  0  0  0  0  0  0
  187.8470  177.3860  143.8950 C   0  0  0  0  0  0  0  0  0  0  0  0
  186.4460  178.3090  141.6570 C   0  0  0  0  0  3  0  0  0  0  0  0
  190.5850  176.5530  143.7160 N   0  0  0  0  0  0  0  0  0  0  0  0
  184.2090  178.9280  143.0960 Cl  0  0  0  0  0  0  0  0  0  0  0  0
  190.1550  175.5310  146.0080 C   0  0  2  0  0  3  0  0  0  0  0  0
  189.8720  176.8280  142.4480 C   0  0  0  0  0  2  0  0  0  0  0  0
  189.6300  175.9500  144.6520 C   0  0  1  0  0  3  0  0  0  0  0  0
  186.5450  177.8790  144.0410 C   0  0  0  0  0  3  0  0  0  0  0  0
  188.4720  177.3970  142.6290 C   0  0  0  0  0  0  0  0  0  0  0  0
  187.7570  177.8430  141.5120 C   0  0  0  0  0  3  0  0  0  0  0  0
  190.6160  174.0870  145.9710 C   0  0  0  0  0  1  0  0  0  0  0  0
  189.0870  175.6550  146.9300 O   0  0  0  0  0  0  0  0  0  0  0  0
  187.5410  177.4080  147.1590 N   0  0  0  0  0  2  0  0  0  0  0  0
  186.1710  177.0480  147.4880 C   0  0  0  0  0  2  0  0  0  0  0  0
  185.2640  178.2010  147.2260 C   0  0  0  0  0  0  0  0  0  0  0  0
  184.0300  177.9900  146.6240 O   0  0  0  0  0  0  0  0  0  0  0  0
  185.5990  179.3610  147.5800 O   0  0  0  0  0  1  0  0  0  0  0  0
  191.6180  175.5750  143.3970 C   0  0  0  0  0  2  0  0  0  0  0  0
  194.0150  173.8560  143.3010 C   0  0  0  0  0  1  0  0  0  0  0  0
  193.0260  177.2070  144.3870 O   0  0  0  0  0  0  0  0  0  0  0  0
  192.9390  176.0390  143.9210 C   0  0  0  0  0  0  0  0  0  0  0  0
  194.0800  175.1580  143.9440 N   0  0  0  0  0  0  0  0  0  0  0  0
  195.2870  175.0650  146.0800 C   0  0  0  0  0  1  0  0  0  0  0  0
  195.3280  175.5040  144.6260 C   0  0  1  0  0  3  0  0  0  0  0  0
  196.5410  174.9000  143.9250 C   0  0  0  0  0  2  0  0  0  0  0  0
  197.2750  175.9410  143.0950 C   0  0  1  0  0  3  0  0  0  0  0  0
  197.0180  175.6790  141.6270 C   0  0  0  0  0  1  0  0  0  0  0  0
  196.8170  177.2200  143.4190 O   0  0  0  0  0  1  0  0  0  0  0  0
  1  7  1  0  0  0  0
  1 11  1  0  0  0  0
  2  4  1  6  0  0  0
  2  3  1  0  0  0  0
  3 15  1  0  0  0  0
  3 16  1  1  0  0  0
  4 11  2  0  0  0  0
  5  1  2  0  0  0  0
  8 14  1  6  0  0  0
  8 15  1  0  0  0  0
  9 12  1  0  0  0  0
  9  6  1  0  0  0  0
 10  6  1  6  0  0  0
 10  2  1  0  0  0  0
 10  8  1  0  0  0  0
 12  4  1  0  0  0  0
 13  5  1  0  0  0  0
 13 12  2  0  0  0  0
 16 17  1  0  0  0  0
 18 17  1  0  0  0  0
 18 20  1  0  0  0  0
 19 18  2  0  0  0  0
 21  6  1  0  0  0  0
 21 24  1  0  0  0  0
 22 25  1  0  0  0  0
 24 25  1  0  0  0  0
 24 23  2  0  0  0  0
 25 27  1  0  0  0  0
 27 26  1  1  0  0  0
 28 27  1  0  0  0  0
 29 30  1  6  0  0  0
 29 31  1  0  0  0  0
 29 28  1  0  0  0  0
M  END
>  <MODEL>
3

>  <REMARK>
 VINA RESULT:      -6.8      2.546      4.077
  Name = 
  8 active torsions:
  status: ('A' for Active; 'I' for Inactive)
    1  A    between atoms: C_1  and  C_24
    2  A    between atoms: C_5  and  N_14
    3  A    between atoms: C_9  and  C_23
    4  A    between atoms: C_10  and  N_14
    5  A    between atoms: C_10  and  C_18
    6  A    between atoms: N_15  and  C_23
    7  A    between atoms: C_19  and  N_22
    8  A    between atoms: C_19  and  C_24
                            x       y       z     vdW  Elec       q    Type
                         _______ _______ _______ _____ _____    ______ ____

>  <TORSDO>
F 8

$$$$
=
 OpenBabel11052417573D

 31 33  0  0  1  0  0  0  0  0999 V2000
  186.0480  177.6100  141.5100 C   0  0  0  0  0  0  0  0  0  0  0  0
  188.0670  177.1330  144.6970 C   0  0  2  0  0  3  0  0  0  0  0  0
  187.1170  177.3370  145.8420 C   0  0  1  0  0  3  0  0  0  0  0  0
  187.5410  176.9820  143.3090 C   0  0  0  0  0  0  0  0  0  0  0  0
  186.7950  176.8330  140.6170 C   0  0  0  0  0  3  0  0  0  0  0  0
  189.9250  175.7180  144.2790 N   0  0  0  0  0  0  0  0  0  0  0  0
  184.6440  178.4860  140.9420 Cl  0  0  0  0  0  0  0  0  0  0  0  0
  188.8990  176.1280  146.5730 C   0  0  2  0  0  3  0  0  0  0  0  0
  189.5080  175.4120  142.8910 C   0  0  0  0  0  2  0  0  0  0  0  0
  188.7140  175.8650  145.0940 C   0  0  1  0  0  3  0  0  0  0  0  0
  186.4260  177.6950  142.8530 C   0  0  0  0  0  3  0  0  0  0  0  0
  188.3170  176.2250  142.4030 C   0  0  0  0  0  0  0  0  0  0  0  0
  187.9250  176.1410  141.0630 C   0  0  0  0  0  3  0  0  0  0  0  0
  188.9320  174.8200  147.3410 C   0  0  0  0  0  1  0  0  0  0  0  0
  187.7910  176.8960  147.0070 O   0  0  0  0  0  0  0  0  0  0  0  0
  186.7910  178.7490  145.9660 N   0  0  0  0  0  2  0  0  0  0  0  0
  185.7060  178.8620  146.9270 C   0  0  0  0  0  2  0  0  0  0  0  0
  184.4550  178.2910  146.3540 C   0  0  0  0  0  0  0  0  0  0  0  0
  183.8060  178.9460  145.3150 O   0  0  0  0  0  0  0  0  0  0  0  0
  184.0040  177.1990  146.7850 O   0  0  0  0  0  1  0  0  0  0  0  0
  190.6720  174.5550  144.7430 C   0  0  0  0  0  2  0  0  0  0  0  0
  192.4440  175.5770  146.8710 C   0  0  0  0  0  1  0  0  0  0  0  0
  192.6170  174.4640  143.3890 O   0  0  0  0  0  0  0  0  0  0  0  0
  192.1340  174.7630  144.5140 C   0  0  0  0  0  0  0  0  0  0  0  0
  192.9710  175.3410  145.5360 N   0  0  0  0  0  0  0  0  0  0  0  0
  194.5380  177.2310  145.5360 C   0  0  0  0  0  1  0  0  0  0  0  0
  194.3560  175.7440  145.2850 C   0  0  1  0  0  3  0  0  0  0  0  0
  195.3390  174.9400  146.1290 C   0  0  0  0  0  2  0  0  0  0  0  0
  195.7980  173.6870  145.4000 C   0  0  1  0  0  3  0  0  0  0  0  0
  197.2190  173.3650  145.8100 C   0  0  0  0  0  1  0  0  0  0  0  0
  194.9720  172.6120  145.7300 O   0  0  0  0  0  1  0  0  0  0  0  0
  1 11  1  0  0  0  0
  2  4  1  6  0  0  0
  2 10  1  0  0  0  0
  2  3  1  0  0  0  0
  3 16  1  1  0  0  0
  3 15  1  0  0  0  0
  5 13  1  0  0  0  0
  5  1  2  0  0  0  0
  6 21  1  0  0  0  0
  7  1  1  0  0  0  0
  8 15  1  0  0  0  0
  8 14  1  1  0  0  0
  9  6  1  0  0  0  0
 10  6  1  6  0  0  0
 10  8  1  0  0  0  0
 11  4  2  0  0  0  0
 12  9  1  0  0  0  0
 12  4  1  0  0  0  0
 13 12  2  0  0  0  0
 16 17  1  0  0  0  0
 18 20  1  0  0  0  0
 18 17  1  0  0  0  0
 19 18  2  0  0  0  0
 23 24  2  0  0  0  0
 24 21  1  0  0  0  0
 24 25  1  0  0  0  0
 25 22  1  0  0  0  0
 27 26  1  1  0  0  0
 27 25  1  0  0  0  0
 27 28  1  0  0  0  0
 29 31  1  0  0  0  0
 29 30  1  1  0  0  0
 29 28  1  0  0  0  0
M  END
>  <MODEL>
4

>  <REMARK>
 VINA RESULT:      -6.8      2.276      3.913
  Name = 
  8 active torsions:
  status: ('A' for Active; 'I' for Inactive)
    1  A    between atoms: C_1  and  C_24
    2  A    between atoms: C_5  and  N_14
    3  A    between atoms: C_9  and  C_23
    4  A    between atoms: C_10  and  N_14
    5  A    between atoms: C_10  and  C_18
    6  A    between atoms: N_15  and  C_23
    7  A    between atoms: C_19  and  N_22
    8  A    between atoms: C_19  and  C_24
                            x       y       z     vdW  Elec       q    Type
                         _______ _______ _______ _____ _____    ______ ____

>  <TORSDO>
F 8

$$$$
=
 OpenBabel11052417573D

 31 33  0  0  1  0  0  0  0  0999 V2000
  185.1190  178.3470  146.0750 C   0  0  0  0  0  0  0  0  0  0  0  0
  188.2200  177.2010  144.1960 C   0  0  2  0  0  3  0  0  0  0  0  0
  188.1710  177.8570  142.8460 C   0  0  1  0  0  3  0  0  0  0  0  0
  187.2960  177.6510  145.2780 C   0  0  0  0  0  0  0  0  0  0  0  0
  185.5600  178.2180  147.3960 C   0  0  0  0  0  3  0  0  0  0  0  0
  189.9370  176.6280  145.7310 N   0  0  0  0  0  0  0  0  0  0  0  0
  183.4810  178.8660  145.7480 Cl  0  0  0  0  0  0  0  0  0  0  0  0
  190.3190  177.2590  143.2940 C   0  0  2  0  0  3  0  0  0  0  0  0
  189.1720  177.0900  146.9130 C   0  0  0  0  0  2  0  0  0  0  0  0
  189.6070  177.5100  144.6060 C   0  0  1  0  0  3  0  0  0  0  0  0
  185.9810  178.0520  145.0150 C   0  0  0  0  0  3  0  0  0  0  0  0
  187.7340  177.4870  146.6100 C   0  0  0  0  0  0  0  0  0  0  0  0
  186.8650  177.7910  147.6640 C   0  0  0  0  0  3  0  0  0  0  0  0
  191.5890  178.0850  143.2180 C   0  0  0  0  0  1  0  0  0  0  0  0
  189.4420  177.6560  142.2550 O   0  0  0  0  0  0  0  0  0  0  0  0
  187.1440  177.2290  142.0300 N   0  0  0  0  0  2  0  0  0  0  0  0
  187.7990  176.6750  140.8570 C   0  0  0  0  0  2  0  0  0  0  0  0
  187.9730  175.2040  141.0170 C   0  0  0  0  0  0  0  0  0  0  0  0
  187.4550  174.5610  142.1340 O   0  0  0  0  0  1  0  0  0  0  0  0
  188.5600  174.5370  140.1250 O   0  0  0  0  0  0  0  0  0  0  0  0
  191.3450  176.7960  146.0680 C   0  0  0  0  0  2  0  0  0  0  0  0
  194.2700  176.8690  145.6770 C   0  0  0  0  0  1  0  0  0  0  0  0
  191.4920  174.4930  145.5200 O   0  0  0  0  0  0  0  0  0  0  0  0
  192.1140  175.5790  145.6650 C   0  0  0  0  0  0  0  0  0  0  0  0
  193.5290  175.6500  145.3970 N   0  0  0  0  0  0  0  0  0  0  0  0
  194.6080  174.8160  143.3560 C   0  0  0  0  0  1  0  0  0  0  0  0
  194.2760  174.5360  144.8110 C   0  0  1  0  0  3  0  0  0  0  0  0
  195.5480  174.2350  145.5960 C   0  0  0  0  0  2  0  0  0  0  0  0
  195.7530  172.7370  145.7630 C   0  0  1  0  0  3  0  0  0  0  0  0
  194.4190  172.0350  145.6330 C   0  0  0  0  0  1  0  0  0  0  0  0
  196.6200  172.2600  144.7790 O   0  0  0  0  0  1  0  0  0  0  0  0
  1  5  1  0  0  0  0
  2 10  1  0  0  0  0
  2  4  1  1  0  0  0
  3 16  1  6  0  0  0
  3  2  1  0  0  0  0
  4 12  2  0  0  0  0
  5 13  2  0  0  0  0
  6 21  1  0  0  0  0
  6  9  1  0  0  0  0
  7  1  1  0  0  0  0
  8 14  1  1  0  0  0
  8 10  1  0  0  0  0
 10  6  1  1  0  0  0
 11  4  1  0  0  0  0
 11  1  2  0  0  0  0
 12  9  1  0  0  0  0
 12 13  1  0  0  0  0
 15  3  1  0  0  0  0
 15  8  1  0  0  0  0
 17 18  1  0  0  0  0
 17 16  1  0  0  0  0
 18 19  1  0  0  0  0
 20 18  2  0  0  0  0
 23 24  2  0  0  0  0
 24 21  1  0  0  0  0
 25 24  1  0  0  0  0
 25 22  1  0  0  0  0
 27 26  1  6  0  0  0
 27 25  1  0  0  0  0
 27 28  1  0  0  0  0
 28 29  1  0  0  0  0
 29 30  1  6  0  0  0
 31 29  1  0  0  0  0
M  END
>  <MODEL>
5

>  <REMARK>
 VINA RESULT:      -6.5      1.469      1.759
  Name = 
  8 active torsions:
  status: ('A' for Active; 'I' for Inactive)
    1  A    between atoms: C_1  and  C_24
    2  A    between atoms: C_5  and  N_14
    3  A    between atoms: C_9  and  C_23
    4  A    between atoms: C_10  and  N_14
    5  A    between atoms: C_10  and  C_18
    6  A    between atoms: N_15  and  C_23
    7  A    between atoms: C_19  and  N_22
    8  A    between atoms: C_19  and  C_24
                            x       y       z     vdW  Elec       q    Type
                         _______ _______ _______ _____ _____    ______ ____

>  <TORSDO>
F 8

$$$$
=
 OpenBabel11052417573D

 31 33  0  0  1  0  0  0  0  0999 V2000
  196.2010  174.1990  143.7270 C   0  0  0  0  0  0  0  0  0  0  0  0
  192.4080  174.0540  143.9450 C   0  0  2  0  0  3  0  0  0  0  0  0
  192.0530  172.6470  144.3320 C   0  0  1  0  0  3  0  0  0  0  0  0
  193.8220  174.5190  144.0380 C   0  0  0  0  0  0  0  0  0  0  0  0
  196.4190  175.5570  143.9810 C   0  0  0  0  0  3  0  0  0  0  0  0
  191.5370  176.2070  144.4310 N   0  0  0  0  0  0  0  0  0  0  0  0
  197.5550  173.1480  143.3770 Cl  0  0  0  0  0  0  0  0  0  0  0  0
  190.3160  174.0150  144.8670 C   0  0  2  0  0  3  0  0  0  0  0  0
  192.8740  176.8140  144.6220 C   0  0  0  0  0  2  0  0  0  0  0  0
  191.5960  174.8220  144.9120 C   0  0  1  0  0  3  0  0  0  0  0  0
  194.9030  173.6800  143.7430 C   0  0  0  0  0  3  0  0  0  0  0  0
  194.0350  175.8970  144.2610 C   0  0  0  0  0  0  0  0  0  0  0  0
  195.3380  176.4040  144.2490 C   0  0  0  0  0  3  0  0  0  0  0  0
  189.5600  174.1520  146.1740 C   0  0  0  0  0  1  0  0  0  0  0  0
  190.6800  172.6590  144.6780 O   0  0  0  0  0  0  0  0  0  0  0  0
  192.2680  171.7550  143.2040 N   0  0  0  0  0  2  0  0  0  0  0  0
  191.7280  172.4100  142.0230 C   0  0  0  0  0  2  0  0  0  0  0  0
  190.5870  171.6220  141.4790 C   0  0  0  0  0  0  0  0  0  0  0  0
  189.7630  172.1750  140.5070 O   0  0  0  0  0  0  0  0  0  0  0  0
  190.3880  170.4450  141.8750 O   0  0  0  0  0  1  0  0  0  0  0  0
  190.6230  176.9650  145.2770 C   0  0  0  0  0  2  0  0  0  0  0  0
  187.9010  177.2950  146.3680 C   0  0  0  0  0  1  0  0  0  0  0  0
  189.7560  177.8840  143.2700 O   0  0  0  0  0  0  0  0  0  0  0  0
  189.5090  177.5220  144.4510 C   0  0  0  0  0  0  0  0  0  0  0  0
  188.1660  177.6000  144.9710 N   0  0  0  0  0  0  0  0  0  0  0  0
  186.2720  176.7030  143.6930 C   0  0  0  0  0  1  0  0  0  0  0  0
  187.0170  177.9510  144.1350 C   0  0  1  0  0  3  0  0  0  0  0  0
  186.0690  178.9070  144.8510 C   0  0  0  0  0  2  0  0  0  0  0  0
  184.6890  178.2920  145.0220 C   0  0  1  0  0  3  0  0  0  0  0  0
  184.3350  178.2650  146.4930 C   0  0  0  0  0  1  0  0  0  0  0  0
  183.7390  179.0500  144.3360 O   0  0  0  0  0  1  0  0  0  0  0  0
  1 11  2  0  0  0  0
  1  5  1  0  0  0  0
  2  4  1  1  0  0  0
  2  3  1  0  0  0  0
  2 10  1  0  0  0  0
  3 16  1  6  0  0  0
  3 15  1  0  0  0  0
  4 12  2  0  0  0  0
  5 13  2  0  0  0  0
  6  9  1  0  0  0  0
  6 21  1  0  0  0  0
  7  1  1  0  0  0  0
  8 10  1  0  0  0  0
  8 14  1  1  0  0  0
 10  6  1  6  0  0  0
 11  4  1  0  0  0  0
 12  9  1  0  0  0  0
 13 12  1  0  0  0  0
 15  8  1  0  0  0  0
 17 16  1  0  0  0  0
 18 20  1  0  0  0  0
 18 17  1  0  0  0  0
 19 18  2  0  0  0  0
 23 24  2  0  0  0  0
 24 25  1  0  0  0  0
 24 21  1  0  0  0  0
 25 22  1  0  0  0  0
 27 26  1  1  0  0  0
 27 28  1  0  0  0  0
 27 25  1  0  0  0  0
 28 29  1  0  0  0  0
 29 30  1  1  0  0  0
 31 29  1  0  0  0  0
M  END
>  <MODEL>
6

>  <REMARK>
 VINA RESULT:      -6.4      3.782      8.541
  Name = 
  8 active torsions:
  status: ('A' for Active; 'I' for Inactive)
    1  A    between atoms: C_1  and  C_24
    2  A    between atoms: C_5  and  N_14
    3  A    between atoms: C_9  and  C_23
    4  A    between atoms: C_10  and  N_14
    5  A    between atoms: C_10  and  C_18
    6  A    between atoms: N_15  and  C_23
    7  A    between atoms: C_19  and  N_22
    8  A    between atoms: C_19  and  C_24
                            x       y       z     vdW  Elec       q    Type
                         _______ _______ _______ _____ _____    ______ ____

>  <TORSDO>
F 8

$$$$
=
 OpenBabel11052417573D

 31 33  0  0  1  0  0  0  0  0999 V2000
  191.3300  176.8720  147.5590 C   0  0  0  0  0  0  0  0  0  0  0  0
  188.5850  176.0430  145.0600 C   0  0  2  0  0  3  0  0  0  0  0  0
  187.4830  177.0360  145.2880 C   0  0  1  0  0  3  0  0  0  0  0  0
  189.9220  176.2550  145.6890 C   0  0  0  0  0  0  0  0  0  0  0  0
  192.4470  176.3630  146.8870 C   0  0  0  0  0  3  0  0  0  0  0  0
  189.5120  174.9560  143.1650 N   0  0  0  0  0  0  0  0  0  0  0  0
  191.5130  177.5780  149.1490 Cl  0  0  0  0  0  0  0  0  0  0  0  0
  187.2810  176.1840  143.1890 C   0  0  2  0  0  3  0  0  0  0  0  0
  190.9090  175.1410  143.6160 C   0  0  0  0  0  2  0  0  0  0  0  0
  188.7380  176.1280  143.5930 C   0  0  1  0  0  3  0  0  0  0  0  0
  190.0650  176.8070  146.9670 C   0  0  0  0  0  3  0  0  0  0  0  0
  191.0420  175.7100  145.0230 C   0  0  0  0  0  0  0  0  0  0  0  0
  192.3040  175.7860  145.6210 C   0  0  0  0  0  3  0  0  0  0  0  0
  187.1280  176.9040  141.8630 C   0  0  0  0  0  1  0  0  0  0  0  0
  186.5920  176.9060  144.1940 O   0  0  0  0  0  0  0  0  0  0  0  0
  186.7880  176.7260  146.5280 N   0  0  0  0  0  2  0  0  0  0  0  0
  185.3620  176.8240  146.2630 C   0  0  0  0  0  2  0  0  0  0  0  0
  184.8510  178.1520  146.7050 C   0  0  0  0  0  0  0  0  0  0  0  0
  183.7000  178.6790  146.1330 O   0  0  0  0  0  0  0  0  0  0  0  0
  185.4410  178.7820  147.6210 O   0  0  0  0  0  1  0  0  0  0  0  0
  189.5570  174.9240  141.7080 C   0  0  0  0  0  2  0  0  0  0  0  0
  191.7400  173.3720  140.4680 C   0  0  0  0  0  1  0  0  0  0  0  0
  188.2160  172.9950  141.3780 O   0  0  0  0  0  0  0  0  0  0  0  0
  189.3490  173.5260  141.2220 C   0  0  0  0  0  0  0  0  0  0  0  0
  190.4010  172.8110  140.5440 N   0  0  0  0  0  0  0  0  0  0  0  0
  190.2120  171.6840  138.3710 C   0  0  0  0  0  1  0  0  0  0  0  0
  190.1790  171.5250  139.8820 C   0  0  1  0  0  3  0  0  0  0  0  0
  191.1950  170.4780  140.3260 C   0  0  0  0  0  2  0  0  0  0  0  0
  190.8030  169.8580  141.6590 C   0  0  1  0  0  3  0  0  0  0  0  0
  191.0460  168.3650  141.6040 C   0  0  0  0  0  1  0  0  0  0  0  0
  191.5700  170.4100  142.6860 O   0  0  0  0  0  1  0  0  0  0  0  0
  1  7  1  0  0  0  0
  2  3  1  0  0  0  0
  2  4  1  1  0  0  0
  3 16  1  1  0  0  0
  4 11  2  0  0  0  0
  5  1  2  0  0  0  0
  6  9  1  0  0  0  0
  8 14  1  6  0  0  0
  8 10  1  0  0  0  0
  8 15  1  0  0  0  0
  9 12  1  0  0  0  0
 10  6  1  6  0  0  0
 10  2  1  0  0  0  0
 11  1  1  0  0  0  0
 12 13  2  0  0  0  0
 12  4  1  0  0  0  0
 13  5  1  0  0  0  0
 15  3  1  0  0  0  0
 17 16  1  0  0  0  0
 17 18  1  0  0  0  0
 18 20  1  0  0  0  0
 19 18  2  0  0  0  0
 21  6  1  0  0  0  0
 22 25  1  0  0  0  0
 24 23  2  0  0  0  0
 24 21  1  0  0  0  0
 25 24  1  0  0  0  0
 27 26  1  6  0  0  0
 27 28  1  0  0  0  0
 27 25  1  0  0  0  0
 28 29  1  0  0  0  0
 29 30  1  6  0  0  0
 29 31  1  0  0  0  0
M  END
>  <MODEL>
7

>  <REMARK>
 VINA RESULT:      -6.4      4.109      5.838
  Name = 
  8 active torsions:
  status: ('A' for Active; 'I' for Inactive)
    1  A    between atoms: C_1  and  C_24
    2  A    between atoms: C_5  and  N_14
    3  A    between atoms: C_9  and  C_23
    4  A    between atoms: C_10  and  N_14
    5  A    between atoms: C_10  and  C_18
    6  A    between atoms: N_15  and  C_23
    7  A    between atoms: C_19  and  N_22
    8  A    between atoms: C_19  and  C_24
                            x       y       z     vdW  Elec       q    Type
                         _______ _______ _______ _____ _____    ______ ____

>  <TORSDO>
F 8

$$$$
=
 OpenBabel11052417573D

 31 33  0  0  1  0  0  0  0  0999 V2000
  191.4660  171.1640  142.9810 C   0  0  0  0  0  0  0  0  0  0  0  0
  191.4750  174.7030  144.3740 C   0  0  2  0  0  3  0  0  0  0  0  0
  192.9130  175.1280  144.4570 C   0  0  1  0  0  3  0  0  0  0  0  0
  191.1040  173.4720  143.6170 C   0  0  0  0  0  0  0  0  0  0  0  0
  190.1960  171.1260  142.3930 C   0  0  0  0  0  3  0  0  0  0  0  0
  189.4240  175.7820  143.8670 N   0  0  0  0  0  0  0  0  0  0  0  0
  192.4860  169.7440  142.9470 Cl  0  0  0  0  0  0  0  0  0  0  0  0
  191.6000  176.9840  144.4200 C   0  0  2  0  0  3  0  0  0  0  0  0
  188.9290  174.6680  143.0270 C   0  0  0  0  0  2  0  0  0  0  0  0
  190.8780  175.8700  143.6920 C   0  0  1  0  0  3  0  0  0  0  0  0
  191.9160  172.3320  143.6030 C   0  0  0  0  0  3  0  0  0  0  0  0
  189.8090  173.4260  143.0550 C   0  0  0  0  0  0  0  0  0  0  0  0
  189.3700  172.2540  142.4290 C   0  0  0  0  0  3  0  0  0  0  0  0
  191.6910  178.2160  143.5400 C   0  0  0  0  0  1  0  0  0  0  0  0
  192.9060  176.5210  144.7100 O   0  0  0  0  0  0  0  0  0  0  0  0
  193.5710  174.4310  145.5510 N   0  0  0  0  0  2  0  0  0  0  0  0
  194.8450  175.0920  145.7830 C   0  0  0  0  0  2  0  0  0  0  0  0
  195.9470  174.3100  145.1550 C   0  0  0  0  0  0  0  0  0  0  0  0
  195.9000  172.9220  145.1540 O   0  0  0  0  0  1  0  0  0  0  0  0
  196.9040  174.9060  144.5960 O   0  0  0  0  0  0  0  0  0  0  0  0
  188.8080  176.9940  143.3380 C   0  0  0  0  0  2  0  0  0  0  0  0
  186.1910  178.1770  142.6590 C   0  0  0  0  0  1  0  0  0  0  0  0
  188.3220  177.6060  145.5770 O   0  0  0  0  0  0  0  0  0  0  0  0
  187.9350  177.6170  144.3790 C   0  0  0  0  0  0  0  0  0  0  0  0
  186.6980  178.2650  144.0190 N   0  0  0  0  0  0  0  0  0  0  0  0
  185.1830  180.1820  144.2630 C   0  0  0  0  0  1  0  0  0  0  0  0
  185.9170  179.0560  144.9710 C   0  0  1  0  0  3  0  0  0  0  0  0
  184.9320  178.1910  145.7500 C   0  0  0  0  0  2  0  0  0  0  0  0
  185.1740  178.2900  147.2490 C   0  0  1  0  0  3  0  0  0  0  0  0
  185.9180  177.0580  147.7160 C   0  0  0  0  0  1  0  0  0  0  0  0
  185.9390  179.4220  147.5350 O   0  0  0  0  0  1  0  0  0  0  0  0
  1 11  1  0  0  0  0
  2  4  1  6  0  0  0
  2  3  1  0  0  0  0
  3 15  1  0  0  0  0
  3 16  1  1  0  0  0
  5 13  1  0  0  0  0
  5  1  2  0  0  0  0
  7  1  1  0  0  0  0
  8 14  1  6  0  0  0
  8 15  1  0  0  0  0
  9 12  1  0  0  0  0
  9  6  1  0  0  0  0
 10  6  1  1  0  0  0
 10  2  1  0  0  0  0
 10  8  1  0  0  0  0
 11  4  2  0  0  0  0
 12  4  1  0  0  0  0
 13 12  2  0  0  0  0
 16 17  1  0  0  0  0
 18 17  1  0  0  0  0
 19 18  1  0  0  0  0
 20 18  2  0  0  0  0
 21  6  1  0  0  0  0
 21 24  1  0  0  0  0
 22 25  1  0  0  0  0
 24 23  2  0  0  0  0
 25 24  1  0  0  0  0
 25 27  1  0  0  0  0
 27 26  1  6  0  0  0
 27 28  1  0  0  0  0
 28 29  1  0  0  0  0
 29 31  1  0  0  0  0
 29 30  1  6  0  0  0
M  END
>  <MODEL>
8

>  <REMARK>
 VINA RESULT:      -6.4      3.535      8.710
  Name = 
  8 active torsions:
  status: ('A' for Active; 'I' for Inactive)
    1  A    between atoms: C_1  and  C_24
    2  A    between atoms: C_5  and  N_14
    3  A    between atoms: C_9  and  C_23
    4  A    between atoms: C_10  and  N_14
    5  A    between atoms: C_10  and  C_18
    6  A    between atoms: N_15  and  C_23
    7  A    between atoms: C_19  and  N_22
    8  A    between atoms: C_19  and  C_24
                            x       y       z     vdW  Elec       q    Type
                         _______ _______ _______ _____ _____    ______ ____

>  <TORSDO>
F 8

$$$$
=
 OpenBabel11052417573D

 31 33  0  0  1  0  0  0  0  0999 V2000
  190.2420  171.6180  140.2790 C   0  0  0  0  0  0  0  0  0  0  0  0
  190.6590  174.0270  143.1920 C   0  0  2  0  0  3  0  0  0  0  0  0
  192.0590  173.8440  143.7030 C   0  0  1  0  0  3  0  0  0  0  0  0
  190.2590  173.4290  141.8850 C   0  0  0  0  0  0  0  0  0  0  0  0
  189.2440  172.2730  139.5490 C   0  0  0  0  0  3  0  0  0  0  0  0
  189.1790  175.8660  142.9460 N   0  0  0  0  0  0  0  0  0  0  0  0
  190.8580  170.0760  139.7280 Cl  0  0  0  0  0  0  0  0  0  0  0  0
  191.2980  175.8860  144.3580 C   0  0  2  0  0  3  0  0  0  0  0  0
  188.7180  175.4440  141.6030 C   0  0  0  0  0  2  0  0  0  0  0  0
  190.5940  175.4990  143.0750 C   0  0  1  0  0  3  0  0  0  0  0  0
  190.7420  172.1890  141.4530 C   0  0  0  0  0  3  0  0  0  0  0  0
  189.2270  174.0760  141.1690 C   0  0  0  0  0  0  0  0  0  0  0  0
  188.7390  173.5000  139.9910 C   0  0  0  0  0  3  0  0  0  0  0  0
  191.9450  177.2500  144.2130 C   0  0  0  0  0  1  0  0  0  0  0  0
  192.3040  174.9170  144.5950 O   0  0  0  0  0  0  0  0  0  0  0  0
  192.1640  172.5800  144.4130 N   0  0  0  0  0  2  0  0  0  0  0  0
  193.4590  172.0040  144.0880 C   0  0  0  0  0  2  0  0  0  0  0  0
  194.3290  171.9890  145.2980 C   0  0  0  0  0  0  0  0  0  0  0  0
  194.8940  173.1710  145.7610 O   0  0  0  0  0  0  0  0  0  0  0  0
  194.5250  170.9140  145.9200 O   0  0  0  0  0  1  0  0  0  0  0  0
  189.0610  177.3180  142.9780 C   0  0  0  0  0  2  0  0  0  0  0  0
  186.3610  178.3380  142.3590 C   0  0  0  0  0  1  0  0  0  0  0  0
  188.4710  177.6040  145.2570 O   0  0  0  0  0  0  0  0  0  0  0  0
  188.1110  177.7290  144.0560 C   0  0  0  0  0  0  0  0  0  0  0  0
  186.8270  178.3020  143.7360 N   0  0  0  0  0  0  0  0  0  0  0  0
  185.3010  180.1630  144.2230 C   0  0  0  0  0  1  0  0  0  0  0  0
  185.9550  178.8970  144.7500 C   0  0  1  0  0  3  0  0  0  0  0  0
  184.8930  177.9130  145.2290 C   0  0  0  0  0  2  0  0  0  0  0  0
  184.8830  177.8060  146.7460 C   0  0  1  0  0  3  0  0  0  0  0  0
  185.9010  176.7730  147.1790 C   0  0  0  0  0  1  0  0  0  0  0  0
  185.2110  179.0380  147.3140 O   0  0  0  0  0  1  0  0  0  0  0  0
  1 11  1  0  0  0  0
  2  4  1  6  0  0  0
  2  3  1  0  0  0  0
  3 16  1  1  0  0  0
  3 15  1  0  0  0  0
  5 13  1  0  0  0  0
  5  1  2  0  0  0  0
  6 21  1  0  0  0  0
  7  1  1  0  0  0  0
  8 14  1  6  0  0  0
  8 15  1  0  0  0  0
  9  6  1  0  0  0  0
 10  6  1  1  0  0  0
 10  2  1  0  0  0  0
 10  8  1  0  0  0  0
 11  4  2  0  0  0  0
 12  9  1  0  0  0  0
 12  4  1  0  0  0  0
 13 12  2  0  0  0  0
 17 16  1  0  0  0  0
 17 18  1  0  0  0  0
 18 19  2  0  0  0  0
 18 20  1  0  0  0  0
 21 24  1  0  0  0  0
 22 25  1  0  0  0  0
 24 23  2  0  0  0  0
 25 24  1  0  0  0  0
 25 27  1  0  0  0  0
 27 26  1  6  0  0  0
 27 28  1  0  0  0  0
 28 29  1  0  0  0  0
 29 30  1  6  0  0  0
 29 31  1  0  0  0  0
M  END
>  <MODEL>
9

>  <REMARK>
 VINA RESULT:      -6.3      3.798      8.752
  Name = 
  8 active torsions:
  status: ('A' for Active; 'I' for Inactive)
    1  A    between atoms: C_1  and  C_24
    2  A    between atoms: C_5  and  N_14
    3  A    between atoms: C_9  and  C_23
    4  A    between atoms: C_10  and  N_14
    5  A    between atoms: C_10  and  C_18
    6  A    between atoms: N_15  and  C_23
    7  A    between atoms: C_19  and  N_22
    8  A    between atoms: C_19  and  C_24
                            x       y       z     vdW  Elec       q    Type
                         _______ _______ _______ _____ _____    ______ ____

>  <TORSDO>
F 8

$$$$
