=
 OpenBabel11052418293D

 27 31  0  0  1  0  0  0  0  0999 V2000
  188.5700  175.9340  146.0560 C   0  0  0  0  0  3  0  0  0  0  0  0
  187.9700  175.7630  143.6150 C   0  0  0  0  0  0  0  0  0  0  0  0
  190.2440  174.7060  143.8160 C   0  0  0  0  0  3  0  0  0  0  0  0
  188.6030  174.5410  139.8620 N   0  0  0  0  0  0  0  0  0  0  0  0
  190.6950  173.5460  138.8890 C   0  0  0  0  0  1  0  0  0  0  0  0
  187.0050  176.1210  142.5300 C   0  0  0  0  0  3  0  0  0  0  0  0
  189.8720  173.3190  141.3000 C   0  0  0  0  0  0  0  0  0  0  0  0
  192.8180  176.4160  146.0060 C   0  0  0  0  0  3  0  0  0  0  0  0
  190.8100  172.5940  141.7250 O   0  0  0  0  0  0  0  0  0  0  0  0
  192.6150  176.3400  147.3190 C   0  0  0  0  0  3  0  0  0  0  0  0
  188.7230  173.8320  142.1070 C   0  0  2  0  0  3  0  0  0  0  0  0
  187.7820  176.2860  144.8570 C   0  0  0  0  0  0  0  0  0  0  0  0
  189.7150  173.7040  139.9480 N   0  0  0  0  0  0  0  0  0  0  0  0
  188.0400  174.6200  141.0260 C   0  0  0  0  0  0  0  0  0  0  0  0
  189.8560  175.6090  146.1530 C   0  0  0  0  0  0  0  0  0  0  0  0
  189.0370  174.7720  143.2490 C   0  0  0  0  0  0  0  0  0  0  0  0
  192.0090  175.8060  144.9400 C   0  0  0  0  0  3  0  0  0  0  0  0
  187.0660  175.6120  141.3350 N   0  0  0  0  0  0  0  0  0  0  0  0
  191.5220  175.6460  148.0130 C   0  0  0  0  0  3  0  0  0  0  0  0
  190.3290  175.3340  147.5130 C   0  0  0  0  0  3  0  0  0  0  0  0
  190.7230  175.4570  144.9720 C   0  0  0  0  0  0  0  0  0  0  0  0
  184.5790  178.9600  145.7450 C   0  0  0  0  0  3  0  0  0  0  0  0
  186.6620  177.2200  145.1340 C   0  0  0  0  0  0  0  0  0  0  0  0
  186.6910  178.5420  144.6690 C   0  0  0  0  0  3  0  0  0  0  0  0
  185.6450  179.4160  144.9690 C   0  0  0  0  0  3  0  0  0  0  0  0
  184.5670  177.6790  146.2030 N   0  0  0  0  0  0  0  0  0  0  0  0
  185.5760  176.8130  145.9210 C   0  0  0  0  0  3  0  0  0  0  0  0
  1 15  1  0  0  0  0
  2 12  1  0  0  0  0
  3 21  2  0  0  0  0
  4 13  1  0  0  0  0
  4 14  2  0  0  0  0
  5 13  1  0  0  0  0
  6  2  1  0  0  0  0
  7  9  2  0  0  0  0
  7 11  1  0  0  0  0
  8 10  1  0  0  0  0
 10 19  2  0  0  0  0
 11 14  1  6  0  0  0
 11 16  1  0  0  0  0
 12 23  1  0  0  0  0
 12  1  2  0  0  0  0
 13  7  1  0  0  0  0
 14 18  1  0  0  0  0
 15 20  2  0  0  0  0
 16  2  2  0  0  0  0
 16  3  1  0  0  0  0
 17 21  1  0  0  0  0
 17  8  2  0  0  0  0
 18  6  2  0  0  0  0
 20 19  1  0  0  0  0
 21 15  1  0  0  0  0
 22 26  1  0  0  0  0
 23 27  1  0  0  0  0
 24 25  1  0  0  0  0
 24 23  2  0  0  0  0
 25 22  2  0  0  0  0
 27 26  2  0  0  0  0
M  END
>  <MODEL>
1

>  <REMARK>
 VINA RESULT:      -8.3      0.000      0.000
  Name = 
  1 active torsions:
  status: ('A' for Active; 'I' for Inactive)
    1  A    between atoms: C_9  and  C_15
                            x       y       z     vdW  Elec       q    Type
                         _______ _______ _______ _____ _____    ______ ____

>  <TORSDO>
F 1

$$$$
=
 OpenBabel11052418293D

 27 31  0  0  1  0  0  0  0  0999 V2000
  186.5210  176.5290  144.2560 C   0  0  0  0  0  3  0  0  0  0  0  0
  188.9800  176.5150  143.7050 C   0  0  0  0  0  0  0  0  0  0  0  0
  188.8610  176.7190  146.2100 C   0  0  0  0  0  3  0  0  0  0  0  0
  192.8550  176.4580  144.6830 N   0  0  0  0  0  0  0  0  0  0  0  0
  193.8880  176.8300  146.9430 C   0  0  0  0  0  1  0  0  0  0  0  0
  190.0290  176.5290  142.6390 C   0  0  0  0  0  3  0  0  0  0  0  0
  191.5970  175.8010  146.4600 C   0  0  0  0  0  0  0  0  0  0  0  0
  186.2840  179.0670  147.6880 C   0  0  0  0  0  3  0  0  0  0  0  0
  191.2630  175.5790  147.6540 O   0  0  0  0  0  0  0  0  0  0  0  0
  185.0150  178.6700  147.6130 C   0  0  0  0  0  3  0  0  0  0  0  0
  190.7680  175.5200  145.2480 C   0  0  2  0  0  3  0  0  0  0  0  0
  187.6760  176.6460  143.3400 C   0  0  0  0  0  0  0  0  0  0  0  0
  192.8660  176.2880  146.0670 N   0  0  0  0  0  0  0  0  0  0  0  0
  191.7240  176.0380  144.2120 C   0  0  0  0  0  0  0  0  0  0  0  0
  186.4230  176.8780  145.5360 C   0  0  0  0  0  0  0  0  0  0  0  0
  189.4640  176.2720  145.1060 C   0  0  0  0  0  0  0  0  0  0  0  0
  187.4770  178.3340  147.2420 C   0  0  0  0  0  3  0  0  0  0  0  0
  191.2910  176.3390  142.8890 N   0  0  0  0  0  0  0  0  0  0  0  0
  184.5080  177.4130  147.0480 C   0  0  0  0  0  3  0  0  0  0  0  0
  185.1110  176.6410  146.1470 C   0  0  0  0  0  3  0  0  0  0  0  0
  187.5690  177.3900  146.3050 C   0  0  0  0  0  0  0  0  0  0  0  0
  186.5320  177.0890  139.2550 C   0  0  0  0  0  3  0  0  0  0  0  0
  187.2910  176.8300  141.9190 C   0  0  0  0  0  0  0  0  0  0  0  0
  186.4320  177.8670  141.5320 C   0  0  0  0  0  3  0  0  0  0  0  0
  186.0530  178.0030  140.1950 C   0  0  0  0  0  3  0  0  0  0  0  0
  187.3550  176.0780  139.6440 N   0  0  0  0  0  0  0  0  0  0  0  0
  187.7350  175.9290  140.9410 C   0  0  0  0  0  3  0  0  0  0  0  0
  1 15  1  0  0  0  0
  2 16  2  0  0  0  0
  3 21  2  0  0  0  0
  4 13  1  0  0  0  0
  6 18  2  0  0  0  0
  6  2  1  0  0  0  0
  7  9  2  0  0  0  0
 10  8  1  0  0  0  0
 11 14  1  6  0  0  0
 11  7  1  0  0  0  0
 12  2  1  0  0  0  0
 12  1  2  0  0  0  0
 13  7  1  0  0  0  0
 13  5  1  0  0  0  0
 14  4  2  0  0  0  0
 15 20  2  0  0  0  0
 15 21  1  0  0  0  0
 16 11  1  0  0  0  0
 16  3  1  0  0  0  0
 17  8  2  0  0  0  0
 18 14  1  0  0  0  0
 19 10  2  0  0  0  0
 20 19  1  0  0  0  0
 21 17  1  0  0  0  0
 22 26  2  0  0  0  0
 22 25  1  0  0  0  0
 23 12  1  0  0  0  0
 24 23  1  0  0  0  0
 25 24  2  0  0  0  0
 26 27  1  0  0  0  0
 27 23  2  0  0  0  0
M  END
>  <MODEL>
2

>  <REMARK>
 VINA RESULT:      -7.9      2.892      5.469
  Name = 
  1 active torsions:
  status: ('A' for Active; 'I' for Inactive)
    1  A    between atoms: C_9  and  C_15
                            x       y       z     vdW  Elec       q    Type
                         _______ _______ _______ _____ _____    ______ ____

>  <TORSDO>
F 1

$$$$
=
 OpenBabel11052418293D

 27 31  0  0  1  0  0  0  0  0999 V2000
  188.8010  175.4090  145.0180 C   0  0  0  0  0  3  0  0  0  0  0  0
  188.8380  174.4590  142.6840 C   0  0  0  0  0  0  0  0  0  0  0  0
  190.6930  173.2820  143.9100 C   0  0  0  0  0  3  0  0  0  0  0  0
  190.1480  171.9260  139.8830 N   0  0  0  0  0  0  0  0  0  0  0  0
  192.1520  170.4140  139.9770 C   0  0  0  0  0  1  0  0  0  0  0  0
  188.2930  174.5230  141.2930 C   0  0  0  0  0  3  0  0  0  0  0  0
  190.6980  171.1510  141.9480 C   0  0  0  0  0  0  0  0  0  0  0  0
  192.9130  175.3390  146.1860 C   0  0  0  0  0  3  0  0  0  0  0  0
  191.3110  170.5170  142.8480 O   0  0  0  0  0  0  0  0  0  0  0  0
  192.3620  175.7570  147.3240 C   0  0  0  0  0  3  0  0  0  0  0  0
  189.5190  172.0470  142.1510 C   0  0  2  0  0  3  0  0  0  0  0  0
  188.4510  175.4050  143.5820 C   0  0  0  0  0  0  0  0  0  0  0  0
  190.9880  171.0500  140.5670 N   0  0  0  0  0  0  0  0  0  0  0  0
  189.3320  172.4760  140.7250 C   0  0  0  0  0  0  0  0  0  0  0  0
  189.9140  174.9900  145.6140 C   0  0  0  0  0  0  0  0  0  0  0  0
  189.7210  173.2850  142.9950 C   0  0  0  0  0  0  0  0  0  0  0  0
  192.2980  174.4920  145.1540 C   0  0  0  0  0  3  0  0  0  0  0  0
  188.5520  173.6210  140.3920 N   0  0  0  0  0  0  0  0  0  0  0  0
  191.0020  175.4850  147.8060 C   0  0  0  0  0  3  0  0  0  0  0  0
  189.9430  175.1600  147.0700 C   0  0  0  0  0  3  0  0  0  0  0  0
  191.0040  174.3310  144.8760 C   0  0  0  0  0  0  0  0  0  0  0  0
  185.8320  178.5480  142.3730 C   0  0  0  0  0  3  0  0  0  0  0  0
  187.5290  176.5010  143.1920 C   0  0  0  0  0  0  0  0  0  0  0  0
  186.1420  176.3670  143.3440 C   0  0  0  0  0  3  0  0  0  0  0  0
  185.2880  177.3940  142.9390 C   0  0  0  0  0  3  0  0  0  0  0  0
  187.1790  178.6620  142.2170 N   0  0  0  0  0  0  0  0  0  0  0  0
  188.0270  177.6730  142.6050 C   0  0  0  0  0  3  0  0  0  0  0  0
  1 15  1  0  0  0  0
  2 16  2  0  0  0  0
  2 12  1  0  0  0  0
  3 21  2  0  0  0  0
  4 13  1  0  0  0  0
  4 14  2  0  0  0  0
  5 13  1  0  0  0  0
  6  2  1  0  0  0  0
  7 11  1  0  0  0  0
  7  9  2  0  0  0  0
  8 10  1  0  0  0  0
 10 19  2  0  0  0  0
 11 14  1  6  0  0  0
 11 16  1  0  0  0  0
 12  1  2  0  0  0  0
 13  7  1  0  0  0  0
 15 20  2  0  0  0  0
 16  3  1  0  0  0  0
 17  8  2  0  0  0  0
 18 14  1  0  0  0  0
 18  6  2  0  0  0  0
 20 19  1  0  0  0  0
 21 17  1  0  0  0  0
 21 15  1  0  0  0  0
 22 25  1  0  0  0  0
 23 24  1  0  0  0  0
 23 12  1  0  0  0  0
 25 24  2  0  0  0  0
 26 22  2  0  0  0  0
 26 27  1  0  0  0  0
 27 23  2  0  0  0  0
M  END
>  <MODEL>
3

>  <REMARK>
 VINA RESULT:      -7.7      1.890      2.430
  Name = 
  1 active torsions:
  status: ('A' for Active; 'I' for Inactive)
    1  A    between atoms: C_9  and  C_15
                            x       y       z     vdW  Elec       q    Type
                         _______ _______ _______ _____ _____    ______ ____

>  <TORSDO>
F 1

$$$$
=
 OpenBabel11052418293D

 27 31  0  0  1  0  0  0  0  0999 V2000
  189.5800  175.9640  145.9510 C   0  0  0  0  0  3  0  0  0  0  0  0
  188.5840  175.6230  143.6620 C   0  0  0  0  0  0  0  0  0  0  0  0
  190.9490  174.7840  143.4910 C   0  0  0  0  0  3  0  0  0  0  0  0
  188.6700  174.2820  139.8970 N   0  0  0  0  0  0  0  0  0  0  0  0
  190.6470  173.4310  138.6010 C   0  0  0  0  0  1  0  0  0  0  0  0
  187.4150  175.8420  142.7550 C   0  0  0  0  0  3  0  0  0  0  0  0
  190.2810  173.2490  141.1260 C   0  0  0  0  0  0  0  0  0  0  0  0
  193.6880  176.8190  145.1330 C   0  0  0  0  0  3  0  0  0  0  0  0
  191.3440  172.6320  141.4000 O   0  0  0  0  0  0  0  0  0  0  0  0
  193.7240  176.7890  146.4630 C   0  0  0  0  0  3  0  0  0  0  0  0
  189.2450  173.6970  142.1070 C   0  0  2  0  0  3  0  0  0  0  0  0
  188.5650  176.1870  144.9000 C   0  0  0  0  0  0  0  0  0  0  0  0
  189.8550  173.5530  139.8110 N   0  0  0  0  0  0  0  0  0  0  0  0
  188.3130  174.3670  141.1400 C   0  0  0  0  0  0  0  0  0  0  0  0
  190.8880  175.7600  145.8280 C   0  0  0  0  0  0  0  0  0  0  0  0
  189.6610  174.7140  143.1450 C   0  0  0  0  0  0  0  0  0  0  0  0
  192.7690  176.0890  144.2480 C   0  0  0  0  0  3  0  0  0  0  0  0
  187.3170  175.2830  141.5840 N   0  0  0  0  0  0  0  0  0  0  0  0
  192.8400  176.0350  147.3610 C   0  0  0  0  0  3  0  0  0  0  0  0
  191.6140  175.5950  147.0920 C   0  0  0  0  0  3  0  0  0  0  0  0
  191.5470  175.6290  144.5190 C   0  0  0  0  0  0  0  0  0  0  0  0
  185.2540  178.6020  146.0840 C   0  0  0  0  0  3  0  0  0  0  0  0
  187.4260  177.0300  145.3420 C   0  0  0  0  0  0  0  0  0  0  0  0
  186.5840  176.6170  146.3840 C   0  0  0  0  0  3  0  0  0  0  0  0
  185.4960  177.4060  146.7620 C   0  0  0  0  0  3  0  0  0  0  0  0
  186.0690  178.9860  145.0650 N   0  0  0  0  0  0  0  0  0  0  0  0
  187.1330  178.2310  144.6820 C   0  0  0  0  0  3  0  0  0  0  0  0
  2 12  1  0  0  0  0
  3 21  2  0  0  0  0
  4 14  2  0  0  0  0
  5 13  1  0  0  0  0
  6  2  1  0  0  0  0
  7  9  2  0  0  0  0
  8 10  1  0  0  0  0
 10 19  2  0  0  0  0
 11  7  1  6  0  0  0
 11 16  1  0  0  0  0
 12 23  1  0  0  0  0
 12  1  2  0  0  0  0
 13  4  1  0  0  0  0
 13  7  1  0  0  0  0
 14 18  1  0  0  0  0
 14 11  1  0  0  0  0
 15  1  1  0  0  0  0
 15 20  2  0  0  0  0
 16  3  1  0  0  0  0
 16  2  2  0  0  0  0
 17 21  1  0  0  0  0
 17  8  2  0  0  0  0
 18  6  2  0  0  0  0
 20 19  1  0  0  0  0
 21 15  1  0  0  0  0
 22 25  1  0  0  0  0
 23 24  1  0  0  0  0
 24 25  2  0  0  0  0
 26 22  2  0  0  0  0
 27 26  1  0  0  0  0
 27 23  2  0  0  0  0
M  END
>  <MODEL>
4

>  <REMARK>
 VINA RESULT:      -7.7      0.871      1.258
  Name = 
  1 active torsions:
  status: ('A' for Active; 'I' for Inactive)
    1  A    between atoms: C_9  and  C_15
                            x       y       z     vdW  Elec       q    Type
                         _______ _______ _______ _____ _____    ______ ____

>  <TORSDO>
F 1

$$$$
=
 OpenBabel11052418293D

 27 31  0  0  1  0  0  0  0  0999 V2000
  187.7810  176.7380  142.8100 C   0  0  0  0  0  3  0  0  0  0  0  0
  189.2130  176.8710  144.8780 C   0  0  0  0  0  0  0  0  0  0  0  0
  190.6360  175.7130  143.1570 C   0  0  0  0  0  3  0  0  0  0  0  0
  192.6390  176.3930  146.8830 N   0  0  0  0  0  0  0  0  0  0  0  0
  194.6900  175.1320  146.1660 C   0  0  0  0  0  1  0  0  0  0  0  0
  189.2980  177.2320  146.3270 C   0  0  0  0  0  3  0  0  0  0  0  0
  193.0380  176.3550  144.6440 C   0  0  0  0  0  0  0  0  0  0  0  0
  189.0110  173.0760  140.9790 C   0  0  0  0  0  3  0  0  0  0  0  0
  193.6110  176.1070  143.5500 O   0  0  0  0  0  0  0  0  0  0  0  0
  188.1660  173.5190  140.0510 C   0  0  0  0  0  3  0  0  0  0  0  0
  191.7640  177.1170  144.8170 C   0  0  2  0  0  3  0  0  0  0  0  0
  188.0050  176.9420  144.2570 C   0  0  0  0  0  0  0  0  0  0  0  0
  193.5640  176.0110  145.9120 N   0  0  0  0  0  0  0  0  0  0  0  0
  191.6520  177.0070  146.3100 C   0  0  0  0  0  0  0  0  0  0  0  0
  188.4090  175.9220  141.9670 C   0  0  0  0  0  0  0  0  0  0  0  0
  190.5120  176.5310  144.2050 C   0  0  0  0  0  0  0  0  0  0  0  0
  189.8080  173.8780  141.9180 C   0  0  0  0  0  3  0  0  0  0  0  0
  190.4220  177.2610  146.9820 N   0  0  0  0  0  0  0  0  0  0  0  0
  187.8160  174.9160  139.7600 C   0  0  0  0  0  3  0  0  0  0  0  0
  187.9150  175.9530  140.5870 C   0  0  0  0  0  3  0  0  0  0  0  0
  189.5660  175.1080  142.3720 C   0  0  0  0  0  0  0  0  0  0  0  0
  184.5350  178.0650  146.4680 C   0  0  0  0  0  3  0  0  0  0  0  0
  186.7830  177.3410  144.9980 C   0  0  0  0  0  0  0  0  0  0  0  0
  186.3110  178.6600  144.9550 C   0  0  0  0  0  3  0  0  0  0  0  0
  185.1800  179.0250  145.6870 C   0  0  0  0  0  3  0  0  0  0  0  0
  185.0100  176.7910  146.5130 N   0  0  0  0  0  0  0  0  0  0  0  0
  186.1100  176.4160  145.8080 C   0  0  0  0  0  3  0  0  0  0  0  0
  1 12  1  0  0  0  0
  2  6  1  0  0  0  0
  3 16  2  0  0  0  0
  6 18  2  0  0  0  0
  7 11  1  0  0  0  0
  7 13  1  0  0  0  0
  8 17  1  0  0  0  0
  9  7  2  0  0  0  0
 10  8  2  0  0  0  0
 11 16  1  6  0  0  0
 11 14  1  0  0  0  0
 12  2  2  0  0  0  0
 12 23  1  0  0  0  0
 13  5  1  0  0  0  0
 13  4  1  0  0  0  0
 14  4  2  0  0  0  0
 14 18  1  0  0  0  0
 15 21  1  0  0  0  0
 15  1  2  0  0  0  0
 16  2  1  0  0  0  0
 17 21  2  0  0  0  0
 19 10  1  0  0  0  0
 19 20  2  0  0  0  0
 20 15  1  0  0  0  0
 21  3  1  0  0  0  0
 22 26  1  0  0  0  0
 23 27  1  0  0  0  0
 24 23  2  0  0  0  0
 24 25  1  0  0  0  0
 25 22  2  0  0  0  0
 27 26  2  0  0  0  0
M  END
>  <MODEL>
5

>  <REMARK>
 VINA RESULT:      -7.4      2.835      5.212
  Name = 
  1 active torsions:
  status: ('A' for Active; 'I' for Inactive)
    1  A    between atoms: C_9  and  C_15
                            x       y       z     vdW  Elec       q    Type
                         _______ _______ _______ _____ _____    ______ ____

>  <TORSDO>
F 1

$$$$
=
 OpenBabel11052418293D

 27 31  0  0  1  0  0  0  0  0999 V2000
  190.4460  174.2920  143.4640 C   0  0  0  0  0  3  0  0  0  0  0  0
  190.1240  175.9740  145.3120 C   0  0  0  0  0  0  0  0  0  0  0  0
  187.8870  175.7990  144.1740 C   0  0  0  0  0  3  0  0  0  0  0  0
  187.9030  178.4170  147.5650 N   0  0  0  0  0  0  0  0  0  0  0  0
  185.5340  179.1590  147.1750 C   0  0  0  0  0  1  0  0  0  0  0  0
  190.7570  176.7880  146.3950 C   0  0  0  0  0  3  0  0  0  0  0  0
  186.5670  176.9190  146.4970 C   0  0  0  0  0  0  0  0  0  0  0  0
  187.8150  175.6730  140.3900 C   0  0  0  0  0  3  0  0  0  0  0  0
  185.5360  176.4160  145.9770 O   0  0  0  0  0  0  0  0  0  0  0  0
  188.2400  174.5420  139.8310 C   0  0  0  0  0  3  0  0  0  0  0  0
  187.9150  176.2780  146.5760 C   0  0  2  0  0  3  0  0  0  0  0  0
  190.9240  175.2370  144.4940 C   0  0  0  0  0  0  0  0  0  0  0  0
  186.5900  178.1630  147.1700 N   0  0  0  0  0  0  0  0  0  0  0  0
  188.6430  177.3990  147.2590 C   0  0  0  0  0  0  0  0  0  0  0  0
  189.3600  174.3590  142.6980 C   0  0  0  0  0  0  0  0  0  0  0  0
  188.6220  175.9790  145.2730 C   0  0  0  0  0  0  0  0  0  0  0  0
  187.6920  175.9700  141.8240 C   0  0  0  0  0  3  0  0  0  0  0  0
  190.0660  177.4640  147.2650 N   0  0  0  0  0  0  0  0  0  0  0  0
  188.7060  173.3300  140.5180 C   0  0  0  0  0  3  0  0  0  0  0  0
  189.1940  173.2500  141.7530 C   0  0  0  0  0  3  0  0  0  0  0  0
  188.3560  175.4250  142.8440 C   0  0  0  0  0  0  0  0  0  0  0  0
  195.1620  175.3840  144.9480 C   0  0  0  0  0  3  0  0  0  0  0  0
  192.4000  175.2570  144.6450 C   0  0  0  0  0  0  0  0  0  0  0  0
  193.0370  174.4680  145.6130 C   0  0  0  0  0  3  0  0  0  0  0  0
  194.4240  174.5250  145.7640 C   0  0  0  0  0  3  0  0  0  0  0  0
  194.5320  176.1550  144.0220 N   0  0  0  0  0  0  0  0  0  0  0  0
  193.1830  176.1130  143.8600 C   0  0  0  0  0  3  0  0  0  0  0  0
  1 12  1  0  0  0  0
  2  6  1  0  0  0  0
  3 16  2  0  0  0  0
  6 18  2  0  0  0  0
  7 11  1  0  0  0  0
  7 13  1  0  0  0  0
  8 17  1  0  0  0  0
  9  7  2  0  0  0  0
 10  8  2  0  0  0  0
 10 19  1  0  0  0  0
 11 16  1  6  0  0  0
 11 14  1  0  0  0  0
 12 23  1  0  0  0  0
 12  2  2  0  0  0  0
 13  5  1  0  0  0  0
 13  4  1  0  0  0  0
 14 18  1  0  0  0  0
 14  4  2  0  0  0  0
 15 21  1  0  0  0  0
 15  1  2  0  0  0  0
 16  2  1  0  0  0  0
 17 21  2  0  0  0  0
 19 20  2  0  0  0  0
 20 15  1  0  0  0  0
 21  3  1  0  0  0  0
 22 25  1  0  0  0  0
 23 24  1  0  0  0  0
 24 25  2  0  0  0  0
 26 22  2  0  0  0  0
 27 26  1  0  0  0  0
 27 23  2  0  0  0  0
M  END
>  <MODEL>
6

>  <REMARK>
 VINA RESULT:      -7.1      3.076      7.140
  Name = 
  1 active torsions:
  status: ('A' for Active; 'I' for Inactive)
    1  A    between atoms: C_9  and  C_15
                            x       y       z     vdW  Elec       q    Type
                         _______ _______ _______ _____ _____    ______ ____

>  <TORSDO>
F 1

$$$$
=
 OpenBabel11052418293D

 27 31  0  0  1  0  0  0  0  0999 V2000
  190.9050  175.4400  143.6500 C   0  0  0  0  0  3  0  0  0  0  0  0
  188.9000  175.8540  142.1830 C   0  0  0  0  0  0  0  0  0  0  0  0
  188.3440  176.9300  144.3880 C   0  0  0  0  0  3  0  0  0  0  0  0
  185.3330  177.4770  141.3890 N   0  0  0  0  0  0  0  0  0  0  0  0
  183.7580  178.6110  142.9840 C   0  0  0  0  0  1  0  0  0  0  0  0
  188.2240  175.5910  140.8750 C   0  0  0  0  0  3  0  0  0  0  0  0
  186.3120  178.5660  143.1290 C   0  0  0  0  0  0  0  0  0  0  0  0
  189.2170  175.0540  147.5590 C   0  0  0  0  0  3  0  0  0  0  0  0
  186.4270  179.2620  144.1720 O   0  0  0  0  0  0  0  0  0  0  0  0
  190.5120  174.9870  147.8640 C   0  0  0  0  0  3  0  0  0  0  0  0
  187.4310  177.9470  142.3550 C   0  0  2  0  0  3  0  0  0  0  0  0
  190.0590  175.1990  142.4630 C   0  0  0  0  0  0  0  0  0  0  0  0
  185.0840  178.3220  142.4690 N   0  0  0  0  0  0  0  0  0  0  0  0
  186.6080  177.2640  141.3010 C   0  0  0  0  0  0  0  0  0  0  0  0
  190.5470  175.7800  144.8850 C   0  0  0  0  0  0  0  0  0  0  0  0
  188.2670  176.9000  143.0550 C   0  0  0  0  0  0  0  0  0  0  0  0
  188.6030  175.7560  146.4230 C   0  0  0  0  0  3  0  0  0  0  0  0
  187.1530  176.2240  140.4940 N   0  0  0  0  0  0  0  0  0  0  0  0
  191.6330  175.5810  147.1250 C   0  0  0  0  0  3  0  0  0  0  0  0
  191.6520  175.9190  145.8390 C   0  0  0  0  0  3  0  0  0  0  0  0
  189.1510  176.0730  145.2490 C   0  0  0  0  0  0  0  0  0  0  0  0
  191.7900  172.3710  139.7790 C   0  0  0  0  0  3  0  0  0  0  0  0
  190.6350  174.2180  141.5100 C   0  0  0  0  0  0  0  0  0  0  0  0
  189.9660  173.0240  141.2090 C   0  0  0  0  0  3  0  0  0  0  0  0
  190.5400  172.0980  140.3370 C   0  0  0  0  0  3  0  0  0  0  0  0
  192.4370  173.5280  140.0880 N   0  0  0  0  0  0  0  0  0  0  0  0
  191.8940  174.4420  140.9360 C   0  0  0  0  0  3  0  0  0  0  0  0
  1 15  1  0  0  0  0
  2 12  1  0  0  0  0
  2 16  2  0  0  0  0
  3 21  2  0  0  0  0
  4 13  1  0  0  0  0
  6  2  1  0  0  0  0
  7  9  2  0  0  0  0
  8 10  1  0  0  0  0
 11 14  1  6  0  0  0
 11 16  1  0  0  0  0
 11  7  1  0  0  0  0
 12  1  2  0  0  0  0
 13  5  1  0  0  0  0
 13  7  1  0  0  0  0
 14  4  2  0  0  0  0
 15 21  1  0  0  0  0
 15 20  2  0  0  0  0
 16  3  1  0  0  0  0
 17  8  2  0  0  0  0
 18  6  2  0  0  0  0
 18 14  1  0  0  0  0
 19 10  2  0  0  0  0
 20 19  1  0  0  0  0
 21 17  1  0  0  0  0
 22 26  2  0  0  0  0
 22 25  1  0  0  0  0
 23 12  1  0  0  0  0
 24 23  1  0  0  0  0
 25 24  2  0  0  0  0
 26 27  1  0  0  0  0
 27 23  2  0  0  0  0
M  END
>  <MODEL>
7

>  <REMARK>
 VINA RESULT:      -7.0      2.355      5.789
  Name = 
  1 active torsions:
  status: ('A' for Active; 'I' for Inactive)
    1  A    between atoms: C_9  and  C_15
                            x       y       z     vdW  Elec       q    Type
                         _______ _______ _______ _____ _____    ______ ____

>  <TORSDO>
F 1

$$$$
=
 OpenBabel11052418293D

 27 31  0  0  1  0  0  0  0  0999 V2000
  185.9390  176.9100  144.8190 C   0  0  0  0  0  3  0  0  0  0  0  0
  187.6090  176.1180  143.1060 C   0  0  0  0  0  0  0  0  0  0  0  0
  188.7660  175.8740  145.3260 C   0  0  0  0  0  3  0  0  0  0  0  0
  191.0880  174.4870  142.0030 N   0  0  0  0  0  0  0  0  0  0  0  0
  193.1050  174.0300  143.4290 C   0  0  0  0  0  1  0  0  0  0  0  0
  187.9420  175.9550  141.6570 C   0  0  0  0  0  3  0  0  0  0  0  0
  190.6620  174.0040  144.1840 C   0  0  0  0  0  0  0  0  0  0  0  0
  188.3830  178.6670  147.8540 C   0  0  0  0  0  3  0  0  0  0  0  0
  190.8670  173.6960  145.3880 O   0  0  0  0  0  0  0  0  0  0  0  0
  187.1900  178.7740  148.4350 C   0  0  0  0  0  3  0  0  0  0  0  0
  189.3310  174.2740  143.5590 C   0  0  2  0  0  3  0  0  0  0  0  0
  186.4670  176.7750  143.4440 C   0  0  0  0  0  0  0  0  0  0  0  0
  191.6730  174.0670  143.1960 N   0  0  0  0  0  0  0  0  0  0  0  0
  189.8090  174.5990  142.1730 C   0  0  0  0  0  0  0  0  0  0  0  0
  186.6000  177.0230  145.9670 C   0  0  0  0  0  0  0  0  0  0  0  0
  188.5440  175.4570  144.0770 C   0  0  0  0  0  0  0  0  0  0  0  0
  188.8160  177.6520  146.8830 C   0  0  0  0  0  3  0  0  0  0  0  0
  188.9740  175.2810  141.2420 N   0  0  0  0  0  0  0  0  0  0  0  0
  186.0180  177.9140  148.2260 C   0  0  0  0  0  3  0  0  0  0  0  0
  185.7580  177.1620  147.1600 C   0  0  0  0  0  3  0  0  0  0  0  0
  188.0680  176.9340  146.0450 C   0  0  0  0  0  0  0  0  0  0  0  0
  183.8990  178.5040  140.5100 C   0  0  0  0  0  3  0  0  0  0  0  0
  185.5760  177.3500  142.4060 C   0  0  0  0  0  0  0  0  0  0  0  0
  186.0270  177.5410  141.0930 C   0  0  0  0  0  3  0  0  0  0  0  0
  185.1860  178.1150  140.1380 C   0  0  0  0  0  3  0  0  0  0  0  0
  183.4760  178.3270  141.7910 N   0  0  0  0  0  0  0  0  0  0  0  0
  184.2800  177.7700  142.7350 C   0  0  0  0  0  3  0  0  0  0  0  0
  1 15  1  0  0  0  0
  2 12  1  0  0  0  0
  2 16  2  0  0  0  0
  3 21  2  0  0  0  0
  4 14  2  0  0  0  0
  4 13  1  0  0  0  0
  6  2  1  0  0  0  0
  7  9  2  0  0  0  0
  8 10  1  0  0  0  0
 11 14  1  6  0  0  0
 11 16  1  0  0  0  0
 11  7  1  0  0  0  0
 12  1  2  0  0  0  0
 13  5  1  0  0  0  0
 13  7  1  0  0  0  0
 15 21  1  0  0  0  0
 15 20  2  0  0  0  0
 16  3  1  0  0  0  0
 17  8  2  0  0  0  0
 18  6  2  0  0  0  0
 18 14  1  0  0  0  0
 19 10  2  0  0  0  0
 20 19  1  0  0  0  0
 21 17  1  0  0  0  0
 22 26  1  0  0  0  0
 23 27  1  0  0  0  0
 23 12  1  0  0  0  0
 24 23  2  0  0  0  0
 25 22  2  0  0  0  0
 25 24  1  0  0  0  0
 26 27  2  0  0  0  0
M  END
>  <MODEL>
8

>  <REMARK>
 VINA RESULT:      -6.8      2.453      3.774
  Name = 
  1 active torsions:
  status: ('A' for Active; 'I' for Inactive)
    1  A    between atoms: C_9  and  C_15
                            x       y       z     vdW  Elec       q    Type
                         _______ _______ _______ _____ _____    ______ ____

>  <TORSDO>
F 1

$$$$
=
 OpenBabel11052418293D

 27 31  0  0  1  0  0  0  0  0999 V2000
  190.6590  175.9730  143.5770 C   0  0  0  0  0  3  0  0  0  0  0  0
  188.2210  176.3170  143.0420 C   0  0  0  0  0  0  0  0  0  0  0  0
  188.5310  177.2440  145.3600 C   0  0  0  0  0  3  0  0  0  0  0  0
  184.5610  177.7220  143.8210 N   0  0  0  0  0  0  0  0  0  0  0  0
  183.6910  178.6660  145.9810 C   0  0  0  0  0  1  0  0  0  0  0  0
  187.0980  176.0710  142.0860 C   0  0  0  0  0  3  0  0  0  0  0  0
  186.0940  178.7920  145.1140 C   0  0  0  0  0  0  0  0  0  0  0  0
  190.6660  175.2830  147.7960 C   0  0  0  0  0  3  0  0  0  0  0  0
  186.5800  179.4440  146.0770 O   0  0  0  0  0  0  0  0  0  0  0  0
  191.9770  175.2910  147.5660 C   0  0  0  0  0  3  0  0  0  0  0  0
  186.8460  178.2910  143.9230 C   0  0  2  0  0  3  0  0  0  0  0  0
  189.4250  175.7310  142.8000 C   0  0  0  0  0  0  0  0  0  0  0  0
  184.7190  178.4950  144.9700 N   0  0  0  0  0  0  0  0  0  0  0  0
  185.7060  177.6040  143.2280 C   0  0  0  0  0  0  0  0  0  0  0  0
  190.8010  176.2270  144.8750 C   0  0  0  0  0  0  0  0  0  0  0  0
  187.9370  177.2720  144.1640 C   0  0  0  0  0  0  0  0  0  0  0  0
  189.6230  175.9940  147.0420 C   0  0  0  0  0  3  0  0  0  0  0  0
  185.9360  176.6450  142.2000 N   0  0  0  0  0  0  0  0  0  0  0  0
  192.6890  175.9980  146.4930 C   0  0  0  0  0  3  0  0  0  0  0  0
  192.1850  176.3980  145.3290 C   0  0  0  0  0  3  0  0  0  0  0  0
  189.6490  176.4040  145.7740 C   0  0  0  0  0  0  0  0  0  0  0  0
  190.0200  173.1020  139.4940 C   0  0  0  0  0  3  0  0  0  0  0  0
  189.6240  174.8410  141.6290 C   0  0  0  0  0  0  0  0  0  0  0  0
  188.5670  174.5490  140.7560 C   0  0  0  0  0  3  0  0  0  0  0  0
  188.7630  173.6810  139.6810 C   0  0  0  0  0  3  0  0  0  0  0  0
  191.0350  173.3820  140.3550 N   0  0  0  0  0  0  0  0  0  0  0  0
  190.8630  174.2240  141.4080 C   0  0  0  0  0  3  0  0  0  0  0  0
  1 15  1  0  0  0  0
  2 16  2  0  0  0  0
  3 21  2  0  0  0  0
  4 13  1  0  0  0  0
  6 18  2  0  0  0  0
  6  2  1  0  0  0  0
  7  9  2  0  0  0  0
 10  8  1  0  0  0  0
 11 14  1  6  0  0  0
 11 16  1  0  0  0  0
 11  7  1  0  0  0  0
 12  2  1  0  0  0  0
 12  1  2  0  0  0  0
 13  7  1  0  0  0  0
 13  5  1  0  0  0  0
 14  4  2  0  0  0  0
 15 20  2  0  0  0  0
 15 21  1  0  0  0  0
 16  3  1  0  0  0  0
 17  8  2  0  0  0  0
 18 14  1  0  0  0  0
 19 10  2  0  0  0  0
 20 19  1  0  0  0  0
 21 17  1  0  0  0  0
 22 25  2  0  0  0  0
 22 26  1  0  0  0  0
 23 12  1  0  0  0  0
 24 23  2  0  0  0  0
 25 24  1  0  0  0  0
 26 27  2  0  0  0  0
 27 23  1  0  0  0  0
M  END
>  <MODEL>
9

>  <REMARK>
 VINA RESULT:      -6.7      2.145      5.758
  Name = 
  1 active torsions:
  status: ('A' for Active; 'I' for Inactive)
    1  A    between atoms: C_9  and  C_15
                            x       y       z     vdW  Elec       q    Type
                         _______ _______ _______ _____ _____    ______ ____

>  <TORSDO>
F 1

$$$$
