=
 OpenBabel11052418443D

 34 40  0  0  1  0  0  0  0  0999 V2000
  189.2820  174.3410  142.2320 C   0  0  0  0  0  0  0  0  0  0  0  0
  190.9090  173.1010  143.5180 C   0  0  0  0  0  0  0  0  0  0  0  0
  189.4560  174.8030  144.6280 C   0  0  0  0  0  0  0  0  0  0  0  0
  189.8070  175.5540  147.1080 C   0  0  1  0  0  0  0  0  0  0  0  0
  190.6590  172.7590  141.1760 N   0  0  0  0  0  0  0  0  0  0  0  0
  191.2770  172.4510  142.3420 C   0  0  0  0  0  3  0  0  0  0  0  0
  191.0520  175.8220  146.1760 C   0  0  2  0  0  0  0  0  0  0  0  0
  189.8920  174.0810  143.4830 C   0  0  0  0  0  0  0  0  0  0  0  0
  190.8310  176.5840  147.4500 C   0  0  0  0  0  2  0  0  0  0  0  0
  189.6900  173.6730  141.1230 N   0  0  0  0  0  0  0  0  0  0  0  0
  188.3910  175.7140  144.5120 C   0  0  0  0  0  0  0  0  0  0  0  0
  188.2600  175.2790  142.1270 C   0  0  0  0  0  3  0  0  0  0  0  0
  191.5310  172.7400  144.6660 F   0  0  0  0  0  0  0  0  0  0  0  0
  188.5960  176.3370  146.8280 N   0  0  0  0  0  0  0  0  0  0  0  0
  187.9300  176.4460  145.7150 C   0  0  0  0  0  0  0  0  0  0  0  0
  190.1470  174.6290  145.9580 C   0  0  2  0  0  3  0  0  0  0  0  0
  187.8200  175.9580  143.2570 C   0  0  0  0  0  3  0  0  0  0  0  0
  185.4920  179.2580  144.9310 C   0  0  0  0  0  0  0  0  0  0  0  0
  184.3850  178.8760  145.6930 C   0  0  0  0  0  3  0  0  0  0  0  0
  186.7200  177.3080  145.7160 C   0  0  0  0  0  0  0  0  0  0  0  0
  184.4360  177.7100  146.4590 C   0  0  0  0  0  3  0  0  0  0  0  0
  186.6500  178.4760  144.9390 C   0  0  0  0  0  3  0  0  0  0  0  0
  185.5950  176.9280  146.4670 C   0  0  0  0  0  3  0  0  0  0  0  0
  185.4400  180.4140  144.1640 O   0  0  0  0  0  1  0  0  0  0  0  0
  192.2960  175.1880  146.4500 O   0  0  0  0  0  0  0  0  0  0  0  0
  193.1910  175.6170  144.3590 N   0  0  0  0  0  0  0  0  0  0  0  0
  193.3580  175.2670  145.5710 N   0  0  0  0  0  0  0  0  0  0  0  0
  196.0720  177.1200  144.2350 O   0  0  0  0  0  1  0  0  0  0  0  0
  194.3170  175.6920  143.4440 C   0  0  1  0  0  3  0  0  0  0  0  0
  195.6190  175.8020  144.2540 C   0  0  1  0  0  3  0  0  0  0  0  0
  196.1970  173.6420  144.0330 C   0  0  0  0  0  2  0  0  0  0  0  0
  194.9770  173.2470  143.1870 C   0  0  0  0  0  2  0  0  0  0  0  0
  194.3330  174.4660  142.5180 C   0  0  0  0  0  2  0  0  0  0  0  0
  196.6180  174.9530  143.7450 O   0  0  0  0  0  0  0  0  0  0  0  0
  1  8  1  0  0  0  0
  2 13  1  0  0  0  0
  4  9  1  1  0  0  0
  5  6  1  0  0  0  0
  6  2  2  0  0  0  0
  7 25  1  1  0  0  0
  7  4  1  0  0  0  0
  7  9  1  0  0  0  0
  8  2  1  0  0  0  0
  8  3  2  0  0  0  0
 10  5  2  0  0  0  0
 10  1  1  0  0  0  0
 11  3  1  0  0  0  0
 11 15  1  0  0  0  0
 12  1  2  0  0  0  0
 12 17  1  0  0  0  0
 14  4  1  0  0  0  0
 15 20  1  0  0  0  0
 15 14  2  0  0  0  0
 16  3  1  6  0  0  0
 16  7  1  0  0  0  0
 16  4  1  0  0  0  0
 17 11  2  0  0  0  0
 18 22  2  0  0  0  0
 18 19  1  0  0  0  0
 19 21  2  0  0  0  0
 20 23  2  0  0  0  0
 21 23  1  0  0  0  0
 22 20  1  0  0  0  0
 24 18  1  0  0  0  0
 26 27  2  0  0  0  0
 27 25  1  0  0  0  0
 29 30  1  0  0  0  0
 29 26  1  1  0  0  0
 30 28  1  6  0  0  0
 32 31  1  0  0  0  0
 33 32  1  0  0  0  0
 33 29  1  0  0  0  0
 34 31  1  0  0  0  0
 34 30  1  0  0  0  0
M  END
>  <MODEL>
1

>  <REMARK>
 VINA RESULT:      -8.8      0.000      0.000
  Name = 
  4 active torsions:
  status: ('A' for Active; 'I' for Inactive)
    1  A    between atoms: N_3  and  C_13
    2  A    between atoms: C_10  and  O_29
    3  A    between atoms: C_12  and  C_28
    4  A    between atoms: N_17  and  O_29
                            x       y       z     vdW  Elec       q    Type
                         _______ _______ _______ _____ _____    ______ ____

>  <TORSDO>
F 4

$$$$
=
 OpenBabel11052418443D

 34 40  0  0  1  0  0  0  0  0999 V2000
  190.2750  174.4780  142.3360 C   0  0  0  0  0  0  0  0  0  0  0  0
  189.3630  176.5920  143.0690 C   0  0  0  0  0  0  0  0  0  0  0  0
  191.2280  175.5160  144.3360 C   0  0  0  0  0  0  0  0  0  0  0  0
  192.0710  176.4190  146.6400 C   0  0  1  0  0  0  0  0  0  0  0  0
  188.5070  175.4720  141.1510 N   0  0  0  0  0  0  0  0  0  0  0  0
  188.4750  176.5310  141.9980 C   0  0  0  0  0  3  0  0  0  0  0  0
  190.5500  175.9970  146.6360 C   0  0  2  0  0  0  0  0  0  0  0  0
  190.2900  175.5450  143.2660 C   0  0  0  0  0  0  0  0  0  0  0  0
  191.3570  176.0640  147.9010 C   0  0  0  0  0  2  0  0  0  0  0  0
  189.3820  174.4790  141.3140 N   0  0  0  0  0  0  0  0  0  0  0  0
  192.1580  174.4640  144.4170 C   0  0  0  0  0  0  0  0  0  0  0  0
  191.1740  173.4230  142.4560 C   0  0  0  0  0  3  0  0  0  0  0  0
  189.3170  177.6840  143.8710 F   0  0  0  0  0  0  0  0  0  0  0  0
  193.0530  175.3370  146.4730 N   0  0  0  0  0  0  0  0  0  0  0  0
  193.1440  174.4530  145.5230 C   0  0  0  0  0  0  0  0  0  0  0  0
  191.2110  176.5800  145.4050 C   0  0  2  0  0  3  0  0  0  0  0  0
  192.1060  173.4180  143.4870 C   0  0  0  0  0  3  0  0  0  0  0  0
  195.0690  171.1780  145.7040 C   0  0  0  0  0  0  0  0  0  0  0  0
  196.3870  171.6370  145.6720 C   0  0  0  0  0  3  0  0  0  0  0  0
  194.2550  173.4700  145.5980 C   0  0  0  0  0  0  0  0  0  0  0  0
  196.6460  173.0080  145.5950 C   0  0  0  0  0  3  0  0  0  0  0  0
  194.0090  172.0890  145.6620 C   0  0  0  0  0  3  0  0  0  0  0  0
  195.5860  173.9180  145.5540 C   0  0  0  0  0  3  0  0  0  0  0  0
  194.8100  169.8150  145.7750 O   0  0  0  0  0  1  0  0  0  0  0  0
  189.5430  176.9660  146.9030 O   0  0  0  0  0  0  0  0  0  0  0  0
  187.3970  177.7170  146.4770 N   0  0  0  0  0  0  0  0  0  0  0  0
  188.2230  176.7530  146.5570 N   0  0  0  0  0  0  0  0  0  0  0  0
  184.4590  178.4540  147.6630 O   0  0  0  0  0  1  0  0  0  0  0  0
  186.0090  177.4790  146.1150 C   0  0  1  0  0  3  0  0  0  0  0  0
  185.1710  178.7110  146.4920 C   0  0  1  0  0  3  0  0  0  0  0  0
  185.0700  179.5510  144.4110 C   0  0  0  0  0  2  0  0  0  0  0  0
  185.8870  178.4260  143.7560 C   0  0  0  0  0  2  0  0  0  0  0  0
  185.8960  177.1590  144.6180 C   0  0  0  0  0  2  0  0  0  0  0  0
  184.2760  179.0630  145.4640 O   0  0  0  0  0  0  0  0  0  0  0  0
  1 12  2  0  0  0  0
  1  8  1  0  0  0  0
  2  8  1  0  0  0  0
  2 13  1  0  0  0  0
  3 11  1  0  0  0  0
  4  9  1  1  0  0  0
  5 10  2  0  0  0  0
  5  6  1  0  0  0  0
  6  2  2  0  0  0  0
  7  4  1  0  0  0  0
  7 25  1  1  0  0  0
  7  9  1  0  0  0  0
  8  3  2  0  0  0  0
 10  1  1  0  0  0  0
 11 15  1  0  0  0  0
 12 17  1  0  0  0  0
 14  4  1  0  0  0  0
 15 20  1  0  0  0  0
 15 14  2  0  0  0  0
 16  3  1  6  0  0  0
 16  7  1  0  0  0  0
 16  4  1  0  0  0  0
 17 11  2  0  0  0  0
 18 24  1  0  0  0  0
 19 18  1  0  0  0  0
 20 22  1  0  0  0  0
 21 19  2  0  0  0  0
 22 18  2  0  0  0  0
 23 21  1  0  0  0  0
 23 20  2  0  0  0  0
 26 27  2  0  0  0  0
 27 25  1  0  0  0  0
 29 26  1  6  0  0  0
 29 30  1  0  0  0  0
 30 28  1  1  0  0  0
 31 34  1  0  0  0  0
 32 31  1  0  0  0  0
 32 33  1  0  0  0  0
 33 29  1  0  0  0  0
 34 30  1  0  0  0  0
M  END
>  <MODEL>
2

>  <REMARK>
 VINA RESULT:      -8.3      2.432      7.987
  Name = 
  4 active torsions:
  status: ('A' for Active; 'I' for Inactive)
    1  A    between atoms: N_3  and  C_13
    2  A    between atoms: C_10  and  O_29
    3  A    between atoms: C_12  and  C_28
    4  A    between atoms: N_17  and  O_29
                            x       y       z     vdW  Elec       q    Type
                         _______ _______ _______ _____ _____    ______ ____

>  <TORSDO>
F 4

$$$$
=
 OpenBabel11052418443D

 34 40  0  0  1  0  0  0  0  0999 V2000
  189.2400  173.6610  142.1100 C   0  0  0  0  0  0  0  0  0  0  0  0
  190.5370  172.4580  143.7540 C   0  0  0  0  0  0  0  0  0  0  0  0
  189.2610  174.5040  144.4060 C   0  0  0  0  0  0  0  0  0  0  0  0
  189.4940  175.6210  146.7580 C   0  0  1  0  0  0  0  0  0  0  0  0
  190.4540  171.7500  141.4840 N   0  0  0  0  0  0  0  0  0  0  0  0
  190.9100  171.5710  142.7480 C   0  0  0  0  0  3  0  0  0  0  0  0
  190.8450  175.5560  145.9450 C   0  0  2  0  0  0  0  0  0  0  0  0
  189.6870  173.5430  143.4480 C   0  0  0  0  0  0  0  0  0  0  0  0
  190.6250  176.5500  147.0480 C   0  0  0  0  0  2  0  0  0  0  0  0
  189.6420  172.7620  141.1750 N   0  0  0  0  0  0  0  0  0  0  0  0
  188.3610  175.5150  144.0250 C   0  0  0  0  0  0  0  0  0  0  0  0
  188.3840  174.6930  141.7390 C   0  0  0  0  0  3  0  0  0  0  0  0
  190.9910  172.2220  145.0100 F   0  0  0  0  0  0  0  0  0  0  0  0
  188.4440  176.4980  146.2190 N   0  0  0  0  0  0  0  0  0  0  0  0
  187.9070  176.4990  145.0340 C   0  0  0  0  0  0  0  0  0  0  0  0
  189.7940  174.4740  145.8170 C   0  0  2  0  0  3  0  0  0  0  0  0
  187.9490  175.6100  142.6890 C   0  0  0  0  0  3  0  0  0  0  0  0
  184.7490  178.5990  145.3350 C   0  0  0  0  0  0  0  0  0  0  0  0
  184.8900  179.4570  144.2420 C   0  0  0  0  0  3  0  0  0  0  0  0
  186.8450  177.5010  144.7590 C   0  0  0  0  0  0  0  0  0  0  0  0
  186.0080  179.3480  143.4110 C   0  0  0  0  0  3  0  0  0  0  0  0
  185.7230  177.6300  145.5940 C   0  0  0  0  0  3  0  0  0  0  0  0
  186.9810  178.3790  143.6700 C   0  0  0  0  0  3  0  0  0  0  0  0
  183.6420  178.7090  146.1660 O   0  0  0  0  0  1  0  0  0  0  0  0
  191.9490  174.8200  146.4580 O   0  0  0  0  0  0  0  0  0  0  0  0
  193.3290  174.3530  144.6600 N   0  0  0  0  0  0  0  0  0  0  0  0
  193.1790  174.8290  145.8310 N   0  0  0  0  0  0  0  0  0  0  0  0
  195.6610  176.5300  144.0250 O   0  0  0  0  0  1  0  0  0  0  0  0
  194.6310  174.3650  144.0130 C   0  0  1  0  0  3  0  0  0  0  0  0
  195.5540  175.3460  144.7540 C   0  0  1  0  0  3  0  0  0  0  0  0
  196.6690  173.7710  145.9040 C   0  0  0  0  0  2  0  0  0  0  0  0
  195.9010  172.5800  145.3090 C   0  0  0  0  0  2  0  0  0  0  0  0
  195.2240  172.9480  143.9840 C   0  0  0  0  0  2  0  0  0  0  0  0
  196.8340  174.7990  144.9580 O   0  0  0  0  0  0  0  0  0  0  0  0
  1  8  1  0  0  0  0
  2 13  1  0  0  0  0
  4  9  1  1  0  0  0
  5  6  1  0  0  0  0
  6  2  2  0  0  0  0
  7 25  1  1  0  0  0
  7  4  1  0  0  0  0
  7  9  1  0  0  0  0
  8  2  1  0  0  0  0
  8  3  2  0  0  0  0
 10  5  2  0  0  0  0
 10  1  1  0  0  0  0
 11  3  1  0  0  0  0
 11 15  1  0  0  0  0
 12  1  2  0  0  0  0
 12 17  1  0  0  0  0
 14  4  1  0  0  0  0
 15 14  2  0  0  0  0
 16  3  1  6  0  0  0
 16  7  1  0  0  0  0
 16  4  1  0  0  0  0
 17 11  2  0  0  0  0
 18 22  1  0  0  0  0
 18 24  1  0  0  0  0
 19 18  2  0  0  0  0
 20 15  1  0  0  0  0
 20 22  2  0  0  0  0
 21 23  2  0  0  0  0
 21 19  1  0  0  0  0
 23 20  1  0  0  0  0
 26 27  2  0  0  0  0
 27 25  1  0  0  0  0
 29 26  1  1  0  0  0
 29 30  1  0  0  0  0
 30 28  1  6  0  0  0
 30 34  1  0  0  0  0
 32 31  1  0  0  0  0
 33 29  1  0  0  0  0
 33 32  1  0  0  0  0
 34 31  1  0  0  0  0
M  END
>  <MODEL>
3

>  <REMARK>
 VINA RESULT:      -8.2      1.087      1.468
  Name = 
  4 active torsions:
  status: ('A' for Active; 'I' for Inactive)
    1  A    between atoms: N_3  and  C_13
    2  A    between atoms: C_10  and  O_29
    3  A    between atoms: C_12  and  C_28
    4  A    between atoms: N_17  and  O_29
                            x       y       z     vdW  Elec       q    Type
                         _______ _______ _______ _____ _____    ______ ____

>  <TORSDO>
F 4

$$$$
=
 OpenBabel11052418443D

 34 40  0  0  1  0  0  0  0  0999 V2000
  191.8090  176.7970  146.6300 C   0  0  0  0  0  0  0  0  0  0  0  0
  193.0920  176.1960  144.6740 C   0  0  0  0  0  0  0  0  0  0  0  0
  190.6200  176.5150  144.5110 C   0  0  0  0  0  0  0  0  0  0  0  0
  189.2620  175.9290  142.3550 C   0  0  1  0  0  0  0  0  0  0  0  0
  194.1290  176.4770  146.7980 N   0  0  0  0  0  0  0  0  0  0  0  0
  194.2310  176.1910  145.4760 C   0  0  0  0  0  3  0  0  0  0  0  0
  190.0280  174.7000  142.9820 C   0  0  2  0  0  0  0  0  0  0  0  0
  191.8370  176.4960  145.2480 C   0  0  0  0  0  0  0  0  0  0  0  0
  188.8370  174.5250  142.0840 C   0  0  0  0  0  2  0  0  0  0  0  0
  192.9550  176.7730  147.3560 N   0  0  0  0  0  0  0  0  0  0  0  0
  189.4250  176.8890  145.1510 C   0  0  0  0  0  0  0  0  0  0  0  0
  190.6100  177.1220  147.2580 C   0  0  0  0  0  3  0  0  0  0  0  0
  193.2440  175.9360  143.3520 F   0  0  0  0  0  0  0  0  0  0  0  0
  188.1570  176.4880  143.1460 N   0  0  0  0  0  0  0  0  0  0  0  0
  188.1660  176.9260  144.3710 C   0  0  0  0  0  0  0  0  0  0  0  0
  190.5910  176.1030  143.0600 C   0  0  2  0  0  3  0  0  0  0  0  0
  189.4310  177.1670  146.5240 C   0  0  0  0  0  3  0  0  0  0  0  0
  185.0500  179.0450  144.8890 C   0  0  0  0  0  0  0  0  0  0  0  0
  184.4480  178.3810  145.9610 C   0  0  0  0  0  3  0  0  0  0  0  0
  186.8930  177.4540  144.9250 C   0  0  0  0  0  0  0  0  0  0  0  0
  185.0570  177.2520  146.5120 C   0  0  0  0  0  3  0  0  0  0  0  0
  186.2630  178.5800  144.3720 C   0  0  0  0  0  3  0  0  0  0  0  0
  186.2700  176.7890  145.9950 C   0  0  0  0  0  3  0  0  0  0  0  0
  184.4430  180.1640  144.3360 O   0  0  0  0  0  1  0  0  0  0  0  0
  191.0350  174.0320  142.2320 O   0  0  0  0  0  0  0  0  0  0  0  0
  191.8830  172.8860  144.0560 N   0  0  0  0  0  0  0  0  0  0  0  0
  191.8240  173.0470  142.7950 N   0  0  0  0  0  0  0  0  0  0  0  0
  192.4560  169.7240  143.5570 O   0  0  0  0  0  1  0  0  0  0  0  0
  192.7200  171.8490  144.6350 C   0  0  1  0  0  3  0  0  0  0  0  0
  193.1970  170.9040  143.5200 C   0  0  1  0  0  3  0  0  0  0  0  0
  195.2510  171.7970  143.3420 C   0  0  0  0  0  2  0  0  0  0  0  0
  195.0500  172.8540  144.4400 C   0  0  0  0  0  2  0  0  0  0  0  0
  193.9040  172.4770  145.3850 C   0  0  0  0  0  2  0  0  0  0  0  0
  194.5660  170.6060  143.6450 O   0  0  0  0  0  0  0  0  0  0  0  0
  1 12  1  0  0  0  0
  1 10  2  0  0  0  0
  2  8  2  0  0  0  0
  2  6  1  0  0  0  0
  3 11  2  0  0  0  0
  3  8  1  0  0  0  0
  4  9  1  6  0  0  0
  4  7  1  0  0  0  0
  4 16  1  0  0  0  0
  4 14  1  0  0  0  0
  5 10  1  0  0  0  0
  6  5  2  0  0  0  0
  7 25  1  6  0  0  0
  7 16  1  0  0  0  0
  8  1  1  0  0  0  0
  9  7  1  0  0  0  0
 11 17  1  0  0  0  0
 13  2  1  0  0  0  0
 14 15  2  0  0  0  0
 15 20  1  0  0  0  0
 15 11  1  0  0  0  0
 16  3  1  1  0  0  0
 17 12  2  0  0  0  0
 18 19  1  0  0  0  0
 19 21  2  0  0  0  0
 20 23  2  0  0  0  0
 22 18  2  0  0  0  0
 22 20  1  0  0  0  0
 23 21  1  0  0  0  0
 24 18  1  0  0  0  0
 25 27  1  0  0  0  0
 27 26  2  0  0  0  0
 29 26  1  6  0  0  0
 29 33  1  0  0  0  0
 30 28  1  1  0  0  0
 30 34  1  0  0  0  0
 30 29  1  0  0  0  0
 31 34  1  0  0  0  0
 31 32  1  0  0  0  0
 32 33  1  0  0  0  0
M  END
>  <MODEL>
4

>  <REMARK>
 VINA RESULT:      -7.9      2.363      4.162
  Name = 
  4 active torsions:
  status: ('A' for Active; 'I' for Inactive)
    1  A    between atoms: N_3  and  C_13
    2  A    between atoms: C_10  and  O_29
    3  A    between atoms: C_12  and  C_28
    4  A    between atoms: N_17  and  O_29
                            x       y       z     vdW  Elec       q    Type
                         _______ _______ _______ _____ _____    ______ ____

>  <TORSDO>
F 4

$$$$
=
 OpenBabel11052418443D

 34 40  0  0  1  0  0  0  0  0999 V2000
  191.0420  176.3810  146.8360 C   0  0  0  0  0  0  0  0  0  0  0  0
  188.9450  175.9030  145.7370 C   0  0  0  0  0  0  0  0  0  0  0  0
  190.9800  174.5540  145.2100 C   0  0  0  0  0  0  0  0  0  0  0  0
  191.0480  172.8050  143.2680 C   0  0  1  0  0  0  0  0  0  0  0  0
  189.1390  177.6680  147.3220 N   0  0  0  0  0  0  0  0  0  0  0  0
  188.3780  176.9510  146.4590 C   0  0  0  0  0  3  0  0  0  0  0  0
  190.7260  174.2750  142.7930 C   0  0  2  0  0  0  0  0  0  0  0  0
  190.3130  175.5980  145.9090 C   0  0  0  0  0  0  0  0  0  0  0  0
  191.2910  173.2420  141.8620 C   0  0  0  0  0  2  0  0  0  0  0  0
  190.4290  177.3900  147.5070 N   0  0  0  0  0  0  0  0  0  0  0  0
  192.3300  174.2790  145.4930 C   0  0  0  0  0  0  0  0  0  0  0  0
  192.3890  176.1240  147.0720 C   0  0  0  0  0  3  0  0  0  0  0  0
  188.1400  175.1930  144.9090 F   0  0  0  0  0  0  0  0  0  0  0  0
  192.3960  172.5670  143.8030 N   0  0  0  0  0  0  0  0  0  0  0  0
  193.0110  173.1770  144.7750 C   0  0  0  0  0  0  0  0  0  0  0  0
  190.2660  173.7630  144.1420 C   0  0  2  0  0  3  0  0  0  0  0  0
  193.0250  175.0830  146.4060 C   0  0  0  0  0  3  0  0  0  0  0  0
  196.7720  173.1290  145.3370 C   0  0  0  0  0  0  0  0  0  0  0  0
  196.9520  171.8400  145.8460 C   0  0  0  0  0  3  0  0  0  0  0  0
  194.3820  172.7200  145.1190 C   0  0  0  0  0  0  0  0  0  0  0  0
  195.8530  170.9920  146.0010 C   0  0  0  0  0  3  0  0  0  0  0  0
  195.4940  173.5670  144.9810 C   0  0  0  0  0  3  0  0  0  0  0  0
  194.5750  171.4310  145.6440 C   0  0  0  0  0  3  0  0  0  0  0  0
  197.8630  173.9740  145.1880 O   0  0  0  0  0  1  0  0  0  0  0  0
  189.4850  174.5630  142.1610 O   0  0  0  0  0  0  0  0  0  0  0  0
  187.8060  176.1410  141.9450 N   0  0  0  0  0  0  0  0  0  0  0  0
  189.0470  175.8600  141.9810 N   0  0  0  0  0  0  0  0  0  0  0  0
  186.2720  177.8480  139.6410 O   0  0  0  0  0  1  0  0  0  0  0  0
  187.3590  177.5100  141.7510 C   0  0  1  0  0  3  0  0  0  0  0  0
  186.0340  177.5030  140.9700 C   0  0  1  0  0  3  0  0  0  0  0  0
  184.7230  177.8330  142.7640 C   0  0  0  0  0  2  0  0  0  0  0  0
  185.8730  177.8940  143.7810 C   0  0  0  0  0  2  0  0  0  0  0  0
  187.2090  178.2190  143.1050 C   0  0  0  0  0  2  0  0  0  0  0  0
  185.0990  178.3920  141.5290 O   0  0  0  0  0  0  0  0  0  0  0  0
  1 12  1  0  0  0  0
  1 10  2  0  0  0  0
  2  8  2  0  0  0  0
  2  6  1  0  0  0  0
  3 11  2  0  0  0  0
  3  8  1  0  0  0  0
  4  9  1  6  0  0  0
  4 14  1  0  0  0  0
  4 16  1  0  0  0  0
  5 10  1  0  0  0  0
  6  5  2  0  0  0  0
  7 25  1  6  0  0  0
  7  4  1  0  0  0  0
  7 16  1  0  0  0  0
  8  1  1  0  0  0  0
  9  7  1  0  0  0  0
 11 17  1  0  0  0  0
 13  2  1  0  0  0  0
 14 15  2  0  0  0  0
 15 20  1  0  0  0  0
 15 11  1  0  0  0  0
 16  3  1  1  0  0  0
 17 12  2  0  0  0  0
 18 19  1  0  0  0  0
 19 21  2  0  0  0  0
 20 23  2  0  0  0  0
 22 20  1  0  0  0  0
 22 18  2  0  0  0  0
 23 21  1  0  0  0  0
 24 18  1  0  0  0  0
 26 27  2  0  0  0  0
 27 25  1  0  0  0  0
 29 26  1  1  0  0  0
 29 33  1  0  0  0  0
 30 28  1  6  0  0  0
 30 34  1  0  0  0  0
 30 29  1  0  0  0  0
 31 32  1  0  0  0  0
 33 32  1  0  0  0  0
 34 31  1  0  0  0  0
M  END
>  <MODEL>
5

>  <REMARK>
 VINA RESULT:      -7.7      2.492      8.362
  Name = 
  4 active torsions:
  status: ('A' for Active; 'I' for Inactive)
    1  A    between atoms: N_3  and  C_13
    2  A    between atoms: C_10  and  O_29
    3  A    between atoms: C_12  and  C_28
    4  A    between atoms: N_17  and  O_29
                            x       y       z     vdW  Elec       q    Type
                         _______ _______ _______ _____ _____    ______ ____

>  <TORSDO>
F 4

$$$$
=
 OpenBabel11052418443D

 34 40  0  0  1  0  0  0  0  0999 V2000
  191.0200  176.4140  146.8860 C   0  0  0  0  0  0  0  0  0  0  0  0
  188.9170  175.9500  145.7910 C   0  0  0  0  0  0  0  0  0  0  0  0
  190.9330  174.5620  145.2900 C   0  0  0  0  0  0  0  0  0  0  0  0
  190.9770  172.7800  143.3770 C   0  0  1  0  0  0  0  0  0  0  0  0
  189.1350  177.7370  147.3470 N   0  0  0  0  0  0  0  0  0  0  0  0
  188.3650  177.0170  146.4950 C   0  0  0  0  0  3  0  0  0  0  0  0
  190.6780  174.2470  142.8780 C   0  0  2  0  0  0  0  0  0  0  0  0
  190.2800  175.6270  145.9710 C   0  0  0  0  0  0  0  0  0  0  0  0
  191.2280  173.1900  141.9650 C   0  0  0  0  0  2  0  0  0  0  0  0
  190.4210  177.4430  147.5390 N   0  0  0  0  0  0  0  0  0  0  0  0
  192.2780  174.2720  145.5800 C   0  0  0  0  0  0  0  0  0  0  0  0
  192.3620  176.1410  147.1280 C   0  0  0  0  0  3  0  0  0  0  0  0
  188.1030  175.2370  144.9740 F   0  0  0  0  0  0  0  0  0  0  0  0
  192.3210  172.5320  143.9190 N   0  0  0  0  0  0  0  0  0  0  0  0
  192.9430  173.1480  144.8810 C   0  0  0  0  0  0  0  0  0  0  0  0
  190.2090  173.7640  144.2340 C   0  0  2  0  0  3  0  0  0  0  0  0
  192.9840  175.0800  146.4800 C   0  0  0  0  0  3  0  0  0  0  0  0
  195.8290  170.9380  146.0020 C   0  0  0  0  0  0  0  0  0  0  0  0
  196.9130  171.8010  145.8290 C   0  0  0  0  0  3  0  0  0  0  0  0
  194.3070  172.6770  145.2350 C   0  0  0  0  0  0  0  0  0  0  0  0
  196.7030  173.0970  145.3520 C   0  0  0  0  0  3  0  0  0  0  0  0
  194.5340  171.3720  145.7020 C   0  0  0  0  0  3  0  0  0  0  0  0
  195.4080  173.5310  145.0530 C   0  0  0  0  0  3  0  0  0  0  0  0
  196.0370  169.6470  146.4710 O   0  0  0  0  0  1  0  0  0  0  0  0
  189.4420  174.5430  142.2390 O   0  0  0  0  0  0  0  0  0  0  0  0
  187.7850  176.1400  142.0000 N   0  0  0  0  0  0  0  0  0  0  0  0
  189.0220  175.8430  142.0410 N   0  0  0  0  0  0  0  0  0  0  0  0
  186.2710  177.8340  139.6720 O   0  0  0  0  0  1  0  0  0  0  0  0
  187.3570  177.5130  141.7850 C   0  0  1  0  0  3  0  0  0  0  0  0
  186.0310  177.5120  141.0070 C   0  0  1  0  0  3  0  0  0  0  0  0
  184.7270  177.8870  142.7970 C   0  0  0  0  0  2  0  0  0  0  0  0
  185.8790  177.9470  143.8120 C   0  0  0  0  0  2  0  0  0  0  0  0
  187.2190  178.2440  143.1290 C   0  0  0  0  0  2  0  0  0  0  0  0
  185.1090  178.4230  141.5540 O   0  0  0  0  0  0  0  0  0  0  0  0
  1 12  1  0  0  0  0
  1 10  2  0  0  0  0
  2  8  2  0  0  0  0
  2  6  1  0  0  0  0
  3 11  2  0  0  0  0
  3  8  1  0  0  0  0
  4  9  1  6  0  0  0
  4 14  1  0  0  0  0
  4 16  1  0  0  0  0
  5 10  1  0  0  0  0
  6  5  2  0  0  0  0
  7 25  1  6  0  0  0
  7  4  1  0  0  0  0
  7 16  1  0  0  0  0
  8  1  1  0  0  0  0
  9  7  1  0  0  0  0
 11 17  1  0  0  0  0
 13  2  1  0  0  0  0
 14 15  2  0  0  0  0
 15 20  1  0  0  0  0
 15 11  1  0  0  0  0
 16  3  1  1  0  0  0
 17 12  2  0  0  0  0
 18 24  1  0  0  0  0
 19 18  1  0  0  0  0
 20 22  1  0  0  0  0
 21 19  2  0  0  0  0
 22 18  2  0  0  0  0
 23 20  2  0  0  0  0
 23 21  1  0  0  0  0
 26 27  2  0  0  0  0
 27 25  1  0  0  0  0
 29 26  1  1  0  0  0
 29 33  1  0  0  0  0
 30 28  1  6  0  0  0
 30 34  1  0  0  0  0
 30 29  1  0  0  0  0
 31 32  1  0  0  0  0
 33 32  1  0  0  0  0
 34 31  1  0  0  0  0
M  END
>  <MODEL>
6

>  <REMARK>
 VINA RESULT:      -7.7      2.817      8.457
  Name = 
  4 active torsions:
  status: ('A' for Active; 'I' for Inactive)
    1  A    between atoms: N_3  and  C_13
    2  A    between atoms: C_10  and  O_29
    3  A    between atoms: C_12  and  C_28
    4  A    between atoms: N_17  and  O_29
                            x       y       z     vdW  Elec       q    Type
                         _______ _______ _______ _____ _____    ______ ____

>  <TORSDO>
F 4

$$$$
=
 OpenBabel11052418443D

 34 40  0  0  1  0  0  0  0  0999 V2000
  187.3680  176.0920  140.7360 C   0  0  0  0  0  0  0  0  0  0  0  0
  185.9520  177.9830  140.2310 C   0  0  0  0  0  0  0  0  0  0  0  0
  186.7850  177.6180  142.5580 C   0  0  0  0  0  0  0  0  0  0  0  0
  185.9480  179.0300  144.5930 C   0  0  1  0  0  0  0  0  0  0  0  0
  186.5720  176.4160  138.5500 N   0  0  0  0  0  0  0  0  0  0  0  0
  185.9080  177.5420  138.9110 C   0  0  0  0  0  3  0  0  0  0  0  0
  184.8030  178.2360  143.8510 C   0  0  2  0  0  0  0  0  0  0  0  0
  186.6890  177.2500  141.1870 C   0  0  0  0  0  0  0  0  0  0  0  0
  184.6660  178.6910  145.2750 C   0  0  0  0  0  2  0  0  0  0  0  0
  187.2820  175.7150  139.4350 N   0  0  0  0  0  0  0  0  0  0  0  0
  187.5950  176.8640  143.4250 C   0  0  0  0  0  0  0  0  0  0  0  0
  188.1300  175.3330  141.6180 C   0  0  0  0  0  3  0  0  0  0  0  0
  185.2990  179.1310  140.5400 F   0  0  0  0  0  0  0  0  0  0  0  0
  186.9520  178.2250  145.3020 N   0  0  0  0  0  0  0  0  0  0  0  0
  187.7050  177.2670  144.8470 C   0  0  0  0  0  0  0  0  0  0  0  0
  185.9970  178.7850  143.0990 C   0  0  2  0  0  3  0  0  0  0  0  0
  188.2410  175.7160  142.9490 C   0  0  0  0  0  3  0  0  0  0  0  0
  190.8750  176.4030  146.7630 C   0  0  0  0  0  0  0  0  0  0  0  0
  190.4000  175.4300  147.6460 C   0  0  0  0  0  3  0  0  0  0  0  0
  188.6530  176.6240  145.7930 C   0  0  0  0  0  0  0  0  0  0  0  0
  189.0540  175.0570  147.6130 C   0  0  0  0  0  3  0  0  0  0  0  0
  190.0050  177.0000  145.8460 C   0  0  0  0  0  3  0  0  0  0  0  0
  188.1850  175.6530  146.6950 C   0  0  0  0  0  3  0  0  0  0  0  0
  192.2110  176.7800  146.7990 O   0  0  0  0  0  1  0  0  0  0  0  0
  183.7320  178.9420  143.2360 O   0  0  0  0  0  0  0  0  0  0  0  0
  181.6030  178.7740  142.3440 N   0  0  0  0  0  0  0  0  0  0  0  0
  182.7720  178.2910  142.4860 N   0  0  0  0  0  0  0  0  0  0  0  0
  178.9670  176.9530  142.9040 O   0  0  0  0  0  1  0  0  0  0  0  0
  180.6010  178.0760  141.5560 C   0  0  1  0  0  3  0  0  0  0  0  0
  179.2440  178.1640  142.2730 C   0  0  1  0  0  3  0  0  0  0  0  0
  178.4230  179.8110  140.9820 C   0  0  0  0  0  2  0  0  0  0  0  0
  179.6670  179.9340  140.0880 C   0  0  0  0  0  2  0  0  0  0  0  0
  180.5290  178.6680  140.1400 C   0  0  0  0  0  2  0  0  0  0  0  0
  178.2050  178.4780  141.3770 O   0  0  0  0  0  0  0  0  0  0  0  0
  1  8  2  0  0  0  0
  1 12  1  0  0  0  0
  2 13  1  0  0  0  0
  2  8  1  0  0  0  0
  3 11  2  0  0  0  0
  4  9  1  1  0  0  0
  4 14  1  0  0  0  0
  5  6  1  0  0  0  0
  5 10  2  0  0  0  0
  6  2  2  0  0  0  0
  7 25  1  6  0  0  0
  7  4  1  0  0  0  0
  7  9  1  0  0  0  0
  8  3  1  0  0  0  0
 10  1  1  0  0  0  0
 11 15  1  0  0  0  0
 12 17  2  0  0  0  0
 15 14  2  0  0  0  0
 15 20  1  0  0  0  0
 16  3  1  1  0  0  0
 16  7  1  0  0  0  0
 16  4  1  0  0  0  0
 17 11  1  0  0  0  0
 18 24  1  0  0  0  0
 18 19  1  0  0  0  0
 20 22  1  0  0  0  0
 20 23  2  0  0  0  0
 21 19  2  0  0  0  0
 22 18  2  0  0  0  0
 23 21  1  0  0  0  0
 26 27  2  0  0  0  0
 27 25  1  0  0  0  0
 29 30  1  0  0  0  0
 29 26  1  1  0  0  0
 30 28  1  6  0  0  0
 31 34  1  0  0  0  0
 32 33  1  0  0  0  0
 32 31  1  0  0  0  0
 33 29  1  0  0  0  0
 34 30  1  0  0  0  0
M  END
>  <MODEL>
7

>  <REMARK>
 VINA RESULT:      -7.6      4.540      9.545
  Name = 
  4 active torsions:
  status: ('A' for Active; 'I' for Inactive)
    1  A    between atoms: N_3  and  C_13
    2  A    between atoms: C_10  and  O_29
    3  A    between atoms: C_12  and  C_28
    4  A    between atoms: N_17  and  O_29
                            x       y       z     vdW  Elec       q    Type
                         _______ _______ _______ _____ _____    ______ ____

>  <TORSDO>
F 4

$$$$
=
 OpenBabel11052418443D

 34 40  0  0  1  0  0  0  0  0999 V2000
  188.9560  177.2930  146.7960 C   0  0  0  0  0  0  0  0  0  0  0  0
  187.0280  176.3910  145.6540 C   0  0  0  0  0  0  0  0  0  0  0  0
  189.3330  175.7340  144.9500 C   0  0  0  0  0  0  0  0  0  0  0  0
  189.8000  174.3220  142.7990 C   0  0  1  0  0  0  0  0  0  0  0  0
  186.7930  177.9340  147.4520 N   0  0  0  0  0  0  0  0  0  0  0  0
  186.2250  177.1450  146.5070 C   0  0  0  0  0  3  0  0  0  0  0  0
  189.0690  175.6930  142.5180 C   0  0  2  0  0  0  0  0  0  0  0  0
  188.4330  176.4580  145.7800 C   0  0  0  0  0  0  0  0  0  0  0  0
  189.8580  174.9780  141.4600 C   0  0  0  0  0  2  0  0  0  0  0  0
  188.1170  178.0030  147.5930 N   0  0  0  0  0  0  0  0  0  0  0  0
  190.7160  175.8110  145.1890 C   0  0  0  0  0  0  0  0  0  0  0  0
  190.3300  177.3930  146.9910 C   0  0  0  0  0  3  0  0  0  0  0  0
  186.4160  175.5920  144.7460 F   0  0  0  0  0  0  0  0  0  0  0  0
  191.1820  174.4040  143.2930 N   0  0  0  0  0  0  0  0  0  0  0  0
  191.6440  175.0370  144.3320 C   0  0  0  0  0  0  0  0  0  0  0  0
  188.8210  174.9130  143.7920 C   0  0  2  0  0  3  0  0  0  0  0  0
  191.2000  176.6580  146.1940 C   0  0  0  0  0  3  0  0  0  0  0  0
  195.3880  175.7070  144.2820 C   0  0  0  0  0  0  0  0  0  0  0  0
  195.8430  174.7680  145.2110 C   0  0  0  0  0  3  0  0  0  0  0  0
  193.1000  174.9390  144.6090 C   0  0  0  0  0  0  0  0  0  0  0  0
  194.9330  173.9200  145.8460 C   0  0  0  0  0  3  0  0  0  0  0  0
  194.0240  175.7950  143.9870 C   0  0  0  0  0  3  0  0  0  0  0  0
  193.5690  174.0080  145.5500 C   0  0  0  0  0  3  0  0  0  0  0  0
  196.2900  176.5550  143.6540 O   0  0  0  0  0  1  0  0  0  0  0  0
  187.7720  175.7000  141.9330 O   0  0  0  0  0  0  0  0  0  0  0  0
  185.9430  177.0720  142.2920 N   0  0  0  0  0  0  0  0  0  0  0  0
  187.0720  176.8750  141.7390 N   0  0  0  0  0  0  0  0  0  0  0  0
  182.9610  177.9530  141.3410 O   0  0  0  0  0  1  0  0  0  0  0  0
  185.2150  178.3110  142.0750 C   0  0  1  0  0  3  0  0  0  0  0  0
  183.7460  178.1100  142.4820 C   0  0  1  0  0  3  0  0  0  0  0  0
  183.9320  179.1270  144.4770 C   0  0  0  0  0  2  0  0  0  0  0  0
  185.4220  179.4700  144.3310 C   0  0  0  0  0  2  0  0  0  0  0  0
  185.8650  179.4560  142.8640 C   0  0  0  0  0  2  0  0  0  0  0  0
  183.2660  179.1940  143.2390 O   0  0  0  0  0  0  0  0  0  0  0  0
  1 12  1  0  0  0  0
  1 10  2  0  0  0  0
  2  8  2  0  0  0  0
  2  6  1  0  0  0  0
  3 11  2  0  0  0  0
  3  8  1  0  0  0  0
  4  9  1  6  0  0  0
  4 14  1  0  0  0  0
  4 16  1  0  0  0  0
  5 10  1  0  0  0  0
  6  5  2  0  0  0  0
  7 25  1  6  0  0  0
  7  4  1  0  0  0  0
  7 16  1  0  0  0  0
  8  1  1  0  0  0  0
  9  7  1  0  0  0  0
 11 17  1  0  0  0  0
 13  2  1  0  0  0  0
 14 15  2  0  0  0  0
 15 20  1  0  0  0  0
 15 11  1  0  0  0  0
 16  3  1  1  0  0  0
 17 12  2  0  0  0  0
 18 19  1  0  0  0  0
 19 21  2  0  0  0  0
 20 23  2  0  0  0  0
 22 18  2  0  0  0  0
 22 20  1  0  0  0  0
 23 21  1  0  0  0  0
 24 18  1  0  0  0  0
 27 25  1  0  0  0  0
 27 26  2  0  0  0  0
 29 26  1  1  0  0  0
 29 30  1  0  0  0  0
 29 33  1  0  0  0  0
 30 28  1  6  0  0  0
 30 34  1  0  0  0  0
 32 31  1  0  0  0  0
 33 32  1  0  0  0  0
 34 31  1  0  0  0  0
M  END
>  <MODEL>
8

>  <REMARK>
 VINA RESULT:      -7.4      2.528      8.375
  Name = 
  4 active torsions:
  status: ('A' for Active; 'I' for Inactive)
    1  A    between atoms: N_3  and  C_13
    2  A    between atoms: C_10  and  O_29
    3  A    between atoms: C_12  and  C_28
    4  A    between atoms: N_17  and  O_29
                            x       y       z     vdW  Elec       q    Type
                         _______ _______ _______ _____ _____    ______ ____

>  <TORSDO>
F 4

$$$$
=
 OpenBabel11052418443D

 34 40  0  0  1  0  0  0  0  0999 V2000
  191.5890  175.2140  146.1950 C   0  0  0  0  0  0  0  0  0  0  0  0
  192.5440  175.2040  143.9760 C   0  0  0  0  0  0  0  0  0  0  0  0
  190.2050  176.0040  144.3390 C   0  0  0  0  0  0  0  0  0  0  0  0
  188.5850  176.5640  142.3650 C   0  0  1  0  0  0  0  0  0  0  0  0
  193.7810  174.4410  145.8610 N   0  0  0  0  0  0  0  0  0  0  0  0
  193.7100  174.6810  144.5280 C   0  0  0  0  0  3  0  0  0  0  0  0
  189.0960  175.0710  142.3690 C   0  0  2  0  0  0  0  0  0  0  0  0
  191.4390  175.4780  144.8130 C   0  0  0  0  0  0  0  0  0  0  0  0
  187.8300  175.4790  141.6720 C   0  0  0  0  0  2  0  0  0  0  0  0
  192.7530  174.7020  146.6690 N   0  0  0  0  0  0  0  0  0  0  0  0
  189.1810  176.3070  145.2540 C   0  0  0  0  0  0  0  0  0  0  0  0
  190.5490  175.4780  147.0810 C   0  0  0  0  0  3  0  0  0  0  0  0
  192.5290  175.4590  142.6450 F   0  0  0  0  0  0  0  0  0  0  0  0
  187.7020  176.9590  143.4710 N   0  0  0  0  0  0  0  0  0  0  0  0
  187.9070  176.8730  144.7540 C   0  0  0  0  0  0  0  0  0  0  0  0
  189.9690  176.2050  142.8620 C   0  0  2  0  0  3  0  0  0  0  0  0
  189.3580  176.0200  146.6130 C   0  0  0  0  0  3  0  0  0  0  0  0
  185.9940  178.9510  147.3010 C   0  0  0  0  0  0  0  0  0  0  0  0
  184.7580  178.3000  147.3070 C   0  0  0  0  0  3  0  0  0  0  0  0
  186.8350  177.3630  145.6590 C   0  0  0  0  0  0  0  0  0  0  0  0
  184.5530  177.1880  146.4880 C   0  0  0  0  0  3  0  0  0  0  0  0
  187.0240  178.4880  146.4780 C   0  0  0  0  0  3  0  0  0  0  0  0
  185.5840  176.7250  145.6650 C   0  0  0  0  0  3  0  0  0  0  0  0
  186.1980  180.0600  148.1110 O   0  0  0  0  0  1  0  0  0  0  0  0
  189.8620  174.5790  141.2760 O   0  0  0  0  0  0  0  0  0  0  0  0
  190.2650  172.5340  142.2810 N   0  0  0  0  0  0  0  0  0  0  0  0
  190.3640  173.2920  141.2640 N   0  0  0  0  0  0  0  0  0  0  0  0
  190.5510  170.1160  140.1250 O   0  0  0  0  0  1  0  0  0  0  0  0
  190.8020  171.1830  142.2570 C   0  0  1  0  0  3  0  0  0  0  0  0
  191.4170  170.9090  140.8750 C   0  0  1  0  0  3  0  0  0  0  0  0
  193.5460  171.2320  141.5180 C   0  0  0  0  0  2  0  0  0  0  0  0
  193.2140  171.5390  142.9860 C   0  0  0  0  0  2  0  0  0  0  0  0
  191.8340  171.0000  143.3790 C   0  0  0  0  0  2  0  0  0  0  0  0
  192.6670  170.2720  140.9830 O   0  0  0  0  0  0  0  0  0  0  0  0
  1 10  1  0  0  0  0
  1 12  1  0  0  0  0
  2  6  2  0  0  0  0
  2  8  1  0  0  0  0
  3  8  1  0  0  0  0
  3 11  2  0  0  0  0
  4  9  1  6  0  0  0
  4  7  1  0  0  0  0
  4 16  1  0  0  0  0
  4 14  1  0  0  0  0
  5 10  2  0  0  0  0
  6  5  1  0  0  0  0
  7 25  1  6  0  0  0
  7 16  1  0  0  0  0
  8  1  2  0  0  0  0
  9  7  1  0  0  0  0
 11 17  1  0  0  0  0
 13  2  1  0  0  0  0
 14 15  2  0  0  0  0
 15 11  1  0  0  0  0
 15 20  1  0  0  0  0
 16  3  1  1  0  0  0
 17 12  2  0  0  0  0
 18 19  1  0  0  0  0
 18 24  1  0  0  0  0
 20 23  2  0  0  0  0
 20 22  1  0  0  0  0
 21 19  2  0  0  0  0
 22 18  2  0  0  0  0
 23 21  1  0  0  0  0
 27 25  1  0  0  0  0
 27 26  2  0  0  0  0
 29 26  1  6  0  0  0
 29 33  1  0  0  0  0
 30 28  1  6  0  0  0
 30 34  1  0  0  0  0
 30 29  1  0  0  0  0
 31 32  1  0  0  0  0
 32 33  1  0  0  0  0
 34 31  1  0  0  0  0
M  END
>  <MODEL>
9

>  <REMARK>
 VINA RESULT:      -7.3      2.690      4.498
  Name = 
  4 active torsions:
  status: ('A' for Active; 'I' for Inactive)
    1  A    between atoms: N_3  and  C_13
    2  A    between atoms: C_10  and  O_29
    3  A    between atoms: C_12  and  C_28
    4  A    between atoms: N_17  and  O_29
                            x       y       z     vdW  Elec       q    Type
                         _______ _______ _______ _____ _____    ______ ____

>  <TORSDO>
F 4

$$$$
