=
 OpenBabel11052420013D

 37 40  0  0  1  0  0  0  0  0999 V2000
  190.1560  175.1000  142.1250 C   0  0  0  0  0  3  0  0  0  0  0  0
  189.4320  177.5430  145.4840 C   0  0  0  0  0  2  0  0  0  0  0  0
  186.5550  177.0050  140.6160 C   0  0  0  0  0  3  0  0  0  0  0  0
  189.9280  175.9360  143.1390 C   0  0  0  0  0  0  0  0  0  0  0  0
  187.4760  176.3280  141.4240 C   0  0  0  0  0  0  0  0  0  0  0  0
  191.0350  176.6110  143.7850 N   0  0  0  0  0  0  0  0  0  0  0  0
  188.1380  175.3410  140.8060 C   0  0  0  0  0  2  0  0  0  0  0  0
  187.5650  176.6430  142.8260 C   0  0  0  0  0  0  0  0  0  0  0  0
  185.6990  178.2090  142.5120 C   0  0  0  0  0  3  0  0  0  0  0  0
  189.0530  174.3680  141.4610 C   0  0  1  0  0  3  0  0  0  0  0  0
  186.6300  177.5690  143.3270 C   0  0  0  0  0  3  0  0  0  0  0  0
  190.8930  177.3030  145.0740 C   0  0  0  0  0  2  0  0  0  0  0  0
  188.5530  176.1800  143.6610 C   0  0  2  0  0  3  0  0  0  0  0  0
  185.6840  177.9520  141.1470 C   0  0  0  0  0  0  0  0  0  0  0  0
  188.5630  176.3220  145.1880 C   0  0  1  0  0  0  0  0  0  0  0  0
  184.6920  178.6310  140.2700 C   0  0  0  0  0  2  0  0  0  0  0  0
  183.3450  178.3090  140.7080 N   0  0  0  0  0  1  0  0  0  0  0  0
  190.0420  172.7450  139.6570 N   0  0  0  0  0  0  0  0  0  0  0  0
  189.6060  173.4610  140.4540 C   0  0  0  0  0  0  0  0  0  0  0  0
  189.1830  175.1650  145.7680 O   0  0  0  0  0  0  0  0  0  0  0  0
  189.2420  174.9620  147.1460 C   0  0  0  0  0  3  0  0  0  0  0  0
  191.4610  175.1840  148.3630 O   0  0  0  0  0  0  0  0  0  0  0  0
  190.3800  175.0770  147.7700 C   0  0  0  0  0  0  0  0  0  0  0  0
  187.1760  176.4930  145.8340 C   0  0  0  0  0  2  0  0  0  0  0  0
  187.1570  177.5810  146.8970 C   0  0  0  0  0  2  0  0  0  0  0  0
  185.7240  177.9500  147.2110 C   0  0  0  0  0  2  0  0  0  0  0  0
  184.0290  178.7360  145.8210 C   0  0  0  0  0  1  0  0  0  0  0  0
  185.3220  179.0750  146.3860 N   0  0  0  0  0  2  0  0  0  0  0  0
  192.3860  176.5320  143.2410 C   0  0  0  0  0  2  0  0  0  0  0  0
  193.4110  176.5820  144.3690 C   0  0  0  0  0  2  0  0  0  0  0  0
  193.1740  174.1380  144.9940 C   0  0  0  0  0  2  0  0  0  0  0  0
  194.1320  175.2510  144.5500 C   0  0  2  0  0  3  0  0  0  0  0  0
  195.3450  175.3830  145.4750 C   0  0  0  0  0  2  0  0  0  0  0  0
  197.3880  174.0570  145.3120 N   0  0  0  0  0  1  0  0  0  0  0  0
  195.3100  172.9090  145.1350 N   0  0  0  0  0  2  0  0  0  0  0  0
  196.0100  174.0290  145.7680 C   0  0  2  0  0  3  0  0  0  0  0  0
  193.9170  172.9300  145.5760 C   0  0  0  0  0  2  0  0  0  0  0  0
  1  4  2  0  0  0  0
  3 14  2  0  0  0  0
  3  5  1  0  0  0  0
  4 13  1  0  0  0  0
  4  6  1  0  0  0  0
  5  8  2  0  0  0  0
  6 12  1  0  0  0  0
  7  5  1  0  0  0  0
  7 10  1  0  0  0  0
  8 11  1  0  0  0  0
  9 11  2  0  0  0  0
 10 19  1  6  0  0  0
 10  1  1  0  0  0  0
 12  2  1  0  0  0  0
 13  8  1  6  0  0  0
 13 15  1  0  0  0  0
 14  9  1  0  0  0  0
 15  2  1  0  0  0  0
 15 20  1  0  0  0  0
 15 24  1  1  0  0  0
 16 17  1  0  0  0  0
 16 14  1  0  0  0  0
 18 19  3  0  0  0  0
 20 21  1  0  0  0  0
 21 23  2  0  0  0  0
 23 22  2  0  0  0  0
 24 25  1  0  0  0  0
 25 26  1  0  0  0  0
 27 28  1  0  0  0  0
 28 26  1  0  0  0  0
 29  6  1  0  0  0  0
 29 30  1  0  0  0  0
 31 37  1  0  0  0  0
 32 30  1  1  0  0  0
 32 31  1  0  0  0  0
 32 33  1  0  0  0  0
 33 36  1  0  0  0  0
 35 37  1  0  0  0  0
 35 36  1  0  0  0  0
 36 34  1  6  0  0  0
M  END
>  <MODEL>
1

>  <REMARK>
 VINA RESULT:      -7.2      0.000      0.000
  Name = 
  11 active torsions:
  status: ('A' for Active; 'I' for Inactive)
    1  A    between atoms: O_1  and  C_5
    2  A    between atoms: O_1  and  C_36
    3  A    between atoms: C_3  and  C_32
    4  A    between atoms: C_6  and  C_31
    5  A    between atoms: N_14  and  C_37
    6  A    between atoms: C_17  and  C_26
    7  A    between atoms: C_17  and  C_33
    8  A    between atoms: C_24  and  C_28
    9  A    between atoms: C_26  and  N_34
   10  A    between atoms: C_31  and  C_37
   11  A    between atoms: C_33  and  C_36
                            x       y       z     vdW  Elec       q    Type
                         _______ _______ _______ _____ _____    ______ ____

>  <TORSDO>
F 11

$$$$
=
 OpenBabel11052420013D

 37 40  0  0  1  0  0  0  0  0999 V2000
  190.1280  175.2540  141.9230 C   0  0  0  0  0  3  0  0  0  0  0  0
  189.5100  177.6030  145.3690 C   0  0  0  0  0  2  0  0  0  0  0  0
  186.3710  177.0380  140.6680 C   0  0  0  0  0  3  0  0  0  0  0  0
  189.9280  176.0610  142.9660 C   0  0  0  0  0  0  0  0  0  0  0  0
  187.3640  176.3850  141.4060 C   0  0  0  0  0  0  0  0  0  0  0  0
  191.0440  176.7690  143.5590 N   0  0  0  0  0  0  0  0  0  0  0  0
  188.0270  175.4360  140.7300 C   0  0  0  0  0  2  0  0  0  0  0  0
  187.5250  176.6770  142.8070 C   0  0  0  0  0  0  0  0  0  0  0  0
  185.5830  178.1710  142.6360 C   0  0  0  0  0  3  0  0  0  0  0  0
  189.0180  174.4900  141.3100 C   0  0  1  0  0  3  0  0  0  0  0  0
  186.5850  177.5550  143.3820 C   0  0  0  0  0  3  0  0  0  0  0  0
  190.9520  177.4310  144.8680 C   0  0  0  0  0  2  0  0  0  0  0  0
  188.5790  176.2390  143.5730 C   0  0  2  0  0  3  0  0  0  0  0  0
  185.4960  177.9380  141.2700 C   0  0  0  0  0  0  0  0  0  0  0  0
  188.6740  176.3530  145.0990 C   0  0  1  0  0  0  0  0  0  0  0  0
  184.4280  178.5930  140.4660 C   0  0  0  0  0  2  0  0  0  0  0  0
  183.1250  178.2610  141.0170 N   0  0  0  0  0  1  0  0  0  0  0  0
  189.9610  172.9420  139.4180 N   0  0  0  0  0  0  0  0  0  0  0  0
  189.5450  173.6250  140.2530 C   0  0  0  0  0  0  0  0  0  0  0  0
  189.3720  175.2130  145.6170 O   0  0  0  0  0  0  0  0  0  0  0  0
  189.3620  174.8830  146.9720 C   0  0  0  0  0  3  0  0  0  0  0  0
  191.4220  175.3110  148.3960 O   0  0  0  0  0  0  0  0  0  0  0  0
  190.4180  175.1030  147.7020 C   0  0  0  0  0  0  0  0  0  0  0  0
  187.3220  176.4560  145.8290 C   0  0  0  0  0  2  0  0  0  0  0  0
  187.2860  177.5990  146.8330 C   0  0  0  0  0  2  0  0  0  0  0  0
  185.8530  177.8610  147.2430 C   0  0  0  0  0  2  0  0  0  0  0  0
  184.1100  178.7140  145.9570 C   0  0  0  0  0  1  0  0  0  0  0  0
  185.3730  179.0600  146.5810 N   0  0  0  0  0  2  0  0  0  0  0  0
  192.3630  176.7560  142.9350 C   0  0  0  0  0  2  0  0  0  0  0  0
  193.3170  175.8780  143.7390 C   0  0  0  0  0  2  0  0  0  0  0  0
  195.7720  176.4650  143.9450 C   0  0  0  0  0  2  0  0  0  0  0  0
  194.6940  175.7840  143.0930 C   0  0  2  0  0  3  0  0  0  0  0  0
  194.6800  176.2940  141.6500 C   0  0  0  0  0  2  0  0  0  0  0  0
  196.1100  175.4650  139.8530 N   0  0  0  0  0  1  0  0  0  0  0  0
  197.1270  175.9000  141.9610 N   0  0  0  0  0  2  0  0  0  0  0  0
  196.0840  176.3230  141.0240 C   0  0  2  0  0  3  0  0  0  0  0  0
  197.0500  176.7500  143.1470 C   0  0  0  0  0  2  0  0  0  0  0  0
  1  4  2  0  0  0  0
  3 14  2  0  0  0  0
  3  5  1  0  0  0  0
  4  6  1  0  0  0  0
  4 13  1  0  0  0  0
  5  8  2  0  0  0  0
  6 12  1  0  0  0  0
  7 10  1  0  0  0  0
  7  5  1  0  0  0  0
  8 11  1  0  0  0  0
  9 11  2  0  0  0  0
 10 19  1  6  0  0  0
 10  1  1  0  0  0  0
 12  2  1  0  0  0  0
 13  8  1  6  0  0  0
 13 15  1  0  0  0  0
 14  9  1  0  0  0  0
 15  2  1  0  0  0  0
 15 20  1  0  0  0  0
 15 24  1  1  0  0  0
 16 17  1  0  0  0  0
 16 14  1  0  0  0  0
 18 19  3  0  0  0  0
 20 21  1  0  0  0  0
 21 23  2  0  0  0  0
 23 22  2  0  0  0  0
 24 25  1  0  0  0  0
 25 26  1  0  0  0  0
 27 28  1  0  0  0  0
 28 26  1  0  0  0  0
 29  6  1  0  0  0  0
 29 30  1  0  0  0  0
 32 30  1  1  0  0  0
 32 31  1  0  0  0  0
 33 32  1  0  0  0  0
 35 37  1  0  0  0  0
 36 34  1  6  0  0  0
 36 33  1  0  0  0  0
 36 35  1  0  0  0  0
 37 31  1  0  0  0  0
M  END
>  <MODEL>
2

>  <REMARK>
 VINA RESULT:      -7.1      1.579      2.000
  Name = 
  11 active torsions:
  status: ('A' for Active; 'I' for Inactive)
    1  A    between atoms: O_1  and  C_5
    2  A    between atoms: O_1  and  C_36
    3  A    between atoms: C_3  and  C_32
    4  A    between atoms: C_6  and  C_31
    5  A    between atoms: N_14  and  C_37
    6  A    between atoms: C_17  and  C_26
    7  A    between atoms: C_17  and  C_33
    8  A    between atoms: C_24  and  C_28
    9  A    between atoms: C_26  and  N_34
   10  A    between atoms: C_31  and  C_37
   11  A    between atoms: C_33  and  C_36
                            x       y       z     vdW  Elec       q    Type
                         _______ _______ _______ _____ _____    ______ ____

>  <TORSDO>
F 11

$$$$
=
 OpenBabel11052420013D

 37 40  0  0  1  0  0  0  0  0999 V2000
  189.6700  174.0460  144.3700 C   0  0  0  0  0  3  0  0  0  0  0  0
  192.7970  175.5240  146.7810 C   0  0  0  0  0  2  0  0  0  0  0  0
  192.2540  170.5670  144.0590 C   0  0  0  0  0  3  0  0  0  0  0  0
  190.6510  174.4490  145.1780 C   0  0  0  0  0  0  0  0  0  0  0  0
  191.7640  171.8780  144.0540 C   0  0  0  0  0  0  0  0  0  0  0  0
  190.3370  175.1630  146.3990 N   0  0  0  0  0  0  0  0  0  0  0  0
  190.6110  172.0400  143.3910 C   0  0  0  0  0  2  0  0  0  0  0  0
  192.5490  172.9380  144.6330 C   0  0  0  0  0  0  0  0  0  0  0  0
  194.3170  171.2880  145.0620 C   0  0  0  0  0  3  0  0  0  0  0  0
  189.9530  173.3420  143.0990 C   0  0  1  0  0  3  0  0  0  0  0  0
  193.8340  172.5940  145.0940 C   0  0  0  0  0  3  0  0  0  0  0  0
  191.3570  175.8840  147.1750 C   0  0  0  0  0  2  0  0  0  0  0  0
  192.0860  174.2140  144.8490 C   0  0  2  0  0  3  0  0  0  0  0  0
  193.5110  170.2660  144.5740 C   0  0  0  0  0  0  0  0  0  0  0  0
  192.9480  175.4120  145.2650 C   0  0  1  0  0  0  0  0  0  0  0  0
  194.0200  168.8680  144.5350 C   0  0  0  0  0  2  0  0  0  0  0  0
  193.8660  168.2530  145.8420 N   0  0  0  0  0  1  0  0  0  0  0  0
  187.7080  172.9210  141.8140 N   0  0  0  0  0  0  0  0  0  0  0  0
  188.6990  173.1060  142.3810 C   0  0  0  0  0  0  0  0  0  0  0  0
  192.4260  176.6040  144.6620 O   0  0  0  0  0  0  0  0  0  0  0  0
  192.1700  176.6980  143.2940 C   0  0  0  0  0  3  0  0  0  0  0  0
  190.0950  177.9140  142.4750 O   0  0  0  0  0  0  0  0  0  0  0  0
  191.1070  177.3220  142.8740 C   0  0  0  0  0  0  0  0  0  0  0  0
  194.4380  175.3020  144.8900 C   0  0  0  0  0  2  0  0  0  0  0  0
  195.1680  176.6330  145.0020 C   0  0  0  0  0  2  0  0  0  0  0  0
  196.1300  176.7760  143.8430 C   0  0  0  0  0  2  0  0  0  0  0  0
  196.0460  176.6490  141.5200 C   0  0  0  0  0  1  0  0  0  0  0  0
  195.6810  175.9490  142.7380 N   0  0  0  0  0  2  0  0  0  0  0  0
  188.9600  175.3050  146.8560 C   0  0  0  0  0  2  0  0  0  0  0  0
  188.5720  176.7790  146.9100 C   0  0  0  0  0  2  0  0  0  0  0  0
  187.6480  177.4350  144.6440 C   0  0  0  0  0  2  0  0  0  0  0  0
  187.3160  177.0730  146.0980 C   0  0  2  0  0  3  0  0  0  0  0  0
  186.4350  178.1260  146.7760 C   0  0  0  0  0  2  0  0  0  0  0  0
  184.0000  178.2280  146.6270 N   0  0  0  0  0  1  0  0  0  0  0  0
  185.2140  177.8460  144.6150 N   0  0  0  0  0  2  0  0  0  0  0  0
  185.2280  178.5260  145.9120 C   0  0  2  0  0  3  0  0  0  0  0  0
  186.4770  178.1270  143.9360 C   0  0  0  0  0  2  0  0  0  0  0  0
  1  4  2  0  0  0  0
  2 12  1  0  0  0  0
  3 14  1  0  0  0  0
  4  6  1  0  0  0  0
  5  3  2  0  0  0  0
  5  8  1  0  0  0  0
  6 29  1  0  0  0  0
  6 12  1  0  0  0  0
  7  5  1  0  0  0  0
  8 11  2  0  0  0  0
  9 11  1  0  0  0  0
 10 19  1  1  0  0  0
 10  7  1  0  0  0  0
 10  1  1  0  0  0  0
 13  8  1  1  0  0  0
 13  4  1  0  0  0  0
 13 15  1  0  0  0  0
 14  9  2  0  0  0  0
 15 24  1  6  0  0  0
 15  2  1  0  0  0  0
 16 14  1  0  0  0  0
 16 17  1  0  0  0  0
 18 19  3  0  0  0  0
 20 15  1  0  0  0  0
 21 20  1  0  0  0  0
 22 23  2  0  0  0  0
 23 21  2  0  0  0  0
 24 25  1  0  0  0  0
 26 25  1  0  0  0  0
 27 28  1  0  0  0  0
 28 26  1  0  0  0  0
 29 30  1  0  0  0  0
 31 32  1  0  0  0  0
 32 33  1  0  0  0  0
 32 30  1  1  0  0  0
 35 36  1  0  0  0  0
 36 34  1  1  0  0  0
 36 33  1  0  0  0  0
 37 35  1  0  0  0  0
 37 31  1  0  0  0  0
M  END
>  <MODEL>
3

>  <REMARK>
 VINA RESULT:      -6.9      2.436      8.253
  Name = 
  11 active torsions:
  status: ('A' for Active; 'I' for Inactive)
    1  A    between atoms: O_1  and  C_5
    2  A    between atoms: O_1  and  C_36
    3  A    between atoms: C_3  and  C_32
    4  A    between atoms: C_6  and  C_31
    5  A    between atoms: N_14  and  C_37
    6  A    between atoms: C_17  and  C_26
    7  A    between atoms: C_17  and  C_33
    8  A    between atoms: C_24  and  C_28
    9  A    between atoms: C_26  and  N_34
   10  A    between atoms: C_31  and  C_37
   11  A    between atoms: C_33  and  C_36
                            x       y       z     vdW  Elec       q    Type
                         _______ _______ _______ _____ _____    ______ ____

>  <TORSDO>
F 11

$$$$
=
 OpenBabel11052420013D

 37 40  0  0  1  0  0  0  0  0999 V2000
  188.7230  175.5500  143.8390 C   0  0  0  0  0  3  0  0  0  0  0  0
  191.7530  174.5020  146.5770 C   0  0  0  0  0  2  0  0  0  0  0  0
  189.8520  171.8020  141.9550 C   0  0  0  0  0  3  0  0  0  0  0  0
  189.6430  175.1500  144.7170 C   0  0  0  0  0  0  0  0  0  0  0  0
  189.8890  173.0710  142.5430 C   0  0  0  0  0  0  0  0  0  0  0  0
  189.4270  175.3520  146.1360 N   0  0  0  0  0  0  0  0  0  0  0  0
  188.9970  173.9400  142.0490 C   0  0  0  0  0  2  0  0  0  0  0  0
  190.9080  173.3810  143.5120 C   0  0  0  0  0  0  0  0  0  0  0  0
  191.8500  171.1470  143.1210 C   0  0  0  0  0  3  0  0  0  0  0  0
  188.9230  175.3890  142.3800 C   0  0  1  0  0  3  0  0  0  0  0  0
  191.8860  172.3930  143.7410 C   0  0  0  0  0  3  0  0  0  0  0  0
  190.5050  175.2100  147.1250 C   0  0  0  0  0  2  0  0  0  0  0  0
  190.9220  174.5190  144.2830 C   0  0  2  0  0  3  0  0  0  0  0  0
  190.8120  170.8380  142.2510 C   0  0  0  0  0  0  0  0  0  0  0  0
  192.0890  174.9790  145.1650 C   0  0  1  0  0  0  0  0  0  0  0  0
  190.7660  169.5080  141.5840 C   0  0  0  0  0  2  0  0  0  0  0  0
  191.6220  168.5730  142.2940 N   0  0  0  0  0  1  0  0  0  0  0  0
  186.9140  176.4790  141.0980 N   0  0  0  0  0  0  0  0  0  0  0  0
  187.8010  175.9970  141.6640 C   0  0  0  0  0  0  0  0  0  0  0  0
  192.1460  176.4120  145.1660 O   0  0  0  0  0  0  0  0  0  0  0  0
  192.4590  177.1470  144.0240 C   0  0  0  0  0  3  0  0  0  0  0  0
  190.6410  178.4480  142.8160 O   0  0  0  0  0  0  0  0  0  0  0  0
  191.5270  177.8150  143.4050 C   0  0  0  0  0  0  0  0  0  0  0  0
  193.4710  174.4470  144.7440 C   0  0  0  0  0  2  0  0  0  0  0  0
  194.5110  174.5850  145.8470 C   0  0  0  0  0  2  0  0  0  0  0  0
  195.8050  175.0970  145.2550 C   0  0  0  0  0  2  0  0  0  0  0  0
  196.3200  176.5540  143.5130 C   0  0  0  0  0  1  0  0  0  0  0  0
  195.6320  175.3160  143.8310 N   0  0  0  0  0  2  0  0  0  0  0  0
  188.1460  175.8310  146.6420 C   0  0  0  0  0  2  0  0  0  0  0  0
  188.1950  177.3400  146.8550 C   0  0  0  0  0  2  0  0  0  0  0  0
  185.6780  177.2290  147.1200 C   0  0  0  0  0  2  0  0  0  0  0  0
  186.8630  178.0100  146.5370 C   0  0  2  0  0  3  0  0  0  0  0  0
  186.7060  178.2780  145.0380 C   0  0  0  0  0  2  0  0  0  0  0  0
  185.4670  180.1430  144.0660 N   0  0  0  0  0  1  0  0  0  0  0  0
  184.4420  178.9470  145.8510 N   0  0  0  0  0  2  0  0  0  0  0  0
  185.3190  178.8380  144.6840 C   0  0  2  0  0  3  0  0  0  0  0  0
  184.3450  177.6310  146.4780 C   0  0  0  0  0  2  0  0  0  0  0  0
  1  4  2  0  0  0  0
  2 12  1  0  0  0  0
  3 14  2  0  0  0  0
  3  5  1  0  0  0  0
  4  6  1  0  0  0  0
  5  8  2  0  0  0  0
  6 29  1  0  0  0  0
  6 12  1  0  0  0  0
  7 10  1  0  0  0  0
  7  5  1  0  0  0  0
  8 11  1  0  0  0  0
  9 11  2  0  0  0  0
 10 19  1  6  0  0  0
 10  1  1  0  0  0  0
 13  8  1  1  0  0  0
 13  4  1  0  0  0  0
 13 15  1  0  0  0  0
 14  9  1  0  0  0  0
 15 24  1  6  0  0  0
 15 20  1  0  0  0  0
 15  2  1  0  0  0  0
 16 14  1  0  0  0  0
 16 17  1  0  0  0  0
 18 19  3  0  0  0  0
 21 20  1  0  0  0  0
 22 23  2  0  0  0  0
 23 21  2  0  0  0  0
 24 25  1  0  0  0  0
 26 25  1  0  0  0  0
 27 28  1  0  0  0  0
 28 26  1  0  0  0  0
 29 30  1  0  0  0  0
 32 30  1  6  0  0  0
 32 31  1  0  0  0  0
 33 32  1  0  0  0  0
 35 37  1  0  0  0  0
 36 34  1  1  0  0  0
 36 33  1  0  0  0  0
 36 35  1  0  0  0  0
 37 31  1  0  0  0  0
M  END
>  <MODEL>
4

>  <REMARK>
 VINA RESULT:      -6.9      2.343      7.683
  Name = 
  11 active torsions:
  status: ('A' for Active; 'I' for Inactive)
    1  A    between atoms: O_1  and  C_5
    2  A    between atoms: O_1  and  C_36
    3  A    between atoms: C_3  and  C_32
    4  A    between atoms: C_6  and  C_31
    5  A    between atoms: N_14  and  C_37
    6  A    between atoms: C_17  and  C_26
    7  A    between atoms: C_17  and  C_33
    8  A    between atoms: C_24  and  C_28
    9  A    between atoms: C_26  and  N_34
   10  A    between atoms: C_31  and  C_37
   11  A    between atoms: C_33  and  C_36
                            x       y       z     vdW  Elec       q    Type
                         _______ _______ _______ _____ _____    ______ ____

>  <TORSDO>
F 11

$$$$
=
 OpenBabel11052420013D

 37 40  0  0  1  0  0  0  0  0999 V2000
  190.1950  175.2660  145.9350 C   0  0  0  0  0  3  0  0  0  0  0  0
  188.4110  174.5000  142.1930 C   0  0  0  0  0  2  0  0  0  0  0  0
  186.4560  177.3380  146.7080 C   0  0  0  0  0  3  0  0  0  0  0  0
  189.5700  174.9910  144.7900 C   0  0  0  0  0  0  0  0  0  0  0  0
  187.6490  176.8990  146.1240 C   0  0  0  0  0  0  0  0  0  0  0  0
  189.7020  173.6790  144.1900 N   0  0  0  0  0  0  0  0  0  0  0  0
  188.7010  176.8790  146.9540 C   0  0  0  0  0  2  0  0  0  0  0  0
  187.6960  176.6230  144.7120 C   0  0  0  0  0  0  0  0  0  0  0  0
  185.3630  177.3770  144.5670 C   0  0  0  0  0  3  0  0  0  0  0  0
  190.1100  176.6050  146.5620 C   0  0  1  0  0  3  0  0  0  0  0  0
  186.5320  176.9100  143.9720 C   0  0  0  0  0  3  0  0  0  0  0  0
  189.2920  173.4000  142.8060 C   0  0  0  0  0  2  0  0  0  0  0  0
  188.7510  176.0120  144.0770 C   0  0  2  0  0  3  0  0  0  0  0  0
  185.3140  177.5600  145.9440 C   0  0  0  0  0  0  0  0  0  0  0  0
  188.9240  175.8920  142.5580 C   0  0  1  0  0  0  0  0  0  0  0  0
  184.0690  178.0590  146.5880 C   0  0  0  0  0  2  0  0  0  0  0  0
  183.4530  179.0720  145.7480 N   0  0  0  0  0  1  0  0  0  0  0  0
  191.6400  176.6740  148.6880 N   0  0  0  0  0  0  0  0  0  0  0  0
  190.9650  176.6430  147.7500 C   0  0  0  0  0  0  0  0  0  0  0  0
  190.3190  175.9680  142.2320 O   0  0  0  0  0  0  0  0  0  0  0  0
  191.0970  177.0840  142.5390 C   0  0  0  0  0  3  0  0  0  0  0  0
  193.0320  176.8670  144.1710 O   0  0  0  0  0  0  0  0  0  0  0  0
  192.0890  176.9720  143.3750 C   0  0  0  0  0  0  0  0  0  0  0  0
  188.1830  176.9600  141.7330 C   0  0  0  0  0  2  0  0  0  0  0  0
  187.4390  176.3670  140.5450 C   0  0  0  0  0  2  0  0  0  0  0  0
  186.5970  177.4420  139.8940 C   0  0  0  0  0  2  0  0  0  0  0  0
  184.5360  178.2820  140.5790 C   0  0  0  0  0  1  0  0  0  0  0  0
  185.9450  178.2340  140.9210 N   0  0  0  0  0  2  0  0  0  0  0  0
  190.3660  172.5900  144.8970 C   0  0  0  0  0  2  0  0  0  0  0  0
  191.2800  171.8250  143.9460 C   0  0  0  0  0  2  0  0  0  0  0  0
  193.0620  172.9490  145.3520 C   0  0  0  0  0  2  0  0  0  0  0  0
  192.7150  172.3400  143.9880 C   0  0  2  0  0  3  0  0  0  0  0  0
  193.0080  173.2960  142.8280 C   0  0  0  0  0  2  0  0  0  0  0  0
  195.1800  173.5670  141.7470 N   0  0  0  0  0  1  0  0  0  0  0  0
  195.1320  173.5010  144.1260 N   0  0  0  0  0  2  0  0  0  0  0  0
  194.4090  173.9220  142.9250 C   0  0  2  0  0  3  0  0  0  0  0  0
  194.3160  173.8300  145.2930 C   0  0  0  0  0  2  0  0  0  0  0  0
  1 10  1  0  0  0  0
  2 15  1  0  0  0  0
  2 12  1  0  0  0  0
  4  1  2  0  0  0  0
  5  3  1  0  0  0  0
  5  7  1  0  0  0  0
  6  4  1  0  0  0  0
  6 29  1  0  0  0  0
  8  5  2  0  0  0  0
  9 14  1  0  0  0  0
 10  7  1  0  0  0  0
 10 19  1  1  0  0  0
 11  9  2  0  0  0  0
 11  8  1  0  0  0  0
 12  6  1  0  0  0  0
 13  8  1  6  0  0  0
 13  4  1  0  0  0  0
 14 16  1  0  0  0  0
 14  3  2  0  0  0  0
 15 24  1  6  0  0  0
 15 13  1  0  0  0  0
 17 16  1  0  0  0  0
 19 18  3  0  0  0  0
 20 21  1  0  0  0  0
 20 15  1  0  0  0  0
 21 23  2  0  0  0  0
 23 22  2  0  0  0  0
 25 24  1  0  0  0  0
 26 25  1  0  0  0  0
 26 28  1  0  0  0  0
 27 28  1  0  0  0  0
 30 29  1  0  0  0  0
 32 30  1  1  0  0  0
 32 31  1  0  0  0  0
 33 36  1  0  0  0  0
 33 32  1  0  0  0  0
 35 37  1  0  0  0  0
 36 34  1  6  0  0  0
 36 35  1  0  0  0  0
 37 31  1  0  0  0  0
M  END
>  <MODEL>
5

>  <REMARK>
 VINA RESULT:      -6.8      2.103      4.800
  Name = 
  11 active torsions:
  status: ('A' for Active; 'I' for Inactive)
    1  A    between atoms: O_1  and  C_5
    2  A    between atoms: O_1  and  C_36
    3  A    between atoms: C_3  and  C_32
    4  A    between atoms: C_6  and  C_31
    5  A    between atoms: N_14  and  C_37
    6  A    between atoms: C_17  and  C_26
    7  A    between atoms: C_17  and  C_33
    8  A    between atoms: C_24  and  C_28
    9  A    between atoms: C_26  and  N_34
   10  A    between atoms: C_31  and  C_37
   11  A    between atoms: C_33  and  C_36
                            x       y       z     vdW  Elec       q    Type
                         _______ _______ _______ _____ _____    ______ ____

>  <TORSDO>
F 11

$$$$
=
 OpenBabel11052420013D

 37 40  0  0  1  0  0  0  0  0999 V2000
  191.3260  175.3700  142.3860 C   0  0  0  0  0  3  0  0  0  0  0  0
  187.2590  175.8610  143.3820 C   0  0  0  0  0  2  0  0  0  0  0  0
  191.9420  176.5230  146.5290 C   0  0  0  0  0  3  0  0  0  0  0  0
  190.0500  175.4730  142.7600 C   0  0  0  0  0  0  0  0  0  0  0  0
  191.5140  176.4860  145.1970 C   0  0  0  0  0  0  0  0  0  0  0  0
  189.0760  174.5110  142.2850 N   0  0  0  0  0  0  0  0  0  0  0  0
  192.4920  176.2820  144.3030 C   0  0  0  0  0  2  0  0  0  0  0  0
  190.1400  176.7710  144.8780 C   0  0  0  0  0  0  0  0  0  0  0  0
  189.7650  177.2330  147.2610 C   0  0  0  0  0  3  0  0  0  0  0  0
  192.3440  176.3510  142.8250 C   0  0  1  0  0  3  0  0  0  0  0  0
  189.3130  177.1720  145.9460 C   0  0  0  0  0  3  0  0  0  0  0  0
  187.6270  174.7280  142.4130 C   0  0  0  0  0  2  0  0  0  0  0  0
  189.5770  176.5800  143.6390 C   0  0  2  0  0  3  0  0  0  0  0  0
  191.0750  176.8750  147.5580 C   0  0  0  0  0  0  0  0  0  0  0  0
  188.1860  177.0640  143.2120 C   0  0  1  0  0  0  0  0  0  0  0  0
  191.5660  176.9380  148.9620 C   0  0  0  0  0  2  0  0  0  0  0  0
  191.3600  178.2730  149.4960 N   0  0  0  0  0  1  0  0  0  0  0  0
  194.6390  175.7990  141.6880 N   0  0  0  0  0  0  0  0  0  0  0  0
  193.6260  176.0420  142.1890 C   0  0  0  0  0  0  0  0  0  0  0  0
  188.2160  177.4270  141.8250 O   0  0  0  0  0  0  0  0  0  0  0  0
  187.1270  178.0170  141.1840 C   0  0  0  0  0  3  0  0  0  0  0  0
  186.3080  177.0890  138.9650 O   0  0  0  0  0  0  0  0  0  0  0  0
  186.7070  177.5410  140.0470 C   0  0  0  0  0  0  0  0  0  0  0  0
  187.6430  178.2650  144.0080 C   0  0  0  0  0  2  0  0  0  0  0  0
  186.2750  177.9920  144.6160 C   0  0  0  0  0  2  0  0  0  0  0  0
  185.5540  179.3040  144.8380 C   0  0  0  0  0  2  0  0  0  0  0  0
  184.4400  178.2910  146.6140 C   0  0  0  0  0  1  0  0  0  0  0  0
  184.2370  179.0440  145.3900 N   0  0  0  0  0  2  0  0  0  0  0  0
  189.4870  173.3260  141.5420 C   0  0  0  0  0  2  0  0  0  0  0  0
  189.4090  172.0910  142.4340 C   0  0  0  0  0  2  0  0  0  0  0  0
  191.1000  172.3370  144.3040 C   0  0  0  0  0  2  0  0  0  0  0  0
  190.7780  171.6740  142.9590 C   0  0  2  0  0  3  0  0  0  0  0  0
  191.8770  171.8970  141.9170 C   0  0  0  0  0  2  0  0  0  0  0  0
  193.8940  170.5410  141.6910 N   0  0  0  0  0  1  0  0  0  0  0  0
  193.2560  171.2120  143.8840 N   0  0  0  0  0  2  0  0  0  0  0  0
  193.2800  171.5990  142.4720 C   0  0  2  0  0  3  0  0  0  0  0  0
  192.5950  172.2730  144.6400 C   0  0  0  0  0  2  0  0  0  0  0  0
  1  4  2  0  0  0  0
  1 10  1  0  0  0  0
  3 14  1  0  0  0  0
  5  3  2  0  0  0  0
  6 12  1  0  0  0  0
  6  4  1  0  0  0  0
  7  5  1  0  0  0  0
  8  5  1  0  0  0  0
  8 11  2  0  0  0  0
  9 14  2  0  0  0  0
 10 19  1  6  0  0  0
 10  7  1  0  0  0  0
 11  9  1  0  0  0  0
 12  2  1  0  0  0  0
 13  4  1  1  0  0  0
 13  8  1  0  0  0  0
 14 16  1  0  0  0  0
 15  2  1  0  0  0  0
 15 13  1  0  0  0  0
 15 24  1  1  0  0  0
 16 17  1  0  0  0  0
 18 19  3  0  0  0  0
 20 15  1  0  0  0  0
 21 20  1  0  0  0  0
 22 23  2  0  0  0  0
 23 21  2  0  0  0  0
 24 25  1  0  0  0  0
 25 26  1  0  0  0  0
 26 28  1  0  0  0  0
 28 27  1  0  0  0  0
 29  6  1  0  0  0  0
 29 30  1  0  0  0  0
 31 37  1  0  0  0  0
 32 30  1  6  0  0  0
 32 31  1  0  0  0  0
 33 36  1  0  0  0  0
 33 32  1  0  0  0  0
 35 37  1  0  0  0  0
 36 34  1  6  0  0  0
 36 35  1  0  0  0  0
M  END
>  <MODEL>
6

>  <REMARK>
 VINA RESULT:      -6.7      2.684      5.601
  Name = 
  11 active torsions:
  status: ('A' for Active; 'I' for Inactive)
    1  A    between atoms: O_1  and  C_5
    2  A    between atoms: O_1  and  C_36
    3  A    between atoms: C_3  and  C_32
    4  A    between atoms: C_6  and  C_31
    5  A    between atoms: N_14  and  C_37
    6  A    between atoms: C_17  and  C_26
    7  A    between atoms: C_17  and  C_33
    8  A    between atoms: C_24  and  C_28
    9  A    between atoms: C_26  and  N_34
   10  A    between atoms: C_31  and  C_37
   11  A    between atoms: C_33  and  C_36
                            x       y       z     vdW  Elec       q    Type
                         _______ _______ _______ _____ _____    ______ ____

>  <TORSDO>
F 11

$$$$
=
 OpenBabel11052420013D

 37 40  0  0  1  0  0  0  0  0999 V2000
  191.0900  174.2210  144.2200 C   0  0  0  0  0  3  0  0  0  0  0  0
  188.9030  177.8200  144.0300 C   0  0  0  0  0  2  0  0  0  0  0  0
  189.4080  173.5980  140.2630 C   0  0  0  0  0  3  0  0  0  0  0  0
  190.4370  175.3770  144.0920 C   0  0  0  0  0  0  0  0  0  0  0  0
  189.5610  173.8730  141.6270 C   0  0  0  0  0  0  0  0  0  0  0  0
  191.0370  176.6050  144.5730 N   0  0  0  0  0  0  0  0  0  0  0  0
  190.3020  172.9780  142.2950 C   0  0  0  0  0  2  0  0  0  0  0  0
  188.8530  174.9780  142.2180 C   0  0  0  0  0  0  0  0  0  0  0  0
  187.7920  175.3640  140.0370 C   0  0  0  0  0  3  0  0  0  0  0  0
  190.4960  172.9410  143.7700 C   0  0  1  0  0  3  0  0  0  0  0  0
  187.9540  175.6730  141.3850 C   0  0  0  0  0  3  0  0  0  0  0  0
  190.2680  177.8470  144.7330 C   0  0  0  0  0  2  0  0  0  0  0  0
  189.0750  175.4470  143.4910 C   0  0  2  0  0  3  0  0  0  0  0  0
  188.5460  174.3460  139.4660 C   0  0  0  0  0  0  0  0  0  0  0  0
  188.2040  176.4760  144.2220 C   0  0  1  0  0  0  0  0  0  0  0  0
  188.3790  174.0100  138.0260 C   0  0  0  0  0  2  0  0  0  0  0  0
  189.6690  173.6870  137.4430 N   0  0  0  0  0  1  0  0  0  0  0  0
  192.1010  170.9660  144.3920 N   0  0  0  0  0  0  0  0  0  0  0  0
  191.3920  171.8370  144.1180 C   0  0  0  0  0  0  0  0  0  0  0  0
  188.1800  176.1670  145.6230 O   0  0  0  0  0  0  0  0  0  0  0  0
  187.0790  176.4470  146.4300 C   0  0  0  0  0  3  0  0  0  0  0  0
  187.0830  178.5180  147.9030 O   0  0  0  0  0  0  0  0  0  0  0  0
  187.0810  177.5090  147.1850 C   0  0  0  0  0  0  0  0  0  0  0  0
  186.7480  176.5620  143.7290 C   0  0  0  0  0  2  0  0  0  0  0  0
  186.2890  177.9980  143.5140 C   0  0  0  0  0  2  0  0  0  0  0  0
  184.7790  178.0550  143.5720 C   0  0  0  0  0  2  0  0  0  0  0  0
  184.0640  178.8290  145.6490 C   0  0  0  0  0  1  0  0  0  0  0  0
  184.3680  179.2470  144.2930 N   0  0  0  0  0  2  0  0  0  0  0  0
  192.4180  176.6360  145.0410 C   0  0  0  0  0  2  0  0  0  0  0  0
  193.3750  176.6860  143.8540 C   0  0  0  0  0  2  0  0  0  0  0  0
  194.5960  175.1130  145.4200 C   0  0  0  0  0  2  0  0  0  0  0  0
  194.5320  175.7060  144.0070 C   0  0  2  0  0  3  0  0  0  0  0  0
  195.8620  176.3270  143.5720 C   0  0  0  0  0  2  0  0  0  0  0  0
  197.7280  175.1020  142.5830 N   0  0  0  0  0  1  0  0  0  0  0  0
  196.6640  174.1450  144.4860 N   0  0  0  0  0  2  0  0  0  0  0  0
  197.0580  175.3970  143.8360 C   0  0  2  0  0  3  0  0  0  0  0  0
  195.9550  174.4710  145.7210 C   0  0  0  0  0  2  0  0  0  0  0  0
  2 15  1  0  0  0  0
  2 12  1  0  0  0  0
  3  5  1  0  0  0  0
  4  1  2  0  0  0  0
  4  6  1  0  0  0  0
  5  8  2  0  0  0  0
  5  7  1  0  0  0  0
  6 12  1  0  0  0  0
  6 29  1  0  0  0  0
  7 10  1  0  0  0  0
  9 11  2  0  0  0  0
 10 19  1  6  0  0  0
 10  1  1  0  0  0  0
 11  8  1  0  0  0  0
 13  8  1  6  0  0  0
 13  4  1  0  0  0  0
 13 15  1  0  0  0  0
 14  9  1  0  0  0  0
 14  3  2  0  0  0  0
 15 24  1  6  0  0  0
 15 20  1  0  0  0  0
 16 14  1  0  0  0  0
 17 16  1  0  0  0  0
 19 18  3  0  0  0  0
 20 21  1  0  0  0  0
 21 23  2  0  0  0  0
 23 22  2  0  0  0  0
 25 26  1  0  0  0  0
 25 24  1  0  0  0  0
 26 28  1  0  0  0  0
 28 27  1  0  0  0  0
 30 29  1  0  0  0  0
 31 37  1  0  0  0  0
 32 30  1  1  0  0  0
 32 31  1  0  0  0  0
 33 36  1  0  0  0  0
 33 32  1  0  0  0  0
 35 37  1  0  0  0  0
 36 34  1  6  0  0  0
 36 35  1  0  0  0  0
M  END
>  <MODEL>
7

>  <REMARK>
 VINA RESULT:      -6.4      1.812      3.347
  Name = 
  11 active torsions:
  status: ('A' for Active; 'I' for Inactive)
    1  A    between atoms: O_1  and  C_5
    2  A    between atoms: O_1  and  C_36
    3  A    between atoms: C_3  and  C_32
    4  A    between atoms: C_6  and  C_31
    5  A    between atoms: N_14  and  C_37
    6  A    between atoms: C_17  and  C_26
    7  A    between atoms: C_17  and  C_33
    8  A    between atoms: C_24  and  C_28
    9  A    between atoms: C_26  and  N_34
   10  A    between atoms: C_31  and  C_37
   11  A    between atoms: C_33  and  C_36
                            x       y       z     vdW  Elec       q    Type
                         _______ _______ _______ _____ _____    ______ ____

>  <TORSDO>
F 11

$$$$
=
 OpenBabel11052420013D

 37 40  0  0  1  0  0  0  0  0999 V2000
  191.2060  175.1820  142.3800 C   0  0  0  0  0  3  0  0  0  0  0  0
  187.1700  175.8820  143.3780 C   0  0  0  0  0  2  0  0  0  0  0  0
  191.8990  176.4760  146.4700 C   0  0  0  0  0  3  0  0  0  0  0  0
  189.9380  175.3530  142.7570 C   0  0  0  0  0  0  0  0  0  0  0  0
  191.4600  176.4030  145.1430 C   0  0  0  0  0  0  0  0  0  0  0  0
  188.9220  174.4150  142.3270 N   0  0  0  0  0  0  0  0  0  0  0  0
  192.4230  176.1230  144.2530 C   0  0  0  0  0  2  0  0  0  0  0  0
  190.0970  176.7320  144.8200 C   0  0  0  0  0  0  0  0  0  0  0  0
  189.7580  177.3050  147.1840 C   0  0  0  0  0  3  0  0  0  0  0  0
  192.2670  176.1380  142.7730 C   0  0  1  0  0  3  0  0  0  0  0  0
  189.2940  177.2100  145.8750 C   0  0  0  0  0  3  0  0  0  0  0  0
  187.4850  174.6970  142.4540 C   0  0  0  0  0  2  0  0  0  0  0  0
  189.5170  176.5140  143.5930 C   0  0  2  0  0  3  0  0  0  0  0  0
  191.0540  176.9060  147.4890 C   0  0  0  0  0  0  0  0  0  0  0  0
  188.1450  177.0370  143.1530 C   0  0  1  0  0  0  0  0  0  0  0  0
  191.5570  177.0050  148.8860 C   0  0  0  0  0  2  0  0  0  0  0  0
  191.1890  178.2920  149.4510 N   0  0  0  0  0  1  0  0  0  0  0  0
  194.5290  175.4430  141.6480 N   0  0  0  0  0  0  0  0  0  0  0  0
  193.5310  175.7500  142.1450 C   0  0  0  0  0  0  0  0  0  0  0  0
  188.1800  177.3430  141.7520 O   0  0  0  0  0  0  0  0  0  0  0  0
  187.1040  177.9300  141.0890 C   0  0  0  0  0  3  0  0  0  0  0  0
  186.3070  176.9760  138.8740 O   0  0  0  0  0  0  0  0  0  0  0  0
  186.6950  177.4400  139.9530 C   0  0  0  0  0  0  0  0  0  0  0  0
  187.6580  178.2920  143.9020 C   0  0  0  0  0  2  0  0  0  0  0  0
  186.2870  178.0980  144.5350 C   0  0  0  0  0  2  0  0  0  0  0  0
  185.3990  179.2690  144.1760 C   0  0  0  0  0  2  0  0  0  0  0  0
  184.4860  178.2840  146.0780 C   0  0  0  0  0  1  0  0  0  0  0  0
  184.2500  179.2930  145.0630 N   0  0  0  0  0  2  0  0  0  0  0  0
  189.2790  173.1840  141.6310 C   0  0  0  0  0  2  0  0  0  0  0  0
  188.4300  173.0260  140.3730 C   0  0  0  0  0  2  0  0  0  0  0  0
  188.2200  174.1570  138.1170 C   0  0  0  0  0  2  0  0  0  0  0  0
  189.1660  173.4860  139.1200 C   0  0  2  0  0  3  0  0  0  0  0  0
  189.9790  172.3520  138.4910 C   0  0  0  0  0  2  0  0  0  0  0  0
  192.0690  172.6360  137.2620 N   0  0  0  0  0  1  0  0  0  0  0  0
  190.2860  174.1330  136.7670 N   0  0  0  0  0  2  0  0  0  0  0  0
  190.6270  172.7640  137.1590 C   0  0  2  0  0  3  0  0  0  0  0  0
  188.8300  174.2460  136.7130 C   0  0  0  0  0  2  0  0  0  0  0  0
  1  4  2  0  0  0  0
  1 10  1  0  0  0  0
  3 14  1  0  0  0  0
  5  3  2  0  0  0  0
  6 12  1  0  0  0  0
  6  4  1  0  0  0  0
  7  5  1  0  0  0  0
  8  5  1  0  0  0  0
  8 11  2  0  0  0  0
  9 14  2  0  0  0  0
 10 19  1  6  0  0  0
 10  7  1  0  0  0  0
 11  9  1  0  0  0  0
 12  2  1  0  0  0  0
 13  4  1  1  0  0  0
 13  8  1  0  0  0  0
 14 16  1  0  0  0  0
 15  2  1  0  0  0  0
 15 13  1  0  0  0  0
 15 24  1  1  0  0  0
 16 17  1  0  0  0  0
 18 19  3  0  0  0  0
 20 15  1  0  0  0  0
 21 20  1  0  0  0  0
 22 23  2  0  0  0  0
 23 21  2  0  0  0  0
 24 25  1  0  0  0  0
 26 25  1  0  0  0  0
 26 28  1  0  0  0  0
 28 27  1  0  0  0  0
 29  6  1  0  0  0  0
 30 29  1  0  0  0  0
 31 32  1  0  0  0  0
 32 30  1  1  0  0  0
 33 32  1  0  0  0  0
 35 36  1  0  0  0  0
 36 34  1  1  0  0  0
 36 33  1  0  0  0  0
 37 35  1  0  0  0  0
 37 31  1  0  0  0  0
M  END
>  <MODEL>
8

>  <REMARK>
 VINA RESULT:      -6.4      2.733      6.660
  Name = 
  11 active torsions:
  status: ('A' for Active; 'I' for Inactive)
    1  A    between atoms: O_1  and  C_5
    2  A    between atoms: O_1  and  C_36
    3  A    between atoms: C_3  and  C_32
    4  A    between atoms: C_6  and  C_31
    5  A    between atoms: N_14  and  C_37
    6  A    between atoms: C_17  and  C_26
    7  A    between atoms: C_17  and  C_33
    8  A    between atoms: C_24  and  C_28
    9  A    between atoms: C_26  and  N_34
   10  A    between atoms: C_31  and  C_37
   11  A    between atoms: C_33  and  C_36
                            x       y       z     vdW  Elec       q    Type
                         _______ _______ _______ _____ _____    ______ ____

>  <TORSDO>
F 11

$$$$
=
 OpenBabel11052420013D

 37 40  0  0  1  0  0  0  0  0999 V2000
  189.8450  176.1160  144.0390 C   0  0  0  0  0  3  0  0  0  0  0  0
  189.3160  174.1830  140.3290 C   0  0  0  0  0  2  0  0  0  0  0  0
  193.9850  176.3400  142.7420 C   0  0  0  0  0  3  0  0  0  0  0  0
  189.7090  175.5690  142.8300 C   0  0  0  0  0  0  0  0  0  0  0  0
  192.7020  175.8780  143.0590 C   0  0  0  0  0  0  0  0  0  0  0  0
  188.5500  175.8820  142.0190 N   0  0  0  0  0  0  0  0  0  0  0  0
  192.2530  176.2650  144.2610 C   0  0  0  0  0  2  0  0  0  0  0  0
  192.0290  174.9680  142.1700 C   0  0  0  0  0  0  0  0  0  0  0  0
  194.0490  174.9620  140.7730 C   0  0  0  0  0  3  0  0  0  0  0  0
  190.9990  175.7960  144.9090 C   0  0  1  0  0  3  0  0  0  0  0  0
  192.7610  174.5140  141.0550 C   0  0  0  0  0  3  0  0  0  0  0  0
  188.1900  175.1040  140.8250 C   0  0  0  0  0  2  0  0  0  0  0  0
  190.7080  174.6050  142.2880 C   0  0  2  0  0  3  0  0  0  0  0  0
  194.6500  175.9020  141.6000 C   0  0  0  0  0  0  0  0  0  0  0  0
  190.0200  173.4890  141.4940 C   0  0  1  0  0  0  0  0  0  0  0  0
  196.0270  176.3850  141.3060 C   0  0  0  0  0  2  0  0  0  0  0  0
  196.7040  176.7270  142.5450 N   0  0  0  0  0  1  0  0  0  0  0  0
  190.7090  176.9930  147.2220 N   0  0  0  0  0  0  0  0  0  0  0  0
  190.8360  176.4650  146.2010 C   0  0  0  0  0  0  0  0  0  0  0  0
  189.0310  172.8600  142.3200 O   0  0  0  0  0  0  0  0  0  0  0  0
  189.3610  171.9160  143.2920 C   0  0  0  0  0  3  0  0  0  0  0  0
  189.6870  172.6440  145.7040 O   0  0  0  0  0  0  0  0  0  0  0  0
  189.5280  172.2890  144.5290 C   0  0  0  0  0  0  0  0  0  0  0  0
  190.9630  172.3930  140.9620 C   0  0  0  0  0  2  0  0  0  0  0  0
  190.5280  171.8570  139.6060 C   0  0  0  0  0  2  0  0  0  0  0  0
  190.7220  170.3560  139.5750 C   0  0  0  0  0  2  0  0  0  0  0  0
  190.8160  168.4210  140.8660 C   0  0  0  0  0  1  0  0  0  0  0  0
  190.9220  169.8670  140.9270 N   0  0  0  0  0  2  0  0  0  0  0  0
  187.6070  176.9190  142.4210 C   0  0  0  0  0  2  0  0  0  0  0  0
  186.3120  176.2880  142.9220 C   0  0  0  0  0  2  0  0  0  0  0  0
  184.7840  178.2680  143.3220 C   0  0  0  0  0  2  0  0  0  0  0  0
  185.6160  177.1520  143.9670 C   0  0  2  0  0  3  0  0  0  0  0  0
  186.6030  177.6850  145.0090 C   0  0  0  0  0  2  0  0  0  0  0  0
  186.0660  178.1390  147.3470 N   0  0  0  0  0  1  0  0  0  0  0  0
  184.5280  178.8960  145.6950 N   0  0  0  0  0  2  0  0  0  0  0  0
  185.9420  178.6590  145.9980 C   0  0  2  0  0  3  0  0  0  0  0  0
  184.4280  179.3770  144.3190 C   0  0  0  0  0  2  0  0  0  0  0  0
  1 10  1  0  0  0  0
  2 12  1  0  0  0  0
  2 15  1  0  0  0  0
  3  5  1  0  0  0  0
  4  1  2  0  0  0  0
  5  7  1  0  0  0  0
  6 29  1  0  0  0  0
  6  4  1  0  0  0  0
  7 10  1  0  0  0  0
  8  5  2  0  0  0  0
  9 11  2  0  0  0  0
  9 14  1  0  0  0  0
 10 19  1  1  0  0  0
 11  8  1  0  0  0  0
 12  6  1  0  0  0  0
 13  8  1  6  0  0  0
 13  4  1  0  0  0  0
 14  3  2  0  0  0  0
 15 24  1  6  0  0  0
 15 13  1  0  0  0  0
 15 20  1  0  0  0  0
 16 14  1  0  0  0  0
 16 17  1  0  0  0  0
 19 18  3  0  0  0  0
 20 21  1  0  0  0  0
 21 23  2  0  0  0  0
 23 22  2  0  0  0  0
 25 24  1  0  0  0  0
 26 25  1  0  0  0  0
 26 28  1  0  0  0  0
 27 28  1  0  0  0  0
 29 30  1  0  0  0  0
 31 32  1  0  0  0  0
 31 37  1  0  0  0  0
 32 30  1  6  0  0  0
 32 33  1  0  0  0  0
 33 36  1  0  0  0  0
 35 36  1  0  0  0  0
 36 34  1  1  0  0  0
 37 35  1  0  0  0  0
M  END
>  <MODEL>
9

>  <REMARK>
 VINA RESULT:      -6.4      2.468      8.237
  Name = 
  11 active torsions:
  status: ('A' for Active; 'I' for Inactive)
    1  A    between atoms: O_1  and  C_5
    2  A    between atoms: O_1  and  C_36
    3  A    between atoms: C_3  and  C_32
    4  A    between atoms: C_6  and  C_31
    5  A    between atoms: N_14  and  C_37
    6  A    between atoms: C_17  and  C_26
    7  A    between atoms: C_17  and  C_33
    8  A    between atoms: C_24  and  C_28
    9  A    between atoms: C_26  and  N_34
   10  A    between atoms: C_31  and  C_37
   11  A    between atoms: C_33  and  C_36
                            x       y       z     vdW  Elec       q    Type
                         _______ _______ _______ _____ _____    ______ ____

>  <TORSDO>
F 11

$$$$
