=
 OpenBabel11052417203D

 30 34  0  0  1  0  0  0  0  0999 V2000
  187.8850  176.0750  142.5620 C   0  0  0  0  0  0  0  0  0  0  0  0
  189.1230  174.1270  141.3780 C   0  0  1  0  0  3  0  0  0  0  0  0
  189.8560  173.6480  145.7850 C   0  0  0  0  0  3  0  0  0  0  0  0
  187.8480  176.5350  143.8080 C   0  0  0  0  0  0  0  0  0  0  0  0
  186.7280  176.4120  141.8980 C   0  0  0  0  0  3  0  0  0  0  0  0
  186.7080  177.1860  144.0780 N   0  0  0  0  0  0  0  0  0  0  0  0
  189.2070  174.5250  146.5680 C   0  0  0  0  0  0  0  0  0  0  0  0
  186.0280  177.1230  142.8920 C   0  0  0  0  0  0  0  0  0  0  0  0
  188.5590  172.7410  141.7080 C   0  0  0  0  0  2  0  0  0  0  0  0
  188.5990  174.5800  140.1660 O   0  0  0  0  0  1  0  0  0  0  0  0
  190.2660  173.9650  144.3680 C   0  0  1  0  0  3  0  0  0  0  0  0
  190.3430  172.6780  143.5360 C   0  0  0  0  0  2  0  0  0  0  0  0
  188.8780  175.1200  142.4760 C   0  0  0  0  0  0  0  0  0  0  0  0
  188.7260  175.9090  144.6090 N   0  0  0  0  0  0  0  0  0  0  0  0
  188.8890  174.1610  147.8700 O   0  0  0  0  0  1  0  0  0  0  0  0
  188.8140  175.8960  146.0700 C   0  0  2  0  0  3  0  0  0  0  0  0
  188.9610  172.1970  143.0860 C   0  0  0  0  0  2  0  0  0  0  0  0
  189.3710  175.0360  143.7920 C   0  0  0  0  0  0  0  0  0  0  0  0
  185.0350  178.4370  140.4970 O   0  0  0  0  0  0  0  0  0  0  0  0
  184.7120  177.6460  142.6770 N   0  0  0  0  0  2  0  0  0  0  0  0
  182.7900  178.4660  141.2700 C   0  0  0  0  0  1  0  0  0  0  0  0
  184.2370  178.1730  141.4360 C   0  0  0  0  0  0  0  0  0  0  0  0
  190.5400  176.6610  147.7450 N   0  0  0  0  0  2  0  0  0  0  0  0
  189.8010  176.9160  146.5500 C   0  0  0  0  0  0  0  0  0  0  0  0
  190.0080  177.9660  145.8830 O   0  0  0  0  0  0  0  0  0  0  0  0
  191.5400  177.5850  148.2560 C   0  0  0  0  0  2  0  0  0  0  0  0
  190.9970  178.3440  149.2770 F   0  0  0  0  0  0  0  0  0  0  0  0
  185.4580  176.7870  146.1490 C   0  0  0  0  0  2  0  0  0  0  0  0
  184.7830  177.9060  145.3990 C   0  0  0  0  0  2  0  0  0  0  0  0
  186.2970  177.7760  145.3530 C   0  0  0  0  0  3  0  0  0  0  0  0
  1  4  2  0  0  0  0
  2 10  1  6  0  0  0
  2  9  1  0  0  0  0
  2 13  1  0  0  0  0
  3  7  2  0  0  0  0
  4  6  1  0  0  0  0
  4 14  1  0  0  0  0
  5  1  1  0  0  0  0
  5  8  2  0  0  0  0
  6 30  1  0  0  0  0
  7 15  1  0  0  0  0
  8  6  1  0  0  0  0
  9 17  1  0  0  0  0
 11 12  1  6  0  0  0
 11  3  1  0  0  0  0
 13  1  1  0  0  0  0
 13 18  2  0  0  0  0
 14 16  1  0  0  0  0
 16 24  1  6  0  0  0
 16  7  1  0  0  0  0
 17 12  1  0  0  0  0
 18 11  1  0  0  0  0
 18 14  1  0  0  0  0
 19 22  2  0  0  0  0
 20  8  1  0  0  0  0
 21 22  1  0  0  0  0
 22 20  1  0  0  0  0
 23 26  1  0  0  0  0
 24 23  1  0  0  0  0
 25 24  2  0  0  0  0
 26 27  1  0  0  0  0
 29 28  1  0  0  0  0
 30 29  1  0  0  0  0
 30 28  1  0  0  0  0
M  END
>  <MODEL>
1

>  <REMARK>
 VINA RESULT:      -7.9      0.000      0.000
  Name = 
  4 active torsions:
  status: ('A' for Active; 'I' for Inactive)
    1  A    between atoms: N_7  and  C_16
    2  A    between atoms: N_8  and  C_30
    3  A    between atoms: N_9  and  C_12
    4  A    between atoms: C_10  and  C_25
                            x       y       z     vdW  Elec       q    Type
                         _______ _______ _______ _____ _____    ______ ____

>  <TORSDO>
F 4

$$$$
=
 OpenBabel11052417203D

 30 34  0  0  1  0  0  0  0  0999 V2000
  191.2770  175.7350  143.6320 C   0  0  0  0  0  0  0  0  0  0  0  0
  192.6630  176.4100  145.7180 C   0  0  1  0  0  3  0  0  0  0  0  0
  188.3360  176.9610  146.7950 C   0  0  0  0  0  3  0  0  0  0  0  0
  189.9930  175.8140  143.3010 C   0  0  0  0  0  0  0  0  0  0  0  0
  191.8830  174.7140  142.9350 C   0  0  0  0  0  3  0  0  0  0  0  0
  189.6390  174.8900  142.3970 N   0  0  0  0  0  0  0  0  0  0  0  0
  187.4620  176.5670  145.8560 C   0  0  0  0  0  0  0  0  0  0  0  0
  190.8130  174.2250  142.1620 C   0  0  0  0  0  0  0  0  0  0  0  0
  192.4540  175.4920  146.9260 C   0  0  0  0  0  2  0  0  0  0  0  0
  193.8160  176.0340  145.0270 O   0  0  0  0  0  1  0  0  0  0  0  0
  189.7250  177.4500  146.4660 C   0  0  1  0  0  3  0  0  0  0  0  0
  190.6760  177.1830  147.6410 C   0  0  0  0  0  2  0  0  0  0  0  0
  191.4720  176.4350  144.8050 C   0  0  0  0  0  0  0  0  0  0  0  0
  189.2710  176.4870  144.2130 N   0  0  0  0  0  0  0  0  0  0  0  0
  186.1930  176.1550  146.2450 O   0  0  0  0  0  1  0  0  0  0  0  0
  187.8200  176.5600  144.3890 C   0  0  2  0  0  3  0  0  0  0  0  0
  191.1410  175.7250  147.6880 C   0  0  0  0  0  2  0  0  0  0  0  0
  190.1800  176.8790  145.1440 C   0  0  0  0  0  0  0  0  0  0  0  0
  190.4190  171.4250  142.8340 O   0  0  0  0  0  0  0  0  0  0  0  0
  190.9510  173.1000  141.2860 N   0  0  0  0  0  2  0  0  0  0  0  0
  190.5860  170.7100  140.5760 C   0  0  0  0  0  1  0  0  0  0  0  0
  190.6260  171.7520  141.6350 C   0  0  0  0  0  0  0  0  0  0  0  0
  185.9380  178.2040  144.0330 N   0  0  0  0  0  2  0  0  0  0  0  0
  187.2660  177.7820  143.7220 C   0  0  0  0  0  0  0  0  0  0  0  0
  187.9810  178.4540  142.9290 O   0  0  0  0  0  0  0  0  0  0  0  0
  185.3430  179.3980  143.4540 C   0  0  0  0  0  2  0  0  0  0  0  0
  185.7210  180.5100  144.1830 F   0  0  0  0  0  0  0  0  0  0  0  0
  188.3880  174.4490  140.3360 C   0  0  0  0  0  2  0  0  0  0  0  0
  187.9270  175.7710  140.8940 C   0  0  0  0  0  2  0  0  0  0  0  0
  188.3070  174.6460  141.8430 C   0  0  0  0  0  3  0  0  0  0  0  0
  1 13  1  0  0  0  0
  2 10  1  6  0  0  0
  2  9  1  0  0  0  0
  4  1  2  0  0  0  0
  4 14  1  0  0  0  0
  5  1  1  0  0  0  0
  6  4  1  0  0  0  0
  7 15  1  0  0  0  0
  7  3  2  0  0  0  0
  8  6  1  0  0  0  0
  8  5  2  0  0  0  0
  9 17  1  0  0  0  0
 11  3  1  1  0  0  0
 11 12  1  0  0  0  0
 12 17  1  0  0  0  0
 13 18  2  0  0  0  0
 13  2  1  0  0  0  0
 14 16  1  0  0  0  0
 14 18  1  0  0  0  0
 16 24  1  1  0  0  0
 16  7  1  0  0  0  0
 18 11  1  0  0  0  0
 20 22  1  0  0  0  0
 20  8  1  0  0  0  0
 21 22  1  0  0  0  0
 22 19  2  0  0  0  0
 24 23  1  0  0  0  0
 25 24  2  0  0  0  0
 26 23  1  0  0  0  0
 26 27  1  0  0  0  0
 28 29  1  0  0  0  0
 28 30  1  0  0  0  0
 29 30  1  0  0  0  0
 30  6  1  0  0  0  0
M  END
>  <MODEL>
2

>  <REMARK>
 VINA RESULT:      -7.8      2.791      5.877
  Name = 
  4 active torsions:
  status: ('A' for Active; 'I' for Inactive)
    1  A    between atoms: N_7  and  C_16
    2  A    between atoms: N_8  and  C_30
    3  A    between atoms: N_9  and  C_12
    4  A    between atoms: C_10  and  C_25
                            x       y       z     vdW  Elec       q    Type
                         _______ _______ _______ _____ _____    ______ ____

>  <TORSDO>
F 4

$$$$
=
 OpenBabel11052417203D

 30 34  0  0  1  0  0  0  0  0999 V2000
  192.2600  175.5030  142.7100 C   0  0  0  0  0  0  0  0  0  0  0  0
  194.4690  176.2430  143.8520 C   0  0  1  0  0  3  0  0  0  0  0  0
  191.4160  175.7540  147.1120 C   0  0  0  0  0  3  0  0  0  0  0  0
  191.0080  175.3430  143.1200 C   0  0  0  0  0  0  0  0  0  0  0  0
  192.5040  174.7100  141.6110 C   0  0  0  0  0  3  0  0  0  0  0  0
  190.3320  174.4610  142.3700 N   0  0  0  0  0  0  0  0  0  0  0  0
  190.2260  175.2800  146.7110 C   0  0  0  0  0  0  0  0  0  0  0  0
  191.2550  174.0870  141.4300 C   0  0  0  0  0  0  0  0  0  0  0  0
  195.0720  175.1840  144.7810 C   0  0  0  0  0  2  0  0  0  0  0  0
  195.0890  176.1910  142.6020 O   0  0  0  0  0  1  0  0  0  0  0  0
  192.3230  176.5560  146.2120 C   0  0  1  0  0  3  0  0  0  0  0  0
  193.7870  176.3790  146.6380 C   0  0  0  0  0  2  0  0  0  0  0  0
  192.9800  176.1070  143.7210 C   0  0  0  0  0  0  0  0  0  0  0  0
  190.8290  175.7520  144.3880 N   0  0  0  0  0  0  0  0  0  0  0  0
  189.4420  174.5730  147.6120 O   0  0  0  0  0  1  0  0  0  0  0  0
  189.7170  175.4980  145.3050 C   0  0  2  0  0  3  0  0  0  0  0  0
  194.3760  175.0560  146.1430 C   0  0  0  0  0  2  0  0  0  0  0  0
  192.0440  176.2310  144.7640 C   0  0  0  0  0  0  0  0  0  0  0  0
  191.5800  171.2070  141.6550 O   0  0  0  0  0  0  0  0  0  0  0  0
  191.0270  173.1100  140.4080 N   0  0  0  0  0  2  0  0  0  0  0  0
  190.5980  170.7860  139.5350 C   0  0  0  0  0  1  0  0  0  0  0  0
  191.0820  171.6950  140.6050 C   0  0  0  0  0  0  0  0  0  0  0  0
  187.3980  176.4090  145.7040 N   0  0  0  0  0  2  0  0  0  0  0  0
  188.7430  176.6360  145.2850 C   0  0  0  0  0  0  0  0  0  0  0  0
  189.1190  177.7900  144.9430 O   0  0  0  0  0  0  0  0  0  0  0  0
  186.4030  177.4700  145.7450 C   0  0  0  0  0  2  0  0  0  0  0  0
  185.1810  176.9500  146.1300 F   0  0  0  0  0  0  0  0  0  0  0  0
  188.2180  173.9820  141.2260 C   0  0  0  0  0  2  0  0  0  0  0  0
  187.9830  175.1090  142.1990 C   0  0  0  0  0  2  0  0  0  0  0  0
  188.9570  173.9970  142.5570 C   0  0  0  0  0  3  0  0  0  0  0  0
  1  4  2  0  0  0  0
  1 13  1  0  0  0  0
  2 10  1  6  0  0  0
  2  9  1  0  0  0  0
  4 14  1  0  0  0  0
  5  1  1  0  0  0  0
  6 30  1  0  0  0  0
  6  4  1  0  0  0  0
  7  3  2  0  0  0  0
  7 15  1  0  0  0  0
  8  5  2  0  0  0  0
  8  6  1  0  0  0  0
  9 17  1  0  0  0  0
 11 12  1  1  0  0  0
 11  3  1  0  0  0  0
 13  2  1  0  0  0  0
 13 18  2  0  0  0  0
 14 18  1  0  0  0  0
 14 16  1  0  0  0  0
 16 24  1  1  0  0  0
 16  7  1  0  0  0  0
 17 12  1  0  0  0  0
 18 11  1  0  0  0  0
 20 22  1  0  0  0  0
 20  8  1  0  0  0  0
 21 22  1  0  0  0  0
 22 19  2  0  0  0  0
 23 26  1  0  0  0  0
 24 23  1  0  0  0  0
 25 24  2  0  0  0  0
 26 27  1  0  0  0  0
 28 29  1  0  0  0  0
 28 30  1  0  0  0  0
 29 30  1  0  0  0  0
M  END
>  <MODEL>
3

>  <REMARK>
 VINA RESULT:      -7.6      3.281      5.740
  Name = 
  4 active torsions:
  status: ('A' for Active; 'I' for Inactive)
    1  A    between atoms: N_7  and  C_16
    2  A    between atoms: N_8  and  C_30
    3  A    between atoms: N_9  and  C_12
    4  A    between atoms: C_10  and  C_25
                            x       y       z     vdW  Elec       q    Type
                         _______ _______ _______ _____ _____    ______ ____

>  <TORSDO>
F 4

$$$$
=
 OpenBabel11052417203D

 30 34  0  0  1  0  0  0  0  0999 V2000
  190.5610  173.2850  144.0380 C   0  0  0  0  0  0  0  0  0  0  0  0
  189.6310  171.8860  142.0610 C   0  0  1  0  0  3  0  0  0  0  0  0
  188.2810  176.1220  141.4090 C   0  0  0  0  0  3  0  0  0  0  0  0
  190.3850  174.5310  144.4610 C   0  0  0  0  0  0  0  0  0  0  0  0
  191.7820  172.8090  144.4590 C   0  0  0  0  0  3  0  0  0  0  0  0
  191.4310  174.9840  145.1660 N   0  0  0  0  0  0  0  0  0  0  0  0
  188.7530  177.0120  142.2960 C   0  0  0  0  0  0  0  0  0  0  0  0
  192.2820  173.9120  145.1770 C   0  0  0  0  0  0  0  0  0  0  0  0
  190.2210  172.2670  140.6990 C   0  0  0  0  0  2  0  0  0  0  0  0
  190.3010  170.7770  142.5790 O   0  0  0  0  0  1  0  0  0  0  0  0
  188.0680  174.6660  141.7450 C   0  0  1  0  0  3  0  0  0  0  0  0
  188.1920  173.8050  140.4810 C   0  0  0  0  0  2  0  0  0  0  0  0
  189.6500  173.0290  143.0330 C   0  0  0  0  0  0  0  0  0  0  0  0
  189.4360  175.1780  143.7630 N   0  0  0  0  0  0  0  0  0  0  0  0
  188.8950  178.3390  141.9110 O   0  0  0  0  0  1  0  0  0  0  0  0
  189.1330  176.6090  143.7020 C   0  0  2  0  0  3  0  0  0  0  0  0
  189.6520  173.5570  140.0920 C   0  0  0  0  0  2  0  0  0  0  0  0
  188.9740  174.2550  142.8810 C   0  0  0  0  0  0  0  0  0  0  0  0
  194.8230  174.4310  143.8630 O   0  0  0  0  0  0  0  0  0  0  0  0
  193.5820  173.9090  145.7790 N   0  0  0  0  0  2  0  0  0  0  0  0
  196.0340  174.4740  145.9040 C   0  0  0  0  0  1  0  0  0  0  0  0
  194.7890  174.2920  145.1150 C   0  0  0  0  0  0  0  0  0  0  0  0
  187.2910  178.1640  144.4480 N   0  0  0  0  0  2  0  0  0  0  0  0
  188.0260  176.9570  144.6490 C   0  0  0  0  0  0  0  0  0  0  0  0
  187.7200  176.1710  145.5870 O   0  0  0  0  0  0  0  0  0  0  0  0
  186.1820  178.5540  145.3050 C   0  0  0  0  0  2  0  0  0  0  0  0
  185.8370  179.8700  145.0540 F   0  0  0  0  0  0  0  0  0  0  0  0
  192.2590  176.2210  147.1130 C   0  0  0  0  0  2  0  0  0  0  0  0
  190.7750  176.4570  147.0020 C   0  0  0  0  0  2  0  0  0  0  0  0
  191.6120  176.3190  145.7390 C   0  0  0  0  0  3  0  0  0  0  0  0
  1  5  1  0  0  0  0
  1  4  2  0  0  0  0
  2 10  1  1  0  0  0
  2 13  1  0  0  0  0
  3 11  1  0  0  0  0
  3  7  2  0  0  0  0
  4  6  1  0  0  0  0
  5  8  2  0  0  0  0
  6  8  1  0  0  0  0
  6 30  1  0  0  0  0
  7 16  1  0  0  0  0
  8 20  1  0  0  0  0
  9  2  1  0  0  0  0
 11 12  1  6  0  0  0
 11 18  1  0  0  0  0
 13  1  1  0  0  0  0
 14  4  1  0  0  0  0
 15  7  1  0  0  0  0
 16 14  1  0  0  0  0
 16 24  1  1  0  0  0
 17 12  1  0  0  0  0
 17  9  1  0  0  0  0
 18 13  2  0  0  0  0
 18 14  1  0  0  0  0
 19 22  2  0  0  0  0
 22 20  1  0  0  0  0
 22 21  1  0  0  0  0
 23 24  1  0  0  0  0
 23 26  1  0  0  0  0
 24 25  2  0  0  0  0
 27 26  1  0  0  0  0
 29 28  1  0  0  0  0
 30 29  1  0  0  0  0
 30 28  1  0  0  0  0
M  END
>  <MODEL>
4

>  <REMARK>
 VINA RESULT:      -7.5      2.951      6.242
  Name = 
  4 active torsions:
  status: ('A' for Active; 'I' for Inactive)
    1  A    between atoms: N_7  and  C_16
    2  A    between atoms: N_8  and  C_30
    3  A    between atoms: N_9  and  C_12
    4  A    between atoms: C_10  and  C_25
                            x       y       z     vdW  Elec       q    Type
                         _______ _______ _______ _____ _____    ______ ____

>  <TORSDO>
F 4

$$$$
=
 OpenBabel11052417203D

 30 34  0  0  1  0  0  0  0  0999 V2000
  190.0330  175.6450  145.6570 C   0  0  0  0  0  0  0  0  0  0  0  0
  192.0340  175.3770  147.2870 C   0  0  1  0  0  3  0  0  0  0  0  0
  193.5990  174.5510  143.1570 C   0  0  0  0  0  3  0  0  0  0  0  0
  189.8450  175.4000  144.3660 C   0  0  0  0  0  0  0  0  0  0  0  0
  189.1640  176.6230  146.0860 C   0  0  0  0  0  3  0  0  0  0  0  0
  188.8790  176.1640  143.8360 N   0  0  0  0  0  0  0  0  0  0  0  0
  192.7130  174.7370  142.1660 C   0  0  0  0  0  0  0  0  0  0  0  0
  188.4510  176.9030  144.9060 C   0  0  0  0  0  0  0  0  0  0  0  0
  193.1420  176.4160  147.0870 C   0  0  0  0  0  2  0  0  0  0  0  0
  191.1910  175.7720  148.3280 O   0  0  0  0  0  1  0  0  0  0  0  0
  193.1910  174.1610  144.5570 C   0  0  1  0  0  3  0  0  0  0  0  0
  194.2250  174.6660  145.5720 C   0  0  0  0  0  2  0  0  0  0  0  0
  191.2550  175.1210  146.0300 C   0  0  0  0  0  0  0  0  0  0  0  0
  190.8980  174.7810  143.8050 N   0  0  0  0  0  0  0  0  0  0  0  0
  193.1760  175.0700  140.9000 O   0  0  0  0  0  1  0  0  0  0  0  0
  191.2260  174.5920  142.3910 C   0  0  2  0  0  3  0  0  0  0  0  0
  194.0530  176.1560  145.8790 C   0  0  0  0  0  2  0  0  0  0  0  0
  191.7720  174.6020  144.8290 C   0  0  0  0  0  0  0  0  0  0  0  0
  185.7430  176.7450  145.9510 O   0  0  0  0  0  0  0  0  0  0  0  0
  187.4400  177.9170  144.8430 N   0  0  0  0  0  2  0  0  0  0  0  0
  185.2970  179.0410  145.5430 C   0  0  0  0  0  1  0  0  0  0  0  0
  186.1640  177.8360  145.4810 C   0  0  0  0  0  0  0  0  0  0  0  0
  190.4830  173.0580  140.5300 N   0  0  0  0  0  2  0  0  0  0  0  0
  190.7660  173.2470  141.9160 C   0  0  0  0  0  0  0  0  0  0  0  0
  190.6730  172.2840  142.7250 O   0  0  0  0  0  0  0  0  0  0  0  0
  190.0650  171.7740  139.9870 C   0  0  0  0  0  2  0  0  0  0  0  0
  188.8600  171.9160  139.3250 F   0  0  0  0  0  0  0  0  0  0  0  0
  186.9180  176.1590  142.3660 C   0  0  0  0  0  2  0  0  0  0  0  0
  187.7190  174.9130  142.0870 C   0  0  0  0  0  2  0  0  0  0  0  0
  188.4380  176.2060  142.4420 C   0  0  0  0  0  3  0  0  0  0  0  0
  1 13  1  0  0  0  0
  1  5  1  0  0  0  0
  2 10  1  1  0  0  0
  4  1  2  0  0  0  0
  6  4  1  0  0  0  0
  6  8  1  0  0  0  0
  7 16  1  0  0  0  0
  7  3  2  0  0  0  0
  8  5  2  0  0  0  0
  9  2  1  0  0  0  0
 11  3  1  6  0  0  0
 11 18  1  0  0  0  0
 11 12  1  0  0  0  0
 12 17  1  0  0  0  0
 13  2  1  0  0  0  0
 14  4  1  0  0  0  0
 14 18  1  0  0  0  0
 15  7  1  0  0  0  0
 16 24  1  1  0  0  0
 16 14  1  0  0  0  0
 17  9  1  0  0  0  0
 18 13  2  0  0  0  0
 20  8  1  0  0  0  0
 20 22  1  0  0  0  0
 22 21  1  0  0  0  0
 22 19  2  0  0  0  0
 23 24  1  0  0  0  0
 24 25  2  0  0  0  0
 26 23  1  0  0  0  0
 27 26  1  0  0  0  0
 28 30  1  0  0  0  0
 29 28  1  0  0  0  0
 29 30  1  0  0  0  0
 30  6  1  0  0  0  0
M  END
>  <MODEL>
5

>  <REMARK>
 VINA RESULT:      -7.5      3.433      5.893
  Name = 
  4 active torsions:
  status: ('A' for Active; 'I' for Inactive)
    1  A    between atoms: N_7  and  C_16
    2  A    between atoms: N_8  and  C_30
    3  A    between atoms: N_9  and  C_12
    4  A    between atoms: C_10  and  C_25
                            x       y       z     vdW  Elec       q    Type
                         _______ _______ _______ _____ _____    ______ ____

>  <TORSDO>
F 4

$$$$
=
 OpenBabel11052417203D

 30 34  0  0  1  0  0  0  0  0999 V2000
  188.5590  175.9390  142.7430 C   0  0  0  0  0  0  0  0  0  0  0  0
  188.5790  174.8010  140.4120 C   0  0  1  0  0  3  0  0  0  0  0  0
  191.9170  172.9590  142.7890 C   0  0  0  0  0  3  0  0  0  0  0  0
  189.3660  175.9180  143.7970 C   0  0  0  0  0  0  0  0  0  0  0  0
  187.2780  176.2610  143.1340 C   0  0  0  0  0  3  0  0  0  0  0  0
  188.7250  176.2040  144.9380 N   0  0  0  0  0  0  0  0  0  0  0  0
  191.9970  173.3660  144.0660 C   0  0  0  0  0  0  0  0  0  0  0  0
  187.4410  176.4320  144.5210 C   0  0  0  0  0  0  0  0  0  0  0  0
  188.2390  173.3080  140.4470 C   0  0  0  0  0  2  0  0  0  0  0  0
  187.4420  175.5410  140.0820 O   0  0  0  0  0  1  0  0  0  0  0  0
  191.3510  173.8230  141.6890 C   0  0  1  0  0  3  0  0  0  0  0  0
  190.7660  172.9480  140.5730 C   0  0  0  0  0  2  0  0  0  0  0  0
  189.1790  175.2820  141.7000 C   0  0  0  0  0  0  0  0  0  0  0  0
  190.4960  175.2300  143.5600 N   0  0  0  0  0  0  0  0  0  0  0  0
  192.5560  172.5160  145.0120 O   0  0  0  0  0  1  0  0  0  0  0  0
  191.4970  174.7240  144.5010 C   0  0  2  0  0  3  0  0  0  0  0  0
  189.3820  172.4030  140.9310 C   0  0  0  0  0  2  0  0  0  0  0  0
  190.3900  174.8370  142.2640 C   0  0  0  0  0  0  0  0  0  0  0  0
  186.2460  179.0410  144.9830 O   0  0  0  0  0  0  0  0  0  0  0  0
  186.3440  176.7380  145.3900 N   0  0  0  0  0  2  0  0  0  0  0  0
  184.4420  178.1510  146.2440 C   0  0  0  0  0  1  0  0  0  0  0  0
  185.7130  178.0170  145.4880 C   0  0  0  0  0  0  0  0  0  0  0  0
  193.2130  175.9340  145.9010 N   0  0  0  0  0  2  0  0  0  0  0  0
  192.6460  175.6780  144.6160 C   0  0  0  0  0  0  0  0  0  0  0  0
  193.1340  176.2150  143.5850 O   0  0  0  0  0  0  0  0  0  0  0  0
  194.3500  176.8200  146.0900 C   0  0  0  0  0  2  0  0  0  0  0  0
  194.1950  177.5380  147.2620 F   0  0  0  0  0  0  0  0  0  0  0  0
  189.2970  174.8160  146.8760 C   0  0  0  0  0  2  0  0  0  0  0  0
  188.2170  175.7820  147.2910 C   0  0  0  0  0  2  0  0  0  0  0  0
  189.2780  176.2220  146.2930 C   0  0  0  0  0  3  0  0  0  0  0  0
  1  5  1  0  0  0  0
  1  4  2  0  0  0  0
  2 10  1  1  0  0  0
  2  9  1  0  0  0  0
  2 13  1  0  0  0  0
  3  7  2  0  0  0  0
  4  6  1  0  0  0  0
  5  8  2  0  0  0  0
  6 30  1  0  0  0  0
  7 16  1  0  0  0  0
  7 15  1  0  0  0  0
  8  6  1  0  0  0  0
  8 20  1  0  0  0  0
  9 17  1  0  0  0  0
 11 12  1  6  0  0  0
 11 18  1  0  0  0  0
 11  3  1  0  0  0  0
 12 17  1  0  0  0  0
 13 18  2  0  0  0  0
 13  1  1  0  0  0  0
 14  4  1  0  0  0  0
 14 16  1  0  0  0  0
 16 24  1  6  0  0  0
 18 14  1  0  0  0  0
 19 22  2  0  0  0  0
 20 22  1  0  0  0  0
 22 21  1  0  0  0  0
 23 26  1  0  0  0  0
 24 23  1  0  0  0  0
 25 24  2  0  0  0  0
 26 27  1  0  0  0  0
 28 29  1  0  0  0  0
 30 28  1  0  0  0  0
 30 29  1  0  0  0  0
M  END
>  <MODEL>
6

>  <REMARK>
 VINA RESULT:      -7.4      2.427      3.257
  Name = 
  4 active torsions:
  status: ('A' for Active; 'I' for Inactive)
    1  A    between atoms: N_7  and  C_16
    2  A    between atoms: N_8  and  C_30
    3  A    between atoms: N_9  and  C_12
    4  A    between atoms: C_10  and  C_25
                            x       y       z     vdW  Elec       q    Type
                         _______ _______ _______ _____ _____    ______ ____

>  <TORSDO>
F 4

$$$$
=
 OpenBabel11052417203D

 30 34  0  0  1  0  0  0  0  0999 V2000
  190.1180  174.9310  143.8860 C   0  0  0  0  0  0  0  0  0  0  0  0
  189.7890  173.6990  141.6270 C   0  0  1  0  0  3  0  0  0  0  0  0
  193.3620  171.8380  143.6170 C   0  0  0  0  0  3  0  0  0  0  0  0
  191.0600  174.9240  144.8220 C   0  0  0  0  0  0  0  0  0  0  0  0
  188.9120  175.3130  144.4290 C   0  0  0  0  0  3  0  0  0  0  0  0
  190.5870  175.2790  146.0250 N   0  0  0  0  0  0  0  0  0  0  0  0
  193.6260  172.2930  144.8520 C   0  0  0  0  0  0  0  0  0  0  0  0
  189.2660  175.5350  145.7740 C   0  0  0  0  0  0  0  0  0  0  0  0
  189.4140  172.2210  141.7750 C   0  0  0  0  0  2  0  0  0  0  0  0
  188.6410  174.4650  141.4190 O   0  0  0  0  0  1  0  0  0  0  0  0
  192.6780  172.6760  142.5650 C   0  0  1  0  0  3  0  0  0  0  0  0
  191.9220  171.7780  141.5770 C   0  0  0  0  0  2  0  0  0  0  0  0
  190.5720  174.2100  142.8000 C   0  0  0  0  0  0  0  0  0  0  0  0
  192.1260  174.1870  144.4680 N   0  0  0  0  0  0  0  0  0  0  0  0
  194.2820  171.4630  145.7520 O   0  0  0  0  0  1  0  0  0  0  0  0
  193.2290  173.6850  145.2880 C   0  0  2  0  0  3  0  0  0  0  0  0
  190.5840  171.2970  142.1410 C   0  0  0  0  0  2  0  0  0  0  0  0
  191.8350  173.7460  143.2170 C   0  0  0  0  0  0  0  0  0  0  0  0
  187.5960  177.9140  145.7770 O   0  0  0  0  0  0  0  0  0  0  0  0
  188.3060  175.9150  146.7670 N   0  0  0  0  0  2  0  0  0  0  0  0
  186.3130  177.1860  147.6380 C   0  0  0  0  0  1  0  0  0  0  0  0
  187.4210  177.0320  146.6600 C   0  0  0  0  0  0  0  0  0  0  0  0
  194.5400  175.4730  144.0830 N   0  0  0  0  0  2  0  0  0  0  0  0
  194.4110  174.6020  145.2060 C   0  0  0  0  0  0  0  0  0  0  0  0
  195.2580  174.6340  146.1400 O   0  0  0  0  0  0  0  0  0  0  0  0
  195.6400  176.4160  143.9490 C   0  0  0  0  0  2  0  0  0  0  0  0
  195.4590  177.4730  144.8210 F   0  0  0  0  0  0  0  0  0  0  0  0
  191.0790  176.6650  147.9860 C   0  0  0  0  0  2  0  0  0  0  0  0
  192.3670  176.4320  147.2390 C   0  0  0  0  0  2  0  0  0  0  0  0
  191.3180  175.3320  147.2920 C   0  0  0  0  0  3  0  0  0  0  0  0
  1  5  1  0  0  0  0
  1  4  2  0  0  0  0
  2 10  1  1  0  0  0
  2  9  1  0  0  0  0
  2 13  1  0  0  0  0
  3  7  2  0  0  0  0
  4  6  1  0  0  0  0
  5  8  2  0  0  0  0
  6 30  1  0  0  0  0
  7 16  1  0  0  0  0
  7 15  1  0  0  0  0
  8  6  1  0  0  0  0
  8 20  1  0  0  0  0
  9 17  1  0  0  0  0
 11 12  1  1  0  0  0
 11 18  1  0  0  0  0
 11  3  1  0  0  0  0
 12 17  1  0  0  0  0
 13 18  2  0  0  0  0
 13  1  1  0  0  0  0
 14  4  1  0  0  0  0
 14 16  1  0  0  0  0
 16 24  1  6  0  0  0
 18 14  1  0  0  0  0
 19 22  2  0  0  0  0
 22 20  1  0  0  0  0
 22 21  1  0  0  0  0
 23 24  1  0  0  0  0
 24 25  2  0  0  0  0
 26 23  1  0  0  0  0
 26 27  1  0  0  0  0
 29 30  1  0  0  0  0
 29 28  1  0  0  0  0
 30 28  1  0  0  0  0
M  END
>  <MODEL>
7

>  <REMARK>
 VINA RESULT:      -7.1      3.233      4.874
  Name = 
  4 active torsions:
  status: ('A' for Active; 'I' for Inactive)
    1  A    between atoms: N_7  and  C_16
    2  A    between atoms: N_8  and  C_30
    3  A    between atoms: N_9  and  C_12
    4  A    between atoms: C_10  and  C_25
                            x       y       z     vdW  Elec       q    Type
                         _______ _______ _______ _____ _____    ______ ____

>  <TORSDO>
F 4

$$$$
=
 OpenBabel11052417203D

 30 34  0  0  1  0  0  0  0  0999 V2000
  190.6830  175.2410  145.4980 C   0  0  0  0  0  0  0  0  0  0  0  0
  192.4720  175.8950  147.2590 C   0  0  1  0  0  3  0  0  0  0  0  0
  194.6360  173.8160  143.9160 C   0  0  0  0  0  3  0  0  0  0  0  0
  190.6900  174.5050  144.3920 C   0  0  0  0  0  0  0  0  0  0  0  0
  189.6710  176.1720  145.4410 C   0  0  0  0  0  3  0  0  0  0  0  0
  189.7290  174.8670  143.5310 N   0  0  0  0  0  0  0  0  0  0  0  0
  193.8730  173.4870  142.8620 C   0  0  0  0  0  0  0  0  0  0  0  0
  189.0920  175.8830  144.1910 C   0  0  0  0  0  0  0  0  0  0  0  0
  193.4840  176.9310  146.7610 C   0  0  0  0  0  2  0  0  0  0  0  0
  191.4650  176.5250  147.9930 O   0  0  0  0  0  1  0  0  0  0  0  0
  194.0920  173.9250  145.3190 C   0  0  1  0  0  3  0  0  0  0  0  0
  194.9280  174.9170  146.1380 C   0  0  0  0  0  2  0  0  0  0  0  0
  191.8930  175.0780  146.1420 C   0  0  0  0  0  0  0  0  0  0  0  0
  191.8650  173.8800  144.2020 N   0  0  0  0  0  0  0  0  0  0  0  0
  194.4600  173.3840  141.6080 O   0  0  0  0  0  1  0  0  0  0  0  0
  192.3910  173.2240  143.0050 C   0  0  2  0  0  3  0  0  0  0  0  0
  194.5670  176.3720  145.8270 C   0  0  0  0  0  2  0  0  0  0  0  0
  192.6120  174.2260  145.2830 C   0  0  0  0  0  0  0  0  0  0  0  0
  189.2540  178.1540  142.3830 O   0  0  0  0  0  0  0  0  0  0  0  0
  188.0000  176.6430  143.6580 N   0  0  0  0  0  2  0  0  0  0  0  0
  186.9070  178.2230  142.0290 C   0  0  0  0  0  1  0  0  0  0  0  0
  188.1260  177.6730  142.6750 C   0  0  0  0  0  0  0  0  0  0  0  0
  191.9930  171.0250  141.8320 N   0  0  0  0  0  2  0  0  0  0  0  0
  192.1370  171.7480  143.0540 C   0  0  0  0  0  0  0  0  0  0  0  0
  192.0950  171.1460  144.1620 O   0  0  0  0  0  0  0  0  0  0  0  0
  191.7790  169.5870  141.7970 C   0  0  0  0  0  2  0  0  0  0  0  0
  190.4420  169.3080  142.0130 F   0  0  0  0  0  0  0  0  0  0  0  0
  187.9820  174.0600  142.0130 C   0  0  0  0  0  2  0  0  0  0  0  0
  188.9080  172.9110  142.3190 C   0  0  0  0  0  2  0  0  0  0  0  0
  189.4700  174.3190  142.1990 C   0  0  0  0  0  3  0  0  0  0  0  0
  1 13  1  0  0  0  0
  2 10  1  6  0  0  0
  4  1  2  0  0  0  0
  5  1  1  0  0  0  0
  6  8  1  0  0  0  0
  6  4  1  0  0  0  0
  7 16  1  0  0  0  0
  7  3  2  0  0  0  0
  8  5  2  0  0  0  0
  9  2  1  0  0  0  0
 11  3  1  6  0  0  0
 11 12  1  0  0  0  0
 13  2  1  0  0  0  0
 14  4  1  0  0  0  0
 14 18  1  0  0  0  0
 15  7  1  0  0  0  0
 16 24  1  1  0  0  0
 16 14  1  0  0  0  0
 17 12  1  0  0  0  0
 17  9  1  0  0  0  0
 18 11  1  0  0  0  0
 18 13  2  0  0  0  0
 19 22  2  0  0  0  0
 20  8  1  0  0  0  0
 21 22  1  0  0  0  0
 22 20  1  0  0  0  0
 23 24  1  0  0  0  0
 24 25  2  0  0  0  0
 26 23  1  0  0  0  0
 26 27  1  0  0  0  0
 28 30  1  0  0  0  0
 28 29  1  0  0  0  0
 30 29  1  0  0  0  0
 30  6  1  0  0  0  0
M  END
>  <MODEL>
8

>  <REMARK>
 VINA RESULT:      -7.0      3.824      6.262
  Name = 
  4 active torsions:
  status: ('A' for Active; 'I' for Inactive)
    1  A    between atoms: N_7  and  C_16
    2  A    between atoms: N_8  and  C_30
    3  A    between atoms: N_9  and  C_12
    4  A    between atoms: C_10  and  C_25
                            x       y       z     vdW  Elec       q    Type
                         _______ _______ _______ _____ _____    ______ ____

>  <TORSDO>
F 4

$$$$
=
 OpenBabel11052417203D

 30 34  0  0  1  0  0  0  0  0999 V2000
  192.3510  173.3290  143.2800 C   0  0  0  0  0  0  0  0  0  0  0  0
  190.9260  171.8580  141.6870 C   0  0  1  0  0  3  0  0  0  0  0  0
  188.8440  175.8270  142.0070 C   0  0  0  0  0  3  0  0  0  0  0  0
  192.1820  174.5140  143.8540 C   0  0  0  0  0  0  0  0  0  0  0  0
  193.6940  173.0510  143.1530 C   0  0  0  0  0  3  0  0  0  0  0  0
  193.3460  175.1130  144.1430 N   0  0  0  0  0  0  0  0  0  0  0  0
  189.4970  176.7550  142.7250 C   0  0  0  0  0  0  0  0  0  0  0  0
  194.2750  174.1980  143.7250 C   0  0  0  0  0  0  0  0  0  0  0  0
  190.8730  172.3750  140.2460 C   0  0  0  0  0  2  0  0  0  0  0  0
  191.8960  170.8610  141.8010 O   0  0  0  0  0  1  0  0  0  0  0  0
  188.9890  174.3460  142.2600 C   0  0  1  0  0  3  0  0  0  0  0  0
  188.7270  173.5580  140.9690 C   0  0  0  0  0  2  0  0  0  0  0  0
  191.1650  172.9570  142.6810 C   0  0  0  0  0  0  0  0  0  0  0  0
  190.9540  175.0150  143.6380 N   0  0  0  0  0  0  0  0  0  0  0  0
  189.2860  178.0980  142.4430 O   0  0  0  0  0  1  0  0  0  0  0  0
  190.4520  176.3760  143.8330 C   0  0  2  0  0  3  0  0  0  0  0  0
  189.9340  173.5710  140.0290 C   0  0  0  0  0  2  0  0  0  0  0  0
  190.3170  174.0560  142.9170 C   0  0  0  0  0  0  0  0  0  0  0  0
  195.9430  175.4930  141.7280 O   0  0  0  0  0  0  0  0  0  0  0  0
  195.6930  174.3930  143.7800 N   0  0  0  0  0  2  0  0  0  0  0  0
  197.8690  175.4760  143.1160 C   0  0  0  0  0  1  0  0  0  0  0  0
  196.4490  175.1460  142.8280 C   0  0  0  0  0  0  0  0  0  0  0  0
  189.2170  175.3410  145.7750 N   0  0  0  0  0  2  0  0  0  0  0  0
  189.7710  176.5050  145.1610 C   0  0  0  0  0  0  0  0  0  0  0  0
  189.7260  177.6200  145.7480 O   0  0  0  0  0  0  0  0  0  0  0  0
  188.5700  175.3790  147.0770 C   0  0  0  0  0  2  0  0  0  0  0  0
  187.3670  176.0540  146.9830 F   0  0  0  0  0  0  0  0  0  0  0  0
  194.5970  176.3800  145.8270 C   0  0  0  0  0  2  0  0  0  0  0  0
  193.1350  176.4290  146.1910 C   0  0  0  0  0  2  0  0  0  0  0  0
  193.5470  176.4400  144.7270 C   0  0  0  0  0  3  0  0  0  0  0  0
  1  4  2  0  0  0  0
  2 10  1  6  0  0  0
  2 13  1  0  0  0  0
  3 11  1  0  0  0  0
  3  7  2  0  0  0  0
  4  6  1  0  0  0  0
  5  1  1  0  0  0  0
  5  8  2  0  0  0  0
  6 30  1  0  0  0  0
  7 16  1  0  0  0  0
  8 20  1  0  0  0  0
  8  6  1  0  0  0  0
  9  2  1  0  0  0  0
 11 12  1  6  0  0  0
 11 18  1  0  0  0  0
 13 18  2  0  0  0  0
 13  1  1  0  0  0  0
 14 16  1  0  0  0  0
 14  4  1  0  0  0  0
 15  7  1  0  0  0  0
 16 24  1  1  0  0  0
 17  9  1  0  0  0  0
 17 12  1  0  0  0  0
 18 14  1  0  0  0  0
 19 22  2  0  0  0  0
 22 21  1  0  0  0  0
 22 20  1  0  0  0  0
 23 26  1  0  0  0  0
 24 25  2  0  0  0  0
 24 23  1  0  0  0  0
 27 26  1  0  0  0  0
 28 29  1  0  0  0  0
 30 28  1  0  0  0  0
 30 29  1  0  0  0  0
M  END
>  <MODEL>
9

>  <REMARK>
 VINA RESULT:      -6.9      3.702      6.691
  Name = 
  4 active torsions:
  status: ('A' for Active; 'I' for Inactive)
    1  A    between atoms: N_7  and  C_16
    2  A    between atoms: N_8  and  C_30
    3  A    between atoms: N_9  and  C_12
    4  A    between atoms: C_10  and  C_25
                            x       y       z     vdW  Elec       q    Type
                         _______ _______ _______ _____ _____    ______ ____

>  <TORSDO>
F 4

$$$$
