=
 OpenBabel11052420053D

 37 39  0  0  1  0  0  0  0  0999 V2000
  189.2900  174.2130  143.3980 C   0  0  0  0  0  2  0  0  0  0  0  0
  186.0560  176.7830  141.7030 C   0  0  0  0  0  3  0  0  0  0  0  0
  189.8260  175.5550  143.9140 C   0  0  2  0  0  3  0  0  0  0  0  0
  186.9720  176.2030  142.5860 C   0  0  0  0  0  0  0  0  0  0  0  0
  187.1360  174.7200  142.5570 C   0  0  0  0  0  2  0  0  0  0  0  0
  187.7170  177.0230  143.4620 C   0  0  0  0  0  0  0  0  0  0  0  0
  186.6020  178.9790  142.5530 C   0  0  0  0  0  3  0  0  0  0  0  0
  188.5030  174.3790  142.1810 N   0  0  0  0  0  0  0  0  0  0  0  0
  187.5190  178.4070  143.4370 C   0  0  0  0  0  3  0  0  0  0  0  0
  188.7140  176.4790  144.4530 C   0  0  1  0  0  3  0  0  0  0  0  0
  185.8660  178.1730  141.6820 C   0  0  0  0  0  0  0  0  0  0  0  0
  184.9570  178.7740  140.8080 O   0  0  0  0  0  0  0  0  0  0  0  0
  183.6590  178.2470  140.5670 C   0  0  0  0  0  1  0  0  0  0  0  0
  191.6160  177.6510  143.6630 S   0  0  0  0  0  1  0  0  0  0  0  0
  190.7160  176.2690  142.8860 C   0  0  1  0  0  3  0  0  0  0  0  0
  191.7260  175.3060  142.2740 C   0  0  0  0  0  2  0  0  0  0  0  0
  194.1250  176.0380  141.7890 C   0  0  0  0  0  1  0  0  0  0  0  0
  193.1240  175.5360  142.8380 C   0  0  2  0  0  3  0  0  0  0  0  0
  193.0540  174.5680  144.9820 O   0  0  0  0  0  0  0  0  0  0  0  0
  193.5660  174.4120  143.6940 N   0  0  0  0  0  0  0  0  0  0  0  0
  194.3940  174.7450  144.8470 C   0  0  2  0  0  0  0  0  0  0  0  0
  195.1920  173.5820  145.4000 C   0  0  0  0  0  1  0  0  0  0  0  0
  194.2450  176.9740  146.1900 C   0  0  0  0  0  1  0  0  0  0  0  0
  195.7850  176.6190  144.4570 O   0  0  0  0  0  0  0  0  0  0  0  0
  194.8540  176.1580  145.0970 C   0  0  0  0  0  0  0  0  0  0  0  0
  188.5060  173.1270  141.4180 C   0  0  0  0  0  2  0  0  0  0  0  0
  188.9780  173.2900  139.9720 C   0  0  0  0  0  1  0  0  0  0  0  0
  188.1510  176.1770  145.8520 C   0  0  1  0  0  3  0  0  0  0  0  0
  189.1690  175.6830  146.8450 C   0  0  0  0  0  0  0  0  0  0  0  0
  189.0660  174.4370  147.3080 C   0  0  0  0  0  2  0  0  0  0  0  0
  191.3380  175.7110  148.0480 C   0  0  0  0  0  1  0  0  0  0  0  0
  190.3420  176.5260  147.2430 C   0  0  0  0  0  2  0  0  0  0  0  0
  187.3270  177.3350  146.4070 C   0  0  0  0  0  2  0  0  0  0  0  0
  186.1130  176.8110  147.1500 C   0  0  0  0  0  2  0  0  0  0  0  0
  184.8550  177.3230  146.4810 C   0  0  0  0  0  2  0  0  0  0  0  0
  184.0960  178.9180  145.1630 C   0  0  0  0  0  1  0  0  0  0  0  0
  184.9990  178.6800  146.1980 O   0  0  0  0  0  0  0  0  0  0  0  0
  1  3  1  0  0  0  0
  2  4  1  0  0  0  0
  3 15  1  6  0  0  0
  3 10  1  0  0  0  0
  4  6  2  0  0  0  0
  5  4  1  0  0  0  0
  6 10  1  0  0  0  0
  7  9  2  0  0  0  0
  8  5  1  0  0  0  0
  8  1  1  0  0  0  0
  9  6  1  0  0  0  0
 10 28  1  1  0  0  0
 11  2  2  0  0  0  0
 11  7  1  0  0  0  0
 12 11  1  0  0  0  0
 13 12  1  0  0  0  0
 15 14  1  1  0  0  0
 16 18  1  0  0  0  0
 16 15  1  0  0  0  0
 18 17  1  6  0  0  0
 18 20  1  0  0  0  0
 20 21  1  0  0  0  0
 20 19  1  0  0  0  0
 21 19  1  0  0  0  0
 21 25  1  0  0  0  0
 21 22  1  1  0  0  0
 24 25  2  0  0  0  0
 25 23  1  0  0  0  0
 26  8  1  0  0  0  0
 27 26  1  0  0  0  0
 28 33  1  1  0  0  0
 28 29  1  0  0  0  0
 29 32  1  0  0  0  0
 29 30  2  0  0  0  0
 32 31  1  0  0  0  0
 33 34  1  0  0  0  0
 35 34  1  0  0  0  0
 36 37  1  0  0  0  0
 37 35  1  0  0  0  0
M  END
>  <MODEL>
1

>  <REMARK>
 VINA RESULT:      -6.7      0.000      0.000
  Name = 
  14 active torsions:
  status: ('A' for Active; 'I' for Inactive)
    1  A    between atoms: C_1  and  C_12
    2  A    between atoms: C_1  and  C_36
    3  A    between atoms: O_3  and  C_32
    4  A    between atoms: N_6  and  C_37
    5  A    between atoms: C_8  and  C_35
    6  A    between atoms: C_10  and  C_14
    7  A    between atoms: C_14  and  C_27
    8  A    between atoms: C_17  and  C_26
    9  A    between atoms: C_17  and  C_33
   10  A    between atoms: C_22  and  N_24
   11  A    between atoms: C_26  and  O_34
   12  A    between atoms: C_27  and  C_37
   13  A    between atoms: C_29  and  C_36
   14  A    between atoms: C_33  and  C_36
                            x       y       z     vdW  Elec       q    Type
                         _______ _______ _______ _____ _____    ______ ____

>  <TORSDO>
F 14

$$$$
=
 OpenBabel11052420053D

 37 39  0  0  1  0  0  0  0  0999 V2000
  190.1050  173.5240  143.8900 C   0  0  0  0  0  2  0  0  0  0  0  0
  187.5160  175.8000  141.0520 C   0  0  0  0  0  3  0  0  0  0  0  0
  190.5850  174.9270  144.2820 C   0  0  2  0  0  3  0  0  0  0  0  0
  188.1640  175.3730  142.2150 C   0  0  0  0  0  0  0  0  0  0  0  0
  188.2410  173.9070  142.4800 C   0  0  0  0  0  2  0  0  0  0  0  0
  188.7310  176.3250  143.0910 C   0  0  0  0  0  0  0  0  0  0  0  0
  187.9780  178.1040  141.6190 C   0  0  0  0  0  3  0  0  0  0  0  0
  189.6360  173.4810  142.5080 N   0  0  0  0  0  0  0  0  0  0  0  0
  188.6270  177.6850  142.7820 C   0  0  0  0  0  3  0  0  0  0  0  0
  189.4350  175.9520  144.3700 C   0  0  1  0  0  3  0  0  0  0  0  0
  187.4190  177.1660  140.7480 C   0  0  0  0  0  0  0  0  0  0  0  0
  186.7770  177.6150  139.5910 O   0  0  0  0  0  0  0  0  0  0  0  0
  186.5490  176.7790  138.4650 C   0  0  0  0  0  1  0  0  0  0  0  0
  192.3600  177.0310  143.9930 S   0  0  0  0  0  1  0  0  0  0  0  0
  191.7310  175.4290  143.3920 C   0  0  1  0  0  3  0  0  0  0  0  0
  192.8800  174.4290  143.3630 C   0  0  0  0  0  2  0  0  0  0  0  0
  192.7840  174.3610  140.8120 C   0  0  0  0  0  1  0  0  0  0  0  0
  193.6630  174.5200  142.0590 C   0  0  2  0  0  3  0  0  0  0  0  0
  195.5420  173.8940  143.3300 O   0  0  0  0  0  0  0  0  0  0  0  0
  194.9050  173.7130  142.1030 N   0  0  0  0  0  0  0  0  0  0  0  0
  196.1600  174.4400  142.2520 C   0  0  2  0  0  0  0  0  0  0  0  0
  197.3880  173.6610  141.8280 C   0  0  0  0  0  1  0  0  0  0  0  0
  196.2550  176.6970  143.5540 C   0  0  0  0  0  1  0  0  0  0  0  0
  196.2510  176.5640  141.2120 O   0  0  0  0  0  0  0  0  0  0  0  0
  196.1940  175.9480  142.2630 C   0  0  0  0  0  0  0  0  0  0  0  0
  189.7420  172.1110  141.9940 C   0  0  0  0  0  2  0  0  0  0  0  0
  190.9320  171.3350  142.5610 C   0  0  0  0  0  1  0  0  0  0  0  0
  188.5420  175.9170  145.6240 C   0  0  1  0  0  3  0  0  0  0  0  0
  189.2670  175.5830  146.8990 C   0  0  0  0  0  0  0  0  0  0  0  0
  188.9580  174.4550  147.5400 C   0  0  0  0  0  2  0  0  0  0  0  0
  191.5640  175.5790  147.8360 C   0  0  0  0  0  1  0  0  0  0  0  0
  190.3890  176.4370  147.4070 C   0  0  0  0  0  2  0  0  0  0  0  0
  187.6910  177.1750  145.7630 C   0  0  0  0  0  2  0  0  0  0  0  0
  186.2190  176.8130  145.8210 C   0  0  0  0  0  2  0  0  0  0  0  0
  185.4740  177.5610  144.7360 C   0  0  0  0  0  2  0  0  0  0  0  0
  185.4310  179.7130  144.2550 C   0  0  0  0  0  1  0  0  0  0  0  0
  185.0480  178.7930  145.2300 O   0  0  0  0  0  0  0  0  0  0  0  0
  1  3  1  0  0  0  0
  2  4  1  0  0  0  0
  3 15  1  6  0  0  0
  3 10  1  0  0  0  0
  4  5  1  0  0  0  0
  4  6  2  0  0  0  0
  5  8  1  0  0  0  0
  6 10  1  0  0  0  0
  7  9  2  0  0  0  0
  8  1  1  0  0  0  0
  9  6  1  0  0  0  0
 10 28  1  1  0  0  0
 11  2  2  0  0  0  0
 11  7  1  0  0  0  0
 12 11  1  0  0  0  0
 13 12  1  0  0  0  0
 15 14  1  1  0  0  0
 16 15  1  0  0  0  0
 18 17  1  6  0  0  0
 18 20  1  0  0  0  0
 18 16  1  0  0  0  0
 20 21  1  0  0  0  0
 20 19  1  0  0  0  0
 21 22  1  6  0  0  0
 21 25  1  0  0  0  0
 21 19  1  0  0  0  0
 24 25  2  0  0  0  0
 25 23  1  0  0  0  0
 26  8  1  0  0  0  0
 26 27  1  0  0  0  0
 28 33  1  1  0  0  0
 28 29  1  0  0  0  0
 29 32  1  0  0  0  0
 29 30  2  0  0  0  0
 32 31  1  0  0  0  0
 33 34  1  0  0  0  0
 35 37  1  0  0  0  0
 35 34  1  0  0  0  0
 36 37  1  0  0  0  0
M  END
>  <MODEL>
2

>  <REMARK>
 VINA RESULT:      -6.4      1.864      2.085
  Name = 
  14 active torsions:
  status: ('A' for Active; 'I' for Inactive)
    1  A    between atoms: C_1  and  C_12
    2  A    between atoms: C_1  and  C_36
    3  A    between atoms: O_3  and  C_32
    4  A    between atoms: N_6  and  C_37
    5  A    between atoms: C_8  and  C_35
    6  A    between atoms: C_10  and  C_14
    7  A    between atoms: C_14  and  C_27
    8  A    between atoms: C_17  and  C_26
    9  A    between atoms: C_17  and  C_33
   10  A    between atoms: C_22  and  N_24
   11  A    between atoms: C_26  and  O_34
   12  A    between atoms: C_27  and  C_37
   13  A    between atoms: C_29  and  C_36
   14  A    between atoms: C_33  and  C_36
                            x       y       z     vdW  Elec       q    Type
                         _______ _______ _______ _____ _____    ______ ____

>  <TORSDO>
F 14

$$$$
=
 OpenBabel11052420053D

 37 39  0  0  1  0  0  0  0  0999 V2000
  190.1450  173.9960  145.5710 C   0  0  0  0  0  2  0  0  0  0  0  0
  194.2150  175.7140  144.9270 C   0  0  0  0  0  3  0  0  0  0  0  0
  190.0720  174.0830  144.0410 C   0  0  2  0  0  3  0  0  0  0  0  0
  193.0780  174.9060  144.8250 C   0  0  0  0  0  0  0  0  0  0  0  0
  192.4050  174.4760  146.0860 C   0  0  0  0  0  2  0  0  0  0  0  0
  192.5950  174.5340  143.5520 C   0  0  0  0  0  0  0  0  0  0  0  0
  194.4060  175.7800  142.5190 C   0  0  0  0  0  3  0  0  0  0  0  0
  191.0460  175.0010  146.1260 N   0  0  0  0  0  0  0  0  0  0  0  0
  193.2700  174.9750  142.4090 C   0  0  0  0  0  3  0  0  0  0  0  0
  191.3860  173.6570  143.3520 C   0  0  1  0  0  3  0  0  0  0  0  0
  194.8850  176.1550  143.7760 C   0  0  0  0  0  0  0  0  0  0  0  0
  196.0220  176.9620  143.8540 O   0  0  0  0  0  0  0  0  0  0  0  0
  197.1970  176.7110  143.0950 C   0  0  0  0  0  1  0  0  0  0  0  0
  189.2000  175.4030  141.7700 S   0  0  0  0  0  1  0  0  0  0  0  0
  189.5880  175.4550  143.5500 C   0  0  1  0  0  3  0  0  0  0  0  0
  188.3450  175.9010  144.3110 C   0  0  0  0  0  2  0  0  0  0  0  0
  189.9010  177.9050  144.6090 C   0  0  0  0  0  1  0  0  0  0  0  0
  188.5100  177.3110  144.8650 C   0  0  2  0  0  3  0  0  0  0  0  0
  186.8320  176.6500  146.3770 O   0  0  0  0  0  0  0  0  0  0  0  0
  187.9810  177.4280  146.2440 N   0  0  0  0  0  0  0  0  0  0  0  0
  186.6460  177.9940  146.3940 C   0  0  2  0  0  0  0  0  0  0  0  0
  186.3430  178.5230  147.7810 C   0  0  0  0  0  1  0  0  0  0  0  0
  185.0290  177.6130  144.3850 C   0  0  0  0  0  1  0  0  0  0  0  0
  185.8960  179.7160  144.9550 O   0  0  0  0  0  0  0  0  0  0  0  0
  185.8830  178.5230  145.2060 C   0  0  0  0  0  0  0  0  0  0  0  0
  190.6690  175.2860  147.5150 C   0  0  0  0  0  2  0  0  0  0  0  0
  191.2390  176.6020  148.0470 C   0  0  0  0  0  1  0  0  0  0  0  0
  191.6790  172.1500  143.2430 C   0  0  1  0  0  3  0  0  0  0  0  0
  191.1560  171.4990  141.9910 C   0  0  0  0  0  0  0  0  0  0  0  0
  191.1320  172.2050  140.8600 C   0  0  0  0  0  2  0  0  0  0  0  0
  190.9760  169.4590  140.5900 C   0  0  0  0  0  1  0  0  0  0  0  0
  190.7590  170.0550  141.9700 C   0  0  0  0  0  2  0  0  0  0  0  0
  193.1500  171.8280  143.4840 C   0  0  0  0  0  2  0  0  0  0  0  0
  193.3070  170.9650  144.7210 C   0  0  0  0  0  2  0  0  0  0  0  0
  194.5120  171.4310  145.5100 C   0  0  0  0  0  2  0  0  0  0  0  0
  196.3150  172.6990  145.5540 C   0  0  0  0  0  1  0  0  0  0  0  0
  195.3060  172.2460  144.7050 O   0  0  0  0  0  0  0  0  0  0  0  0
  1  8  1  0  0  0  0
  3 15  1  1  0  0  0
  3  1  1  0  0  0  0
  4  2  1  0  0  0  0
  4  5  1  0  0  0  0
  5  8  1  0  0  0  0
  6  4  2  0  0  0  0
  7 11  1  0  0  0  0
  8 26  1  0  0  0  0
  9  7  2  0  0  0  0
  9  6  1  0  0  0  0
 10 28  1  1  0  0  0
 10  6  1  0  0  0  0
 10  3  1  0  0  0  0
 11 12  1  0  0  0  0
 11  2  2  0  0  0  0
 13 12  1  0  0  0  0
 15 14  1  6  0  0  0
 15 16  1  0  0  0  0
 16 18  1  0  0  0  0
 18 17  1  1  0  0  0
 18 20  1  0  0  0  0
 19 21  1  0  0  0  0
 20 19  1  0  0  0  0
 20 21  1  0  0  0  0
 21 22  1  1  0  0  0
 23 25  1  0  0  0  0
 24 25  2  0  0  0  0
 25 21  1  0  0  0  0
 26 27  1  0  0  0  0
 28 33  1  6  0  0  0
 29 28  1  0  0  0  0
 30 29  2  0  0  0  0
 31 32  1  0  0  0  0
 32 29  1  0  0  0  0
 33 34  1  0  0  0  0
 34 35  1  0  0  0  0
 37 35  1  0  0  0  0
 37 36  1  0  0  0  0
M  END
>  <MODEL>
3

>  <REMARK>
 VINA RESULT:      -6.1      2.405      8.177
  Name = 
  14 active torsions:
  status: ('A' for Active; 'I' for Inactive)
    1  A    between atoms: C_1  and  C_12
    2  A    between atoms: C_1  and  C_36
    3  A    between atoms: O_3  and  C_32
    4  A    between atoms: N_6  and  C_37
    5  A    between atoms: C_8  and  C_35
    6  A    between atoms: C_10  and  C_14
    7  A    between atoms: C_14  and  C_27
    8  A    between atoms: C_17  and  C_26
    9  A    between atoms: C_17  and  C_33
   10  A    between atoms: C_22  and  N_24
   11  A    between atoms: C_26  and  O_34
   12  A    between atoms: C_27  and  C_37
   13  A    between atoms: C_29  and  C_36
   14  A    between atoms: C_33  and  C_36
                            x       y       z     vdW  Elec       q    Type
                         _______ _______ _______ _____ _____    ______ ____

>  <TORSDO>
F 14

$$$$
=
 OpenBabel11052420053D

 37 39  0  0  1  0  0  0  0  0999 V2000
  189.7290  173.9380  145.0310 C   0  0  0  0  0  2  0  0  0  0  0  0
  193.8040  175.4800  144.0550 C   0  0  0  0  0  3  0  0  0  0  0  0
  189.5110  174.1050  143.5220 C   0  0  2  0  0  3  0  0  0  0  0  0
  192.6200  174.7370  144.0330 C   0  0  0  0  0  0  0  0  0  0  0  0
  192.0520  174.2790  145.3350 C   0  0  0  0  0  2  0  0  0  0  0  0
  191.9940  174.4520  142.8000 C   0  0  0  0  0  0  0  0  0  0  0  0
  193.7590  175.6560  141.6450 C   0  0  0  0  0  3  0  0  0  0  0  0
  190.7340  174.8690  145.5360 N   0  0  0  0  0  0  0  0  0  0  0  0
  192.5760  174.9140  141.6150 C   0  0  0  0  0  3  0  0  0  0  0  0
  190.7250  173.6480  142.6860 C   0  0  1  0  0  3  0  0  0  0  0  0
  194.3800  175.9430  142.8630 C   0  0  0  0  0  0  0  0  0  0  0  0
  195.5620  176.6880  142.8610 O   0  0  0  0  0  0  0  0  0  0  0  0
  196.7820  176.1920  142.3270 C   0  0  0  0  0  1  0  0  0  0  0  0
  188.5360  175.5870  141.3970 S   0  0  0  0  0  1  0  0  0  0  0  0
  189.0560  175.5220  143.1430 C   0  0  1  0  0  3  0  0  0  0  0  0
  187.8950  175.9760  144.0190 C   0  0  0  0  0  2  0  0  0  0  0  0
  189.5590  177.8800  144.3770 C   0  0  0  0  0  1  0  0  0  0  0  0
  188.1150  177.3900  144.5430 C   0  0  2  0  0  3  0  0  0  0  0  0
  186.2600  176.9420  145.9210 O   0  0  0  0  0  0  0  0  0  0  0  0
  187.4950  177.5890  145.8740 N   0  0  0  0  0  0  0  0  0  0  0  0
  186.2220  178.2990  145.9100 C   0  0  2  0  0  0  0  0  0  0  0  0
  185.8700  178.8820  147.2630 C   0  0  0  0  0  1  0  0  0  0  0  0
  184.7060  178.0700  143.8020 C   0  0  0  0  0  1  0  0  0  0  0  0
  185.8070  180.0570  144.3820 O   0  0  0  0  0  0  0  0  0  0  0  0
  185.6170  178.8850  144.6590 C   0  0  0  0  0  0  0  0  0  0  0  0
  190.5130  175.1030  146.9670 C   0  0  0  0  0  2  0  0  0  0  0  0
  189.1070  174.7280  147.4390 C   0  0  0  0  0  1  0  0  0  0  0  0
  190.9220  172.1360  142.4810 C   0  0  1  0  0  3  0  0  0  0  0  0
  190.4900  171.6230  141.1340 C   0  0  0  0  0  0  0  0  0  0  0  0
  190.8360  170.3880  140.7730 C   0  0  0  0  0  2  0  0  0  0  0  0
  190.3910  173.0010  139.0730 C   0  0  0  0  0  1  0  0  0  0  0  0
  189.6020  172.4340  140.2390 C   0  0  0  0  0  2  0  0  0  0  0  0
  192.3340  171.6840  142.8380 C   0  0  0  0  0  2  0  0  0  0  0  0
  192.3210  170.8680  144.1170 C   0  0  0  0  0  2  0  0  0  0  0  0
  192.8660  169.4840  143.8370 C   0  0  0  0  0  2  0  0  0  0  0  0
  194.3720  170.0810  145.3320 C   0  0  0  0  0  1  0  0  0  0  0  0
  193.5510  169.0180  144.9580 O   0  0  0  0  0  0  0  0  0  0  0  0
  1  8  1  0  0  0  0
  3 15  1  1  0  0  0
  3  1  1  0  0  0  0
  4  2  1  0  0  0  0
  4  5  1  0  0  0  0
  5  8  1  0  0  0  0
  6  4  2  0  0  0  0
  7 11  1  0  0  0  0
  8 26  1  0  0  0  0
  9  7  2  0  0  0  0
  9  6  1  0  0  0  0
 10 28  1  1  0  0  0
 10  6  1  0  0  0  0
 10  3  1  0  0  0  0
 11  2  2  0  0  0  0
 12 11  1  0  0  0  0
 13 12  1  0  0  0  0
 15 14  1  6  0  0  0
 15 16  1  0  0  0  0
 16 18  1  0  0  0  0
 18 17  1  1  0  0  0
 18 20  1  0  0  0  0
 20 21  1  0  0  0  0
 20 19  1  0  0  0  0
 21 19  1  0  0  0  0
 21 22  1  1  0  0  0
 23 25  1  0  0  0  0
 24 25  2  0  0  0  0
 25 21  1  0  0  0  0
 26 27  1  0  0  0  0
 28 33  1  6  0  0  0
 29 28  1  0  0  0  0
 30 29  2  0  0  0  0
 31 32  1  0  0  0  0
 32 29  1  0  0  0  0
 33 34  1  0  0  0  0
 35 34  1  0  0  0  0
 35 37  1  0  0  0  0
 37 36  1  0  0  0  0
M  END
>  <MODEL>
4

>  <REMARK>
 VINA RESULT:      -6.0      2.580      8.099
  Name = 
  14 active torsions:
  status: ('A' for Active; 'I' for Inactive)
    1  A    between atoms: C_1  and  C_12
    2  A    between atoms: C_1  and  C_36
    3  A    between atoms: O_3  and  C_32
    4  A    between atoms: N_6  and  C_37
    5  A    between atoms: C_8  and  C_35
    6  A    between atoms: C_10  and  C_14
    7  A    between atoms: C_14  and  C_27
    8  A    between atoms: C_17  and  C_26
    9  A    between atoms: C_17  and  C_33
   10  A    between atoms: C_22  and  N_24
   11  A    between atoms: C_26  and  O_34
   12  A    between atoms: C_27  and  C_37
   13  A    between atoms: C_29  and  C_36
   14  A    between atoms: C_33  and  C_36
                            x       y       z     vdW  Elec       q    Type
                         _______ _______ _______ _____ _____    ______ ____

>  <TORSDO>
F 14

$$$$
=
 OpenBabel11052420053D

 37 39  0  0  1  0  0  0  0  0999 V2000
  191.2690  173.3540  144.0990 C   0  0  0  0  0  2  0  0  0  0  0  0
  188.0600  175.9170  142.3480 C   0  0  0  0  0  3  0  0  0  0  0  0
  192.1190  174.6170  143.9120 C   0  0  2  0  0  3  0  0  0  0  0  0
  189.1140  175.4600  143.1460 C   0  0  0  0  0  0  0  0  0  0  0  0
  189.0530  174.0590  143.6560 C   0  0  0  0  0  2  0  0  0  0  0  0
  190.1980  176.3170  143.4340 C   0  0  0  0  0  0  0  0  0  0  0  0
  189.1400  178.0680  142.1250 C   0  0  0  0  0  3  0  0  0  0  0  0
  190.1770  173.2910  143.1330 N   0  0  0  0  0  0  0  0  0  0  0  0
  190.1960  177.6180  142.9210 C   0  0  0  0  0  3  0  0  0  0  0  0
  191.3660  175.9090  144.2940 C   0  0  1  0  0  3  0  0  0  0  0  0
  188.0670  177.2230  141.8340 C   0  0  0  0  0  0  0  0  0  0  0  0
  187.0260  177.7010  141.0350 O   0  0  0  0  0  0  0  0  0  0  0  0
  185.6870  177.8070  141.4990 C   0  0  0  0  0  1  0  0  0  0  0  0
  193.7270  176.2330  142.3430 S   0  0  0  0  0  1  0  0  0  0  0  0
  192.7390  174.7100  142.5100 C   0  0  1  0  0  3  0  0  0  0  0  0
  193.6340  173.5100  142.2280 C   0  0  0  0  0  2  0  0  0  0  0  0
  192.8900  173.0930  139.8200 C   0  0  0  0  0  1  0  0  0  0  0  0
  194.0460  173.4570  140.7610 C   0  0  2  0  0  3  0  0  0  0  0  0
  196.3460  173.3690  141.2490 O   0  0  0  0  0  0  0  0  0  0  0  0
  195.3160  172.7200  140.5700 N   0  0  0  0  0  0  0  0  0  0  0  0
  196.3960  173.4280  139.8930 C   0  0  2  0  0  0  0  0  0  0  0  0
  197.4650  172.5270  139.3100 C   0  0  0  0  0  1  0  0  0  0  0  0
  195.6490  175.0000  137.9530 C   0  0  0  0  0  1  0  0  0  0  0  0
  196.3960  175.7900  140.0310 O   0  0  0  0  0  0  0  0  0  0  0  0
  196.1920  174.8120  139.3320 C   0  0  0  0  0  0  0  0  0  0  0  0
  189.7710  171.8950  142.9380 C   0  0  0  0  0  2  0  0  0  0  0  0
  190.9140  170.9820  142.4910 C   0  0  0  0  0  1  0  0  0  0  0  0
  191.2240  176.2360  145.7910 C   0  0  1  0  0  3  0  0  0  0  0  0
  189.8530  175.9880  146.3600 C   0  0  0  0  0  0  0  0  0  0  0  0
  189.5910  174.8070  146.9200 C   0  0  0  0  0  2  0  0  0  0  0  0
  187.4220  176.4790  146.2880 C   0  0  0  0  0  1  0  0  0  0  0  0
  188.8160  177.0700  146.3950 C   0  0  0  0  0  2  0  0  0  0  0  0
  192.3170  175.5840  146.6310 C   0  0  0  0  0  2  0  0  0  0  0  0
  193.4070  176.5890  146.9530 C   0  0  0  0  0  2  0  0  0  0  0  0
  194.6240  176.3010  146.0990 C   0  0  0  0  0  2  0  0  0  0  0  0
  195.8670  174.7580  145.1330 C   0  0  0  0  0  1  0  0  0  0  0  0
  194.8790  174.9310  146.1010 O   0  0  0  0  0  0  0  0  0  0  0  0
  2  4  1  0  0  0  0
  3 15  1  6  0  0  0
  3  1  1  0  0  0  0
  3 10  1  0  0  0  0
  4  6  2  0  0  0  0
  4  5  1  0  0  0  0
  6 10  1  0  0  0  0
  7  9  2  0  0  0  0
  8  5  1  0  0  0  0
  8  1  1  0  0  0  0
  9  6  1  0  0  0  0
 10 28  1  1  0  0  0
 11  7  1  0  0  0  0
 11  2  2  0  0  0  0
 12 13  1  0  0  0  0
 12 11  1  0  0  0  0
 15 14  1  1  0  0  0
 16 15  1  0  0  0  0
 18 17  1  6  0  0  0
 18 16  1  0  0  0  0
 20 18  1  0  0  0  0
 20 19  1  0  0  0  0
 21 22  1  6  0  0  0
 21 20  1  0  0  0  0
 21 19  1  0  0  0  0
 23 25  1  0  0  0  0
 25 21  1  0  0  0  0
 25 24  2  0  0  0  0
 26  8  1  0  0  0  0
 27 26  1  0  0  0  0
 28 29  1  0  0  0  0
 28 33  1  1  0  0  0
 29 32  1  0  0  0  0
 29 30  2  0  0  0  0
 31 32  1  0  0  0  0
 33 34  1  0  0  0  0
 35 37  1  0  0  0  0
 35 34  1  0  0  0  0
 36 37  1  0  0  0  0
M  END
>  <MODEL>
5

>  <REMARK>
 VINA RESULT:      -5.7      2.523      4.848
  Name = 
  14 active torsions:
  status: ('A' for Active; 'I' for Inactive)
    1  A    between atoms: C_1  and  C_12
    2  A    between atoms: C_1  and  C_36
    3  A    between atoms: O_3  and  C_32
    4  A    between atoms: N_6  and  C_37
    5  A    between atoms: C_8  and  C_35
    6  A    between atoms: C_10  and  C_14
    7  A    between atoms: C_14  and  C_27
    8  A    between atoms: C_17  and  C_26
    9  A    between atoms: C_17  and  C_33
   10  A    between atoms: C_22  and  N_24
   11  A    between atoms: C_26  and  O_34
   12  A    between atoms: C_27  and  C_37
   13  A    between atoms: C_29  and  C_36
   14  A    between atoms: C_33  and  C_36
                            x       y       z     vdW  Elec       q    Type
                         _______ _______ _______ _____ _____    ______ ____

>  <TORSDO>
F 14

$$$$
=
 OpenBabel11052420053D

 37 39  0  0  1  0  0  0  0  0999 V2000
  192.2240  177.2840  144.5700 C   0  0  0  0  0  2  0  0  0  0  0  0
  189.8570  174.0470  142.6080 C   0  0  0  0  0  3  0  0  0  0  0  0
  192.4370  176.2150  145.6490 C   0  0  2  0  0  3  0  0  0  0  0  0
  190.8850  174.7430  143.2510 C   0  0  0  0  0  0  0  0  0  0  0  0
  191.2050  176.1220  142.7770 C   0  0  0  0  0  2  0  0  0  0  0  0
  191.5760  174.1390  144.3230 C   0  0  0  0  0  0  0  0  0  0  0  0
  190.1970  172.1550  144.0740 C   0  0  0  0  0  3  0  0  0  0  0  0
  190.9710  177.0810  143.8500 N   0  0  0  0  0  0  0  0  0  0  0  0
  191.2250  172.8450  144.7220 C   0  0  0  0  0  3  0  0  0  0  0  0
  192.7040  174.8130  145.0620 C   0  0  1  0  0  3  0  0  0  0  0  0
  189.5070  172.7500  143.0150 C   0  0  0  0  0  0  0  0  0  0  0  0
  188.4830  172.0360  142.3880 O   0  0  0  0  0  0  0  0  0  0  0  0
  187.4550  172.6680  141.6370 C   0  0  0  0  0  1  0  0  0  0  0  0
  191.9020  176.8110  148.2980 S   0  0  0  0  0  1  0  0  0  0  0  0
  191.3080  176.1930  146.6900 C   0  0  1  0  0  3  0  0  0  0  0  0
  190.1320  177.0510  146.2380 C   0  0  0  0  0  2  0  0  0  0  0  0
  188.9600  174.9160  147.0070 C   0  0  0  0  0  1  0  0  0  0  0  0
  188.8020  176.3600  146.5160 C   0  0  2  0  0  3  0  0  0  0  0  0
  187.6300  177.9580  145.2460 O   0  0  0  0  0  0  0  0  0  0  0  0
  187.8230  176.5890  145.4290 N   0  0  0  0  0  0  0  0  0  0  0  0
  186.5870  177.2760  145.7860 C   0  0  2  0  0  0  0  0  0  0  0  0
  185.4530  177.0740  144.8020 C   0  0  0  0  0  1  0  0  0  0  0  0
  186.3090  179.0780  147.6490 C   0  0  0  0  0  1  0  0  0  0  0  0
  185.9390  176.7900  148.0090 O   0  0  0  0  0  0  0  0  0  0  0  0
  186.2840  177.6490  147.2150 C   0  0  0  0  0  0  0  0  0  0  0  0
  190.5190  178.3550  143.2800 C   0  0  0  0  0  2  0  0  0  0  0  0
  189.3210  178.2150  142.3390 C   0  0  0  0  0  1  0  0  0  0  0  0
  194.1120  174.5250  144.5130 C   0  0  1  0  0  3  0  0  0  0  0  0
  194.9580  173.6420  145.3900 C   0  0  0  0  0  0  0  0  0  0  0  0
  195.9220  174.1970  146.1250 C   0  0  0  0  0  2  0  0  0  0  0  0
  195.9360  171.3640  145.2880 C   0  0  0  0  0  1  0  0  0  0  0  0
  194.6760  172.1760  145.5250 C   0  0  0  0  0  2  0  0  0  0  0  0
  194.0810  174.0360  143.0690 C   0  0  0  0  0  2  0  0  0  0  0  0
  194.7770  175.0300  142.1580 C   0  0  0  0  0  2  0  0  0  0  0  0
  196.2710  174.7950  142.2060 C   0  0  0  0  0  2  0  0  0  0  0  0
  196.7310  176.7370  143.1420 C   0  0  0  0  0  1  0  0  0  0  0  0
  196.9380  175.9980  141.9780 O   0  0  0  0  0  0  0  0  0  0  0  0
  1  3  1  0  0  0  0
  2 11  2  0  0  0  0
  2  4  1  0  0  0  0
  3 15  1  1  0  0  0
  4  6  2  0  0  0  0
  5  4  1  0  0  0  0
  5  8  1  0  0  0  0
  6  9  1  0  0  0  0
  6 10  1  0  0  0  0
  7  9  2  0  0  0  0
  8  1  1  0  0  0  0
 10 28  1  6  0  0  0
 10  3  1  0  0  0  0
 11  7  1  0  0  0  0
 12 11  1  0  0  0  0
 13 12  1  0  0  0  0
 15 14  1  1  0  0  0
 16 18  1  0  0  0  0
 16 15  1  0  0  0  0
 18 17  1  6  0  0  0
 19 20  1  0  0  0  0
 19 21  1  0  0  0  0
 20 21  1  0  0  0  0
 20 18  1  0  0  0  0
 21 22  1  6  0  0  0
 21 25  1  0  0  0  0
 25 23  1  0  0  0  0
 25 24  2  0  0  0  0
 26  8  1  0  0  0  0
 27 26  1  0  0  0  0
 28 33  1  6  0  0  0
 28 29  1  0  0  0  0
 29 32  1  0  0  0  0
 29 30  2  0  0  0  0
 31 32  1  0  0  0  0
 34 35  1  0  0  0  0
 34 33  1  0  0  0  0
 37 35  1  0  0  0  0
 37 36  1  0  0  0  0
M  END
>  <MODEL>
6

>  <REMARK>
 VINA RESULT:      -5.6      2.544      7.378
  Name = 
  14 active torsions:
  status: ('A' for Active; 'I' for Inactive)
    1  A    between atoms: C_1  and  C_12
    2  A    between atoms: C_1  and  C_36
    3  A    between atoms: O_3  and  C_32
    4  A    between atoms: N_6  and  C_37
    5  A    between atoms: C_8  and  C_35
    6  A    between atoms: C_10  and  C_14
    7  A    between atoms: C_14  and  C_27
    8  A    between atoms: C_17  and  C_26
    9  A    between atoms: C_17  and  C_33
   10  A    between atoms: C_22  and  N_24
   11  A    between atoms: C_26  and  O_34
   12  A    between atoms: C_27  and  C_37
   13  A    between atoms: C_29  and  C_36
   14  A    between atoms: C_33  and  C_36
                            x       y       z     vdW  Elec       q    Type
                         _______ _______ _______ _____ _____    ______ ____

>  <TORSDO>
F 14

$$$$
=
 OpenBabel11052420053D

 37 39  0  0  1  0  0  0  0  0999 V2000
  191.7220  172.7420  143.8550 C   0  0  0  0  0  2  0  0  0  0  0  0
  188.9580  176.1530  143.0440 C   0  0  0  0  0  3  0  0  0  0  0  0
  192.8010  173.8000  143.5940 C   0  0  2  0  0  3  0  0  0  0  0  0
  190.0000  175.3760  143.5580 C   0  0  0  0  0  0  0  0  0  0  0  0
  189.6990  173.9690  143.9550 C   0  0  0  0  0  2  0  0  0  0  0  0
  191.2940  175.9290  143.6760 C   0  0  0  0  0  0  0  0  0  0  0  0
  190.4640  178.0240  142.7700 C   0  0  0  0  0  3  0  0  0  0  0  0
  190.4840  173.0470  143.1430 N   0  0  0  0  0  0  0  0  0  0  0  0
  191.5100  177.2530  143.2830 C   0  0  0  0  0  3  0  0  0  0  0  0
  192.4690  175.1660  144.2310 C   0  0  1  0  0  3  0  0  0  0  0  0
  189.1830  177.4800  142.6480 C   0  0  0  0  0  0  0  0  0  0  0  0
  188.1570  178.2750  142.1310 O   0  0  0  0  0  0  0  0  0  0  0  0
  186.8060  178.1590  142.5590 C   0  0  0  0  0  1  0  0  0  0  0  0
  194.2830  175.3340  141.8300 S   0  0  0  0  0  1  0  0  0  0  0  0
  193.1490  173.9340  142.1040 C   0  0  1  0  0  3  0  0  0  0  0  0
  193.8020  172.6610  141.5790 C   0  0  0  0  0  2  0  0  0  0  0  0
  196.2730  172.8440  142.2000 C   0  0  0  0  0  1  0  0  0  0  0  0
  194.9190  172.1890  142.5020 C   0  0  2  0  0  3  0  0  0  0  0  0
  193.8220  170.3320  143.4420 O   0  0  0  0  0  0  0  0  0  0  0  0
  194.9140  170.7170  142.6660 N   0  0  0  0  0  0  0  0  0  0  0  0
  195.0410  170.2040  144.0250 C   0  0  2  0  0  0  0  0  0  0  0  0
  195.4980  168.7620  144.1080 C   0  0  0  0  0  1  0  0  0  0  0  0
  196.6440  171.5240  145.6000 C   0  0  0  0  0  1  0  0  0  0  0  0
  194.3070  171.6270  145.7680 O   0  0  0  0  0  0  0  0  0  0  0  0
  195.2620  171.1300  145.1940 C   0  0  0  0  0  0  0  0  0  0  0  0
  189.7230  171.8110  142.9270 C   0  0  0  0  0  2  0  0  0  0  0  0
  190.4340  170.8040  142.0230 C   0  0  0  0  0  1  0  0  0  0  0  0
  192.6960  175.3210  145.7450 C   0  0  1  0  0  3  0  0  0  0  0  0
  194.0630  175.8240  146.1250 C   0  0  0  0  0  0  0  0  0  0  0  0
  194.1940  177.0840  146.5410 C   0  0  0  0  0  2  0  0  0  0  0  0
  196.1480  175.1830  144.9440 C   0  0  0  0  0  1  0  0  0  0  0  0
  195.2530  174.9130  146.1400 C   0  0  0  0  0  2  0  0  0  0  0  0
  191.5860  176.1210  146.4180 C   0  0  0  0  0  2  0  0  0  0  0  0
  190.9120  175.2890  147.4930 C   0  0  0  0  0  2  0  0  0  0  0  0
  189.4150  175.2920  147.2660 C   0  0  0  0  0  2  0  0  0  0  0  0
  187.6510  176.4100  146.5570 C   0  0  0  0  0  1  0  0  0  0  0  0
  189.0220  176.5370  146.7770 O   0  0  0  0  0  0  0  0  0  0  0  0
  2  4  1  0  0  0  0
  3 15  1  6  0  0  0
  3  1  1  0  0  0  0
  3 10  1  0  0  0  0
  4  6  2  0  0  0  0
  4  5  1  0  0  0  0
  6 10  1  0  0  0  0
  7  9  2  0  0  0  0
  8  1  1  0  0  0  0
  8  5  1  0  0  0  0
  9  6  1  0  0  0  0
 10 28  1  1  0  0  0
 11  7  1  0  0  0  0
 11  2  2  0  0  0  0
 12 13  1  0  0  0  0
 12 11  1  0  0  0  0
 15 14  1  1  0  0  0
 16 15  1  0  0  0  0
 16 18  1  0  0  0  0
 18 17  1  6  0  0  0
 18 20  1  0  0  0  0
 19 21  1  0  0  0  0
 20 19  1  0  0  0  0
 20 21  1  0  0  0  0
 21 22  1  1  0  0  0
 21 25  1  0  0  0  0
 25 23  1  0  0  0  0
 25 24  2  0  0  0  0
 26  8  1  0  0  0  0
 27 26  1  0  0  0  0
 28 29  1  0  0  0  0
 28 33  1  6  0  0  0
 29 32  1  0  0  0  0
 29 30  2  0  0  0  0
 31 32  1  0  0  0  0
 33 34  1  0  0  0  0
 35 34  1  0  0  0  0
 36 37  1  0  0  0  0
 37 35  1  0  0  0  0
M  END
>  <MODEL>
7

>  <REMARK>
 VINA RESULT:      -5.5      2.585      4.267
  Name = 
  14 active torsions:
  status: ('A' for Active; 'I' for Inactive)
    1  A    between atoms: C_1  and  C_12
    2  A    between atoms: C_1  and  C_36
    3  A    between atoms: O_3  and  C_32
    4  A    between atoms: N_6  and  C_37
    5  A    between atoms: C_8  and  C_35
    6  A    between atoms: C_10  and  C_14
    7  A    between atoms: C_14  and  C_27
    8  A    between atoms: C_17  and  C_26
    9  A    between atoms: C_17  and  C_33
   10  A    between atoms: C_22  and  N_24
   11  A    between atoms: C_26  and  O_34
   12  A    between atoms: C_27  and  C_37
   13  A    between atoms: C_29  and  C_36
   14  A    between atoms: C_33  and  C_36
                            x       y       z     vdW  Elec       q    Type
                         _______ _______ _______ _____ _____    ______ ____

>  <TORSDO>
F 14

$$$$
=
 OpenBabel11052420053D

 37 39  0  0  1  0  0  0  0  0999 V2000
  192.0230  172.7930  143.6190 C   0  0  0  0  0  2  0  0  0  0  0  0
  188.6550  175.7140  143.3850 C   0  0  0  0  0  3  0  0  0  0  0  0
  192.8770  174.0440  143.3770 C   0  0  2  0  0  3  0  0  0  0  0  0
  189.8600  175.0940  143.7310 C   0  0  0  0  0  0  0  0  0  0  0  0
  189.8420  173.6280  144.0080 C   0  0  0  0  0  2  0  0  0  0  0  0
  191.0470  175.8560  143.7960 C   0  0  0  0  0  0  0  0  0  0  0  0
  189.7880  177.8390  143.1760 C   0  0  0  0  0  3  0  0  0  0  0  0
  190.6880  172.9310  143.0460 N   0  0  0  0  0  0  0  0  0  0  0  0
  190.9960  177.2270  143.5200 C   0  0  0  0  0  3  0  0  0  0  0  0
  192.3830  175.2710  144.1730 C   0  0  1  0  0  3  0  0  0  0  0  0
  188.6130  177.0890  143.1060 C   0  0  0  0  0  0  0  0  0  0  0  0
  187.4210  177.7290  142.7570 O   0  0  0  0  0  0  0  0  0  0  0  0
  186.1990  177.0280  142.5690 C   0  0  0  0  0  1  0  0  0  0  0  0
  194.1150  175.8220  141.6550 S   0  0  0  0  0  1  0  0  0  0  0  0
  193.0480  174.3620  141.8850 C   0  0  1  0  0  3  0  0  0  0  0  0
  193.6620  173.1820  141.1410 C   0  0  0  0  0  2  0  0  0  0  0  0
  192.1180  173.4110  139.1200 C   0  0  0  0  0  1  0  0  0  0  0  0
  193.5630  173.3650  139.6310 C   0  0  2  0  0  3  0  0  0  0  0  0
  195.7990  172.6830  139.3580 O   0  0  0  0  0  0  0  0  0  0  0  0
  194.4970  172.4740  138.9050 N   0  0  0  0  0  0  0  0  0  0  0  0
  195.5300  173.1150  138.0990 C   0  0  2  0  0  0  0  0  0  0  0  0
  196.1360  172.2220  137.0360 C   0  0  0  0  0  1  0  0  0  0  0  0
  194.7920  175.2900  136.8670 C   0  0  0  0  0  1  0  0  0  0  0  0
  196.2050  175.2900  138.7390 O   0  0  0  0  0  0  0  0  0  0  0  0
  195.5800  174.6130  137.9400 C   0  0  0  0  0  0  0  0  0  0  0  0
  190.1300  171.6030  142.7720 C   0  0  0  0  0  2  0  0  0  0  0  0
  190.7790  170.9000  141.5790 C   0  0  0  0  0  1  0  0  0  0  0  0
  192.7290  175.3360  145.6710 C   0  0  1  0  0  3  0  0  0  0  0  0
  194.1410  175.7640  145.9700 C   0  0  0  0  0  0  0  0  0  0  0  0
  194.3750  177.0380  146.2840 C   0  0  0  0  0  2  0  0  0  0  0  0
  196.1740  174.9370  144.8140 C   0  0  0  0  0  1  0  0  0  0  0  0
  195.2640  174.7730  146.0170 C   0  0  0  0  0  2  0  0  0  0  0  0
  191.7070  176.1420  146.4660 C   0  0  0  0  0  2  0  0  0  0  0  0
  191.1210  175.2980  147.5820 C   0  0  0  0  0  2  0  0  0  0  0  0
  189.6240  175.1800  147.3910 C   0  0  0  0  0  2  0  0  0  0  0  0
  187.7440  176.2000  146.8540 C   0  0  0  0  0  1  0  0  0  0  0  0
  189.1280  176.3740  146.8710 O   0  0  0  0  0  0  0  0  0  0  0  0
  2  4  1  0  0  0  0
  3 15  1  6  0  0  0
  3  1  1  0  0  0  0
  3 10  1  0  0  0  0
  4  6  2  0  0  0  0
  4  5  1  0  0  0  0
  6 10  1  0  0  0  0
  7  9  2  0  0  0  0
  8  1  1  0  0  0  0
  8  5  1  0  0  0  0
  9  6  1  0  0  0  0
 10 28  1  1  0  0  0
 11  7  1  0  0  0  0
 11  2  2  0  0  0  0
 12 11  1  0  0  0  0
 13 12  1  0  0  0  0
 15 14  1  1  0  0  0
 16 15  1  0  0  0  0
 18 17  1  6  0  0  0
 18 16  1  0  0  0  0
 20 19  1  0  0  0  0
 20 18  1  0  0  0  0
 21 22  1  6  0  0  0
 21 20  1  0  0  0  0
 21 19  1  0  0  0  0
 23 25  1  0  0  0  0
 25 21  1  0  0  0  0
 25 24  2  0  0  0  0
 26  8  1  0  0  0  0
 27 26  1  0  0  0  0
 28 29  1  0  0  0  0
 28 33  1  1  0  0  0
 29 32  1  0  0  0  0
 29 30  2  0  0  0  0
 31 32  1  0  0  0  0
 33 34  1  0  0  0  0
 35 34  1  0  0  0  0
 36 37  1  0  0  0  0
 37 35  1  0  0  0  0
M  END
>  <MODEL>
8

>  <REMARK>
 VINA RESULT:      -5.5      3.108      4.858
  Name = 
  14 active torsions:
  status: ('A' for Active; 'I' for Inactive)
    1  A    between atoms: C_1  and  C_12
    2  A    between atoms: C_1  and  C_36
    3  A    between atoms: O_3  and  C_32
    4  A    between atoms: N_6  and  C_37
    5  A    between atoms: C_8  and  C_35
    6  A    between atoms: C_10  and  C_14
    7  A    between atoms: C_14  and  C_27
    8  A    between atoms: C_17  and  C_26
    9  A    between atoms: C_17  and  C_33
   10  A    between atoms: C_22  and  N_24
   11  A    between atoms: C_26  and  O_34
   12  A    between atoms: C_27  and  C_37
   13  A    between atoms: C_29  and  C_36
   14  A    between atoms: C_33  and  C_36
                            x       y       z     vdW  Elec       q    Type
                         _______ _______ _______ _____ _____    ______ ____

>  <TORSDO>
F 14

$$$$
=
 OpenBabel11052420053D

 37 39  0  0  1  0  0  0  0  0999 V2000
  188.6140  176.5450  143.7840 C   0  0  0  0  0  2  0  0  0  0  0  0
  193.0200  177.1830  144.1200 C   0  0  0  0  0  3  0  0  0  0  0  0
  188.9540  175.1860  144.4100 C   0  0  2  0  0  3  0  0  0  0  0  0
  191.6920  176.8680  144.4250 C   0  0  0  0  0  0  0  0  0  0  0  0
  190.6220  177.7890  143.9430 C   0  0  0  0  0  2  0  0  0  0  0  0
  191.4010  175.6970  145.1580 C   0  0  0  0  0  0  0  0  0  0  0  0
  193.7750  175.1950  145.2700 C   0  0  0  0  0  3  0  0  0  0  0  0
  189.7370  177.0840  143.0240 N   0  0  0  0  0  0  0  0  0  0  0  0
  192.4510  174.8730  145.5770 C   0  0  0  0  0  3  0  0  0  0  0  0
  190.0010  175.2900  145.5390 C   0  0  1  0  0  3  0  0  0  0  0  0
  194.0680  176.3500  144.5410 C   0  0  0  0  0  0  0  0  0  0  0  0
  195.4010  176.6450  144.2480 O   0  0  0  0  0  0  0  0  0  0  0  0
  196.1820  175.8640  143.3530 C   0  0  0  0  0  1  0  0  0  0  0  0
  189.7410  172.5450  144.1610 S   0  0  0  0  0  1  0  0  0  0  0  0
  189.3450  174.1340  143.3620 C   0  0  1  0  0  3  0  0  0  0  0  0
  188.2180  173.9150  142.3600 C   0  0  0  0  0  2  0  0  0  0  0  0
  188.1240  175.1580  140.1310 C   0  0  0  0  0  1  0  0  0  0  0  0
  188.7270  173.9920  140.9260 C   0  0  2  0  0  3  0  0  0  0  0  0
  189.6600  171.8320  140.8760 O   0  0  0  0  0  0  0  0  0  0  0  0
  188.7240  172.6660  140.2660 N   0  0  0  0  0  0  0  0  0  0  0  0
  189.9620  172.2470  139.6190 C   0  0  2  0  0  0  0  0  0  0  0  0
  189.7870  171.1510  138.5880 C   0  0  0  0  0  1  0  0  0  0  0  0
  192.1320  173.2320  140.6740 C   0  0  0  0  0  1  0  0  0  0  0  0
  191.3740  173.8010  138.5290 O   0  0  0  0  0  0  0  0  0  0  0  0
  191.1550  173.1640  139.5460 C   0  0  0  0  0  0  0  0  0  0  0  0
  189.2400  178.0160  142.0060 C   0  0  0  0  0  2  0  0  0  0  0  0
  187.7300  178.2500  142.0740 C   0  0  0  0  0  1  0  0  0  0  0  0
  189.5220  175.7930  146.9120 C   0  0  1  0  0  3  0  0  0  0  0  0
  190.6270  176.1500  147.8690 C   0  0  0  0  0  0  0  0  0  0  0  0
  191.2370  175.1740  148.5430 C   0  0  0  0  0  2  0  0  0  0  0  0
  191.3220  177.9180  149.4650 C   0  0  0  0  0  1  0  0  0  0  0  0
  191.1170  177.5600  148.0050 C   0  0  0  0  0  2  0  0  0  0  0  0
  188.4880  176.9080  146.7910 C   0  0  0  0  0  2  0  0  0  0  0  0
  187.1290  176.4210  147.2560 C   0  0  0  0  0  2  0  0  0  0  0  0
  186.2020  177.6060  147.4270 C   0  0  0  0  0  2  0  0  0  0  0  0
  185.1720  179.0180  146.0840 C   0  0  0  0  0  1  0  0  0  0  0  0
  185.3120  177.6580  146.3560 O   0  0  0  0  0  0  0  0  0  0  0  0
  1  3  1  0  0  0  0
  2  4  2  0  0  0  0
  2 11  1  0  0  0  0
  3 15  1  6  0  0  0
  3 10  1  0  0  0  0
  4  6  1  0  0  0  0
  5  4  1  0  0  0  0
  6 10  1  0  0  0  0
  6  9  2  0  0  0  0
  7  9  1  0  0  0  0
  8  1  1  0  0  0  0
  8  5  1  0  0  0  0
 10 28  1  1  0  0  0
 11  7  2  0  0  0  0
 12 11  1  0  0  0  0
 13 12  1  0  0  0  0
 15 14  1  1  0  0  0
 16 15  1  0  0  0  0
 18 17  1  6  0  0  0
 18 16  1  0  0  0  0
 20 19  1  0  0  0  0
 20 18  1  0  0  0  0
 21 22  1  6  0  0  0
 21 20  1  0  0  0  0
 21 19  1  0  0  0  0
 24 25  2  0  0  0  0
 25 21  1  0  0  0  0
 25 23  1  0  0  0  0
 26 27  1  0  0  0  0
 26  8  1  0  0  0  0
 28 33  1  6  0  0  0
 28 29  1  0  0  0  0
 29 32  1  0  0  0  0
 29 30  2  0  0  0  0
 32 31  1  0  0  0  0
 33 34  1  0  0  0  0
 34 35  1  0  0  0  0
 36 37  1  0  0  0  0
 37 35  1  0  0  0  0
M  END
>  <MODEL>
9

>  <REMARK>
 VINA RESULT:      -5.3      2.383      5.715
  Name = 
  14 active torsions:
  status: ('A' for Active; 'I' for Inactive)
    1  A    between atoms: C_1  and  C_12
    2  A    between atoms: C_1  and  C_36
    3  A    between atoms: O_3  and  C_32
    4  A    between atoms: N_6  and  C_37
    5  A    between atoms: C_8  and  C_35
    6  A    between atoms: C_10  and  C_14
    7  A    between atoms: C_14  and  C_27
    8  A    between atoms: C_17  and  C_26
    9  A    between atoms: C_17  and  C_33
   10  A    between atoms: C_22  and  N_24
   11  A    between atoms: C_26  and  O_34
   12  A    between atoms: C_27  and  C_37
   13  A    between atoms: C_29  and  C_36
   14  A    between atoms: C_33  and  C_36
                            x       y       z     vdW  Elec       q    Type
                         _______ _______ _______ _____ _____    ______ ____

>  <TORSDO>
F 14

$$$$
