=
 OpenBabel11052420243D

 34 39  0  0  1  0  0  0  0  0999 V2000
  186.7790  176.8120  144.4130 C   0  0  0  0  0  0  0  0  0  0  0  0
  185.1550  178.0500  141.1550 C   0  0  0  0  0  3  0  0  0  0  0  0
  184.7380  178.4580  143.4660 N   0  0  0  0  0  0  0  0  0  0  0  0
  187.8970  175.9480  146.4260 C   0  0  0  0  0  0  0  0  0  0  0  0
  187.7760  176.0090  145.0180 C   0  0  0  0  0  3  0  0  0  0  0  0
  186.0560  177.4680  146.6310 C   0  0  0  0  0  0  0  0  0  0  0  0
  184.8640  178.4610  147.2750 S   0  0  0  0  0  0  0  0  0  0  0  0
  187.0250  176.6870  147.2530 C   0  0  0  0  0  3  0  0  0  0  0  0
  184.9380  178.3330  144.7980 C   0  0  0  0  0  0  0  0  0  0  0  0
  185.9460  177.5210  145.2670 C   0  0  0  0  0  0  0  0  0  0  0  0
  184.1930  178.9710  145.7920 C   0  0  0  0  0  3  0  0  0  0  0  0
  185.6680  177.5930  140.0200 C   0  0  0  0  0  3  0  0  0  0  0  0
  186.7840  176.6680  139.7950 C   0  0  0  0  0  0  0  0  0  0  0  0
  187.5020  176.1060  140.7640 C   0  0  0  0  0  3  0  0  0  0  0  0
  185.5180  177.7930  142.5550 C   0  0  0  0  0  0  0  0  0  0  0  0
  187.4000  176.2360  142.2200 C   0  0  0  0  0  3  0  0  0  0  0  0
  186.5770  176.9360  143.0120 C   0  0  0  0  0  0  0  0  0  0  0  0
  187.1180  176.3510  138.4350 N   0  0  0  0  0  0  0  0  0  0  0  0
  187.0240  177.2960  137.4680 O   0  0  0  0  0  0  0  0  0  0  0  0
  187.5330  175.1070  138.0950 O   0  0  0  0  0  0  0  0  0  0  0  0
  188.9460  175.0780  147.0460 C   0  0  0  0  0  2  0  0  0  0  0  0
  191.8410  173.8640  144.9000 C   0  0  0  0  0  3  0  0  0  0  0  0
  191.4490  175.2850  147.3770 C   0  0  0  0  0  2  0  0  0  0  0  0
  195.2340  175.3400  145.3400 C   0  0  2  0  0  3  0  0  0  0  0  0
  194.2400  174.3250  144.7610 C   0  0  0  0  0  2  0  0  0  0  0  0
  192.9180  174.4160  145.4620 C   0  0  0  0  0  0  0  0  0  0  0  0
  193.3100  176.7110  146.3700 C   0  0  0  0  0  2  0  0  0  0  0  0
  192.8170  175.2970  146.6860 C   0  0  1  0  0  3  0  0  0  0  0  0
  194.5900  176.7270  145.5080 C   0  0  0  0  0  2  0  0  0  0  0  0
  190.3090  175.2080  146.3650 C   0  0  1  0  0  3  0  0  0  0  0  0
  190.5360  174.1100  145.4290 N   0  0  0  0  0  2  0  0  0  0  0  0
  196.4130  175.4280  144.4930 N   0  0  0  0  0  0  0  0  0  0  0  0
  197.2810  174.5340  144.5490 O   0  0  0  0  0  0  0  0  0  0  0  0
  196.5450  176.4510  143.5820 O   0  0  0  0  0  0  0  0  0  0  0  0
  1  5  2  0  0  0  0
  1 10  1  0  0  0  0
  2 15  1  0  0  0  0
  3  9  1  0  0  0  0
  4 21  1  0  0  0  0
  4  8  2  0  0  0  0
  5  4  1  0  0  0  0
  6  8  1  0  0  0  0
  6  7  1  0  0  0  0
  9 10  1  0  0  0  0
  9 11  2  0  0  0  0
 10  6  2  0  0  0  0
 11  7  1  0  0  0  0
 12  2  2  0  0  0  0
 13 12  1  0  0  0  0
 13 14  2  0  0  0  0
 14 16  1  0  0  0  0
 15 17  1  0  0  0  0
 15  3  2  0  0  0  0
 16 17  2  0  0  0  0
 17  1  1  0  0  0  0
 18 13  1  0  0  0  0
 19 18  2  0  0  0  0
 20 18  2  0  0  0  0
 22 31  1  0  0  0  0
 22 26  2  0  0  0  0
 24 32  1  6  0  0  0
 24 29  1  0  0  0  0
 25 24  1  0  0  0  0
 25 26  1  0  0  0  0
 26 28  1  0  0  0  0
 28 27  1  6  0  0  0
 28 23  1  0  0  0  0
 29 27  1  0  0  0  0
 30 21  1  1  0  0  0
 30 23  1  0  0  0  0
 31 30  1  0  0  0  0
 32 33  2  0  0  0  0
 34 32  2  0  0  0  0
M  END
>  <MODEL>
1

>  <REMARK>
 VINA RESULT:      -9.2      0.000      0.000
  Name = 
  4 active torsions:
  status: ('A' for Active; 'I' for Inactive)
    1  A    between atoms: N_3  and  C_25
    2  A    between atoms: C_7  and  N_11
    3  A    between atoms: C_8  and  C_18
    4  A    between atoms: C_18  and  C_30
                            x       y       z     vdW  Elec       q    Type
                         _______ _______ _______ _____ _____    ______ ____

>  <TORSDO>
F 4

$$$$
=
 OpenBabel11052420243D

 34 39  0  0  1  0  0  0  0  0999 V2000
  193.2380  175.1110  142.4720 C   0  0  0  0  0  0  0  0  0  0  0  0
  193.1690  174.1670  138.7450 C   0  0  0  0  0  3  0  0  0  0  0  0
  194.8050  175.1600  140.1660 N   0  0  0  0  0  0  0  0  0  0  0  0
  193.1590  175.6730  144.8650 C   0  0  0  0  0  0  0  0  0  0  0  0
  192.5440  175.1430  143.7060 C   0  0  0  0  0  3  0  0  0  0  0  0
  195.1330  176.1310  143.5840 C   0  0  0  0  0  0  0  0  0  0  0  0
  196.6740  176.6320  143.1440 S   0  0  0  0  0  0  0  0  0  0  0  0
  194.4760  176.1780  144.8100 C   0  0  0  0  0  3  0  0  0  0  0  0
  195.3020  175.6410  141.3280 C   0  0  0  0  0  0  0  0  0  0  0  0
  194.5290  175.6170  142.4680 C   0  0  0  0  0  0  0  0  0  0  0  0
  196.5760  176.1870  141.5000 C   0  0  0  0  0  3  0  0  0  0  0  0
  192.0520  173.6180  138.2870 C   0  0  0  0  0  3  0  0  0  0  0  0
  190.8020  173.3010  138.9870 C   0  0  0  0  0  0  0  0  0  0  0  0
  190.5840  173.5340  140.2790 C   0  0  0  0  0  3  0  0  0  0  0  0
  193.5380  174.6420  140.0850 C   0  0  0  0  0  0  0  0  0  0  0  0
  191.4550  174.1240  141.2990 C   0  0  0  0  0  3  0  0  0  0  0  0
  192.7050  174.6040  141.2560 C   0  0  0  0  0  0  0  0  0  0  0  0
  189.7470  172.7000  138.2200 N   0  0  0  0  0  0  0  0  0  0  0  0
  189.9750  172.2800  136.9520 O   0  0  0  0  0  0  0  0  0  0  0  0
  188.5100  172.5430  138.7490 O   0  0  0  0  0  0  0  0  0  0  0  0
  192.4020  175.7160  146.1550 C   0  0  0  0  0  2  0  0  0  0  0  0
  189.2990  177.5520  147.3620 C   0  0  0  0  0  3  0  0  0  0  0  0
  189.9430  175.2090  145.8130 C   0  0  0  0  0  2  0  0  0  0  0  0
  186.0150  176.9510  145.7060 C   0  0  2  0  0  3  0  0  0  0  0  0
  186.9170  177.5370  146.8000 C   0  0  0  0  0  2  0  0  0  0  0  0
  188.2930  176.9470  146.7270 C   0  0  0  0  0  0  0  0  0  0  0  0
  188.0690  176.1600  144.3660 C   0  0  0  0  0  2  0  0  0  0  0  0
  188.5270  175.7930  145.7790 C   0  0  1  0  0  3  0  0  0  0  0  0
  186.7270  176.9210  144.3430 C   0  0  0  0  0  2  0  0  0  0  0  0
  190.9960  176.2980  146.0040 C   0  0  1  0  0  3  0  0  0  0  0  0
  190.6500  177.1410  147.1450 N   0  0  0  0  0  2  0  0  0  0  0  0
  184.7780  177.7090  145.6150 N   0  0  0  0  0  0  0  0  0  0  0  0
  184.1250  177.9510  146.6500 O   0  0  0  0  0  0  0  0  0  0  0  0
  184.3580  178.2210  144.4090 O   0  0  0  0  0  0  0  0  0  0  0  0
  1  5  1  0  0  0  0
  2 15  1  0  0  0  0
  3  9  1  0  0  0  0
  4 21  1  0  0  0  0
  5  4  2  0  0  0  0
  6  8  2  0  0  0  0
  7  6  1  0  0  0  0
  8  4  1  0  0  0  0
  9 11  2  0  0  0  0
  9 10  1  0  0  0  0
 10  1  2  0  0  0  0
 10  6  1  0  0  0  0
 11  7  1  0  0  0  0
 12  2  2  0  0  0  0
 12 13  1  0  0  0  0
 13 14  2  0  0  0  0
 14 16  1  0  0  0  0
 15  3  2  0  0  0  0
 15 17  1  0  0  0  0
 17 16  2  0  0  0  0
 17  1  1  0  0  0  0
 18 20  2  0  0  0  0
 18 13  1  0  0  0  0
 19 18  2  0  0  0  0
 23 30  1  0  0  0  0
 24 32  1  6  0  0  0
 24 25  1  0  0  0  0
 26 25  1  0  0  0  0
 26 22  2  0  0  0  0
 28 27  1  6  0  0  0
 28 23  1  0  0  0  0
 28 26  1  0  0  0  0
 29 27  1  0  0  0  0
 29 24  1  0  0  0  0
 30 21  1  1  0  0  0
 30 31  1  0  0  0  0
 31 22  1  0  0  0  0
 32 33  2  0  0  0  0
 34 32  2  0  0  0  0
M  END
>  <MODEL>
2

>  <REMARK>
 VINA RESULT:      -7.8      4.264      7.996
  Name = 
  4 active torsions:
  status: ('A' for Active; 'I' for Inactive)
    1  A    between atoms: N_3  and  C_25
    2  A    between atoms: C_7  and  N_11
    3  A    between atoms: C_8  and  C_18
    4  A    between atoms: C_18  and  C_30
                            x       y       z     vdW  Elec       q    Type
                         _______ _______ _______ _____ _____    ______ ____

>  <TORSDO>
F 4

$$$$
=
 OpenBabel11052420243D

 34 39  0  0  1  0  0  0  0  0999 V2000
  189.8090  175.8700  143.4960 C   0  0  0  0  0  0  0  0  0  0  0  0
  186.0050  176.4240  143.3950 C   0  0  0  0  0  3  0  0  0  0  0  0
  187.5350  175.2220  142.0190 N   0  0  0  0  0  0  0  0  0  0  0  0
  192.2470  175.5920  143.6650 C   0  0  0  0  0  0  0  0  0  0  0  0
  191.0330  176.1290  144.1580 C   0  0  0  0  0  3  0  0  0  0  0  0
  191.0370  174.5510  141.8770 C   0  0  0  0  0  0  0  0  0  0  0  0
  190.6650  173.6630  140.5010 S   0  0  0  0  0  0  0  0  0  0  0  0
  192.2560  174.7890  142.5050 C   0  0  0  0  0  3  0  0  0  0  0  0
  188.7450  174.7550  141.6320 C   0  0  0  0  0  0  0  0  0  0  0  0
  189.8680  175.0750  142.3610 C   0  0  0  0  0  0  0  0  0  0  0  0
  188.9830  173.9480  140.5180 C   0  0  0  0  0  3  0  0  0  0  0  0
  185.4840  177.1760  144.3550 C   0  0  0  0  0  3  0  0  0  0  0  0
  186.1370  177.8510  145.4820 C   0  0  0  0  0  0  0  0  0  0  0  0
  187.4440  177.8080  145.7290 C   0  0  0  0  0  3  0  0  0  0  0  0
  187.3900  176.0130  143.1290 C   0  0  0  0  0  0  0  0  0  0  0  0
  188.5260  177.1310  145.0100 C   0  0  0  0  0  3  0  0  0  0  0  0
  188.5430  176.3660  143.9110 C   0  0  0  0  0  0  0  0  0  0  0  0
  185.3040  178.6080  146.3740 N   0  0  0  0  0  0  0  0  0  0  0  0
  185.7770  179.0060  147.5800 O   0  0  0  0  0  0  0  0  0  0  0  0
  184.0360  178.9370  146.0280 O   0  0  0  0  0  0  0  0  0  0  0  0
  193.5330  175.8940  144.3680 C   0  0  0  0  0  2  0  0  0  0  0  0
  196.3960  173.9090  145.8930 C   0  0  0  0  0  3  0  0  0  0  0  0
  194.2390  173.4840  144.0290 C   0  0  0  0  0  2  0  0  0  0  0  0
  196.3230  170.1840  145.8290 C   0  0  2  0  0  3  0  0  0  0  0  0
  196.9890  171.5430  146.0840 C   0  0  0  0  0  2  0  0  0  0  0  0
  196.1680  172.6540  145.5010 C   0  0  0  0  0  0  0  0  0  0  0  0
  194.0570  171.3240  145.3740 C   0  0  0  0  0  2  0  0  0  0  0  0
  194.9840  172.2900  144.6340 C   0  0  1  0  0  3  0  0  0  0  0  0
  194.8180  170.2260  146.1460 C   0  0  0  0  0  2  0  0  0  0  0  0
  194.1720  174.6580  145.0030 C   0  0  1  0  0  3  0  0  0  0  0  0
  195.5030  174.9620  145.5210 N   0  0  0  0  0  2  0  0  0  0  0  0
  196.9770  169.1490  146.6140 N   0  0  0  0  0  0  0  0  0  0  0  0
  197.9410  168.5240  146.1290 O   0  0  0  0  0  0  0  0  0  0  0  0
  196.5870  168.9030  147.9100 O   0  0  0  0  0  0  0  0  0  0  0  0
  1 17  1  0  0  0  0
  1  5  1  0  0  0  0
  2 12  2  0  0  0  0
  3 15  2  0  0  0  0
  4  5  2  0  0  0  0
  4 21  1  0  0  0  0
  6 10  1  0  0  0  0
  6  8  2  0  0  0  0
  7 11  1  0  0  0  0
  7  6  1  0  0  0  0
  8  4  1  0  0  0  0
  9  3  1  0  0  0  0
  9 10  1  0  0  0  0
 10  1  2  0  0  0  0
 11  9  2  0  0  0  0
 12 13  1  0  0  0  0
 13 14  2  0  0  0  0
 13 18  1  0  0  0  0
 15  2  1  0  0  0  0
 15 17  1  0  0  0  0
 16 14  1  0  0  0  0
 17 16  2  0  0  0  0
 18 19  2  0  0  0  0
 20 18  2  0  0  0  0
 23 30  1  0  0  0  0
 24 25  1  0  0  0  0
 24 29  1  0  0  0  0
 24 32  1  1  0  0  0
 26 22  2  0  0  0  0
 26 25  1  0  0  0  0
 27 29  1  0  0  0  0
 28 23  1  1  0  0  0
 28 27  1  0  0  0  0
 28 26  1  0  0  0  0
 30 21  1  6  0  0  0
 30 31  1  0  0  0  0
 31 22  1  0  0  0  0
 32 34  2  0  0  0  0
 33 32  2  0  0  0  0
M  END
>  <MODEL>
3

>  <REMARK>
 VINA RESULT:      -7.7      4.188      6.009
  Name = 
  4 active torsions:
  status: ('A' for Active; 'I' for Inactive)
    1  A    between atoms: N_3  and  C_25
    2  A    between atoms: C_7  and  N_11
    3  A    between atoms: C_8  and  C_18
    4  A    between atoms: C_18  and  C_30
                            x       y       z     vdW  Elec       q    Type
                         _______ _______ _______ _____ _____    ______ ____

>  <TORSDO>
F 4

$$$$
=
 OpenBabel11052420243D

 34 39  0  0  1  0  0  0  0  0999 V2000
  187.5580  176.5970  143.2170 C   0  0  0  0  0  0  0  0  0  0  0  0
  186.4040  177.1650  139.5930 C   0  0  0  0  0  3  0  0  0  0  0  0
  185.9340  178.2470  141.6640 N   0  0  0  0  0  0  0  0  0  0  0  0
  188.3650  176.1320  145.4930 C   0  0  0  0  0  0  0  0  0  0  0  0
  188.3440  175.8300  144.1110 C   0  0  0  0  0  3  0  0  0  0  0  0
  186.8410  177.9400  145.1010 C   0  0  0  0  0  0  0  0  0  0  0  0
  185.8270  179.2580  145.3370 S   0  0  0  0  0  0  0  0  0  0  0  0
  187.6020  177.2040  146.0040 C   0  0  0  0  0  3  0  0  0  0  0  0
  186.0250  178.4550  142.9970 C   0  0  0  0  0  0  0  0  0  0  0  0
  186.8270  177.6400  143.7650 C   0  0  0  0  0  0  0  0  0  0  0  0
  185.3580  179.4540  143.7090 C   0  0  0  0  0  3  0  0  0  0  0  0
  186.8870  176.3380  138.6750 C   0  0  0  0  0  3  0  0  0  0  0  0
  187.8160  175.2120  138.8160 C   0  0  0  0  0  0  0  0  0  0  0  0
  188.3520  174.8190  139.9690 C   0  0  0  0  0  3  0  0  0  0  0  0
  186.6240  177.2380  141.0430 C   0  0  0  0  0  0  0  0  0  0  0  0
  188.1880  175.3530  141.3240 C   0  0  0  0  0  3  0  0  0  0  0  0
  187.4690  176.3700  141.8160 C   0  0  0  0  0  0  0  0  0  0  0  0
  188.1650  174.4870  137.6260 N   0  0  0  0  0  0  0  0  0  0  0  0
  188.4640  173.1670  137.6920 O   0  0  0  0  0  0  0  0  0  0  0  0
  188.2000  175.1070  136.4230 O   0  0  0  0  0  0  0  0  0  0  0  0
  189.1870  175.2970  146.4250 C   0  0  0  0  0  2  0  0  0  0  0  0
  192.3800  176.6450  144.8620 C   0  0  0  0  0  3  0  0  0  0  0  0
  190.9300  174.1570  144.9820 C   0  0  0  0  0  2  0  0  0  0  0  0
  195.0420  174.2920  143.7360 C   0  0  2  0  0  3  0  0  0  0  0  0
  194.3920  175.6770  143.8610 C   0  0  0  0  0  2  0  0  0  0  0  0
  192.9890  175.5610  144.3780 C   0  0  0  0  0  0  0  0  0  0  0  0
  193.2970  173.2750  145.3380 C   0  0  0  0  0  2  0  0  0  0  0  0
  192.3860  174.1810  144.5070 C   0  0  1  0  0  3  0  0  0  0  0  0
  194.7920  173.4370  144.9900 C   0  0  0  0  0  2  0  0  0  0  0  0
  190.6630  175.2360  146.0280 C   0  0  1  0  0  3  0  0  0  0  0  0
  191.1330  176.5330  145.5500 N   0  0  0  0  0  2  0  0  0  0  0  0
  196.4690  174.4270  143.4900 N   0  0  0  0  0  0  0  0  0  0  0  0
  196.9900  173.8210  142.5320 O   0  0  0  0  0  0  0  0  0  0  0  0
  197.2340  175.2700  144.2620 O   0  0  0  0  0  0  0  0  0  0  0  0
  1 10  2  0  0  0  0
  1  5  1  0  0  0  0
  2 15  1  0  0  0  0
  3  9  1  0  0  0  0
  4  8  1  0  0  0  0
  4 21  1  0  0  0  0
  5  4  2  0  0  0  0
  6  7  1  0  0  0  0
  6  8  2  0  0  0  0
  9 11  2  0  0  0  0
  9 10  1  0  0  0  0
 10  6  1  0  0  0  0
 11  7  1  0  0  0  0
 12 13  1  0  0  0  0
 12  2  2  0  0  0  0
 13 14  2  0  0  0  0
 14 16  1  0  0  0  0
 15  3  2  0  0  0  0
 15 17  1  0  0  0  0
 16 17  2  0  0  0  0
 17  1  1  0  0  0  0
 18 19  2  0  0  0  0
 18 13  1  0  0  0  0
 20 18  2  0  0  0  0
 22 31  1  0  0  0  0
 23 30  1  0  0  0  0
 24 32  1  1  0  0  0
 24 25  1  0  0  0  0
 24 29  1  0  0  0  0
 25 26  1  0  0  0  0
 26 28  1  0  0  0  0
 26 22  2  0  0  0  0
 28 23  1  1  0  0  0
 28 27  1  0  0  0  0
 29 27  1  0  0  0  0
 30 21  1  6  0  0  0
 31 30  1  0  0  0  0
 32 34  2  0  0  0  0
 33 32  2  0  0  0  0
M  END
>  <MODEL>
4

>  <REMARK>
 VINA RESULT:      -7.7      1.564      2.146
  Name = 
  4 active torsions:
  status: ('A' for Active; 'I' for Inactive)
    1  A    between atoms: N_3  and  C_25
    2  A    between atoms: C_7  and  N_11
    3  A    between atoms: C_8  and  C_18
    4  A    between atoms: C_18  and  C_30
                            x       y       z     vdW  Elec       q    Type
                         _______ _______ _______ _____ _____    ______ ____

>  <TORSDO>
F 4

$$$$
=
 OpenBabel11052420243D

 34 39  0  0  1  0  0  0  0  0999 V2000
  187.8100  177.4950  144.4810 C   0  0  0  0  0  0  0  0  0  0  0  0
  189.9550  177.1790  147.6560 C   0  0  0  0  0  3  0  0  0  0  0  0
  187.6920  177.8040  147.2490 N   0  0  0  0  0  0  0  0  0  0  0  0
  186.5410  177.6640  142.3810 C   0  0  0  0  0  0  0  0  0  0  0  0
  187.7420  177.3770  143.0720 C   0  0  0  0  0  3  0  0  0  0  0  0
  185.4850  178.1790  144.4700 C   0  0  0  0  0  0  0  0  0  0  0  0
  184.3470  178.6300  145.6190 S   0  0  0  0  0  0  0  0  0  0  0  0
  185.3890  178.0730  143.0860 C   0  0  0  0  0  3  0  0  0  0  0  0
  186.5950  178.0520  146.4970 C   0  0  0  0  0  0  0  0  0  0  0  0
  186.6520  177.8990  145.1300 C   0  0  0  0  0  0  0  0  0  0  0  0
  185.3550  178.4670  146.9860 C   0  0  0  0  0  3  0  0  0  0  0  0
  191.2140  176.7940  147.4910 C   0  0  0  0  0  3  0  0  0  0  0  0
  191.9450  176.4600  146.2640 C   0  0  0  0  0  0  0  0  0  0  0  0
  191.4180  176.4950  145.0430 C   0  0  0  0  0  3  0  0  0  0  0  0
  188.8750  177.4010  146.6860 C   0  0  0  0  0  0  0  0  0  0  0  0
  190.0660  176.8460  144.6000 C   0  0  0  0  0  3  0  0  0  0  0  0
  188.9680  177.2330  145.2620 C   0  0  0  0  0  0  0  0  0  0  0  0
  193.3210  176.0710  146.3970 N   0  0  0  0  0  0  0  0  0  0  0  0
  194.2450  176.9610  146.8340 O   0  0  0  0  0  0  0  0  0  0  0  0
  193.7180  174.8130  146.0880 O   0  0  0  0  0  0  0  0  0  0  0  0
  186.4960  177.5520  140.8890 C   0  0  0  0  0  2  0  0  0  0  0  0
  187.7200  174.9930  138.3570 C   0  0  0  0  0  3  0  0  0  0  0  0
  187.5500  175.2710  141.2210 C   0  0  0  0  0  2  0  0  0  0  0  0
  190.0940  172.3180  139.4080 C   0  0  2  0  0  3  0  0  0  0  0  0
  189.1440  173.0030  138.4160 C   0  0  0  0  0  2  0  0  0  0  0  0
  188.3470  174.0760  139.0960 C   0  0  0  0  0  0  0  0  0  0  0  0
  189.9050  174.3070  141.0370 C   0  0  0  0  0  2  0  0  0  0  0  0
  188.4420  174.1910  140.6010 C   0  0  1  0  0  3  0  0  0  0  0  0
  190.8420  173.3470  140.2740 C   0  0  0  0  0  2  0  0  0  0  0  0
  187.4750  176.5140  140.3370 C   0  0  1  0  0  3  0  0  0  0  0  0
  187.1300  176.1420  138.9680 N   0  0  0  0  0  2  0  0  0  0  0  0
  191.0390  171.4730  138.6970 N   0  0  0  0  0  0  0  0  0  0  0  0
  191.0180  170.2380  138.8760 O   0  0  0  0  0  0  0  0  0  0  0  0
  191.9070  172.0140  137.7770 O   0  0  0  0  0  0  0  0  0  0  0  0
  1 10  1  0  0  0  0
  1 17  1  0  0  0  0
  4  5  1  0  0  0  0
  4  8  2  0  0  0  0
  5  1  2  0  0  0  0
  6 10  2  0  0  0  0
  6  7  1  0  0  0  0
  7 11  1  0  0  0  0
  8  6  1  0  0  0  0
  9 11  2  0  0  0  0
  9  3  1  0  0  0  0
 10  9  1  0  0  0  0
 12  2  2  0  0  0  0
 13 18  1  0  0  0  0
 13 12  1  0  0  0  0
 14 13  2  0  0  0  0
 15  3  2  0  0  0  0
 15  2  1  0  0  0  0
 16 14  1  0  0  0  0
 16 17  2  0  0  0  0
 17 15  1  0  0  0  0
 18 19  2  0  0  0  0
 20 18  2  0  0  0  0
 21  4  1  0  0  0  0
 22 31  1  0  0  0  0
 22 26  2  0  0  0  0
 24 32  1  6  0  0  0
 24 29  1  0  0  0  0
 25 26  1  0  0  0  0
 25 24  1  0  0  0  0
 26 28  1  0  0  0  0
 28 27  1  6  0  0  0
 28 23  1  0  0  0  0
 29 27  1  0  0  0  0
 30 21  1  1  0  0  0
 30 23  1  0  0  0  0
 31 30  1  0  0  0  0
 32 33  2  0  0  0  0
 34 32  2  0  0  0  0
M  END
>  <MODEL>
5

>  <REMARK>
 VINA RESULT:      -7.7      2.965      6.883
  Name = 
  4 active torsions:
  status: ('A' for Active; 'I' for Inactive)
    1  A    between atoms: N_3  and  C_25
    2  A    between atoms: C_7  and  N_11
    3  A    between atoms: C_8  and  C_18
    4  A    between atoms: C_18  and  C_30
                            x       y       z     vdW  Elec       q    Type
                         _______ _______ _______ _____ _____    ______ ____

>  <TORSDO>
F 4

$$$$
=
 OpenBabel11052420243D

 34 39  0  0  1  0  0  0  0  0999 V2000
  188.7520  175.5650  144.4830 C   0  0  0  0  0  0  0  0  0  0  0  0
  186.5040  178.6830  144.5740 C   0  0  0  0  0  3  0  0  0  0  0  0
  188.3090  177.9090  145.9240 N   0  0  0  0  0  0  0  0  0  0  0  0
  190.1230  173.5280  144.3230 C   0  0  0  0  0  0  0  0  0  0  0  0
  189.0750  174.3460  143.8380 C   0  0  0  0  0  3  0  0  0  0  0  0
  190.5270  175.1180  146.0710 C   0  0  0  0  0  0  0  0  0  0  0  0
  191.1730  175.8860  147.4170 S   0  0  0  0  0  0  0  0  0  0  0  0
  190.8650  173.9150  145.4590 C   0  0  0  0  0  3  0  0  0  0  0  0
  189.2910  177.0610  146.3060 C   0  0  0  0  0  0  0  0  0  0  0  0
  189.5100  175.9020  145.5940 C   0  0  0  0  0  0  0  0  0  0  0  0
  190.1420  177.2450  147.3970 C   0  0  0  0  0  3  0  0  0  0  0  0
  185.5740  178.7770  143.6320 C   0  0  0  0  0  3  0  0  0  0  0  0
  185.2520  177.8640  142.5310 C   0  0  0  0  0  0  0  0  0  0  0  0
  185.8890  176.7200  142.2910 C   0  0  0  0  0  3  0  0  0  0  0  0
  187.5150  177.6500  144.8370 C   0  0  0  0  0  0  0  0  0  0  0  0
  187.0070  176.0890  142.9980 C   0  0  0  0  0  3  0  0  0  0  0  0
  187.7180  176.4490  144.0740 C   0  0  0  0  0  0  0  0  0  0  0  0
  184.1760  178.2340  141.6550 N   0  0  0  0  0  0  0  0  0  0  0  0
  182.9010  178.2710  142.1140 O   0  0  0  0  0  0  0  0  0  0  0  0
  184.4140  178.5530  140.3600 O   0  0  0  0  0  0  0  0  0  0  0  0
  190.4350  172.2350  143.6380 C   0  0  0  0  0  2  0  0  0  0  0  0
  190.4950  170.8850  140.0840 C   0  0  0  0  0  3  0  0  0  0  0  0
  190.6900  173.4310  141.4200 C   0  0  0  0  0  2  0  0  0  0  0  0
  189.8550  173.1700  137.2110 C   0  0  2  0  0  3  0  0  0  0  0  0
  190.2670  171.8320  137.8400 C   0  0  0  0  0  2  0  0  0  0  0  0
  190.4610  171.9770  139.3190 C   0  0  0  0  0  0  0  0  0  0  0  0
  189.1290  174.0830  139.5090 C   0  0  0  0  0  2  0  0  0  0  0  0
  190.4200  173.3670  139.9130 C   0  0  1  0  0  3  0  0  0  0  0  0
  188.7520  173.8610  138.0290 C   0  0  0  0  0  2  0  0  0  0  0  0
  190.0740  172.2420  142.1520 C   0  0  1  0  0  3  0  0  0  0  0  0
  190.4680  170.9920  141.5090 N   0  0  0  0  0  2  0  0  0  0  0  0
  189.4170  172.9670  135.8390 N   0  0  0  0  0  0  0  0  0  0  0  0
  189.2480  173.9520  135.0940 O   0  0  0  0  0  0  0  0  0  0  0  0
  189.2550  171.6960  135.3380 O   0  0  0  0  0  0  0  0  0  0  0  0
  1 10  1  0  0  0  0
  2 15  1  0  0  0  0
  3  9  1  0  0  0  0
  4  8  2  0  0  0  0
  5  4  1  0  0  0  0
  5  1  2  0  0  0  0
  6  7  1  0  0  0  0
  8  6  1  0  0  0  0
  9 11  2  0  0  0  0
 10  6  2  0  0  0  0
 10  9  1  0  0  0  0
 11  7  1  0  0  0  0
 12  2  2  0  0  0  0
 13 12  1  0  0  0  0
 14 13  2  0  0  0  0
 14 16  1  0  0  0  0
 15  3  2  0  0  0  0
 16 17  2  0  0  0  0
 17  1  1  0  0  0  0
 17 15  1  0  0  0  0
 18 19  2  0  0  0  0
 18 13  1  0  0  0  0
 20 18  2  0  0  0  0
 21  4  1  0  0  0  0
 22 31  1  0  0  0  0
 23 30  1  0  0  0  0
 24 32  1  6  0  0  0
 24 25  1  0  0  0  0
 24 29  1  0  0  0  0
 25 26  1  0  0  0  0
 26 28  1  0  0  0  0
 26 22  2  0  0  0  0
 28 27  1  1  0  0  0
 28 23  1  0  0  0  0
 29 27  1  0  0  0  0
 30 21  1  1  0  0  0
 31 30  1  0  0  0  0
 33 32  2  0  0  0  0
 34 32  2  0  0  0  0
M  END
>  <MODEL>
6

>  <REMARK>
 VINA RESULT:      -7.6      4.207      6.390
  Name = 
  4 active torsions:
  status: ('A' for Active; 'I' for Inactive)
    1  A    between atoms: N_3  and  C_25
    2  A    between atoms: C_7  and  N_11
    3  A    between atoms: C_8  and  C_18
    4  A    between atoms: C_18  and  C_30
                            x       y       z     vdW  Elec       q    Type
                         _______ _______ _______ _____ _____    ______ ____

>  <TORSDO>
F 4

$$$$
=
 OpenBabel11052420243D

 34 39  0  0  1  0  0  0  0  0999 V2000
  189.8940  176.2610  144.2920 C   0  0  0  0  0  0  0  0  0  0  0  0
  192.7560  176.3930  146.8570 C   0  0  0  0  0  3  0  0  0  0  0  0
  190.4220  176.8630  146.9630 N   0  0  0  0  0  0  0  0  0  0  0  0
  188.1490  176.1400  142.5620 C   0  0  0  0  0  0  0  0  0  0  0  0
  189.4990  175.9870  142.9600 C   0  0  0  0  0  3  0  0  0  0  0  0
  187.5920  176.8290  144.7890 C   0  0  0  0  0  0  0  0  0  0  0  0
  186.7330  177.3480  146.1360 S   0  0  0  0  0  0  0  0  0  0  0  0
  187.1740  176.5690  143.4870 C   0  0  0  0  0  3  0  0  0  0  0  0
  189.1620  176.9750  146.4840 C   0  0  0  0  0  0  0  0  0  0  0  0
  188.9000  176.6780  145.1650 C   0  0  0  0  0  0  0  0  0  0  0  0
  188.0480  177.3820  147.2210 C   0  0  0  0  0  3  0  0  0  0  0  0
  193.9630  176.0530  146.4240 C   0  0  0  0  0  3  0  0  0  0  0  0
  194.4000  175.6230  145.0920 C   0  0  0  0  0  0  0  0  0  0  0  0
  193.5940  175.4990  144.0400 C   0  0  0  0  0  3  0  0  0  0  0  0
  191.4610  176.4570  146.1660 C   0  0  0  0  0  0  0  0  0  0  0  0
  192.1540  175.7360  143.9120 C   0  0  0  0  0  3  0  0  0  0  0  0
  191.2220  176.1400  144.7850 C   0  0  0  0  0  0  0  0  0  0  0  0
  195.7920  175.3160  144.9180 N   0  0  0  0  0  0  0  0  0  0  0  0
  196.4170  174.4630  145.7650 O   0  0  0  0  0  0  0  0  0  0  0  0
  196.5020  175.8710  143.9060 O   0  0  0  0  0  0  0  0  0  0  0  0
  187.7560  175.8650  141.1450 C   0  0  0  0  0  2  0  0  0  0  0  0
  188.5920  173.3640  138.4050 C   0  0  0  0  0  3  0  0  0  0  0  0
  188.3930  173.4160  141.2800 C   0  0  0  0  0  2  0  0  0  0  0  0
  190.4410  170.2370  139.2360 C   0  0  2  0  0  3  0  0  0  0  0  0
  189.6510  171.1610  138.2990 C   0  0  0  0  0  2  0  0  0  0  0  0
  189.0320  172.2910  139.0650 C   0  0  0  0  0  0  0  0  0  0  0  0
  190.5520  172.0770  141.0370 C   0  0  0  0  0  2  0  0  0  0  0  0
  189.1040  172.2560  140.5750 C   0  0  1  0  0  3  0  0  0  0  0  0
  191.3310  171.0410  140.2000 C   0  0  0  0  0  2  0  0  0  0  0  0
  188.5570  174.7250  140.5130 C   0  0  1  0  0  3  0  0  0  0  0  0
  188.1910  174.5410  139.1110 N   0  0  0  0  0  2  0  0  0  0  0  0
  191.2460  169.3060  138.4610 N   0  0  0  0  0  0  0  0  0  0  0  0
  190.7060  168.3110  137.9380 O   0  0  0  0  0  0  0  0  0  0  0  0
  192.5830  169.5500  138.2440 O   0  0  0  0  0  0  0  0  0  0  0  0
  1 17  1  0  0  0  0
  1 10  1  0  0  0  0
  4  5  1  0  0  0  0
  4  8  2  0  0  0  0
  5  1  2  0  0  0  0
  6 10  2  0  0  0  0
  6  7  1  0  0  0  0
  7 11  1  0  0  0  0
  8  6  1  0  0  0  0
  9  3  1  0  0  0  0
  9 11  2  0  0  0  0
 10  9  1  0  0  0  0
 12  2  2  0  0  0  0
 13 12  1  0  0  0  0
 14 13  2  0  0  0  0
 15  2  1  0  0  0  0
 15  3  2  0  0  0  0
 16 14  1  0  0  0  0
 16 17  2  0  0  0  0
 17 15  1  0  0  0  0
 18 13  1  0  0  0  0
 18 19  2  0  0  0  0
 20 18  2  0  0  0  0
 21  4  1  0  0  0  0
 22 26  2  0  0  0  0
 22 31  1  0  0  0  0
 24 32  1  6  0  0  0
 24 29  1  0  0  0  0
 25 26  1  0  0  0  0
 25 24  1  0  0  0  0
 26 28  1  0  0  0  0
 28 27  1  6  0  0  0
 28 23  1  0  0  0  0
 29 27  1  0  0  0  0
 30 21  1  1  0  0  0
 30 23  1  0  0  0  0
 31 30  1  0  0  0  0
 33 32  2  0  0  0  0
 34 32  2  0  0  0  0
M  END
>  <MODEL>
7

>  <REMARK>
 VINA RESULT:      -7.5      3.563      7.567
  Name = 
  4 active torsions:
  status: ('A' for Active; 'I' for Inactive)
    1  A    between atoms: N_3  and  C_25
    2  A    between atoms: C_7  and  N_11
    3  A    between atoms: C_8  and  C_18
    4  A    between atoms: C_18  and  C_30
                            x       y       z     vdW  Elec       q    Type
                         _______ _______ _______ _____ _____    ______ ____

>  <TORSDO>
F 4

$$$$
=
 OpenBabel11052420243D

 34 39  0  0  1  0  0  0  0  0999 V2000
  191.9090  175.0080  144.0030 C   0  0  0  0  0  0  0  0  0  0  0  0
  192.5400  173.4730  140.5340 C   0  0  0  0  0  3  0  0  0  0  0  0
  193.9430  173.9890  142.3910 N   0  0  0  0  0  0  0  0  0  0  0  0
  191.3820  176.0030  146.1900 C   0  0  0  0  0  0  0  0  0  0  0  0
  190.9700  175.5490  144.9140 C   0  0  0  0  0  3  0  0  0  0  0  0
  193.6360  175.3850  145.6600 C   0  0  0  0  0  0  0  0  0  0  0  0
  195.2940  175.1390  145.7640 S   0  0  0  0  0  0  0  0  0  0  0  0
  192.7360  175.9230  146.5760 C   0  0  0  0  0  3  0  0  0  0  0  0
  194.2320  174.4460  143.6300 C   0  0  0  0  0  0  0  0  0  0  0  0
  193.2290  174.9490  144.4270 C   0  0  0  0  0  0  0  0  0  0  0  0
  195.5020  174.4630  144.2110 C   0  0  0  0  0  3  0  0  0  0  0  0
  191.4850  173.3360  139.7410 C   0  0  0  0  0  3  0  0  0  0  0  0
  190.0790  173.6810  139.9730 C   0  0  0  0  0  0  0  0  0  0  0  0
  189.6140  174.2240  141.0950 C   0  0  0  0  0  3  0  0  0  0  0  0
  192.6640  174.0110  141.8960 C   0  0  0  0  0  0  0  0  0  0  0  0
  190.3110  174.6050  142.3270 C   0  0  0  0  0  3  0  0  0  0  0  0
  191.5940  174.5310  142.7020 C   0  0  0  0  0  0  0  0  0  0  0  0
  189.1470  173.4140  138.9140 N   0  0  0  0  0  0  0  0  0  0  0  0
  188.1850  172.4720  139.0700 O   0  0  0  0  0  0  0  0  0  0  0  0
  189.2110  174.0950  137.7450 O   0  0  0  0  0  0  0  0  0  0  0  0
  190.3760  176.5890  147.1310 C   0  0  0  0  0  2  0  0  0  0  0  0
  186.8050  177.8790  146.9390 C   0  0  0  0  0  3  0  0  0  0  0  0
  188.5600  176.1770  145.4130 C   0  0  0  0  0  2  0  0  0  0  0  0
  184.9610  177.7900  143.7010 C   0  0  2  0  0  3  0  0  0  0  0  0
  185.0710  178.0060  145.2170 C   0  0  0  0  0  2  0  0  0  0  0  0
  186.3830  177.4950  145.7330 C   0  0  0  0  0  0  0  0  0  0  0  0
  187.5170  177.5140  143.5060 C   0  0  0  0  0  2  0  0  0  0  0  0
  187.2690  176.7150  144.7880 C   0  0  1  0  0  3  0  0  0  0  0  0
  186.2490  178.2170  142.9760 C   0  0  0  0  0  2  0  0  0  0  0  0
  189.1520  177.1630  146.4160 C   0  0  1  0  0  3  0  0  0  0  0  0
  188.1340  177.5850  147.3740 N   0  0  0  0  0  2  0  0  0  0  0  0
  183.8180  178.5150  143.1720 N   0  0  0  0  0  0  0  0  0  0  0  0
  183.2680  179.3920  143.8680 O   0  0  0  0  0  0  0  0  0  0  0  0
  183.3810  178.2910  141.8870 O   0  0  0  0  0  0  0  0  0  0  0  0
  1 10  2  0  0  0  0
  1  5  1  0  0  0  0
  2 15  1  0  0  0  0
  3  9  1  0  0  0  0
  4  8  1  0  0  0  0
  4 21  1  0  0  0  0
  5  4  2  0  0  0  0
  6  7  1  0  0  0  0
  6  8  2  0  0  0  0
  9 11  2  0  0  0  0
  9 10  1  0  0  0  0
 10  6  1  0  0  0  0
 11  7  1  0  0  0  0
 12 13  1  0  0  0  0
 12  2  2  0  0  0  0
 13 14  2  0  0  0  0
 14 16  1  0  0  0  0
 15  3  2  0  0  0  0
 15 17  1  0  0  0  0
 16 17  2  0  0  0  0
 17  1  1  0  0  0  0
 18 19  2  0  0  0  0
 18 13  1  0  0  0  0
 20 18  2  0  0  0  0
 22 31  1  0  0  0  0
 23 30  1  0  0  0  0
 24 32  1  6  0  0  0
 24 25  1  0  0  0  0
 25 26  1  0  0  0  0
 26 22  2  0  0  0  0
 28 27  1  6  0  0  0
 28 23  1  0  0  0  0
 28 26  1  0  0  0  0
 29 27  1  0  0  0  0
 29 24  1  0  0  0  0
 30 21  1  1  0  0  0
 30 31  1  0  0  0  0
 32 33  2  0  0  0  0
 34 32  2  0  0  0  0
M  END
>  <MODEL>
8

>  <REMARK>
 VINA RESULT:      -7.5      3.682      7.821
  Name = 
  4 active torsions:
  status: ('A' for Active; 'I' for Inactive)
    1  A    between atoms: N_3  and  C_25
    2  A    between atoms: C_7  and  N_11
    3  A    between atoms: C_8  and  C_18
    4  A    between atoms: C_18  and  C_30
                            x       y       z     vdW  Elec       q    Type
                         _______ _______ _______ _____ _____    ______ ____

>  <TORSDO>
F 4

$$$$
=
 OpenBabel11052420243D

 34 39  0  0  1  0  0  0  0  0999 V2000
  190.0540  175.8040  144.4610 C   0  0  0  0  0  0  0  0  0  0  0  0
  191.6690  173.6820  141.6900 C   0  0  0  0  0  3  0  0  0  0  0  0
  192.4340  174.5170  143.7880 N   0  0  0  0  0  0  0  0  0  0  0  0
  188.9140  177.1690  146.1600 C   0  0  0  0  0  0  0  0  0  0  0  0
  188.9060  176.4970  144.9150 C   0  0  0  0  0  3  0  0  0  0  0  0
  191.1810  176.4680  146.5000 C   0  0  0  0  0  0  0  0  0  0  0  0
  192.7030  176.2440  147.1750 S   0  0  0  0  0  0  0  0  0  0  0  0
  190.0690  177.1590  146.9710 C   0  0  0  0  0  3  0  0  0  0  0  0
  192.3390  175.1860  144.9590 C   0  0  0  0  0  0  0  0  0  0  0  0
  191.1640  175.8220  145.2930 C   0  0  0  0  0  0  0  0  0  0  0  0
  193.3560  175.3050  145.9090 C   0  0  0  0  0  3  0  0  0  0  0  0
  190.9170  173.4070  140.6330 C   0  0  0  0  0  3  0  0  0  0  0  0
  189.5320  173.7870  140.3360 C   0  0  0  0  0  0  0  0  0  0  0  0
  188.7650  174.5190  141.1400 C   0  0  0  0  0  3  0  0  0  0  0  0
  191.3830  174.4510  142.9090 C   0  0  0  0  0  0  0  0  0  0  0  0
  189.0530  175.1110  142.4490 C   0  0  0  0  0  3  0  0  0  0  0  0
  190.1440  175.1050  143.2260 C   0  0  0  0  0  0  0  0  0  0  0  0
  188.9720  173.3370  139.0930 N   0  0  0  0  0  0  0  0  0  0  0  0
  187.9490  172.4480  139.0840 O   0  0  0  0  0  0  0  0  0  0  0  0
  189.4540  173.7910  137.9110 O   0  0  0  0  0  0  0  0  0  0  0  0
  187.6970  177.9120  146.6130 C   0  0  0  0  0  2  0  0  0  0  0  0
  184.4130  179.1360  145.1370 C   0  0  0  0  0  3  0  0  0  0  0  0
  186.2500  176.9460  144.7710 C   0  0  0  0  0  2  0  0  0  0  0  0
  183.2980  177.9110  141.7990 C   0  0  2  0  0  3  0  0  0  0  0  0
  183.1080  178.6660  143.1220 C   0  0  0  0  0  2  0  0  0  0  0  0
  184.2160  178.3470  144.0800 C   0  0  0  0  0  0  0  0  0  0  0  0
  185.7890  177.5150  142.3260 C   0  0  0  0  0  2  0  0  0  0  0  0
  185.1880  177.2510  143.7090 C   0  0  1  0  0  3  0  0  0  0  0  0
  184.7490  178.0080  141.2980 C   0  0  0  0  0  2  0  0  0  0  0  0
  186.7230  178.2150  145.4730 C   0  0  1  0  0  3  0  0  0  0  0  0
  185.5790  178.9860  145.9510 N   0  0  0  0  0  2  0  0  0  0  0  0
  182.3800  178.4220  140.7930 N   0  0  0  0  0  0  0  0  0  0  0  0
  182.1610  177.7540  139.7630 O   0  0  0  0  0  0  0  0  0  0  0  0
  181.7000  179.6000  141.0010 O   0  0  0  0  0  0  0  0  0  0  0  0
  1  5  2  0  0  0  0
  1 10  1  0  0  0  0
  2 15  1  0  0  0  0
  3  9  1  0  0  0  0
  4 21  1  0  0  0  0
  4  8  2  0  0  0  0
  5  4  1  0  0  0  0
  6  8  1  0  0  0  0
  6  7  1  0  0  0  0
  9 10  1  0  0  0  0
  9 11  2  0  0  0  0
 10  6  2  0  0  0  0
 11  7  1  0  0  0  0
 12  2  2  0  0  0  0
 13 12  1  0  0  0  0
 13 14  2  0  0  0  0
 14 16  1  0  0  0  0
 15 17  1  0  0  0  0
 15  3  2  0  0  0  0
 16 17  2  0  0  0  0
 17  1  1  0  0  0  0
 18 13  1  0  0  0  0
 19 18  2  0  0  0  0
 20 18  2  0  0  0  0
 22 31  1  0  0  0  0
 23 30  1  0  0  0  0
 24 32  1  6  0  0  0
 24 25  1  0  0  0  0
 25 26  1  0  0  0  0
 26 22  2  0  0  0  0
 28 27  1  6  0  0  0
 28 26  1  0  0  0  0
 28 23  1  0  0  0  0
 29 24  1  0  0  0  0
 29 27  1  0  0  0  0
 30 31  1  0  0  0  0
 30 21  1  1  0  0  0
 32 34  2  0  0  0  0
 33 32  2  0  0  0  0
M  END
>  <MODEL>
9

>  <REMARK>
 VINA RESULT:      -7.4      3.379      8.053
  Name = 
  4 active torsions:
  status: ('A' for Active; 'I' for Inactive)
    1  A    between atoms: N_3  and  C_25
    2  A    between atoms: C_7  and  N_11
    3  A    between atoms: C_8  and  C_18
    4  A    between atoms: C_18  and  C_30
                            x       y       z     vdW  Elec       q    Type
                         _______ _______ _______ _____ _____    ______ ____

>  <TORSDO>
F 4

$$$$
