=
 OpenBabel11052420363D

 34 38  0  0  1  0  0  0  0  0999 V2000
  190.3140  176.6310  143.4270 C   0  0  1  0  0  0  0  0  0  0  0  0
  192.3640  173.7500  142.5310 O   0  0  0  0  0  0  0  0  0  0  0  0
  189.9660  174.3690  142.4430 C   0  0  1  0  0  3  0  0  0  0  0  0
  190.4210  177.6380  142.4620 O   0  0  0  0  0  1  0  0  0  0  0  0
  189.2440  175.5890  143.0310 C   0  0  2  0  0  3  0  0  0  0  0  0
  194.6160  173.6810  141.7580 C   0  0  0  0  0  1  0  0  0  0  0  0
  193.6770  174.2610  142.7980 C   0  0  1  0  0  0  0  0  0  0  0  0
  193.8170  175.8170  142.7080 C   0  0  0  0  0  2  0  0  0  0  0  0
  191.4290  174.7940  142.3690 C   0  0  1  0  0  3  0  0  0  0  0  0
  192.7780  176.5800  143.3180 O   0  0  0  0  0  0  0  0  0  0  0  0
  191.5970  175.8190  143.4660 C   0  0  1  0  0  3  0  0  0  0  0  0
  194.1960  173.8070  144.1770 C   0  0  1  0  0  3  0  0  0  0  0  0
  193.3070  172.8430  144.8690 C   0  0  0  0  0  2  0  0  0  0  0  0
  194.4570  172.4220  144.1740 O   0  0  0  0  0  0  0  0  0  0  0  0
  188.2560  175.6880  140.8270 O   0  0  0  0  0  1  0  0  0  0  0  0
  188.1130  176.1240  142.1460 C   0  0  1  0  0  3  0  0  0  0  0  0
  186.7690  175.6810  142.6870 C   0  0  0  0  0  1  0  0  0  0  0  0
  189.7670  173.2190  143.3390 C   0  0  0  0  0  0  0  0  0  0  0  0
  189.6020  172.2750  144.0720 C   0  0  0  0  0  3  0  0  0  0  0  0
  190.0170  177.2680  144.7880 C   0  0  0  0  0  2  0  0  0  0  0  0
  190.0470  176.2640  145.9380 C   0  0  2  0  0  3  0  0  0  0  0  0
  188.6590  176.1320  146.5420 C   0  0  0  0  0  2  0  0  0  0  0  0
  185.4760  179.0930  146.5940 C   0  0  2  0  0  3  0  0  0  0  0  0
  184.0250  178.7790  146.2780 C   0  0  0  0  0  2  0  0  0  0  0  0
  185.8870  178.4820  145.2460 C   0  0  1  0  0  3  0  0  0  0  0  0
  183.9420  179.0350  143.8100 C   0  0  0  0  0  1  0  0  0  0  0  0
  186.6910  177.1880  145.3940 C   0  0  0  0  0  2  0  0  0  0  0  0
  184.4350  178.1640  144.9490 C   0  0  2  0  0  3  0  0  0  0  0  0
  187.4310  177.9630  147.7140 C   0  0  0  0  0  2  0  0  0  0  0  0
  187.8670  177.4130  146.3470 C   0  0  1  0  0  3  0  0  0  0  0  0
  185.9330  178.2650  147.7990 C   0  0  0  0  0  2  0  0  0  0  0  0
  190.9840  176.7140  146.9550 N   0  0  0  0  0  2  0  0  0  0  0  0
  193.3720  176.3580  146.7720 C   0  0  0  0  0  1  0  0  0  0  0  0
  192.0300  175.7100  147.0380 C   0  0  0  0  0  2  0  0  0  0  0  0
  1  4  1  6  0  0  0
  1 11  1  0  0  0  0
  1 20  1  0  0  0  0
  2  7  1  0  0  0  0
  3  5  1  0  0  0  0
  3 18  1  1  0  0  0
  5 16  1  6  0  0  0
  5  1  1  0  0  0  0
  7  6  1  6  0  0  0
  7 12  1  0  0  0  0
  8  7  1  0  0  0  0
  8 10  1  0  0  0  0
  9  3  1  0  0  0  0
  9  2  1  1  0  0  0
  9 11  1  0  0  0  0
 11 10  1  6  0  0  0
 12 13  1  1  0  0  0
 14 12  1  0  0  0  0
 14 13  1  0  0  0  0
 15 16  1  0  0  0  0
 16 17  1  1  0  0  0
 18 19  3  0  0  0  0
 21 20  1  6  0  0  0
 21 22  1  0  0  0  0
 21 32  1  0  0  0  0
 23 24  1  6  0  0  0
 23 31  1  0  0  0  0
 25 27  1  1  0  0  0
 25 23  1  0  0  0  0
 27 30  1  0  0  0  0
 28 26  1  6  0  0  0
 28 25  1  0  0  0  0
 28 24  1  0  0  0  0
 29 31  1  0  0  0  0
 30 22  1  1  0  0  0
 30 29  1  0  0  0  0
 32 34  1  0  0  0  0
 33 34  1  0  0  0  0
M  END
>  <MODEL>
1

>  <REMARK>
 VINA RESULT:      -7.1      0.000      0.000
  Name = 
  9 active torsions:
  status: ('A' for Active; 'I' for Inactive)
    1  A    between atoms: C_1  and  C_8
    2  A    between atoms: C_3  and  C_25
    3  A    between atoms: C_5  and  C_19
    4  A    between atoms: C_6  and  C_18
    5  A    between atoms: C_6  and  C_28
    6  A    between atoms: C_8  and  C_18
    7  A    between atoms: C_12  and  C_20
    8  A    between atoms: C_18  and  N_30
    9  A    between atoms: N_30  and  C_31
                            x       y       z     vdW  Elec       q    Type
                         _______ _______ _______ _____ _____    ______ ____

>  <TORSDO>
F 9

$$$$
=
 OpenBabel11052420363D

 34 38  0  0  1  0  0  0  0  0999 V2000
  190.6160  174.4530  142.3150 C   0  0  1  0  0  0  0  0  0  0  0  0
  192.4960  174.3450  145.4400 O   0  0  0  0  0  0  0  0  0  0  0  0
  190.3740  173.4100  144.5640 C   0  0  1  0  0  3  0  0  0  0  0  0
  191.1760  173.5880  141.3670 O   0  0  0  0  0  1  0  0  0  0  0  0
  189.6400  173.7020  143.2480 C   0  0  2  0  0  3  0  0  0  0  0  0
  194.8500  174.4240  145.7890 C   0  0  0  0  0  1  0  0  0  0  0  0
  193.6810  175.0620  145.0650 C   0  0  1  0  0  0  0  0  0  0  0  0
  194.0250  175.0270  143.5400 C   0  0  0  0  0  2  0  0  0  0  0  0
  191.8090  173.8610  144.3060 C   0  0  1  0  0  3  0  0  0  0  0  0
  192.9360  175.2270  142.6410 O   0  0  0  0  0  0  0  0  0  0  0  0
  191.6970  174.9450  143.2600 C   0  0  1  0  0  3  0  0  0  0  0  0
  193.6210  176.5350  145.5150 C   0  0  1  0  0  3  0  0  0  0  0  0
  192.9250  176.7440  146.8070 C   0  0  0  0  0  2  0  0  0  0  0  0
  194.3300  176.7120  146.7190 O   0  0  0  0  0  0  0  0  0  0  0  0
  188.8950  171.4220  143.5470 O   0  0  0  0  0  1  0  0  0  0  0  0
  188.9670  172.4720  142.6300 C   0  0  1  0  0  3  0  0  0  0  0  0
  187.5740  172.8240  142.1470 C   0  0  0  0  0  1  0  0  0  0  0  0
  189.7370  174.1770  145.6460 C   0  0  0  0  0  0  0  0  0  0  0  0
  189.2130  174.8070  146.5320 C   0  0  0  0  0  3  0  0  0  0  0  0
  189.9360  175.6190  141.5920 C   0  0  0  0  0  2  0  0  0  0  0  0
  188.8850  176.3210  142.4480 C   0  0  2  0  0  3  0  0  0  0  0  0
  187.4980  176.0430  141.8910 C   0  0  0  0  0  2  0  0  0  0  0  0
  185.0900  178.0760  144.8870 C   0  0  2  0  0  3  0  0  0  0  0  0
  185.6700  178.9130  146.0120 C   0  0  0  0  0  2  0  0  0  0  0  0
  185.9690  176.8960  145.3290 C   0  0  1  0  0  3  0  0  0  0  0  0
  186.0810  177.2240  147.7850 C   0  0  0  0  0  1  0  0  0  0  0  0
  187.0580  176.5440  144.3120 C   0  0  0  0  0  2  0  0  0  0  0  0
  186.5490  177.7480  146.4410 C   0  0  2  0  0  3  0  0  0  0  0  0
  185.6100  177.5700  142.4720 C   0  0  0  0  0  2  0  0  0  0  0  0
  186.4330  176.3550  142.9280 C   0  0  1  0  0  3  0  0  0  0  0  0
  185.5040  178.6660  143.5350 C   0  0  0  0  0  2  0  0  0  0  0  0
  189.1340  177.7530  142.4490 N   0  0  0  0  0  2  0  0  0  0  0  0
  190.1040  177.9310  144.6610 C   0  0  0  0  0  1  0  0  0  0  0  0
  190.3760  177.9650  143.1720 C   0  0  0  0  0  2  0  0  0  0  0  0
  1  4  1  6  0  0  0
  1  5  1  0  0  0  0
  1 11  1  0  0  0  0
  3 18  1  1  0  0  0
  5 16  1  6  0  0  0
  5  3  1  0  0  0  0
  7  2  1  0  0  0  0
  7 12  1  0  0  0  0
  7  6  1  1  0  0  0
  8  7  1  0  0  0  0
  9  3  1  0  0  0  0
  9  2  1  1  0  0  0
 10  8  1  0  0  0  0
 11 10  1  6  0  0  0
 11  9  1  0  0  0  0
 12 14  1  0  0  0  0
 12 13  1  1  0  0  0
 14 13  1  0  0  0  0
 16 17  1  1  0  0  0
 16 15  1  0  0  0  0
 18 19  3  0  0  0  0
 20  1  1  0  0  0  0
 21 20  1  6  0  0  0
 21 32  1  0  0  0  0
 22 21  1  0  0  0  0
 23 31  1  6  0  0  0
 23 25  1  0  0  0  0
 23 24  1  0  0  0  0
 24 28  1  0  0  0  0
 25 27  1  6  0  0  0
 25 28  1  0  0  0  0
 28 26  1  1  0  0  0
 29 30  1  0  0  0  0
 29 31  1  0  0  0  0
 30 22  1  6  0  0  0
 30 27  1  0  0  0  0
 32 34  1  0  0  0  0
 34 33  1  0  0  0  0
M  END
>  <MODEL>
2

>  <REMARK>
 VINA RESULT:      -7.0      1.894      3.501
  Name = 
  9 active torsions:
  status: ('A' for Active; 'I' for Inactive)
    1  A    between atoms: C_1  and  C_8
    2  A    between atoms: C_3  and  C_25
    3  A    between atoms: C_5  and  C_19
    4  A    between atoms: C_6  and  C_18
    5  A    between atoms: C_6  and  C_28
    6  A    between atoms: C_8  and  C_18
    7  A    between atoms: C_12  and  C_20
    8  A    between atoms: C_18  and  N_30
    9  A    between atoms: N_30  and  C_31
                            x       y       z     vdW  Elec       q    Type
                         _______ _______ _______ _____ _____    ______ ____

>  <TORSDO>
F 9

$$$$
=
 OpenBabel11052420363D

 34 38  0  0  1  0  0  0  0  0999 V2000
  189.9190  174.5890  145.1400 C   0  0  1  0  0  0  0  0  0  0  0  0
  193.2260  176.1260  145.2190 O   0  0  0  0  0  0  0  0  0  0  0  0
  190.8870  176.8290  145.6420 C   0  0  1  0  0  3  0  0  0  0  0  0
  189.7010  173.8160  146.2870 O   0  0  0  0  0  1  0  0  0  0  0  0
  189.5740  176.0730  145.3930 C   0  0  2  0  0  3  0  0  0  0  0  0
  195.3300  175.1540  145.7650 C   0  0  0  0  0  1  0  0  0  0  0  0
  194.0580  174.9870  144.9580 C   0  0  1  0  0  0  0  0  0  0  0  0
  193.4450  173.6080  145.3670 C   0  0  0  0  0  2  0  0  0  0  0  0
  191.9510  175.7360  145.6810 C   0  0  1  0  0  3  0  0  0  0  0  0
  192.0770  173.3980  145.0260 O   0  0  0  0  0  0  0  0  0  0  0  0
  191.4030  174.6230  144.8190 C   0  0  1  0  0  3  0  0  0  0  0  0
  194.4720  174.9130  143.4750 C   0  0  1  0  0  3  0  0  0  0  0  0
  193.9640  176.0350  142.6490 C   0  0  0  0  0  2  0  0  0  0  0  0
  195.2850  176.0110  143.1330 O   0  0  0  0  0  0  0  0  0  0  0  0
  188.7740  177.4850  147.1850 O   0  0  0  0  0  1  0  0  0  0  0  0
  188.5070  176.3190  146.4650 C   0  0  1  0  0  3  0  0  0  0  0  0
  187.1350  176.4150  145.8280 C   0  0  0  0  0  1  0  0  0  0  0  0
  191.1070  177.7780  144.5390 C   0  0  0  0  0  0  0  0  0  0  0  0
  191.2880  178.5550  143.6340 C   0  0  0  0  0  3  0  0  0  0  0  0
  189.1120  174.0030  143.9780 C   0  0  0  0  0  2  0  0  0  0  0  0
  189.0870  174.9090  142.7500 C   0  0  2  0  0  3  0  0  0  0  0  0
  187.7400  174.7960  142.0540 C   0  0  0  0  0  2  0  0  0  0  0  0
  186.4410  178.9020  142.6480 C   0  0  2  0  0  3  0  0  0  0  0  0
  185.7840  179.4050  143.9200 C   0  0  0  0  0  2  0  0  0  0  0  0
  185.3730  177.8030  142.5470 C   0  0  1  0  0  3  0  0  0  0  0  0
  183.3820  178.9210  143.5150 C   0  0  0  0  0  1  0  0  0  0  0  0
  185.9380  176.3960  142.7600 C   0  0  0  0  0  2  0  0  0  0  0  0
  184.7340  178.3080  143.8260 C   0  0  2  0  0  3  0  0  0  0  0  0
  188.2240  177.2450  141.9940 C   0  0  0  0  0  2  0  0  0  0  0  0
  187.1350  176.1720  141.8340 C   0  0  1  0  0  3  0  0  0  0  0  0
  187.8390  178.3620  142.9660 C   0  0  0  0  0  2  0  0  0  0  0  0
  190.1460  174.5180  141.8340 N   0  0  0  0  0  2  0  0  0  0  0  0
  190.4350  172.3070  140.8880 C   0  0  0  0  0  1  0  0  0  0  0  0
  189.5730  173.5510  140.9140 C   0  0  0  0  0  2  0  0  0  0  0  0
  1  5  1  0  0  0  0
  1  4  1  1  0  0  0
  3 18  1  6  0  0  0
  3  9  1  0  0  0  0
  5  3  1  0  0  0  0
  5 16  1  1  0  0  0
  7  2  1  0  0  0  0
  7  8  1  0  0  0  0
  7  6  1  1  0  0  0
  9  2  1  6  0  0  0
 10  8  1  0  0  0  0
 11 10  1  1  0  0  0
 11  1  1  0  0  0  0
 11  9  1  0  0  0  0
 12 13  1  6  0  0  0
 12  7  1  0  0  0  0
 13 14  1  0  0  0  0
 14 12  1  0  0  0  0
 16 17  1  6  0  0  0
 16 15  1  0  0  0  0
 19 18  3  0  0  0  0
 20  1  1  0  0  0  0
 21 22  1  6  0  0  0
 21 20  1  0  0  0  0
 23 31  1  1  0  0  0
 23 24  1  0  0  0  0
 25 23  1  0  0  0  0
 25 27  1  1  0  0  0
 25 28  1  0  0  0  0
 28 26  1  6  0  0  0
 28 24  1  0  0  0  0
 29 31  1  0  0  0  0
 30 29  1  0  0  0  0
 30 22  1  1  0  0  0
 30 27  1  0  0  0  0
 32 21  1  0  0  0  0
 33 34  1  0  0  0  0
 34 32  1  0  0  0  0
M  END
>  <MODEL>
3

>  <REMARK>
 VINA RESULT:      -7.0      2.269      4.287
  Name = 
  9 active torsions:
  status: ('A' for Active; 'I' for Inactive)
    1  A    between atoms: C_1  and  C_8
    2  A    between atoms: C_3  and  C_25
    3  A    between atoms: C_5  and  C_19
    4  A    between atoms: C_6  and  C_18
    5  A    between atoms: C_6  and  C_28
    6  A    between atoms: C_8  and  C_18
    7  A    between atoms: C_12  and  C_20
    8  A    between atoms: C_18  and  N_30
    9  A    between atoms: N_30  and  C_31
                            x       y       z     vdW  Elec       q    Type
                         _______ _______ _______ _____ _____    ______ ____

>  <TORSDO>
F 9

$$$$
=
 OpenBabel11052420363D

 34 38  0  0  1  0  0  0  0  0999 V2000
  190.6900  174.4760  144.4450 C   0  0  1  0  0  0  0  0  0  0  0  0
  193.9030  173.3470  145.7530 O   0  0  0  0  0  0  0  0  0  0  0  0
  192.1650  174.9980  146.3830 C   0  0  1  0  0  3  0  0  0  0  0  0
  189.6760  173.5630  144.7580 O   0  0  0  0  0  1  0  0  0  0  0  0
  190.9270  175.4660  145.6060 C   0  0  2  0  0  3  0  0  0  0  0  0
  194.9050  171.1900  145.6390 C   0  0  0  0  0  1  0  0  0  0  0  0
  194.1980  172.2730  144.8490 C   0  0  1  0  0  0  0  0  0  0  0  0
  192.9520  171.6010  144.1840 C   0  0  0  0  0  2  0  0  0  0  0  0
  192.5270  173.6590  145.7480 C   0  0  1  0  0  3  0  0  0  0  0  0
  191.9410  172.4830  143.7020 O   0  0  0  0  0  0  0  0  0  0  0  0
  192.0170  173.7480  144.3280 C   0  0  1  0  0  3  0  0  0  0  0  0
  195.1630  172.7180  143.7320 C   0  0  1  0  0  3  0  0  0  0  0  0
  195.6790  174.0990  143.8940 C   0  0  0  0  0  2  0  0  0  0  0  0
  196.4440  172.9740  144.2590 O   0  0  0  0  0  0  0  0  0  0  0  0
  189.7500  174.9640  147.6580 O   0  0  0  0  0  1  0  0  0  0  0  0
  189.7050  175.7330  146.4930 C   0  0  1  0  0  3  0  0  0  0  0  0
  189.6290  177.2030  146.8540 C   0  0  0  0  0  1  0  0  0  0  0  0
  193.2350  175.9960  146.2230 C   0  0  0  0  0  0  0  0  0  0  0  0
  194.1130  176.8120  146.0920 C   0  0  0  0  0  3  0  0  0  0  0  0
  190.3330  175.1960  143.1410 C   0  0  0  0  0  2  0  0  0  0  0  0
  189.1400  176.1370  143.2850 C   0  0  2  0  0  3  0  0  0  0  0  0
  187.9360  175.5560  142.5620 C   0  0  0  0  0  2  0  0  0  0  0  0
  184.9570  178.3780  144.0000 C   0  0  2  0  0  3  0  0  0  0  0  0
  185.2600  179.5060  144.9700 C   0  0  0  0  0  2  0  0  0  0  0  0
  185.5600  177.3770  144.9970 C   0  0  1  0  0  3  0  0  0  0  0  0
  184.9850  178.4060  147.1790 C   0  0  0  0  0  1  0  0  0  0  0  0
  186.8600  176.7420  144.4970 C   0  0  0  0  0  2  0  0  0  0  0  0
  185.8680  178.5150  145.9500 C   0  0  2  0  0  3  0  0  0  0  0  0
  186.1060  177.1900  142.0960 C   0  0  0  0  0  2  0  0  0  0  0  0
  186.6490  176.1590  143.0990 C   0  0  1  0  0  3  0  0  0  0  0  0
  185.7960  178.5480  142.7300 C   0  0  0  0  0  2  0  0  0  0  0  0
  189.4720  177.4350  142.7190 N   0  0  0  0  0  2  0  0  0  0  0  0
  191.2300  178.6800  143.8250 C   0  0  0  0  0  1  0  0  0  0  0  0
  190.9130  177.5870  142.8270 C   0  0  0  0  0  2  0  0  0  0  0  0
  1  4  1  1  0  0  0
  1  5  1  0  0  0  0
  3 18  1  6  0  0  0
  5  3  1  0  0  0  0
  5 16  1  1  0  0  0
  7  6  1  1  0  0  0
  7  2  1  0  0  0  0
  8  7  1  0  0  0  0
  9  2  1  6  0  0  0
  9  3  1  0  0  0  0
 10  8  1  0  0  0  0
 11 10  1  1  0  0  0
 11  1  1  0  0  0  0
 11  9  1  0  0  0  0
 12 13  1  1  0  0  0
 12 14  1  0  0  0  0
 12  7  1  0  0  0  0
 13 14  1  0  0  0  0
 16 17  1  1  0  0  0
 16 15  1  0  0  0  0
 19 18  3  0  0  0  0
 20 21  1  0  0  0  0
 20  1  1  0  0  0  0
 21 22  1  6  0  0  0
 23 31  1  6  0  0  0
 23 24  1  0  0  0  0
 23 25  1  0  0  0  0
 24 28  1  0  0  0  0
 25 27  1  6  0  0  0
 25 28  1  0  0  0  0
 28 26  1  1  0  0  0
 29 31  1  0  0  0  0
 29 30  1  0  0  0  0
 30 22  1  6  0  0  0
 30 27  1  0  0  0  0
 32 34  1  0  0  0  0
 32 21  1  0  0  0  0
 34 33  1  0  0  0  0
M  END
>  <MODEL>
4

>  <REMARK>
 VINA RESULT:      -6.9      2.133      3.992
  Name = 
  9 active torsions:
  status: ('A' for Active; 'I' for Inactive)
    1  A    between atoms: C_1  and  C_8
    2  A    between atoms: C_3  and  C_25
    3  A    between atoms: C_5  and  C_19
    4  A    between atoms: C_6  and  C_18
    5  A    between atoms: C_6  and  C_28
    6  A    between atoms: C_8  and  C_18
    7  A    between atoms: C_12  and  C_20
    8  A    between atoms: C_18  and  N_30
    9  A    between atoms: N_30  and  C_31
                            x       y       z     vdW  Elec       q    Type
                         _______ _______ _______ _____ _____    ______ ____

>  <TORSDO>
F 9

$$$$
=
 OpenBabel11052420363D

 34 38  0  0  1  0  0  0  0  0999 V2000
  190.5800  174.5200  145.3430 C   0  0  1  0  0  0  0  0  0  0  0  0
  194.1150  173.6190  145.2700 O   0  0  0  0  0  0  0  0  0  0  0  0
  192.6830  175.2570  146.4580 C   0  0  1  0  0  3  0  0  0  0  0  0
  189.8480  173.6020  146.1060 O   0  0  0  0  0  1  0  0  0  0  0  0
  191.2060  175.6140  146.2360 C   0  0  2  0  0  3  0  0  0  0  0  0
  195.1240  171.4960  144.8880 C   0  0  0  0  0  1  0  0  0  0  0  0
  194.0840  172.4830  144.3950 C   0  0  1  0  0  0  0  0  0  0  0  0
  192.7230  171.7140  144.3500 C   0  0  0  0  0  2  0  0  0  0  0  0
  192.8400  173.8820  145.8160 C   0  0  1  0  0  3  0  0  0  0  0  0
  191.5460  172.5160  144.2760 O   0  0  0  0  0  0  0  0  0  0  0  0
  191.7880  173.8310  144.7330 C   0  0  1  0  0  3  0  0  0  0  0  0
  194.4720  172.8640  142.9530 C   0  0  1  0  0  3  0  0  0  0  0  0
  194.9340  174.2660  142.8020 C   0  0  0  0  0  2  0  0  0  0  0  0
  195.8410  173.1910  142.8800 O   0  0  0  0  0  0  0  0  0  0  0  0
  191.1910  175.5540  148.6530 O   0  0  0  0  0  1  0  0  0  0  0  0
  190.4420  175.9120  147.5310 C   0  0  1  0  0  3  0  0  0  0  0  0
  190.0850  177.3830  147.6020 C   0  0  0  0  0  1  0  0  0  0  0  0
  193.5230  176.2730  145.8060 C   0  0  0  0  0  0  0  0  0  0  0  0
  194.2130  177.1050  145.2700 C   0  0  0  0  0  3  0  0  0  0  0  0
  189.6720  175.1130  144.2620 C   0  0  0  0  0  2  0  0  0  0  0  0
  190.3690  176.1710  143.4100 C   0  0  2  0  0  3  0  0  0  0  0  0
  189.6610  177.5060  143.5660 C   0  0  0  0  0  2  0  0  0  0  0  0
  185.3820  178.2310  143.8260 C   0  0  2  0  0  3  0  0  0  0  0  0
  184.7620  179.3450  144.6500 C   0  0  0  0  0  2  0  0  0  0  0  0
  186.1190  177.7330  145.0790 C   0  0  1  0  0  3  0  0  0  0  0  0
  184.5110  178.2900  146.8840 C   0  0  0  0  0  1  0  0  0  0  0  0
  187.6360  177.9150  144.9940 C   0  0  0  0  0  2  0  0  0  0  0  0
  185.5020  178.8590  145.8870 C   0  0  2  0  0  3  0  0  0  0  0  0
  187.4580  177.8600  142.4450 C   0  0  0  0  0  2  0  0  0  0  0  0
  188.1610  177.3040  143.6940 C   0  0  1  0  0  3  0  0  0  0  0  0
  186.3170  178.8270  142.7700 C   0  0  0  0  0  2  0  0  0  0  0  0
  190.3480  175.7650  142.0140 N   0  0  0  0  0  2  0  0  0  0  0  0
  188.5530  174.6600  140.8210 C   0  0  0  0  0  1  0  0  0  0  0  0
  189.5640  174.5440  141.9410 C   0  0  0  0  0  2  0  0  0  0  0  0
  1  4  1  1  0  0  0
  1  5  1  0  0  0  0
  3 18  1  6  0  0  0
  5  3  1  0  0  0  0
  5 16  1  1  0  0  0
  7  6  1  1  0  0  0
  7  2  1  0  0  0  0
  8  7  1  0  0  0  0
  9  2  1  6  0  0  0
  9  3  1  0  0  0  0
 10  8  1  0  0  0  0
 11 10  1  1  0  0  0
 11  1  1  0  0  0  0
 11  9  1  0  0  0  0
 12 13  1  1  0  0  0
 12  7  1  0  0  0  0
 13 14  1  0  0  0  0
 14 12  1  0  0  0  0
 16 17  1  1  0  0  0
 16 15  1  0  0  0  0
 19 18  3  0  0  0  0
 20  1  1  0  0  0  0
 21 22  1  6  0  0  0
 21 20  1  0  0  0  0
 23 31  1  6  0  0  0
 23 24  1  0  0  0  0
 23 25  1  0  0  0  0
 24 28  1  0  0  0  0
 25 27  1  6  0  0  0
 25 28  1  0  0  0  0
 28 26  1  1  0  0  0
 29 31  1  0  0  0  0
 29 30  1  0  0  0  0
 30 22  1  6  0  0  0
 30 27  1  0  0  0  0
 32 21  1  0  0  0  0
 33 34  1  0  0  0  0
 34 32  1  0  0  0  0
M  END
>  <MODEL>
5

>  <REMARK>
 VINA RESULT:      -6.9      2.276      4.315
  Name = 
  9 active torsions:
  status: ('A' for Active; 'I' for Inactive)
    1  A    between atoms: C_1  and  C_8
    2  A    between atoms: C_3  and  C_25
    3  A    between atoms: C_5  and  C_19
    4  A    between atoms: C_6  and  C_18
    5  A    between atoms: C_6  and  C_28
    6  A    between atoms: C_8  and  C_18
    7  A    between atoms: C_12  and  C_20
    8  A    between atoms: C_18  and  N_30
    9  A    between atoms: N_30  and  C_31
                            x       y       z     vdW  Elec       q    Type
                         _______ _______ _______ _____ _____    ______ ____

>  <TORSDO>
F 9

$$$$
=
 OpenBabel11052420363D

 34 38  0  0  1  0  0  0  0  0999 V2000
  192.8710  175.9320  143.7490 C   0  0  1  0  0  0  0  0  0  0  0  0
  195.6270  173.6750  142.9620 O   0  0  0  0  0  0  0  0  0  0  0  0
  193.1580  173.5370  143.1230 C   0  0  1  0  0  3  0  0  0  0  0  0
  192.5710  176.7520  142.6560 O   0  0  0  0  0  1  0  0  0  0  0  0
  192.1480  174.5710  143.6410 C   0  0  2  0  0  3  0  0  0  0  0  0
  197.7080  174.1450  141.9050 C   0  0  0  0  0  1  0  0  0  0  0  0
  196.7340  174.5870  142.9790 C   0  0  1  0  0  0  0  0  0  0  0  0
  196.3730  176.0770  142.6700 C   0  0  0  0  0  2  0  0  0  0  0  0
  194.4030  174.3560  142.7950 C   0  0  1  0  0  3  0  0  0  0  0  0
  195.2090  176.5910  143.3120 O   0  0  0  0  0  0  0  0  0  0  0  0
  194.3410  175.5520  143.7170 C   0  0  1  0  0  3  0  0  0  0  0  0
  197.4910  174.5390  144.3210 C   0  0  1  0  0  3  0  0  0  0  0  0
  196.8450  173.6880  145.3490 C   0  0  0  0  0  2  0  0  0  0  0  0
  197.9380  173.2310  144.5890 O   0  0  0  0  0  0  0  0  0  0  0  0
  191.0160  174.1480  141.5470 O   0  0  0  0  0  1  0  0  0  0  0  0
  190.8310  174.5960  142.8570 C   0  0  1  0  0  3  0  0  0  0  0  0
  189.7920  173.7360  143.5490 C   0  0  0  0  0  1  0  0  0  0  0  0
  193.4090  172.5450  144.1800 C   0  0  0  0  0  0  0  0  0  0  0  0
  193.6140  171.7290  145.0440 C   0  0  0  0  0  3  0  0  0  0  0  0
  192.5160  176.6690  145.0440 C   0  0  0  0  0  2  0  0  0  0  0  0
  191.0410  176.5450  145.4160 C   0  0  2  0  0  3  0  0  0  0  0  0
  190.2440  177.6490  144.7400 C   0  0  0  0  0  2  0  0  0  0  0  0
  185.9950  177.6790  143.8190 C   0  0  2  0  0  3  0  0  0  0  0  0
  185.0460  178.7850  144.2430 C   0  0  0  0  0  2  0  0  0  0  0  0
  186.4270  177.5060  145.2830 C   0  0  1  0  0  3  0  0  0  0  0  0
  184.3400  178.0510  146.5080 C   0  0  0  0  0  1  0  0  0  0  0  0
  187.8780  177.9240  145.5340 C   0  0  0  0  0  2  0  0  0  0  0  0
  185.4840  178.6210  145.6910 C   0  0  2  0  0  3  0  0  0  0  0  0
  188.3940  177.4570  143.0740 C   0  0  0  0  0  2  0  0  0  0  0  0
  188.8010  177.2200  144.5380 C   0  0  1  0  0  3  0  0  0  0  0  0
  187.0980  178.2570  142.9260 C   0  0  0  0  0  2  0  0  0  0  0  0
  190.8920  176.6480  146.8590 N   0  0  0  0  0  2  0  0  0  0  0  0
  189.4190  174.7510  147.1710 C   0  0  0  0  0  1  0  0  0  0  0  0
  190.8180  175.2910  147.3740 C   0  0  0  0  0  2  0  0  0  0  0  0
  1  4  1  6  0  0  0
  1 20  1  0  0  0  0
  2  7  1  0  0  0  0
  3  5  1  0  0  0  0
  3 18  1  1  0  0  0
  5 16  1  6  0  0  0
  5  1  1  0  0  0  0
  7  6  1  6  0  0  0
  7 12  1  0  0  0  0
  8  7  1  0  0  0  0
  8 10  1  0  0  0  0
  9  2  1  1  0  0  0
  9  3  1  0  0  0  0
  9 11  1  0  0  0  0
 11 10  1  6  0  0  0
 11  1  1  0  0  0  0
 12 14  1  0  0  0  0
 12 13  1  1  0  0  0
 14 13  1  0  0  0  0
 15 16  1  0  0  0  0
 16 17  1  1  0  0  0
 18 19  3  0  0  0  0
 20 21  1  0  0  0  0
 21 22  1  6  0  0  0
 21 32  1  0  0  0  0
 23 31  1  6  0  0  0
 23 24  1  0  0  0  0
 23 25  1  0  0  0  0
 24 28  1  0  0  0  0
 25 27  1  6  0  0  0
 25 28  1  0  0  0  0
 28 26  1  1  0  0  0
 29 30  1  0  0  0  0
 30 22  1  6  0  0  0
 30 27  1  0  0  0  0
 31 29  1  0  0  0  0
 32 34  1  0  0  0  0
 33 34  1  0  0  0  0
M  END
>  <MODEL>
6

>  <REMARK>
 VINA RESULT:      -6.7      1.763      3.039
  Name = 
  9 active torsions:
  status: ('A' for Active; 'I' for Inactive)
    1  A    between atoms: C_1  and  C_8
    2  A    between atoms: C_3  and  C_25
    3  A    between atoms: C_5  and  C_19
    4  A    between atoms: C_6  and  C_18
    5  A    between atoms: C_6  and  C_28
    6  A    between atoms: C_8  and  C_18
    7  A    between atoms: C_12  and  C_20
    8  A    between atoms: C_18  and  N_30
    9  A    between atoms: N_30  and  C_31
                            x       y       z     vdW  Elec       q    Type
                         _______ _______ _______ _____ _____    ______ ____

>  <TORSDO>
F 9

$$$$
=
 OpenBabel11052420363D

 34 38  0  0  1  0  0  0  0  0999 V2000
  191.5890  174.3840  142.2410 C   0  0  1  0  0  0  0  0  0  0  0  0
  195.1540  173.6940  142.5990 O   0  0  0  0  0  0  0  0  0  0  0  0
  193.0220  172.5250  143.0790 C   0  0  1  0  0  3  0  0  0  0  0  0
  191.1780  174.2040  140.9150 O   0  0  0  0  0  1  0  0  0  0  0  0
  191.5790  173.0470  143.0150 C   0  0  2  0  0  3  0  0  0  0  0  0
  196.9740  174.4140  141.2430 C   0  0  0  0  0  1  0  0  0  0  0  0
  195.7160  174.8520  141.9660 C   0  0  1  0  0  0  0  0  0  0  0  0
  194.8020  175.5380  140.8990 C   0  0  0  0  0  2  0  0  0  0  0  0
  193.8130  173.4940  142.2060 C   0  0  1  0  0  3  0  0  0  0  0  0
  193.4290  175.6970  141.2520 O   0  0  0  0  0  0  0  0  0  0  0  0
  193.0500  174.7970  142.2730 C   0  0  1  0  0  3  0  0  0  0  0  0
  196.1370  175.9160  142.9990 C   0  0  1  0  0  3  0  0  0  0  0  0
  196.0210  175.4700  144.4090 C   0  0  0  0  0  2  0  0  0  0  0  0
  197.2570  175.4770  143.7330 O   0  0  0  0  0  0  0  0  0  0  0  0
  191.1680  170.7600  142.3470 O   0  0  0  0  0  1  0  0  0  0  0  0
  190.5690  172.0110  142.5090 C   0  0  1  0  0  3  0  0  0  0  0  0
  189.4050  171.8990  143.4730 C   0  0  0  0  0  1  0  0  0  0  0  0
  193.4740  172.5430  144.4790 C   0  0  0  0  0  0  0  0  0  0  0  0
  193.8470  172.5570  145.6260 C   0  0  0  0  0  3  0  0  0  0  0  0
  190.6990  175.4380  142.9050 C   0  0  0  0  0  2  0  0  0  0  0  0
  190.6610  175.3150  144.4270 C   0  0  2  0  0  3  0  0  0  0  0  0
  189.2290  175.1060  144.8900 C   0  0  0  0  0  2  0  0  0  0  0  0
  186.4690  178.0810  146.4520 C   0  0  2  0  0  3  0  0  0  0  0  0
  185.0510  178.2670  145.9430 C   0  0  0  0  0  2  0  0  0  0  0  0
  186.9910  178.2460  145.0160 C   0  0  1  0  0  3  0  0  0  0  0  0
  185.3590  179.8450  144.0510 C   0  0  0  0  0  1  0  0  0  0  0  0
  187.5960  176.9610  144.4460 C   0  0  0  0  0  2  0  0  0  0  0  0
  185.5680  178.4180  144.5210 C   0  0  2  0  0  3  0  0  0  0  0  0
  188.0850  176.1830  146.8310 C   0  0  0  0  0  2  0  0  0  0  0  0
  188.6410  176.4040  145.4140 C   0  0  1  0  0  3  0  0  0  0  0  0
  186.6410  176.6600  146.9980 C   0  0  0  0  0  2  0  0  0  0  0  0
  191.1980  176.5260  145.0270 N   0  0  0  0  0  2  0  0  0  0  0  0
  192.1380  175.5460  147.0330 C   0  0  0  0  0  1  0  0  0  0  0  0
  192.4410  176.1570  145.6810 C   0  0  0  0  0  2  0  0  0  0  0  0
  1  4  1  6  0  0  0
  1 11  1  0  0  0  0
  1 20  1  0  0  0  0
  1  5  1  0  0  0  0
  3 18  1  1  0  0  0
  5 16  1  6  0  0  0
  5  3  1  0  0  0  0
  7  6  1  6  0  0  0
  7  2  1  0  0  0  0
  7 12  1  0  0  0  0
  8 10  1  0  0  0  0
  8  7  1  0  0  0  0
  9 11  1  0  0  0  0
  9  2  1  1  0  0  0
  9  3  1  0  0  0  0
 11 10  1  6  0  0  0
 12 14  1  0  0  0  0
 12 13  1  1  0  0  0
 14 13  1  0  0  0  0
 15 16  1  0  0  0  0
 16 17  1  1  0  0  0
 18 19  3  0  0  0  0
 21 20  1  6  0  0  0
 21 22  1  0  0  0  0
 21 32  1  0  0  0  0
 23 24  1  6  0  0  0
 23 31  1  0  0  0  0
 25 27  1  6  0  0  0
 25 23  1  0  0  0  0
 27 30  1  0  0  0  0
 28 26  1  1  0  0  0
 28 25  1  0  0  0  0
 28 24  1  0  0  0  0
 29 31  1  0  0  0  0
 30 22  1  6  0  0  0
 30 29  1  0  0  0  0
 32 34  1  0  0  0  0
 34 33  1  0  0  0  0
M  END
>  <MODEL>
7

>  <REMARK>
 VINA RESULT:      -6.6      1.770      2.926
  Name = 
  9 active torsions:
  status: ('A' for Active; 'I' for Inactive)
    1  A    between atoms: C_1  and  C_8
    2  A    between atoms: C_3  and  C_25
    3  A    between atoms: C_5  and  C_19
    4  A    between atoms: C_6  and  C_18
    5  A    between atoms: C_6  and  C_28
    6  A    between atoms: C_8  and  C_18
    7  A    between atoms: C_12  and  C_20
    8  A    between atoms: C_18  and  N_30
    9  A    between atoms: N_30  and  C_31
                            x       y       z     vdW  Elec       q    Type
                         _______ _______ _______ _____ _____    ______ ____

>  <TORSDO>
F 9

$$$$
=
 OpenBabel11052420363D

 34 38  0  0  1  0  0  0  0  0999 V2000
  189.2970  176.1530  143.8090 C   0  0  1  0  0  0  0  0  0  0  0  0
  185.7900  177.0720  144.2160 O   0  0  0  0  0  0  0  0  0  0  0  0
  187.1500  175.7700  142.6050 C   0  0  1  0  0  3  0  0  0  0  0  0
  189.6390  175.1010  144.6670 O   0  0  0  0  0  1  0  0  0  0  0  0
  188.6740  175.6240  142.4980 C   0  0  2  0  0  3  0  0  0  0  0  0
  184.5430  177.4250  146.2150 C   0  0  0  0  0  1  0  0  0  0  0  0
  185.8330  177.7420  145.4840 C   0  0  1  0  0  0  0  0  0  0  0  0
  187.0020  177.3060  146.4280 C   0  0  0  0  0  2  0  0  0  0  0  0
  186.9130  176.2380  144.0380 C   0  0  1  0  0  3  0  0  0  0  0  0
  188.2840  177.1620  145.8200 O   0  0  0  0  0  0  0  0  0  0  0  0
  188.1760  176.9720  144.4240 C   0  0  1  0  0  3  0  0  0  0  0  0
  185.8910  179.2730  145.3170 C   0  0  1  0  0  3  0  0  0  0  0  0
  185.6670  179.7390  143.9270 C   0  0  0  0  0  2  0  0  0  0  0  0
  184.6440  179.7720  144.8930 O   0  0  0  0  0  0  0  0  0  0  0  0
  188.1800  173.2590  142.4200 O   0  0  0  0  0  1  0  0  0  0  0  0
  189.1330  174.2220  142.0810 C   0  0  1  0  0  3  0  0  0  0  0  0
  189.3950  174.1790  140.5890 C   0  0  0  0  0  1  0  0  0  0  0  0
  186.6950  176.7610  141.6150 C   0  0  0  0  0  0  0  0  0  0  0  0
  186.3230  177.5740  140.8060 C   0  0  0  0  0  3  0  0  0  0  0  0
  190.5360  177.0130  143.5490 C   0  0  0  0  0  2  0  0  0  0  0  0
  191.8440  176.2810  143.8390 C   0  0  2  0  0  3  0  0  0  0  0  0
  192.4460  176.7980  145.1350 C   0  0  0  0  0  2  0  0  0  0  0  0
  195.5270  173.7840  145.7080 C   0  0  2  0  0  3  0  0  0  0  0  0
  195.8130  172.6690  144.7180 C   0  0  0  0  0  2  0  0  0  0  0  0
  194.0560  173.3460  145.7550 C   0  0  1  0  0  3  0  0  0  0  0  0
  194.2320  170.8930  145.4330 C   0  0  0  0  0  1  0  0  0  0  0  0
  193.1040  174.3740  145.1380 C   0  0  0  0  0  2  0  0  0  0  0  0
  194.3530  172.2450  144.7560 C   0  0  2  0  0  3  0  0  0  0  0  0
  194.8170  176.2020  145.6460 C   0  0  0  0  0  2  0  0  0  0  0  0
  193.3510  175.7500  145.7590 C   0  0  1  0  0  3  0  0  0  0  0  0
  195.7340  175.1420  145.0310 C   0  0  0  0  0  2  0  0  0  0  0  0
  192.7770  176.4970  142.7450 N   0  0  0  0  0  2  0  0  0  0  0  0
  194.1040  174.7760  141.6760 C   0  0  0  0  0  1  0  0  0  0  0  0
  192.7090  175.3220  141.8940 C   0  0  0  0  0  2  0  0  0  0  0  0
  1 11  1  0  0  0  0
  1  4  1  1  0  0  0
  2  7  1  0  0  0  0
  3 18  1  6  0  0  0
  3  9  1  0  0  0  0
  5 16  1  1  0  0  0
  5  3  1  0  0  0  0
  5  1  1  0  0  0  0
  7  6  1  1  0  0  0
  7  8  1  0  0  0  0
  9  2  1  6  0  0  0
  9 11  1  0  0  0  0
 10  8  1  0  0  0  0
 11 10  1  1  0  0  0
 12 13  1  6  0  0  0
 12  7  1  0  0  0  0
 13 14  1  0  0  0  0
 14 12  1  0  0  0  0
 16 17  1  6  0  0  0
 16 15  1  0  0  0  0
 19 18  3  0  0  0  0
 20  1  1  0  0  0  0
 21 20  1  6  0  0  0
 21 22  1  0  0  0  0
 23 24  1  6  0  0  0
 23 25  1  0  0  0  0
 24 28  1  0  0  0  0
 25 27  1  6  0  0  0
 27 30  1  0  0  0  0
 28 26  1  1  0  0  0
 28 25  1  0  0  0  0
 29 30  1  0  0  0  0
 30 22  1  6  0  0  0
 31 29  1  0  0  0  0
 31 23  1  0  0  0  0
 32 21  1  0  0  0  0
 33 34  1  0  0  0  0
 34 32  1  0  0  0  0
M  END
>  <MODEL>
8

>  <REMARK>
 VINA RESULT:      -6.4      2.337      7.585
  Name = 
  9 active torsions:
  status: ('A' for Active; 'I' for Inactive)
    1  A    between atoms: C_1  and  C_8
    2  A    between atoms: C_3  and  C_25
    3  A    between atoms: C_5  and  C_19
    4  A    between atoms: C_6  and  C_18
    5  A    between atoms: C_6  and  C_28
    6  A    between atoms: C_8  and  C_18
    7  A    between atoms: C_12  and  C_20
    8  A    between atoms: C_18  and  N_30
    9  A    between atoms: N_30  and  C_31
                            x       y       z     vdW  Elec       q    Type
                         _______ _______ _______ _____ _____    ______ ____

>  <TORSDO>
F 9

$$$$
=
 OpenBabel11052420363D

 34 38  0  0  1  0  0  0  0  0999 V2000
  192.0910  175.8080  145.3160 C   0  0  1  0  0  0  0  0  0  0  0  0
  195.0160  175.0740  143.2620 O   0  0  0  0  0  0  0  0  0  0  0  0
  192.8230  176.1900  142.9650 C   0  0  1  0  0  3  0  0  0  0  0  0
  192.3320  176.9070  146.1500 O   0  0  0  0  0  1  0  0  0  0  0  0
  191.6200  176.2630  143.9170 C   0  0  2  0  0  3  0  0  0  0  0  0
  197.3070  174.9290  143.8940 C   0  0  0  0  0  1  0  0  0  0  0  0
  195.8940  174.5020  144.2410 C   0  0  1  0  0  0  0  0  0  0  0  0
  195.6370  174.9580  145.7140 C   0  0  0  0  0  2  0  0  0  0  0  0
  194.0010  175.8440  143.8700 C   0  0  1  0  0  3  0  0  0  0  0  0
  194.2750  175.0000  146.1340 O   0  0  0  0  0  0  0  0  0  0  0  0
  193.3970  175.0870  145.0300 C   0  0  1  0  0  3  0  0  0  0  0  0
  195.8660  172.9610  144.1980 C   0  0  1  0  0  3  0  0  0  0  0  0
  195.1720  172.4010  143.0130 C   0  0  0  0  0  2  0  0  0  0  0  0
  196.5760  172.4850  143.0780 O   0  0  0  0  0  0  0  0  0  0  0  0
  191.7790  178.6650  143.7040 O   0  0  0  0  0  1  0  0  0  0  0  0
  190.8860  177.6070  143.8840 C   0  0  1  0  0  3  0  0  0  0  0  0
  189.8550  177.6150  142.7730 C   0  0  0  0  0  1  0  0  0  0  0  0
  192.5720  175.1480  141.9570 C   0  0  0  0  0  0  0  0  0  0  0  0
  192.3650  174.2960  141.1290 C   0  0  0  0  0  3  0  0  0  0  0  0
  191.0780  174.8780  145.9880 C   0  0  0  0  0  2  0  0  0  0  0  0
  189.6740  174.9980  145.4000 C   0  0  2  0  0  3  0  0  0  0  0  0
  188.7180  175.5310  146.4540 C   0  0  0  0  0  2  0  0  0  0  0  0
  185.9500  178.8020  145.7140 C   0  0  2  0  0  3  0  0  0  0  0  0
  184.5380  178.6120  145.1910 C   0  0  0  0  0  2  0  0  0  0  0  0
  186.4880  178.0100  144.5130 C   0  0  1  0  0  3  0  0  0  0  0  0
  184.8710  178.6090  142.7300 C   0  0  0  0  0  1  0  0  0  0  0  0
  187.0950  176.6610  144.9060 C   0  0  0  0  0  2  0  0  0  0  0  0
  185.0710  177.8180  144.0080 C   0  0  2  0  0  3  0  0  0  0  0  0
  187.5560  177.5970  147.2390 C   0  0  0  0  0  2  0  0  0  0  0  0
  188.1280  176.8610  146.0170 C   0  0  1  0  0  3  0  0  0  0  0  0
  186.1110  178.0640  147.0470 C   0  0  0  0  0  2  0  0  0  0  0  0
  189.2230  173.6930  144.9450 N   0  0  0  0  0  2  0  0  0  0  0  0
  190.0570  172.2740  143.1680 C   0  0  0  0  0  1  0  0  0  0  0  0
  189.4830  173.6310  143.5170 C   0  0  0  0  0  2  0  0  0  0  0  0
  1 20  1  0  0  0  0
  1  4  1  1  0  0  0
  2  7  1  0  0  0  0
  3 18  1  6  0  0  0
  3  9  1  0  0  0  0
  3  5  1  0  0  0  0
  5 16  1  1  0  0  0
  5  1  1  0  0  0  0
  7  6  1  6  0  0  0
  7  8  1  0  0  0  0
  8 10  1  0  0  0  0
  9  2  1  6  0  0  0
  9 11  1  0  0  0  0
 11  1  1  0  0  0  0
 11 10  1  1  0  0  0
 12 13  1  6  0  0  0
 12  7  1  0  0  0  0
 13 14  1  0  0  0  0
 14 12  1  0  0  0  0
 15 16  1  0  0  0  0
 16 17  1  6  0  0  0
 19 18  3  0  0  0  0
 21 20  1  1  0  0  0
 21 22  1  0  0  0  0
 23 24  1  6  0  0  0
 23 31  1  0  0  0  0
 25 27  1  1  0  0  0
 25 23  1  0  0  0  0
 27 30  1  0  0  0  0
 28 26  1  6  0  0  0
 28 25  1  0  0  0  0
 28 24  1  0  0  0  0
 30 22  1  1  0  0  0
 30 29  1  0  0  0  0
 31 29  1  0  0  0  0
 32 21  1  0  0  0  0
 33 34  1  0  0  0  0
 34 32  1  0  0  0  0
M  END
>  <MODEL>
9

>  <REMARK>
 VINA RESULT:      -6.4      1.934      3.076
  Name = 
  9 active torsions:
  status: ('A' for Active; 'I' for Inactive)
    1  A    between atoms: C_1  and  C_8
    2  A    between atoms: C_3  and  C_25
    3  A    between atoms: C_5  and  C_19
    4  A    between atoms: C_6  and  C_18
    5  A    between atoms: C_6  and  C_28
    6  A    between atoms: C_8  and  C_18
    7  A    between atoms: C_12  and  C_20
    8  A    between atoms: C_18  and  N_30
    9  A    between atoms: N_30  and  C_31
                            x       y       z     vdW  Elec       q    Type
                         _______ _______ _______ _____ _____    ______ ____

>  <TORSDO>
F 9

$$$$
