=
 OpenBabel11052421183D

 43 48  0  0  1  0  0  0  0  0999 V2000
  183.3920  178.6790  143.2290 C   0  0  0  0  0  0  0  0  0  0  0  0
  187.4110  176.9150  145.8930 C   0  0  2  0  0  3  0  0  0  0  0  0
  189.3310  177.6960  144.7360 C   0  0  1  0  0  3  0  0  0  0  0  0
  184.9480  178.1580  144.9680 C   0  0  0  0  0  0  0  0  0  0  0  0
  184.1700  177.9360  142.1820 C   0  0  0  0  0  2  0  0  0  0  0  0
  182.3310  179.2730  142.9080 O   0  0  0  0  0  0  0  0  0  0  0  0
  185.8550  177.5280  143.9760 C   0  0  0  0  0  0  0  0  0  0  0  0
  183.8180  178.6790  144.5960 N   0  0  0  0  0  0  0  0  0  0  0  0
  185.4980  177.4530  142.6920 C   0  0  0  0  0  3  0  0  0  0  0  0
  188.2360  177.8100  143.8470 O   0  0  0  0  0  0  0  0  0  0  0  0
  187.2100  177.0180  144.3870 C   0  0  1  0  0  3  0  0  0  0  0  0
  186.7990  178.1090  146.6250 C   0  0  0  0  0  2  0  0  0  0  0  0
  188.9020  176.9770  146.0160 C   0  0  2  0  0  3  0  0  0  0  0  0
  185.2910  178.1300  146.4240 C   0  0  0  0  0  2  0  0  0  0  0  0
  190.5320  177.1000  144.1270 N   0  0  0  0  0  0  0  0  0  0  0  0
  191.5660  178.1170  144.1670 C   0  0  0  0  0  1  0  0  0  0  0  0
  190.3270  176.7540  142.7190 C   0  0  0  0  0  2  0  0  0  0  0  0
  190.6380  175.2820  142.4550 C   0  0  1  0  0  3  0  0  0  0  0  0
  190.9550  174.6300  143.6470 O   0  0  0  0  0  1  0  0  0  0  0  0
  189.5020  174.5750  141.7740 C   0  0  0  0  0  3  0  0  0  0  0  0
  189.6580  173.6750  140.7950 C   0  0  0  0  0  0  0  0  0  0  0  0
  189.8760  171.9860  138.4420 C   0  0  0  0  0  2  0  0  0  0  0  0
  191.0280  173.2400  140.3260 C   0  0  2  0  0  3  0  0  0  0  0  0
  188.4380  172.9560  140.2910 C   0  0  0  0  0  2  0  0  0  0  0  0
  188.5300  172.6130  138.8020 C   0  0  1  0  0  3  0  0  0  0  0  0
  191.0410  172.8950  138.8350 C   0  0  0  0  0  2  0  0  0  0  0  0
  188.2320  173.8250  137.9390 C   0  0  0  0  0  1  0  0  0  0  0  0
  191.6000  172.1380  141.1730 C   0  0  0  0  0  0  0  0  0  0  0  0
  192.4680  170.3930  143.2700 C   0  0  0  0  0  2  0  0  0  0  0  0
  191.5470  169.8170  142.2050 C   0  0  0  0  0  2  0  0  0  0  0  0
  193.4830  171.3070  142.5960 C   0  0  0  0  0  2  0  0  0  0  0  0
  190.7480  170.9420  141.5460 C   0  0  0  0  0  2  0  0  0  0  0  0
  192.8090  172.3340  141.7250 C   0  0  0  0  0  3  0  0  0  0  0  0
  189.4120  175.6750  146.0700 O   0  0  0  0  0  0  0  0  0  0  0  0
  189.9640  175.5590  147.3470 C   0  0  0  0  0  2  0  0  0  0  0  0
  191.4030  176.0370  147.3290 C   0  0  0  0  0  2  0  0  0  0  0  0
  192.2960  174.9170  147.0980 N   0  0  0  0  0  2  0  0  0  0  0  0
  193.4130  175.4350  146.3300 C   0  0  0  0  0  2  0  0  0  0  0  0
  194.0810  174.3080  145.5510 C   0  0  1  0  0  3  0  0  0  0  0  0
  194.8920  174.8010  144.3480 C   0  0  2  0  0  3  0  0  0  0  0  0
  195.5890  174.4200  145.6400 C   0  0  0  0  0  2  0  0  0  0  0  0
  196.1140  176.5160  143.6740 C   0  0  0  0  0  1  0  0  0  0  0  0
  194.8750  176.1940  144.2260 O   0  0  0  0  0  0  0  0  0  0  0  0
  1  8  1  0  0  0  0
  2 13  1  0  0  0  0
  2 12  1  1  0  0  0
  3 15  1  6  0  0  0
  3 13  1  0  0  0  0
  4 14  1  0  0  0  0
  5  9  1  0  0  0  0
  5  1  1  0  0  0  0
  6  1  2  0  0  0  0
  7 11  1  0  0  0  0
  7  4  1  0  0  0  0
  8  4  2  0  0  0  0
  9  7  2  0  0  0  0
 10  3  1  0  0  0  0
 11 10  1  1  0  0  0
 11  2  1  0  0  0  0
 13 34  1  6  0  0  0
 14 12  1  0  0  0  0
 15 16  1  0  0  0  0
 17 15  1  0  0  0  0
 18 17  1  0  0  0  0
 18 19  1  1  0  0  0
 20 18  1  0  0  0  0
 21 20  2  0  0  0  0
 22 25  1  0  0  0  0
 22 26  1  0  0  0  0
 23 21  1  0  0  0  0
 23 28  1  1  0  0  0
 24 21  1  0  0  0  0
 25 27  1  6  0  0  0
 25 24  1  0  0  0  0
 26 23  1  0  0  0  0
 28 32  1  0  0  0  0
 28 33  2  0  0  0  0
 30 29  1  0  0  0  0
 31 29  1  0  0  0  0
 32 30  1  0  0  0  0
 33 31  1  0  0  0  0
 34 35  1  0  0  0  0
 36 35  1  0  0  0  0
 37 36  1  0  0  0  0
 38 37  1  0  0  0  0
 39 41  1  0  0  0  0
 39 38  1  1  0  0  0
 40 43  1  1  0  0  0
 40 39  1  0  0  0  0
 40 41  1  0  0  0  0
 42 43  1  0  0  0  0
M  END
>  <MODEL>
1

>  <REMARK>
 VINA RESULT:      -6.9      0.000      0.000
  Name = 
  12 active torsions:
  status: ('A' for Active; 'I' for Inactive)
    1  A    between atoms: C_1  and  C_35
    2  A    between atoms: C_1  and  O_38
    3  A    between atoms: N_2  and  C_6
    4  A    between atoms: N_2  and  C_13
    5  A    between atoms: C_3  and  C_12
    6  A    between atoms: C_6  and  C_12
    7  A    between atoms: C_9  and  C_19
    8  A    between atoms: C_9  and  N_32
    9  A    between atoms: C_11  and  C_14
   10  A    between atoms: C_25  and  O_39
   11  A    between atoms: N_32  and  C_35
   12  A    between atoms: C_34  and  O_38
                            x       y       z     vdW  Elec       q    Type
                         _______ _______ _______ _____ _____    ______ ____

>  <TORSDO>
F 12

$$$$
=
 OpenBabel11052421183D

 43 48  0  0  1  0  0  0  0  0999 V2000
  189.7270  172.2010  138.5640 C   0  0  0  0  0  0  0  0  0  0  0  0
  192.1530  172.0280  143.0860 C   0  0  2  0  0  3  0  0  0  0  0  0
  190.7210  173.1400  144.6170 C   0  0  1  0  0  3  0  0  0  0  0  0
  190.8700  171.4730  140.5330 C   0  0  0  0  0  0  0  0  0  0  0  0
  189.7850  173.6500  138.9530 C   0  0  0  0  0  2  0  0  0  0  0  0
  189.1610  171.8690  137.4910 O   0  0  0  0  0  0  0  0  0  0  0  0
  190.8430  172.8570  141.0690 C   0  0  0  0  0  0  0  0  0  0  0  0
  190.3500  171.1990  139.3750 N   0  0  0  0  0  0  0  0  0  0  0  0
  190.3190  173.8480  140.3430 C   0  0  0  0  0  3  0  0  0  0  0  0
  190.2990  173.5020  143.3160 O   0  0  0  0  0  0  0  0  0  0  0  0
  191.3510  173.1570  142.4540 C   0  0  1  0  0  3  0  0  0  0  0  0
  191.5340  170.6630  142.7870 C   0  0  0  0  0  2  0  0  0  0  0  0
  192.0100  172.3200  144.5480 C   0  0  2  0  0  3  0  0  0  0  0  0
  191.5680  170.3870  141.2910 C   0  0  0  0  0  2  0  0  0  0  0  0
  190.8220  174.2780  145.5480 N   0  0  0  0  0  0  0  0  0  0  0  0
  189.5400  174.3780  146.2210 C   0  0  0  0  0  1  0  0  0  0  0  0
  191.0390  175.5470  144.8520 C   0  0  0  0  0  2  0  0  0  0  0  0
  189.9700  176.5740  145.2160 C   0  0  1  0  0  3  0  0  0  0  0  0
  190.4370  177.4310  146.2130 O   0  0  0  0  0  1  0  0  0  0  0  0
  189.5220  177.3740  144.0270 C   0  0  0  0  0  3  0  0  0  0  0  0
  188.2680  177.3780  143.5560 C   0  0  0  0  0  0  0  0  0  0  0  0
  185.6770  177.1810  142.2570 C   0  0  0  0  0  2  0  0  0  0  0  0
  187.1600  176.6090  144.2380 C   0  0  2  0  0  3  0  0  0  0  0  0
  187.9350  178.3210  142.4340 C   0  0  0  0  0  2  0  0  0  0  0  0
  186.8660  177.7610  141.4920 C   0  0  1  0  0  3  0  0  0  0  0  0
  186.1180  176.0960  143.2400 C   0  0  0  0  0  2  0  0  0  0  0  0
  187.4570  176.7470  140.5300 C   0  0  0  0  0  1  0  0  0  0  0  0
  186.5370  177.3800  145.3670 C   0  0  0  0  0  0  0  0  0  0  0  0
  184.8210  178.5360  147.3460 C   0  0  0  0  0  2  0  0  0  0  0  0
  186.0660  177.8040  147.8280 C   0  0  0  0  0  2  0  0  0  0  0  0
  185.1810  179.3480  146.1080 C   0  0  0  0  0  2  0  0  0  0  0  0
  186.5200  176.8000  146.7680 C   0  0  0  0  0  2  0  0  0  0  0  0
  185.8520  178.4950  145.0640 C   0  0  0  0  0  3  0  0  0  0  0  0
  193.1150  173.0640  144.9760 O   0  0  0  0  0  0  0  0  0  0  0  0
  194.0820  172.1130  145.3050 C   0  0  0  0  0  2  0  0  0  0  0  0
  195.4550  172.7560  145.3070 C   0  0  0  0  0  2  0  0  0  0  0  0
  196.0090  172.7510  143.9660 N   0  0  0  0  0  2  0  0  0  0  0  0
  196.3910  174.1190  143.6740 C   0  0  0  0  0  2  0  0  0  0  0  0
  195.2800  174.8200  142.9010 C   0  0  1  0  0  3  0  0  0  0  0  0
  194.7490  176.0730  143.6050 C   0  0  2  0  0  3  0  0  0  0  0  0
  195.7280  176.1960  142.4540 C   0  0  0  0  0  2  0  0  0  0  0  0
  194.4200  176.7870  145.6720 C   0  0  0  0  0  1  0  0  0  0  0  0
  195.4150  176.3330  144.8070 O   0  0  0  0  0  0  0  0  0  0  0  0
  1  5  1  0  0  0  0
  1  8  1  0  0  0  0
  2 12  1  1  0  0  0
  2 13  1  0  0  0  0
  3 15  1  1  0  0  0
  4  7  1  0  0  0  0
  4 14  1  0  0  0  0
  5  9  1  0  0  0  0
  6  1  2  0  0  0  0
  8  4  2  0  0  0  0
  9  7  2  0  0  0  0
 10  3  1  0  0  0  0
 11  7  1  6  0  0  0
 11  2  1  0  0  0  0
 11 10  1  0  0  0  0
 13  3  1  0  0  0  0
 13 34  1  6  0  0  0
 14 12  1  0  0  0  0
 15 16  1  0  0  0  0
 17 18  1  0  0  0  0
 17 15  1  0  0  0  0
 18 19  1  1  0  0  0
 20 18  1  0  0  0  0
 21 20  2  0  0  0  0
 21 23  1  0  0  0  0
 22 26  1  0  0  0  0
 23 28  1  1  0  0  0
 24 21  1  0  0  0  0
 25 27  1  1  0  0  0
 25 22  1  0  0  0  0
 25 24  1  0  0  0  0
 26 23  1  0  0  0  0
 28 32  1  0  0  0  0
 29 30  1  0  0  0  0
 31 29  1  0  0  0  0
 32 30  1  0  0  0  0
 33 28  2  0  0  0  0
 33 31  1  0  0  0  0
 34 35  1  0  0  0  0
 35 36  1  0  0  0  0
 37 36  1  0  0  0  0
 38 37  1  0  0  0  0
 39 40  1  0  0  0  0
 39 38  1  1  0  0  0
 40 43  1  1  0  0  0
 41 39  1  0  0  0  0
 41 40  1  0  0  0  0
 43 42  1  0  0  0  0
M  END
>  <MODEL>
2

>  <REMARK>
 VINA RESULT:      -6.9      2.483      7.103
  Name = 
  12 active torsions:
  status: ('A' for Active; 'I' for Inactive)
    1  A    between atoms: C_1  and  C_35
    2  A    between atoms: C_1  and  O_38
    3  A    between atoms: N_2  and  C_6
    4  A    between atoms: N_2  and  C_13
    5  A    between atoms: C_3  and  C_12
    6  A    between atoms: C_6  and  C_12
    7  A    between atoms: C_9  and  C_19
    8  A    between atoms: C_9  and  N_32
    9  A    between atoms: C_11  and  C_14
   10  A    between atoms: C_25  and  O_39
   11  A    between atoms: N_32  and  C_35
   12  A    between atoms: C_34  and  O_38
                            x       y       z     vdW  Elec       q    Type
                         _______ _______ _______ _____ _____    ______ ____

>  <TORSDO>
F 12

$$$$
=
 OpenBabel11052421183D

 43 48  0  0  1  0  0  0  0  0999 V2000
  190.4060  170.3510  139.4010 C   0  0  0  0  0  0  0  0  0  0  0  0
  188.4020  174.5900  141.4920 C   0  0  2  0  0  3  0  0  0  0  0  0
  190.2380  175.7580  142.4400 C   0  0  1  0  0  3  0  0  0  0  0  0
  189.2250  172.3970  139.7650 C   0  0  0  0  0  0  0  0  0  0  0  0
  190.8850  170.2650  140.8210 C   0  0  0  0  0  2  0  0  0  0  0  0
  190.7420  169.4600  138.5780 O   0  0  0  0  0  0  0  0  0  0  0  0
  189.7710  172.4740  141.1430 C   0  0  0  0  0  0  0  0  0  0  0  0
  189.5330  171.4070  138.9830 N   0  0  0  0  0  0  0  0  0  0  0  0
  190.5540  171.4990  141.6110 C   0  0  0  0  0  3  0  0  0  0  0  0
  190.6660  174.4290  142.2110 O   0  0  0  0  0  0  0  0  0  0  0  0
  189.5000  173.6730  142.0130 C   0  0  1  0  0  3  0  0  0  0  0  0
  188.4840  174.7600  139.9750 C   0  0  0  0  0  2  0  0  0  0  0  0
  188.7430  175.8920  142.1490 C   0  0  2  0  0  3  0  0  0  0  0  0
  188.2490  173.4250  139.2850 C   0  0  0  0  0  2  0  0  0  0  0  0
  190.6070  176.2820  143.7660 N   0  0  0  0  0  0  0  0  0  0  0  0
  191.8120  177.0700  143.5810 C   0  0  0  0  0  1  0  0  0  0  0  0
  190.9340  175.2150  144.7130 C   0  0  0  0  0  2  0  0  0  0  0  0
  192.3460  175.3780  145.2720 C   0  0  1  0  0  3  0  0  0  0  0  0
  192.3280  176.1780  146.4150 O   0  0  0  0  0  1  0  0  0  0  0  0
  192.9890  174.0580  145.5850 C   0  0  0  0  0  3  0  0  0  0  0  0
  193.6330  173.3050  144.6830 C   0  0  0  0  0  0  0  0  0  0  0  0
  194.7370  171.4520  142.7380 C   0  0  0  0  0  2  0  0  0  0  0  0
  193.8260  173.7650  143.2560 C   0  0  2  0  0  3  0  0  0  0  0  0
  194.3340  172.0660  145.1640 C   0  0  0  0  0  2  0  0  0  0  0  0
  194.3310  170.9460  144.1220 C   0  0  1  0  0  3  0  0  0  0  0  0
  193.8330  172.5930  142.2710 C   0  0  0  0  0  2  0  0  0  0  0  0
  192.9920  170.2330  144.0820 C   0  0  0  0  0  1  0  0  0  0  0  0
  195.0290  174.6520  143.0970 C   0  0  0  0  0  0  0  0  0  0  0  0
  196.9860  176.7400  143.1650 C   0  0  0  0  0  2  0  0  0  0  0  0
  197.4070  175.3590  143.6460 C   0  0  0  0  0  2  0  0  0  0  0  0
  196.1110  176.5810  141.9280 C   0  0  0  0  0  2  0  0  0  0  0  0
  196.1760  174.5650  144.0840 C   0  0  0  0  0  2  0  0  0  0  0  0
  194.9730  175.6270  142.1750 C   0  0  0  0  0  3  0  0  0  0  0  0
  188.0000  176.0180  143.3280 O   0  0  0  0  0  0  0  0  0  0  0  0
  187.1750  177.1240  143.1150 C   0  0  0  0  0  2  0  0  0  0  0  0
  185.7210  176.7000  143.1830 C   0  0  0  0  0  2  0  0  0  0  0  0
  184.8910  177.8280  143.5640 N   0  0  0  0  0  2  0  0  0  0  0  0
  185.4380  178.3390  144.8060 C   0  0  0  0  0  2  0  0  0  0  0  0
  184.8200  177.6070  145.9910 C   0  0  1  0  0  3  0  0  0  0  0  0
  185.8610  177.0420  146.9640 C   0  0  2  0  0  3  0  0  0  0  0  0
  185.1300  178.3310  147.2850 C   0  0  0  0  0  2  0  0  0  0  0  0
  187.8950  176.1810  146.8580 C   0  0  0  0  0  1  0  0  0  0  0  0
  187.1710  177.3390  146.5760 O   0  0  0  0  0  0  0  0  0  0  0  0
  1  5  1  0  0  0  0
  2 12  1  6  0  0  0
  2 11  1  0  0  0  0
  2 13  1  0  0  0  0
  3 15  1  1  0  0  0
  4  7  1  0  0  0  0
  5  9  1  0  0  0  0
  6  1  2  0  0  0  0
  7  9  2  0  0  0  0
  8  1  1  0  0  0  0
  8  4  2  0  0  0  0
 10  3  1  0  0  0  0
 11  7  1  6  0  0  0
 11 10  1  0  0  0  0
 13  3  1  0  0  0  0
 13 34  1  1  0  0  0
 14  4  1  0  0  0  0
 14 12  1  0  0  0  0
 15 17  1  0  0  0  0
 16 15  1  0  0  0  0
 17 18  1  0  0  0  0
 18 20  1  0  0  0  0
 18 19  1  1  0  0  0
 21 24  1  0  0  0  0
 21 20  2  0  0  0  0
 22 25  1  0  0  0  0
 23 28  1  1  0  0  0
 23 21  1  0  0  0  0
 25 27  1  6  0  0  0
 25 24  1  0  0  0  0
 26 22  1  0  0  0  0
 26 23  1  0  0  0  0
 28 32  1  0  0  0  0
 29 30  1  0  0  0  0
 30 32  1  0  0  0  0
 31 33  1  0  0  0  0
 31 29  1  0  0  0  0
 33 28  2  0  0  0  0
 35 36  1  0  0  0  0
 35 34  1  0  0  0  0
 36 37  1  0  0  0  0
 37 38  1  0  0  0  0
 39 38  1  6  0  0  0
 39 40  1  0  0  0  0
 39 41  1  0  0  0  0
 40 43  1  6  0  0  0
 40 41  1  0  0  0  0
 43 42  1  0  0  0  0
M  END
>  <MODEL>
3

>  <REMARK>
 VINA RESULT:      -6.7      2.192      7.282
  Name = 
  12 active torsions:
  status: ('A' for Active; 'I' for Inactive)
    1  A    between atoms: C_1  and  C_35
    2  A    between atoms: C_1  and  O_38
    3  A    between atoms: N_2  and  C_6
    4  A    between atoms: N_2  and  C_13
    5  A    between atoms: C_3  and  C_12
    6  A    between atoms: C_6  and  C_12
    7  A    between atoms: C_9  and  C_19
    8  A    between atoms: C_9  and  N_32
    9  A    between atoms: C_11  and  C_14
   10  A    between atoms: C_25  and  O_39
   11  A    between atoms: N_32  and  C_35
   12  A    between atoms: C_34  and  O_38
                            x       y       z     vdW  Elec       q    Type
                         _______ _______ _______ _____ _____    ______ ____

>  <TORSDO>
F 12

$$$$
=
 OpenBabel11052421183D

 43 48  0  0  1  0  0  0  0  0999 V2000
  185.9710  178.9090  143.7190 C   0  0  0  0  0  0  0  0  0  0  0  0
  189.1140  175.3810  145.7270 C   0  0  2  0  0  3  0  0  0  0  0  0
  191.3010  176.2750  145.4980 C   0  0  1  0  0  3  0  0  0  0  0  0
  187.0280  177.3320  145.1720 C   0  0  0  0  0  0  0  0  0  0  0  0
  186.9290  178.6540  142.5920 C   0  0  0  0  0  2  0  0  0  0  0  0
  185.0570  179.7610  143.5760 O   0  0  0  0  0  0  0  0  0  0  0  0
  188.1050  177.1240  144.1730 C   0  0  0  0  0  0  0  0  0  0  0  0
  186.0550  178.1590  144.9370 N   0  0  0  0  0  0  0  0  0  0  0  0
  188.0630  177.7560  142.9980 C   0  0  0  0  0  3  0  0  0  0  0  0
  190.4610  177.0050  144.6240 O   0  0  0  0  0  0  0  0  0  0  0  0
  189.2880  176.2460  144.4860 C   0  0  1  0  0  3  0  0  0  0  0  0
  188.4210  176.1450  146.8540 C   0  0  0  0  0  2  0  0  0  0  0  0
  190.5340  175.1090  146.1210 C   0  0  2  0  0  3  0  0  0  0  0  0
  187.0100  176.5300  146.4360 C   0  0  0  0  0  2  0  0  0  0  0  0
  192.5740  175.8550  144.8870 N   0  0  0  0  0  0  0  0  0  0  0  0
  193.6120  176.6730  145.4860 C   0  0  0  0  0  1  0  0  0  0  0  0
  192.6080  176.1090  143.4450 C   0  0  0  0  0  2  0  0  0  0  0  0
  193.0830  174.8810  142.6730 C   0  0  1  0  0  3  0  0  0  0  0  0
  192.8730  175.0550  141.3040 O   0  0  0  0  0  1  0  0  0  0  0  0
  194.5300  174.5720  142.9300 C   0  0  0  0  0  3  0  0  0  0  0  0
  194.9550  173.5340  143.6610 C   0  0  0  0  0  0  0  0  0  0  0  0
  195.9600  171.5280  145.5060 C   0  0  0  0  0  2  0  0  0  0  0  0
  193.9940  172.5260  144.2470 C   0  0  2  0  0  3  0  0  0  0  0  0
  196.4350  173.2760  143.7320 C   0  0  0  0  0  2  0  0  0  0  0  0
  196.8650  172.6820  145.0760 C   0  0  1  0  0  3  0  0  0  0  0  0
  194.4950  171.9600  145.5780 C   0  0  0  0  0  2  0  0  0  0  0  0
  196.9490  173.7520  146.1490 C   0  0  0  0  0  1  0  0  0  0  0  0
  193.6280  171.4450  143.2690 C   0  0  0  0  0  0  0  0  0  0  0  0
  192.3840  169.7160  141.3550 C   0  0  0  0  0  2  0  0  0  0  0  0
  193.7270  170.3300  140.9880 C   0  0  0  0  0  2  0  0  0  0  0  0
  192.4230  169.2990  142.8200 C   0  0  0  0  0  2  0  0  0  0  0  0
  193.9520  171.6080  141.7970 C   0  0  0  0  0  2  0  0  0  0  0  0
  192.8590  170.4350  143.7070 C   0  0  0  0  0  3  0  0  0  0  0  0
  190.9330  173.8830  145.5770 O   0  0  0  0  0  0  0  0  0  0  0  0
  189.7690  173.1150  145.5310 C   0  0  0  0  0  2  0  0  0  0  0  0
  189.7740  172.2500  144.2850 C   0  0  0  0  0  2  0  0  0  0  0  0
  190.3470  172.9840  143.1720 N   0  0  0  0  0  2  0  0  0  0  0  0
  189.3470  172.9840  142.1210 C   0  0  0  0  0  2  0  0  0  0  0  0
  189.7860  172.0740  140.9800 C   0  0  1  0  0  3  0  0  0  0  0  0
  189.1420  172.4330  139.6370 C   0  0  2  0  0  3  0  0  0  0  0  0
  190.5650  172.8580  139.9440 C   0  0  0  0  0  2  0  0  0  0  0  0
  188.2880  174.0880  138.4450 C   0  0  0  0  0  1  0  0  0  0  0  0
  188.2980  173.5440  139.7290 O   0  0  0  0  0  0  0  0  0  0  0  0
  1  8  1  0  0  0  0
  2 13  1  0  0  0  0
  2 12  1  1  0  0  0
  3 15  1  6  0  0  0
  3 13  1  0  0  0  0
  4 14  1  0  0  0  0
  5  9  1  0  0  0  0
  5  1  1  0  0  0  0
  6  1  2  0  0  0  0
  7  4  1  0  0  0  0
  8  4  2  0  0  0  0
  9  7  2  0  0  0  0
 10  3  1  0  0  0  0
 11  7  1  1  0  0  0
 11 10  1  0  0  0  0
 11  2  1  0  0  0  0
 13 34  1  6  0  0  0
 14 12  1  0  0  0  0
 15 16  1  0  0  0  0
 17 15  1  0  0  0  0
 18 19  1  6  0  0  0
 18 20  1  0  0  0  0
 18 17  1  0  0  0  0
 20 21  2  0  0  0  0
 21 24  1  0  0  0  0
 21 23  1  0  0  0  0
 22 26  1  0  0  0  0
 23 28  1  6  0  0  0
 23 26  1  0  0  0  0
 24 25  1  0  0  0  0
 25 22  1  0  0  0  0
 25 27  1  1  0  0  0
 28 33  2  0  0  0  0
 29 31  1  0  0  0  0
 30 29  1  0  0  0  0
 30 32  1  0  0  0  0
 31 33  1  0  0  0  0
 32 28  1  0  0  0  0
 35 34  1  0  0  0  0
 36 35  1  0  0  0  0
 37 36  1  0  0  0  0
 38 37  1  0  0  0  0
 39 38  1  1  0  0  0
 40 43  1  1  0  0  0
 40 41  1  0  0  0  0
 40 39  1  0  0  0  0
 41 39  1  0  0  0  0
 42 43  1  0  0  0  0
M  END
>  <MODEL>
4

>  <REMARK>
 VINA RESULT:      -6.7      2.081      5.198
  Name = 
  12 active torsions:
  status: ('A' for Active; 'I' for Inactive)
    1  A    between atoms: C_1  and  C_35
    2  A    between atoms: C_1  and  O_38
    3  A    between atoms: N_2  and  C_6
    4  A    between atoms: N_2  and  C_13
    5  A    between atoms: C_3  and  C_12
    6  A    between atoms: C_6  and  C_12
    7  A    between atoms: C_9  and  C_19
    8  A    between atoms: C_9  and  N_32
    9  A    between atoms: C_11  and  C_14
   10  A    between atoms: C_25  and  O_39
   11  A    between atoms: N_32  and  C_35
   12  A    between atoms: C_34  and  O_38
                            x       y       z     vdW  Elec       q    Type
                         _______ _______ _______ _____ _____    ______ ____

>  <TORSDO>
F 12

$$$$
=
 OpenBabel11052421183D

 43 48  0  0  1  0  0  0  0  0999 V2000
  187.6070  177.2280  145.5680 C   0  0  0  0  0  0  0  0  0  0  0  0
  192.5880  176.8460  144.3820 C   0  0  2  0  0  3  0  0  0  0  0  0
  192.9050  174.5970  143.6930 C   0  0  1  0  0  3  0  0  0  0  0  0
  189.7800  177.5690  144.6310 C   0  0  0  0  0  0  0  0  0  0  0  0
  188.0550  176.0830  146.4290 C   0  0  0  0  0  2  0  0  0  0  0  0
  186.4010  177.5860  145.5890 O   0  0  0  0  0  0  0  0  0  0  0  0
  190.2790  176.3590  145.3310 C   0  0  0  0  0  0  0  0  0  0  0  0
  188.5450  177.9480  144.7590 N   0  0  0  0  0  0  0  0  0  0  0  0
  189.4690  175.6680  146.1370 C   0  0  0  0  0  3  0  0  0  0  0  0
  191.6760  174.6470  144.3920 O   0  0  0  0  0  0  0  0  0  0  0  0
  191.6800  175.8590  145.1010 C   0  0  1  0  0  3  0  0  0  0  0  0
  191.8510  177.5710  143.2560 C   0  0  0  0  0  2  0  0  0  0  0  0
  193.6240  175.9440  143.7860 C   0  0  2  0  0  3  0  0  0  0  0  0
  190.7190  178.4130  143.8280 C   0  0  0  0  0  2  0  0  0  0  0  0
  193.7660  173.4670  144.0830 N   0  0  0  0  0  0  0  0  0  0  0  0
  194.3160  172.9210  142.8560 C   0  0  0  0  0  1  0  0  0  0  0  0
  193.0110  172.3910  144.7280 C   0  0  0  0  0  2  0  0  0  0  0  0
  192.3480  171.4790  143.6990 C   0  0  1  0  0  3  0  0  0  0  0  0
  192.6240  170.1410  143.9850 O   0  0  0  0  0  1  0  0  0  0  0  0
  190.8630  171.6870  143.6280 C   0  0  0  0  0  3  0  0  0  0  0  0
  190.2240  172.1610  142.5510 C   0  0  0  0  0  0  0  0  0  0  0  0
  188.7990  173.5020  140.4030 C   0  0  0  0  0  2  0  0  0  0  0  0
  190.9550  172.4720  141.2650 C   0  0  2  0  0  3  0  0  0  0  0  0
  188.7210  172.2010  142.5780 C   0  0  0  0  0  2  0  0  0  0  0  0
  188.1500  173.3760  141.7810 C   0  0  1  0  0  3  0  0  0  0  0  0
  190.3190  173.6420  140.5110 C   0  0  0  0  0  2  0  0  0  0  0  0
  188.2480  174.6730  142.5620 C   0  0  0  0  0  1  0  0  0  0  0  0
  191.1270  171.2580  140.3950 C   0  0  0  0  0  0  0  0  0  0  0  0
  192.0200  168.9000  139.0390 C   0  0  0  0  0  2  0  0  0  0  0  0
  190.7010  168.8270  139.7940 C   0  0  0  0  0  2  0  0  0  0  0  0
  192.1000  170.2430  138.3250 C   0  0  0  0  0  2  0  0  0  0  0  0
  190.6660  169.8990  140.8830 C   0  0  0  0  0  2  0  0  0  0  0  0
  191.8530  171.3880  139.2720 C   0  0  0  0  0  3  0  0  0  0  0  0
  194.7250  175.8790  144.6470 O   0  0  0  0  0  0  0  0  0  0  0  0
  195.8070  176.3100  143.8770 C   0  0  0  0  0  2  0  0  0  0  0  0
  196.9610  175.3380  144.0250 C   0  0  0  0  0  2  0  0  0  0  0  0
  197.9170  175.5340  142.9510 N   0  0  0  0  0  2  0  0  0  0  0  0
  197.1490  175.9230  141.7830 C   0  0  0  0  0  2  0  0  0  0  0  0
  197.3590  174.9160  140.6580 C   0  0  1  0  0  3  0  0  0  0  0  0
  196.0920  174.6560  139.8350 C   0  0  2  0  0  3  0  0  0  0  0  0
  197.1730  175.5800  139.3090 C   0  0  0  0  0  2  0  0  0  0  0  0
  193.8890  174.7970  139.7110 C   0  0  0  0  0  1  0  0  0  0  0  0
  195.0050  175.4190  140.2710 O   0  0  0  0  0  0  0  0  0  0  0  0
  1  6  2  0  0  0  0
  1  5  1  0  0  0  0
  2 12  1  6  0  0  0
  2 11  1  0  0  0  0
  3 13  1  0  0  0  0
  3 15  1  1  0  0  0
  3 10  1  0  0  0  0
  4  8  2  0  0  0  0
  4  7  1  0  0  0  0
  7  9  2  0  0  0  0
  8  1  1  0  0  0  0
  9  5  1  0  0  0  0
 11 10  1  6  0  0  0
 11  7  1  0  0  0  0
 12 14  1  0  0  0  0
 13  2  1  0  0  0  0
 13 34  1  1  0  0  0
 14  4  1  0  0  0  0
 15 17  1  0  0  0  0
 16 15  1  0  0  0  0
 18 19  1  1  0  0  0
 18 17  1  0  0  0  0
 20 18  1  0  0  0  0
 21 24  1  0  0  0  0
 21 20  2  0  0  0  0
 22 26  1  0  0  0  0
 22 25  1  0  0  0  0
 23 28  1  6  0  0  0
 23 21  1  0  0  0  0
 25 27  1  1  0  0  0
 25 24  1  0  0  0  0
 26 23  1  0  0  0  0
 28 32  1  0  0  0  0
 29 30  1  0  0  0  0
 30 32  1  0  0  0  0
 31 29  1  0  0  0  0
 31 33  1  0  0  0  0
 33 28  2  0  0  0  0
 35 36  1  0  0  0  0
 35 34  1  0  0  0  0
 37 36  1  0  0  0  0
 38 37  1  0  0  0  0
 39 38  1  1  0  0  0
 40 43  1  1  0  0  0
 40 39  1  0  0  0  0
 41 40  1  0  0  0  0
 41 39  1  0  0  0  0
 42 43  1  0  0  0  0
M  END
>  <MODEL>
5

>  <REMARK>
 VINA RESULT:      -6.5      2.512      4.806
  Name = 
  12 active torsions:
  status: ('A' for Active; 'I' for Inactive)
    1  A    between atoms: C_1  and  C_35
    2  A    between atoms: C_1  and  O_38
    3  A    between atoms: N_2  and  C_6
    4  A    between atoms: N_2  and  C_13
    5  A    between atoms: C_3  and  C_12
    6  A    between atoms: C_6  and  C_12
    7  A    between atoms: C_9  and  C_19
    8  A    between atoms: C_9  and  N_32
    9  A    between atoms: C_11  and  C_14
   10  A    between atoms: C_25  and  O_39
   11  A    between atoms: N_32  and  C_35
   12  A    between atoms: C_34  and  O_38
                            x       y       z     vdW  Elec       q    Type
                         _______ _______ _______ _____ _____    ______ ____

>  <TORSDO>
F 12

$$$$
=
 OpenBabel11052421183D

 43 48  0  0  1  0  0  0  0  0999 V2000
  195.7740  169.4520  146.1580 C   0  0  0  0  0  0  0  0  0  0  0  0
  196.4300  174.0880  144.0520 C   0  0  2  0  0  3  0  0  0  0  0  0
  195.3180  175.6050  145.4990 C   0  0  1  0  0  3  0  0  0  0  0  0
  196.7160  171.4300  145.2010 C   0  0  0  0  0  0  0  0  0  0  0  0
  194.3630  169.9460  146.0220 C   0  0  0  0  0  2  0  0  0  0  0  0
  195.9900  168.3250  146.6730 O   0  0  0  0  0  0  0  0  0  0  0  0
  195.3720  172.0600  145.1640 C   0  0  0  0  0  0  0  0  0  0  0  0
  196.8720  170.2260  145.6620 N   0  0  0  0  0  0  0  0  0  0  0  0
  194.2990  171.3760  145.5680 C   0  0  0  0  0  3  0  0  0  0  0  0
  194.8390  174.3100  145.8080 O   0  0  0  0  0  0  0  0  0  0  0  0
  195.2040  173.4910  144.7280 C   0  0  1  0  0  3  0  0  0  0  0  0
  197.7220  173.6560  144.7450 C   0  0  0  0  0  2  0  0  0  0  0  0
  196.2260  175.5560  144.2690 C   0  0  2  0  0  3  0  0  0  0  0  0
  197.8990  172.1490  144.6320 C   0  0  0  0  0  2  0  0  0  0  0  0
  194.2560  176.6190  145.3790 N   0  0  0  0  0  0  0  0  0  0  0  0
  194.8090  177.8620  145.8840 C   0  0  0  0  0  1  0  0  0  0  0  0
  193.0900  176.3030  146.2060 C   0  0  0  0  0  2  0  0  0  0  0  0
  191.8460  176.0680  145.3520 C   0  0  1  0  0  3  0  0  0  0  0  0
  192.0430  174.9860  144.4930 O   0  0  0  0  0  1  0  0  0  0  0  0
  190.6190  175.8390  146.1870 C   0  0  0  0  0  3  0  0  0  0  0  0
  189.3690  176.0570  145.7570 C   0  0  0  0  0  0  0  0  0  0  0  0
  186.6620  176.8280  145.0410 C   0  0  0  0  0  2  0  0  0  0  0  0
  189.0810  176.5010  144.3410 C   0  0  2  0  0  3  0  0  0  0  0  0
  188.2310  175.6670  146.6580 C   0  0  0  0  0  2  0  0  0  0  0  0
  187.0190  176.5880  146.5080 C   0  0  1  0  0  3  0  0  0  0  0  0
  187.8460  177.4030  144.2620 C   0  0  0  0  0  2  0  0  0  0  0  0
  187.2240  177.8960  147.2510 C   0  0  0  0  0  1  0  0  0  0  0  0
  189.0090  175.3470  143.3810 C   0  0  0  0  0  0  0  0  0  0  0  0
  189.4960  173.2620  141.4810 C   0  0  0  0  0  2  0  0  0  0  0  0
  188.9010  172.8710  142.8250 C   0  0  0  0  0  2  0  0  0  0  0  0
  188.8390  174.5550  141.0140 C   0  0  0  0  0  2  0  0  0  0  0  0
  189.2400  173.9320  143.8720 C   0  0  0  0  0  2  0  0  0  0  0  0
  188.9130  175.6260  142.0710 C   0  0  0  0  0  3  0  0  0  0  0  0
  195.5970  176.1020  143.1450 O   0  0  0  0  0  0  0  0  0  0  0  0
  196.6290  176.6770  142.4020 C   0  0  0  0  0  2  0  0  0  0  0  0
  196.7530  175.9720  141.0650 C   0  0  0  0  0  2  0  0  0  0  0  0
  195.4930  176.0390  140.3480 N   0  0  0  0  0  2  0  0  0  0  0  0
  195.1150  174.6700  140.0540 C   0  0  0  0  0  2  0  0  0  0  0  0
  193.5970  174.5400  140.0270 C   0  0  1  0  0  3  0  0  0  0  0  0
  193.1030  173.1360  140.3960 C   0  0  2  0  0  3  0  0  0  0  0  0
  193.0620  174.2580  141.4170 C   0  0  0  0  0  2  0  0  0  0  0  0
  193.5760  170.9960  140.6840 C   0  0  0  0  0  1  0  0  0  0  0  0
  194.1510  172.2660  140.7090 O   0  0  0  0  0  0  0  0  0  0  0  0
  1  6  2  0  0  0  0
  2 13  1  0  0  0  0
  2 11  1  0  0  0  0
  2 12  1  1  0  0  0
  3 15  1  6  0  0  0
  3 10  1  0  0  0  0
  4  8  2  0  0  0  0
  5  1  1  0  0  0  0
  7  4  1  0  0  0  0
  7  9  2  0  0  0  0
  8  1  1  0  0  0  0
  9  5  1  0  0  0  0
 11  7  1  1  0  0  0
 11 10  1  0  0  0  0
 13 34  1  6  0  0  0
 13  3  1  0  0  0  0
 14 12  1  0  0  0  0
 14  4  1  0  0  0  0
 15 16  1  0  0  0  0
 15 17  1  0  0  0  0
 18 19  1  1  0  0  0
 18 20  1  0  0  0  0
 18 17  1  0  0  0  0
 21 20  2  0  0  0  0
 21 24  1  0  0  0  0
 22 25  1  0  0  0  0
 23 28  1  6  0  0  0
 23 21  1  0  0  0  0
 25 24  1  0  0  0  0
 25 27  1  6  0  0  0
 26 23  1  0  0  0  0
 26 22  1  0  0  0  0
 28 32  1  0  0  0  0
 29 30  1  0  0  0  0
 30 32  1  0  0  0  0
 31 29  1  0  0  0  0
 31 33  1  0  0  0  0
 33 28  2  0  0  0  0
 35 34  1  0  0  0  0
 36 35  1  0  0  0  0
 37 36  1  0  0  0  0
 38 37  1  0  0  0  0
 39 38  1  1  0  0  0
 39 40  1  0  0  0  0
 39 41  1  0  0  0  0
 40 43  1  1  0  0  0
 40 41  1  0  0  0  0
 42 43  1  0  0  0  0
M  END
>  <MODEL>
6

>  <REMARK>
 VINA RESULT:      -6.5      3.234      8.592
  Name = 
  12 active torsions:
  status: ('A' for Active; 'I' for Inactive)
    1  A    between atoms: C_1  and  C_35
    2  A    between atoms: C_1  and  O_38
    3  A    between atoms: N_2  and  C_6
    4  A    between atoms: N_2  and  C_13
    5  A    between atoms: C_3  and  C_12
    6  A    between atoms: C_6  and  C_12
    7  A    between atoms: C_9  and  C_19
    8  A    between atoms: C_9  and  N_32
    9  A    between atoms: C_11  and  C_14
   10  A    between atoms: C_25  and  O_39
   11  A    between atoms: N_32  and  C_35
   12  A    between atoms: C_34  and  O_38
                            x       y       z     vdW  Elec       q    Type
                         _______ _______ _______ _____ _____    ______ ____

>  <TORSDO>
F 12

$$$$
=
 OpenBabel11052421183D

 43 48  0  0  1  0  0  0  0  0999 V2000
  195.8030  173.6910  137.7340 C   0  0  0  0  0  0  0  0  0  0  0  0
  192.7520  171.4660  141.2130 C   0  0  2  0  0  3  0  0  0  0  0  0
  190.5910  172.3710  140.8330 C   0  0  1  0  0  3  0  0  0  0  0  0
  194.6370  172.1040  139.0900 C   0  0  0  0  0  0  0  0  0  0  0  0
  195.1930  174.8730  138.4290 C   0  0  0  0  0  2  0  0  0  0  0  0
  196.6050  173.8760  136.7830 O   0  0  0  0  0  0  0  0  0  0  0  0
  193.8750  173.2030  139.7330 C   0  0  0  0  0  0  0  0  0  0  0  0
  195.5210  172.3570  138.1720 N   0  0  0  0  0  0  0  0  0  0  0  0
  194.1210  174.4740  139.4040 C   0  0  0  0  0  3  0  0  0  0  0  0
  191.5180  173.2240  140.1870 O   0  0  0  0  0  0  0  0  0  0  0  0
  192.7770  172.9060  140.7190 C   0  0  1  0  0  3  0  0  0  0  0  0
  193.0410  170.4780  140.0830 C   0  0  0  0  0  2  0  0  0  0  0  0
  191.3280  171.3080  141.6490 C   0  0  2  0  0  3  0  0  0  0  0  0
  194.4490  170.6910  139.5480 C   0  0  0  0  0  2  0  0  0  0  0  0
  189.5740  173.0870  141.6220 N   0  0  0  0  0  0  0  0  0  0  0  0
  188.2890  172.7730  141.0260 C   0  0  0  0  0  1  0  0  0  0  0  0
  189.7360  174.5400  141.5490 C   0  0  0  0  0  2  0  0  0  0  0  0
  188.9710  175.2440  142.6680 C   0  0  1  0  0  3  0  0  0  0  0  0
  187.6000  175.2170  142.4120 O   0  0  0  0  0  1  0  0  0  0  0  0
  189.2500  174.6400  144.0140 C   0  0  0  0  0  3  0  0  0  0  0  0
  189.3150  175.3430  145.1520 C   0  0  0  0  0  0  0  0  0  0  0  0
  189.8200  176.8180  147.6030 C   0  0  0  0  0  2  0  0  0  0  0  0
  189.0430  176.8300  145.1850 C   0  0  2  0  0  3  0  0  0  0  0  0
  189.4790  174.5900  146.4430 C   0  0  0  0  0  2  0  0  0  0  0  0
  190.2910  175.3690  147.4800 C   0  0  1  0  0  3  0  0  0  0  0  0
  189.8730  177.5410  146.2570 C   0  0  0  0  0  2  0  0  0  0  0  0
  191.7780  175.2910  147.1880 C   0  0  0  0  0  1  0  0  0  0  0  0
  187.5780  177.1430  145.2960 C   0  0  0  0  0  0  0  0  0  0  0  0
  184.9840  178.1760  145.9310 C   0  0  0  0  0  2  0  0  0  0  0  0
  185.4240  178.2100  144.4750 C   0  0  0  0  0  2  0  0  0  0  0  0
  185.4280  176.8540  146.5440 C   0  0  0  0  0  2  0  0  0  0  0  0
  186.9500  178.1850  144.3930 C   0  0  0  0  0  2  0  0  0  0  0  0
  186.8970  176.6080  146.3240 C   0  0  0  0  0  3  0  0  0  0  0  0
  191.2380  171.5610  143.0220 O   0  0  0  0  0  0  0  0  0  0  0  0
  192.2770  170.8220  143.5910 C   0  0  0  0  0  2  0  0  0  0  0  0
  193.0520  171.6910  144.5610 C   0  0  0  0  0  2  0  0  0  0  0  0
  192.4560  173.0120  144.6320 N   0  0  0  0  0  2  0  0  0  0  0  0
  193.4860  173.9500  144.2290 C   0  0  0  0  0  2  0  0  0  0  0  0
  192.8520  175.2080  143.6460 C   0  0  1  0  0  3  0  0  0  0  0  0
  193.4880  176.5020  144.1630 C   0  0  2  0  0  3  0  0  0  0  0  0
  193.8510  175.9620  142.7930 C   0  0  0  0  0  2  0  0  0  0  0  0
  194.5660  177.3800  145.8820 C   0  0  0  0  0  1  0  0  0  0  0  0
  194.5440  176.2630  145.0480 O   0  0  0  0  0  0  0  0  0  0  0  0
  1  8  1  0  0  0  0
  1  5  1  0  0  0  0
  2 12  1  6  0  0  0
  2 13  1  0  0  0  0
  3 15  1  1  0  0  0
  3 13  1  0  0  0  0
  4 14  1  0  0  0  0
  4  7  1  0  0  0  0
  5  9  1  0  0  0  0
  6  1  2  0  0  0  0
  8  4  2  0  0  0  0
  9  7  2  0  0  0  0
 10 11  1  0  0  0  0
 10  3  1  0  0  0  0
 11  7  1  6  0  0  0
 11  2  1  0  0  0  0
 13 34  1  1  0  0  0
 14 12  1  0  0  0  0
 16 15  1  0  0  0  0
 17 15  1  0  0  0  0
 17 18  1  0  0  0  0
 18 19  1  6  0  0  0
 18 20  1  0  0  0  0
 20 21  2  0  0  0  0
 21 23  1  0  0  0  0
 21 24  1  0  0  0  0
 23 28  1  1  0  0  0
 23 26  1  0  0  0  0
 24 25  1  0  0  0  0
 25 27  1  6  0  0  0
 25 22  1  0  0  0  0
 26 22  1  0  0  0  0
 28 33  2  0  0  0  0
 29 31  1  0  0  0  0
 30 29  1  0  0  0  0
 32 30  1  0  0  0  0
 32 28  1  0  0  0  0
 33 31  1  0  0  0  0
 34 35  1  0  0  0  0
 35 36  1  0  0  0  0
 36 37  1  0  0  0  0
 38 37  1  0  0  0  0
 39 40  1  0  0  0  0
 39 38  1  1  0  0  0
 40 43  1  1  0  0  0
 41 39  1  0  0  0  0
 41 40  1  0  0  0  0
 43 42  1  0  0  0  0
M  END
>  <MODEL>
7

>  <REMARK>
 VINA RESULT:      -6.5      2.877      8.490
  Name = 
  12 active torsions:
  status: ('A' for Active; 'I' for Inactive)
    1  A    between atoms: C_1  and  C_35
    2  A    between atoms: C_1  and  O_38
    3  A    between atoms: N_2  and  C_6
    4  A    between atoms: N_2  and  C_13
    5  A    between atoms: C_3  and  C_12
    6  A    between atoms: C_6  and  C_12
    7  A    between atoms: C_9  and  C_19
    8  A    between atoms: C_9  and  N_32
    9  A    between atoms: C_11  and  C_14
   10  A    between atoms: C_25  and  O_39
   11  A    between atoms: N_32  and  C_35
   12  A    between atoms: C_34  and  O_38
                            x       y       z     vdW  Elec       q    Type
                         _______ _______ _______ _____ _____    ______ ____

>  <TORSDO>
F 12

$$$$
=
 OpenBabel11052421183D

 43 48  0  0  1  0  0  0  0  0999 V2000
  188.9060  173.1020  138.9050 C   0  0  0  0  0  0  0  0  0  0  0  0
  189.4080  175.3820  143.4780 C   0  0  2  0  0  3  0  0  0  0  0  0
  191.7240  175.8490  143.7020 C   0  0  1  0  0  3  0  0  0  0  0  0
  188.6740  174.5620  140.7840 C   0  0  0  0  0  0  0  0  0  0  0  0
  189.9310  172.2400  139.5820 C   0  0  0  0  0  2  0  0  0  0  0  0
  188.5540  172.8380  137.7260 O   0  0  0  0  0  0  0  0  0  0  0  0
  189.7840  173.8590  141.4750 C   0  0  0  0  0  0  0  0  0  0  0  0
  188.2880  174.1910  139.6010 N   0  0  0  0  0  0  0  0  0  0  0  0
  190.3720  172.8070  140.9020 C   0  0  0  0  0  3  0  0  0  0  0  0
  191.5930  174.8890  142.6710 O   0  0  0  0  0  0  0  0  0  0  0  0
  190.3020  174.3530  142.7990 C   0  0  1  0  0  3  0  0  0  0  0  0
  188.8340  176.3790  142.4720 C   0  0  0  0  0  2  0  0  0  0  0  0
  190.3730  176.0930  144.3760 C   0  0  2  0  0  3  0  0  0  0  0  0
  187.9330  175.6610  141.4780 C   0  0  0  0  0  2  0  0  0  0  0  0
  192.7920  175.5410  144.6700 N   0  0  0  0  0  0  0  0  0  0  0  0
  193.4540  176.7960  144.9720 C   0  0  0  0  0  1  0  0  0  0  0  0
  193.8070  174.6460  144.1090 C   0  0  0  0  0  2  0  0  0  0  0  0
  193.8160  173.2960  144.8220 C   0  0  1  0  0  3  0  0  0  0  0  0
  193.2730  173.4170  146.1010 O   0  0  0  0  0  1  0  0  0  0  0  0
  193.0730  172.2420  144.0510 C   0  0  0  0  0  3  0  0  0  0  0  0
  193.6640  171.2230  143.4150 C   0  0  0  0  0  0  0  0  0  0  0  0
  194.8690  169.1910  141.7240 C   0  0  0  0  0  2  0  0  0  0  0  0
  195.1590  171.0070  143.4760 C   0  0  2  0  0  3  0  0  0  0  0  0
  192.7880  170.1750  142.7880 C   0  0  0  0  0  2  0  0  0  0  0  0
  193.4030  169.5750  141.5220 C   0  0  1  0  0  3  0  0  0  0  0  0
  195.7030  170.3870  142.1860 C   0  0  0  0  0  2  0  0  0  0  0  0
  193.2300  170.5010  140.3320 C   0  0  0  0  0  1  0  0  0  0  0  0
  195.5790  170.2410  144.6990 C   0  0  0  0  0  0  0  0  0  0  0  0
  196.4790  169.3660  147.2720 C   0  0  0  0  0  2  0  0  0  0  0  0
  195.1020  168.9130  146.8110 C   0  0  0  0  0  2  0  0  0  0  0  0
  197.4360  169.3010  146.0880 C   0  0  0  0  0  2  0  0  0  0  0  0
  194.5600  169.8840  145.7620 C   0  0  0  0  0  2  0  0  0  0  0  0
  196.8930  170.0470  144.8970 C   0  0  0  0  0  3  0  0  0  0  0  0
  190.3230  175.5170  145.6500 O   0  0  0  0  0  0  0  0  0  0  0  0
  188.9650  175.4720  145.9700 C   0  0  0  0  0  2  0  0  0  0  0  0
  188.5400  176.7890  146.5890 C   0  0  0  0  0  2  0  0  0  0  0  0
  187.0940  176.8420  146.7010 N   0  0  0  0  0  2  0  0  0  0  0  0
  186.5810  176.9630  145.3490 C   0  0  0  0  0  2  0  0  0  0  0  0
  186.6060  178.4210  144.9080 C   0  0  1  0  0  3  0  0  0  0  0  0
  185.8250  178.6750  143.6140 C   0  0  2  0  0  3  0  0  0  0  0  0
  185.2130  179.0160  144.9600 C   0  0  0  0  0  2  0  0  0  0  0  0
  184.4540  177.9510  142.0380 C   0  0  0  0  0  1  0  0  0  0  0  0
  185.2250  177.5160  143.1150 O   0  0  0  0  0  0  0  0  0  0  0  0
  1  5  1  0  0  0  0
  1  8  1  0  0  0  0
  2 12  1  6  0  0  0
  2 13  1  0  0  0  0
  3 13  1  0  0  0  0
  3 15  1  1  0  0  0
  4  7  1  0  0  0  0
  4 14  1  0  0  0  0
  5  9  1  0  0  0  0
  6  1  2  0  0  0  0
  8  4  2  0  0  0  0
  9  7  2  0  0  0  0
 10 11  1  0  0  0  0
 10  3  1  0  0  0  0
 11  7  1  6  0  0  0
 11  2  1  0  0  0  0
 13 34  1  1  0  0  0
 14 12  1  0  0  0  0
 15 16  1  0  0  0  0
 17 15  1  0  0  0  0
 17 18  1  0  0  0  0
 18 19  1  1  0  0  0
 20 18  1  0  0  0  0
 21 23  1  0  0  0  0
 21 20  2  0  0  0  0
 22 26  1  0  0  0  0
 23 28  1  1  0  0  0
 24 21  1  0  0  0  0
 25 27  1  6  0  0  0
 25 22  1  0  0  0  0
 25 24  1  0  0  0  0
 26 23  1  0  0  0  0
 28 33  2  0  0  0  0
 28 32  1  0  0  0  0
 30 29  1  0  0  0  0
 31 29  1  0  0  0  0
 32 30  1  0  0  0  0
 33 31  1  0  0  0  0
 34 35  1  0  0  0  0
 35 36  1  0  0  0  0
 36 37  1  0  0  0  0
 38 37  1  0  0  0  0
 39 41  1  0  0  0  0
 39 38  1  1  0  0  0
 40 43  1  1  0  0  0
 40 39  1  0  0  0  0
 40 41  1  0  0  0  0
 42 43  1  0  0  0  0
M  END
>  <MODEL>
8

>  <REMARK>
 VINA RESULT:      -6.4      2.703      6.394
  Name = 
  12 active torsions:
  status: ('A' for Active; 'I' for Inactive)
    1  A    between atoms: C_1  and  C_35
    2  A    between atoms: C_1  and  O_38
    3  A    between atoms: N_2  and  C_6
    4  A    between atoms: N_2  and  C_13
    5  A    between atoms: C_3  and  C_12
    6  A    between atoms: C_6  and  C_12
    7  A    between atoms: C_9  and  C_19
    8  A    between atoms: C_9  and  N_32
    9  A    between atoms: C_11  and  C_14
   10  A    between atoms: C_25  and  O_39
   11  A    between atoms: N_32  and  C_35
   12  A    between atoms: C_34  and  O_38
                            x       y       z     vdW  Elec       q    Type
                         _______ _______ _______ _____ _____    ______ ____

>  <TORSDO>
F 12

$$$$
=
 OpenBabel11052421183D

 43 48  0  0  1  0  0  0  0  0999 V2000
  185.6040  177.9070  146.2450 C   0  0  0  0  0  0  0  0  0  0  0  0
  188.6760  175.7010  142.7730 C   0  0  2  0  0  3  0  0  0  0  0  0
  189.6880  173.8700  143.8940 C   0  0  1  0  0  3  0  0  0  0  0  0
  186.4750  176.8720  144.2740 C   0  0  0  0  0  0  0  0  0  0  0  0
  186.9320  177.9090  146.9450 C   0  0  0  0  0  2  0  0  0  0  0  0
  184.5910  178.3650  146.8350 O   0  0  0  0  0  0  0  0  0  0  0  0
  187.7900  176.6970  144.9400 C   0  0  0  0  0  0  0  0  0  0  0  0
  185.4850  177.4340  144.8980 N   0  0  0  0  0  0  0  0  0  0  0  0
  187.9830  177.1560  146.1790 C   0  0  0  0  0  3  0  0  0  0  0  0
  189.1580  174.7240  144.8900 O   0  0  0  0  0  0  0  0  0  0  0  0
  188.9060  175.9520  144.2570 C   0  0  1  0  0  3  0  0  0  0  0  0
  187.2250  175.3180  142.4850 C   0  0  0  0  0  2  0  0  0  0  0  0
  189.5550  174.5170  142.5150 C   0  0  2  0  0  3  0  0  0  0  0  0
  186.2980  176.4690  142.8440 C   0  0  0  0  0  2  0  0  0  0  0  0
  191.0590  173.4090  144.1740 N   0  0  0  0  0  0  0  0  0  0  0  0
  191.0100  171.9590  144.2100 C   0  0  0  0  0  1  0  0  0  0  0  0
  191.5370  173.8530  145.4850 C   0  0  0  0  0  2  0  0  0  0  0  0
  192.6240  174.9170  145.3510 C   0  0  1  0  0  3  0  0  0  0  0  0
  192.2040  176.1170  145.9270 O   0  0  0  0  0  1  0  0  0  0  0  0
  193.9230  174.4850  145.9690 C   0  0  0  0  0  3  0  0  0  0  0  0
  194.9080  173.8780  145.2940 C   0  0  0  0  0  0  0  0  0  0  0  0
  196.9430  172.2560  144.0050 C   0  0  0  0  0  2  0  0  0  0  0  0
  194.8180  173.6320  143.8060 C   0  0  2  0  0  3  0  0  0  0  0  0
  196.2010  173.6130  146.0140 C   0  0  0  0  0  2  0  0  0  0  0  0
  196.8920  172.3360  145.5300 C   0  0  1  0  0  3  0  0  0  0  0  0
  195.5460  172.3510  143.3910 C   0  0  0  0  0  2  0  0  0  0  0  0
  196.2470  171.0990  146.1290 C   0  0  0  0  0  1  0  0  0  0  0  0
  195.2540  174.8240  143.0000 C   0  0  0  0  0  0  0  0  0  0  0  0
  196.5450  176.6980  141.2630 C   0  0  0  0  0  2  0  0  0  0  0  0
  195.0720  176.4050  141.0200 C   0  0  0  0  0  2  0  0  0  0  0  0
  196.7830  176.7910  142.7650 C   0  0  0  0  0  2  0  0  0  0  0  0
  194.7120  175.0380  141.6010 C   0  0  0  0  0  2  0  0  0  0  0  0
  196.2560  175.5770  143.4840 C   0  0  0  0  0  3  0  0  0  0  0  0
  190.7930  174.9610  142.0340 O   0  0  0  0  0  0  0  0  0  0  0  0
  191.0970  174.1000  140.9780 C   0  0  0  0  0  2  0  0  0  0  0  0
  189.8410  173.8030  140.1810 C   0  0  0  0  0  2  0  0  0  0  0  0
  190.0700  172.6760  139.2960 N   0  0  0  0  0  2  0  0  0  0  0  0
  190.4010  171.5470  140.1450 C   0  0  0  0  0  2  0  0  0  0  0  0
  191.2990  170.5720  139.3940 C   0  0  1  0  0  3  0  0  0  0  0  0
  191.5200  169.2530  140.1430 C   0  0  2  0  0  3  0  0  0  0  0  0
  190.5240  169.3290  139.0010 C   0  0  0  0  0  2  0  0  0  0  0  0
  191.4310  168.1660  142.0660 C   0  0  0  0  0  1  0  0  0  0  0  0
  190.8280  169.2040  141.3560 O   0  0  0  0  0  0  0  0  0  0  0  0
  1  6  2  0  0  0  0
  1  5  1  0  0  0  0
  2 12  1  1  0  0  0
  2 11  1  0  0  0  0
  3 15  1  1  0  0  0
  3 10  1  0  0  0  0
  4  8  2  0  0  0  0
  4  7  1  0  0  0  0
  7  9  2  0  0  0  0
  8  1  1  0  0  0  0
  9  5  1  0  0  0  0
 11 10  1  1  0  0  0
 11  7  1  0  0  0  0
 12 14  1  0  0  0  0
 13 34  1  1  0  0  0
 13  2  1  0  0  0  0
 13  3  1  0  0  0  0
 14  4  1  0  0  0  0
 15 16  1  0  0  0  0
 15 17  1  0  0  0  0
 18 17  1  0  0  0  0
 18 19  1  1  0  0  0
 18 20  1  0  0  0  0
 21 20  2  0  0  0  0
 21 24  1  0  0  0  0
 22 25  1  0  0  0  0
 23 28  1  6  0  0  0
 23 21  1  0  0  0  0
 25 24  1  0  0  0  0
 25 27  1  6  0  0  0
 26 23  1  0  0  0  0
 26 22  1  0  0  0  0
 28 33  2  0  0  0  0
 29 31  1  0  0  0  0
 30 29  1  0  0  0  0
 30 32  1  0  0  0  0
 31 33  1  0  0  0  0
 32 28  1  0  0  0  0
 35 34  1  0  0  0  0
 36 35  1  0  0  0  0
 37 38  1  0  0  0  0
 37 36  1  0  0  0  0
 39 40  1  0  0  0  0
 39 38  1  1  0  0  0
 40 43  1  1  0  0  0
 41 39  1  0  0  0  0
 41 40  1  0  0  0  0
 43 42  1  0  0  0  0
M  END
>  <MODEL>
9

>  <REMARK>
 VINA RESULT:      -6.4      2.421      6.386
  Name = 
  12 active torsions:
  status: ('A' for Active; 'I' for Inactive)
    1  A    between atoms: C_1  and  C_35
    2  A    between atoms: C_1  and  O_38
    3  A    between atoms: N_2  and  C_6
    4  A    between atoms: N_2  and  C_13
    5  A    between atoms: C_3  and  C_12
    6  A    between atoms: C_6  and  C_12
    7  A    between atoms: C_9  and  C_19
    8  A    between atoms: C_9  and  N_32
    9  A    between atoms: C_11  and  C_14
   10  A    between atoms: C_25  and  O_39
   11  A    between atoms: N_32  and  C_35
   12  A    between atoms: C_34  and  O_38
                            x       y       z     vdW  Elec       q    Type
                         _______ _______ _______ _____ _____    ______ ____

>  <TORSDO>
F 12

$$$$
