=
 OpenBabel11052419173D

 32 37  0  0  1  0  0  0  0  0999 V2000
  189.0050  175.2580  143.9440 C   0  0  0  0  0  0  0  0  0  0  0  0
  187.3420  176.9800  144.5390 C   0  0  0  0  0  0  0  0  0  0  0  0
  190.2300  174.5580  144.3870 C   0  0  0  0  0  3  0  0  0  0  0  0
  188.3680  176.1930  144.9070 C   0  0  0  0  0  0  0  0  0  0  0  0
  186.6470  177.8260  145.5610 C   0  0  0  0  0  0  0  0  0  0  0  0
  182.4270  178.4610  141.3260 C   0  0  0  0  0  1  0  0  0  0  0  0
  186.9440  177.0290  143.0740 C   0  0  1  0  0  3  0  0  0  0  0  0
  183.7720  178.7520  143.3790 O   0  0  0  0  0  0  0  0  0  0  0  0
  184.9320  178.3610  143.8370 C   0  0  0  0  0  0  0  0  0  0  0  0
  188.9940  176.3710  146.2670 C   0  0  1  0  0  3  0  0  0  0  0  0
  185.5280  178.7590  145.1480 C   0  0  0  0  0  2  0  0  0  0  0  0
  188.0370  176.8350  147.2180 O   0  0  0  0  0  0  0  0  0  0  0  0
  189.6530  175.0770  146.7440 C   0  0  0  0  0  2  0  0  0  0  0  0
  187.1060  175.6550  142.4170 C   0  0  0  0  0  2  0  0  0  0  0  0
  188.4510  175.0560  142.7260 C   0  0  0  0  0  0  0  0  0  0  0  0
  185.5550  177.5610  142.9110 C   0  0  0  0  0  0  0  0  0  0  0  0
  186.9980  177.7050  146.8570 C   0  0  0  0  0  0  0  0  0  0  0  0
  190.5590  174.5090  145.6820 C   0  0  0  0  0  3  0  0  0  0  0  0
  183.6260  178.2390  142.1760 C   0  0  0  0  0  0  0  0  0  0  0  0
  184.7280  177.4830  141.8040 C   0  0  0  0  0  3  0  0  0  0  0  0
  190.0160  171.7510  141.3590 C   0  0  2  0  0  3  0  0  0  0  0  0
  191.4570  173.7120  138.6020 O   0  0  0  0  0  0  0  0  0  0  0  0
  190.7030  171.0970  142.3660 F   0  0  0  0  0  0  0  0  0  0  0  0
  189.1420  173.5960  139.1610 C   0  0  0  0  0  2  0  0  0  0  0  0
  189.0630  174.1790  141.6650 C   0  0  2  0  0  3  0  0  0  0  0  0
  190.9720  172.4280  140.4820 N   0  0  0  0  0  2  0  0  0  0  0  0
  188.6310  174.5570  140.2390 C   0  0  0  0  0  2  0  0  0  0  0  0
  189.0070  172.6970  141.9610 C   0  0  0  0  0  0  0  0  0  0  0  0
  188.1090  172.2380  142.6500 O   0  0  0  0  0  0  0  0  0  0  0  0
  190.5810  173.2460  139.3730 C   0  0  0  0  0  0  0  0  0  0  0  0
  186.2930  178.4470  147.9130 C   0  0  0  0  0  3  0  0  0  0  0  0
  186.8790  179.4020  148.5540 N   0  0  0  0  0  2  0  0  0  0  0  0
  1  3  1  0  0  0  0
  1  4  1  0  0  0  0
  2  4  2  0  0  0  0
  2  5  1  0  0  0  0
  3 18  2  0  0  0  0
  4 10  1  0  0  0  0
  5 17  2  0  0  0  0
  6 19  1  0  0  0  0
  7 14  1  1  0  0  0
  7  2  1  0  0  0  0
  8  9  1  0  0  0  0
  9 11  1  0  0  0  0
 10 13  1  1  0  0  0
 10 12  1  0  0  0  0
 11  5  1  0  0  0  0
 14 15  1  0  0  0  0
 15  1  2  0  0  0  0
 16  7  1  0  0  0  0
 16  9  2  0  0  0  0
 17 12  1  0  0  0  0
 17 31  1  0  0  0  0
 18 13  1  0  0  0  0
 19  8  1  0  0  0  0
 20 19  2  0  0  0  0
 20 16  1  0  0  0  0
 21 28  1  0  0  0  0
 21 23  1  1  0  0  0
 22 30  2  0  0  0  0
 24 30  1  0  0  0  0
 24 27  1  0  0  0  0
 25 28  1  0  0  0  0
 25 15  1  1  0  0  0
 26 21  1  0  0  0  0
 27 25  1  0  0  0  0
 28 29  2  0  0  0  0
 30 26  1  0  0  0  0
 31 32  2  0  0  0  0
M  END
>  <MODEL>
1

>  <REMARK>
 VINA RESULT:      -9.0      0.000      0.000
  Name = 
  2 active torsions:
  status: ('A' for Active; 'I' for Inactive)
    1  A    between atoms: C_13  and  C_29
    2  A    between atoms: C_16  and  C_27
                            x       y       z     vdW  Elec       q    Type
                         _______ _______ _______ _____ _____    ______ ____

>  <TORSDO>
F 2

$$$$
=
 OpenBabel11052419173D

 32 37  0  0  1  0  0  0  0  0999 V2000
  191.3380  176.6310  145.1930 C   0  0  0  0  0  0  0  0  0  0  0  0
  189.0660  177.4840  144.7510 C   0  0  0  0  0  0  0  0  0  0  0  0
  192.3600  176.4030  146.2370 C   0  0  0  0  0  3  0  0  0  0  0  0
  190.0030  177.1090  145.6390 C   0  0  0  0  0  0  0  0  0  0  0  0
  187.6930  177.8490  145.2260 C   0  0  0  0  0  0  0  0  0  0  0  0
  186.1880  177.3880  139.4240 C   0  0  0  0  0  1  0  0  0  0  0  0
  189.4420  177.5760  143.2820 C   0  0  1  0  0  3  0  0  0  0  0  0
  186.1320  177.8890  141.8430 O   0  0  0  0  0  0  0  0  0  0  0  0
  186.9730  177.9150  142.8440 C   0  0  0  0  0  0  0  0  0  0  0  0
  189.7660  177.3260  147.1120 C   0  0  1  0  0  3  0  0  0  0  0  0
  186.6460  178.3280  144.2420 C   0  0  0  0  0  2  0  0  0  0  0  0
  188.3760  177.2520  147.4260 O   0  0  0  0  0  0  0  0  0  0  0  0
  190.5680  176.3330  147.9510 C   0  0  0  0  0  2  0  0  0  0  0  0
  190.4340  176.4740  142.9010 C   0  0  0  0  0  2  0  0  0  0  0  0
  191.5740  176.4020  143.8810 C   0  0  0  0  0  0  0  0  0  0  0  0
  188.2240  177.5510  142.4130 C   0  0  0  0  0  0  0  0  0  0  0  0
  187.3910  177.6970  146.5310 C   0  0  0  0  0  0  0  0  0  0  0  0
  192.0130  176.3070  147.5250 C   0  0  0  0  0  3  0  0  0  0  0  0
  186.8030  177.5290  140.7690 C   0  0  0  0  0  0  0  0  0  0  0  0
  188.1440  177.3130  141.0520 C   0  0  0  0  0  3  0  0  0  0  0  0
  194.6710  174.0450  143.5730 C   0  0  2  0  0  3  0  0  0  0  0  0
  196.5350  176.8750  142.1450 O   0  0  0  0  0  0  0  0  0  0  0  0
  194.9100  173.4110  144.7790 F   0  0  0  0  0  0  0  0  0  0  0  0
  194.4880  175.9930  141.3000 C   0  0  0  0  0  2  0  0  0  0  0  0
  192.9130  175.9810  143.3330 C   0  0  2  0  0  3  0  0  0  0  0  0
  195.6320  175.1360  143.4010 N   0  0  0  0  0  2  0  0  0  0  0  0
  193.1880  176.5180  141.9190 C   0  0  0  0  0  2  0  0  0  0  0  0
  193.2390  174.5160  143.5190 C   0  0  0  0  0  0  0  0  0  0  0  0
  192.3440  173.6850  143.5730 O   0  0  0  0  0  0  0  0  0  0  0  0
  195.6170  176.0270  142.2800 C   0  0  0  0  0  0  0  0  0  0  0  0
  186.0370  177.9580  147.0380 C   0  0  0  0  0  3  0  0  0  0  0  0
  185.7720  179.0410  147.6910 N   0  0  0  0  0  2  0  0  0  0  0  0
  1  4  1  0  0  0  0
  1  3  1  0  0  0  0
  2  5  1  0  0  0  0
  2  4  2  0  0  0  0
  3 18  2  0  0  0  0
  4 10  1  0  0  0  0
  5 17  2  0  0  0  0
  6 19  1  0  0  0  0
  7 14  1  6  0  0  0
  7  2  1  0  0  0  0
  8  9  1  0  0  0  0
  9 11  1  0  0  0  0
 10 12  1  0  0  0  0
 10 13  1  1  0  0  0
 11  5  1  0  0  0  0
 14 15  1  0  0  0  0
 15  1  2  0  0  0  0
 16  9  2  0  0  0  0
 16  7  1  0  0  0  0
 17 31  1  0  0  0  0
 17 12  1  0  0  0  0
 18 13  1  0  0  0  0
 19 20  2  0  0  0  0
 19  8  1  0  0  0  0
 20 16  1  0  0  0  0
 21 23  1  1  0  0  0
 22 30  2  0  0  0  0
 24 27  1  0  0  0  0
 24 30  1  0  0  0  0
 25 28  1  0  0  0  0
 25 15  1  6  0  0  0
 26 21  1  0  0  0  0
 27 25  1  0  0  0  0
 28 29  2  0  0  0  0
 28 21  1  0  0  0  0
 30 26  1  0  0  0  0
 31 32  2  0  0  0  0
M  END
>  <MODEL>
2

>  <REMARK>
 VINA RESULT:      -8.2      3.265      3.817
  Name = 
  2 active torsions:
  status: ('A' for Active; 'I' for Inactive)
    1  A    between atoms: C_13  and  C_29
    2  A    between atoms: C_16  and  C_27
                            x       y       z     vdW  Elec       q    Type
                         _______ _______ _______ _____ _____    ______ ____

>  <TORSDO>
F 2

$$$$
=
 OpenBabel11052419173D

 32 37  0  0  1  0  0  0  0  0999 V2000
  186.6930  177.5760  144.9760 C   0  0  0  0  0  0  0  0  0  0  0  0
  185.5590  178.0060  142.8290 C   0  0  0  0  0  0  0  0  0  0  0  0
  186.6560  177.8260  146.4330 C   0  0  0  0  0  3  0  0  0  0  0  0
  185.5400  178.0570  144.1720 C   0  0  0  0  0  0  0  0  0  0  0  0
  184.3370  178.3900  142.0510 C   0  0  0  0  0  0  0  0  0  0  0  0
  187.1540  175.7670  137.4330 C   0  0  0  0  0  1  0  0  0  0  0  0
  186.8450  177.6050  142.1270 C   0  0  1  0  0  3  0  0  0  0  0  0
  185.5580  177.0860  138.7800 O   0  0  0  0  0  0  0  0  0  0  0  0
  185.4700  177.5410  140.0030 C   0  0  0  0  0  0  0  0  0  0  0  0
  184.4080  178.7600  144.8770 C   0  0  1  0  0  3  0  0  0  0  0  0
  184.3640  178.3920  140.5370 C   0  0  0  0  0  2  0  0  0  0  0  0
  183.2000  178.6760  144.1210 O   0  0  0  0  0  0  0  0  0  0  0  0
  184.2080  178.2060  146.2870 C   0  0  0  0  0  2  0  0  0  0  0  0
  187.5930  176.5340  142.9260 C   0  0  0  0  0  2  0  0  0  0  0  0
  187.7130  176.9180  144.3760 C   0  0  0  0  0  0  0  0  0  0  0  0
  186.5770  177.1630  140.7230 C   0  0  0  0  0  0  0  0  0  0  0  0
  183.2030  178.6840  142.7190 C   0  0  0  0  0  0  0  0  0  0  0  0
  185.5130  178.1620  147.0400 C   0  0  0  0  0  3  0  0  0  0  0  0
  186.6950  176.4320  138.6800 C   0  0  0  0  0  0  0  0  0  0  0  0
  187.4050  176.4520  139.8720 C   0  0  0  0  0  3  0  0  0  0  0  0
  190.1160  174.2340  145.8800 C   0  0  2  0  0  3  0  0  0  0  0  0
  191.5620  176.8790  147.9860 O   0  0  0  0  0  0  0  0  0  0  0  0
  189.3960  173.1310  146.3010 F   0  0  0  0  0  0  0  0  0  0  0  0
  191.4290  176.9170  145.6060 C   0  0  0  0  0  2  0  0  0  0  0  0
  188.9490  176.4540  145.1010 C   0  0  2  0  0  3  0  0  0  0  0  0
  190.4850  175.0440  147.0410 N   0  0  0  0  0  2  0  0  0  0  0  0
  190.1270  177.4350  144.9840 C   0  0  0  0  0  2  0  0  0  0  0  0
  189.3170  175.0070  144.8600 C   0  0  0  0  0  0  0  0  0  0  0  0
  189.0170  174.4590  143.8100 O   0  0  0  0  0  0  0  0  0  0  0  0
  191.1870  176.2880  146.9410 C   0  0  0  0  0  0  0  0  0  0  0  0
  181.9530  178.9840  142.0070 C   0  0  0  0  0  3  0  0  0  0  0  0
  180.9160  179.4150  142.6450 N   0  0  0  0  0  2  0  0  0  0  0  0
  1  3  1  0  0  0  0
  2  4  2  0  0  0  0
  3 18  2  0  0  0  0
  4 10  1  0  0  0  0
  4  1  1  0  0  0  0
  5 17  2  0  0  0  0
  5  2  1  0  0  0  0
  6 19  1  0  0  0  0
  7  2  1  0  0  0  0
  7 14  1  1  0  0  0
  8  9  1  0  0  0  0
  9 11  1  0  0  0  0
  9 16  2  0  0  0  0
 10 13  1  1  0  0  0
 11  5  1  0  0  0  0
 12 10  1  0  0  0  0
 13 18  1  0  0  0  0
 14 15  1  0  0  0  0
 15  1  2  0  0  0  0
 16  7  1  0  0  0  0
 17 12  1  0  0  0  0
 19  8  1  0  0  0  0
 19 20  2  0  0  0  0
 20 16  1  0  0  0  0
 21 23  1  1  0  0  0
 21 26  1  0  0  0  0
 24 30  1  0  0  0  0
 25 15  1  6  0  0  0
 27 25  1  0  0  0  0
 27 24  1  0  0  0  0
 28 25  1  0  0  0  0
 28 21  1  0  0  0  0
 29 28  2  0  0  0  0
 30 26  1  0  0  0  0
 30 22  2  0  0  0  0
 31 32  2  0  0  0  0
 31 17  1  0  0  0  0
M  END
>  <MODEL>
3

>  <REMARK>
 VINA RESULT:      -8.1      2.863      5.400
  Name = 
  2 active torsions:
  status: ('A' for Active; 'I' for Inactive)
    1  A    between atoms: C_13  and  C_29
    2  A    between atoms: C_16  and  C_27
                            x       y       z     vdW  Elec       q    Type
                         _______ _______ _______ _____ _____    ______ ____

>  <TORSDO>
F 2

$$$$
=
 OpenBabel11052419173D

 32 37  0  0  1  0  0  0  0  0999 V2000
  189.3240  176.2630  145.3300 C   0  0  0  0  0  0  0  0  0  0  0  0
  190.3270  174.8180  143.6020 C   0  0  0  0  0  0  0  0  0  0  0  0
  189.4770  176.7870  146.7050 C   0  0  0  0  0  3  0  0  0  0  0  0
  190.4430  175.4560  144.7800 C   0  0  0  0  0  0  0  0  0  0  0  0
  191.5110  174.1090  143.0190 C   0  0  0  0  0  0  0  0  0  0  0  0
  188.2320  173.9890  137.9810 C   0  0  0  0  0  1  0  0  0  0  0  0
  188.9740  174.7910  142.9120 C   0  0  1  0  0  3  0  0  0  0  0  0
  189.9920  173.5570  139.6610 O   0  0  0  0  0  0  0  0  0  0  0  0
  190.1900  173.7860  140.9330 C   0  0  0  0  0  0  0  0  0  0  0  0
  191.6600  175.2230  145.6380 C   0  0  1  0  0  3  0  0  0  0  0  0
  191.3780  173.3390  141.7220 C   0  0  0  0  0  2  0  0  0  0  0  0
  192.8050  174.9280  144.8400 O   0  0  0  0  0  0  0  0  0  0  0  0
  191.9260  176.4180  146.5520 C   0  0  0  0  0  2  0  0  0  0  0  0
  188.2250  176.1090  143.1250 C   0  0  0  0  0  2  0  0  0  0  0  0
  188.2290  176.5120  144.5740 C   0  0  0  0  0  0  0  0  0  0  0  0
  189.1180  174.4630  141.4590 C   0  0  0  0  0  0  0  0  0  0  0  0
  192.7040  174.2100  143.6390 C   0  0  0  0  0  0  0  0  0  0  0  0
  190.6780  176.8210  147.2930 C   0  0  0  0  0  3  0  0  0  0  0  0
  188.8150  174.0550  139.3460 C   0  0  0  0  0  0  0  0  0  0  0  0
  188.1930  174.6320  140.4430 C   0  0  0  0  0  3  0  0  0  0  0  0
  185.4630  179.2600  144.3830 C   0  0  2  0  0  3  0  0  0  0  0  0
  184.9910  178.8720  148.0090 O   0  0  0  0  0  0  0  0  0  0  0  0
  185.9430  180.3740  143.7170 F   0  0  0  0  0  0  0  0  0  0  0  0
  184.8180  177.1290  146.3920 C   0  0  0  0  0  2  0  0  0  0  0  0
  187.0220  177.2630  145.0730 C   0  0  2  0  0  3  0  0  0  0  0  0
  185.4570  179.5210  145.8220 N   0  0  0  0  0  2  0  0  0  0  0  0
  186.1130  176.4200  145.9820 C   0  0  0  0  0  2  0  0  0  0  0  0
  186.2860  178.0520  144.0130 C   0  0  0  0  0  0  0  0  0  0  0  0
  186.3050  177.6870  142.8470 O   0  0  0  0  0  0  0  0  0  0  0  0
  185.0710  178.5460  146.7970 C   0  0  0  0  0  0  0  0  0  0  0  0
  193.9160  173.6060  143.0680 C   0  0  0  0  0  3  0  0  0  0  0  0
  194.9390  174.3350  142.7680 N   0  0  0  0  0  2  0  0  0  0  0  0
  1  3  1  0  0  0  0
  2  4  2  0  0  0  0
  3 18  2  0  0  0  0
  4  1  1  0  0  0  0
  4 10  1  0  0  0  0
  5  2  1  0  0  0  0
  5 17  2  0  0  0  0
  6 19  1  0  0  0  0
  7 14  1  6  0  0  0
  7  2  1  0  0  0  0
  8  9  1  0  0  0  0
  9 16  2  0  0  0  0
  9 11  1  0  0  0  0
 10 13  1  6  0  0  0
 11  5  1  0  0  0  0
 12 10  1  0  0  0  0
 13 18  1  0  0  0  0
 14 15  1  0  0  0  0
 15  1  2  0  0  0  0
 16  7  1  0  0  0  0
 17 12  1  0  0  0  0
 19  8  1  0  0  0  0
 19 20  2  0  0  0  0
 20 16  1  0  0  0  0
 21 23  1  6  0  0  0
 21 26  1  0  0  0  0
 24 30  1  0  0  0  0
 25 15  1  6  0  0  0
 25 27  1  0  0  0  0
 26 30  1  0  0  0  0
 27 24  1  0  0  0  0
 28 21  1  0  0  0  0
 28 25  1  0  0  0  0
 29 28  2  0  0  0  0
 30 22  2  0  0  0  0
 31 17  1  0  0  0  0
 32 31  2  0  0  0  0
M  END
>  <MODEL>
4

>  <REMARK>
 VINA RESULT:      -7.9      2.896      7.095
  Name = 
  2 active torsions:
  status: ('A' for Active; 'I' for Inactive)
    1  A    between atoms: C_13  and  C_29
    2  A    between atoms: C_16  and  C_27
                            x       y       z     vdW  Elec       q    Type
                         _______ _______ _______ _____ _____    ______ ____

>  <TORSDO>
F 2

$$$$
=
 OpenBabel11052419173D

 32 37  0  0  1  0  0  0  0  0999 V2000
  192.3970  175.9640  145.3570 C   0  0  0  0  0  0  0  0  0  0  0  0
  190.1190  176.0380  144.4160 C   0  0  0  0  0  0  0  0  0  0  0  0
  193.2600  176.4170  146.4690 C   0  0  0  0  0  3  0  0  0  0  0  0
  190.9480  176.2800  145.4460 C   0  0  0  0  0  0  0  0  0  0  0  0
  188.6460  176.2590  144.5770 C   0  0  0  0  0  0  0  0  0  0  0  0
  188.1980  173.1170  139.4700 C   0  0  0  0  0  1  0  0  0  0  0  0
  190.7070  175.5920  143.0890 C   0  0  1  0  0  3  0  0  0  0  0  0
  187.6690  174.5510  141.4120 O   0  0  0  0  0  0  0  0  0  0  0  0
  188.3200  175.1720  142.3610 C   0  0  0  0  0  0  0  0  0  0  0  0
  190.4420  177.0300  146.6520 C   0  0  1  0  0  3  0  0  0  0  0  0
  187.7080  176.0460  143.4070 C   0  0  0  0  0  2  0  0  0  0  0  0
  189.0510  176.7920  146.8600 O   0  0  0  0  0  0  0  0  0  0  0  0
  191.2490  176.6750  147.9000 C   0  0  0  0  0  2  0  0  0  0  0  0
  191.9150  174.6770  143.3050 C   0  0  0  0  0  2  0  0  0  0  0  0
  192.8770  175.2680  144.3000 C   0  0  0  0  0  0  0  0  0  0  0  0
  189.6670  174.9440  142.2290 C   0  0  0  0  0  0  0  0  0  0  0  0
  188.1660  176.5990  145.7900 C   0  0  0  0  0  0  0  0  0  0  0  0
  192.7290  176.7910  147.6380 C   0  0  0  0  0  3  0  0  0  0  0  0
  188.5550  173.9350  140.6600 C   0  0  0  0  0  0  0  0  0  0  0  0
  189.8490  174.1530  141.1080 C   0  0  0  0  0  3  0  0  0  0  0  0
  196.3420  173.7830  145.3180 C   0  0  2  0  0  3  0  0  0  0  0  0
  197.8950  176.0240  142.8520 O   0  0  0  0  0  0  0  0  0  0  0  0
  196.4910  173.8210  146.6930 F   0  0  0  0  0  0  0  0  0  0  0  0
  196.1890  174.4240  142.3920 C   0  0  0  0  0  2  0  0  0  0  0  0
  194.3380  174.9610  144.0960 C   0  0  2  0  0  3  0  0  0  0  0  0
  197.1160  174.8690  144.7160 N   0  0  0  0  0  2  0  0  0  0  0  0
  194.7370  174.8610  142.6140 C   0  0  0  0  0  2  0  0  0  0  0  0
  194.8770  173.8450  144.9630 C   0  0  0  0  0  0  0  0  0  0  0  0
  194.1400  172.9470  145.3430 O   0  0  0  0  0  0  0  0  0  0  0  0
  197.1270  175.1410  143.3100 C   0  0  0  0  0  0  0  0  0  0  0  0
  186.7220  176.7450  146.0270 C   0  0  0  0  0  3  0  0  0  0  0  0
  186.2510  176.7960  147.2290 N   0  0  0  0  0  2  0  0  0  0  0  0
  1  4  1  0  0  0  0
  1  3  1  0  0  0  0
  2  5  1  0  0  0  0
  2  4  2  0  0  0  0
  3 18  2  0  0  0  0
  4 10  1  0  0  0  0
  5 17  2  0  0  0  0
  6 19  1  0  0  0  0
  7 14  1  1  0  0  0
  7  2  1  0  0  0  0
  8  9  1  0  0  0  0
  9 11  1  0  0  0  0
 10 12  1  0  0  0  0
 10 13  1  1  0  0  0
 11  5  1  0  0  0  0
 14 15  1  0  0  0  0
 15  1  2  0  0  0  0
 16  9  2  0  0  0  0
 16  7  1  0  0  0  0
 17 31  1  0  0  0  0
 17 12  1  0  0  0  0
 18 13  1  0  0  0  0
 19 20  2  0  0  0  0
 19  8  1  0  0  0  0
 20 16  1  0  0  0  0
 21 23  1  1  0  0  0
 22 30  2  0  0  0  0
 24 27  1  0  0  0  0
 24 30  1  0  0  0  0
 25 15  1  6  0  0  0
 25 28  1  0  0  0  0
 26 21  1  0  0  0  0
 27 25  1  0  0  0  0
 28 21  1  0  0  0  0
 28 29  2  0  0  0  0
 30 26  1  0  0  0  0
 31 32  2  0  0  0  0
M  END
>  <MODEL>
5

>  <REMARK>
 VINA RESULT:      -7.8      3.944      5.430
  Name = 
  2 active torsions:
  status: ('A' for Active; 'I' for Inactive)
    1  A    between atoms: C_13  and  C_29
    2  A    between atoms: C_16  and  C_27
                            x       y       z     vdW  Elec       q    Type
                         _______ _______ _______ _____ _____    ______ ____

>  <TORSDO>
F 2

$$$$
=
 OpenBabel11052419173D

 32 37  0  0  1  0  0  0  0  0999 V2000
  190.0260  175.4210  145.0420 C   0  0  0  0  0  0  0  0  0  0  0  0
  187.9990  176.6300  144.3260 C   0  0  0  0  0  0  0  0  0  0  0  0
  190.8330  175.0010  146.2080 C   0  0  0  0  0  3  0  0  0  0  0  0
  188.7250  176.0840  145.3160 C   0  0  0  0  0  0  0  0  0  0  0  0
  186.6400  177.1870  144.6170 C   0  0  0  0  0  0  0  0  0  0  0  0
  185.9800  177.1660  138.6410 C   0  0  0  0  0  1  0  0  0  0  0  0
  188.6020  176.7130  142.9340 C   0  0  1  0  0  3  0  0  0  0  0  0
  185.6320  177.5860  141.0510 O   0  0  0  0  0  0  0  0  0  0  0  0
  186.3060  177.4460  142.1640 C   0  0  0  0  0  0  0  0  0  0  0  0
  188.3010  176.2840  146.7500 C   0  0  1  0  0  3  0  0  0  0  0  0
  185.8370  177.8560  143.5210 C   0  0  0  0  0  2  0  0  0  0  0  0
  186.8850  176.4160  146.8540 O   0  0  0  0  0  0  0  0  0  0  0  0
  188.8110  175.1500  147.6380 C   0  0  0  0  0  2  0  0  0  0  0  0
  189.4670  175.4850  142.6380 C   0  0  0  0  0  2  0  0  0  0  0  0
  190.4210  175.2030  143.7660 C   0  0  0  0  0  0  0  0  0  0  0  0
  187.5400  176.9080  141.8980 C   0  0  0  0  0  0  0  0  0  0  0  0
  186.1240  177.0380  145.8540 C   0  0  0  0  0  0  0  0  0  0  0  0
  190.2840  174.9160  147.4240 C   0  0  0  0  0  3  0  0  0  0  0  0
  186.3980  177.1640  140.0670 C   0  0  0  0  0  0  0  0  0  0  0  0
  187.6340  176.7330  140.5280 C   0  0  0  0  0  3  0  0  0  0  0  0
  193.1500  172.4110  143.7830 C   0  0  2  0  0  3  0  0  0  0  0  0
  195.6010  174.9640  142.7850 O   0  0  0  0  0  0  0  0  0  0  0  0
  193.1100  171.7130  144.9760 F   0  0  0  0  0  0  0  0  0  0  0  0
  193.5970  174.4310  141.6110 C   0  0  0  0  0  2  0  0  0  0  0  0
  191.7510  174.5990  143.3950 C   0  0  2  0  0  3  0  0  0  0  0  0
  194.2750  173.3470  143.8070 N   0  0  0  0  0  2  0  0  0  0  0  0
  192.3100  175.1290  142.0640 C   0  0  0  0  0  2  0  0  0  0  0  0
  191.8270  173.0960  143.5490 C   0  0  0  0  0  0  0  0  0  0  0  0
  190.8220  172.4110  143.4310 O   0  0  0  0  0  0  0  0  0  0  0  0
  194.5590  174.2620  142.7430 C   0  0  0  0  0  0  0  0  0  0  0  0
  184.7620  177.4890  146.1740 C   0  0  0  0  0  3  0  0  0  0  0  0
  184.5620  178.4280  147.0370 N   0  0  0  0  0  2  0  0  0  0  0  0
  1  4  1  0  0  0  0
  1  3  1  0  0  0  0
  2  5  1  0  0  0  0
  2  4  2  0  0  0  0
  3 18  2  0  0  0  0
  4 10  1  0  0  0  0
  5 17  2  0  0  0  0
  6 19  1  0  0  0  0
  7 14  1  6  0  0  0
  7  2  1  0  0  0  0
  8  9  1  0  0  0  0
  9 11  1  0  0  0  0
 10 12  1  0  0  0  0
 10 13  1  1  0  0  0
 11  5  1  0  0  0  0
 14 15  1  0  0  0  0
 15  1  2  0  0  0  0
 16  9  2  0  0  0  0
 16  7  1  0  0  0  0
 17 31  1  0  0  0  0
 17 12  1  0  0  0  0
 18 13  1  0  0  0  0
 19 20  2  0  0  0  0
 19  8  1  0  0  0  0
 20 16  1  0  0  0  0
 21 26  1  0  0  0  0
 21 23  1  1  0  0  0
 24 27  1  0  0  0  0
 24 30  1  0  0  0  0
 25 28  1  0  0  0  0
 25 15  1  6  0  0  0
 27 25  1  0  0  0  0
 28 21  1  0  0  0  0
 29 28  2  0  0  0  0
 30 22  2  0  0  0  0
 30 26  1  0  0  0  0
 31 32  2  0  0  0  0
M  END
>  <MODEL>
6

>  <REMARK>
 VINA RESULT:      -7.7      2.570      3.089
  Name = 
  2 active torsions:
  status: ('A' for Active; 'I' for Inactive)
    1  A    between atoms: C_13  and  C_29
    2  A    between atoms: C_16  and  C_27
                            x       y       z     vdW  Elec       q    Type
                         _______ _______ _______ _____ _____    ______ ____

>  <TORSDO>
F 2

$$$$
=
 OpenBabel11052419173D

 32 37  0  0  1  0  0  0  0  0999 V2000
  186.6030  178.0380  144.9370 C   0  0  0  0  0  0  0  0  0  0  0  0
  185.4570  178.2060  142.7600 C   0  0  0  0  0  0  0  0  0  0  0  0
  186.5340  178.4010  146.3690 C   0  0  0  0  0  3  0  0  0  0  0  0
  185.4230  178.3640  144.0940 C   0  0  0  0  0  0  0  0  0  0  0  0
  184.2170  178.4320  141.9510 C   0  0  0  0  0  0  0  0  0  0  0  0
  187.2650  175.6670  137.5670 C   0  0  0  0  0  1  0  0  0  0  0  0
  186.7760  177.8490  142.0960 C   0  0  1  0  0  3  0  0  0  0  0  0
  185.5610  176.9650  138.7990 O   0  0  0  0  0  0  0  0  0  0  0  0
  185.4290  177.5090  139.9810 C   0  0  0  0  0  0  0  0  0  0  0  0
  184.2350  179.0320  144.7370 C   0  0  1  0  0  3  0  0  0  0  0  0
  184.2570  178.3140  140.4410 C   0  0  0  0  0  2  0  0  0  0  0  0
  183.0430  178.7960  143.9880 O   0  0  0  0  0  0  0  0  0  0  0  0
  184.0660  178.5800  146.1870 C   0  0  0  0  0  2  0  0  0  0  0  0
  187.5960  176.9070  142.9810 C   0  0  0  0  0  2  0  0  0  0  0  0
  187.6740  177.4140  144.3950 C   0  0  0  0  0  0  0  0  0  0  0  0
  186.5540  177.2760  140.7310 C   0  0  0  0  0  0  0  0  0  0  0  0
  183.0580  178.6910  142.5900 C   0  0  0  0  0  0  0  0  0  0  0  0
  185.3630  178.6970  146.9440 C   0  0  0  0  0  3  0  0  0  0  0  0
  186.7450  176.3940  138.7550 C   0  0  0  0  0  0  0  0  0  0  0  0
  187.4420  176.5640  139.9430 C   0  0  0  0  0  3  0  0  0  0  0  0
  191.5100  176.7840  144.7520 C   0  0  2  0  0  3  0  0  0  0  0  0
  190.8190  175.1140  147.9540 O   0  0  0  0  0  0  0  0  0  0  0  0
  192.0080  176.2050  143.5980 F   0  0  0  0  0  0  0  0  0  0  0  0
  190.1950  177.3440  147.3890 C   0  0  0  0  0  2  0  0  0  0  0  0
  188.9360  177.1050  145.1580 C   0  0  2  0  0  3  0  0  0  0  0  0
  191.3650  175.7580  145.7850 N   0  0  0  0  0  2  0  0  0  0  0  0
  188.8750  177.5340  146.6340 C   0  0  0  0  0  2  0  0  0  0  0  0
  190.2140  177.4930  144.4480 C   0  0  0  0  0  0  0  0  0  0  0  0
  190.2240  178.4250  143.6580 O   0  0  0  0  0  0  0  0  0  0  0  0
  190.8180  176.0200  147.0820 C   0  0  0  0  0  0  0  0  0  0  0  0
  181.7950  178.8360  141.8530 C   0  0  0  0  0  3  0  0  0  0  0  0
  180.7120  179.1900  142.4610 N   0  0  0  0  0  2  0  0  0  0  0  0
  1  3  1  0  0  0  0
  2  4  2  0  0  0  0
  3 18  2  0  0  0  0
  4 10  1  0  0  0  0
  4  1  1  0  0  0  0
  5 17  2  0  0  0  0
  5  2  1  0  0  0  0
  6 19  1  0  0  0  0
  7  2  1  0  0  0  0
  7 14  1  1  0  0  0
  8  9  1  0  0  0  0
  9 11  1  0  0  0  0
  9 16  2  0  0  0  0
 10 13  1  1  0  0  0
 11  5  1  0  0  0  0
 12 10  1  0  0  0  0
 13 18  1  0  0  0  0
 14 15  1  0  0  0  0
 15  1  2  0  0  0  0
 16  7  1  0  0  0  0
 17 12  1  0  0  0  0
 19  8  1  0  0  0  0
 19 20  2  0  0  0  0
 20 16  1  0  0  0  0
 21 23  1  6  0  0  0
 21 26  1  0  0  0  0
 25 15  1  6  0  0  0
 25 27  1  0  0  0  0
 26 30  1  0  0  0  0
 27 24  1  0  0  0  0
 28 21  1  0  0  0  0
 28 25  1  0  0  0  0
 29 28  2  0  0  0  0
 30 24  1  0  0  0  0
 30 22  2  0  0  0  0
 31 32  2  0  0  0  0
 31 17  1  0  0  0  0
M  END
>  <MODEL>
7

>  <REMARK>
 VINA RESULT:      -7.6      3.291      5.801
  Name = 
  2 active torsions:
  status: ('A' for Active; 'I' for Inactive)
    1  A    between atoms: C_13  and  C_29
    2  A    between atoms: C_16  and  C_27
                            x       y       z     vdW  Elec       q    Type
                         _______ _______ _______ _____ _____    ______ ____

>  <TORSDO>
F 2

$$$$
=
 OpenBabel11052419173D

 32 37  0  0  1  0  0  0  0  0999 V2000
  189.1040  175.8220  143.4510 C   0  0  0  0  0  0  0  0  0  0  0  0
  187.0100  176.8970  144.1890 C   0  0  0  0  0  0  0  0  0  0  0  0
  189.7320  175.0000  142.3950 C   0  0  0  0  0  3  0  0  0  0  0  0
  187.7080  176.2750  143.2220 C   0  0  0  0  0  0  0  0  0  0  0  0
  185.6480  177.4450  143.8910 C   0  0  0  0  0  0  0  0  0  0  0  0
  186.3170  180.3760  149.0980 C   0  0  0  0  0  1  0  0  0  0  0  0
  187.6060  176.9850  145.5830 C   0  0  1  0  0  3  0  0  0  0  0  0
  185.3410  179.4050  147.0450 O   0  0  0  0  0  0  0  0  0  0  0  0
  185.6880  178.5430  146.1250 C   0  0  0  0  0  0  0  0  0  0  0  0
  187.0190  175.8820  141.9400 C   0  0  1  0  0  3  0  0  0  0  0  0
  184.8300  178.0970  144.9860 C   0  0  0  0  0  2  0  0  0  0  0  0
  185.9610  176.7860  141.6260 O   0  0  0  0  0  0  0  0  0  0  0  0
  188.0160  175.7880  140.7860 C   0  0  0  0  0  2  0  0  0  0  0  0
  189.1250  177.1720  145.5190 C   0  0  0  0  0  2  0  0  0  0  0  0
  189.7580  176.1810  144.5800 C   0  0  0  0  0  0  0  0  0  0  0  0
  186.9480  178.0650  146.3830 C   0  0  0  0  0  0  0  0  0  0  0  0
  185.1870  177.3940  142.6250 C   0  0  0  0  0  0  0  0  0  0  0  0
  189.2060  174.9460  141.1670 C   0  0  0  0  0  3  0  0  0  0  0  0
  186.3360  179.4930  147.9020 C   0  0  0  0  0  0  0  0  0  0  0  0
  187.3870  178.6560  147.5550 C   0  0  0  0  0  3  0  0  0  0  0  0
  193.6370  176.0530  144.1590 C   0  0  2  0  0  3  0  0  0  0  0  0
  193.6130  172.8630  145.9880 O   0  0  0  0  0  0  0  0  0  0  0  0
  193.9800  176.2540  142.8340 F   0  0  0  0  0  0  0  0  0  0  0  0
  192.7370  174.9300  146.7900 C   0  0  0  0  0  2  0  0  0  0  0  0
  191.1490  175.7140  144.9250 C   0  0  2  0  0  3  0  0  0  0  0  0
  193.7430  174.6290  144.4760 N   0  0  0  0  0  2  0  0  0  0  0  0
  191.3000  175.2850  146.3940 C   0  0  0  0  0  2  0  0  0  0  0  0
  192.2590  176.6080  144.4190 C   0  0  0  0  0  0  0  0  0  0  0  0
  192.0670  177.8050  144.2650 O   0  0  0  0  0  0  0  0  0  0  0  0
  193.4000  174.0800  145.7540 C   0  0  0  0  0  0  0  0  0  0  0  0
  183.8950  177.9920  142.2580 C   0  0  0  0  0  3  0  0  0  0  0  0
  183.6320  178.2970  141.0310 N   0  0  0  0  0  2  0  0  0  0  0  0
  1 15  2  0  0  0  0
  2  7  1  0  0  0  0
  3  1  1  0  0  0  0
  4  1  1  0  0  0  0
  4  2  2  0  0  0  0
  5  2  1  0  0  0  0
  5 11  1  0  0  0  0
  7 14  1  6  0  0  0
  7 16  1  0  0  0  0
  8 19  1  0  0  0  0
  9 16  2  0  0  0  0
  9  8  1  0  0  0  0
 10 13  1  6  0  0  0
 10  4  1  0  0  0  0
 11  9  1  0  0  0  0
 12 10  1  0  0  0  0
 12 17  1  0  0  0  0
 13 18  1  0  0  0  0
 15 14  1  0  0  0  0
 16 20  1  0  0  0  0
 17  5  2  0  0  0  0
 18  3  2  0  0  0  0
 19  6  1  0  0  0  0
 20 19  2  0  0  0  0
 21 23  1  6  0  0  0
 21 28  1  0  0  0  0
 21 26  1  0  0  0  0
 25 15  1  1  0  0  0
 25 27  1  0  0  0  0
 26 30  1  0  0  0  0
 27 24  1  0  0  0  0
 28 25  1  0  0  0  0
 29 28  2  0  0  0  0
 30 22  2  0  0  0  0
 30 24  1  0  0  0  0
 31 17  1  0  0  0  0
 32 31  2  0  0  0  0
M  END
>  <MODEL>
8

>  <REMARK>
 VINA RESULT:      -7.5      3.015      5.363
  Name = 
  2 active torsions:
  status: ('A' for Active; 'I' for Inactive)
    1  A    between atoms: C_13  and  C_29
    2  A    between atoms: C_16  and  C_27
                            x       y       z     vdW  Elec       q    Type
                         _______ _______ _______ _____ _____    ______ ____

>  <TORSDO>
F 2

$$$$
=
 OpenBabel11052419173D

 32 37  0  0  1  0  0  0  0  0999 V2000
  189.4140  174.9060  144.4990 C   0  0  0  0  0  0  0  0  0  0  0  0
  187.8000  176.7700  144.5530 C   0  0  0  0  0  0  0  0  0  0  0  0
  190.4360  174.1700  145.2740 C   0  0  0  0  0  3  0  0  0  0  0  0
  188.6400  175.9540  145.2130 C   0  0  0  0  0  0  0  0  0  0  0  0
  186.9490  177.7380  145.3160 C   0  0  0  0  0  0  0  0  0  0  0  0
  183.9430  178.2870  140.1380 C   0  0  0  0  0  1  0  0  0  0  0  0
  187.7730  176.7240  143.0350 C   0  0  1  0  0  3  0  0  0  0  0  0
  184.7700  178.6600  142.4360 O   0  0  0  0  0  0  0  0  0  0  0  0
  185.7500  178.2360  143.1910 C   0  0  0  0  0  0  0  0  0  0  0  0
  188.9310  176.2030  146.6720 C   0  0  1  0  0  3  0  0  0  0  0  0
  186.0410  178.7020  144.5800 C   0  0  0  0  0  2  0  0  0  0  0  0
  187.8130  176.8010  147.3250 O   0  0  0  0  0  0  0  0  0  0  0  0
  189.3490  174.9140  147.3770 C   0  0  0  0  0  2  0  0  0  0  0  0
  187.9790  175.2950  142.5280 C   0  0  0  0  0  2  0  0  0  0  0  0
  189.1570  174.6410  143.1970 C   0  0  0  0  0  0  0  0  0  0  0  0
  186.5120  177.3270  142.5010 C   0  0  0  0  0  0  0  0  0  0  0  0
  186.9650  177.7020  146.6640 C   0  0  0  0  0  0  0  0  0  0  0  0
  190.4370  174.2060  146.6110 C   0  0  0  0  0  3  0  0  0  0  0  0
  184.8790  178.0610  141.2700 C   0  0  0  0  0  0  0  0  0  0  0  0
  185.9750  177.2100  141.2300 C   0  0  0  0  0  3  0  0  0  0  0  0
  191.8220  173.5690  140.5530 C   0  0  2  0  0  3  0  0  0  0  0  0
  190.0830  170.3400  140.2820 O   0  0  0  0  0  0  0  0  0  0  0  0
  191.9400  174.5380  139.5740 F   0  0  0  0  0  0  0  0  0  0  0  0
  190.9540  171.2830  142.2910 C   0  0  0  0  0  2  0  0  0  0  0  0
  189.9360  173.6440  142.3780 C   0  0  2  0  0  3  0  0  0  0  0  0
  191.0310  172.4520  140.0350 N   0  0  0  0  0  2  0  0  0  0  0  0
  190.0580  172.2670  143.0510 C   0  0  0  0  0  2  0  0  0  0  0  0
  191.2300  174.1730  141.8010 C   0  0  0  0  0  0  0  0  0  0  0  0
  191.8420  175.0640  142.3720 O   0  0  0  0  0  0  0  0  0  0  0  0
  190.6760  171.3090  140.8220 C   0  0  0  0  0  0  0  0  0  0  0  0
  186.0870  178.5690  147.4630 C   0  0  0  0  0  3  0  0  0  0  0  0
  184.8240  178.3190  147.5620 N   0  0  0  0  0  2  0  0  0  0  0  0
  1  4  1  0  0  0  0
  1  3  1  0  0  0  0
  2  4  2  0  0  0  0
  2  5  1  0  0  0  0
  3 18  2  0  0  0  0
  4 10  1  0  0  0  0
  5 17  2  0  0  0  0
  6 19  1  0  0  0  0
  7 14  1  1  0  0  0
  7  2  1  0  0  0  0
  8  9  1  0  0  0  0
  9 11  1  0  0  0  0
 10 12  1  0  0  0  0
 10 13  1  1  0  0  0
 11  5  1  0  0  0  0
 14 15  1  0  0  0  0
 15  1  2  0  0  0  0
 16  7  1  0  0  0  0
 16  9  2  0  0  0  0
 17 12  1  0  0  0  0
 17 31  1  0  0  0  0
 18 13  1  0  0  0  0
 19  8  1  0  0  0  0
 20 19  2  0  0  0  0
 20 16  1  0  0  0  0
 21 23  1  6  0  0  0
 21 28  1  0  0  0  0
 22 30  2  0  0  0  0
 24 27  1  0  0  0  0
 25 27  1  0  0  0  0
 25 15  1  1  0  0  0
 26 21  1  0  0  0  0
 26 30  1  0  0  0  0
 28 29  2  0  0  0  0
 28 25  1  0  0  0  0
 30 24  1  0  0  0  0
 31 32  2  0  0  0  0
M  END
>  <MODEL>
9

>  <REMARK>
 VINA RESULT:      -7.4      1.731      2.098
  Name = 
  2 active torsions:
  status: ('A' for Active; 'I' for Inactive)
    1  A    between atoms: C_13  and  C_29
    2  A    between atoms: C_16  and  C_27
                            x       y       z     vdW  Elec       q    Type
                         _______ _______ _______ _____ _____    ______ ____

>  <TORSDO>
F 2

$$$$
