=
 OpenBabel11052419123D

 32 37  0  0  1  0  0  0  0  0999 V2000
  189.4650  175.5800  144.5200 C   0  0  0  0  0  0  0  0  0  0  0  0
  187.2760  176.6010  144.2220 N   0  0  0  0  0  0  0  0  0  0  0  0
  190.4700  174.9710  145.4170 C   0  0  0  0  0  3  0  0  0  0  0  0
  188.2730  176.0550  145.0800 C   0  0  1  0  0  3  0  0  0  0  0  0
  186.0450  177.0840  144.7670 C   0  0  0  0  0  0  0  0  0  0  0  0
  185.5940  177.8370  139.8470 C   0  0  0  0  0  3  0  0  0  0  0  0
  187.4970  176.6580  142.8160 C   0  0  0  0  0  0  0  0  0  0  0  0
  184.2770  178.2000  141.8480 C   0  0  0  0  0  3  0  0  0  0  0  0
  185.2970  177.6570  142.6340 C   0  0  0  0  0  0  0  0  0  0  0  0
  188.0190  176.0020  146.4560 C   0  0  0  0  0  0  0  0  0  0  0  0
  185.1240  177.5850  143.9540 O   0  0  0  0  0  0  0  0  0  0  0  0
  186.8360  176.4750  146.9410 N   0  0  0  0  0  0  0  0  0  0  0  0
  189.0410  175.4470  147.4140 C   0  0  0  0  0  3  0  0  0  0  0  0
  188.7090  176.1720  142.3220 C   0  0  0  0  0  3  0  0  0  0  0  0
  189.6610  175.6570  143.1580 N   0  0  0  0  0  0  0  0  0  0  0  0
  186.4870  177.1960  142.0120 C   0  0  0  0  0  0  0  0  0  0  0  0
  185.8560  177.0050  146.1510 C   0  0  0  0  0  0  0  0  0  0  0  0
  190.2760  174.9040  146.7370 C   0  0  0  0  0  3  0  0  0  0  0  0
  184.4230  178.2900  140.4600 C   0  0  0  0  0  3  0  0  0  0  0  0
  186.6240  177.2920  140.6180 C   0  0  0  0  0  3  0  0  0  0  0  0
  193.1910  175.5300  141.8990 C   0  0  0  0  0  0  0  0  0  0  0  0
  194.2970  176.3120  141.8410 F   0  0  0  0  0  0  0  0  0  0  0  0
  190.8770  175.1870  142.5540 C   0  0  0  0  0  0  0  0  0  0  0  0
  193.2270  174.2450  141.3530 C   0  0  0  0  0  3  0  0  0  0  0  0
  190.9220  173.9010  141.9950 C   0  0  0  0  0  3  0  0  0  0  0  0
  192.0180  176.0070  142.4940 C   0  0  0  0  0  0  0  0  0  0  0  0
  191.9850  177.2970  143.0140 O   0  0  0  0  0  1  0  0  0  0  0  0
  192.0900  173.4230  141.3960 C   0  0  0  0  0  0  0  0  0  0  0  0
  190.9050  171.4510  140.4910 C   0  0  0  0  0  1  0  0  0  0  0  0
  192.0950  172.1350  140.8540 O   0  0  0  0  0  0  0  0  0  0  0  0
  184.6110  177.4900  146.7570 C   0  0  0  0  0  3  0  0  0  0  0  0
  184.5360  178.6510  147.2370 O   0  0  0  0  0  0  0  0  0  0  0  0
  1  3  2  0  0  0  0
  2  5  1  0  0  0  0
  2  4  1  0  0  0  0
  3 18  1  0  0  0  0
  4  1  1  6  0  0  0
  4 10  1  0  0  0  0
  5 17  2  0  0  0  0
  6 19  2  0  0  0  0
  6 20  1  0  0  0  0
  7  2  1  0  0  0  0
  8  9  2  0  0  0  0
  9 11  1  0  0  0  0
 10 12  2  0  0  0  0
 10 13  1  0  0  0  0
 11  5  1  0  0  0  0
 14  7  2  0  0  0  0
 14 15  1  0  0  0  0
 15  1  1  0  0  0  0
 16  9  1  0  0  0  0
 16  7  1  0  0  0  0
 17 31  1  0  0  0  0
 17 12  1  0  0  0  0
 18 13  2  0  0  0  0
 19  8  1  0  0  0  0
 20 16  2  0  0  0  0
 21 26  1  0  0  0  0
 22 21  1  0  0  0  0
 23 15  1  0  0  0  0
 24 28  1  0  0  0  0
 24 21  2  0  0  0  0
 25 23  1  0  0  0  0
 26 23  2  0  0  0  0
 26 27  1  0  0  0  0
 28 25  2  0  0  0  0
 29 30  1  0  0  0  0
 30 28  1  0  0  0  0
 31 32  2  0  0  0  0
M  END
>  <MODEL>
1

>  <REMARK>
 VINA RESULT:      -8.1      0.000      0.000
  Name = 
  3 active torsions:
  status: ('A' for Active; 'I' for Inactive)
    1  A    between atoms: C_13  and  CA_29
    2  A    between atoms: O_15  and  C_26
    3  A    between atoms: C_16  and  N_27
                            x       y       z     vdW  Elec       q    Type
                         _______ _______ _______ _____ _____    ______ ____

>  <TORSDO>
F 3

$$$$
=
 OpenBabel11052419123D

 32 37  0  0  1  0  0  0  0  0999 V2000
  189.6170  175.4560  144.4330 C   0  0  0  0  0  0  0  0  0  0  0  0
  187.4370  176.5070  144.1800 N   0  0  0  0  0  0  0  0  0  0  0  0
  190.6310  174.8310  145.3090 C   0  0  0  0  0  3  0  0  0  0  0  0
  188.4430  175.9450  145.0170 C   0  0  1  0  0  3  0  0  0  0  0  0
  186.2240  177.0050  144.7500 C   0  0  0  0  0  0  0  0  0  0  0  0
  185.6870  177.7760  139.8410 C   0  0  0  0  0  3  0  0  0  0  0  0
  187.6300  176.5640  142.7700 C   0  0  0  0  0  0  0  0  0  0  0  0
  184.4140  178.1520  141.8680 C   0  0  0  0  0  3  0  0  0  0  0  0
  185.4410  177.5940  142.6330 C   0  0  0  0  0  0  0  0  0  0  0  0
  188.2150  175.8930  146.3980 C   0  0  0  0  0  0  0  0  0  0  0  0
  185.2930  177.5200  143.9560 O   0  0  0  0  0  0  0  0  0  0  0  0
  187.0480  176.3810  146.9070 N   0  0  0  0  0  0  0  0  0  0  0  0
  189.2470  175.3210  147.3340 C   0  0  0  0  0  3  0  0  0  0  0  0
  188.8270  176.0630  142.2510 C   0  0  0  0  0  3  0  0  0  0  0  0
  189.7880  175.5330  143.0680 N   0  0  0  0  0  0  0  0  0  0  0  0
  186.6130  177.1180  141.9870 C   0  0  0  0  0  0  0  0  0  0  0  0
  186.0600  176.9260  146.1370 C   0  0  0  0  0  0  0  0  0  0  0  0
  190.4620  174.7630  146.6320 C   0  0  0  0  0  3  0  0  0  0  0  0
  184.5340  178.2440  140.4780 C   0  0  0  0  0  3  0  0  0  0  0  0
  186.7240  177.2150  140.5910 C   0  0  0  0  0  3  0  0  0  0  0  0
  192.2000  173.3170  141.2430 C   0  0  0  0  0  0  0  0  0  0  0  0
  192.2440  172.0910  140.6660 F   0  0  0  0  0  0  0  0  0  0  0  0
  190.9850  175.0470  142.4390 C   0  0  0  0  0  0  0  0  0  0  0  0
  193.3410  174.1220  141.2370 C   0  0  0  0  0  3  0  0  0  0  0  0
  192.1390  175.8430  142.4350 C   0  0  0  0  0  3  0  0  0  0  0  0
  191.0230  173.7720  141.8470 C   0  0  0  0  0  0  0  0  0  0  0  0
  189.8990  172.9520  141.8680 O   0  0  0  0  0  1  0  0  0  0  0  0
  193.3180  175.3910  141.8370 C   0  0  0  0  0  0  0  0  0  0  0  0
  195.3990  176.1940  142.9020 C   0  0  0  0  0  1  0  0  0  0  0  0
  194.4450  176.2170  141.8510 O   0  0  0  0  0  0  0  0  0  0  0  0
  184.8340  177.4260  146.7680 C   0  0  0  0  0  3  0  0  0  0  0  0
  184.7690  178.6020  147.2120 O   0  0  0  0  0  0  0  0  0  0  0  0
  1  3  2  0  0  0  0
  2  5  1  0  0  0  0
  2  4  1  0  0  0  0
  3 18  1  0  0  0  0
  4  1  1  6  0  0  0
  4 10  1  0  0  0  0
  5 17  2  0  0  0  0
  6 19  2  0  0  0  0
  6 20  1  0  0  0  0
  7  2  1  0  0  0  0
  8  9  2  0  0  0  0
  9 11  1  0  0  0  0
 10 12  2  0  0  0  0
 10 13  1  0  0  0  0
 11  5  1  0  0  0  0
 14  7  2  0  0  0  0
 14 15  1  0  0  0  0
 15  1  1  0  0  0  0
 16  9  1  0  0  0  0
 16  7  1  0  0  0  0
 17 31  1  0  0  0  0
 17 12  1  0  0  0  0
 18 13  2  0  0  0  0
 19  8  1  0  0  0  0
 20 16  2  0  0  0  0
 21 26  1  0  0  0  0
 22 21  1  0  0  0  0
 23 15  1  0  0  0  0
 24 21  2  0  0  0  0
 24 28  1  0  0  0  0
 25 23  1  0  0  0  0
 26 27  1  0  0  0  0
 26 23  2  0  0  0  0
 28 30  1  0  0  0  0
 28 25  2  0  0  0  0
 30 29  1  0  0  0  0
 31 32  2  0  0  0  0
M  END
>  <MODEL>
2

>  <REMARK>
 VINA RESULT:      -8.0      1.198      2.124
  Name = 
  3 active torsions:
  status: ('A' for Active; 'I' for Inactive)
    1  A    between atoms: C_13  and  CA_29
    2  A    between atoms: O_15  and  C_26
    3  A    between atoms: C_16  and  N_27
                            x       y       z     vdW  Elec       q    Type
                         _______ _______ _______ _____ _____    ______ ____

>  <TORSDO>
F 3

$$$$
=
 OpenBabel11052419123D

 32 37  0  0  0  0  0  0  0  0999 V2000
  189.1180  174.6110  142.7900 C   0  0  0  0  0  0  0  0  0  0  0  0
  191.4130  174.0610  143.3850 N   0  0  0  0  0  0  0  0  0  0  0  0
  187.8900  174.2850  142.0320 C   0  0  0  0  0  3  0  0  0  0  0  0
  190.2390  173.7880  142.6260 C   0  0  0  0  0  0  0  0  0  0  0  0
  192.5690  173.2310  143.2440 C   0  0  0  0  0  0  0  0  0  0  0  0
  193.9030  176.6360  146.6500 C   0  0  0  0  0  3  0  0  0  0  0  0
  191.4360  175.1560  144.2960 C   0  0  0  0  0  0  0  0  0  0  0  0
  194.8930  174.7240  145.5390 C   0  0  0  0  0  3  0  0  0  0  0  0
  193.7120  174.5130  144.8220 C   0  0  0  0  0  0  0  0  0  0  0  0
  190.2460  172.6970  141.7490 C   0  0  0  0  0  0  0  0  0  0  0  0
  193.6530  173.4950  143.9630 O   0  0  0  0  0  0  0  0  0  0  0  0
  191.3670  171.9290  141.6380 N   0  0  0  0  0  0  0  0  0  0  0  0
  189.0380  172.3660  140.9110 C   0  0  0  0  0  2  0  0  0  0  0  0
  190.2860  175.9400  144.4090 C   0  0  0  0  0  3  0  0  0  0  0  0
  189.1680  175.6710  143.6680 N   0  0  0  0  0  0  0  0  0  0  0  0
  192.6080  175.3830  145.0250 C   0  0  0  0  0  0  0  0  0  0  0  0
  192.5110  172.1590  142.3480 C   0  0  0  0  0  0  0  0  0  0  0  0
  187.8500  173.2590  141.1790 C   0  0  0  0  0  3  0  0  0  0  0  0
  194.9900  175.7800  146.4500 C   0  0  0  0  0  3  0  0  0  0  0  0
  192.7160  176.4400  145.9410 C   0  0  0  0  0  3  0  0  0  0  0  0
  186.6930  178.4450  143.1720 C   0  0  0  0  0  0  0  0  0  0  0  0
  186.4540  179.4780  142.3280 F   0  0  0  0  0  0  0  0  0  0  0  0
  188.0370  176.5380  143.8520 C   0  0  0  0  0  0  0  0  0  0  0  0
  185.8320  178.2220  144.2490 C   0  0  0  0  0  3  0  0  0  0  0  0
  187.1710  176.3290  144.9340 C   0  0  0  0  0  3  0  0  0  0  0  0
  187.7990  177.6110  142.9730 C   0  0  0  0  0  0  0  0  0  0  0  0
  188.6640  177.8560  141.9110 O   0  0  0  0  0  1  0  0  0  0  0  0
  186.0680  177.1620  145.1390 C   0  0  0  0  0  0  0  0  0  0  0  0
  184.3290  177.8930  146.7380 C   0  0  0  0  0  1  0  0  0  0  0  0
  185.2270  176.9180  146.2270 O   0  0  0  0  0  0  0  0  0  0  0  0
  193.6720  171.2810  142.1680 C   0  0  0  0  0  3  0  0  0  0  0  0
  193.8350  170.2670  142.8960 O   0  0  0  0  0  0  0  0  0  0  0  0
  1 15  1  0  0  0  0
  2  7  1  0  0  0  0
  3  1  1  0  0  0  0
  4  1  2  0  0  0  0
  4  2  1  0  0  0  0
  5  2  1  0  0  0  0
  5 11  1  0  0  0  0
  7 14  2  0  0  0  0
  7 16  1  0  0  0  0
  8 19  2  0  0  0  0
  9 16  2  0  0  0  0
  9  8  1  0  0  0  0
 10  4  1  0  0  0  0
 11  9  1  0  0  0  0
 12 10  2  0  0  0  0
 12 17  1  0  0  0  0
 13 18  1  0  0  0  0
 13 10  1  0  0  0  0
 15 23  1  0  0  0  0
 15 14  1  0  0  0  0
 16 20  1  0  0  0  0
 17  5  2  0  0  0  0
 18  3  2  0  0  0  0
 19  6  1  0  0  0  0
 20  6  2  0  0  0  0
 21 24  1  0  0  0  0
 22 21  1  0  0  0  0
 23 25  2  0  0  0  0
 24 28  2  0  0  0  0
 25 28  1  0  0  0  0
 26 21  2  0  0  0  0
 26 23  1  0  0  0  0
 27 26  1  0  0  0  0
 28 30  1  0  0  0  0
 30 29  1  0  0  0  0
 31 17  1  0  0  0  0
 31 32  2  0  0  0  0
M  END
>  <MODEL>
3

>  <REMARK>
 VINA RESULT:      -7.2      2.887      7.926
  Name = 
  3 active torsions:
  status: ('A' for Active; 'I' for Inactive)
    1  A    between atoms: C_13  and  CA_29
    2  A    between atoms: O_15  and  C_26
    3  A    between atoms: C_16  and  N_27
                            x       y       z     vdW  Elec       q    Type
                         _______ _______ _______ _____ _____    ______ ____

>  <TORSDO>
F 3

$$$$
=
 OpenBabel11052419123D

 32 37  0  0  1  0  0  0  0  0999 V2000
  191.2300  174.6890  144.6580 C   0  0  0  0  0  0  0  0  0  0  0  0
  189.8610  176.2710  145.9010 N   0  0  0  0  0  0  0  0  0  0  0  0
  192.5030  173.9490  144.5150 C   0  0  0  0  0  3  0  0  0  0  0  0
  191.0980  175.5870  145.7230 C   0  0  1  0  0  3  0  0  0  0  0  0
  189.6960  177.1860  146.9860 C   0  0  0  0  0  0  0  0  0  0  0  0
  185.2900  177.2610  144.6290 C   0  0  0  0  0  3  0  0  0  0  0  0
  188.7800  176.0360  145.0040 C   0  0  0  0  0  0  0  0  0  0  0  0
  186.3160  178.3190  146.5520 C   0  0  0  0  0  3  0  0  0  0  0  0
  187.5030  177.6200  146.3200 C   0  0  0  0  0  0  0  0  0  0  0  0
  192.1360  175.8310  146.6310 C   0  0  0  0  0  0  0  0  0  0  0  0
  188.5350  177.8120  147.1420 O   0  0  0  0  0  0  0  0  0  0  0  0
  191.9440  176.7130  147.6520 N   0  0  0  0  0  0  0  0  0  0  0  0
  193.4700  175.1470  146.4870 C   0  0  0  0  0  3  0  0  0  0  0  0
  188.9790  175.1310  143.9580 C   0  0  0  0  0  3  0  0  0  0  0  0
  190.1750  174.4870  143.7950 N   0  0  0  0  0  0  0  0  0  0  0  0
  187.5830  176.7250  145.2200 C   0  0  0  0  0  0  0  0  0  0  0  0
  190.7740  177.3870  147.8550 C   0  0  0  0  0  0  0  0  0  0  0  0
  193.5240  174.1530  145.3520 C   0  0  0  0  0  3  0  0  0  0  0  0
  185.2130  178.1410  145.7110 C   0  0  0  0  0  3  0  0  0  0  0  0
  186.4690  176.5540  144.3820 C   0  0  0  0  0  3  0  0  0  0  0  0
  190.2680  171.3220  141.7860 C   0  0  0  0  0  0  0  0  0  0  0  0
  190.1440  169.9830  141.9600 F   0  0  0  0  0  0  0  0  0  0  0  0
  190.2830  173.5780  142.6880 C   0  0  0  0  0  0  0  0  0  0  0  0
  190.5160  171.8310  140.5090 C   0  0  0  0  0  3  0  0  0  0  0  0
  190.5400  174.0770  141.4030 C   0  0  0  0  0  3  0  0  0  0  0  0
  190.1570  172.1900  142.8780 C   0  0  0  0  0  0  0  0  0  0  0  0
  189.9340  171.6710  144.1500 O   0  0  0  0  0  1  0  0  0  0  0  0
  190.6560  173.2130  140.3110 C   0  0  0  0  0  0  0  0  0  0  0  0
  189.9440  173.7450  138.0030 C   0  0  0  0  0  1  0  0  0  0  0  0
  190.9090  173.7510  139.0460 O   0  0  0  0  0  0  0  0  0  0  0  0
  190.6520  178.3190  148.9820 C   0  0  0  0  0  3  0  0  0  0  0  0
  191.5000  178.3200  149.9140 O   0  0  0  0  0  0  0  0  0  0  0  0
  2  5  1  0  0  0  0
  3  1  2  0  0  0  0
  3 18  1  0  0  0  0
  4  1  1  1  0  0  0
  4  2  1  0  0  0  0
  4 10  1  0  0  0  0
  5 11  1  0  0  0  0
  5 17  2  0  0  0  0
  6 19  1  0  0  0  0
  7 16  1  0  0  0  0
  7  2  1  0  0  0  0
  9  8  1  0  0  0  0
  9 11  1  0  0  0  0
 10 12  2  0  0  0  0
 12 17  1  0  0  0  0
 13 10  1  0  0  0  0
 14  7  2  0  0  0  0
 15 14  1  0  0  0  0
 15  1  1  0  0  0  0
 16  9  2  0  0  0  0
 17 31  1  0  0  0  0
 18 13  2  0  0  0  0
 19  8  2  0  0  0  0
 20  6  2  0  0  0  0
 20 16  1  0  0  0  0
 21 22  1  0  0  0  0
 21 26  1  0  0  0  0
 23 26  2  0  0  0  0
 23 15  1  0  0  0  0
 24 21  2  0  0  0  0
 25 23  1  0  0  0  0
 26 27  1  0  0  0  0
 28 24  1  0  0  0  0
 28 25  2  0  0  0  0
 29 30  1  0  0  0  0
 30 28  1  0  0  0  0
 31 32  2  0  0  0  0
M  END
>  <MODEL>
4

>  <REMARK>
 VINA RESULT:      -7.2      2.972      4.277
  Name = 
  3 active torsions:
  status: ('A' for Active; 'I' for Inactive)
    1  A    between atoms: C_13  and  CA_29
    2  A    between atoms: O_15  and  C_26
    3  A    between atoms: C_16  and  N_27
                            x       y       z     vdW  Elec       q    Type
                         _______ _______ _______ _____ _____    ______ ____

>  <TORSDO>
F 3

$$$$
=
 OpenBabel11052419123D

 32 37  0  0  1  0  0  0  0  0999 V2000
  190.6360  175.7970  145.2760 C   0  0  0  0  0  0  0  0  0  0  0  0
  191.3920  174.3360  143.4830 N   0  0  0  0  0  0  0  0  0  0  0  0
  190.9490  176.5940  146.4820 C   0  0  0  0  0  3  0  0  0  0  0  0
  191.6680  175.0710  144.6720 C   0  0  1  0  0  3  0  0  0  0  0  0
  192.4300  173.5950  142.8390 C   0  0  0  0  0  0  0  0  0  0  0  0
  188.4100  172.8300  139.9710 C   0  0  0  0  0  3  0  0  0  0  0  0
  190.0810  174.3480  142.9250 C   0  0  0  0  0  0  0  0  0  0  0  0
  190.7390  172.1660  140.0110 C   0  0  0  0  0  3  0  0  0  0  0  0
  190.9440  172.9030  141.1800 C   0  0  0  0  0  0  0  0  0  0  0  0
  192.9700  175.0490  145.1860 C   0  0  0  0  0  0  0  0  0  0  0  0
  192.1580  172.9190  141.7290 O   0  0  0  0  0  0  0  0  0  0  0  0
  193.9350  174.3280  144.5480 N   0  0  0  0  0  0  0  0  0  0  0  0
  193.3200  175.7970  146.4470 C   0  0  0  0  0  3  0  0  0  0  0  0
  189.0950  175.0880  143.5810 C   0  0  0  0  0  3  0  0  0  0  0  0
  189.3730  175.7830  144.7260 N   0  0  0  0  0  0  0  0  0  0  0  0
  189.8570  173.6170  141.7540 C   0  0  0  0  0  0  0  0  0  0  0  0
  193.7090  173.6120  143.4070 C   0  0  0  0  0  0  0  0  0  0  0  0
  192.1740  176.6000  147.0140 C   0  0  0  0  0  3  0  0  0  0  0  0
  189.4790  172.1290  139.4070 C   0  0  0  0  0  3  0  0  0  0  0  0
  188.5960  173.5720  141.1400 C   0  0  0  0  0  3  0  0  0  0  0  0
  186.7140  176.8490  147.1460 C   0  0  0  0  0  0  0  0  0  0  0  0
  186.2110  176.4900  148.3520 F   0  0  0  0  0  0  0  0  0  0  0  0
  188.2910  176.5100  145.3280 C   0  0  0  0  0  0  0  0  0  0  0  0
  186.1660  177.9400  146.4670 C   0  0  0  0  0  3  0  0  0  0  0  0
  187.7270  177.6020  144.6520 C   0  0  0  0  0  3  0  0  0  0  0  0
  187.7710  176.1280  146.5780 C   0  0  0  0  0  0  0  0  0  0  0  0
  188.2940  175.0290  147.2510 O   0  0  0  0  0  1  0  0  0  0  0  0
  186.6690  178.3220  145.2140 C   0  0  0  0  0  0  0  0  0  0  0  0
  184.7490  179.5420  144.2440 C   0  0  0  0  0  1  0  0  0  0  0  0
  186.1380  179.4050  144.5100 O   0  0  0  0  0  0  0  0  0  0  0  0
  194.8060  172.8640  142.7840 C   0  0  0  0  0  3  0  0  0  0  0  0
  195.5970  173.4260  141.9810 O   0  0  0  0  0  0  0  0  0  0  0  0
  1  3  2  0  0  0  0
  2  4  1  0  0  0  0
  3 18  1  0  0  0  0
  4 10  1  6  0  0  0
  4  1  1  0  0  0  0
  5 17  2  0  0  0  0
  5  2  1  0  0  0  0
  6 20  1  0  0  0  0
  7  2  1  0  0  0  0
  7 14  2  0  0  0  0
  8  9  2  0  0  0  0
  9 11  1  0  0  0  0
  9 16  1  0  0  0  0
 10 13  1  0  0  0  0
 11  5  1  0  0  0  0
 12 10  2  0  0  0  0
 13 18  2  0  0  0  0
 14 15  1  0  0  0  0
 15  1  1  0  0  0  0
 15 23  1  0  0  0  0
 16  7  1  0  0  0  0
 17 12  1  0  0  0  0
 19  6  2  0  0  0  0
 19  8  1  0  0  0  0
 20 16  2  0  0  0  0
 21 22  1  0  0  0  0
 23 26  2  0  0  0  0
 24 21  2  0  0  0  0
 25 28  2  0  0  0  0
 25 23  1  0  0  0  0
 26 21  1  0  0  0  0
 26 27  1  0  0  0  0
 28 24  1  0  0  0  0
 29 30  1  0  0  0  0
 30 28  1  0  0  0  0
 31 17  1  0  0  0  0
 32 31  2  0  0  0  0
M  END
>  <MODEL>
5

>  <REMARK>
 VINA RESULT:      -7.2      2.985      7.196
  Name = 
  3 active torsions:
  status: ('A' for Active; 'I' for Inactive)
    1  A    between atoms: C_13  and  CA_29
    2  A    between atoms: O_15  and  C_26
    3  A    between atoms: C_16  and  N_27
                            x       y       z     vdW  Elec       q    Type
                         _______ _______ _______ _____ _____    ______ ____

>  <TORSDO>
F 3

$$$$
=
 OpenBabel11052419123D

 32 37  0  0  1  0  0  0  0  0999 V2000
  191.7760  175.0800  145.4880 C   0  0  0  0  0  0  0  0  0  0  0  0
  190.0140  175.3560  143.8320 N   0  0  0  0  0  0  0  0  0  0  0  0
  192.2900  175.3380  146.8500 C   0  0  0  0  0  3  0  0  0  0  0  0
  190.5430  175.6350  145.1250 C   0  0  1  0  0  3  0  0  0  0  0  0
  188.7510  175.9010  143.4400 C   0  0  0  0  0  0  0  0  0  0  0  0
  190.2290  173.2390  139.4780 C   0  0  0  0  0  3  0  0  0  0  0  0
  190.7350  174.5240  142.9300 C   0  0  0  0  0  0  0  0  0  0  0  0
  188.3410  174.6190  140.1110 C   0  0  0  0  0  3  0  0  0  0  0  0
  188.9180  174.8570  141.3620 C   0  0  0  0  0  0  0  0  0  0  0  0
  189.8020  176.4460  145.9930 C   0  0  0  0  0  0  0  0  0  0  0  0
  188.2690  175.6280  142.2340 O   0  0  0  0  0  0  0  0  0  0  0  0
  188.6040  176.9510  145.5840 N   0  0  0  0  0  0  0  0  0  0  0  0
  190.3160  176.7850  147.3680 C   0  0  0  0  0  3  0  0  0  0  0  0
  191.9620  174.0070  143.3510 C   0  0  0  0  0  3  0  0  0  0  0  0
  192.4620  174.2890  144.5930 N   0  0  0  0  0  0  0  0  0  0  0  0
  190.1740  174.2730  141.6730 C   0  0  0  0  0  0  0  0  0  0  0  0
  188.0630  176.7070  144.3540 C   0  0  0  0  0  0  0  0  0  0  0  0
  191.6230  176.1100  147.7120 C   0  0  0  0  0  3  0  0  0  0  0  0
  188.9920  173.8140  139.1720 C   0  0  0  0  0  3  0  0  0  0  0  0
  190.8200  173.4660  140.7230 C   0  0  0  0  0  3  0  0  0  0  0  0
  196.1480  173.8800  145.1480 C   0  0  0  0  0  0  0  0  0  0  0  0
  197.2950  174.5950  145.0440 F   0  0  0  0  0  0  0  0  0  0  0  0
  193.7340  173.7130  144.9320 C   0  0  0  0  0  0  0  0  0  0  0  0
  196.2010  172.5540  145.5840 C   0  0  0  0  0  3  0  0  0  0  0  0
  193.8000  172.3800  145.3620 C   0  0  0  0  0  3  0  0  0  0  0  0
  194.9200  174.4610  144.8150 C   0  0  0  0  0  0  0  0  0  0  0  0
  194.8800  175.7750  144.3600 O   0  0  0  0  0  1  0  0  0  0  0  0
  195.0250  171.7950  145.6910 C   0  0  0  0  0  0  0  0  0  0  0  0
  194.5280  169.3980  145.3390 C   0  0  0  0  0  1  0  0  0  0  0  0
  195.0470  170.4650  146.1200 O   0  0  0  0  0  0  0  0  0  0  0  0
  186.7660  177.2910  143.9960 C   0  0  0  0  0  3  0  0  0  0  0  0
  186.5200  178.5050  144.2210 O   0  0  0  0  0  0  0  0  0  0  0  0
  1  3  2  0  0  0  0
  2  4  1  0  0  0  0
  3 18  1  0  0  0  0
  4  1  1  1  0  0  0
  4 10  1  0  0  0  0
  5  2  1  0  0  0  0
  5 17  2  0  0  0  0
  6 20  1  0  0  0  0
  7 14  2  0  0  0  0
  7  2  1  0  0  0  0
  8  9  2  0  0  0  0
  9 16  1  0  0  0  0
  9 11  1  0  0  0  0
 10 13  1  0  0  0  0
 11  5  1  0  0  0  0
 12 10  2  0  0  0  0
 13 18  2  0  0  0  0
 14 15  1  0  0  0  0
 15 23  1  0  0  0  0
 15  1  1  0  0  0  0
 16  7  1  0  0  0  0
 17 12  1  0  0  0  0
 19  6  2  0  0  0  0
 19  8  1  0  0  0  0
 20 16  2  0  0  0  0
 21 24  1  0  0  0  0
 22 21  1  0  0  0  0
 23 25  2  0  0  0  0
 24 28  2  0  0  0  0
 25 28  1  0  0  0  0
 26 23  1  0  0  0  0
 26 21  2  0  0  0  0
 27 26  1  0  0  0  0
 28 30  1  0  0  0  0
 29 30  1  0  0  0  0
 31 32  2  0  0  0  0
 31 17  1  0  0  0  0
M  END
>  <MODEL>
6

>  <REMARK>
 VINA RESULT:      -7.1      3.174      4.301
  Name = 
  3 active torsions:
  status: ('A' for Active; 'I' for Inactive)
    1  A    between atoms: C_13  and  CA_29
    2  A    between atoms: O_15  and  C_26
    3  A    between atoms: C_16  and  N_27
                            x       y       z     vdW  Elec       q    Type
                         _______ _______ _______ _____ _____    ______ ____

>  <TORSDO>
F 3

$$$$
=
 OpenBabel11052419123D

 32 37  0  0  1  0  0  0  0  0999 V2000
  189.6950  176.1340  145.3880 C   0  0  0  0  0  0  0  0  0  0  0  0
  190.9950  174.3660  144.3360 N   0  0  0  0  0  0  0  0  0  0  0  0
  189.5550  177.1370  146.4650 C   0  0  0  0  0  3  0  0  0  0  0  0
  190.8230  175.3040  145.3930 C   0  0  1  0  0  3  0  0  0  0  0  0
  192.1430  173.5140  144.3120 C   0  0  0  0  0  0  0  0  0  0  0  0
  189.5870  172.2550  140.2060 C   0  0  0  0  0  3  0  0  0  0  0  0
  190.0300  174.2810  143.2920 C   0  0  0  0  0  0  0  0  0  0  0  0
  191.6380  171.5990  141.3160 C   0  0  0  0  0  3  0  0  0  0  0  0
  191.4080  172.5370  142.3260 C   0  0  0  0  0  0  0  0  0  0  0  0
  191.7970  175.3710  146.3970 C   0  0  0  0  0  0  0  0  0  0  0  0
  192.2920  172.6480  143.3170 O   0  0  0  0  0  0  0  0  0  0  0  0
  192.8770  174.5410  146.3440 N   0  0  0  0  0  0  0  0  0  0  0  0
  191.6630  176.3360  147.5460 C   0  0  0  0  0  3  0  0  0  0  0  0
  188.9250  175.1330  143.3490 C   0  0  0  0  0  3  0  0  0  0  0  0
  188.7680  176.0250  144.3740 N   0  0  0  0  0  0  0  0  0  0  0  0
  190.2430  173.3490  142.2710 C   0  0  0  0  0  0  0  0  0  0  0  0
  193.0770  173.6290  145.3470 C   0  0  0  0  0  0  0  0  0  0  0  0
  190.4540  177.2350  147.4470 C   0  0  0  0  0  3  0  0  0  0  0  0
  190.7340  171.4580  140.2590 C   0  0  0  0  0  3  0  0  0  0  0  0
  189.3410  173.1980  141.2070 C   0  0  0  0  0  3  0  0  0  0  0  0
  186.2260  178.5530  143.2760 C   0  0  0  0  0  0  0  0  0  0  0  0
  186.0000  179.4160  142.2550 F   0  0  0  0  0  0  0  0  0  0  0  0
  187.5970  176.8550  144.3450 C   0  0  0  0  0  0  0  0  0  0  0  0
  185.3100  178.4750  144.3280 C   0  0  0  0  0  3  0  0  0  0  0  0
  186.6740  176.7920  145.3990 C   0  0  0  0  0  3  0  0  0  0  0  0
  187.3730  177.7510  143.2840 C   0  0  0  0  0  0  0  0  0  0  0  0
  188.2910  177.8540  142.2440 O   0  0  0  0  0  1  0  0  0  0  0  0
  185.5300  177.5940  145.3980 C   0  0  0  0  0  0  0  0  0  0  0  0
  184.7490  178.2910  147.6380 C   0  0  0  0  0  1  0  0  0  0  0  0
  184.6340  177.4980  146.4650 O   0  0  0  0  0  0  0  0  0  0  0  0
  194.2690  172.7740  145.3670 C   0  0  0  0  0  3  0  0  0  0  0  0
  194.2030  171.5810  145.7630 O   0  0  0  0  0  0  0  0  0  0  0  0
  1  3  2  0  0  0  0
  2  4  1  0  0  0  0
  3 18  1  0  0  0  0
  4  1  1  6  0  0  0
  4 10  1  0  0  0  0
  5  2  1  0  0  0  0
  5 17  2  0  0  0  0
  6 19  2  0  0  0  0
  6 20  1  0  0  0  0
  7 14  2  0  0  0  0
  7  2  1  0  0  0  0
  8  9  2  0  0  0  0
  9 11  1  0  0  0  0
 10 13  1  0  0  0  0
 11  5  1  0  0  0  0
 12 10  2  0  0  0  0
 14 15  1  0  0  0  0
 15  1  1  0  0  0  0
 16  9  1  0  0  0  0
 16  7  1  0  0  0  0
 17 31  1  0  0  0  0
 17 12  1  0  0  0  0
 18 13  2  0  0  0  0
 19  8  1  0  0  0  0
 20 16  2  0  0  0  0
 21 26  2  0  0  0  0
 21 24  1  0  0  0  0
 22 21  1  0  0  0  0
 23 15  1  0  0  0  0
 23 25  2  0  0  0  0
 24 28  2  0  0  0  0
 26 23  1  0  0  0  0
 27 26  1  0  0  0  0
 28 25  1  0  0  0  0
 28 30  1  0  0  0  0
 30 29  1  0  0  0  0
 31 32  2  0  0  0  0
M  END
>  <MODEL>
7

>  <REMARK>
 VINA RESULT:      -7.1      2.708      7.010
  Name = 
  3 active torsions:
  status: ('A' for Active; 'I' for Inactive)
    1  A    between atoms: C_13  and  CA_29
    2  A    between atoms: O_15  and  C_26
    3  A    between atoms: C_16  and  N_27
                            x       y       z     vdW  Elec       q    Type
                         _______ _______ _______ _____ _____    ______ ____

>  <TORSDO>
F 3

$$$$
=
 OpenBabel11052419123D

 32 37  0  0  0  0  0  0  0  0999 V2000
  189.0620  175.4190  143.1170 C   0  0  0  0  0  0  0  0  0  0  0  0
  191.4670  175.2150  142.8040 N   0  0  0  0  0  0  0  0  0  0  0  0
  187.6920  175.0320  142.7150 C   0  0  0  0  0  3  0  0  0  0  0  0
  190.1410  174.8890  142.3990 C   0  0  0  0  0  0  0  0  0  0  0  0
  192.5870  174.6790  142.0960 C   0  0  0  0  0  0  0  0  0  0  0  0
  194.6310  177.4540  145.7150 C   0  0  0  0  0  3  0  0  0  0  0  0
  191.6820  176.0670  143.9250 C   0  0  0  0  0  0  0  0  0  0  0  0
  195.3800  176.0630  143.8790 C   0  0  0  0  0  3  0  0  0  0  0  0
  194.0560  175.7860  143.5300 C   0  0  0  0  0  0  0  0  0  0  0  0
  189.9650  174.0380  141.3010 C   0  0  0  0  0  0  0  0  0  0  0  0
  193.8170  174.9880  142.4890 O   0  0  0  0  0  0  0  0  0  0  0  0
  191.0560  173.5490  140.6470 N   0  0  0  0  0  0  0  0  0  0  0  0
  188.5870  173.6670  140.8190 C   0  0  0  0  0  2  0  0  0  0  0  0
  190.5620  176.5670  144.5940 C   0  0  0  0  0  3  0  0  0  0  0  0
  189.2940  176.2510  144.1900 N   0  0  0  0  0  0  0  0  0  0  0  0
  193.0000  176.3560  144.2910 C   0  0  0  0  0  0  0  0  0  0  0  0
  192.3420  173.8380  141.0050 C   0  0  0  0  0  0  0  0  0  0  0  0
  187.4740  174.2280  141.6710 C   0  0  0  0  0  3  0  0  0  0  0  0
  195.6690  176.8930  144.9660 C   0  0  0  0  0  3  0  0  0  0  0  0
  193.3010  177.1880  145.3800 C   0  0  0  0  0  3  0  0  0  0  0  0
  186.7990  176.8740  146.9190 C   0  0  0  0  0  0  0  0  0  0  0  0
  186.4630  176.3940  148.1410 F   0  0  0  0  0  0  0  0  0  0  0  0
  188.2080  176.8180  144.9400 C   0  0  0  0  0  0  0  0  0  0  0  0
  186.0720  177.9330  146.3710 C   0  0  0  0  0  3  0  0  0  0  0  0
  187.4650  177.8750  144.3970 C   0  0  0  0  0  3  0  0  0  0  0  0
  187.8620  176.3100  146.2060 C   0  0  0  0  0  0  0  0  0  0  0  0
  188.5650  175.2390  146.7500 O   0  0  0  0  0  1  0  0  0  0  0  0
  186.4000  178.4390  145.1040 C   0  0  0  0  0  0  0  0  0  0  0  0
  184.3060  179.4060  144.2120 C   0  0  0  0  0  1  0  0  0  0  0  0
  185.6880  179.4950  144.5280 O   0  0  0  0  0  0  0  0  0  0  0  0
  193.4590  173.2660  140.2450 C   0  0  0  0  0  3  0  0  0  0  0  0
  193.9660  173.8880  139.2750 O   0  0  0  0  0  0  0  0  0  0  0  0
  1 15  1  0  0  0  0
  2  7  1  0  0  0  0
  3  1  1  0  0  0  0
  4  2  1  0  0  0  0
  4  1  2  0  0  0  0
  5 11  1  0  0  0  0
  5  2  1  0  0  0  0
  7 16  1  0  0  0  0
  7 14  2  0  0  0  0
  8 19  1  0  0  0  0
  9  8  2  0  0  0  0
  9 16  1  0  0  0  0
 10  4  1  0  0  0  0
 11  9  1  0  0  0  0
 12 17  1  0  0  0  0
 12 10  2  0  0  0  0
 13 10  1  0  0  0  0
 13 18  1  0  0  0  0
 15 14  1  0  0  0  0
 15 23  1  0  0  0  0
 16 20  2  0  0  0  0
 17  5  2  0  0  0  0
 18  3  2  0  0  0  0
 19  6  2  0  0  0  0
 20  6  1  0  0  0  0
 21 22  1  0  0  0  0
 23 26  1  0  0  0  0
 24 21  1  0  0  0  0
 25 23  2  0  0  0  0
 25 28  1  0  0  0  0
 26 27  1  0  0  0  0
 26 21  2  0  0  0  0
 28 24  2  0  0  0  0
 29 30  1  0  0  0  0
 30 28  1  0  0  0  0
 31 17  1  0  0  0  0
 32 31  2  0  0  0  0
M  END
>  <MODEL>
8

>  <REMARK>
 VINA RESULT:      -7.1      2.918      8.017
  Name = 
  3 active torsions:
  status: ('A' for Active; 'I' for Inactive)
    1  A    between atoms: C_13  and  CA_29
    2  A    between atoms: O_15  and  C_26
    3  A    between atoms: C_16  and  N_27
                            x       y       z     vdW  Elec       q    Type
                         _______ _______ _______ _____ _____    ______ ____

>  <TORSDO>
F 3

$$$$
=
 OpenBabel11052419123D

 32 37  0  0  1  0  0  0  0  0999 V2000
  190.8840  175.6150  143.9130 C   0  0  0  0  0  0  0  0  0  0  0  0
  189.3590  175.3830  142.0310 N   0  0  0  0  0  0  0  0  0  0  0  0
  191.2070  176.2350  145.2160 C   0  0  0  0  0  3  0  0  0  0  0  0
  189.7070  176.0060  143.2640 C   0  0  1  0  0  3  0  0  0  0  0  0
  188.1570  175.7560  141.3520 C   0  0  0  0  0  0  0  0  0  0  0  0
  190.1740  172.2300  138.4410 C   0  0  0  0  0  3  0  0  0  0  0  0
  190.2010  174.3780  141.4760 C   0  0  0  0  0  0  0  0  0  0  0  0
  188.2090  173.6470  138.4460 C   0  0  0  0  0  3  0  0  0  0  0  0
  188.6100  174.2210  139.6550 C   0  0  0  0  0  0  0  0  0  0  0  0
  188.8500  176.9810  143.7890 C   0  0  0  0  0  0  0  0  0  0  0  0
  187.8440  175.1630  140.2070 O   0  0  0  0  0  0  0  0  0  0  0  0
  187.7150  177.3140  143.1120 N   0  0  0  0  0  0  0  0  0  0  0  0
  189.1720  177.6830  145.0820 C   0  0  0  0  0  3  0  0  0  0  0  0
  191.3640  174.0380  142.1710 C   0  0  0  0  0  3  0  0  0  0  0  0
  191.6900  174.6490  143.3510 N   0  0  0  0  0  0  0  0  0  0  0  0
  189.8170  173.7900  140.2670 C   0  0  0  0  0  0  0  0  0  0  0  0
  187.3470  176.7400  141.9290 C   0  0  0  0  0  0  0  0  0  0  0  0
  190.4250  177.1740  145.7540 C   0  0  0  0  0  3  0  0  0  0  0  0
  188.9860  172.6550  137.8400 C   0  0  0  0  0  3  0  0  0  0  0  0
  190.5900  172.7940  139.6500 C   0  0  0  0  0  3  0  0  0  0  0  0
  194.1490  172.6780  145.3820 C   0  0  0  0  0  0  0  0  0  0  0  0
  194.2010  171.5490  146.1320 F   0  0  0  0  0  0  0  0  0  0  0  0
  192.9080  174.2340  143.9880 C   0  0  0  0  0  0  0  0  0  0  0  0
  195.2960  173.4590  145.2330 C   0  0  0  0  0  3  0  0  0  0  0  0
  194.0650  175.0150  143.8530 C   0  0  0  0  0  3  0  0  0  0  0  0
  192.9520  173.0630  144.7680 C   0  0  0  0  0  0  0  0  0  0  0  0
  191.8090  172.2900  144.9420 O   0  0  0  0  0  1  0  0  0  0  0  0
  195.2600  174.6350  144.4680 C   0  0  0  0  0  0  0  0  0  0  0  0
  196.4060  176.5810  143.4600 C   0  0  0  0  0  1  0  0  0  0  0  0
  196.3910  175.4400  144.3060 O   0  0  0  0  0  0  0  0  0  0  0  0
  186.1060  177.1580  141.2680 C   0  0  0  0  0  3  0  0  0  0  0  0
  185.9620  178.3360  140.8460 O   0  0  0  0  0  0  0  0  0  0  0  0
  1  3  2  0  0  0  0
  2  4  1  0  0  0  0
  3 18  1  0  0  0  0
  4 10  1  1  0  0  0
  4  1  1  0  0  0  0
  5 17  2  0  0  0  0
  5  2  1  0  0  0  0
  6 20  1  0  0  0  0
  7  2  1  0  0  0  0
  7 14  2  0  0  0  0
  8  9  2  0  0  0  0
  9 11  1  0  0  0  0
  9 16  1  0  0  0  0
 10 13  1  0  0  0  0
 11  5  1  0  0  0  0
 12 10  2  0  0  0  0
 13 18  2  0  0  0  0
 14 15  1  0  0  0  0
 15  1  1  0  0  0  0
 15 23  1  0  0  0  0
 16  7  1  0  0  0  0
 17 12  1  0  0  0  0
 19  6  2  0  0  0  0
 19  8  1  0  0  0  0
 20 16  2  0  0  0  0
 21 22  1  0  0  0  0
 23 26  1  0  0  0  0
 24 21  1  0  0  0  0
 25 23  2  0  0  0  0
 25 28  1  0  0  0  0
 26 27  1  0  0  0  0
 26 21  2  0  0  0  0
 28 24  2  0  0  0  0
 29 30  1  0  0  0  0
 30 28  1  0  0  0  0
 31 17  1  0  0  0  0
 32 31  2  0  0  0  0
M  END
>  <MODEL>
9

>  <REMARK>
 VINA RESULT:      -6.9      2.998      4.889
  Name = 
  3 active torsions:
  status: ('A' for Active; 'I' for Inactive)
    1  A    between atoms: C_13  and  CA_29
    2  A    between atoms: O_15  and  C_26
    3  A    between atoms: C_16  and  N_27
                            x       y       z     vdW  Elec       q    Type
                         _______ _______ _______ _____ _____    ______ ____

>  <TORSDO>
F 3

$$$$
