=
 OpenBabel11052418113D

 28 32  0  0  1  0  0  0  0  0999 V2000
  191.3810  173.8800  143.5300 N   0  0  0  0  0  0  0  0  0  0  0  0
  187.6390  176.4590  145.9900 C   0  0  0  0  0  3  0  0  0  0  0  0
  187.6580  174.0130  141.0680 O   0  0  0  0  0  1  0  0  0  0  0  0
  186.6900  177.6820  144.1150 C   0  0  0  0  0  0  0  0  0  0  0  0
  188.0490  175.5820  143.6670 C   0  0  2  0  0  3  0  0  0  0  0  0
  186.2910  178.4290  146.3870 C   0  0  0  0  0  0  0  0  0  0  0  0
  187.4890  176.6220  144.6060 C   0  0  0  0  0  0  0  0  0  0  0  0
  186.7890  176.6900  141.7900 C   0  0  0  0  0  2  0  0  0  0  0  0
  186.1140  178.5870  145.0110 C   0  0  0  0  0  3  0  0  0  0  0  0
  189.8510  174.3900  141.8550 C   0  0  0  0  0  0  0  0  0  0  0  0
  189.3510  175.0670  144.1210 N   0  0  0  0  0  2  0  0  0  0  0  0
  186.5120  177.9290  142.6390 C   0  0  0  0  0  2  0  0  0  0  0  0
  190.8730  173.7350  141.3100 C   0  0  0  0  0  0  0  0  0  0  0  0
  188.6300  175.0010  141.2390 C   0  0  2  0  0  3  0  0  0  0  0  0
  191.0210  173.4260  139.8620 C   0  0  0  0  0  1  0  0  0  0  0  0
  185.7120  179.3310  147.2690 O   0  0  0  0  0  1  0  0  0  0  0  0
  187.0500  177.3640  146.8770 C   0  0  0  0  0  3  0  0  0  0  0  0
  188.1260  176.0940  142.2050 C   0  0  2  0  0  3  0  0  0  0  0  0
  191.8420  173.3730  142.3050 N   0  0  0  0  0  0  0  0  0  0  0  0
  190.1230  174.4690  143.2680 C   0  0  0  0  0  0  0  0  0  0  0  0
  191.8820  173.4530  144.8280 C   0  0  0  0  0  2  0  0  0  0  0  0
  192.6380  174.5600  145.4790 C   0  0  0  0  0  0  0  0  0  0  0  0
  194.0380  176.6780  146.6540 C   0  0  0  0  0  0  0  0  0  0  0  0
  192.0130  175.3670  146.4370 C   0  0  0  0  0  3  0  0  0  0  0  0
  193.9590  174.8210  145.1020 C   0  0  0  0  0  3  0  0  0  0  0  0
  194.6600  175.8780  145.6900 C   0  0  0  0  0  3  0  0  0  0  0  0
  194.7160  177.7020  147.2240 F   0  0  0  0  0  0  0  0  0  0  0  0
  192.7140  176.4230  147.0260 C   0  0  0  0  0  3  0  0  0  0  0  0
  1 21  1  0  0  0  0
  2 17  1  0  0  0  0
  4  7  1  0  0  0  0
  4  9  2  0  0  0  0
  5 11  1  1  0  0  0
  5  7  1  0  0  0  0
  6 17  2  0  0  0  0
  6 16  1  0  0  0  0
  7  2  2  0  0  0  0
  8 12  1  0  0  0  0
  9  6  1  0  0  0  0
 10 20  2  0  0  0  0
 12  4  1  0  0  0  0
 13 10  1  0  0  0  0
 13 19  2  0  0  0  0
 14  3  1  1  0  0  0
 14 10  1  0  0  0  0
 14 18  1  0  0  0  0
 15 13  1  0  0  0  0
 18  8  1  6  0  0  0
 18  5  1  0  0  0  0
 19  1  1  0  0  0  0
 20  1  1  0  0  0  0
 20 11  1  0  0  0  0
 21 22  1  0  0  0  0
 22 24  1  0  0  0  0
 23 28  1  0  0  0  0
 23 27  1  0  0  0  0
 24 28  2  0  0  0  0
 25 22  2  0  0  0  0
 25 26  1  0  0  0  0
 26 23  2  0  0  0  0
M  END
>  <MODEL>
1

>  <REMARK>
 VINA RESULT:      -7.9      0.000      0.000
  Name = 
  2 active torsions:
  status: ('A' for Active; 'I' for Inactive)
    1  A    between atoms: N_1  and  C_2
    2  A    between atoms: C_2  and  C_3
                            x       y       z     vdW  Elec       q    Type
                         _______ _______ _______ _____ _____    ______ ____

>  <TORSDO>
F 2

$$$$
=
 OpenBabel11052418113D

 28 32  0  0  1  0  0  0  0  0999 V2000
  192.4400  175.4580  144.1900 N   0  0  0  0  0  0  0  0  0  0  0  0
  187.9240  176.5710  146.4430 C   0  0  0  0  0  3  0  0  0  0  0  0
  189.0610  173.4830  142.0400 O   0  0  0  0  0  1  0  0  0  0  0  0
  186.5470  176.8740  144.4620 C   0  0  0  0  0  0  0  0  0  0  0  0
  188.6980  175.5330  144.2850 C   0  0  2  0  0  3  0  0  0  0  0  0
  185.8420  177.7950  146.5930 C   0  0  0  0  0  0  0  0  0  0  0  0
  187.7290  176.3840  145.0680 C   0  0  0  0  0  0  0  0  0  0  0  0
  187.0930  175.6000  142.3470 C   0  0  0  0  0  2  0  0  0  0  0  0
  185.6240  177.5930  145.2280 C   0  0  0  0  0  3  0  0  0  0  0  0
  190.8560  174.9200  142.5760 C   0  0  0  0  0  0  0  0  0  0  0  0
  190.0900  175.7330  144.7200 N   0  0  0  0  0  2  0  0  0  0  0  0
  186.2900  176.7320  142.9840 C   0  0  0  0  0  2  0  0  0  0  0  0
  192.0650  174.6840  142.0760 C   0  0  0  0  0  0  0  0  0  0  0  0
  189.4950  174.8090  141.9580 C   0  0  2  0  0  3  0  0  0  0  0  0
  192.3460  174.1990  140.6970 C   0  0  0  0  0  1  0  0  0  0  0  0
  184.9170  178.5050  147.3460 O   0  0  0  0  0  1  0  0  0  0  0  0
  186.9900  177.2800  147.2010 C   0  0  0  0  0  3  0  0  0  0  0  0
  188.5510  175.7360  142.7550 C   0  0  2  0  0  3  0  0  0  0  0  0
  193.0870  174.9780  143.0400 N   0  0  0  0  0  0  0  0  0  0  0  0
  191.0530  175.3790  143.9270 C   0  0  0  0  0  0  0  0  0  0  0  0
  193.0680  175.5490  145.5000 C   0  0  0  0  0  2  0  0  0  0  0  0
  194.1470  174.5290  145.6260 C   0  0  0  0  0  0  0  0  0  0  0  0
  196.1780  172.6140  145.7990 C   0  0  0  0  0  0  0  0  0  0  0  0
  195.4800  174.9320  145.7710 C   0  0  0  0  0  3  0  0  0  0  0  0
  193.8340  173.1670  145.5570 C   0  0  0  0  0  3  0  0  0  0  0  0
  194.8490  172.2100  145.6450 C   0  0  0  0  0  3  0  0  0  0  0  0
  197.1630  171.6870  145.8850 F   0  0  0  0  0  0  0  0  0  0  0  0
  196.4940  173.9750  145.8610 C   0  0  0  0  0  3  0  0  0  0  0  0
  1 21  1  0  0  0  0
  2 17  1  0  0  0  0
  4  7  1  0  0  0  0
  4  9  2  0  0  0  0
  5 11  1  1  0  0  0
  5  7  1  0  0  0  0
  6 17  2  0  0  0  0
  6 16  1  0  0  0  0
  7  2  2  0  0  0  0
  8 12  1  0  0  0  0
  9  6  1  0  0  0  0
 10 20  2  0  0  0  0
 12  4  1  0  0  0  0
 13 10  1  0  0  0  0
 13 19  2  0  0  0  0
 14  3  1  1  0  0  0
 14 10  1  0  0  0  0
 14 18  1  0  0  0  0
 15 13  1  0  0  0  0
 18  8  1  6  0  0  0
 18  5  1  0  0  0  0
 19  1  1  0  0  0  0
 20  1  1  0  0  0  0
 20 11  1  0  0  0  0
 21 22  1  0  0  0  0
 22 24  1  0  0  0  0
 23 28  1  0  0  0  0
 23 27  1  0  0  0  0
 24 28  2  0  0  0  0
 25 22  2  0  0  0  0
 25 26  1  0  0  0  0
 26 23  2  0  0  0  0
M  END
>  <MODEL>
2

>  <REMARK>
 VINA RESULT:      -7.8      1.952      2.382
  Name = 
  2 active torsions:
  status: ('A' for Active; 'I' for Inactive)
    1  A    between atoms: N_1  and  C_2
    2  A    between atoms: C_2  and  C_3
                            x       y       z     vdW  Elec       q    Type
                         _______ _______ _______ _____ _____    ______ ____

>  <TORSDO>
F 2

$$$$
=
 OpenBabel11052418113D

 28 32  0  0  1  0  0  0  0  0999 V2000
  191.0980  175.4900  144.2700 N   0  0  0  0  0  0  0  0  0  0  0  0
  187.0820  177.9480  142.1410 C   0  0  0  0  0  3  0  0  0  0  0  0
  189.0530  178.0890  147.2700 O   0  0  0  0  0  1  0  0  0  0  0  0
  185.4890  177.7810  143.9700 C   0  0  0  0  0  0  0  0  0  0  0  0
  187.9710  177.5400  144.4600 C   0  0  2  0  0  3  0  0  0  0  0  0
  184.7170  178.2320  141.7150 C   0  0  0  0  0  0  0  0  0  0  0  0
  186.8220  177.7110  143.4970 C   0  0  0  0  0  0  0  0  0  0  0  0
  186.3220  177.6920  146.3560 C   0  0  0  0  0  2  0  0  0  0  0  0
  184.4470  178.0220  143.0690 C   0  0  0  0  0  3  0  0  0  0  0  0
  189.8410  176.2020  146.0920 C   0  0  0  0  0  0  0  0  0  0  0  0
  189.0790  176.7720  143.8690 N   0  0  0  0  0  2  0  0  0  0  0  0
  185.1380  177.5080  145.4100 C   0  0  0  0  0  2  0  0  0  0  0  0
  190.8990  175.5330  146.5430 C   0  0  0  0  0  0  0  0  0  0  0  0
  188.6850  176.8210  146.8150 C   0  0  2  0  0  3  0  0  0  0  0  0
  191.1940  175.2560  147.9760 C   0  0  0  0  0  1  0  0  0  0  0  0
  183.6760  178.4750  140.8300 O   0  0  0  0  0  1  0  0  0  0  0  0
  186.0340  178.1990  141.2520 C   0  0  0  0  0  3  0  0  0  0  0  0
  187.5170  176.9260  145.8090 C   0  0  2  0  0  3  0  0  0  0  0  0
  191.7260  175.0870  145.4590 N   0  0  0  0  0  0  0  0  0  0  0  0
  189.9530  176.2250  144.6560 C   0  0  0  0  0  0  0  0  0  0  0  0
  191.7600  175.5370  142.9750 C   0  0  0  0  0  2  0  0  0  0  0  0
  191.3890  174.3440  142.1620 C   0  0  0  0  0  0  0  0  0  0  0  0
  190.6640  172.0790  140.6900 C   0  0  0  0  0  0  0  0  0  0  0  0
  190.1630  174.3100  141.4860 C   0  0  0  0  0  3  0  0  0  0  0  0
  192.2450  173.2400  142.1090 C   0  0  0  0  0  3  0  0  0  0  0  0
  191.8840  172.1090  141.3710 C   0  0  0  0  0  3  0  0  0  0  0  0
  190.3140  170.9830  139.9740 F   0  0  0  0  0  0  0  0  0  0  0  0
  189.8030  173.1790  140.7480 C   0  0  0  0  0  3  0  0  0  0  0  0
  1 20  1  0  0  0  0
  1 19  1  0  0  0  0
  2  7  1  0  0  0  0
  4 12  1  0  0  0  0
  5  7  1  6  0  0  0
  5 18  1  0  0  0  0
  6  9  2  0  0  0  0
  7  4  2  0  0  0  0
  9  4  1  0  0  0  0
 10 13  1  0  0  0  0
 10 14  1  0  0  0  0
 11  5  1  0  0  0  0
 11 20  1  0  0  0  0
 12  8  1  0  0  0  0
 13 15  1  0  0  0  0
 14  3  1  6  0  0  0
 16  6  1  0  0  0  0
 17  6  1  0  0  0  0
 17  2  2  0  0  0  0
 18  8  1  1  0  0  0
 18 14  1  0  0  0  0
 19 13  2  0  0  0  0
 20 10  2  0  0  0  0
 21  1  1  0  0  0  0
 22 21  1  0  0  0  0
 23 28  2  0  0  0  0
 23 26  1  0  0  0  0
 24 22  2  0  0  0  0
 25 22  1  0  0  0  0
 26 25  2  0  0  0  0
 27 23  1  0  0  0  0
 28 24  1  0  0  0  0
M  END
>  <MODEL>
3

>  <REMARK>
 VINA RESULT:      -7.7      3.053      5.236
  Name = 
  2 active torsions:
  status: ('A' for Active; 'I' for Inactive)
    1  A    between atoms: N_1  and  C_2
    2  A    between atoms: C_2  and  C_3
                            x       y       z     vdW  Elec       q    Type
                         _______ _______ _______ _____ _____    ______ ____

>  <TORSDO>
F 2

$$$$
=
 OpenBabel11052418113D

 28 32  0  0  1  0  0  0  0  0999 V2000
  191.2530  175.3360  144.4850 N   0  0  0  0  0  0  0  0  0  0  0  0
  187.3870  177.7700  142.0680 C   0  0  0  0  0  3  0  0  0  0  0  0
  189.1490  178.1300  147.2620 O   0  0  0  0  0  1  0  0  0  0  0  0
  185.7170  177.7320  143.8350 C   0  0  0  0  0  0  0  0  0  0  0  0
  188.1700  177.4610  144.4400 C   0  0  2  0  0  3  0  0  0  0  0  0
  185.0490  178.0830  141.5300 C   0  0  0  0  0  0  0  0  0  0  0  0
  187.0660  177.6080  143.4230 C   0  0  0  0  0  0  0  0  0  0  0  0
  186.4500  177.7470  146.2550 C   0  0  0  0  0  2  0  0  0  0  0  0
  184.7190  177.9480  142.8800 C   0  0  0  0  0  3  0  0  0  0  0  0
  189.9400  176.1680  146.2140 C   0  0  0  0  0  0  0  0  0  0  0  0
  189.2830  176.6400  143.9360 N   0  0  0  0  0  2  0  0  0  0  0  0
  185.3010  177.5400  145.2710 C   0  0  0  0  0  2  0  0  0  0  0  0
  190.9620  175.5000  146.7430 C   0  0  0  0  0  0  0  0  0  0  0  0
  188.7700  176.8490  146.8560 C   0  0  2  0  0  3  0  0  0  0  0  0
  191.1910  175.2910  148.1980 C   0  0  0  0  0  1  0  0  0  0  0  0
  184.0510  178.3020  140.5900 O   0  0  0  0  0  1  0  0  0  0  0  0
  186.3830  177.9970  141.1240 C   0  0  0  0  0  3  0  0  0  0  0  0
  187.6470  176.9270  145.7980 C   0  0  2  0  0  3  0  0  0  0  0  0
  191.8220  174.9820  145.7180 N   0  0  0  0  0  0  0  0  0  0  0  0
  190.1110  176.1150  144.7850 C   0  0  0  0  0  0  0  0  0  0  0  0
  191.9680  175.3030  143.2180 C   0  0  0  0  0  2  0  0  0  0  0  0
  193.4390  175.2800  143.4560 C   0  0  0  0  0  0  0  0  0  0  0  0
  196.2090  175.2590  143.8420 C   0  0  0  0  0  0  0  0  0  0  0  0
  194.0860  176.4170  143.9550 C   0  0  0  0  0  3  0  0  0  0  0  0
  194.1810  174.1380  143.1410 C   0  0  0  0  0  3  0  0  0  0  0  0
  195.5650  174.1260  143.3350 C   0  0  0  0  0  3  0  0  0  0  0  0
  197.5510  175.2480  144.0310 F   0  0  0  0  0  0  0  0  0  0  0  0
  195.4700  176.4050  144.1510 C   0  0  0  0  0  3  0  0  0  0  0  0
  1 20  1  0  0  0  0
  1 19  1  0  0  0  0
  2  7  1  0  0  0  0
  4 12  1  0  0  0  0
  5  7  1  6  0  0  0
  5 18  1  0  0  0  0
  6  9  2  0  0  0  0
  7  4  2  0  0  0  0
  9  4  1  0  0  0  0
 10 13  1  0  0  0  0
 10 14  1  0  0  0  0
 11  5  1  0  0  0  0
 11 20  1  0  0  0  0
 12  8  1  0  0  0  0
 13 15  1  0  0  0  0
 14  3  1  6  0  0  0
 16  6  1  0  0  0  0
 17  6  1  0  0  0  0
 17  2  2  0  0  0  0
 18  8  1  1  0  0  0
 18 14  1  0  0  0  0
 19 13  2  0  0  0  0
 20 10  2  0  0  0  0
 21 22  1  0  0  0  0
 21  1  1  0  0  0  0
 22 24  1  0  0  0  0
 23 27  1  0  0  0  0
 23 28  1  0  0  0  0
 24 28  2  0  0  0  0
 25 26  1  0  0  0  0
 25 22  2  0  0  0  0
 26 23  2  0  0  0  0
M  END
>  <MODEL>
4

>  <REMARK>
 VINA RESULT:      -7.6      2.490      4.307
  Name = 
  2 active torsions:
  status: ('A' for Active; 'I' for Inactive)
    1  A    between atoms: N_1  and  C_2
    2  A    between atoms: C_2  and  C_3
                            x       y       z     vdW  Elec       q    Type
                         _______ _______ _______ _____ _____    ______ ____

>  <TORSDO>
F 2

$$$$
=
 OpenBabel11052418113D

 28 32  0  0  1  0  0  0  0  0999 V2000
  188.8540  177.2420  143.7270 N   0  0  0  0  0  0  0  0  0  0  0  0
  188.5650  173.2650  140.4390 C   0  0  0  0  0  3  0  0  0  0  0  0
  189.6840  173.3850  145.8190 O   0  0  0  0  0  1  0  0  0  0  0  0
  190.4470  171.9450  141.2340 C   0  0  0  0  0  0  0  0  0  0  0  0
  189.3890  173.6580  142.7850 C   0  0  2  0  0  3  0  0  0  0  0  0
  189.5570  171.5860  139.0060 C   0  0  0  0  0  0  0  0  0  0  0  0
  189.5000  172.9770  141.4430 C   0  0  0  0  0  0  0  0  0  0  0  0
  191.1190  172.0570  143.6690 C   0  0  0  0  0  2  0  0  0  0  0  0
  190.4770  171.2730  140.0080 C   0  0  0  0  0  3  0  0  0  0  0  0
  189.9470  175.5140  144.8330 C   0  0  0  0  0  0  0  0  0  0  0  0
  188.9860  175.0680  142.6600 N   0  0  0  0  0  2  0  0  0  0  0  0
  191.4970  171.6060  142.2600 C   0  0  0  0  0  2  0  0  0  0  0  0
  189.9870  176.5990  145.6010 C   0  0  0  0  0  0  0  0  0  0  0  0
  190.5380  174.1500  145.0220 C   0  0  2  0  0  3  0  0  0  0  0  0
  190.6600  176.6920  146.9250 C   0  0  0  0  0  1  0  0  0  0  0  0
  189.5930  170.9090  137.7950 O   0  0  0  0  0  1  0  0  0  0  0  0
  188.5980  172.5780  139.2230 C   0  0  0  0  0  3  0  0  0  0  0  0
  190.6850  173.5150  143.6230 C   0  0  2  0  0  3  0  0  0  0  0  0
  189.3050  177.6960  144.9750 N   0  0  0  0  0  0  0  0  0  0  0  0
  189.2060  175.8740  143.6520 C   0  0  0  0  0  0  0  0  0  0  0  0
  187.8410  177.9180  142.9310 C   0  0  0  0  0  2  0  0  0  0  0  0
  186.6340  178.1960  143.7600 C   0  0  0  0  0  0  0  0  0  0  0  0
  184.4070  178.7430  145.3610 C   0  0  0  0  0  0  0  0  0  0  0  0
  185.9390  179.4010  143.6060 C   0  0  0  0  0  3  0  0  0  0  0  0
  186.2190  177.2700  144.7230 C   0  0  0  0  0  3  0  0  0  0  0  0
  185.1050  177.5430  145.5220 C   0  0  0  0  0  3  0  0  0  0  0  0
  183.3260  179.0080  146.1350 F   0  0  0  0  0  0  0  0  0  0  0  0
  184.8250  179.6730  144.4040 C   0  0  0  0  0  3  0  0  0  0  0  0
  1 19  1  0  0  0  0
  2  7  1  0  0  0  0
  4  7  2  0  0  0  0
  4 12  1  0  0  0  0
  5  7  1  6  0  0  0
  5 18  1  0  0  0  0
  6 17  1  0  0  0  0
  6  9  2  0  0  0  0
  9  4  1  0  0  0  0
 10 14  1  0  0  0  0
 10 13  1  0  0  0  0
 11  5  1  0  0  0  0
 11 20  1  0  0  0  0
 12  8  1  0  0  0  0
 13 15  1  0  0  0  0
 14  3  1  1  0  0  0
 16  6  1  0  0  0  0
 17  2  2  0  0  0  0
 18  8  1  1  0  0  0
 18 14  1  0  0  0  0
 19 13  2  0  0  0  0
 20  1  1  0  0  0  0
 20 10  2  0  0  0  0
 21  1  1  0  0  0  0
 21 22  1  0  0  0  0
 22 25  1  0  0  0  0
 23 26  1  0  0  0  0
 23 27  1  0  0  0  0
 24 22  2  0  0  0  0
 24 28  1  0  0  0  0
 25 26  2  0  0  0  0
 28 23  2  0  0  0  0
M  END
>  <MODEL>
5

>  <REMARK>
 VINA RESULT:      -7.5      3.426      7.434
  Name = 
  2 active torsions:
  status: ('A' for Active; 'I' for Inactive)
    1  A    between atoms: N_1  and  C_2
    2  A    between atoms: C_2  and  C_3
                            x       y       z     vdW  Elec       q    Type
                         _______ _______ _______ _____ _____    ______ ____

>  <TORSDO>
F 2

$$$$
=
 OpenBabel11052418113D

 28 32  0  0  1  0  0  0  0  0999 V2000
  189.2390  176.1930  146.3300 N   0  0  0  0  0  0  0  0  0  0  0  0
  188.6790  173.4180  142.0070 C   0  0  0  0  0  3  0  0  0  0  0  0
  192.9340  173.8400  145.4610 O   0  0  0  0  0  1  0  0  0  0  0  0
  190.8920  173.7150  141.0450 C   0  0  0  0  0  0  0  0  0  0  0  0
  190.5630  174.0790  143.5380 C   0  0  2  0  0  3  0  0  0  0  0  0
  189.0350  173.0230  139.6460 C   0  0  0  0  0  0  0  0  0  0  0  0
  190.0240  173.7790  142.1610 C   0  0  0  0  0  0  0  0  0  0  0  0
  192.8840  174.0630  142.5640 C   0  0  0  0  0  2  0  0  0  0  0  0
  190.3830  173.3560  139.7930 C   0  0  0  0  0  3  0  0  0  0  0  0
  191.4140  175.6250  145.7370 C   0  0  0  0  0  0  0  0  0  0  0  0
  189.5950  174.8180  144.3650 N   0  0  0  0  0  2  0  0  0  0  0  0
  192.3420  174.1180  141.1370 C   0  0  0  0  0  2  0  0  0  0  0  0
  191.4570  176.3670  146.8410 C   0  0  0  0  0  0  0  0  0  0  0  0
  192.5110  175.0460  144.8970 C   0  0  2  0  0  3  0  0  0  0  0  0
  192.6980  176.7920  147.5440 C   0  0  0  0  0  1  0  0  0  0  0  0
  188.5410  172.6640  138.4000 O   0  0  0  0  0  1  0  0  0  0  0  0
  188.1840  173.0500  140.7530 C   0  0  0  0  0  3  0  0  0  0  0  0
  191.9310  174.8080  143.4850 C   0  0  2  0  0  3  0  0  0  0  0  0
  190.1350  176.7290  147.2680 N   0  0  0  0  0  0  0  0  0  0  0  0
  190.0220  175.4650  145.4040 C   0  0  0  0  0  0  0  0  0  0  0  0
  187.8110  176.0390  146.5640 C   0  0  0  0  0  2  0  0  0  0  0  0
  187.0630  177.1730  145.9510 C   0  0  0  0  0  0  0  0  0  0  0  0
  185.7080  179.3410  144.8150 C   0  0  0  0  0  0  0  0  0  0  0  0
  187.2140  177.4570  144.5890 C   0  0  0  0  0  3  0  0  0  0  0  0
  186.2430  177.9810  146.7460 C   0  0  0  0  0  3  0  0  0  0  0  0
  185.5640  179.0630  146.1780 C   0  0  0  0  0  3  0  0  0  0  0  0
  185.0510  180.3890  144.2640 F   0  0  0  0  0  0  0  0  0  0  0  0
  186.5340  178.5390  144.0210 C   0  0  0  0  0  3  0  0  0  0  0  0
  1 21  1  0  0  0  0
  1 19  1  0  0  0  0
  2  7  1  0  0  0  0
  4 12  1  0  0  0  0
  4  7  2  0  0  0  0
  5  7  1  6  0  0  0
  5 11  1  0  0  0  0
  6  9  2  0  0  0  0
  6 17  1  0  0  0  0
  9  4  1  0  0  0  0
 10 13  1  0  0  0  0
 11 20  1  0  0  0  0
 12  8  1  0  0  0  0
 13 19  2  0  0  0  0
 13 15  1  0  0  0  0
 14  3  1  1  0  0  0
 14 10  1  0  0  0  0
 16  6  1  0  0  0  0
 17  2  2  0  0  0  0
 18  8  1  6  0  0  0
 18  5  1  0  0  0  0
 18 14  1  0  0  0  0
 20 10  2  0  0  0  0
 20  1  1  0  0  0  0
 22 21  1  0  0  0  0
 22 25  1  0  0  0  0
 23 26  1  0  0  0  0
 24 22  2  0  0  0  0
 26 25  2  0  0  0  0
 27 23  1  0  0  0  0
 28 24  1  0  0  0  0
 28 23  2  0  0  0  0
M  END
>  <MODEL>
6

>  <REMARK>
 VINA RESULT:      -7.5      3.095      6.877
  Name = 
  2 active torsions:
  status: ('A' for Active; 'I' for Inactive)
    1  A    between atoms: N_1  and  C_2
    2  A    between atoms: C_2  and  C_3
                            x       y       z     vdW  Elec       q    Type
                         _______ _______ _______ _____ _____    ______ ____

>  <TORSDO>
F 2

$$$$
=
 OpenBabel11052418113D

 28 32  0  0  1  0  0  0  0  0999 V2000
  190.4830  173.4240  143.4590 N   0  0  0  0  0  0  0  0  0  0  0  0
  186.3240  176.4240  144.0980 C   0  0  0  0  0  3  0  0  0  0  0  0
  187.9760  173.4740  139.7640 O   0  0  0  0  0  1  0  0  0  0  0  0
  186.2510  177.4860  141.9110 C   0  0  0  0  0  0  0  0  0  0  0  0
  187.4980  175.2880  142.1830 C   0  0  2  0  0  3  0  0  0  0  0  0
  185.0960  178.4870  143.7950 C   0  0  0  0  0  0  0  0  0  0  0  0
  186.7170  176.4470  142.7520 C   0  0  0  0  0  0  0  0  0  0  0  0
  187.1280  176.2510  139.8860 C   0  0  0  0  0  2  0  0  0  0  0  0
  185.4600  178.5070  142.4470 C   0  0  0  0  0  3  0  0  0  0  0  0
  189.7390  173.8260  141.2940 C   0  0  0  0  0  0  0  0  0  0  0  0
  188.4870  174.7630  143.1370 N   0  0  0  0  0  2  0  0  0  0  0  0
  186.6600  177.5840  140.4640 C   0  0  0  0  0  2  0  0  0  0  0  0
  190.8320  173.0700  141.2310 C   0  0  0  0  0  0  0  0  0  0  0  0
  188.8940  174.4270  140.2120 C   0  0  2  0  0  3  0  0  0  0  0  0
  191.4840  172.6030  139.9780 C   0  0  0  0  0  1  0  0  0  0  0  0
  184.3070  179.5030  144.3160 O   0  0  0  0  0  1  0  0  0  0  0  0
  185.5240  177.4430  144.6190 C   0  0  0  0  0  3  0  0  0  0  0  0
  188.1580  175.6390  140.8240 C   0  0  2  0  0  3  0  0  0  0  0  0
  191.3240  172.7700  142.5460 N   0  0  0  0  0  0  0  0  0  0  0  0
  189.4690  174.0420  142.6920 C   0  0  0  0  0  0  0  0  0  0  0  0
  190.4250  173.1130  144.8800 C   0  0  0  0  0  2  0  0  0  0  0  0
  190.3660  174.3680  145.6810 C   0  0  0  0  0  0  0  0  0  0  0  0
  190.2290  176.7540  147.1330 C   0  0  0  0  0  0  0  0  0  0  0  0
  189.2440  174.6440  146.4700 C   0  0  0  0  0  3  0  0  0  0  0  0
  191.4140  175.2920  145.6100 C   0  0  0  0  0  3  0  0  0  0  0  0
  191.3460  176.4840  146.3380 C   0  0  0  0  0  3  0  0  0  0  0  0
  190.1630  177.9090  147.8390 F   0  0  0  0  0  0  0  0  0  0  0  0
  189.1770  175.8350  147.1990 C   0  0  0  0  0  3  0  0  0  0  0  0
  1 21  1  0  0  0  0
  2 17  1  0  0  0  0
  4  9  2  0  0  0  0
  4  7  1  0  0  0  0
  5  7  1  1  0  0  0
  5 11  1  0  0  0  0
  6 16  1  0  0  0  0
  6 17  2  0  0  0  0
  7  2  2  0  0  0  0
  8 12  1  0  0  0  0
  9  6  1  0  0  0  0
 10 20  2  0  0  0  0
 12  4  1  0  0  0  0
 13 10  1  0  0  0  0
 13 19  2  0  0  0  0
 14  3  1  1  0  0  0
 14 18  1  0  0  0  0
 14 10  1  0  0  0  0
 15 13  1  0  0  0  0
 18  8  1  6  0  0  0
 18  5  1  0  0  0  0
 19  1  1  0  0  0  0
 20 11  1  0  0  0  0
 20  1  1  0  0  0  0
 21 22  1  0  0  0  0
 22 24  1  0  0  0  0
 23 28  1  0  0  0  0
 23 27  1  0  0  0  0
 24 28  2  0  0  0  0
 25 22  2  0  0  0  0
 25 26  1  0  0  0  0
 26 23  2  0  0  0  0
M  END
>  <MODEL>
7

>  <REMARK>
 VINA RESULT:      -7.3      1.895      2.349
  Name = 
  2 active torsions:
  status: ('A' for Active; 'I' for Inactive)
    1  A    between atoms: N_1  and  C_2
    2  A    between atoms: C_2  and  C_3
                            x       y       z     vdW  Elec       q    Type
                         _______ _______ _______ _____ _____    ______ ____

>  <TORSDO>
F 2

$$$$
=
 OpenBabel11052418113D

 28 32  0  0  1  0  0  0  0  0999 V2000
  187.9220  176.3580  143.8950 N   0  0  0  0  0  0  0  0  0  0  0  0
  192.9770  175.4560  143.3130 C   0  0  0  0  0  3  0  0  0  0  0  0
  189.7360  174.9440  147.7230 O   0  0  0  0  0  1  0  0  0  0  0  0
  193.7920  176.3420  145.4260 C   0  0  0  0  0  0  0  0  0  0  0  0
  191.3520  175.6620  145.2240 C   0  0  2  0  0  3  0  0  0  0  0  0
  195.3080  176.0580  143.5540 C   0  0  0  0  0  0  0  0  0  0  0  0
  192.7220  175.8700  144.6280 C   0  0  0  0  0  0  0  0  0  0  0  0
  192.3060  176.2780  147.4710 C   0  0  0  0  0  2  0  0  0  0  0  0
  195.0720  176.4500  144.8740 C   0  0  0  0  0  3  0  0  0  0  0  0
  188.7400  176.3050  146.0710 C   0  0  0  0  0  0  0  0  0  0  0  0
  190.2790  175.9100  144.2480 N   0  0  0  0  0  2  0  0  0  0  0  0
  193.5810  176.8280  146.8370 C   0  0  0  0  0  2  0  0  0  0  0  0
  187.4340  176.5540  146.1160 C   0  0  0  0  0  0  0  0  0  0  0  0
  189.7660  176.2210  147.1590 C   0  0  2  0  0  3  0  0  0  0  0  0
  186.6490  176.8000  147.3560 C   0  0  0  0  0  1  0  0  0  0  0  0
  196.5830  176.1650  143.0160 O   0  0  0  0  0  1  0  0  0  0  0  0
  194.2620  175.5580  142.7750 C   0  0  0  0  0  3  0  0  0  0  0  0
  191.1430  176.4950  146.5150 C   0  0  2  0  0  3  0  0  0  0  0  0
  186.8690  176.5760  144.7970 N   0  0  0  0  0  0  0  0  0  0  0  0
  189.0780  176.1400  144.6800 C   0  0  0  0  0  0  0  0  0  0  0  0
  187.7360  175.9730  142.5040 C   0  0  0  0  0  2  0  0  0  0  0  0
  186.6330  176.7660  141.8920 C   0  0  0  0  0  0  0  0  0  0  0  0
  184.5930  178.3110  140.7620 C   0  0  0  0  0  0  0  0  0  0  0  0
  186.7140  177.1620  140.5520 C   0  0  0  0  0  3  0  0  0  0  0  0
  185.5360  177.1540  142.6680 C   0  0  0  0  0  3  0  0  0  0  0  0
  184.5150  177.9240  142.1030 C   0  0  0  0  0  3  0  0  0  0  0  0
  183.6040  179.0570  140.2140 F   0  0  0  0  0  0  0  0  0  0  0  0
  185.6930  177.9310  139.9870 C   0  0  0  0  0  3  0  0  0  0  0  0
  1 20  1  0  0  0  0
  1 19  1  0  0  0  0
  2  7  1  0  0  0  0
  4 12  1  0  0  0  0
  5 11  1  6  0  0  0
  5 18  1  0  0  0  0
  6  9  2  0  0  0  0
  7  5  1  0  0  0  0
  7  4  2  0  0  0  0
  9  4  1  0  0  0  0
 10 13  1  0  0  0  0
 10 14  1  0  0  0  0
 11 20  1  0  0  0  0
 12  8  1  0  0  0  0
 13 15  1  0  0  0  0
 14  3  1  6  0  0  0
 16  6  1  0  0  0  0
 17  2  2  0  0  0  0
 17  6  1  0  0  0  0
 18 14  1  0  0  0  0
 18  8  1  1  0  0  0
 19 13  2  0  0  0  0
 20 10  2  0  0  0  0
 21  1  1  0  0  0  0
 22 21  1  0  0  0  0
 22 25  1  0  0  0  0
 23 26  1  0  0  0  0
 24 22  2  0  0  0  0
 26 25  2  0  0  0  0
 27 23  1  0  0  0  0
 28 24  1  0  0  0  0
 28 23  2  0  0  0  0
M  END
>  <MODEL>
8

>  <REMARK>
 VINA RESULT:      -7.3      3.630      7.904
  Name = 
  2 active torsions:
  status: ('A' for Active; 'I' for Inactive)
    1  A    between atoms: N_1  and  C_2
    2  A    between atoms: C_2  and  C_3
                            x       y       z     vdW  Elec       q    Type
                         _______ _______ _______ _____ _____    ______ ____

>  <TORSDO>
F 2

$$$$
=
 OpenBabel11052418113D

 28 32  0  0  1  0  0  0  0  0999 V2000
  187.6990  176.5710  143.1880 N   0  0  0  0  0  0  0  0  0  0  0  0
  192.7310  175.5200  143.7250 C   0  0  0  0  0  3  0  0  0  0  0  0
  188.5700  175.0110  147.2810 O   0  0  0  0  0  1  0  0  0  0  0  0
  193.0740  176.3300  145.9920 C   0  0  0  0  0  0  0  0  0  0  0  0
  190.7240  175.7340  145.2290 C   0  0  2  0  0  3  0  0  0  0  0  0
  194.9630  176.0420  144.4980 C   0  0  0  0  0  0  0  0  0  0  0  0
  192.1980  175.9110  144.9610 C   0  0  0  0  0  0  0  0  0  0  0  0
  191.1650  176.2670  147.6500 C   0  0  0  0  0  2  0  0  0  0  0  0
  194.4480  176.4100  145.7430 C   0  0  0  0  0  3  0  0  0  0  0  0
  188.0070  176.4410  145.4890 C   0  0  0  0  0  0  0  0  0  0  0  0
  189.9040  176.0390  144.0460 N   0  0  0  0  0  2  0  0  0  0  0  0
  192.5640  176.7910  147.3330 C   0  0  0  0  0  2  0  0  0  0  0  0
  186.7310  176.7320  145.2490 C   0  0  0  0  0  0  0  0  0  0  0  0
  188.7600  176.3000  146.7770 C   0  0  2  0  0  3  0  0  0  0  0  0
  185.6940  176.9740  146.2890 C   0  0  0  0  0  1  0  0  0  0  0  0
  196.3290  176.1190  144.2630 O   0  0  0  0  0  1  0  0  0  0  0  0
  194.1060  175.5930  143.4910 C   0  0  0  0  0  3  0  0  0  0  0  0
  190.2530  176.5440  146.4650 C   0  0  2  0  0  3  0  0  0  0  0  0
  186.4770  176.8020  143.8380 N   0  0  0  0  0  0  0  0  0  0  0  0
  188.6430  176.2980  144.2050 C   0  0  0  0  0  0  0  0  0  0  0  0
  187.8200  176.2240  141.7800 C   0  0  0  0  0  2  0  0  0  0  0  0
  188.4020  174.8600  141.6330 C   0  0  0  0  0  0  0  0  0  0  0  0
  189.5240  172.3070  141.4150 C   0  0  0  0  0  0  0  0  0  0  0  0
  187.7110  173.7460  142.1250 C   0  0  0  0  0  3  0  0  0  0  0  0
  189.6590  174.6960  141.0430 C   0  0  0  0  0  3  0  0  0  0  0  0
  190.2190  173.4200  140.9320 C   0  0  0  0  0  3  0  0  0  0  0  0
  190.0660  171.0700  141.3070 F   0  0  0  0  0  0  0  0  0  0  0  0
  188.2710  172.4710  142.0130 C   0  0  0  0  0  3  0  0  0  0  0  0
  1 19  1  0  0  0  0
  1 20  1  0  0  0  0
  2  7  1  0  0  0  0
  4 12  1  0  0  0  0
  5 11  1  6  0  0  0
  5 18  1  0  0  0  0
  6  9  2  0  0  0  0
  7  5  1  0  0  0  0
  7  4  2  0  0  0  0
  9  4  1  0  0  0  0
 10 14  1  0  0  0  0
 11 20  1  0  0  0  0
 12  8  1  0  0  0  0
 13 10  1  0  0  0  0
 13 15  1  0  0  0  0
 14  3  1  6  0  0  0
 16  6  1  0  0  0  0
 17  2  2  0  0  0  0
 17  6  1  0  0  0  0
 18 14  1  0  0  0  0
 18  8  1  1  0  0  0
 19 13  2  0  0  0  0
 20 10  2  0  0  0  0
 21  1  1  0  0  0  0
 22 21  1  0  0  0  0
 22 24  1  0  0  0  0
 23 28  1  0  0  0  0
 25 22  2  0  0  0  0
 26 25  1  0  0  0  0
 26 23  2  0  0  0  0
 27 23  1  0  0  0  0
 28 24  2  0  0  0  0
M  END
>  <MODEL>
9

>  <REMARK>
 VINA RESULT:      -7.3      3.168      6.838
  Name = 
  2 active torsions:
  status: ('A' for Active; 'I' for Inactive)
    1  A    between atoms: N_1  and  C_2
    2  A    between atoms: C_2  and  C_3
                            x       y       z     vdW  Elec       q    Type
                         _______ _______ _______ _____ _____    ______ ____

>  <TORSDO>
F 2

$$$$
