=
 OpenBabel11052418033D

 28 30  0  0  1  0  0  0  0  0999 V2000
  187.2610  177.9800  144.7280 C   0  0  1  0  0  3  0  0  0  0  0  0
  188.9170  174.2960  147.4480 O   0  0  0  0  0  1  0  0  0  0  0  0
  190.4940  175.9060  144.4510 C   0  0  2  0  0  3  0  0  0  0  0  0
  191.5020  175.9790  145.5800 C   0  0  1  0  0  3  0  0  0  0  0  0
  188.2520  176.2930  146.3370 C   0  0  0  0  0  0  0  0  0  0  0  0
  189.6060  177.1440  144.4790 C   0  0  0  0  0  2  0  0  0  0  0  0
  186.2260  177.4590  146.8520 O   0  0  0  0  0  0  0  0  0  0  0  0
  189.4000  175.4320  146.7960 C   0  0  2  0  0  3  0  0  0  0  0  0
  187.3080  176.6480  147.2170 C   0  0  0  0  0  3  0  0  0  0  0  0
  190.3590  174.9870  145.6780 C   0  0  1  0  0  3  0  0  0  0  0  0
  185.9510  177.7870  145.4920 C   0  0  0  0  0  2  0  0  0  0  0  0
  188.1980  176.7720  144.9080 C   0  0  2  0  0  3  0  0  0  0  0  0
  187.0680  178.3520  143.3750 O   0  0  0  0  0  0  0  0  0  0  0  0
  186.0380  177.5720  142.8080 C   0  0  2  0  0  3  0  0  0  0  0  0
  187.8330  176.8820  141.2730 C   0  0  0  0  0  2  0  0  0  0  0  0
  186.6080  176.6760  141.7510 C   0  0  0  0  0  3  0  0  0  0  0  0
  183.7350  178.2750  142.8710 O   0  0  0  0  0  1  0  0  0  0  0  0
  184.9510  178.4700  142.2110 C   0  0  2  0  0  3  0  0  0  0  0  0
  184.7700  178.2090  140.7250 C   0  0  0  0  0  2  0  0  0  0  0  0
  183.3560  178.2010  140.3910 N   0  0  0  0  0  1  0  0  0  0  0  0
  192.7760  175.2530  145.1770 C   0  0  1  0  0  3  0  0  0  0  0  0
  194.1360  176.8710  146.4860 C   0  0  0  0  0  1  0  0  0  0  0  0
  194.8860  176.3090  144.1680 C   0  0  0  0  0  0  0  0  0  0  0  0
  193.9410  176.1400  145.2440 N   0  0  0  0  0  0  0  0  0  0  0  0
  195.8640  177.0930  144.3070 O   0  0  0  0  0  0  0  0  0  0  0  0
  194.7220  175.4320  142.6100 S   0  0  0  0  0  1  0  0  0  0  0  0
  192.9760  173.9940  146.0120 C   0  0  0  0  0  2  0  0  0  0  0  0
  193.4460  172.8490  145.1350 C   0  0  0  0  0  1  0  0  0  0  0  0
  1 13  1  6  0  0  0
  1 12  1  0  0  0  0
  1 11  1  0  0  0  0
  3  6  1  1  0  0  0
  3  4  1  0  0  0  0
  3 10  1  0  0  0  0
  4 21  1  6  0  0  0
  4 10  1  0  0  0  0
  5  8  1  0  0  0  0
  5  9  2  0  0  0  0
  6 12  1  0  0  0  0
  7  9  1  0  0  0  0
  8  2  1  6  0  0  0
 10  8  1  0  0  0  0
 11  7  1  0  0  0  0
 12  5  1  0  0  0  0
 14 13  1  0  0  0  0
 15 16  2  0  0  0  0
 16 14  1  0  0  0  0
 18 14  1  0  0  0  0
 18 17  1  0  0  0  0
 19 18  1  0  0  0  0
 20 19  1  0  0  0  0
 21 24  1  0  0  0  0
 21 27  1  0  0  0  0
 23 25  2  0  0  0  0
 23 24  1  0  0  0  0
 24 22  1  0  0  0  0
 26 23  1  0  0  0  0
 28 27  1  0  0  0  0
M  END
>  <MODEL>
1

>  <REMARK>
 VINA RESULT:      -6.6      0.000      0.000
  Name = 
  8 active torsions:
  status: ('A' for Active; 'I' for Inactive)
    1  A    between atoms: C_1  and  O_2
    2  A    between atoms: O_2  and  C_3
    3  A    between atoms: C_3  and  C_11
    4  A    between atoms: C_3  and  C_22
    5  A    between atoms: C_4  and  C_13
    6  A    between atoms: C_4  and  C_14
    7  A    between atoms: C_4  and  N_15
    8  A    between atoms: C_7  and  C_11
                            x       y       z     vdW  Elec       q    Type
                         _______ _______ _______ _____ _____    ______ ____

>  <TORSDO>
F 8

$$$$
=
 OpenBabel11052418033D

 28 30  0  0  1  0  0  0  0  0999 V2000
  185.1610  178.1010  143.5230 C   0  0  1  0  0  3  0  0  0  0  0  0
  186.7080  177.4730  148.0980 O   0  0  0  0  0  1  0  0  0  0  0  0
  188.2060  176.1940  144.9070 C   0  0  2  0  0  3  0  0  0  0  0  0
  189.2870  176.9760  145.6260 C   0  0  1  0  0  3  0  0  0  0  0  0
  186.1240  178.0580  145.8650 C   0  0  0  0  0  0  0  0  0  0  0  0
  187.4160  177.1300  144.0010 C   0  0  0  0  0  2  0  0  0  0  0  0
  184.2270  179.4160  145.3270 O   0  0  0  0  0  0  0  0  0  0  0  0
  187.2310  177.7080  146.8250 C   0  0  2  0  0  3  0  0  0  0  0  0
  185.2670  179.0360  146.1850 C   0  0  0  0  0  3  0  0  0  0  0  0
  188.0820  176.4940  146.4110 C   0  0  1  0  0  3  0  0  0  0  0  0
  183.8910  178.6620  144.1650 C   0  0  0  0  0  2  0  0  0  0  0  0
  186.0150  177.3340  144.5480 C   0  0  2  0  0  3  0  0  0  0  0  0
  184.9100  177.3740  142.3330 O   0  0  0  0  0  0  0  0  0  0  0  0
  185.3460  178.1200  141.2180 C   0  0  2  0  0  3  0  0  0  0  0  0
  182.9440  178.2180  140.6980 C   0  0  0  0  0  2  0  0  0  0  0  0
  184.2010  178.3390  140.2780 C   0  0  0  0  0  3  0  0  0  0  0  0
  187.7110  178.0110  140.7720 O   0  0  0  0  0  1  0  0  0  0  0  0
  186.4880  177.3930  140.5010 C   0  0  2  0  0  3  0  0  0  0  0  0
  186.2610  177.3500  138.9990 C   0  0  0  0  0  2  0  0  0  0  0  0
  186.9000  176.1730  138.4350 N   0  0  0  0  0  1  0  0  0  0  0  0
  190.4760  176.0690  145.9060 C   0  0  1  0  0  3  0  0  0  0  0  0
  191.9230  177.2930  144.2970 C   0  0  0  0  0  1  0  0  0  0  0  0
  191.7920  174.8040  144.1020 C   0  0  0  0  0  0  0  0  0  0  0  0
  191.3920  176.0220  144.7640 N   0  0  0  0  0  0  0  0  0  0  0  0
  192.5880  174.8500  143.1250 O   0  0  0  0  0  0  0  0  0  0  0  0
  191.1920  173.1950  144.6270 S   0  0  0  0  0  1  0  0  0  0  0  0
  191.1900  176.4820  147.1870 C   0  0  0  0  0  2  0  0  0  0  0  0
  191.3490  175.2890  148.1100 C   0  0  0  0  0  1  0  0  0  0  0  0
  1 13  1  6  0  0  0
  1 11  1  0  0  0  0
  1 12  1  0  0  0  0
  3  6  1  6  0  0  0
  3  4  1  0  0  0  0
  3 10  1  0  0  0  0
  4 21  1  1  0  0  0
  4 10  1  0  0  0  0
  5  9  2  0  0  0  0
  5  8  1  0  0  0  0
  6 12  1  0  0  0  0
  7  9  1  0  0  0  0
  8  2  1  1  0  0  0
 10  8  1  0  0  0  0
 11  7  1  0  0  0  0
 12  5  1  0  0  0  0
 14 13  1  0  0  0  0
 16 15  2  0  0  0  0
 16 14  1  0  0  0  0
 18 17  1  0  0  0  0
 18 14  1  0  0  0  0
 19 18  1  0  0  0  0
 20 19  1  0  0  0  0
 21 27  1  0  0  0  0
 22 24  1  0  0  0  0
 23 26  1  0  0  0  0
 23 24  1  0  0  0  0
 24 21  1  0  0  0  0
 25 23  2  0  0  0  0
 27 28  1  0  0  0  0
M  END
>  <MODEL>
2

>  <REMARK>
 VINA RESULT:      -6.5      2.289      3.274
  Name = 
  8 active torsions:
  status: ('A' for Active; 'I' for Inactive)
    1  A    between atoms: C_1  and  O_2
    2  A    between atoms: O_2  and  C_3
    3  A    between atoms: C_3  and  C_11
    4  A    between atoms: C_3  and  C_22
    5  A    between atoms: C_4  and  C_13
    6  A    between atoms: C_4  and  C_14
    7  A    between atoms: C_4  and  N_15
    8  A    between atoms: C_7  and  C_11
                            x       y       z     vdW  Elec       q    Type
                         _______ _______ _______ _____ _____    ______ ____

>  <TORSDO>
F 8

$$$$
=
 OpenBabel11052418033D

 28 30  0  0  1  0  0  0  0  0999 V2000
  185.7220  179.0670  143.8010 C   0  0  1  0  0  3  0  0  0  0  0  0
  186.6240  176.2500  147.6690 O   0  0  0  0  0  1  0  0  0  0  0  0
  188.6300  176.6490  144.5270 C   0  0  2  0  0  3  0  0  0  0  0  0
  189.5540  176.9540  145.6880 C   0  0  1  0  0  3  0  0  0  0  0  0
  186.3380  177.8630  145.9430 C   0  0  0  0  0  0  0  0  0  0  0  0
  187.9320  177.9290  144.0810 C   0  0  0  0  0  2  0  0  0  0  0  0
  184.4720  179.3600  145.8520 O   0  0  0  0  0  0  0  0  0  0  0  0
  187.3130  177.0610  146.7660 C   0  0  2  0  0  3  0  0  0  0  0  0
  185.3960  178.5830  146.5640 C   0  0  0  0  0  3  0  0  0  0  0  0
  188.2750  176.1820  145.9490 C   0  0  1  0  0  3  0  0  0  0  0  0
  184.3460  179.2770  144.4350 C   0  0  0  0  0  2  0  0  0  0  0  0
  186.4580  177.8760  144.4400 C   0  0  2  0  0  3  0  0  0  0  0  0
  185.6830  179.0190  142.3860 O   0  0  0  0  0  0  0  0  0  0  0  0
  185.1320  177.7900  141.9660 C   0  0  2  0  0  3  0  0  0  0  0  0
  187.1510  177.4790  140.5950 C   0  0  0  0  0  2  0  0  0  0  0  0
  186.2030  176.9380  141.3570 C   0  0  0  0  0  3  0  0  0  0  0  0
  184.2610  179.1650  140.1900 O   0  0  0  0  0  1  0  0  0  0  0  0
  184.0050  178.0240  140.9560 C   0  0  2  0  0  3  0  0  0  0  0  0
  182.6600  178.1680  141.6470 C   0  0  0  0  0  2  0  0  0  0  0  0
  181.5980  178.2270  140.6580 N   0  0  0  0  0  1  0  0  0  0  0  0
  190.7350  175.9950  145.6680 C   0  0  1  0  0  3  0  0  0  0  0  0
  191.3990  176.6640  147.9680 C   0  0  0  0  0  1  0  0  0  0  0  0
  193.1670  176.6120  146.2020 C   0  0  0  0  0  0  0  0  0  0  0  0
  191.7900  176.4260  146.5880 N   0  0  0  0  0  0  0  0  0  0  0  0
  194.0150  176.9850  147.0580 O   0  0  0  0  0  0  0  0  0  0  0  0
  193.7320  176.3260  144.5220 S   0  0  0  0  0  1  0  0  0  0  0  0
  190.2850  174.5670  145.9550 C   0  0  0  0  0  2  0  0  0  0  0  0
  190.9420  173.6030  144.9850 C   0  0  0  0  0  1  0  0  0  0  0  0
  1 13  1  6  0  0  0
  1 11  1  0  0  0  0
  1 12  1  0  0  0  0
  3  6  1  1  0  0  0
  3  4  1  0  0  0  0
  3 10  1  0  0  0  0
  4 21  1  6  0  0  0
  4 10  1  0  0  0  0
  5  9  2  0  0  0  0
  5  8  1  0  0  0  0
  6 12  1  0  0  0  0
  7  9  1  0  0  0  0
  8  2  1  1  0  0  0
 10  8  1  0  0  0  0
 11  7  1  0  0  0  0
 12  5  1  0  0  0  0
 14 13  1  0  0  0  0
 15 16  2  0  0  0  0
 16 14  1  0  0  0  0
 17 18  1  0  0  0  0
 18 19  1  0  0  0  0
 18 14  1  0  0  0  0
 20 19  1  0  0  0  0
 21 27  1  0  0  0  0
 21 24  1  0  0  0  0
 23 24  1  0  0  0  0
 23 25  2  0  0  0  0
 24 22  1  0  0  0  0
 26 23  1  0  0  0  0
 28 27  1  0  0  0  0
M  END
>  <MODEL>
3

>  <REMARK>
 VINA RESULT:      -6.5      1.716      2.362
  Name = 
  8 active torsions:
  status: ('A' for Active; 'I' for Inactive)
    1  A    between atoms: C_1  and  O_2
    2  A    between atoms: O_2  and  C_3
    3  A    between atoms: C_3  and  C_11
    4  A    between atoms: C_3  and  C_22
    5  A    between atoms: C_4  and  C_13
    6  A    between atoms: C_4  and  C_14
    7  A    between atoms: C_4  and  N_15
    8  A    between atoms: C_7  and  C_11
                            x       y       z     vdW  Elec       q    Type
                         _______ _______ _______ _____ _____    ______ ____

>  <TORSDO>
F 8

$$$$
=
 OpenBabel11052418033D

 28 30  0  0  1  0  0  0  0  0999 V2000
  186.0820  179.0050  143.8610 C   0  0  1  0  0  3  0  0  0  0  0  0
  186.3590  176.4370  147.9900 O   0  0  0  0  0  1  0  0  0  0  0  0
  188.6190  176.3410  144.9990 C   0  0  2  0  0  3  0  0  0  0  0  0
  189.4880  176.6340  146.2060 C   0  0  1  0  0  3  0  0  0  0  0  0
  186.3940  177.9220  146.1300 C   0  0  0  0  0  0  0  0  0  0  0  0
  188.1130  177.6490  144.4040 C   0  0  0  0  0  2  0  0  0  0  0  0
  184.7330  179.6090  145.7760 O   0  0  0  0  0  0  0  0  0  0  0  0
  187.2040  177.0870  147.0870 C   0  0  2  0  0  3  0  0  0  0  0  0
  185.5030  178.7950  146.6170 C   0  0  0  0  0  3  0  0  0  0  0  0
  188.1090  176.0380  146.4180 C   0  0  1  0  0  3  0  0  0  0  0  0
  184.6990  179.4220  144.3640 C   0  0  0  0  0  2  0  0  0  0  0  0
  186.6220  177.7950  144.6450 C   0  0  2  0  0  3  0  0  0  0  0  0
  186.1390  178.8430  142.4550 O   0  0  0  0  0  0  0  0  0  0  0  0
  185.4760  177.6540  142.0850 C   0  0  2  0  0  3  0  0  0  0  0  0
  187.5420  177.0280  140.9040 C   0  0  0  0  0  2  0  0  0  0  0  0
  186.4760  176.6470  141.6040 C   0  0  0  0  0  3  0  0  0  0  0  0
  184.8110  179.0530  140.2400 O   0  0  0  0  0  1  0  0  0  0  0  0
  184.4410  177.9340  140.9920 C   0  0  2  0  0  3  0  0  0  0  0  0
  183.0570  178.1510  141.5800 C   0  0  0  0  0  2  0  0  0  0  0  0
  182.0560  178.0870  140.5290 N   0  0  0  0  0  1  0  0  0  0  0  0
  190.5430  175.5490  146.3530 C   0  0  1  0  0  3  0  0  0  0  0  0
  192.2520  176.7220  144.9800 C   0  0  0  0  0  1  0  0  0  0  0  0
  191.5960  174.4030  144.3130 C   0  0  0  0  0  0  0  0  0  0  0  0
  191.4520  175.5280  145.2040 N   0  0  0  0  0  0  0  0  0  0  0  0
  192.4040  174.4660  143.3460 O   0  0  0  0  0  0  0  0  0  0  0  0
  190.6560  172.8900  144.5310 S   0  0  0  0  0  1  0  0  0  0  0  0
  191.2990  175.6950  147.6680 C   0  0  0  0  0  2  0  0  0  0  0  0
  191.0790  177.0780  148.2510 C   0  0  0  0  0  1  0  0  0  0  0  0
  1 13  1  6  0  0  0
  1 11  1  0  0  0  0
  1 12  1  0  0  0  0
  3  6  1  1  0  0  0
  3  4  1  0  0  0  0
  3 10  1  0  0  0  0
  4 21  1  6  0  0  0
  4 10  1  0  0  0  0
  5  9  2  0  0  0  0
  5  8  1  0  0  0  0
  6 12  1  0  0  0  0
  7  9  1  0  0  0  0
  8  2  1  1  0  0  0
 10  8  1  0  0  0  0
 11  7  1  0  0  0  0
 12  5  1  0  0  0  0
 14 13  1  0  0  0  0
 15 16  2  0  0  0  0
 16 14  1  0  0  0  0
 17 18  1  0  0  0  0
 18 19  1  0  0  0  0
 18 14  1  0  0  0  0
 20 19  1  0  0  0  0
 21 27  1  0  0  0  0
 22 24  1  0  0  0  0
 23 26  1  0  0  0  0
 23 24  1  0  0  0  0
 24 21  1  0  0  0  0
 25 23  2  0  0  0  0
 27 28  1  0  0  0  0
M  END
>  <MODEL>
4

>  <REMARK>
 VINA RESULT:      -6.3      2.049      2.755
  Name = 
  8 active torsions:
  status: ('A' for Active; 'I' for Inactive)
    1  A    between atoms: C_1  and  O_2
    2  A    between atoms: O_2  and  C_3
    3  A    between atoms: C_3  and  C_11
    4  A    between atoms: C_3  and  C_22
    5  A    between atoms: C_4  and  C_13
    6  A    between atoms: C_4  and  C_14
    7  A    between atoms: C_4  and  N_15
    8  A    between atoms: C_7  and  C_11
                            x       y       z     vdW  Elec       q    Type
                         _______ _______ _______ _____ _____    ______ ____

>  <TORSDO>
F 8

$$$$
=
 OpenBabel11052418033D

 28 30  0  0  1  0  0  0  0  0999 V2000
  187.9430  177.5430  145.0170 C   0  0  1  0  0  3  0  0  0  0  0  0
  190.2740  173.2860  145.4220 O   0  0  0  0  0  1  0  0  0  0  0  0
  190.9780  176.1470  143.1020 C   0  0  2  0  0  3  0  0  0  0  0  0
  192.2550  175.8690  143.8700 C   0  0  1  0  0  3  0  0  0  0  0  0
  189.3320  175.4720  145.4620 C   0  0  0  0  0  0  0  0  0  0  0  0
  190.1310  177.1560  143.8690 C   0  0  0  0  0  2  0  0  0  0  0  0
  187.5230  176.0870  146.9040 O   0  0  0  0  0  0  0  0  0  0  0  0
  190.5620  174.6370  145.2160 C   0  0  2  0  0  3  0  0  0  0  0  0
  188.6640  175.3280  146.6130 C   0  0  0  0  0  3  0  0  0  0  0  0
  191.1810  174.7990  143.8170 C   0  0  1  0  0  3  0  0  0  0  0  0
  186.8890  176.9070  145.9250 C   0  0  0  0  0  2  0  0  0  0  0  0
  188.8930  176.4820  144.4330 C   0  0  2  0  0  3  0  0  0  0  0  0
  187.3890  178.4090  144.0420 O   0  0  0  0  0  0  0  0  0  0  0  0
  186.1320  177.9200  143.6280 C   0  0  2  0  0  3  0  0  0  0  0  0
  186.9540  177.7810  141.3130 C   0  0  0  0  0  2  0  0  0  0  0  0
  186.2720  177.2220  142.3100 C   0  0  0  0  0  3  0  0  0  0  0  0
  185.6600  180.2480  144.0270 O   0  0  0  0  0  1  0  0  0  0  0  0
  185.1210  179.0650  143.5160 C   0  0  2  0  0  3  0  0  0  0  0  0
  183.8290  178.7380  144.2440 C   0  0  0  0  0  2  0  0  0  0  0  0
  183.9900  178.9730  145.6690 N   0  0  0  0  0  1  0  0  0  0  0  0
  193.3720  175.5220  142.8970 C   0  0  1  0  0  3  0  0  0  0  0  0
  194.6800  174.8290  144.8940 C   0  0  0  0  0  1  0  0  0  0  0  0
  195.9030  175.9270  143.0100 C   0  0  0  0  0  0  0  0  0  0  0  0
  194.6670  175.4440  143.5760 N   0  0  0  0  0  0  0  0  0  0  0  0
  196.9770  175.8200  143.6610 O   0  0  0  0  0  0  0  0  0  0  0  0
  195.9720  176.6850  141.3840 S   0  0  0  0  0  1  0  0  0  0  0  0
  193.0550  174.2390  142.1360 C   0  0  0  0  0  2  0  0  0  0  0  0
  193.0900  174.4910  140.6410 C   0  0  0  0  0  1  0  0  0  0  0  0
  1 13  1  6  0  0  0
  1 11  1  0  0  0  0
  3 10  1  0  0  0  0
  3  6  1  1  0  0  0
  3  4  1  0  0  0  0
  4 21  1  6  0  0  0
  5  9  2  0  0  0  0
  6 12  1  0  0  0  0
  8  2  1  6  0  0  0
  8  5  1  0  0  0  0
  9  7  1  0  0  0  0
 10  4  1  0  0  0  0
 10  8  1  0  0  0  0
 11  7  1  0  0  0  0
 12  1  1  0  0  0  0
 12  5  1  0  0  0  0
 14 13  1  0  0  0  0
 15 16  2  0  0  0  0
 16 14  1  0  0  0  0
 18 14  1  0  0  0  0
 18 17  1  0  0  0  0
 18 19  1  0  0  0  0
 19 20  1  0  0  0  0
 21 24  1  0  0  0  0
 23 24  1  0  0  0  0
 23 25  2  0  0  0  0
 24 22  1  0  0  0  0
 26 23  1  0  0  0  0
 27 21  1  0  0  0  0
 28 27  1  0  0  0  0
M  END
>  <MODEL>
5

>  <REMARK>
 VINA RESULT:      -6.1      2.069      2.371
  Name = 
  8 active torsions:
  status: ('A' for Active; 'I' for Inactive)
    1  A    between atoms: C_1  and  O_2
    2  A    between atoms: O_2  and  C_3
    3  A    between atoms: C_3  and  C_11
    4  A    between atoms: C_3  and  C_22
    5  A    between atoms: C_4  and  C_13
    6  A    between atoms: C_4  and  C_14
    7  A    between atoms: C_4  and  N_15
    8  A    between atoms: C_7  and  C_11
                            x       y       z     vdW  Elec       q    Type
                         _______ _______ _______ _____ _____    ______ ____

>  <TORSDO>
F 8

$$$$
=
 OpenBabel11052418033D

 28 30  0  0  1  0  0  0  0  0999 V2000
  187.6140  177.1240  144.9550 C   0  0  1  0  0  3  0  0  0  0  0  0
  191.1050  175.8670  148.1090 O   0  0  0  0  0  1  0  0  0  0  0  0
  191.0330  175.4490  144.3830 C   0  0  2  0  0  3  0  0  0  0  0  0
  192.2890  176.2280  144.7210 C   0  0  1  0  0  3  0  0  0  0  0  0
  189.5410  176.7760  146.5610 C   0  0  0  0  0  0  0  0  0  0  0  0
  189.8770  176.4160  144.1600 C   0  0  0  0  0  2  0  0  0  0  0  0
  187.5520  177.9230  147.2380 O   0  0  0  0  0  0  0  0  0  0  0  0
  190.9790  176.4130  146.8310 C   0  0  2  0  0  3  0  0  0  0  0  0
  188.8850  177.5410  147.4420 C   0  0  0  0  0  3  0  0  0  0  0  0
  191.5970  175.4360  145.8150 C   0  0  1  0  0  3  0  0  0  0  0  0
  186.7550  177.3630  146.1980 C   0  0  0  0  0  2  0  0  0  0  0  0
  188.8730  176.3070  145.2930 C   0  0  2  0  0  3  0  0  0  0  0  0
  186.8780  176.6080  143.8600 O   0  0  0  0  0  0  0  0  0  0  0  0
  186.5220  177.6580  142.9880 C   0  0  2  0  0  3  0  0  0  0  0  0
  184.2690  178.4730  143.5510 C   0  0  0  0  0  2  0  0  0  0  0  0
  185.0350  177.6800  142.8050 C   0  0  0  0  0  3  0  0  0  0  0  0
  188.3840  178.2620  141.5840 O   0  0  0  0  0  1  0  0  0  0  0  0
  187.2190  177.4920  141.6350 C   0  0  2  0  0  3  0  0  0  0  0  0
  186.3030  177.8810  140.4870 C   0  0  0  0  0  2  0  0  0  0  0  0
  186.6890  177.1680  139.2810 N   0  0  0  0  0  1  0  0  0  0  0  0
  193.5110  175.4650  144.2330 C   0  0  1  0  0  3  0  0  0  0  0  0
  194.9360  176.9440  145.6320 C   0  0  0  0  0  1  0  0  0  0  0  0
  195.7130  176.4100  143.3170 C   0  0  0  0  0  0  0  0  0  0  0  0
  194.7290  176.2690  144.3620 N   0  0  0  0  0  0  0  0  0  0  0  0
  196.7370  177.1210  143.5100 O   0  0  0  0  0  0  0  0  0  0  0  0
  195.5370  175.5970  141.7270 S   0  0  0  0  0  1  0  0  0  0  0  0
  193.6410  174.1250  144.9480 C   0  0  0  0  0  2  0  0  0  0  0  0
  193.9230  173.0190  143.9480 C   0  0  0  0  0  1  0  0  0  0  0  0
  1 13  1  6  0  0  0
  1 12  1  0  0  0  0
  1 11  1  0  0  0  0
  3  6  1  1  0  0  0
  3  4  1  0  0  0  0
  3 10  1  0  0  0  0
  4 21  1  6  0  0  0
  4 10  1  0  0  0  0
  5  8  1  0  0  0  0
  5  9  2  0  0  0  0
  6 12  1  0  0  0  0
  7  9  1  0  0  0  0
  8  2  1  1  0  0  0
 10  8  1  0  0  0  0
 11  7  1  0  0  0  0
 12  5  1  0  0  0  0
 14 13  1  0  0  0  0
 16 14  1  0  0  0  0
 16 15  2  0  0  0  0
 17 18  1  0  0  0  0
 18 14  1  0  0  0  0
 19 18  1  0  0  0  0
 20 19  1  0  0  0  0
 21 24  1  0  0  0  0
 21 27  1  0  0  0  0
 23 25  2  0  0  0  0
 23 24  1  0  0  0  0
 24 22  1  0  0  0  0
 26 23  1  0  0  0  0
 28 27  1  0  0  0  0
M  END
>  <MODEL>
6

>  <REMARK>
 VINA RESULT:      -6.0      1.568      2.000
  Name = 
  8 active torsions:
  status: ('A' for Active; 'I' for Inactive)
    1  A    between atoms: C_1  and  O_2
    2  A    between atoms: O_2  and  C_3
    3  A    between atoms: C_3  and  C_11
    4  A    between atoms: C_3  and  C_22
    5  A    between atoms: C_4  and  C_13
    6  A    between atoms: C_4  and  C_14
    7  A    between atoms: C_4  and  N_15
    8  A    between atoms: C_7  and  C_11
                            x       y       z     vdW  Elec       q    Type
                         _______ _______ _______ _____ _____    ______ ____

>  <TORSDO>
F 8

$$$$
=
 OpenBabel11052418033D

 28 30  0  0  1  0  0  0  0  0999 V2000
  188.9440  177.4010  144.0730 C   0  0  1  0  0  3  0  0  0  0  0  0
  191.0770  175.1160  147.8080 O   0  0  0  0  0  1  0  0  0  0  0  0
  192.1780  175.3160  144.2290 C   0  0  2  0  0  3  0  0  0  0  0  0
  193.3270  175.8220  145.0790 C   0  0  1  0  0  3  0  0  0  0  0  0
  190.2000  176.4980  146.0790 C   0  0  0  0  0  0  0  0  0  0  0  0
  191.2600  176.4790  143.8690 C   0  0  0  0  0  2  0  0  0  0  0  0
  188.2240  177.8230  146.3450 O   0  0  0  0  0  0  0  0  0  0  0  0
  191.4280  175.8730  146.6890 C   0  0  2  0  0  3  0  0  0  0  0  0
  189.3730  177.2060  146.8580 C   0  0  0  0  0  3  0  0  0  0  0  0
  192.2420  174.9850  145.7300 C   0  0  1  0  0  3  0  0  0  0  0  0
  187.7560  177.5710  145.0220 C   0  0  0  0  0  2  0  0  0  0  0  0
  189.9370  176.3500  144.6020 C   0  0  2  0  0  3  0  0  0  0  0  0
  188.5560  177.1900  142.7270 O   0  0  0  0  0  0  0  0  0  0  0  0
  187.2710  176.6100  142.6860 C   0  0  2  0  0  3  0  0  0  0  0  0
  188.3930  174.6610  141.6890 C   0  0  0  0  0  2  0  0  0  0  0  0
  187.3900  175.1400  142.4200 C   0  0  0  0  0  3  0  0  0  0  0  0
  187.2210  177.7610  140.5710 O   0  0  0  0  0  1  0  0  0  0  0  0
  186.4160  177.2760  141.6050 C   0  0  2  0  0  3  0  0  0  0  0  0
  185.5830  178.4100  142.1760 C   0  0  0  0  0  2  0  0  0  0  0  0
  184.5480  177.8770  143.0460 N   0  0  0  0  0  1  0  0  0  0  0  0
  194.5590  174.9620  144.8370 C   0  0  1  0  0  3  0  0  0  0  0  0
  195.9780  176.6790  143.7330 C   0  0  0  0  0  1  0  0  0  0  0  0
  195.3680  174.6390  142.4240 C   0  0  0  0  0  0  0  0  0  0  0  0
  195.2900  175.4010  143.6460 N   0  0  0  0  0  0  0  0  0  0  0  0
  196.0220  175.0880  141.4430 O   0  0  0  0  0  0  0  0  0  0  0  0
  194.5600  173.0460  142.2420 S   0  0  0  0  0  1  0  0  0  0  0  0
  195.4540  174.9310  146.0700 C   0  0  0  0  0  2  0  0  0  0  0  0
  196.4700  173.8090  145.9550 C   0  0  0  0  0  1  0  0  0  0  0  0
  1 13  1  6  0  0  0
  1 12  1  0  0  0  0
  1 11  1  0  0  0  0
  3  6  1  1  0  0  0
  3  4  1  0  0  0  0
  3 10  1  0  0  0  0
  4 21  1  6  0  0  0
  4 10  1  0  0  0  0
  5  8  1  0  0  0  0
  5  9  2  0  0  0  0
  6 12  1  0  0  0  0
  7  9  1  0  0  0  0
  8  2  1  1  0  0  0
 10  8  1  0  0  0  0
 11  7  1  0  0  0  0
 12  5  1  0  0  0  0
 14 13  1  0  0  0  0
 15 16  2  0  0  0  0
 16 14  1  0  0  0  0
 17 18  1  0  0  0  0
 18 19  1  0  0  0  0
 18 14  1  0  0  0  0
 19 20  1  0  0  0  0
 21 27  1  0  0  0  0
 23 24  1  0  0  0  0
 24 22  1  0  0  0  0
 24 21  1  0  0  0  0
 25 23  2  0  0  0  0
 26 23  1  0  0  0  0
 28 27  1  0  0  0  0
M  END
>  <MODEL>
7

>  <REMARK>
 VINA RESULT:      -5.9      1.916      2.366
  Name = 
  8 active torsions:
  status: ('A' for Active; 'I' for Inactive)
    1  A    between atoms: C_1  and  O_2
    2  A    between atoms: O_2  and  C_3
    3  A    between atoms: C_3  and  C_11
    4  A    between atoms: C_3  and  C_22
    5  A    between atoms: C_4  and  C_13
    6  A    between atoms: C_4  and  C_14
    7  A    between atoms: C_4  and  N_15
    8  A    between atoms: C_7  and  C_11
                            x       y       z     vdW  Elec       q    Type
                         _______ _______ _______ _____ _____    ______ ____

>  <TORSDO>
F 8

$$$$
=
 OpenBabel11052418033D

 28 30  0  0  1  0  0  0  0  0999 V2000
  188.1350  176.8920  145.4530 C   0  0  1  0  0  3  0  0  0  0  0  0
  192.1510  174.1390  145.4280 O   0  0  0  0  0  1  0  0  0  0  0  0
  189.1690  173.9770  143.1600 C   0  0  2  0  0  3  0  0  0  0  0  0
  190.3920  174.1450  142.2790 C   0  0  1  0  0  3  0  0  0  0  0  0
  190.3570  175.6930  145.2520 C   0  0  0  0  0  0  0  0  0  0  0  0
  188.6280  175.3480  143.5480 C   0  0  0  0  0  2  0  0  0  0  0  0
  190.0680  177.5280  146.7620 O   0  0  0  0  0  0  0  0  0  0  0  0
  191.2810  174.7520  144.5240 C   0  0  2  0  0  3  0  0  0  0  0  0
  190.8760  176.6160  146.0700 C   0  0  0  0  0  3  0  0  0  0  0  0
  190.5720  173.6590  143.7050 C   0  0  1  0  0  3  0  0  0  0  0  0
  188.6480  177.4040  146.7990 C   0  0  0  0  0  2  0  0  0  0  0  0
  188.8690  175.6090  145.0240 C   0  0  2  0  0  3  0  0  0  0  0  0
  186.7230  176.7850  145.3990 O   0  0  0  0  0  0  0  0  0  0  0  0
  186.1520  178.0700  145.2860 C   0  0  2  0  0  3  0  0  0  0  0  0
  184.5010  178.3410  147.0900 C   0  0  0  0  0  2  0  0  0  0  0  0
  184.7500  178.0470  145.8160 C   0  0  0  0  0  3  0  0  0  0  0  0
  185.5690  179.7960  143.7100 O   0  0  0  0  0  1  0  0  0  0  0  0
  186.1580  178.5350  143.8270 C   0  0  2  0  0  3  0  0  0  0  0  0
  185.4310  177.5490  142.9280 C   0  0  0  0  0  2  0  0  0  0  0  0
  184.6750  178.2660  141.9150 N   0  0  0  0  0  1  0  0  0  0  0  0
  190.4970  172.9680  141.3210 C   0  0  1  0  0  3  0  0  0  0  0  0
  192.4420  173.7790  140.0030 C   0  0  0  0  0  1  0  0  0  0  0  0
  190.2830  173.4010  138.8010 C   0  0  0  0  0  0  0  0  0  0  0  0
  191.0440  173.3810  140.0260 N   0  0  0  0  0  0  0  0  0  0  0  0
  190.8300  173.7700  137.7260 O   0  0  0  0  0  0  0  0  0  0  0  0
  188.5570  172.9110  138.7450 S   0  0  0  0  0  1  0  0  0  0  0  0
  191.3030  171.8310  141.9370 C   0  0  0  0  0  2  0  0  0  0  0  0
  190.8210  170.4950  141.4060 C   0  0  0  0  0  1  0  0  0  0  0  0
  1 13  1  1  0  0  0
  1 11  1  0  0  0  0
  3  6  1  1  0  0  0
  3 10  1  0  0  0  0
  4 21  1  6  0  0  0
  4  3  1  0  0  0  0
  4 10  1  0  0  0  0
  5  9  2  0  0  0  0
  6 12  1  0  0  0  0
  7 11  1  0  0  0  0
  8  5  1  0  0  0  0
  8  2  1  1  0  0  0
  9  7  1  0  0  0  0
 10  8  1  0  0  0  0
 12  5  1  0  0  0  0
 12  1  1  0  0  0  0
 14 13  1  0  0  0  0
 14 16  1  0  0  0  0
 16 15  2  0  0  0  0
 17 18  1  0  0  0  0
 18 14  1  0  0  0  0
 19 18  1  0  0  0  0
 20 19  1  0  0  0  0
 21 27  1  0  0  0  0
 22 24  1  0  0  0  0
 23 24  1  0  0  0  0
 24 21  1  0  0  0  0
 25 23  2  0  0  0  0
 26 23  1  0  0  0  0
 28 27  1  0  0  0  0
M  END
>  <MODEL>
8

>  <REMARK>
 VINA RESULT:      -5.9      3.595      4.545
  Name = 
  8 active torsions:
  status: ('A' for Active; 'I' for Inactive)
    1  A    between atoms: C_1  and  O_2
    2  A    between atoms: O_2  and  C_3
    3  A    between atoms: C_3  and  C_11
    4  A    between atoms: C_3  and  C_22
    5  A    between atoms: C_4  and  C_13
    6  A    between atoms: C_4  and  C_14
    7  A    between atoms: C_4  and  N_15
    8  A    between atoms: C_7  and  C_11
                            x       y       z     vdW  Elec       q    Type
                         _______ _______ _______ _____ _____    ______ ____

>  <TORSDO>
F 8

$$$$
=
 OpenBabel11052418033D

 28 30  0  0  1  0  0  0  0  0999 V2000
  187.5430  176.3690  143.8950 C   0  0  1  0  0  3  0  0  0  0  0  0
  191.2010  174.4230  141.3360 O   0  0  0  0  0  1  0  0  0  0  0  0
  191.3460  176.4440  144.4920 C   0  0  2  0  0  3  0  0  0  0  0  0
  192.0640  175.1370  144.7650 C   0  0  1  0  0  3  0  0  0  0  0  0
  189.3950  175.0850  142.7380 C   0  0  0  0  0  0  0  0  0  0  0  0
  189.8650  176.2910  144.8200 C   0  0  0  0  0  2  0  0  0  0  0  0
  187.0980  174.7530  142.1500 O   0  0  0  0  0  0  0  0  0  0  0  0
  190.8270  174.6220  142.6660 C   0  0  2  0  0  3  0  0  0  0  0  0
  188.4480  174.3800  142.1060 C   0  0  0  0  0  3  0  0  0  0  0  0
  191.8430  175.5700  143.3280 C   0  0  1  0  0  3  0  0  0  0  0  0
  186.6750  176.0020  142.6900 C   0  0  0  0  0  2  0  0  0  0  0  0
  189.0400  176.3080  143.5460 C   0  0  2  0  0  3  0  0  0  0  0  0
  187.1520  177.5810  144.5140 O   0  0  0  0  0  0  0  0  0  0  0  0
  185.7900  177.5140  144.8780 C   0  0  2  0  0  3  0  0  0  0  0  0
  185.7150  179.7300  143.8130 C   0  0  0  0  0  2  0  0  0  0  0  0
  185.1260  178.8260  144.5920 C   0  0  0  0  0  3  0  0  0  0  0  0
  184.4870  177.7290  146.8920 O   0  0  0  0  0  1  0  0  0  0  0  0
  185.6480  177.1610  146.3610 C   0  0  2  0  0  3  0  0  0  0  0  0
  186.8530  177.6250  147.1600 C   0  0  0  0  0  2  0  0  0  0  0  0
  186.4920  178.7670  147.9830 N   0  0  0  0  0  1  0  0  0  0  0  0
  193.5030  175.4180  145.1680 C   0  0  1  0  0  3  0  0  0  0  0  0
  195.1020  175.7420  143.2930 C   0  0  0  0  0  1  0  0  0  0  0  0
  194.7650  173.4230  144.1630 C   0  0  0  0  0  0  0  0  0  0  0  0
  194.4490  174.8300  144.2180 N   0  0  0  0  0  0  0  0  0  0  0  0
  195.5940  172.9970  143.3140 O   0  0  0  0  0  0  0  0  0  0  0  0
  194.0130  172.2360  145.2800 S   0  0  0  0  0  1  0  0  0  0  0  0
  193.7390  176.9140  145.3470 C   0  0  0  0  0  2  0  0  0  0  0  0
  194.2990  177.1970  146.7280 C   0  0  0  0  0  1  0  0  0  0  0  0
  1 13  1  6  0  0  0
  3  4  1  0  0  0  0
  3  6  1  6  0  0  0
  4 21  1  1  0  0  0
  5 12  1  0  0  0  0
  7 11  1  0  0  0  0
  8  2  1  6  0  0  0
  8  5  1  0  0  0  0
  8 10  1  0  0  0  0
  9  7  1  0  0  0  0
  9  5  2  0  0  0  0
 10  3  1  0  0  0  0
 10  4  1  0  0  0  0
 11  1  1  0  0  0  0
 12  1  1  0  0  0  0
 12  6  1  0  0  0  0
 13 14  1  0  0  0  0
 14 18  1  0  0  0  0
 15 16  2  0  0  0  0
 16 14  1  0  0  0  0
 18 17  1  0  0  0  0
 18 19  1  0  0  0  0
 19 20  1  0  0  0  0
 21 27  1  0  0  0  0
 22 24  1  0  0  0  0
 23 24  1  0  0  0  0
 23 26  1  0  0  0  0
 24 21  1  0  0  0  0
 25 23  2  0  0  0  0
 27 28  1  0  0  0  0
M  END
>  <MODEL>
9

>  <REMARK>
 VINA RESULT:      -5.8      2.717      4.020
  Name = 
  8 active torsions:
  status: ('A' for Active; 'I' for Inactive)
    1  A    between atoms: C_1  and  O_2
    2  A    between atoms: O_2  and  C_3
    3  A    between atoms: C_3  and  C_11
    4  A    between atoms: C_3  and  C_22
    5  A    between atoms: C_4  and  C_13
    6  A    between atoms: C_4  and  C_14
    7  A    between atoms: C_4  and  N_15
    8  A    between atoms: C_7  and  C_11
                            x       y       z     vdW  Elec       q    Type
                         _______ _______ _______ _____ _____    ______ ____

>  <TORSDO>
F 8

$$$$
