=
 OpenBabel11052417543D

 31 35  0  0  1  0  0  0  0  0999 V2000
  186.5690  177.6760  141.6280 C   0  0  0  0  0  0  0  0  0  0  0  0
  187.4700  175.8130  144.8610 C   0  0  1  0  0  3  0  0  0  0  0  0
  186.8250  176.7480  145.8650 C   0  0  0  0  0  0  0  0  0  0  0  0
  184.7420  178.0370  145.6300 C   0  0  0  0  0  3  0  0  0  0  0  0
  187.3630  176.2470  143.4200 C   0  0  0  0  0  0  0  0  0  0  0  0
  187.2600  176.8910  140.6950 C   0  0  0  0  0  3  0  0  0  0  0  0
  185.3320  176.7100  145.9580 C   0  0  0  0  0  2  0  0  0  0  0  0
  189.6820  174.7540  144.1300 N   0  0  0  0  0  0  0  0  0  0  0  0
  185.8490  178.7440  141.2120 F   0  0  0  0  0  0  0  0  0  0  0  0
  189.0390  177.2840  146.8680 C   0  0  0  0  0  2  0  0  0  0  0  0
  184.9760  179.1190  146.3680 C   0  0  0  0  0  3  0  0  0  0  0  0
  188.8520  174.3220  142.9950 C   0  0  0  0  0  2  0  0  0  0  0  0
  188.9300  175.4260  145.2170 C   0  0  1  0  0  3  0  0  0  0  0  0
  186.6200  177.3550  142.9880 C   0  0  0  0  0  3  0  0  0  0  0  0
  185.8580  179.1410  147.5000 N   0  0  0  0  0  0  0  0  0  0  0  0
  188.0510  175.4720  142.4840 C   0  0  0  0  0  0  0  0  0  0  0  0
  188.0020  175.7870  141.1230 C   0  0  0  0  0  3  0  0  0  0  0  0
  189.6890  176.6790  145.6330 C   0  0  0  0  0  2  0  0  0  0  0  0
  187.5580  177.5120  146.7060 C   0  0  0  0  0  0  0  0  0  0  0  0
  186.9580  178.4620  147.6720 C   0  0  0  0  0  3  0  0  0  0  0  0
  190.2860  173.5640  144.7120 C   0  0  0  0  0  2  0  0  0  0  0  0
  192.2640  172.2140  144.7130 O   0  0  0  0  0  1  0  0  0  0  0  0
  191.7200  173.4000  144.2190 C   0  0  2  0  0  3  0  0  0  0  0  0
  194.1690  176.7330  145.4060 C   0  0  0  0  0  0  0  0  0  0  0  0
  192.8640  174.7800  145.9910 C   0  0  0  0  0  3  0  0  0  0  0  0
  192.7990  175.2580  142.3540 F   0  0  0  0  0  0  0  0  0  0  0  0
  195.1660  178.0910  145.8880 Cl  0  0  0  0  0  0  0  0  0  0  0  0
  193.6610  175.8620  146.3750 C   0  0  0  0  0  3  0  0  0  0  0  0
  193.0800  175.4410  143.6670 C   0  0  0  0  0  0  0  0  0  0  0  0
  192.5650  174.5650  144.6360 C   0  0  0  0  0  0  0  0  0  0  0  0
  193.8780  176.5230  144.0540 C   0  0  0  0  0  3  0  0  0  0  0  0
  1 14  1  0  0  0  0
  2  5  1  6  0  0  0
  2 13  1  0  0  0  0
  2  3  1  0  0  0  0
  3  7  1  0  0  0  0
  3 19  2  0  0  0  0
  4  7  1  0  0  0  0
  4 11  2  0  0  0  0
  6 17  1  0  0  0  0
  6  1  2  0  0  0  0
  8 21  1  0  0  0  0
  8 13  1  0  0  0  0
  9  1  1  0  0  0  0
 11 15  1  0  0  0  0
 12  8  1  0  0  0  0
 13 18  1  6  0  0  0
 14  5  2  0  0  0  0
 15 20  2  0  0  0  0
 16 12  1  0  0  0  0
 16  5  1  0  0  0  0
 17 16  2  0  0  0  0
 18 10  1  0  0  0  0
 19 10  1  0  0  0  0
 19 20  1  0  0  0  0
 23 30  1  0  0  0  0
 23 21  1  0  0  0  0
 23 22  1  1  0  0  0
 24 27  1  0  0  0  0
 24 28  1  0  0  0  0
 25 28  2  0  0  0  0
 26 29  1  0  0  0  0
 29 31  1  0  0  0  0
 29 30  2  0  0  0  0
 30 25  1  0  0  0  0
 31 24  2  0  0  0  0
M  END
>  <MODEL>
1

>  <REMARK>
 VINA RESULT:      -8.4      0.000      0.000
  Name = 
  3 active torsions:
  status: ('A' for Active; 'I' for Inactive)
    1  A    between atoms: C_9  and  C_22
    2  A    between atoms: C_9  and  C_23
    3  A    between atoms: N_15  and  C_23
                            x       y       z     vdW  Elec       q    Type
                         _______ _______ _______ _____ _____    ______ ____

>  <TORSDO>
F 3

$$$$
=
 OpenBabel11052417543D

 31 35  0  0  1  0  0  0  0  0999 V2000
  184.8810  178.2340  145.1560 C   0  0  0  0  0  0  0  0  0  0  0  0
  188.6000  177.4930  144.5640 C   0  0  1  0  0  3  0  0  0  0  0  0
  188.5320  177.0620  143.1120 C   0  0  0  0  0  0  0  0  0  0  0  0
  187.0660  177.9210  141.3320 C   0  0  0  0  0  3  0  0  0  0  0  0
  187.2730  177.8380  145.1940 C   0  0  0  0  0  0  0  0  0  0  0  0
  184.9050  178.5200  146.5270 C   0  0  0  0  0  3  0  0  0  0  0  0
  188.3240  178.1410  142.0980 C   0  0  0  0  0  2  0  0  0  0  0  0
  189.2580  176.7540  146.9240 N   0  0  0  0  0  0  0  0  0  0  0  0
  183.7120  178.2910  144.4740 F   0  0  0  0  0  0  0  0  0  0  0  0
  189.3080  174.7720  143.7020 C   0  0  0  0  0  2  0  0  0  0  0  0
  186.8860  176.8570  140.5540 C   0  0  0  0  0  3  0  0  0  0  0  0
  188.5950  178.0190  147.2730 C   0  0  0  0  0  2  0  0  0  0  0  0
  189.4070  176.5230  145.4670 C   0  0  1  0  0  3  0  0  0  0  0  0
  186.0620  177.8940  144.4890 C   0  0  0  0  0  3  0  0  0  0  0  0
  187.8390  175.7930  140.4210 N   0  0  0  0  0  0  0  0  0  0  0  0
  187.2880  178.1210  146.5610 C   0  0  0  0  0  0  0  0  0  0  0  0
  186.1110  178.4640  147.2320 C   0  0  0  0  0  3  0  0  0  0  0  0
  188.9910  175.0920  145.1540 C   0  0  0  0  0  2  0  0  0  0  0  0
  188.7430  175.7800  142.7350 C   0  0  0  0  0  0  0  0  0  0  0  0
  188.6460  175.3210  141.3300 C   0  0  0  0  0  3  0  0  0  0  0  0
  190.6030  176.7920  147.4810 C   0  0  0  0  0  2  0  0  0  0  0  0
  191.5510  174.9300  148.6490 O   0  0  0  0  0  1  0  0  0  0  0  0
  191.2630  175.4220  147.3760 C   0  0  2  0  0  3  0  0  0  0  0  0
  194.8690  175.6040  145.0360 C   0  0  0  0  0  0  0  0  0  0  0  0
  193.4260  176.5450  146.7370 C   0  0  0  0  0  3  0  0  0  0  0  0
  191.9250  173.4690  145.4160 F   0  0  0  0  0  0  0  0  0  0  0  0
  196.3370  175.6780  144.0830 Cl  0  0  0  0  0  0  0  0  0  0  0  0
  194.5980  176.6020  145.9770 C   0  0  0  0  0  3  0  0  0  0  0  0
  192.7940  174.4910  145.6120 C   0  0  0  0  0  0  0  0  0  0  0  0
  192.5150  175.4920  146.5570 C   0  0  0  0  0  0  0  0  0  0  0  0
  193.9680  174.5500  144.8530 C   0  0  0  0  0  3  0  0  0  0  0  0
  1  6  1  0  0  0  0
  2  3  1  6  0  0  0
  2  5  1  0  0  0  0
  2 13  1  0  0  0  0
  4  7  1  0  0  0  0
  5 16  2  0  0  0  0
  6 17  2  0  0  0  0
  7  3  1  0  0  0  0
  8 12  1  0  0  0  0
  8 21  1  0  0  0  0
  9  1  1  0  0  0  0
 10 18  1  0  0  0  0
 11  4  2  0  0  0  0
 13 18  1  1  0  0  0
 13  8  1  0  0  0  0
 14  1  2  0  0  0  0
 14  5  1  0  0  0  0
 15 11  1  0  0  0  0
 15 20  2  0  0  0  0
 16 17  1  0  0  0  0
 16 12  1  0  0  0  0
 19  3  2  0  0  0  0
 19 10  1  0  0  0  0
 20 19  1  0  0  0  0
 23 21  1  0  0  0  0
 23 22  1  1  0  0  0
 24 28  1  0  0  0  0
 26 29  1  0  0  0  0
 27 24  1  0  0  0  0
 28 25  2  0  0  0  0
 29 30  2  0  0  0  0
 30 25  1  0  0  0  0
 30 23  1  0  0  0  0
 31 24  2  0  0  0  0
 31 29  1  0  0  0  0
M  END
>  <MODEL>
2

>  <REMARK>
 VINA RESULT:      -8.3      2.024      4.272
  Name = 
  3 active torsions:
  status: ('A' for Active; 'I' for Inactive)
    1  A    between atoms: C_9  and  C_22
    2  A    between atoms: C_9  and  C_23
    3  A    between atoms: N_15  and  C_23
                            x       y       z     vdW  Elec       q    Type
                         _______ _______ _______ _____ _____    ______ ____

>  <TORSDO>
F 3

$$$$
=
 OpenBabel11052417543D

 31 35  0  0  1  0  0  0  0  0999 V2000
  185.4380  177.1350  146.3690 C   0  0  0  0  0  0  0  0  0  0  0  0
  188.4640  177.6680  144.0690 C   0  0  1  0  0  3  0  0  0  0  0  0
  187.7420  177.7650  142.7390 C   0  0  0  0  0  0  0  0  0  0  0  0
  185.5420  178.7620  142.2660 C   0  0  0  0  0  3  0  0  0  0  0  0
  187.5790  177.4050  145.2620 C   0  0  0  0  0  0  0  0  0  0  0  0
  186.0940  176.9240  147.5880 C   0  0  0  0  0  3  0  0  0  0  0  0
  186.9930  179.0310  142.4700 C   0  0  0  0  0  2  0  0  0  0  0  0
  190.2250  176.3610  145.3870 N   0  0  0  0  0  0  0  0  0  0  0  0
  184.0860  177.1100  146.3160 F   0  0  0  0  0  0  0  0  0  0  0  0
  188.8760  175.7090  141.9130 C   0  0  0  0  0  2  0  0  0  0  0  0
  185.0930  178.0270  141.2530 C   0  0  0  0  0  3  0  0  0  0  0  0
  189.7170  177.2010  146.4830 C   0  0  0  0  0  2  0  0  0  0  0  0
  189.6760  176.6980  144.0520 C   0  0  1  0  0  3  0  0  0  0  0  0
  186.1780  177.3760  145.2070 C   0  0  0  0  0  3  0  0  0  0  0  0
  185.9440  177.3710  140.3010 N   0  0  0  0  0  0  0  0  0  0  0  0
  188.2250  177.1900  146.4810 C   0  0  0  0  0  0  0  0  0  0  0  0
  187.4900  176.9510  147.6450 C   0  0  0  0  0  3  0  0  0  0  0  0
  189.2700  175.4090  143.3520 C   0  0  0  0  0  2  0  0  0  0  0  0
  187.8430  176.7990  141.7970 C   0  0  0  0  0  0  0  0  0  0  0  0
  187.1200  176.8470  140.5050 C   0  0  0  0  0  3  0  0  0  0  0  0
  191.6660  176.5630  145.3090 C   0  0  0  0  0  2  0  0  0  0  0  0
  192.8670  176.9070  147.3520 O   0  0  0  0  0  1  0  0  0  0  0  0
  192.3580  175.9210  146.5060 C   0  0  2  0  0  3  0  0  0  0  0  0
  195.5180  173.2850  145.2460 C   0  0  0  0  0  0  0  0  0  0  0  0
  194.8030  175.3950  146.1940 C   0  0  0  0  0  3  0  0  0  0  0  0
  191.8640  173.3570  145.3740 F   0  0  0  0  0  0  0  0  0  0  0  0
  196.8030  172.2110  144.7330 Cl  0  0  0  0  0  0  0  0  0  0  0  0
  195.8280  174.5370  145.7860 C   0  0  0  0  0  3  0  0  0  0  0  0
  193.1540  173.7490  145.5200 C   0  0  0  0  0  0  0  0  0  0  0  0
  193.4600  175.0080  146.0600 C   0  0  0  0  0  0  0  0  0  0  0  0
  194.1820  172.8920  145.1130 C   0  0  0  0  0  3  0  0  0  0  0  0
  1  6  1  0  0  0  0
  2  3  1  6  0  0  0
  2  5  1  0  0  0  0
  4  7  1  0  0  0  0
  5 16  2  0  0  0  0
  6 17  2  0  0  0  0
  7  3  1  0  0  0  0
  8 12  1  0  0  0  0
  9  1  1  0  0  0  0
 10 18  1  0  0  0  0
 11  4  2  0  0  0  0
 13 18  1  1  0  0  0
 13  2  1  0  0  0  0
 13  8  1  0  0  0  0
 14  5  1  0  0  0  0
 14  1  2  0  0  0  0
 15 20  2  0  0  0  0
 15 11  1  0  0  0  0
 16 12  1  0  0  0  0
 16 17  1  0  0  0  0
 19 10  1  0  0  0  0
 19  3  2  0  0  0  0
 20 19  1  0  0  0  0
 21  8  1  0  0  0  0
 21 23  1  0  0  0  0
 23 22  1  1  0  0  0
 24 28  1  0  0  0  0
 26 29  1  0  0  0  0
 27 24  1  0  0  0  0
 28 25  2  0  0  0  0
 29 30  2  0  0  0  0
 30 25  1  0  0  0  0
 30 23  1  0  0  0  0
 31 24  2  0  0  0  0
 31 29  1  0  0  0  0
M  END
>  <MODEL>
3

>  <REMARK>
 VINA RESULT:      -8.1      2.620      4.417
  Name = 
  3 active torsions:
  status: ('A' for Active; 'I' for Inactive)
    1  A    between atoms: C_9  and  C_22
    2  A    between atoms: C_9  and  C_23
    3  A    between atoms: N_15  and  C_23
                            x       y       z     vdW  Elec       q    Type
                         _______ _______ _______ _____ _____    ______ ____

>  <TORSDO>
F 3

$$$$
=
 OpenBabel11052417543D

 31 35  0  0  1  0  0  0  0  0999 V2000
  190.4020  172.1840  143.3410 C   0  0  0  0  0  0  0  0  0  0  0  0
  190.6500  175.8960  142.3970 C   0  0  1  0  0  3  0  0  0  0  0  0
  191.9180  176.2520  143.1490 C   0  0  0  0  0  0  0  0  0  0  0  0
  193.9100  174.8580  143.5270 C   0  0  0  0  0  3  0  0  0  0  0  0
  190.1840  174.4710  142.5630 C   0  0  0  0  0  0  0  0  0  0  0  0
  189.1720  171.8660  142.7530 C   0  0  0  0  0  3  0  0  0  0  0  0
  193.2050  175.7570  142.5710 C   0  0  0  0  0  2  0  0  0  0  0  0
  188.1600  176.4310  142.1500 N   0  0  0  0  0  0  0  0  0  0  0  0
  191.1040  171.2320  143.9990 F   0  0  0  0  0  0  0  0  0  0  0  0
  190.6720  177.8460  144.6000 C   0  0  0  0  0  2  0  0  0  0  0  0
  194.3530  175.2850  144.7060 C   0  0  0  0  0  3  0  0  0  0  0  0
  188.2090  175.2370  141.2930 C   0  0  0  0  0  2  0  0  0  0  0  0
  189.4840  176.8930  142.6320 C   0  0  1  0  0  3  0  0  0  0  0  0
  190.9090  173.4840  143.2470 C   0  0  0  0  0  3  0  0  0  0  0  0
  194.1480  176.6150  145.2050 N   0  0  0  0  0  0  0  0  0  0  0  0
  188.9570  174.1460  141.9830 C   0  0  0  0  0  0  0  0  0  0  0  0
  188.4470  172.8480  142.0720 C   0  0  0  0  0  3  0  0  0  0  0  0
  189.3830  177.1960  144.1200 C   0  0  0  0  0  2  0  0  0  0  0  0
  191.9030  177.0570  144.2360 C   0  0  0  0  0  0  0  0  0  0  0  0
  193.1190  177.3920  145.0140 C   0  0  0  0  0  3  0  0  0  0  0  0
  187.6000  177.5180  141.3590 C   0  0  0  0  0  2  0  0  0  0  0  0
  185.5660  178.6660  140.8310 O   0  0  0  0  0  1  0  0  0  0  0  0
  186.1100  177.6700  141.6430 C   0  0  2  0  0  3  0  0  0  0  0  0
  185.3980  178.5990  145.7840 C   0  0  0  0  0  0  0  0  0  0  0  0
  185.7990  179.3320  143.5120 C   0  0  0  0  0  3  0  0  0  0  0  0
  185.7710  175.6650  143.6340 F   0  0  0  0  0  0  0  0  0  0  0  0
  185.1090  178.9760  147.4700 Cl  0  0  0  0  0  0  0  0  0  0  0  0
  185.5660  179.6320  144.8570 C   0  0  0  0  0  3  0  0  0  0  0  0
  185.6990  176.9630  144.0200 C   0  0  0  0  0  0  0  0  0  0  0  0
  185.8700  177.9960  143.0860 C   0  0  0  0  0  0  0  0  0  0  0  0
  185.4650  177.2660  145.3660 C   0  0  0  0  0  3  0  0  0  0  0  0
  1  9  1  0  0  0  0
  2  5  1  1  0  0  0
  2 13  1  0  0  0  0
  2  3  1  0  0  0  0
  3 19  2  0  0  0  0
  4 11  2  0  0  0  0
  5 14  2  0  0  0  0
  6  1  2  0  0  0  0
  7  3  1  0  0  0  0
  7  4  1  0  0  0  0
  8 13  1  0  0  0  0
 11 15  1  0  0  0  0
 12 16  1  0  0  0  0
 12  8  1  0  0  0  0
 13 18  1  1  0  0  0
 14  1  1  0  0  0  0
 16 17  2  0  0  0  0
 16  5  1  0  0  0  0
 17  6  1  0  0  0  0
 18 10  1  0  0  0  0
 19 10  1  0  0  0  0
 19 20  1  0  0  0  0
 20 15  2  0  0  0  0
 21 23  1  0  0  0  0
 21  8  1  0  0  0  0
 23 22  1  6  0  0  0
 23 30  1  0  0  0  0
 24 27  1  0  0  0  0
 25 28  1  0  0  0  0
 26 29  1  0  0  0  0
 28 24  2  0  0  0  0
 29 31  2  0  0  0  0
 30 25  2  0  0  0  0
 30 29  1  0  0  0  0
 31 24  1  0  0  0  0
M  END
>  <MODEL>
4

>  <REMARK>
 VINA RESULT:      -8.1      3.403      7.001
  Name = 
  3 active torsions:
  status: ('A' for Active; 'I' for Inactive)
    1  A    between atoms: C_9  and  C_22
    2  A    between atoms: C_9  and  C_23
    3  A    between atoms: N_15  and  C_23
                            x       y       z     vdW  Elec       q    Type
                         _______ _______ _______ _____ _____    ______ ____

>  <TORSDO>
F 3

$$$$
=
 OpenBabel11052417543D

 31 35  0  0  1  0  0  0  0  0999 V2000
  186.1520  176.6150  146.4510 C   0  0  0  0  0  0  0  0  0  0  0  0
  187.9620  178.0180  143.3700 C   0  0  1  0  0  3  0  0  0  0  0  0
  186.7630  178.2560  142.4730 C   0  0  0  0  0  0  0  0  0  0  0  0
  184.5000  178.9830  143.1110 C   0  0  0  0  0  3  0  0  0  0  0  0
  187.6480  177.4060  144.7120 C   0  0  0  0  0  0  0  0  0  0  0  0
  187.2540  176.2790  147.2470 C   0  0  0  0  0  3  0  0  0  0  0  0
  185.8900  179.4230  142.8080 C   0  0  0  0  0  2  0  0  0  0  0  0
  190.1820  176.7660  143.5840 N   0  0  0  0  0  0  0  0  0  0  0  0
  184.8970  176.3990  146.9070 F   0  0  0  0  0  0  0  0  0  0  0  0
  187.5980  176.5850  140.8270 C   0  0  0  0  0  2  0  0  0  0  0  0
  183.7290  178.3930  142.2010 C   0  0  0  0  0  3  0  0  0  0  0  0
  190.1040  177.2980  144.9530 C   0  0  0  0  0  2  0  0  0  0  0  0
  189.1230  177.2620  142.6730 C   0  0  1  0  0  3  0  0  0  0  0  0
  186.3470  177.1790  145.1850 C   0  0  0  0  0  3  0  0  0  0  0  0
  184.1660  178.0640  140.8750 N   0  0  0  0  0  0  0  0  0  0  0  0
  188.7410  177.0650  145.5120 C   0  0  0  0  0  0  0  0  0  0  0  0
  188.5510  176.5040  146.7780 C   0  0  0  0  0  3  0  0  0  0  0  0
  188.5530  176.0820  141.8990 C   0  0  0  0  0  2  0  0  0  0  0  0
  186.5380  177.5110  141.3660 C   0  0  0  0  0  0  0  0  0  0  0  0
  185.3560  177.6930  140.4920 C   0  0  0  0  0  3  0  0  0  0  0  0
  191.4550  177.1910  143.0180 C   0  0  0  0  0  2  0  0  0  0  0  0
  193.6380  176.3870  142.4530 O   0  0  0  0  0  1  0  0  0  0  0  0
  192.5230  176.1270  143.2490 C   0  0  2  0  0  3  0  0  0  0  0  0
  191.0090  172.1880  142.4050 C   0  0  0  0  0  0  0  0  0  0  0  0
  191.8520  174.3200  141.6250 C   0  0  0  0  0  3  0  0  0  0  0  0
  191.7500  174.3060  145.2930 F   0  0  0  0  0  0  0  0  0  0  0  0
  190.3920  170.5850  142.0630 Cl  0  0  0  0  0  0  0  0  0  0  0  0
  191.3620  173.0390  141.3530 C   0  0  0  0  0  3  0  0  0  0  0  0
  191.6340  173.9000  144.0040 C   0  0  0  0  0  0  0  0  0  0  0  0
  191.9880  174.7600  142.9520 C   0  0  0  0  0  0  0  0  0  0  0  0
  191.1440  172.6190  143.7290 C   0  0  0  0  0  3  0  0  0  0  0  0
  1  9  1  0  0  0  0
  1  6  1  0  0  0  0
  2  3  1  6  0  0  0
  2  5  1  0  0  0  0
  3  7  1  0  0  0  0
  5 14  1  0  0  0  0
  5 16  2  0  0  0  0
  7  4  1  0  0  0  0
  8 12  1  0  0  0  0
 10 19  1  0  0  0  0
 10 18  1  0  0  0  0
 11  4  2  0  0  0  0
 12 16  1  0  0  0  0
 13 18  1  1  0  0  0
 13  2  1  0  0  0  0
 13  8  1  0  0  0  0
 14  1  2  0  0  0  0
 15 11  1  0  0  0  0
 16 17  1  0  0  0  0
 17  6  2  0  0  0  0
 19  3  2  0  0  0  0
 20 15  2  0  0  0  0
 20 19  1  0  0  0  0
 21 23  1  0  0  0  0
 21  8  1  0  0  0  0
 23 22  1  6  0  0  0
 24 31  1  0  0  0  0
 25 30  2  0  0  0  0
 27 24  1  0  0  0  0
 28 25  1  0  0  0  0
 28 24  2  0  0  0  0
 29 26  1  0  0  0  0
 30 23  1  0  0  0  0
 30 29  1  0  0  0  0
 31 29  2  0  0  0  0
M  END
>  <MODEL>
5

>  <REMARK>
 VINA RESULT:      -8.0      3.076      4.836
  Name = 
  3 active torsions:
  status: ('A' for Active; 'I' for Inactive)
    1  A    between atoms: C_9  and  C_22
    2  A    between atoms: C_9  and  C_23
    3  A    between atoms: N_15  and  C_23
                            x       y       z     vdW  Elec       q    Type
                         _______ _______ _______ _____ _____    ______ ____

>  <TORSDO>
F 3

$$$$
=
 OpenBabel11052417543D

 31 35  0  0  1  0  0  0  0  0999 V2000
  185.4170  177.1990  146.3710 C   0  0  0  0  0  0  0  0  0  0  0  0
  188.4450  177.6440  144.0550 C   0  0  1  0  0  3  0  0  0  0  0  0
  187.7210  177.7310  142.7250 C   0  0  0  0  0  0  0  0  0  0  0  0
  185.5370  178.7550  142.2410 C   0  0  0  0  0  3  0  0  0  0  0  0
  187.5590  177.4150  145.2540 C   0  0  0  0  0  0  0  0  0  0  0  0
  186.0730  176.9970  147.5920 C   0  0  0  0  0  3  0  0  0  0  0  0
  186.9920  179.0040  142.4370 C   0  0  0  0  0  2  0  0  0  0  0  0
  190.1890  176.3320  145.3900 N   0  0  0  0  0  0  0  0  0  0  0  0
  184.0640  177.1940  146.3210 F   0  0  0  0  0  0  0  0  0  0  0  0
  188.8200  175.6430  141.9310 C   0  0  0  0  0  2  0  0  0  0  0  0
  185.0730  178.0110  141.2410 C   0  0  0  0  0  3  0  0  0  0  0  0
  189.6970  177.1970  146.4730 C   0  0  0  0  0  2  0  0  0  0  0  0
  189.6410  176.6550  144.0510 C   0  0  1  0  0  3  0  0  0  0  0  0
  186.1570  177.4080  145.2030 C   0  0  0  0  0  3  0  0  0  0  0  0
  185.9100  177.3250  140.2980 N   0  0  0  0  0  0  0  0  0  0  0  0
  188.2050  177.2110  146.4750 C   0  0  0  0  0  0  0  0  0  0  0  0
  187.4700  177.0030  147.6450 C   0  0  0  0  0  3  0  0  0  0  0  0
  189.2120  175.3610  143.3730 C   0  0  0  0  0  2  0  0  0  0  0  0
  187.8040  176.7480  141.7990 C   0  0  0  0  0  0  0  0  0  0  0  0
  187.0790  176.7860  140.5080 C   0  0  0  0  0  3  0  0  0  0  0  0
  191.6320  176.5080  145.3060 C   0  0  0  0  0  2  0  0  0  0  0  0
  192.4140  175.1350  147.1040 O   0  0  0  0  0  1  0  0  0  0  0  0
  192.3500  175.2270  145.7140 C   0  0  2  0  0  3  0  0  0  0  0  0
  196.3220  175.0820  144.0640 C   0  0  0  0  0  0  0  0  0  0  0  0
  194.4000  176.3640  144.7890 C   0  0  0  0  0  3  0  0  0  0  0  0
  193.7380  172.7850  145.2550 F   0  0  0  0  0  0  0  0  0  0  0  0
  197.9380  175.0220  143.3920 Cl  0  0  0  0  0  0  0  0  0  0  0  0
  195.6910  176.3150  144.2550 C   0  0  0  0  0  3  0  0  0  0  0  0
  194.3680  173.9430  144.9400 C   0  0  0  0  0  0  0  0  0  0  0  0
  193.7300  175.1780  145.1310 C   0  0  0  0  0  0  0  0  0  0  0  0
  195.6610  173.8970  144.4050 C   0  0  0  0  0  3  0  0  0  0  0  0
  1  6  1  0  0  0  0
  2  3  1  6  0  0  0
  2  5  1  0  0  0  0
  4  7  1  0  0  0  0
  5 16  2  0  0  0  0
  6 17  2  0  0  0  0
  7  3  1  0  0  0  0
  8 12  1  0  0  0  0
  9  1  1  0  0  0  0
 10 18  1  0  0  0  0
 11  4  2  0  0  0  0
 12 16  1  0  0  0  0
 13 18  1  1  0  0  0
 13  2  1  0  0  0  0
 13  8  1  0  0  0  0
 14  5  1  0  0  0  0
 14  1  2  0  0  0  0
 15 20  2  0  0  0  0
 15 11  1  0  0  0  0
 16 17  1  0  0  0  0
 19 10  1  0  0  0  0
 19  3  2  0  0  0  0
 20 19  1  0  0  0  0
 21  8  1  0  0  0  0
 21 23  1  0  0  0  0
 23 22  1  1  0  0  0
 24 28  2  0  0  0  0
 24 31  1  0  0  0  0
 25 30  2  0  0  0  0
 27 24  1  0  0  0  0
 28 25  1  0  0  0  0
 29 30  1  0  0  0  0
 29 26  1  0  0  0  0
 30 23  1  0  0  0  0
 31 29  2  0  0  0  0
M  END
>  <MODEL>
6

>  <REMARK>
 VINA RESULT:      -7.9      2.431      4.265
  Name = 
  3 active torsions:
  status: ('A' for Active; 'I' for Inactive)
    1  A    between atoms: C_9  and  C_22
    2  A    between atoms: C_9  and  C_23
    3  A    between atoms: N_15  and  C_23
                            x       y       z     vdW  Elec       q    Type
                         _______ _______ _______ _____ _____    ______ ____

>  <TORSDO>
F 3

$$$$
=
 OpenBabel11052417543D

 31 35  0  0  1  0  0  0  0  0999 V2000
  192.4080  171.8670  142.8600 C   0  0  0  0  0  0  0  0  0  0  0  0
  191.8990  175.3240  144.4470 C   0  0  1  0  0  3  0  0  0  0  0  0
  193.2160  175.9650  144.0570 C   0  0  0  0  0  0  0  0  0  0  0  0
  194.5160  175.6480  141.9920 C   0  0  0  0  0  3  0  0  0  0  0  0
  191.7340  173.8860  144.0220 C   0  0  0  0  0  0  0  0  0  0  0  0
  191.2510  171.2200  143.3100 C   0  0  0  0  0  3  0  0  0  0  0  0
  193.3740  176.3650  142.6250 C   0  0  0  0  0  2  0  0  0  0  0  0
  190.4130  174.6610  146.4220 N   0  0  0  0  0  0  0  0  0  0  0  0
  193.2920  171.2050  142.0770 F   0  0  0  0  0  0  0  0  0  0  0  0
  193.8730  176.1900  146.4480 C   0  0  0  0  0  2  0  0  0  0  0  0
  195.7710  175.8140  142.4000 C   0  0  0  0  0  3  0  0  0  0  0  0
  189.6550  173.9960  145.3510 C   0  0  0  0  0  2  0  0  0  0  0  0
  191.5350  175.5050  145.9450 C   0  0  1  0  0  3  0  0  0  0  0  0
  192.6510  173.1980  143.2130 C   0  0  0  0  0  3  0  0  0  0  0  0
  196.1480  176.6340  143.5160 N   0  0  0  0  0  0  0  0  0  0  0  0
  190.5850  173.2320  144.4690 C   0  0  0  0  0  0  0  0  0  0  0  0
  190.3370  171.9030  144.1170 C   0  0  0  0  0  3  0  0  0  0  0  0
  192.7640  175.2090  146.7930 C   0  0  0  0  0  2  0  0  0  0  0  0
  194.1710  176.2520  144.9720 C   0  0  0  0  0  0  0  0  0  0  0  0
  195.4820  176.8430  144.6180 C   0  0  0  0  0  3  0  0  0  0  0  0
  189.4960  175.5450  147.1280 C   0  0  0  0  0  2  0  0  0  0  0  0
  189.5810  177.9090  147.4950 O   0  0  0  0  0  1  0  0  0  0  0  0
  189.5060  176.9340  146.5000 C   0  0  2  0  0  3  0  0  0  0  0  0
  185.9980  177.5810  144.0930 C   0  0  0  0  0  0  0  0  0  0  0  0
  187.0100  176.8370  146.1630 C   0  0  0  0  0  3  0  0  0  0  0  0
  189.6240  177.9890  143.8600 F   0  0  0  0  0  0  0  0  0  0  0  0
  184.5710  177.8440  143.1120 Cl  0  0  0  0  0  0  0  0  0  0  0  0
  185.8720  177.0500  145.3800 C   0  0  0  0  0  3  0  0  0  0  0  0
  188.4050  177.6860  144.3690 C   0  0  0  0  0  0  0  0  0  0  0  0
  188.2840  177.1510  145.6610 C   0  0  0  0  0  0  0  0  0  0  0  0
  187.2640  177.8980  143.5880 C   0  0  0  0  0  3  0  0  0  0  0  0
  1 14  2  0  0  0  0
  1  6  1  0  0  0  0
  2  5  1  1  0  0  0
  2 13  1  0  0  0  0
  3  2  1  0  0  0  0
  3 19  2  0  0  0  0
  4 11  2  0  0  0  0
  4  7  1  0  0  0  0
  5 16  2  0  0  0  0
  6 17  2  0  0  0  0
  7  3  1  0  0  0  0
  8 21  1  0  0  0  0
  9  1  1  0  0  0  0
 10 18  1  0  0  0  0
 11 15  1  0  0  0  0
 12  8  1  0  0  0  0
 13  8  1  0  0  0  0
 13 18  1  1  0  0  0
 14  5  1  0  0  0  0
 15 20  2  0  0  0  0
 16 12  1  0  0  0  0
 17 16  1  0  0  0  0
 19 10  1  0  0  0  0
 20 19  1  0  0  0  0
 23 21  1  0  0  0  0
 23 22  1  1  0  0  0
 24 28  1  0  0  0  0
 26 29  1  0  0  0  0
 27 24  1  0  0  0  0
 28 25  2  0  0  0  0
 29 30  2  0  0  0  0
 30 25  1  0  0  0  0
 30 23  1  0  0  0  0
 31 24  2  0  0  0  0
 31 29  1  0  0  0  0
M  END
>  <MODEL>
7

>  <REMARK>
 VINA RESULT:      -7.8      3.226      7.111
  Name = 
  3 active torsions:
  status: ('A' for Active; 'I' for Inactive)
    1  A    between atoms: C_9  and  C_22
    2  A    between atoms: C_9  and  C_23
    3  A    between atoms: N_15  and  C_23
                            x       y       z     vdW  Elec       q    Type
                         _______ _______ _______ _____ _____    ______ ____

>  <TORSDO>
F 3

$$$$
=
 OpenBabel11052417543D

 31 35  0  0  1  0  0  0  0  0999 V2000
  185.9680  176.5460  146.4640 C   0  0  0  0  0  0  0  0  0  0  0  0
  187.9230  177.8610  143.4340 C   0  0  1  0  0  3  0  0  0  0  0  0
  186.7590  178.1830  142.5180 C   0  0  0  0  0  0  0  0  0  0  0  0
  184.5360  179.0480  143.1210 C   0  0  0  0  0  3  0  0  0  0  0  0
  187.5450  177.2570  144.7630 C   0  0  0  0  0  0  0  0  0  0  0  0
  187.0300  176.1320  147.2770 C   0  0  0  0  0  3  0  0  0  0  0  0
  185.9570  179.4010  142.8490 C   0  0  0  0  0  2  0  0  0  0  0  0
  190.0550  176.4660  143.6750 N   0  0  0  0  0  0  0  0  0  0  0  0
  184.6930  176.4060  146.8940 F   0  0  0  0  0  0  0  0  0  0  0  0
  187.5180  176.4790  140.8690 C   0  0  0  0  0  2  0  0  0  0  0  0
  183.7470  178.5180  142.1900 C   0  0  0  0  0  3  0  0  0  0  0  0
  189.9840  176.9890  145.0480 C   0  0  0  0  0  2  0  0  0  0  0  0
  189.0480  177.0390  142.7500 C   0  0  1  0  0  3  0  0  0  0  0  0
  186.2230  177.1090  145.2090 C   0  0  0  0  0  3  0  0  0  0  0  0
  184.1870  178.1740  140.8680 N   0  0  0  0  0  0  0  0  0  0  0  0
  188.5980  176.8380  145.5790 C   0  0  0  0  0  0  0  0  0  0  0  0
  188.3480  176.2770  146.8350 C   0  0  0  0  0  3  0  0  0  0  0  0
  188.4180  175.9050  141.9520 C   0  0  0  0  0  2  0  0  0  0  0  0
  186.5090  177.4660  141.3980 C   0  0  0  0  0  0  0  0  0  0  0  0
  185.3580  177.7320  140.5040 C   0  0  0  0  0  3  0  0  0  0  0  0
  191.3620  176.8150  143.1380 C   0  0  0  0  0  2  0  0  0  0  0  0
  191.1950  174.4940  142.5760 O   0  0  0  0  0  1  0  0  0  0  0  0
  192.0830  175.5680  142.6380 C   0  0  2  0  0  3  0  0  0  0  0  0
  195.4150  174.5710  145.1710 C   0  0  0  0  0  0  0  0  0  0  0  0
  193.0450  174.4640  144.6890 C   0  0  0  0  0  3  0  0  0  0  0  0
  194.7450  176.3980  142.0760 F   0  0  0  0  0  0  0  0  0  0  0  0
  196.7720  174.1660  146.2020 Cl  0  0  0  0  0  0  0  0  0  0  0  0
  194.1290  174.1400  145.5100 C   0  0  0  0  0  3  0  0  0  0  0  0
  194.5340  175.6540  143.1890 C   0  0  0  0  0  0  0  0  0  0  0  0
  193.2400  175.2270  143.5260 C   0  0  0  0  0  0  0  0  0  0  0  0
  195.6170  175.3280  144.0130 C   0  0  0  0  0  3  0  0  0  0  0  0
  1  9  1  0  0  0  0
  1  6  1  0  0  0  0
  2  3  1  6  0  0  0
  2  5  1  0  0  0  0
  3  7  1  0  0  0  0
  5 14  1  0  0  0  0
  5 16  2  0  0  0  0
  7  4  1  0  0  0  0
  8 12  1  0  0  0  0
 10 19  1  0  0  0  0
 10 18  1  0  0  0  0
 11  4  2  0  0  0  0
 12 16  1  0  0  0  0
 13 18  1  1  0  0  0
 13  2  1  0  0  0  0
 13  8  1  0  0  0  0
 14  1  2  0  0  0  0
 15 11  1  0  0  0  0
 16 17  1  0  0  0  0
 17  6  2  0  0  0  0
 19  3  2  0  0  0  0
 20 15  2  0  0  0  0
 20 19  1  0  0  0  0
 21  8  1  0  0  0  0
 23 22  1  1  0  0  0
 23 21  1  0  0  0  0
 23 30  1  0  0  0  0
 24 28  1  0  0  0  0
 24 27  1  0  0  0  0
 25 28  2  0  0  0  0
 26 29  1  0  0  0  0
 29 30  2  0  0  0  0
 29 31  1  0  0  0  0
 30 25  1  0  0  0  0
 31 24  2  0  0  0  0
M  END
>  <MODEL>
8

>  <REMARK>
 VINA RESULT:      -7.8      2.456      4.064
  Name = 
  3 active torsions:
  status: ('A' for Active; 'I' for Inactive)
    1  A    between atoms: C_9  and  C_22
    2  A    between atoms: C_9  and  C_23
    3  A    between atoms: N_15  and  C_23
                            x       y       z     vdW  Elec       q    Type
                         _______ _______ _______ _____ _____    ______ ____

>  <TORSDO>
F 3

$$$$
=
 OpenBabel11052417543D

 31 35  0  0  1  0  0  0  0  0999 V2000
  192.4310  175.5950  146.8320 C   0  0  0  0  0  0  0  0  0  0  0  0
  189.1800  174.8540  144.9300 C   0  0  1  0  0  3  0  0  0  0  0  0
  189.7020  173.8170  143.9560 C   0  0  0  0  0  0  0  0  0  0  0  0
  191.4220  172.0980  144.3320 C   0  0  0  0  0  3  0  0  0  0  0  0
  190.2150  175.4420  145.8570 C   0  0  0  0  0  0  0  0  0  0  0  0
  191.9960  176.6380  147.6590 C   0  0  0  0  0  3  0  0  0  0  0  0
  189.9880  172.4570  144.5080 C   0  0  0  0  0  2  0  0  0  0  0  0
  188.0530  177.1430  145.1240 N   0  0  0  0  0  0  0  0  0  0  0  0
  193.7110  175.1620  146.9060 F   0  0  0  0  0  0  0  0  0  0  0  0
  189.1910  175.3000  142.0230 C   0  0  0  0  0  2  0  0  0  0  0  0
  191.9770  171.9640  143.1300 C   0  0  0  0  0  3  0  0  0  0  0  0
  188.3790  176.9440  146.5450 C   0  0  0  0  0  2  0  0  0  0  0  0
  188.3360  175.9720  144.2610 C   0  0  1  0  0  3  0  0  0  0  0  0
  191.5430  174.9960  145.9320 C   0  0  0  0  0  3  0  0  0  0  0  0
  191.2850  172.2080  141.8970 N   0  0  0  0  0  0  0  0  0  0  0  0
  189.7910  176.4850  146.6830 C   0  0  0  0  0  0  0  0  0  0  0  0
  190.6740  177.0850  147.5850 C   0  0  0  0  0  3  0  0  0  0  0  0
  189.0540  176.4520  143.0070 C   0  0  0  0  0  2  0  0  0  0  0  0
  189.8160  174.0720  142.6320 C   0  0  0  0  0  0  0  0  0  0  0  0
  190.3570  173.0920  141.6610 C   0  0  0  0  0  3  0  0  0  0  0  0
  186.6210  177.3950  145.0310 C   0  0  0  0  0  2  0  0  0  0  0  0
  185.9700  179.6920  145.2050 O   0  0  0  0  0  1  0  0  0  0  0  0
  186.3580  178.7060  144.2990 C   0  0  2  0  0  3  0  0  0  0  0  0
  183.3320  178.2220  141.2770 C   0  0  0  0  0  0  0  0  0  0  0  0
  183.9420  178.5590  143.5960 C   0  0  0  0  0  3  0  0  0  0  0  0
  186.9770  178.3090  141.5500 F   0  0  0  0  0  0  0  0  0  0  0  0
  182.1010  178.0250  140.0470 Cl  0  0  0  0  0  0  0  0  0  0  0  0
  182.9600  178.4040  142.6130 C   0  0  0  0  0  3  0  0  0  0  0  0
  185.6700  178.3490  141.9070 C   0  0  0  0  0  0  0  0  0  0  0  0
  185.3030  178.5290  143.2500 C   0  0  0  0  0  0  0  0  0  0  0  0
  184.6850  178.1940  140.9250 C   0  0  0  0  0  3  0  0  0  0  0  0
  1  9  1  0  0  0  0
  1  6  1  0  0  0  0
  2  3  1  6  0  0  0
  2  5  1  0  0  0  0
  3  7  1  0  0  0  0
  4  7  1  0  0  0  0
  5 14  1  0  0  0  0
  5 16  2  0  0  0  0
  8 12  1  0  0  0  0
 10 19  1  0  0  0  0
 10 18  1  0  0  0  0
 11  4  2  0  0  0  0
 12 16  1  0  0  0  0
 13 18  1  6  0  0  0
 13  2  1  0  0  0  0
 13  8  1  0  0  0  0
 14  1  2  0  0  0  0
 15 11  1  0  0  0  0
 16 17  1  0  0  0  0
 17  6  2  0  0  0  0
 19  3  2  0  0  0  0
 20 15  2  0  0  0  0
 20 19  1  0  0  0  0
 21  8  1  0  0  0  0
 23 21  1  0  0  0  0
 23 22  1  1  0  0  0
 24 28  1  0  0  0  0
 26 29  1  0  0  0  0
 27 24  1  0  0  0  0
 28 25  2  0  0  0  0
 29 30  2  0  0  0  0
 30 25  1  0  0  0  0
 30 23  1  0  0  0  0
 31 24  2  0  0  0  0
 31 29  1  0  0  0  0
M  END
>  <MODEL>
9

>  <REMARK>
 VINA RESULT:      -7.8      3.698      7.925
  Name = 
  3 active torsions:
  status: ('A' for Active; 'I' for Inactive)
    1  A    between atoms: C_9  and  C_22
    2  A    between atoms: C_9  and  C_23
    3  A    between atoms: N_15  and  C_23
                            x       y       z     vdW  Elec       q    Type
                         _______ _______ _______ _____ _____    ______ ____

>  <TORSDO>
F 3

$$$$
