=
 OpenBabel11052418103D

 28 31  0  0  1  0  0  0  0  0999 V2000
  185.8810  179.0650  143.7020 C   0  0  1  0  0  3  0  0  0  0  0  0
  190.8110  177.5020  143.6660 C   0  0  0  0  0  3  0  0  0  0  0  0
  186.3540  176.2660  147.8770 C   0  0  0  0  0  1  0  0  0  0  0  0
  191.0030  176.1350  145.6660 C   0  0  0  0  0  0  0  0  0  0  0  0
  188.8670  177.2000  145.1420 C   0  0  0  0  0  0  0  0  0  0  0  0
  192.9150  176.4340  144.2100 C   0  0  0  0  0  0  0  0  0  0  0  0
  190.2190  176.9540  144.8170 C   0  0  0  0  0  0  0  0  0  0  0  0
  189.1090  175.8190  147.1340 C   0  0  0  0  0  3  0  0  0  0  0  0
  192.3430  175.8820  145.3570 C   0  0  0  0  0  3  0  0  0  0  0  0
  186.1700  177.6890  145.8070 C   0  0  0  0  0  0  0  0  0  0  0  0
  188.0640  178.0010  144.3190 C   0  0  0  0  0  3  0  0  0  0  0  0
  190.4440  175.5770  146.8140 C   0  0  0  0  0  3  0  0  0  0  0  0
  184.0650  178.8990  145.4640 C   0  0  0  0  0  3  0  0  0  0  0  0
  186.9560  176.8700  146.6410 C   0  0  0  0  0  0  0  0  0  0  0  0
  184.7550  177.9690  146.1270 C   0  0  0  0  0  3  0  0  0  0  0  0
  194.5930  176.1140  143.8300 Cl  0  0  0  0  0  0  0  0  0  0  0  0
  192.1510  177.2440  143.3650 C   0  0  0  0  0  3  0  0  0  0  0  0
  188.3070  176.6260  146.3120 C   0  0  0  0  0  0  0  0  0  0  0  0
  184.7140  179.7650  144.4180 C   0  0  0  0  0  2  0  0  0  0  0  0
  186.7300  178.2480  144.6420 C   0  0  0  0  0  0  0  0  0  0  0  0
  185.4610  178.2710  142.4590 C   0  0  2  0  0  3  0  0  0  0  0  0
  184.0830  178.3730  142.2480 O   0  0  0  0  0  1  0  0  0  0  0  0
  185.9670  176.8170  142.4400 C   0  0  0  0  0  2  0  0  0  0  0  0
  187.0480  177.3220  140.3100 C   0  0  0  0  0  2  0  0  0  0  0  0
  186.9760  176.5250  141.3710 C   0  0  0  0  0  0  0  0  0  0  0  0
  187.8890  175.3770  141.5110 C   0  0  0  0  0  0  0  0  0  0  0  0
  188.4720  174.8110  140.3840 O   0  0  0  0  0  0  0  0  0  0  0  0
  188.1530  174.9000  142.6480 O   0  0  0  0  0  1  0  0  0  0  0  0
  1 21  1  6  0  0  0
  1 19  1  0  0  0  0
  1 20  1  0  0  0  0
  2  7  1  0  0  0  0
  4 12  1  0  0  0  0
  5 18  1  0  0  0  0
  6  9  2  0  0  0  0
  7  5  1  0  0  0  0
  7  4  2  0  0  0  0
  9  4  1  0  0  0  0
 10 15  1  0  0  0  0
 10 14  1  0  0  0  0
 11 20  1  0  0  0  0
 11  5  2  0  0  0  0
 12  8  2  0  0  0  0
 13 15  2  0  0  0  0
 14  3  1  0  0  0  0
 16  6  1  0  0  0  0
 17  2  2  0  0  0  0
 17  6  1  0  0  0  0
 18 14  2  0  0  0  0
 18  8  1  0  0  0  0
 19 13  1  0  0  0  0
 20 10  2  0  0  0  0
 21 22  1  1  0  0  0
 23 21  1  0  0  0  0
 24 25  2  0  0  0  0
 25 26  1  0  0  0  0
 25 23  1  0  0  0  0
 26 28  1  0  0  0  0
 27 26  2  0  0  0  0
M  END
>  <MODEL>
1

>  <REMARK>
 VINA RESULT:      -8.7      0.000      0.000
  Name = 
  4 active torsions:
  status: ('A' for Active; 'I' for Inactive)
    1  A    between atoms: C_1  and  C_2
    2  A    between atoms: C_2  and  C_3
    3  A    between atoms: C_3  and  C_11
    4  A    between atoms: C_6  and  C_11
                            x       y       z     vdW  Elec       q    Type
                         _______ _______ _______ _____ _____    ______ ____

>  <TORSDO>
F 4

$$$$
=
 OpenBabel11052418103D

 28 31  0  0  1  0  0  0  0  0999 V2000
  187.6690  178.1860  142.4830 C   0  0  1  0  0  3  0  0  0  0  0  0
  192.2080  176.4990  144.3000 C   0  0  0  0  0  3  0  0  0  0  0  0
  186.6170  176.4450  147.1030 C   0  0  0  0  0  1  0  0  0  0  0  0
  191.6680  175.6400  146.5090 C   0  0  0  0  0  0  0  0  0  0  0  0
  189.8990  176.6200  145.1370 C   0  0  0  0  0  0  0  0  0  0  0  0
  193.9410  175.5220  145.6810 C   0  0  0  0  0  0  0  0  0  0  0  0
  191.2540  176.2590  145.3040 C   0  0  0  0  0  0  0  0  0  0  0  0
  189.4070  175.7440  147.3570 C   0  0  0  0  0  3  0  0  0  0  0  0
  193.0060  175.2770  146.6880 C   0  0  0  0  0  3  0  0  0  0  0  0
  187.1910  177.3410  144.8200 C   0  0  0  0  0  0  0  0  0  0  0  0
  189.4570  177.2280  143.9550 C   0  0  0  0  0  3  0  0  0  0  0  0
  190.7450  175.3890  147.5220 C   0  0  0  0  0  3  0  0  0  0  0  0
  185.4130  178.5030  143.5950 C   0  0  0  0  0  3  0  0  0  0  0  0
  187.6110  176.7170  146.0120 C   0  0  0  0  0  0  0  0  0  0  0  0
  185.7800  177.7350  144.6220 C   0  0  0  0  0  3  0  0  0  0  0  0
  195.6150  175.0660  145.9130 Cl  0  0  0  0  0  0  0  0  0  0  0  0
  193.5440  176.1330  144.4880 C   0  0  0  0  0  3  0  0  0  0  0  0
  188.9670  176.3590  146.1740 C   0  0  0  0  0  0  0  0  0  0  0  0
  186.4240  179.0740  142.6370 C   0  0  0  0  0  2  0  0  0  0  0  0
  188.1190  177.5890  143.7920 C   0  0  0  0  0  0  0  0  0  0  0  0
  187.5500  177.1340  141.3740 C   0  0  2  0  0  3  0  0  0  0  0  0
  186.7010  177.5820  140.3570 O   0  0  0  0  0  1  0  0  0  0  0  0
  187.1930  175.7250  141.8790 C   0  0  0  0  0  2  0  0  0  0  0  0
  188.7670  174.0350  142.6720 C   0  0  0  0  0  2  0  0  0  0  0  0
  188.2530  174.6920  141.6380 C   0  0  0  0  0  0  0  0  0  0  0  0
  188.7010  174.4000  140.2650 C   0  0  0  0  0  0  0  0  0  0  0  0
  189.9440  173.8170  140.0490 O   0  0  0  0  0  1  0  0  0  0  0  0
  187.9670  174.6700  139.2770 O   0  0  0  0  0  0  0  0  0  0  0  0
  1 21  1  6  0  0  0
  1 19  1  0  0  0  0
  1 20  1  0  0  0  0
  2 17  2  0  0  0  0
  2  7  1  0  0  0  0
  4  9  1  0  0  0  0
  4 12  1  0  0  0  0
  5  7  1  0  0  0  0
  5 18  1  0  0  0  0
  6 16  1  0  0  0  0
  6  9  2  0  0  0  0
  7  4  2  0  0  0  0
  8 12  2  0  0  0  0
 10 14  1  0  0  0  0
 11  5  2  0  0  0  0
 13 15  2  0  0  0  0
 14 18  2  0  0  0  0
 14  3  1  0  0  0  0
 15 10  1  0  0  0  0
 17  6  1  0  0  0  0
 18  8  1  0  0  0  0
 19 13  1  0  0  0  0
 20 11  1  0  0  0  0
 20 10  2  0  0  0  0
 21 22  1  6  0  0  0
 21 23  1  0  0  0  0
 25 23  1  0  0  0  0
 25 24  2  0  0  0  0
 26 25  1  0  0  0  0
 27 26  1  0  0  0  0
 28 26  2  0  0  0  0
M  END
>  <MODEL>
2

>  <REMARK>
 VINA RESULT:      -8.4      1.485      2.073
  Name = 
  4 active torsions:
  status: ('A' for Active; 'I' for Inactive)
    1  A    between atoms: C_1  and  C_2
    2  A    between atoms: C_2  and  C_3
    3  A    between atoms: C_3  and  C_11
    4  A    between atoms: C_6  and  C_11
                            x       y       z     vdW  Elec       q    Type
                         _______ _______ _______ _____ _____    ______ ____

>  <TORSDO>
F 4

$$$$
=
 OpenBabel11052418103D

 28 31  0  0  1  0  0  0  0  0999 V2000
  188.3790  177.6750  141.9530 C   0  0  1  0  0  3  0  0  0  0  0  0
  193.2440  176.3250  143.0780 C   0  0  0  0  0  3  0  0  0  0  0  0
  188.4670  177.3260  146.9880 C   0  0  0  0  0  1  0  0  0  0  0  0
  193.2500  176.1350  145.5010 C   0  0  0  0  0  0  0  0  0  0  0  0
  191.1930  176.7880  144.3540 C   0  0  0  0  0  0  0  0  0  0  0  0
  195.2670  175.6790  144.2400 C   0  0  0  0  0  0  0  0  0  0  0  0
  192.5550  176.4180  144.2990 C   0  0  0  0  0  0  0  0  0  0  0  0
  191.2490  176.5820  146.7810 C   0  0  0  0  0  3  0  0  0  0  0  0
  194.5980  175.7680  145.4630 C   0  0  0  0  0  3  0  0  0  0  0  0
  188.4750  177.5300  144.4780 C   0  0  0  0  0  0  0  0  0  0  0  0
  190.4770  177.0690  143.1830 C   0  0  0  0  0  3  0  0  0  0  0  0
  192.5940  176.2180  146.7270 C   0  0  0  0  0  3  0  0  0  0  0  0
  186.4410  178.3980  143.4190 C   0  0  0  0  0  3  0  0  0  0  0  0
  189.1720  177.2380  145.6670 C   0  0  0  0  0  0  0  0  0  0  0  0
  187.0510  177.9250  144.5070 C   0  0  0  0  0  3  0  0  0  0  0  0
  196.9550  175.2200  144.2000 Cl  0  0  0  0  0  0  0  0  0  0  0  0
  194.5920  175.9570  143.0490 C   0  0  0  0  0  3  0  0  0  0  0  0
  190.5340  176.8690  145.6080 C   0  0  0  0  0  0  0  0  0  0  0  0
  187.1910  178.6320  142.1350 C   0  0  0  0  0  2  0  0  0  0  0  0
  189.1330  177.4380  143.2370 C   0  0  0  0  0  0  0  0  0  0  0  0
  188.0200  176.3660  141.2390 C   0  0  2  0  0  3  0  0  0  0  0  0
  187.0220  176.5810  140.2840 O   0  0  0  0  0  1  0  0  0  0  0  0
  187.7020  175.1980  142.1900 C   0  0  0  0  0  2  0  0  0  0  0  0
  189.2530  173.6640  143.2850 C   0  0  0  0  0  2  0  0  0  0  0  0
  188.6970  174.0770  142.1520 C   0  0  0  0  0  0  0  0  0  0  0  0
  189.0350  173.4320  140.8710 C   0  0  0  0  0  0  0  0  0  0  0  0
  188.0370  172.8370  140.1080 O   0  0  0  0  0  0  0  0  0  0  0  0
  190.2240  173.4150  140.4530 O   0  0  0  0  0  1  0  0  0  0  0  0
  1 21  1  1  0  0  0
  1 19  1  0  0  0  0
  1 20  1  0  0  0  0
  2  7  1  0  0  0  0
  4 12  1  0  0  0  0
  5 18  1  0  0  0  0
  6  9  2  0  0  0  0
  7  5  1  0  0  0  0
  7  4  2  0  0  0  0
  9  4  1  0  0  0  0
 10 15  1  0  0  0  0
 10 14  1  0  0  0  0
 11 20  1  0  0  0  0
 11  5  2  0  0  0  0
 12  8  2  0  0  0  0
 13 15  2  0  0  0  0
 14  3  1  0  0  0  0
 16  6  1  0  0  0  0
 17  2  2  0  0  0  0
 17  6  1  0  0  0  0
 18 14  2  0  0  0  0
 18  8  1  0  0  0  0
 19 13  1  0  0  0  0
 20 10  2  0  0  0  0
 21 22  1  1  0  0  0
 21 23  1  0  0  0  0
 25 23  1  0  0  0  0
 25 24  2  0  0  0  0
 26 25  1  0  0  0  0
 27 26  2  0  0  0  0
 28 26  1  0  0  0  0
M  END
>  <MODEL>
3

>  <REMARK>
 VINA RESULT:      -8.0      1.826      2.895
  Name = 
  4 active torsions:
  status: ('A' for Active; 'I' for Inactive)
    1  A    between atoms: C_1  and  C_2
    2  A    between atoms: C_2  and  C_3
    3  A    between atoms: C_3  and  C_11
    4  A    between atoms: C_6  and  C_11
                            x       y       z     vdW  Elec       q    Type
                         _______ _______ _______ _____ _____    ______ ____

>  <TORSDO>
F 4

$$$$
=
 OpenBabel11052418103D

 28 31  0  0  1  0  0  0  0  0999 V2000
  187.5470  176.3780  146.6670 C   0  0  1  0  0  3  0  0  0  0  0  0
  188.2110  174.7350  141.8080 C   0  0  0  0  0  3  0  0  0  0  0  0
  185.1620  179.8070  143.8310 C   0  0  0  0  0  1  0  0  0  0  0  0
  187.0810  176.4160  140.4650 C   0  0  0  0  0  0  0  0  0  0  0  0
  187.0890  176.6310  142.8990 C   0  0  0  0  0  0  0  0  0  0  0  0
  188.1890  174.5470  139.3940 C   0  0  0  0  0  0  0  0  0  0  0  0
  187.4640  175.9230  141.7360 C   0  0  0  0  0  0  0  0  0  0  0  0
  185.9710  178.2910  141.5100 C   0  0  0  0  0  3  0  0  0  0  0  0
  187.4460  175.7260  139.3050 C   0  0  0  0  0  3  0  0  0  0  0  0
  186.3270  178.0530  145.2120 C   0  0  0  0  0  0  0  0  0  0  0  0
  187.4570  176.1720  144.1710 C   0  0  0  0  0  3  0  0  0  0  0  0
  186.3410  177.5920  140.3620 C   0  0  0  0  0  3  0  0  0  0  0  0
  186.1060  178.2180  147.6490 C   0  0  0  0  0  3  0  0  0  0  0  0
  185.9580  178.5400  143.9430 C   0  0  0  0  0  0  0  0  0  0  0  0
  185.9420  178.7700  146.4460 C   0  0  0  0  0  3  0  0  0  0  0  0
  188.6410  173.6870  137.9380 Cl  0  0  0  0  0  0  0  0  0  0  0  0
  188.5710  174.0510  140.6430 C   0  0  0  0  0  3  0  0  0  0  0  0
  186.3350  177.8280  142.7830 C   0  0  0  0  0  0  0  0  0  0  0  0
  186.6100  176.8090  147.8070 C   0  0  0  0  0  2  0  0  0  0  0  0
  187.0820  176.8700  145.3190 C   0  0  0  0  0  0  0  0  0  0  0  0
  189.0250  176.6950  146.9230 C   0  0  2  0  0  3  0  0  0  0  0  0
  189.5540  177.4660  145.8830 O   0  0  0  0  0  1  0  0  0  0  0  0
  189.8850  175.4610  147.2540 C   0  0  0  0  0  2  0  0  0  0  0  0
  189.9670  173.9480  145.3400 C   0  0  0  0  0  2  0  0  0  0  0  0
  190.5910  174.8620  146.0750 C   0  0  0  0  0  0  0  0  0  0  0  0
  191.9540  175.3010  145.7290 C   0  0  0  0  0  0  0  0  0  0  0  0
  192.7360  175.9520  146.6760 O   0  0  0  0  0  1  0  0  0  0  0  0
  192.4250  175.0910  144.5790 O   0  0  0  0  0  0  0  0  0  0  0  0
  1 21  1  1  0  0  0
  1 19  1  0  0  0  0
  3 14  1  0  0  0  0
  4  7  1  0  0  0  0
  5 11  1  0  0  0  0
  6 17  1  0  0  0  0
  7  2  1  0  0  0  0
  7  5  2  0  0  0  0
  8 18  2  0  0  0  0
  9  6  2  0  0  0  0
  9  4  1  0  0  0  0
 10 20  1  0  0  0  0
 10 15  1  0  0  0  0
 11 20  2  0  0  0  0
 12  4  2  0  0  0  0
 12  8  1  0  0  0  0
 13 19  1  0  0  0  0
 14 10  2  0  0  0  0
 15 13  2  0  0  0  0
 16  6  1  0  0  0  0
 17  2  2  0  0  0  0
 18  5  1  0  0  0  0
 18 14  1  0  0  0  0
 20  1  1  0  0  0  0
 21 22  1  6  0  0  0
 21 23  1  0  0  0  0
 24 25  2  0  0  0  0
 25 23  1  0  0  0  0
 26 25  1  0  0  0  0
 26 27  1  0  0  0  0
 28 26  2  0  0  0  0
M  END
>  <MODEL>
4

>  <REMARK>
 VINA RESULT:      -7.6      2.848      5.514
  Name = 
  4 active torsions:
  status: ('A' for Active; 'I' for Inactive)
    1  A    between atoms: C_1  and  C_2
    2  A    between atoms: C_2  and  C_3
    3  A    between atoms: C_3  and  C_11
    4  A    between atoms: C_6  and  C_11
                            x       y       z     vdW  Elec       q    Type
                         _______ _______ _______ _____ _____    ______ ____

>  <TORSDO>
F 4

$$$$
=
 OpenBabel11052418103D

 28 31  0  0  1  0  0  0  0  0999 V2000
  193.1400  176.6900  144.7510 C   0  0  1  0  0  3  0  0  0  0  0  0
  188.1230  177.8490  144.2550 C   0  0  0  0  0  3  0  0  0  0  0  0
  191.2190  172.8810  142.0510 C   0  0  0  0  0  1  0  0  0  0  0  0
  187.2190  175.9880  142.9800 C   0  0  0  0  0  0  0  0  0  0  0  0
  189.6020  176.0270  143.5200 C   0  0  0  0  0  0  0  0  0  0  0  0
  185.7660  177.7840  143.7070 C   0  0  0  0  0  0  0  0  0  0  0  0
  188.3260  176.6270  143.5910 C   0  0  0  0  0  0  0  0  0  0  0  0
  188.6490  174.1820  142.2460 C   0  0  0  0  0  3  0  0  0  0  0  0
  185.9500  176.5700  143.0420 C   0  0  0  0  0  3  0  0  0  0  0  0
  192.1470  174.8200  143.3640 C   0  0  0  0  0  0  0  0  0  0  0  0
  190.7160  176.6320  144.1180 C   0  0  0  0  0  3  0  0  0  0  0  0
  187.3890  174.7750  142.3150 C   0  0  0  0  0  3  0  0  0  0  0  0
  194.5770  174.8990  143.6780 C   0  0  0  0  0  3  0  0  0  0  0  0
  191.0380  174.1880  142.7670 C   0  0  0  0  0  0  0  0  0  0  0  0
  193.4950  174.2180  143.2990 C   0  0  0  0  0  3  0  0  0  0  0  0
  184.1740  178.5070  143.7800 Cl  0  0  0  0  0  0  0  0  0  0  0  0
  186.8510  178.4230  144.3120 C   0  0  0  0  0  3  0  0  0  0  0  0
  189.7640  174.7920  142.8410 C   0  0  0  0  0  0  0  0  0  0  0  0
  194.4920  176.3380  144.1100 C   0  0  0  0  0  2  0  0  0  0  0  0
  191.9770  176.0410  144.0440 C   0  0  0  0  0  0  0  0  0  0  0  0
  193.0950  176.4690  146.2680 C   0  0  2  0  0  3  0  0  0  0  0  0
  194.3870  176.4190  146.7990 O   0  0  0  0  0  1  0  0  0  0  0  0
  192.2170  175.2830  146.7060 C   0  0  0  0  0  2  0  0  0  0  0  0
  189.8860  174.7960  147.2430 C   0  0  0  0  0  2  0  0  0  0  0  0
  190.8850  175.6720  147.2720 C   0  0  0  0  0  0  0  0  0  0  0  0
  190.6970  177.0040  147.8700 C   0  0  0  0  0  0  0  0  0  0  0  0
  191.4880  177.4030  148.9410 O   0  0  0  0  0  1  0  0  0  0  0  0
  189.8250  177.7950  147.4200 O   0  0  0  0  0  0  0  0  0  0  0  0
  1 21  1  1  0  0  0
  2 17  1  0  0  0  0
  3 14  1  0  0  0  0
  4  9  2  0  0  0  0
  4  7  1  0  0  0  0
  5  7  1  0  0  0  0
  5 11  1  0  0  0  0
  6 16  1  0  0  0  0
  6 17  2  0  0  0  0
  7  2  2  0  0  0  0
  8 12  2  0  0  0  0
  8 18  1  0  0  0  0
  9  6  1  0  0  0  0
 10 20  1  0  0  0  0
 12  4  1  0  0  0  0
 13 19  1  0  0  0  0
 14 18  1  0  0  0  0
 14 10  2  0  0  0  0
 15 10  1  0  0  0  0
 15 13  2  0  0  0  0
 18  5  2  0  0  0  0
 19  1  1  0  0  0  0
 20 11  2  0  0  0  0
 20  1  1  0  0  0  0
 21 23  1  0  0  0  0
 21 22  1  6  0  0  0
 23 25  1  0  0  0  0
 24 25  2  0  0  0  0
 25 26  1  0  0  0  0
 26 27  1  0  0  0  0
 28 26  2  0  0  0  0
M  END
>  <MODEL>
5

>  <REMARK>
 VINA RESULT:      -7.5      3.534      7.335
  Name = 
  4 active torsions:
  status: ('A' for Active; 'I' for Inactive)
    1  A    between atoms: C_1  and  C_2
    2  A    between atoms: C_2  and  C_3
    3  A    between atoms: C_3  and  C_11
    4  A    between atoms: C_6  and  C_11
                            x       y       z     vdW  Elec       q    Type
                         _______ _______ _______ _____ _____    ______ ____

>  <TORSDO>
F 4

$$$$
=
 OpenBabel11052418103D

 28 31  0  0  1  0  0  0  0  0999 V2000
  192.5380  175.0590  143.6560 C   0  0  1  0  0  3  0  0  0  0  0  0
  188.4240  177.1010  146.0350 C   0  0  0  0  0  3  0  0  0  0  0  0
  188.7100  174.2900  140.4550 C   0  0  0  0  0  1  0  0  0  0  0  0
  186.5940  176.6910  144.4880 C   0  0  0  0  0  0  0  0  0  0  0  0
  188.8510  175.9640  143.8960 C   0  0  0  0  0  0  0  0  0  0  0  0
  186.1780  177.8090  146.5960 C   0  0  0  0  0  0  0  0  0  0  0  0
  187.9700  176.5840  144.8090 C   0  0  0  0  0  0  0  0  0  0  0  0
  186.9840  175.5740  142.3800 C   0  0  0  0  0  3  0  0  0  0  0  0
  185.7100  177.3020  145.3820 C   0  0  0  0  0  3  0  0  0  0  0  0
  190.6000  174.7300  142.0610 C   0  0  0  0  0  0  0  0  0  0  0  0
  190.2160  175.8380  144.1870 C   0  0  0  0  0  3  0  0  0  0  0  0
  186.1140  176.1870  143.2810 C   0  0  0  0  0  3  0  0  0  0  0  0
  192.8650  174.1690  141.3050 C   0  0  0  0  0  3  0  0  0  0  0  0
  189.2290  174.8330  141.7540 C   0  0  0  0  0  0  0  0  0  0  0  0
  191.5460  174.0920  141.1210 C   0  0  0  0  0  3  0  0  0  0  0  0
  185.0650  178.5730  147.7100 Cl  0  0  0  0  0  0  0  0  0  0  0  0
  187.5320  177.7100  146.9220 C   0  0  0  0  0  3  0  0  0  0  0  0
  188.3520  175.4540  142.6700 C   0  0  0  0  0  0  0  0  0  0  0  0
  193.4570  174.9780  142.4270 C   0  0  0  0  0  2  0  0  0  0  0  0
  191.0870  175.2300  143.2830 C   0  0  0  0  0  0  0  0  0  0  0  0
  192.7490  173.9240  144.6660 C   0  0  2  0  0  3  0  0  0  0  0  0
  191.6570  173.0500  144.6630 O   0  0  0  0  0  1  0  0  0  0  0  0
  193.1330  174.4020  146.0780 C   0  0  0  0  0  2  0  0  0  0  0  0
  194.0300  176.6100  146.6090 C   0  0  0  0  0  2  0  0  0  0  0  0
  194.2530  175.3980  146.1120 C   0  0  0  0  0  0  0  0  0  0  0  0
  195.5900  175.0240  145.6180 C   0  0  0  0  0  0  0  0  0  0  0  0
  196.1330  175.6800  144.5190 O   0  0  0  0  0  0  0  0  0  0  0  0
  196.2540  174.1140  146.1830 O   0  0  0  0  0  1  0  0  0  0  0  0
  1 21  1  6  0  0  0
  2 17  1  0  0  0  0
  3 14  1  0  0  0  0
  4  7  1  0  0  0  0
  4  9  2  0  0  0  0
  5 11  1  0  0  0  0
  5  7  1  0  0  0  0
  6 17  2  0  0  0  0
  6 16  1  0  0  0  0
  7  2  2  0  0  0  0
  8 18  1  0  0  0  0
  8 12  2  0  0  0  0
  9  6  1  0  0  0  0
 10 20  1  0  0  0  0
 12  4  1  0  0  0  0
 13 19  1  0  0  0  0
 14 10  2  0  0  0  0
 14 18  1  0  0  0  0
 15 13  2  0  0  0  0
 15 10  1  0  0  0  0
 18  5  2  0  0  0  0
 19  1  1  0  0  0  0
 20  1  1  0  0  0  0
 20 11  2  0  0  0  0
 21 22  1  1  0  0  0
 21 23  1  0  0  0  0
 23 25  1  0  0  0  0
 25 24  2  0  0  0  0
 26 25  1  0  0  0  0
 26 28  1  0  0  0  0
 27 26  2  0  0  0  0
M  END
>  <MODEL>
6

>  <REMARK>
 VINA RESULT:      -7.5      3.669      7.421
  Name = 
  4 active torsions:
  status: ('A' for Active; 'I' for Inactive)
    1  A    between atoms: C_1  and  C_2
    2  A    between atoms: C_2  and  C_3
    3  A    between atoms: C_3  and  C_11
    4  A    between atoms: C_6  and  C_11
                            x       y       z     vdW  Elec       q    Type
                         _______ _______ _______ _____ _____    ______ ____

>  <TORSDO>
F 4

$$$$
=
 OpenBabel11052418103D

 28 31  0  0  1  0  0  0  0  0999 V2000
  192.2320  173.9580  143.6010 C   0  0  1  0  0  3  0  0  0  0  0  0
  187.6070  176.1570  142.8700 C   0  0  0  0  0  3  0  0  0  0  0  0
  191.0900  176.0230  148.0640 C   0  0  0  0  0  1  0  0  0  0  0  0
  187.0960  177.1670  145.0210 C   0  0  0  0  0  0  0  0  0  0  0  0
  189.1860  175.9300  144.7420 C   0  0  0  0  0  0  0  0  0  0  0  0
  185.5450  177.3880  143.1740 C   0  0  0  0  0  0  0  0  0  0  0  0
  187.9720  176.4110  144.2040 C   0  0  0  0  0  0  0  0  0  0  0  0
  188.6300  176.9620  146.8790 C   0  0  0  0  0  3  0  0  0  0  0  0
  185.8920  177.6490  144.5020 C   0  0  0  0  0  3  0  0  0  0  0  0
  191.6030  174.9720  145.8340 C   0  0  0  0  0  0  0  0  0  0  0  0
  190.0750  175.1840  143.9580 C   0  0  0  0  0  3  0  0  0  0  0  0
  187.4310  177.4350  146.3470 C   0  0  0  0  0  3  0  0  0  0  0  0
  193.6080  173.5670  145.6940 C   0  0  0  0  0  3  0  0  0  0  0  0
  190.7300  175.7320  146.6370 C   0  0  0  0  0  0  0  0  0  0  0  0
  192.8770  174.4510  146.3740 C   0  0  0  0  0  3  0  0  0  0  0  0
  184.0350  177.9940  142.5310 Cl  0  0  0  0  0  0  0  0  0  0  0  0
  186.4010  176.6430  142.3600 C   0  0  0  0  0  3  0  0  0  0  0  0
  189.5170  176.2100  146.0930 C   0  0  0  0  0  0  0  0  0  0  0  0
  193.1350  172.9930  144.3860 C   0  0  0  0  0  2  0  0  0  0  0  0
  191.2720  174.7060  144.4920 C   0  0  0  0  0  0  0  0  0  0  0  0
  192.9950  174.8930  142.6540 C   0  0  2  0  0  3  0  0  0  0  0  0
  192.4930  174.7950  141.3530 O   0  0  0  0  0  1  0  0  0  0  0  0
  194.5250  174.7440  142.7220 C   0  0  0  0  0  2  0  0  0  0  0  0
  194.8710  176.5170  144.3640 C   0  0  0  0  0  2  0  0  0  0  0  0
  195.2460  175.9620  143.2170 C   0  0  0  0  0  0  0  0  0  0  0  0
  196.3690  176.5210  142.4450 C   0  0  0  0  0  0  0  0  0  0  0  0
  197.6190  176.6590  143.0370 O   0  0  0  0  0  1  0  0  0  0  0  0
  196.2130  176.8750  141.2450 O   0  0  0  0  0  0  0  0  0  0  0  0
  1 21  1  1  0  0  0
  1 19  1  0  0  0  0
  1 20  1  0  0  0  0
  2  7  1  0  0  0  0
  4 12  1  0  0  0  0
  5 18  1  0  0  0  0
  6  9  2  0  0  0  0
  7  5  1  0  0  0  0
  7  4  2  0  0  0  0
  9  4  1  0  0  0  0
 10 15  1  0  0  0  0
 10 14  1  0  0  0  0
 11 20  1  0  0  0  0
 11  5  2  0  0  0  0
 12  8  2  0  0  0  0
 13 15  2  0  0  0  0
 14  3  1  0  0  0  0
 16  6  1  0  0  0  0
 17  2  2  0  0  0  0
 17  6  1  0  0  0  0
 18 14  2  0  0  0  0
 18  8  1  0  0  0  0
 19 13  1  0  0  0  0
 20 10  2  0  0  0  0
 21 22  1  6  0  0  0
 21 23  1  0  0  0  0
 23 25  1  0  0  0  0
 25 24  2  0  0  0  0
 26 27  1  0  0  0  0
 26 25  1  0  0  0  0
 28 26  2  0  0  0  0
M  END
>  <MODEL>
7

>  <REMARK>
 VINA RESULT:      -7.5      3.688      7.139
  Name = 
  4 active torsions:
  status: ('A' for Active; 'I' for Inactive)
    1  A    between atoms: C_1  and  C_2
    2  A    between atoms: C_2  and  C_3
    3  A    between atoms: C_3  and  C_11
    4  A    between atoms: C_6  and  C_11
                            x       y       z     vdW  Elec       q    Type
                         _______ _______ _______ _____ _____    ______ ____

>  <TORSDO>
F 4

$$$$
=
 OpenBabel11052418103D

 28 31  0  0  1  0  0  0  0  0999 V2000
  185.9660  178.6830  144.1220 C   0  0  1  0  0  3  0  0  0  0  0  0
  190.9590  177.3630  143.8350 C   0  0  0  0  0  3  0  0  0  0  0  0
  186.7470  175.7880  148.1830 C   0  0  0  0  0  1  0  0  0  0  0  0
  191.2990  175.9480  145.7820 C   0  0  0  0  0  0  0  0  0  0  0  0
  189.0950  176.9240  145.3790 C   0  0  0  0  0  0  0  0  0  0  0  0
  193.1320  176.3830  144.2580 C   0  0  0  0  0  0  0  0  0  0  0  0
  190.4420  176.7530  144.9910 C   0  0  0  0  0  0  0  0  0  0  0  0
  189.4860  175.4970  147.3150 C   0  0  0  0  0  3  0  0  0  0  0  0
  192.6350  175.7700  145.4110 C   0  0  0  0  0  3  0  0  0  0  0  0
  186.4090  177.2610  146.1680 C   0  0  0  0  0  0  0  0  0  0  0  0
  188.2210  177.7090  144.6150 C   0  0  0  0  0  3  0  0  0  0  0  0
  190.8160  175.3290  146.9330 C   0  0  0  0  0  3  0  0  0  0  0  0
  184.2360  178.3760  145.9500 C   0  0  0  0  0  3  0  0  0  0  0  0
  187.2660  176.4560  146.9440 C   0  0  0  0  0  0  0  0  0  0  0  0
  184.9960  177.4620  146.5540 C   0  0  0  0  0  3  0  0  0  0  0  0
  194.8050  176.1560  143.8010 Cl  0  0  0  0  0  0  0  0  0  0  0  0
  192.2950  177.1790  143.4720 C   0  0  0  0  0  3  0  0  0  0  0  0
  188.6130  176.2880  146.5520 C   0  0  0  0  0  0  0  0  0  0  0  0
  184.7980  179.3040  144.9070 C   0  0  0  0  0  2  0  0  0  0  0  0
  186.8910  177.8810  145.0000 C   0  0  0  0  0  0  0  0  0  0  0  0
  185.5320  177.9070  142.8720 C   0  0  2  0  0  3  0  0  0  0  0  0
  185.5630  176.5300  143.1090 O   0  0  0  0  0  1  0  0  0  0  0  0
  186.2790  178.3140  141.5890 C   0  0  0  0  0  2  0  0  0  0  0  0
  186.3120  177.3000  139.3680 C   0  0  0  0  0  2  0  0  0  0  0  0
  185.6010  177.8980  140.3180 C   0  0  0  0  0  0  0  0  0  0  0  0
  184.1580  178.1350  140.1390 C   0  0  0  0  0  0  0  0  0  0  0  0
  183.3630  177.1640  139.5420 O   0  0  0  0  0  0  0  0  0  0  0  0
  183.6300  179.2130  140.5240 O   0  0  0  0  0  1  0  0  0  0  0  0
  1 21  1  6  0  0  0
  1 19  1  0  0  0  0
  1 20  1  0  0  0  0
  2  7  1  0  0  0  0
  4 12  1  0  0  0  0
  5 18  1  0  0  0  0
  6  9  2  0  0  0  0
  7  5  1  0  0  0  0
  7  4  2  0  0  0  0
  9  4  1  0  0  0  0
 10 15  1  0  0  0  0
 10 14  1  0  0  0  0
 11 20  1  0  0  0  0
 11  5  2  0  0  0  0
 12  8  2  0  0  0  0
 13 15  2  0  0  0  0
 14  3  1  0  0  0  0
 16  6  1  0  0  0  0
 17  2  2  0  0  0  0
 17  6  1  0  0  0  0
 18 14  2  0  0  0  0
 18  8  1  0  0  0  0
 19 13  1  0  0  0  0
 20 10  2  0  0  0  0
 21 22  1  1  0  0  0
 23 21  1  0  0  0  0
 24 25  2  0  0  0  0
 25 23  1  0  0  0  0
 26 25  1  0  0  0  0
 26 28  1  0  0  0  0
 27 26  2  0  0  0  0
M  END
>  <MODEL>
8

>  <REMARK>
 VINA RESULT:      -7.4      1.403      2.073
  Name = 
  4 active torsions:
  status: ('A' for Active; 'I' for Inactive)
    1  A    between atoms: C_1  and  C_2
    2  A    between atoms: C_2  and  C_3
    3  A    between atoms: C_3  and  C_11
    4  A    between atoms: C_6  and  C_11
                            x       y       z     vdW  Elec       q    Type
                         _______ _______ _______ _____ _____    ______ ____

>  <TORSDO>
F 4

$$$$
=
 OpenBabel11052418103D

 28 31  0  0  1  0  0  0  0  0999 V2000
  188.8080  177.1490  143.6420 C   0  0  1  0  0  3  0  0  0  0  0  0
  193.7470  176.3440  142.3330 C   0  0  0  0  0  3  0  0  0  0  0  0
  191.1850  176.4370  148.0380 C   0  0  0  0  0  1  0  0  0  0  0  0
  194.8610  175.9750  144.4610 C   0  0  0  0  0  0  0  0  0  0  0  0
  192.4630  176.4470  144.4280 C   0  0  0  0  0  0  0  0  0  0  0  0
  196.1210  175.8740  142.3950 C   0  0  0  0  0  0  0  0  0  0  0  0
  193.6790  176.2580  143.7340 C   0  0  0  0  0  0  0  0  0  0  0  0
  193.6240  176.0680  146.5360 C   0  0  0  0  0  3  0  0  0  0  0  0
  196.0710  175.7850  143.7880 C   0  0  0  0  0  3  0  0  0  0  0  0
  190.0440  176.8280  145.8270 C   0  0  0  0  0  0  0  0  0  0  0  0
  191.2760  176.7230  143.7370 C   0  0  0  0  0  3  0  0  0  0  0  0
  194.8240  175.8820  145.8510 C   0  0  0  0  0  3  0  0  0  0  0  0
  187.6900  177.5100  145.8880 C   0  0  0  0  0  3  0  0  0  0  0  0
  191.2240  176.5380  146.5410 C   0  0  0  0  0  0  0  0  0  0  0  0
  188.7600  177.0370  146.5280 C   0  0  0  0  0  3  0  0  0  0  0  0
  197.6400  175.6360  141.5600 Cl  0  0  0  0  0  0  0  0  0  0  0  0
  194.9610  176.1530  141.6690 C   0  0  0  0  0  3  0  0  0  0  0  0
  192.4360  176.3500  145.8430 C   0  0  0  0  0  0  0  0  0  0  0  0
  187.7580  177.9320  144.4460 C   0  0  0  0  0  2  0  0  0  0  0  0
  190.0760  176.9140  144.4220 C   0  0  0  0  0  0  0  0  0  0  0  0
  188.2710  175.8630  143.0030 C   0  0  2  0  0  3  0  0  0  0  0  0
  186.8950  175.9610  142.7750 O   0  0  0  0  0  1  0  0  0  0  0  0
  188.6660  174.5760  143.7510 C   0  0  0  0  0  2  0  0  0  0  0  0
  189.8970  173.9570  141.7350 C   0  0  0  0  0  2  0  0  0  0  0  0
  189.4280  173.5870  142.9220 C   0  0  0  0  0  0  0  0  0  0  0  0
  189.6700  172.2260  143.4330 C   0  0  0  0  0  0  0  0  0  0  0  0
  189.6850  171.9900  144.8030 O   0  0  0  0  0  1  0  0  0  0  0  0
  189.8610  171.2650  142.6400 O   0  0  0  0  0  0  0  0  0  0  0  0
  1 21  1  1  0  0  0
  1 20  1  0  0  0  0
  1 19  1  0  0  0  0
  2  7  1  0  0  0  0
  4 12  1  0  0  0  0
  5 18  1  0  0  0  0
  6  9  2  0  0  0  0
  7  5  1  0  0  0  0
  7  4  2  0  0  0  0
  9  4  1  0  0  0  0
 10 15  1  0  0  0  0
 10 14  1  0  0  0  0
 11 20  1  0  0  0  0
 11  5  2  0  0  0  0
 12  8  2  0  0  0  0
 13 15  2  0  0  0  0
 14  3  1  0  0  0  0
 16  6  1  0  0  0  0
 17  2  2  0  0  0  0
 17  6  1  0  0  0  0
 18  8  1  0  0  0  0
 18 14  2  0  0  0  0
 19 13  1  0  0  0  0
 20 10  2  0  0  0  0
 21 22  1  1  0  0  0
 21 23  1  0  0  0  0
 24 25  2  0  0  0  0
 25 26  1  0  0  0  0
 25 23  1  0  0  0  0
 26 27  1  0  0  0  0
 28 26  2  0  0  0  0
M  END
>  <MODEL>
9

>  <REMARK>
 VINA RESULT:      -7.4      2.332      4.024
  Name = 
  4 active torsions:
  status: ('A' for Active; 'I' for Inactive)
    1  A    between atoms: C_1  and  C_2
    2  A    between atoms: C_2  and  C_3
    3  A    between atoms: C_3  and  C_11
    4  A    between atoms: C_6  and  C_11
                            x       y       z     vdW  Elec       q    Type
                         _______ _______ _______ _____ _____    ______ ____

>  <TORSDO>
F 4

$$$$
