=
 OpenBabel11052420393D

 34 37  0  0  1  0  0  0  0  0999 V2000
  188.1070  177.0810  144.6560 C   0  0  2  0  0  3  0  0  0  0  0  0
  187.5820  173.0860  141.3940 C   0  0  0  0  0  1  0  0  0  0  0  0
  187.2250  175.6100  142.7530 C   0  0  0  0  0  2  0  0  0  0  0  0
  189.8980  177.9450  143.1580 C   0  0  0  0  0  2  0  0  0  0  0  0
  188.8970  177.9810  141.9970 C   0  0  0  0  0  2  0  0  0  0  0  0
  187.1910  176.9970  143.4250 C   0  0  2  0  0  3  0  0  0  0  0  0
  189.5390  176.8380  144.1540 C   0  0  2  0  0  3  0  0  0  0  0  0
  187.5120  178.0800  142.4790 N   0  0  0  0  0  2  0  0  0  0  0  0
  188.7500  173.6870  142.1180 C   0  0  0  0  0  0  0  0  0  0  0  0
  190.0050  173.0220  142.1700 C   0  0  0  0  0  0  0  0  0  0  0  0
  191.0520  173.6030  142.8950 C   0  0  0  0  0  3  0  0  0  0  0  0
  188.5820  174.9270  142.7730 C   0  0  0  0  0  0  0  0  0  0  0  0
  190.8860  174.8200  143.5490 C   0  0  0  0  0  3  0  0  0  0  0  0
  189.6600  175.4850  143.4990 C   0  0  0  0  0  0  0  0  0  0  0  0
  188.8850  175.9230  146.6240 C   0  0  1  0  0  3  0  0  0  0  0  0
  188.2590  178.1710  147.5500 O   0  0  0  0  0  0  0  0  0  0  0  0
  186.6020  176.6270  146.5750 C   0  0  2  0  0  3  0  0  0  0  0  0
  187.7220  176.1390  145.7380 N   0  0  1  0  0  0  0  0  0  0  0  0
  185.3390  176.6400  145.8510 N   0  0  0  0  0  1  0  0  0  0  0  0
  186.0780  178.8640  147.3060 O   0  0  0  0  0  0  0  0  0  0  0  0
  189.2170  177.1070  147.5720 C   0  0  2  0  0  3  0  0  0  0  0  0
  186.9380  177.9540  147.1720 C   0  0  0  0  0  0  0  0  0  0  0  0
  188.7040  174.7590  147.3720 O   0  0  0  0  0  1  0  0  0  0  0  0
  190.4970  177.6160  147.2910 O   0  0  0  0  0  0  0  0  0  0  0  0
  191.4100  177.1040  148.2410 C   0  0  2  0  0  3  0  0  0  0  0  0
  191.4830  177.9810  149.4840 C   0  0  0  0  0  1  0  0  0  0  0  0
  192.7110  176.9030  147.6870 O   0  0  0  0  0  0  0  0  0  0  0  0
  192.9240  176.1020  146.5640 C   0  0  0  0  0  0  0  0  0  0  0  0
  192.6310  174.8750  146.5840 O   0  0  0  0  0  0  0  0  0  0  0  0
  193.4870  176.7140  145.3570 C   0  0  0  0  0  3  0  0  0  0  0  0
  194.2040  176.0220  144.5310 N   0  0  0  0  0  2  0  0  0  0  0  0
  190.2830  171.7370  141.4800 C   0  0  0  0  0  0  0  0  0  0  0  0
  190.5340  171.6960  140.2480 O   0  0  0  0  0  0  0  0  0  0  0  0
  190.3000  170.5490  142.2060 O   0  0  0  0  0  1  0  0  0  0  0  0
  1 18  1  1  0  0  0
  2  9  1  0  0  0  0
  3 12  1  0  0  0  0
  5  8  1  0  0  0  0
  5  4  1  0  0  0  0
  6  3  1  6  0  0  0
  6  1  1  0  0  0  0
  7  4  1  6  0  0  0
  7  1  1  0  0  0  0
  8  6  1  0  0  0  0
  9 10  2  0  0  0  0
  9 12  1  0  0  0  0
 10 11  1  0  0  0  0
 11 13  2  0  0  0  0
 12 14  2  0  0  0  0
 14 13  1  0  0  0  0
 14  7  1  0  0  0  0
 15 23  1  1  0  0  0
 15 21  1  0  0  0  0
 16 21  1  0  0  0  0
 17 19  1  6  0  0  0
 17 22  1  0  0  0  0
 18 17  1  0  0  0  0
 18 15  1  0  0  0  0
 22 20  2  0  0  0  0
 22 16  1  0  0  0  0
 24 21  1  0  0  0  0
 24 25  1  0  0  0  0
 25 26  1  0  0  0  0
 27 25  1  0  0  0  0
 28 29  2  0  0  0  0
 28 27  1  0  0  0  0
 30 28  1  0  0  0  0
 31 30  2  0  0  0  0
 32 10  1  0  0  0  0
 32 34  1  0  0  0  0
 33 32  2  0  0  0  0
M  END
>  <MODEL>
1

>  <REMARK>
 VINA RESULT:      -6.9      0.000      0.000
  Name = 
  7 active torsions:
  status: ('A' for Active; 'I' for Inactive)
    1  A    between atoms: C_1  and  N_9
    2  A    between atoms: C_3  and  C_25
    3  A    between atoms: C_7  and  O_16
    4  A    between atoms: C_7  and  O_21
    5  A    between atoms: C_11  and  O_21
    6  A    between atoms: C_11  and  C_26
    7  A    between atoms: O_16  and  C_28
                            x       y       z     vdW  Elec       q    Type
                         _______ _______ _______ _____ _____    ______ ____

>  <TORSDO>
F 7

$$$$
=
 OpenBabel11052420393D

 34 37  0  0  1  0  0  0  0  0999 V2000
  190.4110  174.8150  143.5830 C   0  0  2  0  0  3  0  0  0  0  0  0
  186.6600  177.4930  145.9570 C   0  0  0  0  0  1  0  0  0  0  0  0
  189.0610  175.9780  145.4240 C   0  0  0  0  0  2  0  0  0  0  0  0
  191.4440  176.9950  142.9650 C   0  0  0  0  0  2  0  0  0  0  0  0
  191.5350  177.3620  144.4510 C   0  0  0  0  0  2  0  0  0  0  0  0
  190.3920  175.2990  145.0420 C   0  0  2  0  0  3  0  0  0  0  0  0
  190.2540  176.0670  142.7050 C   0  0  2  0  0  3  0  0  0  0  0  0
  191.5520  176.1660  145.3060 N   0  0  0  0  0  2  0  0  0  0  0  0
  187.2420  177.5260  144.5760 C   0  0  0  0  0  0  0  0  0  0  0  0
  186.6160  178.2580  143.5300 C   0  0  0  0  0  0  0  0  0  0  0  0
  187.1750  178.2220  142.2470 C   0  0  0  0  0  3  0  0  0  0  0  0
  188.4220  176.7960  144.3150 C   0  0  0  0  0  0  0  0  0  0  0  0
  188.3320  177.4960  141.9860 C   0  0  0  0  0  3  0  0  0  0  0  0
  188.9590  176.7790  143.0060 C   0  0  0  0  0  0  0  0  0  0  0  0
  189.2490  173.6380  141.8270 C   0  0  1  0  0  3  0  0  0  0  0  0
  191.3630  172.3010  142.0480 O   0  0  0  0  0  0  0  0  0  0  0  0
  189.6940  172.4570  143.8570 C   0  0  2  0  0  3  0  0  0  0  0  0
  189.3780  173.7880  143.2920 N   0  0  1  0  0  0  0  0  0  0  0  0
  189.6020  172.4380  145.3090 N   0  0  0  0  0  1  0  0  0  0  0  0
  191.8180  171.3390  144.0890 O   0  0  0  0  0  0  0  0  0  0  0  0
  190.4140  172.8730  141.1420 C   0  0  2  0  0  3  0  0  0  0  0  0
  191.0190  171.9810  143.3570 C   0  0  0  0  0  0  0  0  0  0  0  0
  188.0360  173.0240  141.5170 O   0  0  0  0  0  1  0  0  0  0  0  0
  191.0770  173.7090  140.2260 O   0  0  0  0  0  0  0  0  0  0  0  0
  191.1720  173.0400  138.9840 C   0  0  2  0  0  3  0  0  0  0  0  0
  192.5440  172.4110  138.7840 C   0  0  0  0  0  1  0  0  0  0  0  0
  190.8410  173.8900  137.8860 O   0  0  0  0  0  0  0  0  0  0  0  0
  189.6370  173.7700  137.1900 C   0  0  0  0  0  0  0  0  0  0  0  0
  189.6230  173.7300  135.9290 O   0  0  0  0  0  0  0  0  0  0  0  0
  188.3870  173.6820  137.9510 C   0  0  0  0  0  3  0  0  0  0  0  0
  187.9070  174.7140  138.5680 N   0  0  0  0  0  2  0  0  0  0  0  0
  185.3970  179.0830  143.7210 C   0  0  0  0  0  0  0  0  0  0  0  0
  185.4710  180.2920  144.0620 O   0  0  0  0  0  1  0  0  0  0  0  0
  184.1400  178.5280  143.4930 O   0  0  0  0  0  0  0  0  0  0  0  0
  1 18  1  1  0  0  0
  1  6  1  0  0  0  0
  4  5  1  0  0  0  0
  5  8  1  0  0  0  0
  6  8  1  0  0  0  0
  6  3  1  6  0  0  0
  7  4  1  1  0  0  0
  7 14  1  0  0  0  0
  7  1  1  0  0  0  0
  9  2  1  0  0  0  0
 10 32  1  0  0  0  0
 10  9  2  0  0  0  0
 11 10  1  0  0  0  0
 12  9  1  0  0  0  0
 12  3  1  0  0  0  0
 13 11  2  0  0  0  0
 13 14  1  0  0  0  0
 14 12  2  0  0  0  0
 15 23  1  1  0  0  0
 15 18  1  0  0  0  0
 16 22  1  0  0  0  0
 17 19  1  1  0  0  0
 18 17  1  0  0  0  0
 21 15  1  0  0  0  0
 21 16  1  0  0  0  0
 22 17  1  0  0  0  0
 22 20  2  0  0  0  0
 24 21  1  0  0  0  0
 25 24  1  0  0  0  0
 26 25  1  0  0  0  0
 27 25  1  0  0  0  0
 28 27  1  0  0  0  0
 28 30  1  0  0  0  0
 29 28  2  0  0  0  0
 30 31  2  0  0  0  0
 32 33  1  0  0  0  0
 34 32  2  0  0  0  0
M  END
>  <MODEL>
2

>  <REMARK>
 VINA RESULT:      -6.8      3.195      7.322
  Name = 
  7 active torsions:
  status: ('A' for Active; 'I' for Inactive)
    1  A    between atoms: C_1  and  N_9
    2  A    between atoms: C_3  and  C_25
    3  A    between atoms: C_7  and  O_16
    4  A    between atoms: C_7  and  O_21
    5  A    between atoms: C_11  and  O_21
    6  A    between atoms: C_11  and  C_26
    7  A    between atoms: O_16  and  C_28
                            x       y       z     vdW  Elec       q    Type
                         _______ _______ _______ _____ _____    ______ ____

>  <TORSDO>
F 7

$$$$
=
 OpenBabel11052420393D

 34 37  0  0  1  0  0  0  0  0999 V2000
  191.6950  174.2320  143.8410 C   0  0  2  0  0  3  0  0  0  0  0  0
  187.8110  177.6420  144.2420 C   0  0  0  0  0  1  0  0  0  0  0  0
  189.8020  175.8310  143.1920 C   0  0  0  0  0  2  0  0  0  0  0  0
  190.0290  172.4290  144.2590 C   0  0  0  0  0  2  0  0  0  0  0  0
  189.2350  172.8920  143.0310 C   0  0  0  0  0  2  0  0  0  0  0  0
  190.7820  174.7410  142.7140 C   0  0  2  0  0  3  0  0  0  0  0  0
  190.7750  173.6040  144.8990 C   0  0  2  0  0  3  0  0  0  0  0  0
  190.0860  173.6120  142.0740 N   0  0  0  0  0  2  0  0  0  0  0  0
  188.3130  176.5340  145.1190 C   0  0  0  0  0  0  0  0  0  0  0  0
  187.8510  176.3860  146.4550 C   0  0  0  0  0  0  0  0  0  0  0  0
  188.3820  175.3620  147.2480 C   0  0  0  0  0  3  0  0  0  0  0  0
  189.2770  175.6400  144.6050 C   0  0  0  0  0  0  0  0  0  0  0  0
  189.3390  174.4860  146.7460 C   0  0  0  0  0  3  0  0  0  0  0  0
  189.7950  174.6180  145.4340 C   0  0  0  0  0  0  0  0  0  0  0  0
  193.1960  174.7800  145.6480 C   0  0  1  0  0  3  0  0  0  0  0  0
  194.7080  173.5550  144.0620 O   0  0  0  0  0  0  0  0  0  0  0  0
  193.6550  175.7120  143.4950 C   0  0  2  0  0  3  0  0  0  0  0  0
  192.5700  175.2890  144.4090 N   0  0  1  0  0  0  0  0  0  0  0  0
  193.1530  176.4530  142.3480 N   0  0  0  0  0  1  0  0  0  0  0  0
  194.9630  174.4120  141.9410 O   0  0  0  0  0  0  0  0  0  0  0  0
  194.3350  173.7480  145.4300 C   0  0  2  0  0  3  0  0  0  0  0  0
  194.4910  174.5380  143.1020 C   0  0  0  0  0  0  0  0  0  0  0  0
  193.6670  175.8450  146.4150 O   0  0  0  0  0  1  0  0  0  0  0  0
  193.9940  172.5120  146.0080 O   0  0  0  0  0  0  0  0  0  0  0  0
  194.4810  171.4730  145.1830 C   0  0  2  0  0  3  0  0  0  0  0  0
  193.3550  170.7610  144.4460 C   0  0  0  0  0  1  0  0  0  0  0  0
  195.2820  170.5390  145.9070 O   0  0  0  0  0  0  0  0  0  0  0  0
  196.6770  170.5580  145.8540 C   0  0  0  0  0  0  0  0  0  0  0  0
  197.2930  171.6010  145.5000 O   0  0  0  0  0  0  0  0  0  0  0  0
  197.4150  169.3470  146.2250 C   0  0  0  0  0  3  0  0  0  0  0  0
  197.2030  168.7570  147.3570 N   0  0  0  0  0  2  0  0  0  0  0  0
  186.8130  177.2540  147.0660 C   0  0  0  0  0  0  0  0  0  0  0  0
  187.1210  178.2980  147.6990 O   0  0  0  0  0  1  0  0  0  0  0  0
  185.4650  176.9360  146.9190 O   0  0  0  0  0  0  0  0  0  0  0  0
  1 18  1  1  0  0  0
  1  7  1  0  0  0  0
  2  9  1  0  0  0  0
  3 12  1  0  0  0  0
  5  4  1  0  0  0  0
  6  3  1  1  0  0  0
  6  1  1  0  0  0  0
  7  4  1  6  0  0  0
  7 14  1  0  0  0  0
  8  6  1  0  0  0  0
  8  5  1  0  0  0  0
  9 10  1  0  0  0  0
 10 32  1  0  0  0  0
 10 11  2  0  0  0  0
 12  9  2  0  0  0  0
 12 14  1  0  0  0  0
 13 11  1  0  0  0  0
 14 13  2  0  0  0  0
 15 23  1  6  0  0  0
 16 21  1  0  0  0  0
 17 19  1  6  0  0  0
 17 18  1  0  0  0  0
 18 15  1  0  0  0  0
 20 22  2  0  0  0  0
 21 15  1  0  0  0  0
 21 24  1  0  0  0  0
 22 17  1  0  0  0  0
 22 16  1  0  0  0  0
 25 27  1  0  0  0  0
 25 24  1  0  0  0  0
 26 25  1  0  0  0  0
 28 27  1  0  0  0  0
 28 30  1  0  0  0  0
 29 28  2  0  0  0  0
 30 31  2  0  0  0  0
 32 33  1  0  0  0  0
 34 32  2  0  0  0  0
M  END
>  <MODEL>
3

>  <REMARK>
 VINA RESULT:      -6.8      3.503      6.697
  Name = 
  7 active torsions:
  status: ('A' for Active; 'I' for Inactive)
    1  A    between atoms: C_1  and  N_9
    2  A    between atoms: C_3  and  C_25
    3  A    between atoms: C_7  and  O_16
    4  A    between atoms: C_7  and  O_21
    5  A    between atoms: C_11  and  O_21
    6  A    between atoms: C_11  and  C_26
    7  A    between atoms: O_16  and  C_28
                            x       y       z     vdW  Elec       q    Type
                         _______ _______ _______ _____ _____    ______ ____

>  <TORSDO>
F 7

$$$$
=
 OpenBabel11052420393D

 34 37  0  0  1  0  0  0  0  0999 V2000
  190.6650  175.4270  144.3160 C   0  0  2  0  0  3  0  0  0  0  0  0
  195.6570  174.9310  145.6220 C   0  0  0  0  0  1  0  0  0  0  0  0
  192.7830  174.6560  145.5330 C   0  0  0  0  0  2  0  0  0  0  0  0
  191.0560  173.7150  142.5510 C   0  0  0  0  0  2  0  0  0  0  0  0
  191.5110  172.7220  143.6280 C   0  0  0  0  0  2  0  0  0  0  0  0
  191.2700  174.4430  145.3300 C   0  0  2  0  0  3  0  0  0  0  0  0
  191.3620  175.1550  142.9730 C   0  0  2  0  0  3  0  0  0  0  0  0
  190.9510  173.0580  144.9450 N   0  0  0  0  0  2  0  0  0  0  0  0
  194.9460  175.2080  144.3320 C   0  0  0  0  0  0  0  0  0  0  0  0
  195.6560  175.6300  143.1750 C   0  0  0  0  0  0  0  0  0  0  0  0
  194.9420  175.9170  142.0060 C   0  0  0  0  0  3  0  0  0  0  0  0
  193.5420  175.0620  144.2810 C   0  0  0  0  0  0  0  0  0  0  0  0
  193.5580  175.7840  141.9570 C   0  0  0  0  0  3  0  0  0  0  0  0
  192.8510  175.3640  143.0840 C   0  0  0  0  0  0  0  0  0  0  0  0
  190.4800  177.7170  143.5780 C   0  0  1  0  0  3  0  0  0  0  0  0
  188.0950  177.1420  144.1140 O   0  0  0  0  0  0  0  0  0  0  0  0
  189.8620  177.2180  145.8330 C   0  0  2  0  0  3  0  0  0  0  0  0
  190.7830  176.8470  144.7350 N   0  0  1  0  0  0  0  0  0  0  0  0
  190.2310  176.5960  147.0960 N   0  0  0  0  0  1  0  0  0  0  0  0
  187.6030  176.4940  146.2670 O   0  0  0  0  0  0  0  0  0  0  0  0
  188.9770  177.8010  143.1980 C   0  0  2  0  0  3  0  0  0  0  0  0
  188.4480  176.9340  145.4430 C   0  0  0  0  0  0  0  0  0  0  0  0
  190.9810  178.9990  143.8030 O   0  0  0  0  0  1  0  0  0  0  0  0
  188.7710  177.3020  141.9000 O   0  0  0  0  0  0  0  0  0  0  0  0
  187.5780  176.5440  141.8860 C   0  0  2  0  0  3  0  0  0  0  0  0
  187.8560  175.0570  141.7160 C   0  0  0  0  0  1  0  0  0  0  0  0
  186.6580  177.0030  140.8950 O   0  0  0  0  0  0  0  0  0  0  0  0
  185.5980  177.8570  141.2050 C   0  0  0  0  0  0  0  0  0  0  0  0
  185.0450  178.5490  140.3060 O   0  0  0  0  0  0  0  0  0  0  0  0
  185.1320  177.9300  142.5930 C   0  0  0  0  0  3  0  0  0  0  0  0
  185.2440  179.0220  143.2780 N   0  0  0  0  0  2  0  0  0  0  0  0
  197.1340  175.7730  143.1250 C   0  0  0  0  0  0  0  0  0  0  0  0
  197.6850  176.9010  143.2090 O   0  0  0  0  0  1  0  0  0  0  0  0
  197.9380  174.6420  143.0120 O   0  0  0  0  0  0  0  0  0  0  0  0
  1 18  1  1  0  0  0
  1  6  1  0  0  0  0
  4  5  1  0  0  0  0
  5  8  1  0  0  0  0
  6  3  1  6  0  0  0
  7  4  1  1  0  0  0
  7 14  1  0  0  0  0
  7  1  1  0  0  0  0
  8  6  1  0  0  0  0
  9  2  1  0  0  0  0
 10  9  2  0  0  0  0
 11 10  1  0  0  0  0
 12  9  1  0  0  0  0
 12  3  1  0  0  0  0
 13 11  2  0  0  0  0
 13 14  1  0  0  0  0
 14 12  2  0  0  0  0
 15 23  1  1  0  0  0
 15 18  1  0  0  0  0
 16 22  1  0  0  0  0
 17 19  1  1  0  0  0
 18 17  1  0  0  0  0
 21 15  1  0  0  0  0
 21 16  1  0  0  0  0
 22 17  1  0  0  0  0
 22 20  2  0  0  0  0
 24 21  1  0  0  0  0
 25 24  1  0  0  0  0
 26 25  1  0  0  0  0
 27 28  1  0  0  0  0
 27 25  1  0  0  0  0
 28 30  1  0  0  0  0
 29 28  2  0  0  0  0
 30 31  2  0  0  0  0
 32 10  1  0  0  0  0
 32 33  1  0  0  0  0
 34 32  2  0  0  0  0
M  END
>  <MODEL>
4

>  <REMARK>
 VINA RESULT:      -6.6      3.405      6.457
  Name = 
  7 active torsions:
  status: ('A' for Active; 'I' for Inactive)
    1  A    between atoms: C_1  and  N_9
    2  A    between atoms: C_3  and  C_25
    3  A    between atoms: C_7  and  O_16
    4  A    between atoms: C_7  and  O_21
    5  A    between atoms: C_11  and  O_21
    6  A    between atoms: C_11  and  C_26
    7  A    between atoms: O_16  and  C_28
                            x       y       z     vdW  Elec       q    Type
                         _______ _______ _______ _____ _____    ______ ____

>  <TORSDO>
F 7

$$$$
=
 OpenBabel11052420393D

 34 37  0  0  1  0  0  0  0  0999 V2000
  190.2090  174.7910  143.5950 C   0  0  2  0  0  3  0  0  0  0  0  0
  186.8440  177.6940  146.2630 C   0  0  0  0  0  1  0  0  0  0  0  0
  189.1200  176.0770  145.5250 C   0  0  0  0  0  2  0  0  0  0  0  0
  191.2240  176.9050  142.7590 C   0  0  0  0  0  2  0  0  0  0  0  0
  191.5010  177.3330  144.2060 C   0  0  0  0  0  2  0  0  0  0  0  0
  190.3760  175.3370  145.0220 C   0  0  2  0  0  3  0  0  0  0  0  0
  189.9850  176.0080  142.6840 C   0  0  2  0  0  3  0  0  0  0  0  0
  191.5840  176.1750  145.1070 N   0  0  0  0  0  2  0  0  0  0  0  0
  187.2590  177.6480  144.8240 C   0  0  0  0  0  0  0  0  0  0  0  0
  186.5360  178.3550  143.8260 C   0  0  0  0  0  0  0  0  0  0  0  0
  186.9370  178.2460  142.4890 C   0  0  0  0  0  3  0  0  0  0  0  0
  188.3790  176.8670  144.4610 C   0  0  0  0  0  0  0  0  0  0  0  0
  188.0340  177.4700  142.1280 C   0  0  0  0  0  3  0  0  0  0  0  0
  188.7560  176.7760  143.1000 C   0  0  0  0  0  0  0  0  0  0  0  0
  188.7370  173.6630  142.0530 C   0  0  1  0  0  3  0  0  0  0  0  0
  190.8270  172.2820  141.8890 O   0  0  0  0  0  0  0  0  0  0  0  0
  189.5000  172.4420  143.9610 C   0  0  2  0  0  3  0  0  0  0  0  0
  189.1200  173.7880  143.4750 N   0  0  1  0  0  0  0  0  0  0  0  0
  189.6600  172.4030  145.4070 N   0  0  0  0  0  1  0  0  0  0  0  0
  191.6070  171.2810  143.8090 O   0  0  0  0  0  0  0  0  0  0  0  0
  189.7490  172.8860  141.1670 C   0  0  2  0  0  3  0  0  0  0  0  0
  190.7080  171.9490  143.2340 C   0  0  0  0  0  0  0  0  0  0  0  0
  187.4750  173.0760  141.9490 O   0  0  0  0  0  1  0  0  0  0  0  0
  190.2610  173.7230  140.1600 O   0  0  0  0  0  0  0  0  0  0  0  0
  189.7540  173.2980  138.9110 C   0  0  2  0  0  3  0  0  0  0  0  0
  188.5580  174.1330  138.4730 C   0  0  0  0  0  1  0  0  0  0  0  0
  189.4290  171.9080  138.9050 O   0  0  0  0  0  0  0  0  0  0  0  0
  190.1410  170.9820  138.1420 C   0  0  0  0  0  0  0  0  0  0  0  0
  189.6760  169.8270  137.9310 O   0  0  0  0  0  0  0  0  0  0  0  0
  191.4360  171.3760  137.5800 C   0  0  0  0  0  3  0  0  0  0  0  0
  192.5430  171.0710  138.1770 N   0  0  0  0  0  2  0  0  0  0  0  0
  185.3710  179.2290  144.1190 C   0  0  0  0  0  0  0  0  0  0  0  0
  185.5040  180.4730  144.2540 O   0  0  0  0  0  1  0  0  0  0  0  0
  184.0970  178.6780  144.2190 O   0  0  0  0  0  0  0  0  0  0  0  0
  1 18  1  1  0  0  0
  1  6  1  0  0  0  0
  4  5  1  0  0  0  0
  5  8  1  0  0  0  0
  6  8  1  0  0  0  0
  6  3  1  6  0  0  0
  7  4  1  1  0  0  0
  7 14  1  0  0  0  0
  7  1  1  0  0  0  0
  9  2  1  0  0  0  0
 10 32  1  0  0  0  0
 10  9  2  0  0  0  0
 11 10  1  0  0  0  0
 12  9  1  0  0  0  0
 12  3  1  0  0  0  0
 13 11  2  0  0  0  0
 13 14  1  0  0  0  0
 14 12  2  0  0  0  0
 15 23  1  1  0  0  0
 15 18  1  0  0  0  0
 16 22  1  0  0  0  0
 17 19  1  1  0  0  0
 18 17  1  0  0  0  0
 21 16  1  0  0  0  0
 21 15  1  0  0  0  0
 22 20  2  0  0  0  0
 22 17  1  0  0  0  0
 24 21  1  0  0  0  0
 25 24  1  0  0  0  0
 26 25  1  0  0  0  0
 27 25  1  0  0  0  0
 28 27  1  0  0  0  0
 29 28  2  0  0  0  0
 30 28  1  0  0  0  0
 30 31  2  0  0  0  0
 32 34  2  0  0  0  0
 32 33  1  0  0  0  0
M  END
>  <MODEL>
5

>  <REMARK>
 VINA RESULT:      -6.6      3.171      7.315
  Name = 
  7 active torsions:
  status: ('A' for Active; 'I' for Inactive)
    1  A    between atoms: C_1  and  N_9
    2  A    between atoms: C_3  and  C_25
    3  A    between atoms: C_7  and  O_16
    4  A    between atoms: C_7  and  O_21
    5  A    between atoms: C_11  and  O_21
    6  A    between atoms: C_11  and  C_26
    7  A    between atoms: O_16  and  C_28
                            x       y       z     vdW  Elec       q    Type
                         _______ _______ _______ _____ _____    ______ ____

>  <TORSDO>
F 7

$$$$
=
 OpenBabel11052420393D

 34 37  0  0  1  0  0  0  0  0999 V2000
  190.9290  174.5350  144.5170 C   0  0  2  0  0  3  0  0  0  0  0  0
  192.0380  173.3800  139.5870 C   0  0  0  0  0  1  0  0  0  0  0  0
  192.1930  173.6940  142.4540 C   0  0  0  0  0  2  0  0  0  0  0  0
  189.7040  172.3710  144.6480 C   0  0  0  0  0  2  0  0  0  0  0  0
  190.9910  171.6300  144.2650 C   0  0  0  0  0  2  0  0  0  0  0  0
  192.1450  173.7540  143.9940 C   0  0  2  0  0  3  0  0  0  0  0  0
  189.6820  173.7750  144.0380 C   0  0  2  0  0  3  0  0  0  0  0  0
  192.1880  172.4130  144.6020 N   0  0  0  0  0  2  0  0  0  0  0  0
  190.7640  173.4430  140.3750 C   0  0  0  0  0  0  0  0  0  0  0  0
  189.4970  173.3840  139.7340 C   0  0  0  0  0  0  0  0  0  0  0  0
  188.3370  173.4910  140.5100 C   0  0  0  0  0  3  0  0  0  0  0  0
  190.8370  173.5850  141.7780 C   0  0  0  0  0  0  0  0  0  0  0  0
  188.4070  173.6390  141.8910 C   0  0  0  0  0  3  0  0  0  0  0  0
  189.6450  173.6920  142.5320 C   0  0  0  0  0  0  0  0  0  0  0  0
  189.5840  176.5310  144.3640 C   0  0  1  0  0  3  0  0  0  0  0  0
  190.4020  176.6290  146.7360 O   0  0  0  0  0  0  0  0  0  0  0  0
  191.9200  176.7910  144.8000 C   0  0  2  0  0  3  0  0  0  0  0  0
  190.9200  175.9580  144.0940 N   0  0  1  0  0  0  0  0  0  0  0  0
  193.2840  176.4650  144.4070 N   0  0  0  0  0  1  0  0  0  0  0  0
  192.6760  176.6940  147.0880 O   0  0  0  0  0  0  0  0  0  0  0  0
  189.2860  176.8220  145.8600 C   0  0  2  0  0  3  0  0  0  0  0  0
  191.7120  176.7130  146.2770 C   0  0  0  0  0  0  0  0  0  0  0  0
  189.4050  177.6950  143.6150 O   0  0  0  0  0  1  0  0  0  0  0  0
  188.1970  176.0490  146.3010 O   0  0  0  0  0  0  0  0  0  0  0  0
  187.0320  176.8490  146.2790 C   0  0  2  0  0  3  0  0  0  0  0  0
  186.3150  176.8420  147.6220 C   0  0  0  0  0  1  0  0  0  0  0  0
  186.1400  176.4750  145.2280 O   0  0  0  0  0  0  0  0  0  0  0  0
  185.9000  177.3000  144.1290 C   0  0  0  0  0  0  0  0  0  0  0  0
  185.5670  176.8080  143.0150 O   0  0  0  0  0  0  0  0  0  0  0  0
  186.0330  178.7510  144.2910 C   0  0  0  0  0  3  0  0  0  0  0  0
  184.9950  179.5230  144.2660 N   0  0  0  0  0  2  0  0  0  0  0  0
  189.3250  173.1990  138.2710 C   0  0  0  0  0  0  0  0  0  0  0  0
  189.2060  174.1830  137.4950 O   0  0  0  0  0  0  0  0  0  0  0  0
  189.3230  171.9160  137.7280 O   0  0  0  0  0  1  0  0  0  0  0  0
  1 18  1  6  0  0  0
  2  9  1  0  0  0  0
  5  8  1  0  0  0  0
  5  4  1  0  0  0  0
  6  3  1  6  0  0  0
  6  1  1  0  0  0  0
  6  8  1  0  0  0  0
  7  1  1  0  0  0  0
  7  4  1  1  0  0  0
  9 12  1  0  0  0  0
 10  9  2  0  0  0  0
 10 11  1  0  0  0  0
 11 13  2  0  0  0  0
 12  3  1  0  0  0  0
 12 14  2  0  0  0  0
 13 14  1  0  0  0  0
 14  7  1  0  0  0  0
 15 23  1  6  0  0  0
 15 21  1  0  0  0  0
 17 19  1  1  0  0  0
 17 22  1  0  0  0  0
 18 15  1  0  0  0  0
 18 17  1  0  0  0  0
 21 24  1  0  0  0  0
 21 16  1  0  0  0  0
 22 16  1  0  0  0  0
 22 20  2  0  0  0  0
 25 24  1  0  0  0  0
 25 26  1  0  0  0  0
 27 25  1  0  0  0  0
 28 30  1  0  0  0  0
 28 27  1  0  0  0  0
 29 28  2  0  0  0  0
 31 30  2  0  0  0  0
 32 10  1  0  0  0  0
 33 32  2  0  0  0  0
 34 32  1  0  0  0  0
M  END
>  <MODEL>
6

>  <REMARK>
 VINA RESULT:      -6.5      2.346      5.341
  Name = 
  7 active torsions:
  status: ('A' for Active; 'I' for Inactive)
    1  A    between atoms: C_1  and  N_9
    2  A    between atoms: C_3  and  C_25
    3  A    between atoms: C_7  and  O_16
    4  A    between atoms: C_7  and  O_21
    5  A    between atoms: C_11  and  O_21
    6  A    between atoms: C_11  and  C_26
    7  A    between atoms: O_16  and  C_28
                            x       y       z     vdW  Elec       q    Type
                         _______ _______ _______ _____ _____    ______ ____

>  <TORSDO>
F 7

$$$$
=
 OpenBabel11052420393D

 34 37  0  0  1  0  0  0  0  0999 V2000
  190.8260  174.6970  144.6470 C   0  0  2  0  0  3  0  0  0  0  0  0
  195.9950  174.5890  145.0260 C   0  0  0  0  0  1  0  0  0  0  0  0
  193.1900  173.9620  145.3080 C   0  0  0  0  0  2  0  0  0  0  0  0
  191.0550  173.4850  142.4840 C   0  0  0  0  0  2  0  0  0  0  0  0
  191.7850  172.3480  143.2090 C   0  0  0  0  0  2  0  0  0  0  0  0
  191.6910  173.6020  145.2910 C   0  0  2  0  0  3  0  0  0  0  0  0
  191.2960  174.8230  143.1890 C   0  0  2  0  0  3  0  0  0  0  0  0
  191.4400  172.3060  144.6380 N   0  0  0  0  0  2  0  0  0  0  0  0
  195.0440  175.0480  143.9630 C   0  0  0  0  0  0  0  0  0  0  0  0
  195.4950  175.8050  142.8480 C   0  0  0  0  0  0  0  0  0  0  0  0
  194.5600  176.2470  141.9030 C   0  0  0  0  0  3  0  0  0  0  0  0
  193.6730  174.7330  144.0920 C   0  0  0  0  0  0  0  0  0  0  0  0
  193.2080  175.9460  142.0340 C   0  0  0  0  0  3  0  0  0  0  0  0
  192.7550  175.1970  143.1200 C   0  0  0  0  0  0  0  0  0  0  0  0
  190.0190  176.9700  144.6790 C   0  0  1  0  0  3  0  0  0  0  0  0
  188.1590  175.7350  145.8280 O   0  0  0  0  0  0  0  0  0  0  0  0
  190.4290  175.9020  146.7780 C   0  0  2  0  0  3  0  0  0  0  0  0
  190.8840  175.9920  145.3720 N   0  0  1  0  0  0  0  0  0  0  0  0
  191.3590  175.1550  147.6120 N   0  0  0  0  0  1  0  0  0  0  0  0
  188.6660  174.5760  147.7510 O   0  0  0  0  0  0  0  0  0  0  0  0
  188.4950  176.7560  144.8820 C   0  0  2  0  0  3  0  0  0  0  0  0
  189.0370  175.3630  146.8400 C   0  0  0  0  0  0  0  0  0  0  0  0
  190.3660  178.2660  145.0590 O   0  0  0  0  0  1  0  0  0  0  0  0
  187.8690  176.4870  143.6520 O   0  0  0  0  0  0  0  0  0  0  0  0
  187.0060  177.5610  143.3350 C   0  0  2  0  0  3  0  0  0  0  0  0
  187.4490  178.2890  142.0730 C   0  0  0  0  0  1  0  0  0  0  0  0
  186.8600  178.4760  144.4210 O   0  0  0  0  0  0  0  0  0  0  0  0
  185.6350  179.0670  144.7350 C   0  0  0  0  0  0  0  0  0  0  0  0
  185.2610  180.1220  144.1520 O   0  0  0  0  0  0  0  0  0  0  0  0
  184.7850  178.4350  145.7480 C   0  0  0  0  0  3  0  0  0  0  0  0
  185.0030  177.2210  146.1400 N   0  0  0  0  0  2  0  0  0  0  0  0
  196.9190  176.1500  142.6110 C   0  0  0  0  0  0  0  0  0  0  0  0
  197.4430  177.1660  143.1380 O   0  0  0  0  0  1  0  0  0  0  0  0
  197.7110  175.3250  141.8160 O   0  0  0  0  0  0  0  0  0  0  0  0
  1  6  1  0  0  0  0
  1 18  1  1  0  0  0
  4  5  1  0  0  0  0
  5  8  1  0  0  0  0
  6  3  1  6  0  0  0
  7  4  1  6  0  0  0
  7  1  1  0  0  0  0
  8  6  1  0  0  0  0
  9 12  1  0  0  0  0
  9  2  1  0  0  0  0
 10  9  2  0  0  0  0
 11 13  2  0  0  0  0
 11 10  1  0  0  0  0
 12  3  1  0  0  0  0
 13 14  1  0  0  0  0
 14  7  1  0  0  0  0
 14 12  2  0  0  0  0
 15 21  1  0  0  0  0
 15 23  1  1  0  0  0
 15 18  1  0  0  0  0
 16 22  1  0  0  0  0
 17 22  1  0  0  0  0
 17 19  1  1  0  0  0
 18 17  1  0  0  0  0
 21 16  1  0  0  0  0
 22 20  2  0  0  0  0
 24 21  1  0  0  0  0
 25 24  1  0  0  0  0
 25 27  1  0  0  0  0
 26 25  1  0  0  0  0
 27 28  1  0  0  0  0
 28 30  1  0  0  0  0
 29 28  2  0  0  0  0
 30 31  2  0  0  0  0
 32 10  1  0  0  0  0
 32 33  1  0  0  0  0
 34 32  2  0  0  0  0
M  END
>  <MODEL>
7

>  <REMARK>
 VINA RESULT:      -6.3      2.991      6.263
  Name = 
  7 active torsions:
  status: ('A' for Active; 'I' for Inactive)
    1  A    between atoms: C_1  and  N_9
    2  A    between atoms: C_3  and  C_25
    3  A    between atoms: C_7  and  O_16
    4  A    between atoms: C_7  and  O_21
    5  A    between atoms: C_11  and  O_21
    6  A    between atoms: C_11  and  C_26
    7  A    between atoms: O_16  and  C_28
                            x       y       z     vdW  Elec       q    Type
                         _______ _______ _______ _____ _____    ______ ____

>  <TORSDO>
F 7

$$$$
=
 OpenBabel11052420393D

 34 37  0  0  1  0  0  0  0  0999 V2000
  189.8120  174.8970  143.1960 C   0  0  2  0  0  3  0  0  0  0  0  0
  192.8230  173.4770  139.2220 C   0  0  0  0  0  1  0  0  0  0  0  0
  191.7830  173.9250  141.8800 C   0  0  0  0  0  2  0  0  0  0  0  0
  188.5500  172.7750  142.8750 C   0  0  0  0  0  2  0  0  0  0  0  0
  189.8460  171.9830  143.0900 C   0  0  0  0  0  2  0  0  0  0  0  0
  191.1000  174.0600  143.2560 C   0  0  2  0  0  3  0  0  0  0  0  0
  188.8460  174.1490  142.2650 C   0  0  2  0  0  3  0  0  0  0  0  0
  190.8270  172.7500  143.8700 N   0  0  0  0  0  2  0  0  0  0  0  0
  191.3400  173.6120  139.4030 C   0  0  0  0  0  0  0  0  0  0  0  0
  190.4550  173.5550  138.2930 C   0  0  0  0  0  0  0  0  0  0  0  0
  189.0820  173.7290  138.5090 C   0  0  0  0  0  3  0  0  0  0  0  0
  190.8280  173.8190  140.7030 C   0  0  0  0  0  0  0  0  0  0  0  0
  188.5770  173.9430  139.7880 C   0  0  0  0  0  3  0  0  0  0  0  0
  189.4360  173.9940  140.8860 C   0  0  0  0  0  0  0  0  0  0  0  0
  188.7430  176.9190  142.4300 C   0  0  1  0  0  3  0  0  0  0  0  0
  188.5030  177.1090  144.9230 O   0  0  0  0  0  0  0  0  0  0  0  0
  190.6950  177.1370  143.7930 C   0  0  2  0  0  3  0  0  0  0  0  0
  190.0430  176.2990  142.7620 N   0  0  1  0  0  0  0  0  0  0  0  0
  192.0820  176.7570  144.0160 N   0  0  0  0  0  1  0  0  0  0  0  0
  190.4250  177.1310  146.1890 O   0  0  0  0  0  0  0  0  0  0  0  0
  187.8630  177.2900  143.6550 C   0  0  2  0  0  3  0  0  0  0  0  0
  189.8870  177.1370  145.0500 C   0  0  0  0  0  0  0  0  0  0  0  0
  188.9440  178.0490  141.6370 O   0  0  0  0  0  1  0  0  0  0  0  0
  186.6560  176.5690  143.6260 O   0  0  0  0  0  0  0  0  0  0  0  0
  185.5940  177.4440  143.9510 C   0  0  2  0  0  3  0  0  0  0  0  0
  185.9100  178.8830  143.5670 C   0  0  0  0  0  1  0  0  0  0  0  0
  185.2230  177.3570  145.3270 O   0  0  0  0  0  0  0  0  0  0  0  0
  184.8010  178.4710  146.0540 C   0  0  0  0  0  0  0  0  0  0  0  0
  183.6920  179.0190  145.8050 O   0  0  0  0  0  0  0  0  0  0  0  0
  185.6650  178.9890  147.1190 C   0  0  0  0  0  3  0  0  0  0  0  0
  186.6090  178.2620  147.6250 N   0  0  0  0  0  2  0  0  0  0  0  0
  190.9000  173.3040  136.8990 C   0  0  0  0  0  0  0  0  0  0  0  0
  190.9990  172.1340  136.4450 O   0  0  0  0  0  1  0  0  0  0  0  0
  191.1870  174.3750  136.0580 O   0  0  0  0  0  0  0  0  0  0  0  0
  1 18  1  6  0  0  0
  1  6  1  0  0  0  0
  2  9  1  0  0  0  0
  4  5  1  0  0  0  0
  5  8  1  0  0  0  0
  6  3  1  6  0  0  0
  6  8  1  0  0  0  0
  7  4  1  1  0  0  0
  7  1  1  0  0  0  0
  9 12  1  0  0  0  0
 10 11  1  0  0  0  0
 10  9  2  0  0  0  0
 11 13  2  0  0  0  0
 12 14  2  0  0  0  0
 12  3  1  0  0  0  0
 13 14  1  0  0  0  0
 14  7  1  0  0  0  0
 15 23  1  1  0  0  0
 15 18  1  0  0  0  0
 15 21  1  0  0  0  0
 16 22  1  0  0  0  0
 17 19  1  1  0  0  0
 17 22  1  0  0  0  0
 18 17  1  0  0  0  0
 21 16  1  0  0  0  0
 22 20  2  0  0  0  0
 24 21  1  0  0  0  0
 24 25  1  0  0  0  0
 25 27  1  0  0  0  0
 26 25  1  0  0  0  0
 27 28  1  0  0  0  0
 28 30  1  0  0  0  0
 29 28  2  0  0  0  0
 30 31  2  0  0  0  0
 32 10  1  0  0  0  0
 33 32  1  0  0  0  0
 34 32  2  0  0  0  0
M  END
>  <MODEL>
8

>  <REMARK>
 VINA RESULT:      -6.1      2.830      5.761
  Name = 
  7 active torsions:
  status: ('A' for Active; 'I' for Inactive)
    1  A    between atoms: C_1  and  N_9
    2  A    between atoms: C_3  and  C_25
    3  A    between atoms: C_7  and  O_16
    4  A    between atoms: C_7  and  O_21
    5  A    between atoms: C_11  and  O_21
    6  A    between atoms: C_11  and  C_26
    7  A    between atoms: O_16  and  C_28
                            x       y       z     vdW  Elec       q    Type
                         _______ _______ _______ _____ _____    ______ ____

>  <TORSDO>
F 7

$$$$
=
 OpenBabel11052420393D

 34 37  0  0  1  0  0  0  0  0999 V2000
  190.6680  176.2870  144.8940 C   0  0  2  0  0  3  0  0  0  0  0  0
  187.8910  173.0530  141.9440 C   0  0  0  0  0  1  0  0  0  0  0  0
  188.6630  175.1360  143.7900 C   0  0  0  0  0  2  0  0  0  0  0  0
  190.9460  177.7300  142.8830 C   0  0  0  0  0  2  0  0  0  0  0  0
  189.4210  177.8510  142.7720 C   0  0  0  0  0  2  0  0  0  0  0  0
  189.1520  176.3230  144.6440 C   0  0  2  0  0  3  0  0  0  0  0  0
  191.3410  176.3920  143.5160 C   0  0  2  0  0  3  0  0  0  0  0  0
  188.7630  177.6200  144.0650 N   0  0  0  0  0  2  0  0  0  0  0  0
  189.2530  173.6650  141.8120 C   0  0  0  0  0  0  0  0  0  0  0  0
  190.1690  173.2160  140.8220 C   0  0  0  0  0  0  0  0  0  0  0  0
  191.4450  173.7900  140.7670 C   0  0  0  0  0  3  0  0  0  0  0  0
  189.6290  174.6920  142.7050 C   0  0  0  0  0  0  0  0  0  0  0  0
  191.8210  174.7950  141.6530 C   0  0  0  0  0  3  0  0  0  0  0  0
  190.9280  175.2480  142.6240 C   0  0  0  0  0  0  0  0  0  0  0  0
  192.5330  174.8250  145.3440 C   0  0  1  0  0  3  0  0  0  0  0  0
  192.9440  176.7110  146.9500 O   0  0  0  0  0  0  0  0  0  0  0  0
  190.9800  175.2290  147.1150 C   0  0  2  0  0  3  0  0  0  0  0  0
  191.1100  175.0860  145.6470 N   0  0  1  0  0  0  0  0  0  0  0  0
  189.5900  175.2450  147.5460 N   0  0  0  0  0  1  0  0  0  0  0  0
  191.3200  177.1610  148.5170 O   0  0  0  0  0  0  0  0  0  0  0  0
  193.5370  175.7980  146.0190 C   0  0  2  0  0  3  0  0  0  0  0  0
  191.7450  176.4200  147.5910 C   0  0  0  0  0  0  0  0  0  0  0  0
  192.8570  173.5100  145.6780 O   0  0  0  0  0  1  0  0  0  0  0  0
  194.2550  176.5150  145.0450 O   0  0  0  0  0  0  0  0  0  0  0  0
  195.4650  175.8340  144.7780 C   0  0  2  0  0  3  0  0  0  0  0  0
  195.4370  175.1390  143.4240 C   0  0  0  0  0  1  0  0  0  0  0  0
  195.8050  174.9110  145.8130 O   0  0  0  0  0  0  0  0  0  0  0  0
  196.7410  173.8930  145.6230 C   0  0  0  0  0  0  0  0  0  0  0  0
  197.9410  174.1660  145.3450 O   0  0  0  0  0  0  0  0  0  0  0  0
  196.3060  172.5000  145.7580 C   0  0  0  0  0  3  0  0  0  0  0  0
  197.1260  171.5210  145.5470 N   0  0  0  0  0  2  0  0  0  0  0  0
  189.8480  172.1700  139.8180 C   0  0  0  0  0  0  0  0  0  0  0  0
  189.2110  172.4450  138.7680 O   0  0  0  0  0  0  0  0  0  0  0  0
  190.2780  170.8610  140.0160 O   0  0  0  0  0  1  0  0  0  0  0  0
  1 18  1  6  0  0  0
  5  4  1  0  0  0  0
  5  8  1  0  0  0  0
  6  3  1  6  0  0  0
  6  1  1  0  0  0  0
  7  4  1  6  0  0  0
  7  1  1  0  0  0  0
  8  6  1  0  0  0  0
  9  2  1  0  0  0  0
  9 12  1  0  0  0  0
 10  9  2  0  0  0  0
 11 10  1  0  0  0  0
 11 13  2  0  0  0  0
 12  3  1  0  0  0  0
 13 14  1  0  0  0  0
 14 12  2  0  0  0  0
 14  7  1  0  0  0  0
 15 18  1  0  0  0  0
 15 23  1  1  0  0  0
 15 21  1  0  0  0  0
 16 22  1  0  0  0  0
 17 19  1  6  0  0  0
 17 22  1  0  0  0  0
 18 17  1  0  0  0  0
 21 16  1  0  0  0  0
 22 20  2  0  0  0  0
 24 21  1  0  0  0  0
 25 24  1  0  0  0  0
 25 27  1  0  0  0  0
 26 25  1  0  0  0  0
 28 30  1  0  0  0  0
 28 27  1  0  0  0  0
 29 28  2  0  0  0  0
 31 30  2  0  0  0  0
 32 34  1  0  0  0  0
 32 10  1  0  0  0  0
 33 32  2  0  0  0  0
M  END
>  <MODEL>
9

>  <REMARK>
 VINA RESULT:      -6.1      2.461      3.789
  Name = 
  7 active torsions:
  status: ('A' for Active; 'I' for Inactive)
    1  A    between atoms: C_1  and  N_9
    2  A    between atoms: C_3  and  C_25
    3  A    between atoms: C_7  and  O_16
    4  A    between atoms: C_7  and  O_21
    5  A    between atoms: C_11  and  O_21
    6  A    between atoms: C_11  and  C_26
    7  A    between atoms: O_16  and  C_28
                            x       y       z     vdW  Elec       q    Type
                         _______ _______ _______ _____ _____    ______ ____

>  <TORSDO>
F 7

$$$$
