=
 OpenBabel11052419133D

 32 37  0  0  1  0  0  0  0  0999 V2000
  190.4070  176.5950  144.8060 C   0  0  0  0  0  0  0  0  0  0  0  0
  191.9860  174.7870  145.3410 C   0  0  0  0  0  0  0  0  0  0  0  0
  190.2110  178.0950  144.6850 C   0  0  0  0  0  2  0  0  0  0  0  0
  191.4560  176.0870  145.6950 N   0  0  0  0  0  0  0  0  0  0  0  0
  193.2880  174.3820  145.7190 C   0  0  0  0  0  0  0  0  0  0  0  0
  191.6350  170.6770  142.6860 C   0  0  0  0  0  2  0  0  0  0  0  0
  191.1750  173.8930  144.5930 C   0  0  0  0  0  0  0  0  0  0  0  0
  193.4300  170.9200  144.3250 N   0  0  0  0  0  0  0  0  0  0  0  0
  192.9430  172.2260  144.6620 C   0  0  0  0  0  0  0  0  0  0  0  0
  193.7500  173.1060  145.3790 C   0  0  0  0  0  3  0  0  0  0  0  0
  189.8710  174.2980  144.1440 N   0  0  0  0  0  2  0  0  0  0  0  0
  189.2890  175.5930  144.4920 C   0  0  2  0  0  3  0  0  0  0  0  0
  191.6590  172.6200  144.2560 C   0  0  0  0  0  0  0  0  0  0  0  0
  190.9940  177.3370  143.6200 C   0  0  0  0  0  2  0  0  0  0  0  0
  192.8250  170.1690  143.4510 C   0  0  0  0  0  3  0  0  0  0  0  0
  190.7890  171.6160  143.5480 C   0  0  0  0  0  2  0  0  0  0  0  0
  186.7060  177.9150  143.4910 C   0  0  0  0  0  0  0  0  0  0  0  0
  185.9920  177.5720  139.8070 C   0  0  0  0  0  1  0  0  0  0  0  0
  186.6750  178.8510  144.3330 O   0  0  0  0  0  0  0  0  0  0  0  0
  187.6520  176.3470  141.0650 C   0  0  0  0  0  3  0  0  0  0  0  0
  188.2660  176.0350  143.4770 C   0  0  0  0  0  0  0  0  0  0  0  0
  186.5140  178.2090  142.1390 O   0  0  0  0  0  0  0  0  0  0  0  0
  188.5330  175.9250  142.1710 C   0  0  0  0  0  3  0  0  0  0  0  0
  186.9280  176.5110  143.9430 C   0  0  1  0  0  3  0  0  0  0  0  0
  186.8000  176.4100  145.3200 F   0  0  0  0  0  0  0  0  0  0  0  0
  186.7440  177.3340  141.0660 C   0  0  0  0  0  0  0  0  0  0  0  0
  191.4230  176.4480  147.1170 C   0  0  0  0  0  3  0  0  0  0  0  0
  190.8420  175.4500  147.8730 O   0  0  0  0  0  0  0  0  0  0  0  0
  190.1170  176.5280  147.5530 O   0  0  0  0  0  0  0  0  0  0  0  0
  194.2440  175.3000  146.4030 C   0  0  0  0  0  2  0  0  0  0  0  0
  194.9490  176.1490  145.3990 C   0  0  0  0  0  3  0  0  0  0  0  0
  194.7070  177.3420  145.3320 O   0  0  0  0  0  0  0  0  0  0  0  0
  1  4  1  0  0  0  0
  2  4  1  0  0  0  0
  2  5  1  0  0  0  0
  3  1  1  0  0  0  0
  4 27  1  0  0  0  0
  5 30  1  0  0  0  0
  6 15  1  0  0  0  0
  6 16  1  0  0  0  0
  7  2  2  0  0  0  0
  8  9  1  0  0  0  0
  9 10  1  0  0  0  0
 10  5  2  0  0  0  0
 11 12  1  0  0  0  0
 11  7  1  0  0  0  0
 12 21  1  6  0  0  0
 12  1  1  0  0  0  0
 13  7  1  0  0  0  0
 13  9  2  0  0  0  0
 14  3  1  0  0  0  0
 14  1  1  0  0  0  0
 15  8  2  0  0  0  0
 16 13  1  0  0  0  0
 17 24  1  0  0  0  0
 17 19  2  0  0  0  0
 18 26  1  0  0  0  0
 20 26  2  0  0  0  0
 20 23  1  0  0  0  0
 21 24  1  0  0  0  0
 22 17  1  0  0  0  0
 23 21  2  0  0  0  0
 24 25  1  1  0  0  0
 26 22  1  0  0  0  0
 27 29  1  0  0  0  0
 27 28  1  0  0  0  0
 29 28  1  0  0  0  0
 31 30  1  0  0  0  0
 32 31  2  0  0  0  0
M  END
>  <MODEL>
1

>  <REMARK>
 VINA RESULT:      -7.6      0.000      0.000
  Name = 
  4 active torsions:
  status: ('A' for Active; 'I' for Inactive)
    1  A    between atoms: N_5  and  C_14
    2  A    between atoms: C_6  and  C_29
    3  A    between atoms: C_13  and  C_29
    4  A    between atoms: C_16  and  C_27
                            x       y       z     vdW  Elec       q    Type
                         _______ _______ _______ _____ _____    ______ ____

>  <TORSDO>
F 4

$$$$
=
 OpenBabel11052419133D

 32 37  0  0  1  0  0  0  0  0999 V2000
  190.1500  176.5520  144.3850 C   0  0  0  0  0  0  0  0  0  0  0  0
  191.1920  175.0590  142.7320 C   0  0  0  0  0  0  0  0  0  0  0  0
  190.2880  177.8390  145.1770 C   0  0  0  0  0  2  0  0  0  0  0  0
  191.3620  175.8760  143.9160 N   0  0  0  0  0  0  0  0  0  0  0  0
  192.2680  174.7740  141.8580 C   0  0  0  0  0  0  0  0  0  0  0  0
  188.1980  172.8670  139.5230 C   0  0  0  0  0  2  0  0  0  0  0  0
  189.9070  174.5280  142.4390 C   0  0  0  0  0  0  0  0  0  0  0  0
  190.6170  172.5880  139.3210 N   0  0  0  0  0  0  0  0  0  0  0  0
  190.8080  173.4250  140.4690 C   0  0  0  0  0  0  0  0  0  0  0  0
  192.0650  173.9590  140.7400 C   0  0  0  0  0  3  0  0  0  0  0  0
  188.7830  174.8480  143.2760 N   0  0  0  0  0  2  0  0  0  0  0  0
  188.9110  175.6530  144.4890 C   0  0  2  0  0  3  0  0  0  0  0  0
  189.7230  173.7180  141.3100 C   0  0  0  0  0  0  0  0  0  0  0  0
  189.9530  177.8860  143.6900 C   0  0  0  0  0  2  0  0  0  0  0  0
  189.4280  172.2800  138.8890 C   0  0  0  0  0  3  0  0  0  0  0  0
  188.3970  173.0630  141.0270 C   0  0  0  0  0  2  0  0  0  0  0  0
  187.0280  177.7770  146.7280 C   0  0  0  0  0  0  0  0  0  0  0  0
  183.8810  178.9880  145.0470 C   0  0  0  0  0  1  0  0  0  0  0  0
  187.8220  178.2310  147.5940 O   0  0  0  0  0  0  0  0  0  0  0  0
  185.5860  177.5900  144.0580 C   0  0  0  0  0  3  0  0  0  0  0  0
  187.6170  176.3430  144.8400 C   0  0  0  0  0  0  0  0  0  0  0  0
  186.0200  178.6030  146.2270 O   0  0  0  0  0  0  0  0  0  0  0  0
  186.8530  176.8590  143.8700 C   0  0  0  0  0  3  0  0  0  0  0  0
  187.1600  176.3660  146.2630 C   0  0  1  0  0  3  0  0  0  0  0  0
  188.0170  175.6510  147.0870 F   0  0  0  0  0  0  0  0  0  0  0  0
  185.2130  178.3330  145.1110 C   0  0  0  0  0  0  0  0  0  0  0  0
  192.3710  175.4560  144.8950 C   0  0  0  0  0  3  0  0  0  0  0  0
  192.2210  174.1260  145.2300 O   0  0  0  0  0  0  0  0  0  0  0  0
  191.7570  175.0630  146.0650 O   0  0  0  0  0  0  0  0  0  0  0  0
  193.6190  175.3860  142.0280 C   0  0  0  0  0  2  0  0  0  0  0  0
  194.6630  174.3220  142.0660 C   0  0  0  0  0  3  0  0  0  0  0  0
  194.7780  173.6150  143.0530 O   0  0  0  0  0  0  0  0  0  0  0  0
  1 12  1  0  0  0  0
  1  3  1  0  0  0  0
  2  4  1  0  0  0  0
  4  1  1  0  0  0  0
  4 27  1  0  0  0  0
  5 30  1  0  0  0  0
  5  2  2  0  0  0  0
  6 16  1  0  0  0  0
  7  2  1  0  0  0  0
  7 11  1  0  0  0  0
  8  9  1  0  0  0  0
  9 10  2  0  0  0  0
  9 13  1  0  0  0  0
 10  5  1  0  0  0  0
 11 12  1  0  0  0  0
 12 21  1  6  0  0  0
 13  7  2  0  0  0  0
 14  1  1  0  0  0  0
 14  3  1  0  0  0  0
 15  8  2  0  0  0  0
 15  6  1  0  0  0  0
 16 13  1  0  0  0  0
 17 19  2  0  0  0  0
 18 26  1  0  0  0  0
 20 26  2  0  0  0  0
 21 24  1  0  0  0  0
 22 17  1  0  0  0  0
 23 20  1  0  0  0  0
 23 21  2  0  0  0  0
 24 17  1  0  0  0  0
 24 25  1  1  0  0  0
 26 22  1  0  0  0  0
 27 28  1  0  0  0  0
 27 29  1  0  0  0  0
 28 29  1  0  0  0  0
 30 31  1  0  0  0  0
 31 32  2  0  0  0  0
M  END
>  <MODEL>
2

>  <REMARK>
 VINA RESULT:      -7.3      2.771      3.619
  Name = 
  4 active torsions:
  status: ('A' for Active; 'I' for Inactive)
    1  A    between atoms: N_5  and  C_14
    2  A    between atoms: C_6  and  C_29
    3  A    between atoms: C_13  and  C_29
    4  A    between atoms: C_16  and  C_27
                            x       y       z     vdW  Elec       q    Type
                         _______ _______ _______ _____ _____    ______ ____

>  <TORSDO>
F 4

$$$$
=
 OpenBabel11052419133D

 32 37  0  0  1  0  0  0  0  0999 V2000
  189.7760  175.6850  145.4130 C   0  0  0  0  0  0  0  0  0  0  0  0
  187.6460  176.7760  144.8490 C   0  0  0  0  0  0  0  0  0  0  0  0
  190.4800  174.7110  146.3390 C   0  0  0  0  0  2  0  0  0  0  0  0
  188.5680  176.3660  145.8870 N   0  0  0  0  0  0  0  0  0  0  0  0
  186.2640  176.9520  145.1020 C   0  0  0  0  0  0  0  0  0  0  0  0
  186.7160  177.5030  140.0870 C   0  0  0  0  0  2  0  0  0  0  0  0
  188.1420  177.0100  143.5390 C   0  0  0  0  0  0  0  0  0  0  0  0
  185.0230  178.0600  141.7590 N   0  0  0  0  0  0  0  0  0  0  0  0
  185.9080  177.6230  142.7980 C   0  0  0  0  0  0  0  0  0  0  0  0
  185.4130  177.3760  144.0770 C   0  0  0  0  0  3  0  0  0  0  0  0
  189.5290  176.7840  143.2370 N   0  0  0  0  0  2  0  0  0  0  0  0
  190.4980  176.3870  144.2560 C   0  0  2  0  0  3  0  0  0  0  0  0
  187.2710  177.4290  142.5220 C   0  0  0  0  0  0  0  0  0  0  0  0
  189.5460  174.1940  145.2520 C   0  0  0  0  0  2  0  0  0  0  0  0
  185.3820  178.0570  140.5080 C   0  0  0  0  0  3  0  0  0  0  0  0
  187.7820  177.7760  141.1500 C   0  0  0  0  0  2  0  0  0  0  0  0
  193.6910  174.7460  144.6840 C   0  0  0  0  0  0  0  0  0  0  0  0
  194.5080  172.6590  141.6550 C   0  0  0  0  0  1  0  0  0  0  0  0
  193.9330  174.6800  145.9180 O   0  0  0  0  0  0  0  0  0  0  0  0
  192.4940  173.9460  142.0070 C   0  0  0  0  0  3  0  0  0  0  0  0
  191.6670  175.6460  143.6550 C   0  0  0  0  0  0  0  0  0  0  0  0
  194.0440  173.6730  143.8630 O   0  0  0  0  0  0  0  0  0  0  0  0
  191.4610  174.7690  142.6670 C   0  0  0  0  0  3  0  0  0  0  0  0
  193.0530  175.9680  144.1140 C   0  0  1  0  0  3  0  0  0  0  0  0
  193.0600  177.0050  145.0340 F   0  0  0  0  0  0  0  0  0  0  0  0
  193.6420  173.4910  142.5300 C   0  0  0  0  0  0  0  0  0  0  0  0
  188.6420  177.1890  147.1000 C   0  0  0  0  0  3  0  0  0  0  0  0
  189.2590  178.3970  146.8470 O   0  0  0  0  0  0  0  0  0  0  0  0
  189.9600  177.4190  147.4330 O   0  0  0  0  0  0  0  0  0  0  0  0
  185.6430  176.6170  146.4170 C   0  0  0  0  0  2  0  0  0  0  0  0
  184.8700  177.7830  146.9330 C   0  0  0  0  0  3  0  0  0  0  0  0
  185.4560  178.7660  147.3520 O   0  0  0  0  0  0  0  0  0  0  0  0
  1  4  1  0  0  0  0
  1  3  1  0  0  0  0
  2  5  1  0  0  0  0
  2  4  1  0  0  0  0
  4 27  1  0  0  0  0
  5 30  1  0  0  0  0
  6 15  1  0  0  0  0
  6 16  1  0  0  0  0
  7  2  2  0  0  0  0
  8  9  1  0  0  0  0
  9 10  1  0  0  0  0
 10  5  2  0  0  0  0
 11  7  1  0  0  0  0
 11 12  1  0  0  0  0
 12 21  1  6  0  0  0
 12  1  1  0  0  0  0
 13  9  2  0  0  0  0
 13  7  1  0  0  0  0
 14  1  1  0  0  0  0
 14  3  1  0  0  0  0
 15  8  2  0  0  0  0
 16 13  1  0  0  0  0
 17 19  2  0  0  0  0
 18 26  1  0  0  0  0
 20 26  2  0  0  0  0
 20 23  1  0  0  0  0
 21 24  1  0  0  0  0
 22 17  1  0  0  0  0
 23 21  2  0  0  0  0
 24 17  1  0  0  0  0
 24 25  1  1  0  0  0
 26 22  1  0  0  0  0
 27 29  1  0  0  0  0
 28 27  1  0  0  0  0
 28 29  1  0  0  0  0
 30 31  1  0  0  0  0
 31 32  2  0  0  0  0
M  END
>  <MODEL>
3

>  <REMARK>
 VINA RESULT:      -7.3      2.780      6.964
  Name = 
  4 active torsions:
  status: ('A' for Active; 'I' for Inactive)
    1  A    between atoms: N_5  and  C_14
    2  A    between atoms: C_6  and  C_29
    3  A    between atoms: C_13  and  C_29
    4  A    between atoms: C_16  and  C_27
                            x       y       z     vdW  Elec       q    Type
                         _______ _______ _______ _____ _____    ______ ____

>  <TORSDO>
F 4

$$$$
=
 OpenBabel11052419133D

 32 37  0  0  1  0  0  0  0  0999 V2000
  190.0170  176.7900  145.4180 C   0  0  0  0  0  0  0  0  0  0  0  0
  191.6240  174.9560  145.0980 C   0  0  0  0  0  0  0  0  0  0  0  0
  189.8350  178.2910  145.5470 C   0  0  0  0  0  2  0  0  0  0  0  0
  191.3120  176.2010  145.7690 N   0  0  0  0  0  0  0  0  0  0  0  0
  192.9590  174.5300  144.8940 C   0  0  0  0  0  0  0  0  0  0  0  0
  190.1480  171.1660  142.3550 C   0  0  0  0  0  2  0  0  0  0  0  0
  190.5600  174.1400  144.6300 C   0  0  0  0  0  0  0  0  0  0  0  0
  192.4450  171.2490  143.1850 N   0  0  0  0  0  0  0  0  0  0  0  0
  192.1660  172.5010  143.8250 C   0  0  0  0  0  0  0  0  0  0  0  0
  193.2140  173.3070  144.2650 C   0  0  0  0  0  3  0  0  0  0  0  0
  189.1970  174.5740  144.7700 N   0  0  0  0  0  2  0  0  0  0  0  0
  188.8350  175.8130  145.4550 C   0  0  2  0  0  3  0  0  0  0  0  0
  190.8370  172.9200  143.9960 C   0  0  0  0  0  0  0  0  0  0  0  0
  190.1220  177.6680  144.1860 C   0  0  0  0  0  2  0  0  0  0  0  0
  191.5260  170.5920  142.5380 C   0  0  0  0  0  3  0  0  0  0  0  0
  189.7310  171.9900  143.5750 C   0  0  0  0  0  2  0  0  0  0  0  0
  186.1060  178.1530  145.8340 C   0  0  0  0  0  0  0  0  0  0  0  0
  184.0510  178.2910  142.6780 C   0  0  0  0  0  1  0  0  0  0  0  0
  186.4110  178.9630  146.7490 O   0  0  0  0  0  0  0  0  0  0  0  0
  186.0410  176.9680  143.0360 C   0  0  0  0  0  3  0  0  0  0  0  0
  187.5130  176.3520  144.9710 C   0  0  0  0  0  0  0  0  0  0  0  0
  185.4230  178.6220  144.7090 O   0  0  0  0  0  0  0  0  0  0  0  0
  187.2660  176.4320  143.6590 C   0  0  0  0  0  3  0  0  0  0  0  0
  186.4570  176.7100  145.9680 C   0  0  1  0  0  3  0  0  0  0  0  0
  186.8560  176.4160  147.2630 F   0  0  0  0  0  0  0  0  0  0  0  0
  185.2170  177.9110  143.5160 C   0  0  0  0  0  0  0  0  0  0  0  0
  191.8440  176.3980  147.1230 C   0  0  0  0  0  3  0  0  0  0  0  0
  191.4810  175.3630  147.9590 O   0  0  0  0  0  0  0  0  0  0  0  0
  190.8070  176.5170  148.0230 O   0  0  0  0  0  0  0  0  0  0  0  0
  194.1320  175.3790  145.2490 C   0  0  0  0  0  2  0  0  0  0  0  0
  195.2450  174.5300  145.7630 C   0  0  0  0  0  3  0  0  0  0  0  0
  196.3560  174.6150  145.2680 O   0  0  0  0  0  0  0  0  0  0  0  0
  1 12  1  0  0  0  0
  1  3  1  0  0  0  0
  1  4  1  0  0  0  0
  2  4  1  0  0  0  0
  4 27  1  0  0  0  0
  5  2  1  0  0  0  0
  5 30  1  0  0  0  0
  6 15  1  0  0  0  0
  6 16  1  0  0  0  0
  7 11  1  0  0  0  0
  7  2  2  0  0  0  0
  8  9  1  0  0  0  0
  9 13  2  0  0  0  0
  9 10  1  0  0  0  0
 10  5  2  0  0  0  0
 11 12  1  0  0  0  0
 12 21  1  6  0  0  0
 13  7  1  0  0  0  0
 14  1  1  0  0  0  0
 14  3  1  0  0  0  0
 15  8  2  0  0  0  0
 16 13  1  0  0  0  0
 17 24  1  0  0  0  0
 17 19  2  0  0  0  0
 18 26  1  0  0  0  0
 20 26  2  0  0  0  0
 20 23  1  0  0  0  0
 21 24  1  0  0  0  0
 22 17  1  0  0  0  0
 23 21  2  0  0  0  0
 24 25  1  1  0  0  0
 26 22  1  0  0  0  0
 27 28  1  0  0  0  0
 27 29  1  0  0  0  0
 28 29  1  0  0  0  0
 30 31  1  0  0  0  0
 32 31  2  0  0  0  0
M  END
>  <MODEL>
4

>  <REMARK>
 VINA RESULT:      -7.1      1.504      1.746
  Name = 
  4 active torsions:
  status: ('A' for Active; 'I' for Inactive)
    1  A    between atoms: N_5  and  C_14
    2  A    between atoms: C_6  and  C_29
    3  A    between atoms: C_13  and  C_29
    4  A    between atoms: C_16  and  C_27
                            x       y       z     vdW  Elec       q    Type
                         _______ _______ _______ _____ _____    ______ ____

>  <TORSDO>
F 4

$$$$
=
 OpenBabel11052419133D

 32 37  0  0  1  0  0  0  0  0999 V2000
  189.7550  175.8700  142.9590 C   0  0  0  0  0  0  0  0  0  0  0  0
  187.6220  177.0060  143.4130 C   0  0  0  0  0  0  0  0  0  0  0  0
  190.8830  175.6690  141.9650 C   0  0  0  0  0  2  0  0  0  0  0  0
  188.4380  176.2790  142.4640 N   0  0  0  0  0  0  0  0  0  0  0  0
  186.6080  177.9030  142.9970 C   0  0  0  0  0  0  0  0  0  0  0  0
  186.8320  178.4840  148.0240 C   0  0  0  0  0  2  0  0  0  0  0  0
  187.8450  176.8150  144.8030 C   0  0  0  0  0  0  0  0  0  0  0  0
  185.2220  179.0400  146.2720 N   0  0  0  0  0  0  0  0  0  0  0  0
  186.0360  178.3570  145.3100 C   0  0  0  0  0  0  0  0  0  0  0  0
  185.8250  178.5640  143.9480 C   0  0  0  0  0  3  0  0  0  0  0  0
  188.9060  175.9560  145.2560 N   0  0  0  0  0  2  0  0  0  0  0  0
  189.7420  175.1900  144.3340 C   0  0  2  0  0  3  0  0  0  0  0  0
  187.0540  177.4920  145.7410 C   0  0  0  0  0  0  0  0  0  0  0  0
  190.7880  176.9640  142.7630 C   0  0  0  0  0  2  0  0  0  0  0  0
  185.5410  179.0790  147.5340 C   0  0  0  0  0  3  0  0  0  0  0  0
  187.2020  177.2380  147.2170 C   0  0  0  0  0  2  0  0  0  0  0  0
  192.8590  173.3650  144.1930 C   0  0  0  0  0  0  0  0  0  0  0  0
  195.3920  174.9150  146.5130 C   0  0  0  0  0  1  0  0  0  0  0  0
  192.8980  172.7440  143.0970 O   0  0  0  0  0  0  0  0  0  0  0  0
  193.1440  175.7060  146.1100 C   0  0  0  0  0  3  0  0  0  0  0  0
  191.0900  174.8770  144.9340 C   0  0  0  0  0  0  0  0  0  0  0  0
  194.0300  173.9370  144.6940 O   0  0  0  0  0  0  0  0  0  0  0  0
  191.8020  175.8500  145.5150 C   0  0  0  0  0  3  0  0  0  0  0  0
  191.5760  173.4640  144.9480 C   0  0  1  0  0  3  0  0  0  0  0  0
  190.6300  172.5920  144.4310 F   0  0  0  0  0  0  0  0  0  0  0  0
  194.1110  174.8430  145.7640 C   0  0  0  0  0  0  0  0  0  0  0  0
  187.7510  175.4350  141.4790 C   0  0  0  0  0  3  0  0  0  0  0  0
  187.0670  174.4060  142.0920 O   0  0  0  0  0  0  0  0  0  0  0  0
  188.2530  174.1510  141.5280 O   0  0  0  0  0  0  0  0  0  0  0  0
  186.3870  178.2480  141.5630 C   0  0  0  0  0  2  0  0  0  0  0  0
  185.0010  177.8810  141.1530 C   0  0  0  0  0  3  0  0  0  0  0  0
  184.3260  178.6670  140.5110 O   0  0  0  0  0  0  0  0  0  0  0  0
  1 12  1  0  0  0  0
  2  7  1  0  0  0  0
  3 14  1  0  0  0  0
  3  1  1  0  0  0  0
  4  1  1  0  0  0  0
  4  2  1  0  0  0  0
  5  2  2  0  0  0  0
  5 10  1  0  0  0  0
  7 11  1  0  0  0  0
  7 13  2  0  0  0  0
  8 15  2  0  0  0  0
  9 13  1  0  0  0  0
  9  8  1  0  0  0  0
 10  9  2  0  0  0  0
 12 21  1  1  0  0  0
 12 11  1  0  0  0  0
 13 16  1  0  0  0  0
 14  1  1  0  0  0  0
 15  6  1  0  0  0  0
 16  6  1  0  0  0  0
 17 22  1  0  0  0  0
 17 24  1  0  0  0  0
 19 17  2  0  0  0  0
 21 24  1  0  0  0  0
 21 23  2  0  0  0  0
 22 26  1  0  0  0  0
 23 20  1  0  0  0  0
 24 25  1  6  0  0  0
 26 20  2  0  0  0  0
 26 18  1  0  0  0  0
 27 29  1  0  0  0  0
 27 28  1  0  0  0  0
 27  4  1  0  0  0  0
 29 28  1  0  0  0  0
 30  5  1  0  0  0  0
 31 30  1  0  0  0  0
 32 31  2  0  0  0  0
M  END
>  <MODEL>
5

>  <REMARK>
 VINA RESULT:      -7.0      2.856      7.744
  Name = 
  4 active torsions:
  status: ('A' for Active; 'I' for Inactive)
    1  A    between atoms: N_5  and  C_14
    2  A    between atoms: C_6  and  C_29
    3  A    between atoms: C_13  and  C_29
    4  A    between atoms: C_16  and  C_27
                            x       y       z     vdW  Elec       q    Type
                         _______ _______ _______ _____ _____    ______ ____

>  <TORSDO>
F 4

$$$$
=
 OpenBabel11052419133D

 32 37  0  0  1  0  0  0  0  0999 V2000
  190.8760  174.2170  142.4990 C   0  0  0  0  0  0  0  0  0  0  0  0
  188.7460  175.3960  142.8410 C   0  0  0  0  0  0  0  0  0  0  0  0
  191.9830  173.8860  141.5160 C   0  0  0  0  0  2  0  0  0  0  0  0
  189.5460  174.5480  141.9820 N   0  0  0  0  0  0  0  0  0  0  0  0
  187.7160  176.2220  142.3290 C   0  0  0  0  0  0  0  0  0  0  0  0
  188.0470  177.4920  147.2210 C   0  0  0  0  0  2  0  0  0  0  0  0
  189.0010  175.3990  144.2380 C   0  0  0  0  0  0  0  0  0  0  0  0
  186.3940  177.7940  145.4470 N   0  0  0  0  0  0  0  0  0  0  0  0
  187.1910  176.9890  144.5690 C   0  0  0  0  0  0  0  0  0  0  0  0
  186.9490  177.0050  143.1970 C   0  0  0  0  0  3  0  0  0  0  0  0
  190.0770  174.6160  144.7800 N   0  0  0  0  0  2  0  0  0  0  0  0
  190.8990  173.7340  143.9540 C   0  0  2  0  0  3  0  0  0  0  0  0
  188.2250  176.1960  145.0920 C   0  0  0  0  0  0  0  0  0  0  0  0
  191.8960  175.2780  142.1300 C   0  0  0  0  0  2  0  0  0  0  0  0
  186.7400  178.0080  146.6830 C   0  0  0  0  0  3  0  0  0  0  0  0
  188.4090  176.1480  146.5850 C   0  0  0  0  0  2  0  0  0  0  0  0
  194.1070  172.0700  143.8660 C   0  0  0  0  0  0  0  0  0  0  0  0
  196.5580  173.8290  146.1240 C   0  0  0  0  0  1  0  0  0  0  0  0
  194.1780  171.4160  142.7910 O   0  0  0  0  0  0  0  0  0  0  0  0
  194.2720  174.4880  145.7010 C   0  0  0  0  0  3  0  0  0  0  0  0
  192.2620  173.5130  144.5600 C   0  0  0  0  0  0  0  0  0  0  0  0
  195.2470  172.7200  144.3430 O   0  0  0  0  0  0  0  0  0  0  0  0
  192.9230  174.5400  145.1060 C   0  0  0  0  0  3  0  0  0  0  0  0
  192.8220  172.1280  144.6210 C   0  0  1  0  0  3  0  0  0  0  0  0
  191.9220  171.1900  144.1370 F   0  0  0  0  0  0  0  0  0  0  0  0
  195.2820  173.6650  145.3810 C   0  0  0  0  0  0  0  0  0  0  0  0
  188.8440  173.5730  141.1390 C   0  0  0  0  0  3  0  0  0  0  0  0
  187.9270  172.8470  141.8710 O   0  0  0  0  0  0  0  0  0  0  0  0
  189.1100  172.2930  141.5780 O   0  0  0  0  0  0  0  0  0  0  0  0
  187.4600  176.3650  140.8660 C   0  0  0  0  0  2  0  0  0  0  0  0
  186.6690  177.6020  140.6010 C   0  0  0  0  0  3  0  0  0  0  0  0
  185.7470  177.5760  139.8030 O   0  0  0  0  0  0  0  0  0  0  0  0
  1 12  1  0  0  0  0
  2  7  1  0  0  0  0
  3 14  1  0  0  0  0
  3  1  1  0  0  0  0
  4  1  1  0  0  0  0
  4  2  1  0  0  0  0
  5  2  2  0  0  0  0
  5 10  1  0  0  0  0
  7 11  1  0  0  0  0
  7 13  2  0  0  0  0
  8 15  2  0  0  0  0
  9 13  1  0  0  0  0
  9  8  1  0  0  0  0
 10  9  2  0  0  0  0
 12 21  1  1  0  0  0
 12 11  1  0  0  0  0
 13 16  1  0  0  0  0
 14  1  1  0  0  0  0
 15  6  1  0  0  0  0
 16  6  1  0  0  0  0
 17 22  1  0  0  0  0
 17 24  1  0  0  0  0
 19 17  2  0  0  0  0
 21 24  1  0  0  0  0
 21 23  2  0  0  0  0
 22 26  1  0  0  0  0
 23 20  1  0  0  0  0
 24 25  1  6  0  0  0
 26 20  2  0  0  0  0
 26 18  1  0  0  0  0
 27 29  1  0  0  0  0
 27 28  1  0  0  0  0
 27  4  1  0  0  0  0
 29 28  1  0  0  0  0
 30  5  1  0  0  0  0
 31 30  1  0  0  0  0
 32 31  2  0  0  0  0
M  END
>  <MODEL>
6

>  <REMARK>
 VINA RESULT:      -7.0      3.090      7.646
  Name = 
  4 active torsions:
  status: ('A' for Active; 'I' for Inactive)
    1  A    between atoms: N_5  and  C_14
    2  A    between atoms: C_6  and  C_29
    3  A    between atoms: C_13  and  C_29
    4  A    between atoms: C_16  and  C_27
                            x       y       z     vdW  Elec       q    Type
                         _______ _______ _______ _____ _____    ______ ____

>  <TORSDO>
F 4

$$$$
=
 OpenBabel11052419133D

 32 37  0  0  1  0  0  0  0  0999 V2000
  190.4950  174.4240  143.3700 C   0  0  0  0  0  0  0  0  0  0  0  0
  189.1410  176.3090  144.1820 C   0  0  0  0  0  0  0  0  0  0  0  0
  191.2650  173.1750  143.7540 C   0  0  0  0  0  2  0  0  0  0  0  0
  190.3120  175.4790  144.3700 N   0  0  0  0  0  0  0  0  0  0  0  0
  188.5230  176.9890  145.2590 C   0  0  0  0  0  0  0  0  0  0  0  0
  185.4230  177.7610  141.3290 C   0  0  0  0  0  2  0  0  0  0  0  0
  188.5940  176.4450  142.8780 C   0  0  0  0  0  0  0  0  0  0  0  0
  185.7490  178.7860  143.5230 N   0  0  0  0  0  0  0  0  0  0  0  0
  186.8900  177.9470  143.7440 C   0  0  0  0  0  0  0  0  0  0  0  0
  187.4090  177.8010  145.0280 C   0  0  0  0  0  3  0  0  0  0  0  0
  189.1630  175.7210  141.7740 N   0  0  0  0  0  2  0  0  0  0  0  0
  190.3550  174.8870  141.9140 C   0  0  2  0  0  3  0  0  0  0  0  0
  187.4720  177.2590  142.6670 C   0  0  0  0  0  0  0  0  0  0  0  0
  189.7410  173.1630  143.7480 C   0  0  0  0  0  2  0  0  0  0  0  0
  185.0810  178.7530  142.4070 C   0  0  0  0  0  3  0  0  0  0  0  0
  186.9290  177.4990  141.2840 C   0  0  0  0  0  2  0  0  0  0  0  0
  192.0310  172.0240  140.4770 C   0  0  0  0  0  0  0  0  0  0  0  0
  189.7040  170.1670  138.1660 C   0  0  0  0  0  1  0  0  0  0  0  0
  192.9910  171.7150  141.2320 O   0  0  0  0  0  0  0  0  0  0  0  0
  189.1630  172.1250  139.4740 C   0  0  0  0  0  3  0  0  0  0  0  0
  190.4040  173.8040  140.8650 C   0  0  0  0  0  0  0  0  0  0  0  0
  191.2890  171.0090  139.8690 O   0  0  0  0  0  0  0  0  0  0  0  0
  189.2710  173.2180  140.4600 C   0  0  0  0  0  3  0  0  0  0  0  0
  191.7110  173.4590  140.2270 C   0  0  1  0  0  3  0  0  0  0  0  0
  192.7330  174.2800  140.6790 F   0  0  0  0  0  0  0  0  0  0  0  0
  190.0660  171.1730  139.1980 C   0  0  0  0  0  0  0  0  0  0  0  0
  191.4950  176.0970  144.9810 C   0  0  0  0  0  3  0  0  0  0  0  0
  191.8310  177.2730  144.3440 O   0  0  0  0  0  0  0  0  0  0  0  0
  192.5210  176.1610  144.0620 O   0  0  0  0  0  0  0  0  0  0  0  0
  188.9620  176.8080  146.6740 C   0  0  0  0  0  2  0  0  0  0  0  0
  188.3200  175.5970  147.2610 C   0  0  0  0  0  3  0  0  0  0  0  0
  188.9320  174.5440  147.3070 O   0  0  0  0  0  0  0  0  0  0  0  0
  1 14  1  0  0  0  0
  1  3  1  0  0  0  0
  1  4  1  0  0  0  0
  2  4  1  0  0  0  0
  2  5  1  0  0  0  0
  4 27  1  0  0  0  0
  5 30  1  0  0  0  0
  6 15  1  0  0  0  0
  7  2  2  0  0  0  0
  8  9  1  0  0  0  0
  9 10  1  0  0  0  0
 10  5  2  0  0  0  0
 11 12  1  0  0  0  0
 11  7  1  0  0  0  0
 12 21  1  6  0  0  0
 12  1  1  0  0  0  0
 13  7  1  0  0  0  0
 13  9  2  0  0  0  0
 14  3  1  0  0  0  0
 15  8  2  0  0  0  0
 16  6  1  0  0  0  0
 16 13  1  0  0  0  0
 17 19  2  0  0  0  0
 18 26  1  0  0  0  0
 20 23  1  0  0  0  0
 22 17  1  0  0  0  0
 23 21  2  0  0  0  0
 24 17  1  0  0  0  0
 24 25  1  1  0  0  0
 24 21  1  0  0  0  0
 26 20  2  0  0  0  0
 26 22  1  0  0  0  0
 28 27  1  0  0  0  0
 29 28  1  0  0  0  0
 29 27  1  0  0  0  0
 30 31  1  0  0  0  0
 31 32  2  0  0  0  0
M  END
>  <MODEL>
7

>  <REMARK>
 VINA RESULT:      -6.9      3.547      6.617
  Name = 
  4 active torsions:
  status: ('A' for Active; 'I' for Inactive)
    1  A    between atoms: N_5  and  C_14
    2  A    between atoms: C_6  and  C_29
    3  A    between atoms: C_13  and  C_29
    4  A    between atoms: C_16  and  C_27
                            x       y       z     vdW  Elec       q    Type
                         _______ _______ _______ _____ _____    ______ ____

>  <TORSDO>
F 4

$$$$
=
 OpenBabel11052419133D

 32 37  0  0  1  0  0  0  0  0999 V2000
  190.4020  176.3880  144.3460 C   0  0  0  0  0  0  0  0  0  0  0  0
  191.3500  174.9410  142.5980 C   0  0  0  0  0  0  0  0  0  0  0  0
  190.6780  177.4990  145.3410 C   0  0  0  0  0  2  0  0  0  0  0  0
  191.5120  175.5370  143.9070 N   0  0  0  0  0  0  0  0  0  0  0  0
  192.4600  174.5510  141.8100 C   0  0  0  0  0  0  0  0  0  0  0  0
  188.4550  173.8830  138.7810 C   0  0  0  0  0  2  0  0  0  0  0  0
  190.0390  174.7390  142.0900 C   0  0  0  0  0  0  0  0  0  0  0  0
  190.7780  173.1240  138.7970 N   0  0  0  0  0  0  0  0  0  0  0  0
  190.9690  173.7410  140.0770 C   0  0  0  0  0  0  0  0  0  0  0  0
  192.2570  173.9540  140.5620 C   0  0  0  0  0  3  0  0  0  0  0  0
  188.8950  175.1770  142.8410 N   0  0  0  0  0  2  0  0  0  0  0  0
  189.0100  175.7680  144.1730 C   0  0  2  0  0  3  0  0  0  0  0  0
  189.8570  174.1440  140.8330 C   0  0  0  0  0  0  0  0  0  0  0  0
  190.5670  177.8130  143.8540 C   0  0  0  0  0  2  0  0  0  0  0  0
  189.6230  173.1360  138.1970 C   0  0  0  0  0  3  0  0  0  0  0  0
  188.4800  173.8310  140.3100 C   0  0  0  0  0  2  0  0  0  0  0  0
  185.9630  177.3930  143.1040 C   0  0  0  0  0  0  0  0  0  0  0  0
  184.0170  178.6230  146.0880 C   0  0  0  0  0  1  0  0  0  0  0  0
  185.6780  176.9700  141.9530 O   0  0  0  0  0  0  0  0  0  0  0  0
  186.1030  177.4040  146.1410 C   0  0  0  0  0  3  0  0  0  0  0  0
  187.8390  176.6650  144.4880 C   0  0  0  0  0  0  0  0  0  0  0  0
  184.9330  177.6240  144.0190 O   0  0  0  0  0  0  0  0  0  0  0  0
  187.2710  176.6180  145.6980 C   0  0  0  0  0  3  0  0  0  0  0  0
  187.3840  177.6610  143.4700 C   0  0  1  0  0  3  0  0  0  0  0  0
  188.1950  177.6500  142.3450 F   0  0  0  0  0  0  0  0  0  0  0  0
  185.0920  177.8690  145.3920 C   0  0  0  0  0  0  0  0  0  0  0  0
  192.2760  174.7860  144.9110 C   0  0  0  0  0  3  0  0  0  0  0  0
  191.7950  173.5000  145.0450 O   0  0  0  0  0  0  0  0  0  0  0  0
  191.4510  174.4200  145.9540 O   0  0  0  0  0  0  0  0  0  0  0  0
  193.8670  174.8330  142.2180 C   0  0  0  0  0  2  0  0  0  0  0  0
  194.3230  176.1270  141.6340 C   0  0  0  0  0  3  0  0  0  0  0  0
  195.5040  176.4300  141.6690 O   0  0  0  0  0  0  0  0  0  0  0  0
  1  3  1  0  0  0  0
  2  4  1  0  0  0  0
  4  1  1  0  0  0  0
  4 27  1  0  0  0  0
  5 30  1  0  0  0  0
  5  2  2  0  0  0  0
  6 16  1  0  0  0  0
  7  2  1  0  0  0  0
  7 11  1  0  0  0  0
  8  9  1  0  0  0  0
  9 10  2  0  0  0  0
  9 13  1  0  0  0  0
 10  5  1  0  0  0  0
 11 12  1  0  0  0  0
 12  1  1  0  0  0  0
 12 21  1  6  0  0  0
 13  7  2  0  0  0  0
 14  1  1  0  0  0  0
 14  3  1  0  0  0  0
 15  6  1  0  0  0  0
 15  8  2  0  0  0  0
 16 13  1  0  0  0  0
 17 24  1  0  0  0  0
 17 22  1  0  0  0  0
 19 17  2  0  0  0  0
 21 23  2  0  0  0  0
 22 26  1  0  0  0  0
 23 20  1  0  0  0  0
 24 25  1  6  0  0  0
 24 21  1  0  0  0  0
 26 18  1  0  0  0  0
 26 20  2  0  0  0  0
 27 28  1  0  0  0  0
 27 29  1  0  0  0  0
 28 29  1  0  0  0  0
 31 32  2  0  0  0  0
 31 30  1  0  0  0  0
M  END
>  <MODEL>
8

>  <REMARK>
 VINA RESULT:      -6.8      2.795      3.863
  Name = 
  4 active torsions:
  status: ('A' for Active; 'I' for Inactive)
    1  A    between atoms: N_5  and  C_14
    2  A    between atoms: C_6  and  C_29
    3  A    between atoms: C_13  and  C_29
    4  A    between atoms: C_16  and  C_27
                            x       y       z     vdW  Elec       q    Type
                         _______ _______ _______ _____ _____    ______ ____

>  <TORSDO>
F 4

$$$$
=
 OpenBabel11052419133D

 32 37  0  0  1  0  0  0  0  0999 V2000
  190.1840  176.7400  144.4620 C   0  0  0  0  0  0  0  0  0  0  0  0
  191.8410  175.0730  143.7400 C   0  0  0  0  0  0  0  0  0  0  0  0
  189.9480  178.1880  144.8520 C   0  0  0  0  0  2  0  0  0  0  0  0
  191.5250  176.1720  144.6280 N   0  0  0  0  0  0  0  0  0  0  0  0
  193.1750  174.7580  143.3850 C   0  0  0  0  0  0  0  0  0  0  0  0
  190.3390  171.7110  140.4980 C   0  0  0  0  0  2  0  0  0  0  0  0
  190.7830  174.2890  143.2090 C   0  0  0  0  0  0  0  0  0  0  0  0
  192.6830  171.7800  141.1860 N   0  0  0  0  0  0  0  0  0  0  0  0
  192.3970  172.8930  142.0430 C   0  0  0  0  0  0  0  0  0  0  0  0
  193.4380  173.6710  142.5450 C   0  0  0  0  0  3  0  0  0  0  0  0
  189.4160  174.6210  143.5040 N   0  0  0  0  0  2  0  0  0  0  0  0
  189.0500  175.7090  144.4090 C   0  0  2  0  0  3  0  0  0  0  0  0
  191.0660  173.2070  142.3630 C   0  0  0  0  0  0  0  0  0  0  0  0
  190.1650  177.8140  143.3900 C   0  0  0  0  0  2  0  0  0  0  0  0
  191.7500  171.1900  140.4970 C   0  0  0  0  0  3  0  0  0  0  0  0
  189.9740  172.3000  141.8620 C   0  0  0  0  0  2  0  0  0  0  0  0
  186.3110  177.9040  145.2730 C   0  0  0  0  0  0  0  0  0  0  0  0
  183.9680  178.2900  142.3480 C   0  0  0  0  0  1  0  0  0  0  0  0
  186.6800  178.6270  146.2360 O   0  0  0  0  0  0  0  0  0  0  0  0
  186.0140  177.0060  142.3840 C   0  0  0  0  0  3  0  0  0  0  0  0
  187.6750  176.2490  144.1050 C   0  0  0  0  0  0  0  0  0  0  0  0
  185.5150  178.4600  144.2700 O   0  0  0  0  0  0  0  0  0  0  0  0
  187.3060  176.4520  142.8350 C   0  0  0  0  0  3  0  0  0  0  0  0
  186.7090  176.4670  145.2240 C   0  0  1  0  0  3  0  0  0  0  0  0
  187.2340  176.0580  146.4400 F   0  0  0  0  0  0  0  0  0  0  0  0
  185.2170  177.8670  143.0320 C   0  0  0  0  0  0  0  0  0  0  0  0
  192.1410  176.1720  145.9610 C   0  0  0  0  0  3  0  0  0  0  0  0
  192.0070  174.9440  146.5740 O   0  0  0  0  0  0  0  0  0  0  0  0
  191.1820  175.9380  146.9230 O   0  0  0  0  0  0  0  0  0  0  0  0
  194.3340  175.5990  143.8040 C   0  0  0  0  0  2  0  0  0  0  0  0
  195.3180  174.7770  144.5650 C   0  0  0  0  0  3  0  0  0  0  0  0
  196.4990  174.8050  144.2630 O   0  0  0  0  0  0  0  0  0  0  0  0
  1  4  1  0  0  0  0
  1  3  1  0  0  0  0
  2  4  1  0  0  0  0
  4 27  1  0  0  0  0
  5  2  1  0  0  0  0
  5 30  1  0  0  0  0
  6 16  1  0  0  0  0
  7 11  1  0  0  0  0
  7  2  2  0  0  0  0
  8  9  1  0  0  0  0
  9 13  2  0  0  0  0
  9 10  1  0  0  0  0
 10  5  2  0  0  0  0
 11 12  1  0  0  0  0
 12 21  1  6  0  0  0
 12  1  1  0  0  0  0
 13  7  1  0  0  0  0
 14  1  1  0  0  0  0
 14  3  1  0  0  0  0
 15  6  1  0  0  0  0
 15  8  2  0  0  0  0
 16 13  1  0  0  0  0
 17 19  2  0  0  0  0
 18 26  1  0  0  0  0
 20 23  1  0  0  0  0
 20 26  2  0  0  0  0
 21 24  1  0  0  0  0
 22 17  1  0  0  0  0
 23 21  2  0  0  0  0
 24 17  1  0  0  0  0
 24 25  1  1  0  0  0
 26 22  1  0  0  0  0
 27 28  1  0  0  0  0
 27 29  1  0  0  0  0
 28 29  1  0  0  0  0
 30 31  1  0  0  0  0
 32 31  2  0  0  0  0
M  END
>  <MODEL>
9

>  <REMARK>
 VINA RESULT:      -6.7      1.853      2.064
  Name = 
  4 active torsions:
  status: ('A' for Active; 'I' for Inactive)
    1  A    between atoms: N_5  and  C_14
    2  A    between atoms: C_6  and  C_29
    3  A    between atoms: C_13  and  C_29
    4  A    between atoms: C_16  and  C_27
                            x       y       z     vdW  Elec       q    Type
                         _______ _______ _______ _____ _____    ______ ____

>  <TORSDO>
F 4

$$$$
