=
 OpenBabel11052420003D

 37 41  0  0  1  0  0  0  0  0999 V2000
  190.2220  173.0390  142.4610 N   0  0  0  0  0  0  0  0  0  0  0  0
  190.6940  176.5560  145.5460 C   0  0  0  0  0  3  0  0  0  0  0  0
  189.5380  175.2320  141.5420 C   0  0  0  0  0  2  0  0  0  0  0  0
  194.7990  175.9960  144.5550 C   0  0  0  0  0  3  0  0  0  0  0  0
  190.5610  176.3920  144.0460 C   0  0  2  0  0  3  0  0  0  0  0  0
  193.4650  175.5830  144.5990 C   0  0  0  0  0  0  0  0  0  0  0  0
  189.1460  176.6310  143.5520 C   0  0  0  0  0  0  0  0  0  0  0  0
  192.8410  175.2360  145.9170 C   0  0  0  0  0  2  0  0  0  0  0  0
  192.7310  175.4560  143.4090 C   0  0  0  0  0  0  0  0  0  0  0  0
  194.6600  176.2210  142.1500 C   0  0  0  0  0  3  0  0  0  0  0  0
  191.7030  176.1370  146.3430 C   0  0  0  0  0  0  0  0  0  0  0  0
  193.3250  175.8090  142.1890 C   0  0  0  0  0  3  0  0  0  0  0  0
  188.5110  175.6940  142.5600 C   0  0  0  0  0  2  0  0  0  0  0  0
  191.2690  175.1370  143.5140 C   0  0  2  0  0  3  0  0  0  0  0  0
  195.4050  176.3130  143.3290 C   0  0  0  0  0  0  0  0  0  0  0  0
  191.3700  173.3750  141.5980 C   0  0  2  0  0  3  0  0  0  0  0  0
  190.6320  174.4600  142.2720 C   0  0  1  0  0  0  0  0  0  0  0  0
  188.4950  177.7310  143.9540 C   0  0  0  0  0  3  0  0  0  0  0  0
  196.7390  176.7250  143.2540 O   0  0  0  0  0  0  0  0  0  0  0  0
  197.7980  175.8370  142.9200 C   0  0  0  0  0  1  0  0  0  0  0  0
  191.2310  175.3350  148.5210 O   0  0  0  0  0  1  0  0  0  0  0  0
  191.6220  176.4620  147.7970 C   0  0  0  0  0  2  0  0  0  0  0  0
  190.7920  172.4220  143.6540 C   0  0  0  0  0  2  0  0  0  0  0  0
  189.6590  173.0810  145.6350 O   0  0  0  0  0  1  0  0  0  0  0  0
  189.6870  172.1050  144.6410 C   0  0  0  0  0  2  0  0  0  0  0  0
  190.9840  173.1820  140.1390 C   0  0  0  0  0  2  0  0  0  0  0  0
  190.4350  171.7850  139.9420 C   0  0  0  0  0  2  0  0  0  0  0  0
  188.2100  172.6640  139.3260 C   0  0  0  0  0  1  0  0  0  0  0  0
  189.3710  171.8090  138.8660 C   0  0  0  0  0  2  0  0  0  0  0  0
  187.1120  178.0820  143.4970 C   0  0  0  0  0  2  0  0  0  0  0  0
  184.9830  178.8200  144.5870 C   0  0  0  0  0  3  0  0  0  0  0  0
  186.1790  178.0970  144.6590 C   0  0  0  0  0  0  0  0  0  0  0  0
  186.5110  177.4110  145.8330 C   0  0  0  0  0  3  0  0  0  0  0  0
  185.9640  176.7740  148.0640 F   0  0  0  0  0  0  0  0  0  0  0  0
  184.4470  178.1590  146.8550 C   0  0  0  0  0  3  0  0  0  0  0  0
  185.6440  177.4400  146.9290 C   0  0  0  0  0  0  0  0  0  0  0  0
  184.1170  178.8500  145.6840 C   0  0  0  0  0  3  0  0  0  0  0  0
  1 23  1  0  0  0  0
  2 11  2  0  0  0  0
  3 13  1  0  0  0  0
  4  6  1  0  0  0  0
  5  2  1  1  0  0  0
  6  8  1  0  0  0  0
  7 18  2  0  0  0  0
  7  5  1  0  0  0  0
  8 11  1  0  0  0  0
  9  6  2  0  0  0  0
 10 12  2  0  0  0  0
 10 15  1  0  0  0  0
 11 22  1  0  0  0  0
 12  9  1  0  0  0  0
 13  7  1  0  0  0  0
 14  9  1  6  0  0  0
 14  5  1  0  0  0  0
 15  4  2  0  0  0  0
 16 26  1  6  0  0  0
 16 17  1  0  0  0  0
 16  1  1  0  0  0  0
 17  3  1  6  0  0  0
 17  1  1  0  0  0  0
 17 14  1  0  0  0  0
 19 15  1  0  0  0  0
 20 19  1  0  0  0  0
 22 21  1  0  0  0  0
 23 25  1  0  0  0  0
 25 24  1  0  0  0  0
 27 26  1  0  0  0  0
 29 28  1  0  0  0  0
 29 27  1  0  0  0  0
 30 18  1  0  0  0  0
 30 32  1  0  0  0  0
 31 32  2  0  0  0  0
 31 37  1  0  0  0  0
 32 33  1  0  0  0  0
 33 36  2  0  0  0  0
 35 36  1  0  0  0  0
 36 34  1  0  0  0  0
 37 35  2  0  0  0  0
M  END
>  <MODEL>
1

>  <REMARK>
 VINA RESULT:      -7.7      0.000      0.000
  Name = 
  9 active torsions:
  status: ('A' for Active; 'I' for Inactive)
    1  A    between atoms: N_1  and  C_5
    2  A    between atoms: O_3  and  C_32
    3  A    between atoms: C_5  and  C_23
    4  A    between atoms: C_6  and  C_31
    5  A    between atoms: C_17  and  C_26
    6  A    between atoms: C_17  and  C_33
    7  A    between atoms: C_24  and  C_28
    8  A    between atoms: C_26  and  C_34
    9  A    between atoms: C_31  and  C_37
                            x       y       z     vdW  Elec       q    Type
                         _______ _______ _______ _____ _____    ______ ____

>  <TORSDO>
F 9

$$$$
=
 OpenBabel11052420003D

 37 41  0  0  1  0  0  0  0  0999 V2000
  193.3270  176.4640  144.3930 N   0  0  0  0  0  0  0  0  0  0  0  0
  189.0810  174.9300  143.0820 C   0  0  0  0  0  3  0  0  0  0  0  0
  191.8740  175.8800  146.3090 C   0  0  0  0  0  2  0  0  0  0  0  0
  191.3590  171.4610  142.1200 C   0  0  0  0  0  3  0  0  0  0  0  0
  189.9620  174.8710  144.3120 C   0  0  2  0  0  3  0  0  0  0  0  0
  191.2330  172.8190  142.4220 C   0  0  0  0  0  0  0  0  0  0  0  0
  189.5840  175.9050  145.3550 C   0  0  0  0  0  0  0  0  0  0  0  0
  190.6070  173.7440  141.4220 C   0  0  0  0  0  2  0  0  0  0  0  0
  191.7290  173.3170  143.6370 C   0  0  0  0  0  0  0  0  0  0  0  0
  192.4120  171.0730  144.2640 C   0  0  0  0  0  3  0  0  0  0  0  0
  189.3100  174.3830  141.8660 C   0  0  0  0  0  0  0  0  0  0  0  0
  192.2890  172.4320  144.5700 C   0  0  0  0  0  3  0  0  0  0  0  0
  190.6430  176.7270  146.0410 C   0  0  0  0  0  2  0  0  0  0  0  0
  191.4560  174.7530  143.9750 C   0  0  2  0  0  3  0  0  0  0  0  0
  191.9540  170.5810  143.0380 C   0  0  0  0  0  0  0  0  0  0  0  0
  193.8880  175.1660  144.8130 C   0  0  2  0  0  3  0  0  0  0  0  0
  192.4430  175.4140  144.9730 C   0  0  1  0  0  0  0  0  0  0  0  0
  188.2990  176.0240  145.7160 C   0  0  0  0  0  3  0  0  0  0  0  0
  192.0960  169.2190  142.7620 O   0  0  0  0  0  0  0  0  0  0  0  0
  192.8610  168.3450  143.5830 C   0  0  0  0  0  1  0  0  0  0  0  0
  188.1900  173.4030  140.0220 O   0  0  0  0  0  1  0  0  0  0  0  0
  188.2570  174.5460  140.8200 C   0  0  0  0  0  2  0  0  0  0  0  0
  193.3620  176.4580  142.9350 C   0  0  0  0  0  2  0  0  0  0  0  0
  195.0960  176.7970  141.3470 O   0  0  0  0  0  1  0  0  0  0  0  0
  194.7390  176.0390  142.4610 C   0  0  0  0  0  2  0  0  0  0  0  0
  194.6890  175.3470  146.0930 C   0  0  0  0  0  2  0  0  0  0  0  0
  195.9150  174.4580  146.0520 C   0  0  0  0  0  2  0  0  0  0  0  0
  196.0770  172.0320  145.6090 C   0  0  0  0  0  1  0  0  0  0  0  0
  195.7150  173.3760  145.0130 C   0  0  0  0  0  2  0  0  0  0  0  0
  187.8230  176.9840  146.7630 C   0  0  0  0  0  2  0  0  0  0  0  0
  185.4110  177.6150  146.9860 C   0  0  0  0  0  3  0  0  0  0  0  0
  186.6150  177.7100  146.2790 C   0  0  0  0  0  0  0  0  0  0  0  0
  186.6770  178.4650  145.1020 C   0  0  0  0  0  3  0  0  0  0  0  0
  185.5980  179.8640  143.5010 F   0  0  0  0  0  0  0  0  0  0  0  0
  184.3360  179.0400  145.3480 C   0  0  0  0  0  3  0  0  0  0  0  0
  185.5380  179.1310  144.6390 C   0  0  0  0  0  0  0  0  0  0  0  0
  184.2730  178.2810  146.5210 C   0  0  0  0  0  3  0  0  0  0  0  0
  1 16  1  0  0  0  0
  1 17  1  0  0  0  0
  4  6  2  0  0  0  0
  4 15  1  0  0  0  0
  5  2  1  6  0  0  0
  5  7  1  0  0  0  0
  6  9  1  0  0  0  0
  7 18  2  0  0  0  0
  7 13  1  0  0  0  0
  8 11  1  0  0  0  0
  8  6  1  0  0  0  0
  9 12  2  0  0  0  0
 10 12  1  0  0  0  0
 11  2  2  0  0  0  0
 13  3  1  0  0  0  0
 14  9  1  1  0  0  0
 14  5  1  0  0  0  0
 14 17  1  0  0  0  0
 15 10  2  0  0  0  0
 16 17  1  0  0  0  0
 16 26  1  1  0  0  0
 17  3  1  1  0  0  0
 18 30  1  0  0  0  0
 19 15  1  0  0  0  0
 19 20  1  0  0  0  0
 21 22  1  0  0  0  0
 22 11  1  0  0  0  0
 23  1  1  0  0  0  0
 24 25  1  0  0  0  0
 25 23  1  0  0  0  0
 27 26  1  0  0  0  0
 29 28  1  0  0  0  0
 29 27  1  0  0  0  0
 32 30  1  0  0  0  0
 32 31  2  0  0  0  0
 33 32  1  0  0  0  0
 34 36  1  0  0  0  0
 35 37  2  0  0  0  0
 36 33  2  0  0  0  0
 36 35  1  0  0  0  0
 37 31  1  0  0  0  0
M  END
>  <MODEL>
2

>  <REMARK>
 VINA RESULT:      -7.7      2.510      5.600
  Name = 
  9 active torsions:
  status: ('A' for Active; 'I' for Inactive)
    1  A    between atoms: N_1  and  C_5
    2  A    between atoms: O_3  and  C_32
    3  A    between atoms: C_5  and  C_23
    4  A    between atoms: C_6  and  C_31
    5  A    between atoms: C_17  and  C_26
    6  A    between atoms: C_17  and  C_33
    7  A    between atoms: C_24  and  C_28
    8  A    between atoms: C_26  and  C_34
    9  A    between atoms: C_31  and  C_37
                            x       y       z     vdW  Elec       q    Type
                         _______ _______ _______ _____ _____    ______ ____

>  <TORSDO>
F 9

$$$$
=
 OpenBabel11052420003D

 37 41  0  0  1  0  0  0  0  0999 V2000
  190.1990  173.0180  142.4730 N   0  0  0  0  0  0  0  0  0  0  0  0
  190.7120  176.5590  145.5220 C   0  0  0  0  0  3  0  0  0  0  0  0
  189.5070  175.2040  141.5430 C   0  0  0  0  0  2  0  0  0  0  0  0
  194.8040  175.9840  144.4890 C   0  0  0  0  0  3  0  0  0  0  0  0
  190.5610  176.3830  144.0260 C   0  0  2  0  0  3  0  0  0  0  0  0
  193.4700  175.5740  144.5510 C   0  0  0  0  0  0  0  0  0  0  0  0
  189.1410  176.6200  143.5470 C   0  0  0  0  0  0  0  0  0  0  0  0
  192.8610  175.2390  145.8800 C   0  0  0  0  0  2  0  0  0  0  0  0
  192.7220  175.4380  143.3720 C   0  0  0  0  0  0  0  0  0  0  0  0
  194.6370  176.1900  142.0830 C   0  0  0  0  0  3  0  0  0  0  0  0
  191.7290  176.1460  146.3110 C   0  0  0  0  0  0  0  0  0  0  0  0
  193.3020  175.7800  142.1420 C   0  0  0  0  0  3  0  0  0  0  0  0
  188.4920  175.6760  142.5690 C   0  0  0  0  0  2  0  0  0  0  0  0
  191.2610  175.1220  143.4960 C   0  0  2  0  0  3  0  0  0  0  0  0
  195.3960  176.2900  143.2530 C   0  0  0  0  0  0  0  0  0  0  0  0
  191.3370  173.3450  141.5940 C   0  0  2  0  0  3  0  0  0  0  0  0
  190.6080  174.4360  142.2670 C   0  0  1  0  0  0  0  0  0  0  0  0
  188.4960  177.7250  143.9470 C   0  0  0  0  0  3  0  0  0  0  0  0
  196.7290  176.6990  143.1590 O   0  0  0  0  0  0  0  0  0  0  0  0
  197.7820  175.8100  142.8070 C   0  0  0  0  0  1  0  0  0  0  0  0
  191.2310  175.3760  148.4960 O   0  0  0  0  0  1  0  0  0  0  0  0
  191.6650  176.4830  147.7640 C   0  0  0  0  0  2  0  0  0  0  0  0
  190.7810  172.4090  143.6640 C   0  0  0  0  0  2  0  0  0  0  0  0
  189.6610  173.0820  145.6480 O   0  0  0  0  0  1  0  0  0  0  0  0
  189.6860  172.0960  144.6640 C   0  0  0  0  0  2  0  0  0  0  0  0
  190.9330  173.1400  140.1410 C   0  0  0  0  0  2  0  0  0  0  0  0
  192.1740  173.0840  139.2750 C   0  0  0  0  0  2  0  0  0  0  0  0
  194.6120  173.3310  139.5950 C   0  0  0  0  0  1  0  0  0  0  0  0
  193.3580  172.6660  140.1210 C   0  0  0  0  0  2  0  0  0  0  0  0
  187.1080  178.0740  143.5030 C   0  0  0  0  0  2  0  0  0  0  0  0
  185.0050  178.8390  144.6240 C   0  0  0  0  0  3  0  0  0  0  0  0
  186.1870  178.0920  144.6740 C   0  0  0  0  0  0  0  0  0  0  0  0
  186.5180  177.3850  145.8360 C   0  0  0  0  0  3  0  0  0  0  0  0
  185.9810  176.7310  148.0640 F   0  0  0  0  0  0  0  0  0  0  0  0
  184.4780  178.1600  146.8880 C   0  0  0  0  0  3  0  0  0  0  0  0
  185.6620  177.4180  146.9410 C   0  0  0  0  0  0  0  0  0  0  0  0
  184.1510  178.8710  145.7290 C   0  0  0  0  0  3  0  0  0  0  0  0
  1 23  1  0  0  0  0
  2 11  2  0  0  0  0
  3 13  1  0  0  0  0
  4  6  1  0  0  0  0
  5  2  1  1  0  0  0
  6  8  1  0  0  0  0
  7 18  2  0  0  0  0
  7  5  1  0  0  0  0
  8 11  1  0  0  0  0
  9  6  2  0  0  0  0
 10 12  2  0  0  0  0
 10 15  1  0  0  0  0
 11 22  1  0  0  0  0
 12  9  1  0  0  0  0
 13  7  1  0  0  0  0
 14  9  1  6  0  0  0
 14  5  1  0  0  0  0
 15  4  2  0  0  0  0
 16 26  1  6  0  0  0
 16 17  1  0  0  0  0
 16  1  1  0  0  0  0
 17  3  1  6  0  0  0
 17  1  1  0  0  0  0
 17 14  1  0  0  0  0
 19 15  1  0  0  0  0
 20 19  1  0  0  0  0
 22 21  1  0  0  0  0
 23 25  1  0  0  0  0
 25 24  1  0  0  0  0
 27 29  1  0  0  0  0
 27 26  1  0  0  0  0
 28 29  1  0  0  0  0
 30 18  1  0  0  0  0
 30 32  1  0  0  0  0
 31 32  2  0  0  0  0
 31 37  1  0  0  0  0
 32 33  1  0  0  0  0
 33 36  2  0  0  0  0
 35 36  1  0  0  0  0
 36 34  1  0  0  0  0
 37 35  2  0  0  0  0
M  END
>  <MODEL>
3

>  <REMARK>
 VINA RESULT:      -7.6      0.765      1.325
  Name = 
  9 active torsions:
  status: ('A' for Active; 'I' for Inactive)
    1  A    between atoms: N_1  and  C_5
    2  A    between atoms: O_3  and  C_32
    3  A    between atoms: C_5  and  C_23
    4  A    between atoms: C_6  and  C_31
    5  A    between atoms: C_17  and  C_26
    6  A    between atoms: C_17  and  C_33
    7  A    between atoms: C_24  and  C_28
    8  A    between atoms: C_26  and  C_34
    9  A    between atoms: C_31  and  C_37
                            x       y       z     vdW  Elec       q    Type
                         _______ _______ _______ _____ _____    ______ ____

>  <TORSDO>
F 9

$$$$
=
 OpenBabel11052420003D

 37 41  0  0  1  0  0  0  0  0999 V2000
  193.9880  176.0190  144.4250 N   0  0  0  0  0  0  0  0  0  0  0  0
  189.7300  174.4950  143.1440 C   0  0  0  0  0  3  0  0  0  0  0  0
  192.5590  175.4080  146.3500 C   0  0  0  0  0  2  0  0  0  0  0  0
  192.0010  171.0420  142.1110 C   0  0  0  0  0  3  0  0  0  0  0  0
  190.6250  174.4210  144.3620 C   0  0  2  0  0  3  0  0  0  0  0  0
  191.8770  172.3970  142.4320 C   0  0  0  0  0  0  0  0  0  0  0  0
  190.2580  175.4410  145.4240 C   0  0  0  0  0  0  0  0  0  0  0  0
  191.2370  173.3330  141.4510 C   0  0  0  0  0  2  0  0  0  0  0  0
  192.3870  172.8790  143.6470 C   0  0  0  0  0  0  0  0  0  0  0  0
  193.0810  170.6290  144.2360 C   0  0  0  0  0  3  0  0  0  0  0  0
  189.9450  173.9640  141.9190 C   0  0  0  0  0  0  0  0  0  0  0  0
  192.9590  171.9830  144.5610 C   0  0  0  0  0  3  0  0  0  0  0  0
  191.3240  176.2560  146.1070 C   0  0  0  0  0  2  0  0  0  0  0  0
  192.1160  174.3100  144.0060 C   0  0  2  0  0  3  0  0  0  0  0  0
  192.6090  170.1520  143.0100 C   0  0  0  0  0  0  0  0  0  0  0  0
  194.5560  174.7170  144.8200 C   0  0  2  0  0  3  0  0  0  0  0  0
  193.1130  174.9600  145.0010 C   0  0  1  0  0  0  0  0  0  0  0  0
  188.9770  175.5530  145.8010 C   0  0  0  0  0  3  0  0  0  0  0  0
  192.7500  168.7930  142.7150 O   0  0  0  0  0  0  0  0  0  0  0  0
  193.7960  168.2920  141.8930 C   0  0  0  0  0  1  0  0  0  0  0  0
  189.2830  173.5710  139.6770 O   0  0  0  0  0  1  0  0  0  0  0  0
  188.8800  174.1390  140.8870 C   0  0  0  0  0  2  0  0  0  0  0  0
  194.0060  176.0310  142.9660 C   0  0  0  0  0  2  0  0  0  0  0  0
  195.8640  176.7880  141.6930 O   0  0  0  0  0  1  0  0  0  0  0  0
  195.4050  175.7270  142.4710 C   0  0  0  0  0  2  0  0  0  0  0  0
  195.3730  174.8820  146.0940 C   0  0  0  0  0  2  0  0  0  0  0  0
  196.6050  174.0050  146.0210 C   0  0  0  0  0  2  0  0  0  0  0  0
  196.6480  171.5610  145.6620 C   0  0  0  0  0  1  0  0  0  0  0  0
  196.3760  172.9000  145.0120 C   0  0  0  0  0  2  0  0  0  0  0  0
  188.5130  176.4990  146.8660 C   0  0  0  0  0  2  0  0  0  0  0  0
  187.3910  177.8420  145.0760 C   0  0  0  0  0  3  0  0  0  0  0  0
  187.3630  177.3050  146.3670 C   0  0  0  0  0  0  0  0  0  0  0  0
  186.2650  177.5480  147.2010 C   0  0  0  0  0  3  0  0  0  0  0  0
  184.1310  178.5530  147.5460 F   0  0  0  0  0  0  0  0  0  0  0  0
  185.2210  178.8530  145.4470 C   0  0  0  0  0  3  0  0  0  0  0  0
  185.1950  178.3200  146.7400 C   0  0  0  0  0  0  0  0  0  0  0  0
  186.3210  178.6140  144.6160 C   0  0  0  0  0  3  0  0  0  0  0  0
  1 16  1  0  0  0  0
  1 17  1  0  0  0  0
  4  6  2  0  0  0  0
  4 15  1  0  0  0  0
  5  2  1  6  0  0  0
  5  7  1  0  0  0  0
  6  9  1  0  0  0  0
  7 18  2  0  0  0  0
  7 13  1  0  0  0  0
  8 11  1  0  0  0  0
  8  6  1  0  0  0  0
  9 12  2  0  0  0  0
 10 12  1  0  0  0  0
 11  2  2  0  0  0  0
 13  3  1  0  0  0  0
 14  9  1  1  0  0  0
 14  5  1  0  0  0  0
 14 17  1  0  0  0  0
 15 10  2  0  0  0  0
 16 17  1  0  0  0  0
 16 26  1  1  0  0  0
 17  3  1  1  0  0  0
 18 30  1  0  0  0  0
 19 15  1  0  0  0  0
 20 19  1  0  0  0  0
 21 22  1  0  0  0  0
 22 11  1  0  0  0  0
 23  1  1  0  0  0  0
 24 25  1  0  0  0  0
 25 23  1  0  0  0  0
 27 26  1  0  0  0  0
 29 28  1  0  0  0  0
 29 27  1  0  0  0  0
 31 32  1  0  0  0  0
 32 30  1  0  0  0  0
 32 33  2  0  0  0  0
 35 36  2  0  0  0  0
 36 33  1  0  0  0  0
 36 34  1  0  0  0  0
 37 31  2  0  0  0  0
 37 35  1  0  0  0  0
M  END
>  <MODEL>
4

>  <REMARK>
 VINA RESULT:      -7.4      2.595      5.680
  Name = 
  9 active torsions:
  status: ('A' for Active; 'I' for Inactive)
    1  A    between atoms: N_1  and  C_5
    2  A    between atoms: O_3  and  C_32
    3  A    between atoms: C_5  and  C_23
    4  A    between atoms: C_6  and  C_31
    5  A    between atoms: C_17  and  C_26
    6  A    between atoms: C_17  and  C_33
    7  A    between atoms: C_24  and  C_28
    8  A    between atoms: C_26  and  C_34
    9  A    between atoms: C_31  and  C_37
                            x       y       z     vdW  Elec       q    Type
                         _______ _______ _______ _____ _____    ______ ____

>  <TORSDO>
F 9

$$$$
=
 OpenBabel11052420003D

 37 41  0  0  1  0  0  0  0  0999 V2000
  193.7040  176.2410  142.8050 N   0  0  0  0  0  0  0  0  0  0  0  0
  190.0070  173.6840  144.1800 C   0  0  0  0  0  3  0  0  0  0  0  0
  193.0260  176.6970  145.1410 C   0  0  0  0  0  2  0  0  0  0  0  0
  192.9900  170.6450  144.3010 C   0  0  0  0  0  3  0  0  0  0  0  0
  191.1270  174.4700  144.8280 C   0  0  2  0  0  3  0  0  0  0  0  0
  192.5040  171.8930  143.9030 C   0  0  0  0  0  0  0  0  0  0  0  0
  190.6950  175.8570  145.2640 C   0  0  0  0  0  0  0  0  0  0  0  0
  191.3900  171.9680  142.9020 C   0  0  0  0  0  2  0  0  0  0  0  0
  193.0870  173.0650  144.4070 C   0  0  0  0  0  0  0  0  0  0  0  0
  194.5940  171.7230  145.7560 C   0  0  0  0  0  3  0  0  0  0  0  0
  190.1020  172.5670  143.4230 C   0  0  0  0  0  0  0  0  0  0  0  0
  194.1120  172.9740  145.3600 C   0  0  0  0  0  3  0  0  0  0  0  0
  191.5600  177.0570  144.9790 C   0  0  0  0  0  2  0  0  0  0  0  0
  192.4510  174.3770  144.0530 C   0  0  2  0  0  3  0  0  0  0  0  0
  194.0410  170.5530  145.2270 C   0  0  0  0  0  0  0  0  0  0  0  0
  194.7410  175.5190  143.5660 C   0  0  2  0  0  3  0  0  0  0  0  0
  193.3780  175.6200  144.1200 C   0  0  1  0  0  0  0  0  0  0  0  0
  189.5680  175.9930  145.9760 C   0  0  0  0  0  3  0  0  0  0  0  0
  194.5490  169.3190  145.6410 O   0  0  0  0  0  0  0  0  0  0  0  0
  195.1570  169.1270  146.9120 C   0  0  0  0  0  1  0  0  0  0  0  0
  188.2720  172.7370  141.9280 O   0  0  0  0  0  1  0  0  0  0  0  0
  188.8360  171.9480  142.9320 C   0  0  0  0  0  2  0  0  0  0  0  0
  193.3880  175.3900  141.6630 C   0  0  0  0  0  2  0  0  0  0  0  0
  193.9790  174.9900  139.3970 O   0  0  0  0  0  1  0  0  0  0  0  0
  194.4170  175.6010  140.5710 C   0  0  0  0  0  2  0  0  0  0  0  0
  195.7230  176.5170  144.1630 C   0  0  0  0  0  2  0  0  0  0  0  0
  196.8380  176.7820  143.1740 C   0  0  0  0  0  2  0  0  0  0  0  0
  197.9390  175.2900  141.5410 C   0  0  0  0  0  1  0  0  0  0  0  0
  197.6740  175.5310  143.0120 C   0  0  0  0  0  2  0  0  0  0  0  0
  189.0710  177.3100  146.4890 C   0  0  0  0  0  2  0  0  0  0  0  0
  187.2490  177.3690  144.7740 C   0  0  0  0  0  3  0  0  0  0  0  0
  187.6430  177.5000  146.1100 C   0  0  0  0  0  0  0  0  0  0  0  0
  186.6990  177.8380  147.0860 C   0  0  0  0  0  3  0  0  0  0  0  0
  184.4480  178.3600  147.6730 F   0  0  0  0  0  0  0  0  0  0  0  0
  184.9680  177.8990  145.3930 C   0  0  0  0  0  3  0  0  0  0  0  0
  185.3630  178.0350  146.7280 C   0  0  0  0  0  0  0  0  0  0  0  0
  185.9130  177.5670  144.4160 C   0  0  0  0  0  3  0  0  0  0  0  0
  1 16  1  0  0  0  0
  1 17  1  0  0  0  0
  4 15  1  0  0  0  0
  5  2  1  6  0  0  0
  5  7  1  0  0  0  0
  6  4  2  0  0  0  0
  6  9  1  0  0  0  0
  7 18  2  0  0  0  0
  8 11  1  0  0  0  0
  8  6  1  0  0  0  0
  9 12  2  0  0  0  0
 11  2  2  0  0  0  0
 12 10  1  0  0  0  0
 13  3  1  0  0  0  0
 13  7  1  0  0  0  0
 14 17  1  0  0  0  0
 14  9  1  1  0  0  0
 14  5  1  0  0  0  0
 15 19  1  0  0  0  0
 15 10  2  0  0  0  0
 16 17  1  0  0  0  0
 16 26  1  1  0  0  0
 17  3  1  1  0  0  0
 18 30  1  0  0  0  0
 19 20  1  0  0  0  0
 21 22  1  0  0  0  0
 22 11  1  0  0  0  0
 23  1  1  0  0  0  0
 24 25  1  0  0  0  0
 25 23  1  0  0  0  0
 27 26  1  0  0  0  0
 28 29  1  0  0  0  0
 29 27  1  0  0  0  0
 31 32  1  0  0  0  0
 32 30  1  0  0  0  0
 32 33  2  0  0  0  0
 35 36  2  0  0  0  0
 36 33  1  0  0  0  0
 36 34  1  0  0  0  0
 37 31  2  0  0  0  0
 37 35  1  0  0  0  0
M  END
>  <MODEL>
5

>  <REMARK>
 VINA RESULT:      -7.1      2.564      5.379
  Name = 
  9 active torsions:
  status: ('A' for Active; 'I' for Inactive)
    1  A    between atoms: N_1  and  C_5
    2  A    between atoms: O_3  and  C_32
    3  A    between atoms: C_5  and  C_23
    4  A    between atoms: C_6  and  C_31
    5  A    between atoms: C_17  and  C_26
    6  A    between atoms: C_17  and  C_33
    7  A    between atoms: C_24  and  C_28
    8  A    between atoms: C_26  and  C_34
    9  A    between atoms: C_31  and  C_37
                            x       y       z     vdW  Elec       q    Type
                         _______ _______ _______ _____ _____    ______ ____

>  <TORSDO>
F 9

$$$$
=
 OpenBabel11052420003D

 37 41  0  0  1  0  0  0  0  0999 V2000
  193.9920  176.3620  142.6390 N   0  0  0  0  0  0  0  0  0  0  0  0
  189.7850  174.5060  141.6580 C   0  0  0  0  0  3  0  0  0  0  0  0
  192.3560  176.6490  144.4730 C   0  0  0  0  0  2  0  0  0  0  0  0
  191.9280  170.9060  142.4290 C   0  0  0  0  0  3  0  0  0  0  0  0
  190.5580  174.9430  142.8850 C   0  0  2  0  0  3  0  0  0  0  0  0
  191.8570  172.2700  142.1350 C   0  0  0  0  0  0  0  0  0  0  0  0
  190.1570  176.3220  143.3720 C   0  0  0  0  0  0  0  0  0  0  0  0
  191.3690  172.7120  140.7870 C   0  0  0  0  0  2  0  0  0  0  0  0
  192.2800  173.2150  143.0820 C   0  0  0  0  0  0  0  0  0  0  0  0
  192.7780  171.4170  144.6350 C   0  0  0  0  0  3  0  0  0  0  0  0
  190.0800  173.5020  140.8020 C   0  0  0  0  0  0  0  0  0  0  0  0
  192.7100  172.7820  144.3450 C   0  0  0  0  0  3  0  0  0  0  0  0
  191.2020  177.3340  143.7610 C   0  0  0  0  0  2  0  0  0  0  0  0
  192.0650  174.6670  142.7740 C   0  0  2  0  0  3  0  0  0  0  0  0
  192.3930  170.4720  143.6800 C   0  0  0  0  0  0  0  0  0  0  0  0
  194.4400  175.3420  143.6050 C   0  0  2  0  0  3  0  0  0  0  0  0
  193.0040  175.6620  143.5070 C   0  0  1  0  0  0  0  0  0  0  0  0
  188.8560  176.6050  143.5240 C   0  0  0  0  0  3  0  0  0  0  0  0
  192.4780  169.1140  144.0000 O   0  0  0  0  0  0  0  0  0  0  0  0
  193.5040  168.5850  144.8310 C   0  0  0  0  0  1  0  0  0  0  0  0
  188.0110  172.5460  140.1530 O   0  0  0  0  0  1  0  0  0  0  0  0
  189.1280  173.2400  139.6820 C   0  0  0  0  0  2  0  0  0  0  0  0
  194.1450  175.7530  141.3210 C   0  0  0  0  0  2  0  0  0  0  0  0
  196.0580  177.1610  141.2690 O   0  0  0  0  0  1  0  0  0  0  0  0
  195.5730  175.9260  140.8440 C   0  0  0  0  0  2  0  0  0  0  0  0
  195.1440  176.0190  144.7720 C   0  0  0  0  0  2  0  0  0  0  0  0
  195.3160  175.0260  145.9020 C   0  0  0  0  0  2  0  0  0  0  0  0
  196.1550  172.7060  145.7670 C   0  0  0  0  0  1  0  0  0  0  0  0
  196.5320  174.1660  145.6350 C   0  0  0  0  0  2  0  0  0  0  0  0
  188.3530  177.9210  144.0340 C   0  0  0  0  0  2  0  0  0  0  0  0
  187.4770  176.8740  146.1320 C   0  0  0  0  0  3  0  0  0  0  0  0
  187.2620  177.7020  145.0240 C   0  0  0  0  0  0  0  0  0  0  0  0
  186.0120  178.3020  144.8330 C   0  0  0  0  0  3  0  0  0  0  0  0
  183.7730  178.6640  145.5680 F   0  0  0  0  0  0  0  0  0  0  0  0
  185.1990  177.2580  146.8620 C   0  0  0  0  0  3  0  0  0  0  0  0
  184.9830  178.0810  145.7520 C   0  0  0  0  0  0  0  0  0  0  0  0
  186.4470  176.6540  147.0510 C   0  0  0  0  0  3  0  0  0  0  0  0
  1 17  1  0  0  0  0
  1 16  1  0  0  0  0
  4 15  1  0  0  0  0
  5  2  1  6  0  0  0
  5  7  1  0  0  0  0
  6  4  2  0  0  0  0
  6  9  1  0  0  0  0
  7 18  2  0  0  0  0
  7 13  1  0  0  0  0
  8 11  1  0  0  0  0
  8  6  1  0  0  0  0
  9 12  2  0  0  0  0
 11  2  2  0  0  0  0
 12 10  1  0  0  0  0
 13  3  1  0  0  0  0
 14  5  1  0  0  0  0
 14  9  1  1  0  0  0
 14 17  1  0  0  0  0
 15 19  1  0  0  0  0
 15 10  2  0  0  0  0
 16 26  1  1  0  0  0
 17 16  1  0  0  0  0
 17  3  1  1  0  0  0
 18 30  1  0  0  0  0
 19 20  1  0  0  0  0
 22 21  1  0  0  0  0
 22 11  1  0  0  0  0
 23  1  1  0  0  0  0
 25 24  1  0  0  0  0
 25 23  1  0  0  0  0
 26 27  1  0  0  0  0
 29 28  1  0  0  0  0
 29 27  1  0  0  0  0
 30 32  1  0  0  0  0
 31 37  1  0  0  0  0
 32 31  2  0  0  0  0
 33 32  1  0  0  0  0
 33 36  2  0  0  0  0
 34 36  1  0  0  0  0
 35 37  2  0  0  0  0
 36 35  1  0  0  0  0
M  END
>  <MODEL>
6

>  <REMARK>
 VINA RESULT:      -7.0      2.352      5.695
  Name = 
  9 active torsions:
  status: ('A' for Active; 'I' for Inactive)
    1  A    between atoms: N_1  and  C_5
    2  A    between atoms: O_3  and  C_32
    3  A    between atoms: C_5  and  C_23
    4  A    between atoms: C_6  and  C_31
    5  A    between atoms: C_17  and  C_26
    6  A    between atoms: C_17  and  C_33
    7  A    between atoms: C_24  and  C_28
    8  A    between atoms: C_26  and  C_34
    9  A    between atoms: C_31  and  C_37
                            x       y       z     vdW  Elec       q    Type
                         _______ _______ _______ _____ _____    ______ ____

>  <TORSDO>
F 9

$$$$
=
 OpenBabel11052420003D

 37 41  0  0  1  0  0  0  0  0999 V2000
  190.3790  171.8700  141.9800 N   0  0  0  0  0  0  0  0  0  0  0  0
  190.8640  175.3310  145.1250 C   0  0  0  0  0  3  0  0  0  0  0  0
  189.3610  174.0010  141.2400 C   0  0  0  0  0  2  0  0  0  0  0  0
  194.8490  175.2460  143.6210 C   0  0  0  0  0  3  0  0  0  0  0  0
  190.5620  175.1960  143.6470 C   0  0  2  0  0  3  0  0  0  0  0  0
  193.5810  174.6910  143.8100 C   0  0  0  0  0  0  0  0  0  0  0  0
  189.0800  175.2930  143.3390 C   0  0  0  0  0  0  0  0  0  0  0  0
  193.1670  174.2420  145.1790 C   0  0  0  0  0  2  0  0  0  0  0  0
  192.7210  174.5170  142.7140 C   0  0  0  0  0  0  0  0  0  0  0  0
  194.3870  175.5220  141.2620 C   0  0  0  0  0  3  0  0  0  0  0  0
  192.0030  175.0030  145.7760 C   0  0  0  0  0  0  0  0  0  0  0  0
  193.1180  174.9660  141.4460 C   0  0  0  0  0  3  0  0  0  0  0  0
  188.4260  174.3200  142.3930 C   0  0  0  0  0  2  0  0  0  0  0  0
  191.3250  174.0390  142.9830 C   0  0  2  0  0  3  0  0  0  0  0  0
  195.2610  175.6610  142.3450 C   0  0  0  0  0  0  0  0  0  0  0  0
  191.3680  172.3520  140.9980 C   0  0  2  0  0  3  0  0  0  0  0  0
  190.6120  173.3310  141.8000 C   0  0  1  0  0  0  0  0  0  0  0  0
  188.3730  176.3050  143.8610 C   0  0  0  0  0  3  0  0  0  0  0  0
  196.5240  176.2160  142.1250 O   0  0  0  0  0  0  0  0  0  0  0  0
  197.2480  176.9010  143.1400 C   0  0  0  0  0  1  0  0  0  0  0  0
  190.7840  175.4180  147.7650 O   0  0  0  0  0  1  0  0  0  0  0  0
  192.0710  175.2770  147.2420 C   0  0  0  0  0  2  0  0  0  0  0  0
  191.1550  171.2860  143.0690 C   0  0  0  0  0  2  0  0  0  0  0  0
  190.8130  169.2030  141.9780 O   0  0  0  0  0  1  0  0  0  0  0  0
  191.7800  169.9850  142.6070 C   0  0  0  0  0  2  0  0  0  0  0  0
  190.8250  172.1590  139.5900 C   0  0  0  0  0  2  0  0  0  0  0  0
  191.9020  172.4990  138.5820 C   0  0  0  0  0  2  0  0  0  0  0  0
  190.1050  173.7950  137.4880 C   0  0  0  0  0  1  0  0  0  0  0  0
  191.5610  173.8090  137.9050 C   0  0  0  0  0  2  0  0  0  0  0  0
  186.9150  176.5160  143.5900 C   0  0  0  0  0  2  0  0  0  0  0  0
  186.7580  176.7770  146.0750 C   0  0  0  0  0  3  0  0  0  0  0  0
  186.2430  177.0580  144.8040 C   0  0  0  0  0  0  0  0  0  0  0  0
  185.0800  177.8270  144.6760 C   0  0  0  0  0  3  0  0  0  0  0  0
  183.3150  179.0660  145.6920 F   0  0  0  0  0  0  0  0  0  0  0  0
  184.9570  178.0430  147.0860 C   0  0  0  0  0  3  0  0  0  0  0  0
  184.4390  178.3200  145.8160 C   0  0  0  0  0  0  0  0  0  0  0  0
  186.1160  177.2710  147.2140 C   0  0  0  0  0  3  0  0  0  0  0  0
  1 23  1  0  0  0  0
  2 11  2  0  0  0  0
  3 13  1  0  0  0  0
  4  6  1  0  0  0  0
  5  2  1  1  0  0  0
  6  8  1  0  0  0  0
  7  5  1  0  0  0  0
  7 18  2  0  0  0  0
  8 11  1  0  0  0  0
  9  6  2  0  0  0  0
 10 12  2  0  0  0  0
 10 15  1  0  0  0  0
 11 22  1  0  0  0  0
 12  9  1  0  0  0  0
 13  7  1  0  0  0  0
 14  9  1  6  0  0  0
 14  5  1  0  0  0  0
 15  4  2  0  0  0  0
 16 26  1  6  0  0  0
 16 17  1  0  0  0  0
 16  1  1  0  0  0  0
 17  3  1  6  0  0  0
 17  1  1  0  0  0  0
 17 14  1  0  0  0  0
 19 15  1  0  0  0  0
 19 20  1  0  0  0  0
 22 21  1  0  0  0  0
 24 25  1  0  0  0  0
 25 23  1  0  0  0  0
 27 26  1  0  0  0  0
 28 29  1  0  0  0  0
 29 27  1  0  0  0  0
 30 18  1  0  0  0  0
 30 32  1  0  0  0  0
 31 37  1  0  0  0  0
 32 31  2  0  0  0  0
 33 32  1  0  0  0  0
 33 36  2  0  0  0  0
 34 36  1  0  0  0  0
 35 37  2  0  0  0  0
 36 35  1  0  0  0  0
M  END
>  <MODEL>
7

>  <REMARK>
 VINA RESULT:      -6.9      1.708      2.012
  Name = 
  9 active torsions:
  status: ('A' for Active; 'I' for Inactive)
    1  A    between atoms: N_1  and  C_5
    2  A    between atoms: O_3  and  C_32
    3  A    between atoms: C_5  and  C_23
    4  A    between atoms: C_6  and  C_31
    5  A    between atoms: C_17  and  C_26
    6  A    between atoms: C_17  and  C_33
    7  A    between atoms: C_24  and  C_28
    8  A    between atoms: C_26  and  C_34
    9  A    between atoms: C_31  and  C_37
                            x       y       z     vdW  Elec       q    Type
                         _______ _______ _______ _____ _____    ______ ____

>  <TORSDO>
F 9

$$$$
=
 OpenBabel11052420003D

 37 41  0  0  1  0  0  0  0  0999 V2000
  189.6660  176.8840  142.0090 N   0  0  0  0  0  0  0  0  0  0  0  0
  190.4560  174.9880  146.2380 C   0  0  0  0  0  3  0  0  0  0  0  0
  188.8170  174.5680  142.2060 C   0  0  0  0  0  2  0  0  0  0  0  0
  187.2550  177.6000  147.2760 C   0  0  0  0  0  3  0  0  0  0  0  0
  189.5470  174.7400  145.0520 C   0  0  2  0  0  3  0  0  0  0  0  0
  188.2790  177.1660  146.4310 C   0  0  0  0  0  0  0  0  0  0  0  0
  190.0550  173.6370  144.1430 C   0  0  0  0  0  0  0  0  0  0  0  0
  189.7080  177.3450  146.8480 C   0  0  0  0  0  2  0  0  0  0  0  0
  187.9680  176.6060  145.1820 C   0  0  0  0  0  0  0  0  0  0  0  0
  185.6040  176.8590  145.6700 C   0  0  0  0  0  3  0  0  0  0  0  0
  190.4780  176.0610  147.0610 C   0  0  0  0  0  0  0  0  0  0  0  0
  186.6250  176.4250  144.8210 C   0  0  0  0  0  3  0  0  0  0  0  0
  190.0580  173.8140  142.6480 C   0  0  0  0  0  2  0  0  0  0  0  0
  189.0900  176.0370  144.3660 C   0  0  2  0  0  3  0  0  0  0  0  0
  185.9110  177.4530  146.8990 C   0  0  0  0  0  0  0  0  0  0  0  0
  188.2160  177.1070  142.1570 C   0  0  2  0  0  3  0  0  0  0  0  0
  188.8430  175.9570  142.8360 C   0  0  1  0  0  0  0  0  0  0  0  0
  190.4310  172.4700  144.6850 C   0  0  0  0  0  3  0  0  0  0  0  0
  184.8660  177.8810  147.7220 O   0  0  0  0  0  0  0  0  0  0  0  0
  183.7780  178.6590  147.2400 C   0  0  0  0  0  1  0  0  0  0  0  0
  191.5790  177.3300  148.7320 O   0  0  0  0  0  1  0  0  0  0  0  0
  191.4470  176.0470  148.1960 C   0  0  0  0  0  2  0  0  0  0  0  0
  190.3100  177.9410  142.7830 C   0  0  0  0  0  2  0  0  0  0  0  0
  192.1280  177.5450  144.2600 O   0  0  0  0  0  1  0  0  0  0  0  0
  191.7910  177.6470  142.9120 C   0  0  0  0  0  2  0  0  0  0  0  0
  187.5090  176.7450  140.8590 C   0  0  0  0  0  2  0  0  0  0  0  0
  186.3340  177.6760  140.6470 C   0  0  0  0  0  2  0  0  0  0  0  0
  184.5180  178.1820  142.2440 C   0  0  0  0  0  1  0  0  0  0  0  0
  185.9930  178.3590  141.9540 C   0  0  0  0  0  2  0  0  0  0  0  0
  190.9100  171.3040  143.8770 C   0  0  0  0  0  2  0  0  0  0  0  0
  192.7630  169.6370  144.1090 C   0  0  0  0  0  3  0  0  0  0  0  0
  192.3030  170.9490  144.2680 C   0  0  0  0  0  0  0  0  0  0  0  0
  193.1440  171.9210  144.8210 C   0  0  0  0  0  3  0  0  0  0  0  0
  195.2600  172.5260  145.7390 F   0  0  0  0  0  0  0  0  0  0  0  0
  194.9060  170.2730  145.0420 C   0  0  0  0  0  3  0  0  0  0  0  0
  194.4450  171.5840  145.2060 C   0  0  0  0  0  0  0  0  0  0  0  0
  194.0640  169.3000  144.4940 C   0  0  0  0  0  3  0  0  0  0  0  0
  1 16  1  0  0  0  0
  1 23  1  0  0  0  0
  1 17  1  0  0  0  0
  2 11  2  0  0  0  0
  3 13  1  0  0  0  0
  5  2  1  1  0  0  0
  6  8  1  0  0  0  0
  6  4  2  0  0  0  0
  7 18  2  0  0  0  0
  7  5  1  0  0  0  0
  8 11  1  0  0  0  0
  9  6  1  0  0  0  0
 10 15  2  0  0  0  0
 11 22  1  0  0  0  0
 12  9  2  0  0  0  0
 12 10  1  0  0  0  0
 13  7  1  0  0  0  0
 14  5  1  0  0  0  0
 14  9  1  1  0  0  0
 15  4  1  0  0  0  0
 15 19  1  0  0  0  0
 16 26  1  6  0  0  0
 16 17  1  0  0  0  0
 17  3  1  6  0  0  0
 17 14  1  0  0  0  0
 20 19  1  0  0  0  0
 22 21  1  0  0  0  0
 23 25  1  0  0  0  0
 25 24  1  0  0  0  0
 27 26  1  0  0  0  0
 27 29  1  0  0  0  0
 29 28  1  0  0  0  0
 30 32  1  0  0  0  0
 30 18  1  0  0  0  0
 31 32  2  0  0  0  0
 31 37  1  0  0  0  0
 32 33  1  0  0  0  0
 33 36  2  0  0  0  0
 35 36  1  0  0  0  0
 36 34  1  0  0  0  0
 37 35  2  0  0  0  0
M  END
>  <MODEL>
8

>  <REMARK>
 VINA RESULT:      -6.7      3.174      7.615
  Name = 
  9 active torsions:
  status: ('A' for Active; 'I' for Inactive)
    1  A    between atoms: N_1  and  C_5
    2  A    between atoms: O_3  and  C_32
    3  A    between atoms: C_5  and  C_23
    4  A    between atoms: C_6  and  C_31
    5  A    between atoms: C_17  and  C_26
    6  A    between atoms: C_17  and  C_33
    7  A    between atoms: C_24  and  C_28
    8  A    between atoms: C_26  and  C_34
    9  A    between atoms: C_31  and  C_37
                            x       y       z     vdW  Elec       q    Type
                         _______ _______ _______ _____ _____    ______ ____

>  <TORSDO>
F 9

$$$$
=
 OpenBabel11052420003D

 37 41  0  0  1  0  0  0  0  0999 V2000
  189.8980  174.7300  145.9660 N   0  0  0  0  0  0  0  0  0  0  0  0
  191.7470  174.5660  141.6480 C   0  0  0  0  0  3  0  0  0  0  0  0
  191.4210  176.6220  145.4920 C   0  0  0  0  0  2  0  0  0  0  0  0
  187.8090  175.8280  140.6280 C   0  0  0  0  0  3  0  0  0  0  0  0
  191.5350  175.5970  142.7360 C   0  0  2  0  0  3  0  0  0  0  0  0
  188.7480  175.2740  141.5020 C   0  0  0  0  0  0  0  0  0  0  0  0
  192.7780  175.8340  143.5720 C   0  0  0  0  0  0  0  0  0  0  0  0
  189.3220  173.9210  141.2080 C   0  0  0  0  0  2  0  0  0  0  0  0
  189.1160  175.9660  142.6660 C   0  0  0  0  0  0  0  0  0  0  0  0
  187.6470  177.7920  142.0330 C   0  0  0  0  0  3  0  0  0  0  0  0
  190.8100  173.9040  140.9330 C   0  0  0  0  0  0  0  0  0  0  0  0
  188.5860  177.2410  142.9100 C   0  0  0  0  0  3  0  0  0  0  0  0
  192.6920  175.9060  145.0740 C   0  0  0  0  0  2  0  0  0  0  0  0
  190.2200  175.3950  143.5060 C   0  0  2  0  0  3  0  0  0  0  0  0
  187.2490  177.0890  140.8920 C   0  0  0  0  0  0  0  0  0  0  0  0
  188.9460  175.8320  145.7350 C   0  0  2  0  0  3  0  0  0  0  0  0
  190.2240  175.8160  144.9990 C   0  0  1  0  0  0  0  0  0  0  0  0
  193.9460  176.0540  142.9520 C   0  0  0  0  0  3  0  0  0  0  0  0
  186.3050  177.6660  140.0380 O   0  0  0  0  0  0  0  0  0  0  0  0
  185.0930  178.2390  140.5100 C   0  0  0  0  0  1  0  0  0  0  0  0
  190.3120  171.9800  139.6410 O   0  0  0  0  0  1  0  0  0  0  0  0
  191.2780  172.9610  139.8740 C   0  0  0  0  0  2  0  0  0  0  0  0
  189.3000  173.5540  145.3440 C   0  0  0  0  0  2  0  0  0  0  0  0
  190.0570  171.8870  143.8300 O   0  0  0  0  0  1  0  0  0  0  0  0
  190.3840  172.5470  145.0130 C   0  0  0  0  0  2  0  0  0  0  0  0
  188.9410  176.7630  146.9380 C   0  0  0  0  0  2  0  0  0  0  0  0
  187.6360  177.5310  146.9780 C   0  0  0  0  0  2  0  0  0  0  0  0
  185.3020  176.8660  146.5130 C   0  0  0  0  0  1  0  0  0  0  0  0
  186.6950  176.9750  145.9310 C   0  0  0  0  0  2  0  0  0  0  0  0
  195.2240  176.3370  143.6800 C   0  0  0  0  0  2  0  0  0  0  0  0
  196.2710  174.1860  142.9420 C   0  0  0  0  0  3  0  0  0  0  0  0
  195.9340  175.0620  143.9800 C   0  0  0  0  0  0  0  0  0  0  0  0
  196.2390  174.7250  145.3040 C   0  0  0  0  0  3  0  0  0  0  0  0
  197.1860  173.1950  146.8680 F   0  0  0  0  0  0  0  0  0  0  0  0
  197.2290  172.6470  144.5480 C   0  0  0  0  0  3  0  0  0  0  0  0
  196.8880  173.5190  145.5860 C   0  0  0  0  0  0  0  0  0  0  0  0
  196.9200  172.9810  143.2250 C   0  0  0  0  0  3  0  0  0  0  0  0
  4 15  2  0  0  0  0
  4  6  1  0  0  0  0
  5  2  1  1  0  0  0
  5 14  1  0  0  0  0
  5  7  1  0  0  0  0
  6  9  2  0  0  0  0
  7 13  1  0  0  0  0
  8  6  1  0  0  0  0
  9 12  1  0  0  0  0
 10 12  2  0  0  0  0
 11  8  1  0  0  0  0
 11  2  2  0  0  0  0
 13  3  1  0  0  0  0
 14  9  1  6  0  0  0
 14 17  1  0  0  0  0
 15 10  1  0  0  0  0
 16  1  1  0  0  0  0
 16 26  1  1  0  0  0
 17  3  1  1  0  0  0
 17 16  1  0  0  0  0
 17  1  1  0  0  0  0
 18  7  2  0  0  0  0
 18 30  1  0  0  0  0
 19 20  1  0  0  0  0
 19 15  1  0  0  0  0
 21 22  1  0  0  0  0
 22 11  1  0  0  0  0
 23  1  1  0  0  0  0
 24 25  1  0  0  0  0
 25 23  1  0  0  0  0
 26 27  1  0  0  0  0
 29 28  1  0  0  0  0
 29 27  1  0  0  0  0
 30 32  1  0  0  0  0
 31 37  2  0  0  0  0
 31 32  1  0  0  0  0
 32 33  2  0  0  0  0
 33 36  1  0  0  0  0
 35 36  2  0  0  0  0
 36 34  1  0  0  0  0
 37 35  1  0  0  0  0
M  END
>  <MODEL>
9

>  <REMARK>
 VINA RESULT:      -6.7      3.125      8.059
  Name = 
  9 active torsions:
  status: ('A' for Active; 'I' for Inactive)
    1  A    between atoms: N_1  and  C_5
    2  A    between atoms: O_3  and  C_32
    3  A    between atoms: C_5  and  C_23
    4  A    between atoms: C_6  and  C_31
    5  A    between atoms: C_17  and  C_26
    6  A    between atoms: C_17  and  C_33
    7  A    between atoms: C_24  and  C_28
    8  A    between atoms: C_26  and  C_34
    9  A    between atoms: C_31  and  C_37
                            x       y       z     vdW  Elec       q    Type
                         _______ _______ _______ _____ _____    ______ ____

>  <TORSDO>
F 9

$$$$
