=
 OpenBabel11052418403D

 34 39  0  0  1  0  0  0  0  0999 V2000
  185.3020  177.7370  143.4220 C   0  0  0  0  0  0  0  0  0  0  0  0
  185.4560  178.0000  145.8930 N   0  0  0  0  0  0  0  0  0  0  0  0
  187.1950  176.7000  144.6560 C   0  0  0  0  0  0  0  0  0  0  0  0
  190.0050  175.7910  144.4400 N   0  0  2  0  0  0  0  0  0  0  0  0
  185.5880  177.9740  140.8780 C   0  0  0  0  0  1  0  0  0  0  0  0
  184.0880  178.4040  146.1730 C   0  0  0  0  0  1  0  0  0  0  0  0
  187.5800  177.5480  146.9090 C   0  0  0  0  0  3  0  0  0  0  0  0
  185.7420  177.1350  144.7350 C   0  0  2  0  0  3  0  0  0  0  0  0
  189.3410  176.0600  145.7300 C   0  0  2  0  0  3  0  0  0  0  0  0
  184.2680  178.4580  143.3610 O   0  0  0  0  0  0  0  0  0  0  0  0
  187.6270  175.9870  143.4030 C   0  0  2  0  0  3  0  0  0  0  0  0
  186.0270  177.3990  142.1820 C   0  0  0  0  0  0  0  0  0  0  0  0
  186.3800  178.1090  146.9780 C   0  0  0  0  0  3  0  0  0  0  0  0
  189.9770  176.9940  143.5730 C   0  0  0  0  0  2  0  0  0  0  0  0
  189.1510  175.8310  143.2290 C   0  0  1  0  0  0  0  0  0  0  0  0
  188.0190  176.8110  145.7060 C   0  0  0  0  0  0  0  0  0  0  0  0
  187.0810  176.6390  142.2080 N   0  0  0  0  0  0  0  0  0  0  0  0
  189.8850  172.5390  142.9500 C   0  0  1  0  0  3  0  0  0  0  0  0
  191.1470  173.0280  143.3760 O   0  0  0  0  0  0  0  0  0  0  0  0
  189.6580  174.9340  142.0790 C   0  0  2  0  0  3  0  0  0  0  0  0
  191.8100  173.6060  142.2790 C   0  0  0  0  0  2  0  0  0  0  0  0
  189.0900  173.5050  142.0480 C   0  0  0  0  0  2  0  0  0  0  0  0
  191.1880  174.9620  141.9470 C   0  0  0  0  0  2  0  0  0  0  0  0
  190.0140  171.1740  142.2960 C   0  0  0  0  0  1  0  0  0  0  0  0
  190.3610  176.6150  146.7230 C   0  0  0  0  0  2  0  0  0  0  0  0
  191.5930  175.7320  146.7550 C   0  0  0  0  0  2  0  0  0  0  0  0
  192.8110  176.5550  147.1470 C   0  0  0  0  0  2  0  0  0  0  0  0
  194.9650  178.2140  145.7760 F   0  0  0  0  0  0  0  0  0  0  0  0
  194.0680  176.0890  146.4180 C   0  0  2  0  0  3  0  0  0  0  0  0
  194.4540  177.0330  145.2660 C   0  0  2  0  0  3  0  0  0  0  0  0
  194.8900  175.1190  143.7450 C   0  0  0  0  0  2  0  0  0  0  0  0
  194.3560  174.1930  144.8060 C   0  0  0  0  0  3  0  0  0  0  0  0
  193.9440  174.6400  146.0010 C   0  0  0  0  0  3  0  0  0  0  0  0
  195.4920  176.3780  144.3610 C   0  0  0  0  0  2  0  0  0  0  0  0
  2  6  1  0  0  0  0
  2 13  1  0  0  0  0
  3  8  1  0  0  0  0
  3 16  2  0  0  0  0
  4 14  1  6  0  0  0
  4  9  1  0  0  0  0
  5 12  1  0  0  0  0
  7 13  2  0  0  0  0
  8  1  1  6  0  0  0
  8  2  1  0  0  0  0
  9 25  1  1  0  0  0
 10  1  2  0  0  0  0
 11 17  1  6  0  0  0
 11  3  1  0  0  0  0
 12 17  2  0  0  0  0
 12  1  1  0  0  0  0
 15 11  1  0  0  0  0
 15 14  1  6  0  0  0
 15  4  1  0  0  0  0
 16  9  1  0  0  0  0
 16  7  1  0  0  0  0
 18 24  1  6  0  0  0
 18 19  1  0  0  0  0
 20 23  1  1  0  0  0
 20 15  1  0  0  0  0
 21 19  1  0  0  0  0
 22 20  1  0  0  0  0
 22 18  1  0  0  0  0
 23 21  1  0  0  0  0
 25 26  1  0  0  0  0
 26 27  1  0  0  0  0
 29 27  1  6  0  0  0
 30 28  1  1  0  0  0
 30 29  1  0  0  0  0
 31 34  1  0  0  0  0
 31 32  1  0  0  0  0
 32 33  2  0  0  0  0
 33 29  1  0  0  0  0
 34 30  1  0  0  0  0
M  END
>  <MODEL>
1

>  <REMARK>
 VINA RESULT:      -8.6      0.000      0.000
  Name = 
  5 active torsions:
  status: ('A' for Active; 'I' for Inactive)
    1  A    between atoms: C_3  and  C_13
    2  A    between atoms: C_3  and  C_17
    3  A    between atoms: C_12  and  C_28
    4  A    between atoms: C_17  and  C_29
    5  A    between atoms: C_18  and  C_29
                            x       y       z     vdW  Elec       q    Type
                         _______ _______ _______ _____ _____    ______ ____

>  <TORSDO>
F 5

$$$$
=
 OpenBabel11052418403D

 34 39  0  0  1  0  0  0  0  0999 V2000
  194.6130  175.4300  143.8420 C   0  0  0  0  0  0  0  0  0  0  0  0
  193.8960  176.8150  145.7820 N   0  0  0  0  0  0  0  0  0  0  0  0
  192.2270  175.4290  144.5420 C   0  0  0  0  0  0  0  0  0  0  0  0
  189.7230  173.8490  144.5690 N   0  0  2  0  0  0  0  0  0  0  0  0
  195.3540  173.5080  142.3040 C   0  0  0  0  0  1  0  0  0  0  0  0
  195.0360  177.7130  145.8660 C   0  0  0  0  0  1  0  0  0  0  0  0
  191.7820  176.2850  146.7800 C   0  0  0  0  0  3  0  0  0  0  0  0
  193.5110  176.2390  144.4820 C   0  0  2  0  0  3  0  0  0  0  0  0
  189.9610  174.9990  145.4630 C   0  0  2  0  0  3  0  0  0  0  0  0
  195.8210  175.7610  143.9900 O   0  0  0  0  0  0  0  0  0  0  0  0
  191.8630  174.6350  143.3170 C   0  0  2  0  0  3  0  0  0  0  0  0
  194.2730  174.3000  142.9550 C   0  0  0  0  0  0  0  0  0  0  0  0
  192.9670  176.8740  146.8670 C   0  0  0  0  0  3  0  0  0  0  0  0
  190.7700  172.8150  144.7520 C   0  0  0  0  0  2  0  0  0  0  0  0
  190.7350  173.6030  143.5140 C   0  0  1  0  0  0  0  0  0  0  0  0
  191.3820  175.5290  145.5770 C   0  0  0  0  0  0  0  0  0  0  0  0
  193.0360  173.9480  142.7630 N   0  0  0  0  0  0  0  0  0  0  0  0
  188.7340  174.5780  140.9650 C   0  0  1  0  0  3  0  0  0  0  0  0
  187.7470  174.1370  141.8860 O   0  0  0  0  0  0  0  0  0  0  0  0
  190.1700  172.9030  142.2600 C   0  0  2  0  0  3  0  0  0  0  0  0
  187.6730  172.7330  141.8430 C   0  0  0  0  0  2  0  0  0  0  0  0
  190.0520  173.7790  141.0020 C   0  0  0  0  0  2  0  0  0  0  0  0
  188.8800  172.1240  142.5570 C   0  0  0  0  0  2  0  0  0  0  0  0
  188.1800  174.6400  139.5520 C   0  0  0  0  0  1  0  0  0  0  0  0
  189.2730  174.7540  146.8040 C   0  0  0  0  0  2  0  0  0  0  0  0
  188.1240  175.7250  146.9870 C   0  0  0  0  0  2  0  0  0  0  0  0
  188.1460  176.7700  145.8810 C   0  0  0  0  0  2  0  0  0  0  0  0
  187.3350  178.3960  143.4390 F   0  0  0  0  0  0  0  0  0  0  0  0
  186.7540  177.0160  145.3060 C   0  0  2  0  0  3  0  0  0  0  0  0
  186.6400  178.3960  144.6350 C   0  0  2  0  0  3  0  0  0  0  0  0
  184.4400  178.8170  145.7080 C   0  0  0  0  0  2  0  0  0  0  0  0
  184.6160  177.5480  146.4990 C   0  0  0  0  0  3  0  0  0  0  0  0
  185.6870  176.7550  146.3470 C   0  0  0  0  0  3  0  0  0  0  0  0
  185.1780  178.7450  144.3750 C   0  0  0  0  0  2  0  0  0  0  0  0
  1 10  2  0  0  0  0
  2  6  1  0  0  0  0
  2 13  1  0  0  0  0
  3 16  2  0  0  0  0
  4 14  1  1  0  0  0
  4  9  1  0  0  0  0
  5 12  1  0  0  0  0
  7 13  2  0  0  0  0
  8  1  1  1  0  0  0
  8  3  1  0  0  0  0
  8  2  1  0  0  0  0
  9 16  1  0  0  0  0
  9 25  1  1  0  0  0
 11 17  1  1  0  0  0
 11 15  1  0  0  0  0
 11  3  1  0  0  0  0
 12  1  1  0  0  0  0
 15  4  1  0  0  0  0
 15 14  1  1  0  0  0
 16  7  1  0  0  0  0
 17 12  2  0  0  0  0
 18 24  1  6  0  0  0
 18 22  1  0  0  0  0
 18 19  1  0  0  0  0
 20 22  1  6  0  0  0
 20 23  1  0  0  0  0
 20 15  1  0  0  0  0
 21 19  1  0  0  0  0
 21 23  1  0  0  0  0
 25 26  1  0  0  0  0
 27 26  1  0  0  0  0
 29 27  1  1  0  0  0
 29 33  1  0  0  0  0
 30 28  1  6  0  0  0
 30 29  1  0  0  0  0
 31 32  1  0  0  0  0
 33 32  2  0  0  0  0
 34 30  1  0  0  0  0
 34 31  1  0  0  0  0
M  END
>  <MODEL>
2

>  <REMARK>
 VINA RESULT:      -8.3      2.714      6.885
  Name = 
  5 active torsions:
  status: ('A' for Active; 'I' for Inactive)
    1  A    between atoms: C_3  and  C_13
    2  A    between atoms: C_3  and  C_17
    3  A    between atoms: C_12  and  C_28
    4  A    between atoms: C_17  and  C_29
    5  A    between atoms: C_18  and  C_29
                            x       y       z     vdW  Elec       q    Type
                         _______ _______ _______ _____ _____    ______ ____

>  <TORSDO>
F 5

$$$$
=
 OpenBabel11052418403D

 34 39  0  0  1  0  0  0  0  0999 V2000
  185.7740  177.3780  143.5510 C   0  0  0  0  0  0  0  0  0  0  0  0
  186.1250  177.6680  145.9990 N   0  0  0  0  0  0  0  0  0  0  0  0
  187.7720  176.3740  144.6380 C   0  0  0  0  0  0  0  0  0  0  0  0
  190.5660  175.4930  144.2030 N   0  0  2  0  0  0  0  0  0  0  0  0
  185.8510  177.5920  140.9900 C   0  0  0  0  0  1  0  0  0  0  0  0
  184.7790  178.0610  146.3850 C   0  0  0  0  0  1  0  0  0  0  0  0
  188.3290  177.2490  146.8430 C   0  0  0  0  0  3  0  0  0  0  0  0
  186.3260  176.7940  144.8300 C   0  0  2  0  0  3  0  0  0  0  0  0
  190.0060  175.7680  145.5400 C   0  0  2  0  0  3  0  0  0  0  0  0
  184.7310  178.0880  143.5670 O   0  0  0  0  0  0  0  0  0  0  0  0
  188.1100  175.6530  143.3600 C   0  0  2  0  0  3  0  0  0  0  0  0
  186.4000  177.0360  142.2590 C   0  0  0  0  0  0  0  0  0  0  0  0
  187.1320  177.7980  147.0040 C   0  0  0  0  0  3  0  0  0  0  0  0
  190.4540  176.6870  143.3300 C   0  0  0  0  0  2  0  0  0  0  0  0
  189.6160  175.5110  143.0640 C   0  0  1  0  0  0  0  0  0  0  0  0
  188.6780  176.5050  145.6160 C   0  0  0  0  0  0  0  0  0  0  0  0
  187.4620  176.2880  142.2070 N   0  0  0  0  0  0  0  0  0  0  0  0
  190.2470  172.2030  142.7330 C   0  0  1  0  0  3  0  0  0  0  0  0
  191.5430  172.6570  143.0950 O   0  0  0  0  0  0  0  0  0  0  0  0
  190.0390  174.6080  141.8860 C   0  0  2  0  0  3  0  0  0  0  0  0
  192.1630  173.2240  141.9670 C   0  0  0  0  0  2  0  0  0  0  0  0
  189.4330  173.1950  141.8780 C   0  0  0  0  0  2  0  0  0  0  0  0
  191.5600  174.5980  141.6740 C   0  0  0  0  0  2  0  0  0  0  0  0
  190.3070  170.8390  142.0670 C   0  0  0  0  0  1  0  0  0  0  0  0
  191.0960  176.3440  146.4410 C   0  0  0  0  0  2  0  0  0  0  0  0
  192.3170  175.4440  146.4250 C   0  0  0  0  0  2  0  0  0  0  0  0
  193.5780  176.2790  146.5950 C   0  0  0  0  0  2  0  0  0  0  0  0
  193.7370  176.6380  143.5760 F   0  0  0  0  0  0  0  0  0  0  0  0
  194.6780  175.8460  145.6300 C   0  0  2  0  0  3  0  0  0  0  0  0
  194.1220  175.4870  144.2410 C   0  0  2  0  0  3  0  0  0  0  0  0
  195.5320  173.4470  144.1230 C   0  0  0  0  0  2  0  0  0  0  0  0
  195.9580  173.6940  145.5450 C   0  0  0  0  0  3  0  0  0  0  0  0
  195.5360  174.7600  146.2420 C   0  0  0  0  0  3  0  0  0  0  0  0
  195.1730  174.7510  143.4170 C   0  0  0  0  0  2  0  0  0  0  0  0
  1 10  2  0  0  0  0
  2  6  1  0  0  0  0
  2 13  1  0  0  0  0
  3  8  1  0  0  0  0
  3 16  2  0  0  0  0
  4 14  1  6  0  0  0
  4  9  1  0  0  0  0
  5 12  1  0  0  0  0
  7 13  2  0  0  0  0
  8  1  1  6  0  0  0
  8  2  1  0  0  0  0
  9 16  1  0  0  0  0
  9 25  1  1  0  0  0
 11 17  1  6  0  0  0
 11  3  1  0  0  0  0
 12  1  1  0  0  0  0
 15 14  1  6  0  0  0
 15 11  1  0  0  0  0
 15  4  1  0  0  0  0
 16  7  1  0  0  0  0
 17 12  2  0  0  0  0
 18 24  1  6  0  0  0
 18 19  1  0  0  0  0
 20 23  1  1  0  0  0
 20 15  1  0  0  0  0
 21 19  1  0  0  0  0
 22 20  1  0  0  0  0
 22 18  1  0  0  0  0
 23 21  1  0  0  0  0
 26 25  1  0  0  0  0
 26 27  1  0  0  0  0
 29 33  1  0  0  0  0
 29 27  1  1  0  0  0
 30 28  1  6  0  0  0
 30 29  1  0  0  0  0
 31 32  1  0  0  0  0
 32 33  2  0  0  0  0
 34 31  1  0  0  0  0
 34 30  1  0  0  0  0
M  END
>  <MODEL>
3

>  <REMARK>
 VINA RESULT:      -8.1      0.949      1.064
  Name = 
  5 active torsions:
  status: ('A' for Active; 'I' for Inactive)
    1  A    between atoms: C_3  and  C_13
    2  A    between atoms: C_3  and  C_17
    3  A    between atoms: C_12  and  C_28
    4  A    between atoms: C_17  and  C_29
    5  A    between atoms: C_18  and  C_29
                            x       y       z     vdW  Elec       q    Type
                         _______ _______ _______ _____ _____    ______ ____

>  <TORSDO>
F 5

$$$$
=
 OpenBabel11052418403D

 34 39  0  0  1  0  0  0  0  0999 V2000
  190.6740  173.3170  140.7300 C   0  0  0  0  0  0  0  0  0  0  0  0
  188.5670  174.0870  139.6500 N   0  0  0  0  0  0  0  0  0  0  0  0
  189.2100  174.9460  141.9060 C   0  0  0  0  0  0  0  0  0  0  0  0
  189.1540  177.1410  143.8940 N   0  0  2  0  0  0  0  0  0  0  0  0
  193.0830  173.1070  141.6020 C   0  0  0  0  0  1  0  0  0  0  0  0
  188.4200  173.0430  138.6480 C   0  0  0  0  0  1  0  0  0  0  0  0
  187.5630  176.0840  140.5150 C   0  0  0  0  0  3  0  0  0  0  0  0
  189.2530  173.7920  140.9200 C   0  0  2  0  0  3  0  0  0  0  0  0
  188.0740  176.9110  142.9160 C   0  0  2  0  0  3  0  0  0  0  0  0
  190.9880  172.6150  139.7300 O   0  0  0  0  0  0  0  0  0  0  0  0
  190.0540  174.8180  143.1450 C   0  0  2  0  0  3  0  0  0  0  0  0
  191.6830  173.5890  141.7720 C   0  0  0  0  0  0  0  0  0  0  0  0
  187.6820  175.2030  139.5310 C   0  0  0  0  0  3  0  0  0  0  0  0
  190.4510  177.3480  143.2060 C   0  0  0  0  0  2  0  0  0  0  0  0
  190.2210  176.1130  143.9650 C   0  0  1  0  0  0  0  0  0  0  0  0
  188.3530  175.9650  141.7580 C   0  0  0  0  0  0  0  0  0  0  0  0
  191.3860  174.2890  142.8260 N   0  0  0  0  0  0  0  0  0  0  0  0
  193.4220  176.2850  145.0470 C   0  0  1  0  0  3  0  0  0  0  0  0
  193.3380  174.8950  144.7770 O   0  0  0  0  0  0  0  0  0  0  0  0
  190.8970  176.0100  145.3480 C   0  0  2  0  0  3  0  0  0  0  0  0
  192.6670  174.2600  145.8370 C   0  0  0  0  0  2  0  0  0  0  0  0
  192.1160  176.9220  145.5650 C   0  0  0  0  0  2  0  0  0  0  0  0
  191.1690  174.5550  145.7590 C   0  0  0  0  0  2  0  0  0  0  0  0
  194.5800  176.5960  145.9800 C   0  0  0  0  0  1  0  0  0  0  0  0
  187.4690  178.2500  142.5000 C   0  0  0  0  0  2  0  0  0  0  0  0
  186.3040  178.6010  143.4060 C   0  0  0  0  0  2  0  0  0  0  0  0
  185.5610  177.3350  143.8090 C   0  0  0  0  0  2  0  0  0  0  0  0
  183.5650  178.9190  145.4750 F   0  0  0  0  0  0  0  0  0  0  0  0
  185.3050  177.2830  145.3120 C   0  0  2  0  0  3  0  0  0  0  0  0
  184.8620  178.6460  145.8720 C   0  0  2  0  0  3  0  0  0  0  0  0
  186.3880  178.4240  147.8190 C   0  0  0  0  0  2  0  0  0  0  0  0
  186.9500  177.1730  147.1990 C   0  0  0  0  0  3  0  0  0  0  0  0
  186.4870  176.6810  146.0400 C   0  0  0  0  0  3  0  0  0  0  0  0
  184.9400  178.6500  147.3950 C   0  0  0  0  0  2  0  0  0  0  0  0
  1 12  1  0  0  0  0
  2  8  1  0  0  0  0
  4 14  1  6  0  0  0
  4 15  1  0  0  0  0
  5 12  1  0  0  0  0
  6  2  1  0  0  0  0
  7 16  1  0  0  0  0
  8  1  1  6  0  0  0
  8  3  1  0  0  0  0
  9 25  1  6  0  0  0
  9  4  1  0  0  0  0
 10  1  2  0  0  0  0
 11  3  1  6  0  0  0
 11 15  1  0  0  0  0
 12 17  2  0  0  0  0
 13  2  1  0  0  0  0
 13  7  2  0  0  0  0
 15 14  1  6  0  0  0
 15 20  1  0  0  0  0
 16  3  2  0  0  0  0
 16  9  1  0  0  0  0
 17 11  1  0  0  0  0
 18 22  1  0  0  0  0
 18 24  1  1  0  0  0
 19 18  1  0  0  0  0
 19 21  1  0  0  0  0
 20 22  1  6  0  0  0
 20 23  1  0  0  0  0
 23 21  1  0  0  0  0
 25 26  1  0  0  0  0
 26 27  1  0  0  0  0
 29 27  1  6  0  0  0
 29 30  1  0  0  0  0
 29 33  1  0  0  0  0
 30 28  1  1  0  0  0
 30 34  1  0  0  0  0
 32 31  1  0  0  0  0
 33 32  2  0  0  0  0
 34 31  1  0  0  0  0
M  END
>  <MODEL>
4

>  <REMARK>
 VINA RESULT:      -8.0      3.096      6.963
  Name = 
  5 active torsions:
  status: ('A' for Active; 'I' for Inactive)
    1  A    between atoms: C_3  and  C_13
    2  A    between atoms: C_3  and  C_17
    3  A    between atoms: C_12  and  C_28
    4  A    between atoms: C_17  and  C_29
    5  A    between atoms: C_18  and  C_29
                            x       y       z     vdW  Elec       q    Type
                         _______ _______ _______ _____ _____    ______ ____

>  <TORSDO>
F 5

$$$$
=
 OpenBabel11052418403D

 34 39  0  0  1  0  0  0  0  0999 V2000
  191.0900  172.8970  142.5380 C   0  0  0  0  0  0  0  0  0  0  0  0
  189.6030  173.0300  140.5460 N   0  0  0  0  0  0  0  0  0  0  0  0
  189.1560  174.4590  142.5450 C   0  0  0  0  0  0  0  0  0  0  0  0
  188.1040  176.9890  143.6700 N   0  0  2  0  0  0  0  0  0  0  0  0
  192.9010  173.3110  144.3150 C   0  0  0  0  0  1  0  0  0  0  0  0
  189.9710  171.7840  139.8930 C   0  0  0  0  0  1  0  0  0  0  0  0
  188.1910  174.9580  140.3640 C   0  0  0  0  0  3  0  0  0  0  0  0
  189.6970  173.1440  142.0120 C   0  0  2  0  0  3  0  0  0  0  0  0
  187.5660  176.3650  142.4460 C   0  0  2  0  0  3  0  0  0  0  0  0
  191.8490  172.0610  141.9760 O   0  0  0  0  0  0  0  0  0  0  0  0
  189.3940  174.7550  144.0020 C   0  0  2  0  0  3  0  0  0  0  0  0
  191.5340  173.5640  143.7780 C   0  0  0  0  0  0  0  0  0  0  0  0
  188.7800  173.9190  139.7880 C   0  0  0  0  0  3  0  0  0  0  0  0
  189.5530  177.2670  143.5250 C   0  0  0  0  0  2  0  0  0  0  0  0
  189.1050  176.2060  144.4340 C   0  0  1  0  0  0  0  0  0  0  0  0
  188.3780  175.2530  141.7990 C   0  0  0  0  0  0  0  0  0  0  0  0
  190.7670  174.4120  144.3940 N   0  0  0  0  0  0  0  0  0  0  0  0
  191.5480  176.4280  146.7650 C   0  0  1  0  0  3  0  0  0  0  0  0
  191.2420  175.0460  146.8730 O   0  0  0  0  0  0  0  0  0  0  0  0
  189.1270  176.5280  145.9430 C   0  0  2  0  0  3  0  0  0  0  0  0
  190.0720  174.8930  147.6380 C   0  0  0  0  0  2  0  0  0  0  0  0
  190.3430  177.3310  146.4360 C   0  0  0  0  0  2  0  0  0  0  0  0
  188.8500  175.2900  146.8100 C   0  0  0  0  0  2  0  0  0  0  0  0
  192.2780  176.9290  147.9990 C   0  0  0  0  0  1  0  0  0  0  0  0
  187.1070  177.4530  141.4780 C   0  0  0  0  0  2  0  0  0  0  0  0
  186.3780  178.5490  142.2300 C   0  0  0  0  0  2  0  0  0  0  0  0
  184.9960  178.0630  142.6430 C   0  0  0  0  0  2  0  0  0  0  0  0
  185.1360  180.6510  144.2400 F   0  0  0  0  0  0  0  0  0  0  0  0
  184.7350  178.2940  144.1290 C   0  0  2  0  0  3  0  0  0  0  0  0
  185.5990  179.4310  144.7000 C   0  0  2  0  0  3  0  0  0  0  0  0
  186.1520  178.0970  146.7200 C   0  0  0  0  0  2  0  0  0  0  0  0
  185.4490  176.9200  146.0980 C   0  0  0  0  0  3  0  0  0  0  0  0
  184.8430  176.9990  144.9040 C   0  0  0  0  0  3  0  0  0  0  0  0
  185.5670  179.4160  146.2240 C   0  0  0  0  0  2  0  0  0  0  0  0
  1 12  1  0  0  0  0
  2  8  1  0  0  0  0
  4 14  1  6  0  0  0
  4 15  1  0  0  0  0
  6  2  1  0  0  0  0
  7 16  1  0  0  0  0
  8  1  1  6  0  0  0
  8  3  1  0  0  0  0
  9 25  1  6  0  0  0
  9  4  1  0  0  0  0
 10  1  2  0  0  0  0
 11  3  1  6  0  0  0
 11 17  1  0  0  0  0
 11 15  1  0  0  0  0
 12  5  1  0  0  0  0
 12 17  2  0  0  0  0
 13  7  2  0  0  0  0
 13  2  1  0  0  0  0
 15 14  1  6  0  0  0
 15 20  1  0  0  0  0
 16  9  1  0  0  0  0
 16  3  2  0  0  0  0
 18 19  1  0  0  0  0
 18 24  1  1  0  0  0
 19 21  1  0  0  0  0
 20 22  1  1  0  0  0
 20 23  1  0  0  0  0
 22 18  1  0  0  0  0
 23 21  1  0  0  0  0
 25 26  1  0  0  0  0
 26 27  1  0  0  0  0
 29 27  1  6  0  0  0
 29 30  1  0  0  0  0
 29 33  1  0  0  0  0
 30 28  1  6  0  0  0
 30 34  1  0  0  0  0
 32 31  1  0  0  0  0
 33 32  2  0  0  0  0
 34 31  1  0  0  0  0
M  END
>  <MODEL>
5

>  <REMARK>
 VINA RESULT:      -8.0      2.892      7.295
  Name = 
  5 active torsions:
  status: ('A' for Active; 'I' for Inactive)
    1  A    between atoms: C_3  and  C_13
    2  A    between atoms: C_3  and  C_17
    3  A    between atoms: C_12  and  C_28
    4  A    between atoms: C_17  and  C_29
    5  A    between atoms: C_18  and  C_29
                            x       y       z     vdW  Elec       q    Type
                         _______ _______ _______ _____ _____    ______ ____

>  <TORSDO>
F 5

$$$$
=
 OpenBabel11052418403D

 34 39  0  0  1  0  0  0  0  0999 V2000
  191.3820  173.4360  140.9000 C   0  0  0  0  0  0  0  0  0  0  0  0
  189.1920  174.6140  141.0120 N   0  0  0  0  0  0  0  0  0  0  0  0
  190.6880  174.5480  143.0120 C   0  0  0  0  0  0  0  0  0  0  0  0
  191.6650  175.8400  145.4920 N   0  0  2  0  0  0  0  0  0  0  0  0
  193.8760  172.8460  140.6840 C   0  0  0  0  0  1  0  0  0  0  0  0
  188.5480  174.0250  139.8490 C   0  0  0  0  0  1  0  0  0  0  0  0
  188.8800  176.1700  142.8090 C   0  0  0  0  0  3  0  0  0  0  0  0
  190.2070  173.8460  141.7550 C   0  0  2  0  0  3  0  0  0  0  0  0
  190.2960  176.0240  144.9720 C   0  0  2  0  0  3  0  0  0  0  0  0
  191.2220  173.1500  139.6820 O   0  0  0  0  0  0  0  0  0  0  0  0
  191.8660  173.9410  143.7250 C   0  0  2  0  0  3  0  0  0  0  0  0
  192.7130  173.2690  141.5160 C   0  0  0  0  0  0  0  0  0  0  0  0
  188.5150  175.7180  141.6160 C   0  0  0  0  0  3  0  0  0  0  0  0
  192.6710  176.2530  144.4830 C   0  0  0  0  0  2  0  0  0  0  0  0
  192.5090  174.8300  144.8080 C   0  0  1  0  0  0  0  0  0  0  0  0
  190.0100  175.5720  143.5480 C   0  0  0  0  0  0  0  0  0  0  0  0
  192.9070  173.5320  142.7740 N   0  0  0  0  0  0  0  0  0  0  0  0
  195.8540  174.3880  144.5530 C   0  0  1  0  0  3  0  0  0  0  0  0
  195.4090  173.1920  143.9310 O   0  0  0  0  0  0  0  0  0  0  0  0
  193.5840  174.1980  145.7170 C   0  0  2  0  0  3  0  0  0  0  0  0
  195.0300  172.2710  144.9240 C   0  0  0  0  0  2  0  0  0  0  0  0
  194.9590  174.8880  145.7040 C   0  0  0  0  0  2  0  0  0  0  0  0
  193.6870  172.6770  145.5300 C   0  0  0  0  0  2  0  0  0  0  0  0
  197.2990  174.2680  145.0060 C   0  0  0  0  0  1  0  0  0  0  0  0
  189.8150  177.4380  145.2900 C   0  0  0  0  0  2  0  0  0  0  0  0
  188.9580  177.4290  146.5410 C   0  0  0  0  0  2  0  0  0  0  0  0
  187.9570  176.2850  146.4750 C   0  0  0  0  0  2  0  0  0  0  0  0
  185.9490  176.0440  144.2000 F   0  0  0  0  0  0  0  0  0  0  0  0
  186.5200  176.7930  146.4010 C   0  0  2  0  0  3  0  0  0  0  0  0
  186.1170  177.1820  144.9680 C   0  0  2  0  0  3  0  0  0  0  0  0
  185.0420  179.2760  145.7620 C   0  0  0  0  0  2  0  0  0  0  0  0
  185.5740  178.9910  147.1410 C   0  0  0  0  0  3  0  0  0  0  0  0
  186.2810  177.8860  147.4200 C   0  0  0  0  0  3  0  0  0  0  0  0
  184.8210  177.9870  144.9770 C   0  0  0  0  0  2  0  0  0  0  0  0
  1 12  1  0  0  0  0
  2 13  1  0  0  0  0
  2  8  1  0  0  0  0
  3 16  2  0  0  0  0
  3 11  1  0  0  0  0
  4 14  1  6  0  0  0
  5 12  1  0  0  0  0
  6  2  1  0  0  0  0
  7 16  1  0  0  0  0
  8  1  1  6  0  0  0
  8  3  1  0  0  0  0
  9 25  1  6  0  0  0
  9  4  1  0  0  0  0
 10  1  2  0  0  0  0
 11 17  1  6  0  0  0
 11 15  1  0  0  0  0
 12 17  2  0  0  0  0
 13  7  2  0  0  0  0
 15 14  1  6  0  0  0
 15  4  1  0  0  0  0
 15 20  1  0  0  0  0
 16  9  1  0  0  0  0
 18 24  1  1  0  0  0
 18 22  1  0  0  0  0
 19 18  1  0  0  0  0
 19 21  1  0  0  0  0
 20 23  1  6  0  0  0
 21 23  1  0  0  0  0
 22 20  1  0  0  0  0
 25 26  1  0  0  0  0
 27 26  1  0  0  0  0
 29 27  1  6  0  0  0
 29 33  1  0  0  0  0
 30 28  1  6  0  0  0
 30 34  1  0  0  0  0
 30 29  1  0  0  0  0
 31 32  1  0  0  0  0
 32 33  2  0  0  0  0
 34 31  1  0  0  0  0
M  END
>  <MODEL>
6

>  <REMARK>
 VINA RESULT:      -7.9      3.132      6.813
  Name = 
  5 active torsions:
  status: ('A' for Active; 'I' for Inactive)
    1  A    between atoms: C_3  and  C_13
    2  A    between atoms: C_3  and  C_17
    3  A    between atoms: C_12  and  C_28
    4  A    between atoms: C_17  and  C_29
    5  A    between atoms: C_18  and  C_29
                            x       y       z     vdW  Elec       q    Type
                         _______ _______ _______ _____ _____    ______ ____

>  <TORSDO>
F 5

$$$$
=
 OpenBabel11052418403D

 34 39  0  0  1  0  0  0  0  0999 V2000
  191.1220  171.4960  140.8070 C   0  0  0  0  0  0  0  0  0  0  0  0
  189.4480  172.1530  139.0850 N   0  0  0  0  0  0  0  0  0  0  0  0
  189.4430  173.2530  141.3290 C   0  0  0  0  0  0  0  0  0  0  0  0
  188.8970  175.6540  142.9750 N   0  0  2  0  0  0  0  0  0  0  0  0
  193.1670  171.3700  142.3600 C   0  0  0  0  0  1  0  0  0  0  0  0
  189.5580  171.0060  138.1990 C   0  0  0  0  0  1  0  0  0  0  0  0
  188.3120  174.2390  139.4080 C   0  0  0  0  0  3  0  0  0  0  0  0
  189.7260  171.9970  140.5240 C   0  0  2  0  0  3  0  0  0  0  0  0
  188.1380  175.3230  141.7540 C   0  0  2  0  0  3  0  0  0  0  0  0
  191.6850  170.6850  140.0200 O   0  0  0  0  0  0  0  0  0  0  0  0
  189.8870  173.2570  142.7670 C   0  0  2  0  0  3  0  0  0  0  0  0
  191.7970  171.8760  142.0630 C   0  0  0  0  0  0  0  0  0  0  0  0
  188.6770  173.2540  138.5990 C   0  0  0  0  0  3  0  0  0  0  0  0
  190.3450  175.7770  142.6770 C   0  0  0  0  0  2  0  0  0  0  0  0
  189.8590  174.6340  143.4600 C   0  0  1  0  0  0  0  0  0  0  0  0
  188.7040  174.2540  140.8320 C   0  0  0  0  0  0  0  0  0  0  0  0
  191.2340  172.6890  142.9060 N   0  0  0  0  0  0  0  0  0  0  0  0
  189.4440  176.9980  145.8440 C   0  0  1  0  0  3  0  0  0  0  0  0
  190.7680  177.3050  145.4350 O   0  0  0  0  0  0  0  0  0  0  0  0
  190.1010  174.6810  144.9830 C   0  0  2  0  0  3  0  0  0  0  0  0
  191.6560  176.3910  146.0300 C   0  0  0  0  0  2  0  0  0  0  0  0
  189.0840  175.5000  145.7960 C   0  0  0  0  0  2  0  0  0  0  0  0
  191.5550  175.0340  145.3330 C   0  0  0  0  0  2  0  0  0  0  0  0
  189.1420  177.5820  147.2140 C   0  0  0  0  0  1  0  0  0  0  0  0
  187.7290  176.6120  141.0430 C   0  0  0  0  0  2  0  0  0  0  0  0
  186.4310  177.1390  141.6220 C   0  0  0  0  0  2  0  0  0  0  0  0
  186.7260  178.1840  142.6880 C   0  0  0  0  0  2  0  0  0  0  0  0
  185.3670  180.5070  144.1120 F   0  0  0  0  0  0  0  0  0  0  0  0
  185.6920  178.1550  143.8110 C   0  0  2  0  0  3  0  0  0  0  0  0
  185.8220  179.3660  144.7500 C   0  0  2  0  0  3  0  0  0  0  0  0
  185.5800  177.9280  146.7590 C   0  0  0  0  0  2  0  0  0  0  0  0
  185.6200  176.7190  145.8630 C   0  0  0  0  0  3  0  0  0  0  0  0
  185.7140  176.8230  144.5290 C   0  0  0  0  0  3  0  0  0  0  0  0
  185.0190  179.1430  146.0270 C   0  0  0  0  0  2  0  0  0  0  0  0
  1 12  1  0  0  0  0
  2  8  1  0  0  0  0
  4 14  1  6  0  0  0
  4 15  1  0  0  0  0
  6  2  1  0  0  0  0
  7 16  1  0  0  0  0
  8  1  1  6  0  0  0
  8  3  1  0  0  0  0
  9 25  1  6  0  0  0
  9  4  1  0  0  0  0
 10  1  2  0  0  0  0
 11  3  1  6  0  0  0
 11 17  1  0  0  0  0
 11 15  1  0  0  0  0
 12  5  1  0  0  0  0
 12 17  2  0  0  0  0
 13  2  1  0  0  0  0
 13  7  2  0  0  0  0
 15 14  1  6  0  0  0
 15 20  1  0  0  0  0
 16  3  2  0  0  0  0
 16  9  1  0  0  0  0
 18 24  1  1  0  0  0
 19 18  1  0  0  0  0
 19 21  1  0  0  0  0
 20 23  1  6  0  0  0
 20 22  1  0  0  0  0
 22 18  1  0  0  0  0
 23 21  1  0  0  0  0
 25 26  1  0  0  0  0
 26 27  1  0  0  0  0
 29 27  1  6  0  0  0
 29 33  1  0  0  0  0
 29 30  1  0  0  0  0
 30 28  1  6  0  0  0
 30 34  1  0  0  0  0
 32 31  1  0  0  0  0
 33 32  2  0  0  0  0
 34 31  1  0  0  0  0
M  END
>  <MODEL>
7

>  <REMARK>
 VINA RESULT:      -7.9      2.956      7.574
  Name = 
  5 active torsions:
  status: ('A' for Active; 'I' for Inactive)
    1  A    between atoms: C_3  and  C_13
    2  A    between atoms: C_3  and  C_17
    3  A    between atoms: C_12  and  C_28
    4  A    between atoms: C_17  and  C_29
    5  A    between atoms: C_18  and  C_29
                            x       y       z     vdW  Elec       q    Type
                         _______ _______ _______ _____ _____    ______ ____

>  <TORSDO>
F 5

$$$$
=
 OpenBabel11052418403D

 34 39  0  0  1  0  0  0  0  0999 V2000
  192.0500  173.5260  139.5290 C   0  0  0  0  0  0  0  0  0  0  0  0
  189.7720  172.7430  140.1560 N   0  0  0  0  0  0  0  0  0  0  0  0
  191.1640  174.0050  141.8020 C   0  0  0  0  0  0  0  0  0  0  0  0
  191.3080  175.8630  144.1040 N   0  0  2  0  0  0  0  0  0  0  0  0
  194.0760  174.9180  138.7740 C   0  0  0  0  0  1  0  0  0  0  0  0
  189.5700  171.7470  139.1150 C   0  0  0  0  0  1  0  0  0  0  0  0
  188.7540  173.7660  142.0700 C   0  0  0  0  0  3  0  0  0  0  0  0
  191.1350  173.0420  140.6280 C   0  0  2  0  0  3  0  0  0  0  0  0
  190.1820  174.9340  143.8860 C   0  0  2  0  0  3  0  0  0  0  0  0
  191.9320  173.0820  138.3540 O   0  0  0  0  0  0  0  0  0  0  0  0
  192.5110  174.5300  142.2210 C   0  0  2  0  0  3  0  0  0  0  0  0
  193.1560  174.4500  139.8490 C   0  0  0  0  0  0  0  0  0  0  0  0
  188.6290  173.0630  140.9520 C   0  0  0  0  0  3  0  0  0  0  0  0
  191.4810  176.7640  142.9390 C   0  0  0  0  0  2  0  0  0  0  0  0
  192.4770  175.7190  143.2030 C   0  0  1  0  0  0  0  0  0  0  0  0
  190.0670  174.2640  142.5250 C   0  0  0  0  0  0  0  0  0  0  0  0
  193.3190  174.9060  141.0550 N   0  0  0  0  0  0  0  0  0  0  0  0
  194.7210  174.2680  145.2780 C   0  0  1  0  0  3  0  0  0  0  0  0
  193.8530  174.8500  146.2380 O   0  0  0  0  0  0  0  0  0  0  0  0
  193.8100  176.1730  143.8330 C   0  0  2  0  0  3  0  0  0  0  0  0
  194.1430  176.2220  146.3480 C   0  0  0  0  0  2  0  0  0  0  0  0
  194.8850  175.0820  143.9790 C   0  0  0  0  0  2  0  0  0  0  0  0
  193.6020  176.9700  145.1300 C   0  0  0  0  0  2  0  0  0  0  0  0
  196.0750  173.9430  145.8860 C   0  0  0  0  0  1  0  0  0  0  0  0
  188.8880  175.5770  144.3810 C   0  0  0  0  0  2  0  0  0  0  0  0
  189.0500  176.0390  145.8160 C   0  0  0  0  0  2  0  0  0  0  0  0
  188.2630  177.3220  146.0400 C   0  0  0  0  0  2  0  0  0  0  0  0
  187.2210  178.4500  143.4110 F   0  0  0  0  0  0  0  0  0  0  0  0
  186.8610  177.2380  145.4430 C   0  0  2  0  0  3  0  0  0  0  0  0
  186.5140  178.4770  144.6000 C   0  0  2  0  0  3  0  0  0  0  0  0
  184.2540  178.6280  145.6190 C   0  0  0  0  0  2  0  0  0  0  0  0
  184.6400  177.5230  146.5660 C   0  0  0  0  0  3  0  0  0  0  0  0
  185.8380  176.9230  146.5130 C   0  0  0  0  0  3  0  0  0  0  0  0
  185.0190  178.5210  144.3030 C   0  0  0  0  0  2  0  0  0  0  0  0
  1 12  1  0  0  0  0
  2  8  1  0  0  0  0
  2 13  1  0  0  0  0
  3 11  1  0  0  0  0
  3 16  2  0  0  0  0
  4 14  1  6  0  0  0
  5 12  1  0  0  0  0
  6  2  1  0  0  0  0
  7 16  1  0  0  0  0
  8  1  1  6  0  0  0
  8  3  1  0  0  0  0
  9  4  1  0  0  0  0
  9 25  1  6  0  0  0
 10  1  2  0  0  0  0
 11 17  1  6  0  0  0
 11 15  1  0  0  0  0
 12 17  2  0  0  0  0
 13  7  2  0  0  0  0
 15 14  1  6  0  0  0
 15 20  1  0  0  0  0
 15  4  1  0  0  0  0
 16  9  1  0  0  0  0
 18 24  1  1  0  0  0
 18 19  1  0  0  0  0
 19 21  1  0  0  0  0
 20 22  1  1  0  0  0
 20 23  1  0  0  0  0
 22 18  1  0  0  0  0
 23 21  1  0  0  0  0
 25 26  1  0  0  0  0
 26 27  1  0  0  0  0
 29 27  1  1  0  0  0
 29 33  1  0  0  0  0
 30 28  1  6  0  0  0
 30 29  1  0  0  0  0
 31 32  1  0  0  0  0
 33 32  2  0  0  0  0
 34 30  1  0  0  0  0
 34 31  1  0  0  0  0
M  END
>  <MODEL>
8

>  <REMARK>
 VINA RESULT:      -7.7      3.104      7.119
  Name = 
  5 active torsions:
  status: ('A' for Active; 'I' for Inactive)
    1  A    between atoms: C_3  and  C_13
    2  A    between atoms: C_3  and  C_17
    3  A    between atoms: C_12  and  C_28
    4  A    between atoms: C_17  and  C_29
    5  A    between atoms: C_18  and  C_29
                            x       y       z     vdW  Elec       q    Type
                         _______ _______ _______ _____ _____    ______ ____

>  <TORSDO>
F 5

$$$$
=
 OpenBabel11052418403D

 34 39  0  0  1  0  0  0  0  0999 V2000
  194.4090  172.1190  144.9770 C   0  0  0  0  0  0  0  0  0  0  0  0
  194.6970  174.4750  145.7290 N   0  0  0  0  0  0  0  0  0  0  0  0
  192.6240  173.7870  144.5150 C   0  0  0  0  0  0  0  0  0  0  0  0
  189.7220  174.1460  144.0490 N   0  0  2  0  0  0  0  0  0  0  0  0
  193.7440  169.6450  144.7680 C   0  0  0  0  0  1  0  0  0  0  0  0
  196.1340  174.4770  145.9520 C   0  0  0  0  0  1  0  0  0  0  0  0
  192.7270  175.8380  145.8280 C   0  0  0  0  0  3  0  0  0  0  0  0
  194.1150  173.5770  144.7160 C   0  0  2  0  0  3  0  0  0  0  0  0
  190.6170  175.2490  144.4480 C   0  0  2  0  0  3  0  0  0  0  0  0
  195.5040  171.7680  145.4970 O   0  0  0  0  0  0  0  0  0  0  0  0
  191.9030  172.7840  143.6560 C   0  0  2  0  0  3  0  0  0  0  0  0
  193.4530  171.0870  144.5310 C   0  0  0  0  0  0  0  0  0  0  0  0
  193.9860  175.6250  146.1910 C   0  0  0  0  0  3  0  0  0  0  0  0
  189.7650  173.0470  145.0440 C   0  0  0  0  0  2  0  0  0  0  0  0
  190.3640  172.8510  143.7180 C   0  0  1  0  0  0  0  0  0  0  0  0
  192.0050  174.8900  144.9570 C   0  0  0  0  0  0  0  0  0  0  0  0
  192.3260  171.4150  143.9710 N   0  0  0  0  0  0  0  0  0  0  0  0
  190.3870  172.5290  140.3500 C   0  0  1  0  0  3  0  0  0  0  0  0
  189.4530  173.5900  140.4800 O   0  0  0  0  0  0  0  0  0  0  0  0
  189.5630  171.9980  142.7130 C   0  0  2  0  0  3  0  0  0  0  0  0
  188.2040  173.0600  140.8520 C   0  0  0  0  0  2  0  0  0  0  0  0
  190.3480  171.4930  141.4910 C   0  0  0  0  0  2  0  0  0  0  0  0
  188.2270  172.6510  142.3250 C   0  0  0  0  0  2  0  0  0  0  0  0
  190.2620  171.8480  138.9980 C   0  0  0  0  0  1  0  0  0  0  0  0
  189.8550  176.2280  145.3390 C   0  0  0  0  0  2  0  0  0  0  0  0
  189.0360  177.1800  144.4900 C   0  0  0  0  0  2  0  0  0  0  0  0
  187.5620  176.8150  144.5770 C   0  0  0  0  0  2  0  0  0  0  0  0
  186.4660  176.4990  147.4000 F   0  0  0  0  0  0  0  0  0  0  0  0
  186.7800  177.8150  145.4250 C   0  0  2  0  0  3  0  0  0  0  0  0
  185.7830  177.1210  146.3690 C   0  0  2  0  0  3  0  0  0  0  0  0
  183.9990  178.7530  145.8050 C   0  0  0  0  0  2  0  0  0  0  0  0
  184.9080  179.3400  144.7570 C   0  0  0  0  0  3  0  0  0  0  0  0
  186.1540  178.8840  144.5570 C   0  0  0  0  0  3  0  0  0  0  0  0
  184.7990  178.1320  146.9460 C   0  0  0  0  0  2  0  0  0  0  0  0
  1 10  2  0  0  0  0
  2  6  1  0  0  0  0
  2 13  1  0  0  0  0
  3 16  2  0  0  0  0
  4  9  1  0  0  0  0
  4 14  1  1  0  0  0
  7 13  2  0  0  0  0
  8  3  1  1  0  0  0
  8  1  1  0  0  0  0
  8  2  1  0  0  0  0
  9 16  1  0  0  0  0
  9 25  1  1  0  0  0
 11 15  1  0  0  0  0
 11 17  1  1  0  0  0
 11  3  1  0  0  0  0
 12  5  1  0  0  0  0
 12  1  1  0  0  0  0
 15  4  1  0  0  0  0
 15 14  1  1  0  0  0
 16  7  1  0  0  0  0
 17 12  2  0  0  0  0
 18 24  1  6  0  0  0
 18 19  1  0  0  0  0
 18 22  1  0  0  0  0
 19 21  1  0  0  0  0
 20 22  1  6  0  0  0
 20 15  1  0  0  0  0
 21 23  1  0  0  0  0
 23 20  1  0  0  0  0
 26 27  1  0  0  0  0
 26 25  1  0  0  0  0
 29 27  1  6  0  0  0
 29 30  1  0  0  0  0
 30 34  1  0  0  0  0
 30 28  1  1  0  0  0
 31 34  1  0  0  0  0
 32 31  1  0  0  0  0
 33 32  2  0  0  0  0
 33 29  1  0  0  0  0
M  END
>  <MODEL>
9

>  <REMARK>
 VINA RESULT:      -7.6      2.904      7.579
  Name = 
  5 active torsions:
  status: ('A' for Active; 'I' for Inactive)
    1  A    between atoms: C_3  and  C_13
    2  A    between atoms: C_3  and  C_17
    3  A    between atoms: C_12  and  C_28
    4  A    between atoms: C_17  and  C_29
    5  A    between atoms: C_18  and  C_29
                            x       y       z     vdW  Elec       q    Type
                         _______ _______ _______ _____ _____    ______ ____

>  <TORSDO>
F 5

$$$$
