=
 OpenBabel11052419193D

 32 35  0  0  1  0  0  0  0  0999 V2000
  189.7200  175.5070  144.4650 C   0  0  0  0  0  3  0  0  0  0  0  0
  190.0290  174.3350  145.1580 C   0  0  0  0  0  0  0  0  0  0  0  0
  188.9470  176.5050  145.0700 C   0  0  0  0  0  0  0  0  0  0  0  0
  188.4730  176.3270  146.3820 C   0  0  0  0  0  0  0  0  0  0  0  0
  188.7950  175.1470  147.0750 C   0  0  0  0  0  3  0  0  0  0  0  0
  189.5740  174.1590  146.4670 C   0  0  0  0  0  3  0  0  0  0  0  0
  188.6150  177.7360  144.2930 C   0  0  0  0  0  2  0  0  0  0  0  0
  187.3820  177.5210  143.4840 C   0  0  0  0  0  0  0  0  0  0  0  0
  183.4820  178.1550  141.3330 C   0  0  0  0  0  2  0  0  0  0  0  0
  186.2160  177.9070  143.8720 N   0  0  0  0  0  0  0  0  0  0  0  0
  185.8850  177.9000  140.4760 C   0  0  0  0  0  2  0  0  0  0  0  0
  186.0120  177.0170  141.7240 C   0  0  1  0  0  3  0  0  0  0  0  0
  187.4000  176.9720  142.1670 N   0  0  0  0  0  2  0  0  0  0  0  0
  185.3110  177.6120  142.8550 N   0  0  0  0  0  0  0  0  0  0  0  0
  184.5610  178.6810  140.3860 C   0  0  0  0  0  2  0  0  0  0  0  0
  183.9880  178.2180  142.7700 C   0  0  0  0  0  2  0  0  0  0  0  0
  187.6910  177.3240  146.9760 O   0  0  0  0  0  0  0  0  0  0  0  0
  186.3590  177.0970  147.4160 C   0  0  0  0  0  2  0  0  0  0  0  0
  185.6170  178.4160  147.4700 C   0  0  0  0  0  2  0  0  0  0  0  0
  184.2960  178.2790  146.7430 C   0  0  0  0  0  1  0  0  0  0  0  0
  190.8990  173.3060  144.5240 C   0  0  0  0  0  2  0  0  0  0  0  0
  192.1340  173.2660  145.1740 O   0  0  0  0  0  0  0  0  0  0  0  0
  192.9990  173.9830  144.3430 C   0  0  0  0  0  2  0  0  0  0  0  0
  195.3560  174.8200  145.0710 C   0  0  2  0  0  0  0  0  0  0  0  0
  196.8930  173.1100  146.1820 C   0  0  0  0  0  2  0  0  0  0  0  0
  195.3920  175.8400  143.9480 C   0  0  0  0  0  1  0  0  0  0  0  0
  194.5880  172.4050  145.5320 C   0  0  0  0  0  2  0  0  0  0  0  0
  196.8020  174.3390  145.2760 C   0  0  0  0  0  2  0  0  0  0  0  0
  194.4620  173.6310  144.6260 C   0  0  1  0  0  3  0  0  0  0  0  0
  196.0470  171.9730  145.6230 C   0  0  0  0  0  2  0  0  0  0  0  0
  194.8500  175.5330  146.3040 C   0  0  0  0  0  3  0  0  0  0  0  0
  194.3220  176.7590  146.2870 C   0  0  0  0  0  2  0  0  0  0  0  0
  1  3  2  0  0  0  0
  1  2  1  0  0  0  0
  2  6  2  0  0  0  0
  3  4  1  0  0  0  0
  4 17  1  0  0  0  0
  4  5  2  0  0  0  0
  6  5  1  0  0  0  0
  7  3  1  0  0  0  0
  8 10  2  0  0  0  0
  8  7  1  0  0  0  0
  9 16  1  0  0  0  0
 12 11  1  6  0  0  0
 12 13  1  0  0  0  0
 12 14  1  0  0  0  0
 13  8  1  0  0  0  0
 14 10  1  0  0  0  0
 15 11  1  0  0  0  0
 15  9  1  0  0  0  0
 16 14  1  0  0  0  0
 17 18  1  0  0  0  0
 18 19  1  0  0  0  0
 20 19  1  0  0  0  0
 21  2  1  0  0  0  0
 21 22  1  0  0  0  0
 23 22  1  0  0  0  0
 24 26  1  6  0  0  0
 24 28  1  0  0  0  0
 24 31  1  0  0  0  0
 27 30  1  0  0  0  0
 28 25  1  0  0  0  0
 29 23  1  1  0  0  0
 29 24  1  0  0  0  0
 29 27  1  0  0  0  0
 30 25  1  0  0  0  0
 32 31  2  0  0  0  0
M  END
>  <MODEL>
1

>  <REMARK>
 VINA RESULT:      -7.6      0.000      0.000
  Name = 
  10 active torsions:
  status: ('A' for Active; 'I' for Inactive)
    1  A    between atoms: C_2  and  C_5
    2  A    between atoms: C_2  and  C_6
    3  A    between atoms: C_3  and  C_22
    4  A    between atoms: C_4  and  C_27
    5  A    between atoms: C_13  and  C_29
    6  A    between atoms: C_14  and  O_18
    7  A    between atoms: C_16  and  C_20
    8  A    between atoms: C_16  and  O_24
    9  A    between atoms: O_18  and  C_29
   10  A    between atoms: O_24  and  C_27
                            x       y       z     vdW  Elec       q    Type
                         _______ _______ _______ _____ _____    ______ ____

>  <TORSDO>
F 10

$$$$
=
 OpenBabel11052419193D

 32 35  0  0  1  0  0  0  0  0999 V2000
  192.3720  174.3480  146.4420 C   0  0  0  0  0  3  0  0  0  0  0  0
  192.3690  175.6640  146.9100 C   0  0  0  0  0  0  0  0  0  0  0  0
  193.4400  173.8730  145.6730 C   0  0  0  0  0  0  0  0  0  0  0  0
  194.5170  174.7250  145.3650 C   0  0  0  0  0  0  0  0  0  0  0  0
  194.5080  176.0450  145.8460 C   0  0  0  0  0  3  0  0  0  0  0  0
  193.4410  176.5100  146.6190 C   0  0  0  0  0  3  0  0  0  0  0  0
  193.4020  172.4680  145.1690 C   0  0  0  0  0  2  0  0  0  0  0  0
  192.3810  172.3320  144.0920 C   0  0  0  0  0  0  0  0  0  0  0  0
  188.8010  172.9970  141.4500 C   0  0  0  0  0  2  0  0  0  0  0  0
  191.1140  172.3800  144.3230 N   0  0  0  0  0  0  0  0  0  0  0  0
  191.3020  173.4230  141.0800 C   0  0  0  0  0  2  0  0  0  0  0  0
  191.4310  172.2150  142.0160 C   0  0  1  0  0  3  0  0  0  0  0  0
  192.7130  172.2510  142.7080 N   0  0  0  0  0  2  0  0  0  0  0  0
  190.4560  172.2900  143.0980 N   0  0  0  0  0  0  0  0  0  0  0  0
  189.8680  173.9680  140.9440 C   0  0  0  0  0  2  0  0  0  0  0  0
  189.0610  172.6700  142.9160 C   0  0  0  0  0  2  0  0  0  0  0  0
  195.5760  174.2450  144.5860 O   0  0  0  0  0  0  0  0  0  0  0  0
  196.9270  174.2700  145.0250 C   0  0  0  0  0  2  0  0  0  0  0  0
  197.0780  173.3780  146.2380 C   0  0  0  0  0  2  0  0  0  0  0  0
  196.9750  171.9290  145.8130 C   0  0  0  0  0  1  0  0  0  0  0  0
  191.2530  176.1410  147.7730 C   0  0  0  0  0  2  0  0  0  0  0  0
  190.0620  176.1510  147.0440 O   0  0  0  0  0  0  0  0  0  0  0  0
  189.9980  177.4290  146.4820 C   0  0  0  0  0  2  0  0  0  0  0  0
  189.8900  177.3540  143.8800 C   0  0  2  0  0  0  0  0  0  0  0  0
  187.7520  176.4190  142.8420 C   0  0  0  0  0  2  0  0  0  0  0  0
  190.7900  178.5710  143.7620 C   0  0  0  0  0  1  0  0  0  0  0  0
  187.9650  176.4460  145.3290 C   0  0  0  0  0  2  0  0  0  0  0  0
  188.8990  177.4220  142.7070 C   0  0  0  0  0  2  0  0  0  0  0  0
  189.1210  177.4400  145.2260 C   0  0  1  0  0  3  0  0  0  0  0  0
  187.0110  176.6330  144.1560 C   0  0  0  0  0  2  0  0  0  0  0  0
  190.7750  176.1330  143.7620 C   0  0  0  0  0  3  0  0  0  0  0  0
  191.9610  176.1350  143.1520 C   0  0  0  0  0  2  0  0  0  0  0  0
  1  2  1  0  0  0  0
  2 21  1  0  0  0  0
  3  1  2  0  0  0  0
  4  3  1  0  0  0  0
  4  5  2  0  0  0  0
  5  6  1  0  0  0  0
  6  2  2  0  0  0  0
  7  3  1  0  0  0  0
  8 10  2  0  0  0  0
  8  7  1  0  0  0  0
  9 16  1  0  0  0  0
 12 11  1  6  0  0  0
 12 13  1  0  0  0  0
 12 14  1  0  0  0  0
 13  8  1  0  0  0  0
 14 10  1  0  0  0  0
 15 11  1  0  0  0  0
 15  9  1  0  0  0  0
 16 14  1  0  0  0  0
 17 18  1  0  0  0  0
 17  4  1  0  0  0  0
 18 19  1  0  0  0  0
 20 19  1  0  0  0  0
 22 21  1  0  0  0  0
 23 22  1  0  0  0  0
 24 26  1  6  0  0  0
 24 29  1  0  0  0  0
 25 30  1  0  0  0  0
 28 25  1  0  0  0  0
 28 24  1  0  0  0  0
 29 27  1  0  0  0  0
 29 23  1  1  0  0  0
 30 27  1  0  0  0  0
 31 24  1  0  0  0  0
 32 31  2  0  0  0  0
M  END
>  <MODEL>
2

>  <REMARK>
 VINA RESULT:      -7.5      3.116      7.492
  Name = 
  10 active torsions:
  status: ('A' for Active; 'I' for Inactive)
    1  A    between atoms: C_2  and  C_5
    2  A    between atoms: C_2  and  C_6
    3  A    between atoms: C_3  and  C_22
    4  A    between atoms: C_4  and  C_27
    5  A    between atoms: C_13  and  C_29
    6  A    between atoms: C_14  and  O_18
    7  A    between atoms: C_16  and  C_20
    8  A    between atoms: C_16  and  O_24
    9  A    between atoms: O_18  and  C_29
   10  A    between atoms: O_24  and  C_27
                            x       y       z     vdW  Elec       q    Type
                         _______ _______ _______ _____ _____    ______ ____

>  <TORSDO>
F 10

$$$$
=
 OpenBabel11052419193D

 32 35  0  0  1  0  0  0  0  0999 V2000
  189.3200  177.2550  142.8300 C   0  0  0  0  0  3  0  0  0  0  0  0
  190.1750  177.7190  143.8310 C   0  0  0  0  0  0  0  0  0  0  0  0
  188.0030  176.8930  143.1350 C   0  0  0  0  0  0  0  0  0  0  0  0
  187.5360  176.9920  144.4580 C   0  0  0  0  0  0  0  0  0  0  0  0
  188.4020  177.4670  145.4580 C   0  0  0  0  0  3  0  0  0  0  0  0
  189.7130  177.8340  145.1450 C   0  0  0  0  0  3  0  0  0  0  0  0
  187.1210  176.3790  142.0450 C   0  0  0  0  0  2  0  0  0  0  0  0
  187.7270  175.1700  141.4170 C   0  0  0  0  0  0  0  0  0  0  0  0
  190.4280  172.4260  139.0900 C   0  0  0  0  0  2  0  0  0  0  0  0
  188.0910  175.1330  140.1810 N   0  0  0  0  0  0  0  0  0  0  0  0
  190.1310  172.8010  141.6090 C   0  0  0  0  0  2  0  0  0  0  0  0
  188.6910  173.1110  141.1800 C   0  0  1  0  0  3  0  0  0  0  0  0
  188.0570  173.9930  142.1510 N   0  0  0  0  0  2  0  0  0  0  0  0
  188.6730  173.8900  139.9470 N   0  0  0  0  0  0  0  0  0  0  0  0
  191.1170  172.6320  140.4390 C   0  0  0  0  0  2  0  0  0  0  0  0
  189.5210  173.6150  138.7940 C   0  0  0  0  0  2  0  0  0  0  0  0
  186.2220  176.6170  144.7570 O   0  0  0  0  0  0  0  0  0  0  0  0
  185.2590  177.5280  145.2690 C   0  0  0  0  0  2  0  0  0  0  0  0
  184.7200  178.3780  144.1390 C   0  0  0  0  0  2  0  0  0  0  0  0
  185.3000  179.7740  144.2390 C   0  0  0  0  0  1  0  0  0  0  0  0
  191.5560  178.1540  143.4840 C   0  0  0  0  0  2  0  0  0  0  0  0
  192.3210  177.0470  143.1110 O   0  0  0  0  0  0  0  0  0  0  0  0
  193.0020  176.6740  144.2720 C   0  0  0  0  0  2  0  0  0  0  0  0
  192.4290  174.2800  145.1240 C   0  0  2  0  0  0  0  0  0  0  0  0
  193.1130  172.3290  143.6240 C   0  0  0  0  0  2  0  0  0  0  0  0
  192.5540  174.7150  146.5730 C   0  0  0  0  0  1  0  0  0  0  0  0
  193.5520  174.6570  142.8370 C   0  0  0  0  0  2  0  0  0  0  0  0
  192.9150  172.8220  145.0580 C   0  0  0  0  0  2  0  0  0  0  0  0
  193.3490  175.1830  144.2590 C   0  0  1  0  0  3  0  0  0  0  0  0
  194.0890  173.2320  142.8810 C   0  0  0  0  0  2  0  0  0  0  0  0
  190.9660  174.3720  144.7560 C   0  0  0  0  0  3  0  0  0  0  0  0
  189.9710  174.0640  145.5910 C   0  0  0  0  0  2  0  0  0  0  0  0
  1  3  2  0  0  0  0
  1  2  1  0  0  0  0
  2  6  2  0  0  0  0
  3  4  1  0  0  0  0
  4 17  1  0  0  0  0
  4  5  2  0  0  0  0
  6  5  1  0  0  0  0
  7  3  1  0  0  0  0
  8  7  1  0  0  0  0
  8 13  1  0  0  0  0
  9 15  1  0  0  0  0
 10  8  2  0  0  0  0
 12 11  1  1  0  0  0
 12 13  1  0  0  0  0
 14 10  1  0  0  0  0
 14 12  1  0  0  0  0
 15 11  1  0  0  0  0
 16  9  1  0  0  0  0
 16 14  1  0  0  0  0
 17 18  1  0  0  0  0
 19 20  1  0  0  0  0
 19 18  1  0  0  0  0
 21  2  1  0  0  0  0
 22 21  1  0  0  0  0
 22 23  1  0  0  0  0
 24 26  1  1  0  0  0
 25 28  1  0  0  0  0
 27 30  1  0  0  0  0
 27 29  1  0  0  0  0
 28 24  1  0  0  0  0
 29 23  1  6  0  0  0
 29 24  1  0  0  0  0
 30 25  1  0  0  0  0
 31 24  1  0  0  0  0
 31 32  2  0  0  0  0
M  END
>  <MODEL>
3

>  <REMARK>
 VINA RESULT:      -7.3      2.698      4.562
  Name = 
  10 active torsions:
  status: ('A' for Active; 'I' for Inactive)
    1  A    between atoms: C_2  and  C_5
    2  A    between atoms: C_2  and  C_6
    3  A    between atoms: C_3  and  C_22
    4  A    between atoms: C_4  and  C_27
    5  A    between atoms: C_13  and  C_29
    6  A    between atoms: C_14  and  O_18
    7  A    between atoms: C_16  and  C_20
    8  A    between atoms: C_16  and  O_24
    9  A    between atoms: O_18  and  C_29
   10  A    between atoms: O_24  and  C_27
                            x       y       z     vdW  Elec       q    Type
                         _______ _______ _______ _____ _____    ______ ____

>  <TORSDO>
F 10

$$$$
=
 OpenBabel11052419193D

 32 35  0  0  1  0  0  0  0  0999 V2000
  192.0270  174.7750  146.3560 C   0  0  0  0  0  3  0  0  0  0  0  0
  191.8960  176.0330  146.9470 C   0  0  0  0  0  0  0  0  0  0  0  0
  193.2590  174.3620  145.8360 C   0  0  0  0  0  0  0  0  0  0  0  0
  194.3720  175.2200  145.9020 C   0  0  0  0  0  0  0  0  0  0  0  0
  194.2330  176.4820  146.5040 C   0  0  0  0  0  3  0  0  0  0  0  0
  193.0020  176.8840  147.0290 C   0  0  0  0  0  3  0  0  0  0  0  0
  193.3600  173.0190  145.1910 C   0  0  0  0  0  2  0  0  0  0  0  0
  192.2980  172.8600  144.1580 C   0  0  0  0  0  0  0  0  0  0  0  0
  188.3090  172.6210  142.0910 C   0  0  0  0  0  2  0  0  0  0  0  0
  191.2580  172.1200  144.3350 N   0  0  0  0  0  0  0  0  0  0  0  0
  190.1370  174.4180  142.0760 C   0  0  0  0  0  2  0  0  0  0  0  0
  191.0440  173.1980  142.2760 C   0  0  1  0  0  3  0  0  0  0  0  0
  192.2820  173.5950  142.9360 N   0  0  0  0  0  2  0  0  0  0  0  0
  190.4460  172.2530  143.2110 N   0  0  0  0  0  0  0  0  0  0  0  0
  188.6320  174.1120  142.1850 C   0  0  0  0  0  2  0  0  0  0  0  0
  189.0390  171.8690  143.1980 C   0  0  0  0  0  2  0  0  0  0  0  0
  195.5970  174.8040  145.3690 O   0  0  0  0  0  0  0  0  0  0  0  0
  196.2900  175.5370  144.3670 C   0  0  0  0  0  2  0  0  0  0  0  0
  195.4630  175.5620  143.1010 C   0  0  0  0  0  2  0  0  0  0  0  0
  196.1280  176.4640  142.0830 C   0  0  0  0  0  1  0  0  0  0  0  0
  190.5950  176.4390  147.5470 C   0  0  0  0  0  2  0  0  0  0  0  0
  190.0440  177.4920  146.8140 O   0  0  0  0  0  0  0  0  0  0  0  0
  188.8370  176.9920  146.3210 C   0  0  0  0  0  2  0  0  0  0  0  0
  187.3860  177.4190  144.2000 C   0  0  2  0  0  0  0  0  0  0  0  0
  188.5990  178.3050  142.1350 C   0  0  0  0  0  2  0  0  0  0  0  0
  186.4210  176.3120  144.5800 C   0  0  0  0  0  1  0  0  0  0  0  0
  189.9060  177.9500  144.2310 C   0  0  0  0  0  2  0  0  0  0  0  0
  187.4600  177.4320  142.6640 C   0  0  0  0  0  2  0  0  0  0  0  0
  188.7800  177.0810  144.7930 C   0  0  1  0  0  3  0  0  0  0  0  0
  189.9320  177.8480  142.7110 C   0  0  0  0  0  2  0  0  0  0  0  0
  186.8030  178.7150  144.7170 C   0  0  0  0  0  3  0  0  0  0  0  0
  185.6040  179.1820  144.3620 C   0  0  0  0  0  2  0  0  0  0  0  0
  1  2  1  0  0  0  0
  2  6  2  0  0  0  0
  2 21  1  0  0  0  0
  3  4  1  0  0  0  0
  3  1  2  0  0  0  0
  4  5  2  0  0  0  0
  5  6  1  0  0  0  0
  7  3  1  0  0  0  0
  8 10  2  0  0  0  0
  8  7  1  0  0  0  0
  9 15  1  0  0  0  0
  9 16  1  0  0  0  0
 11 15  1  0  0  0  0
 12 11  1  1  0  0  0
 12 13  1  0  0  0  0
 12 14  1  0  0  0  0
 13  8  1  0  0  0  0
 14 10  1  0  0  0  0
 16 14  1  0  0  0  0
 17  4  1  0  0  0  0
 18 17  1  0  0  0  0
 19 18  1  0  0  0  0
 20 19  1  0  0  0  0
 22 21  1  0  0  0  0
 23 22  1  0  0  0  0
 24 26  1  1  0  0  0
 24 31  1  0  0  0  0
 24 29  1  0  0  0  0
 25 28  1  0  0  0  0
 25 30  1  0  0  0  0
 27 29  1  0  0  0  0
 28 24  1  0  0  0  0
 29 23  1  1  0  0  0
 30 27  1  0  0  0  0
 32 31  2  0  0  0  0
M  END
>  <MODEL>
4

>  <REMARK>
 VINA RESULT:      -7.3      2.973      7.627
  Name = 
  10 active torsions:
  status: ('A' for Active; 'I' for Inactive)
    1  A    between atoms: C_2  and  C_5
    2  A    between atoms: C_2  and  C_6
    3  A    between atoms: C_3  and  C_22
    4  A    between atoms: C_4  and  C_27
    5  A    between atoms: C_13  and  C_29
    6  A    between atoms: C_14  and  O_18
    7  A    between atoms: C_16  and  C_20
    8  A    between atoms: C_16  and  O_24
    9  A    between atoms: O_18  and  C_29
   10  A    between atoms: O_24  and  C_27
                            x       y       z     vdW  Elec       q    Type
                         _______ _______ _______ _____ _____    ______ ____

>  <TORSDO>
F 10

$$$$
=
 OpenBabel11052419193D

 32 35  0  0  1  0  0  0  0  0999 V2000
  191.8930  174.5930  145.6940 C   0  0  0  0  0  3  0  0  0  0  0  0
  191.4650  175.4220  146.7320 C   0  0  0  0  0  0  0  0  0  0  0  0
  193.1870  174.7200  145.1740 C   0  0  0  0  0  0  0  0  0  0  0  0
  194.0610  175.6900  145.6970 C   0  0  0  0  0  0  0  0  0  0  0  0
  193.6240  176.5160  146.7470 C   0  0  0  0  0  3  0  0  0  0  0  0
  192.3340  176.3780  147.2650 C   0  0  0  0  0  3  0  0  0  0  0  0
  193.6060  173.8330  144.0480 C   0  0  0  0  0  2  0  0  0  0  0  0
  192.4930  173.6770  143.0700 C   0  0  0  0  0  0  0  0  0  0  0  0
  188.5370  172.6700  141.1800 C   0  0  0  0  0  2  0  0  0  0  0  0
  191.8450  172.5730  142.9210 N   0  0  0  0  0  0  0  0  0  0  0  0
  189.5550  174.9000  141.9290 C   0  0  0  0  0  2  0  0  0  0  0  0
  190.8610  174.1890  141.5530 C   0  0  1  0  0  3  0  0  0  0  0  0
  191.9760  174.7590  142.2990 N   0  0  0  0  0  2  0  0  0  0  0  0
  190.8370  172.7970  141.9850 N   0  0  0  0  0  0  0  0  0  0  0  0
  188.3130  173.9900  141.9170 C   0  0  0  0  0  2  0  0  0  0  0  0
  189.6890  171.9120  141.8280 C   0  0  0  0  0  2  0  0  0  0  0  0
  195.3490  175.8180  145.1640 O   0  0  0  0  0  0  0  0  0  0  0  0
  195.6820  176.7870  144.1800 C   0  0  0  0  0  2  0  0  0  0  0  0
  196.6860  176.1960  143.2130 C   0  0  0  0  0  2  0  0  0  0  0  0
  196.3520  176.6440  141.8060 C   0  0  0  0  0  1  0  0  0  0  0  0
  190.1060  175.2400  147.3140 C   0  0  0  0  0  2  0  0  0  0  0  0
  189.3900  176.4360  147.2240 O   0  0  0  0  0  0  0  0  0  0  0  0
  188.1500  176.0710  146.6940 C   0  0  0  0  0  2  0  0  0  0  0  0
  186.9510  177.6240  144.9800 C   0  0  2  0  0  0  0  0  0  0  0  0
  184.8590  178.8400  145.7950 C   0  0  0  0  0  2  0  0  0  0  0  0
  188.2580  177.9310  144.2730 C   0  0  0  0  0  1  0  0  0  0  0  0
  186.0150  177.2700  147.3530 C   0  0  0  0  0  2  0  0  0  0  0  0
  186.0920  178.8960  144.8920 C   0  0  0  0  0  2  0  0  0  0  0  0
  187.2600  177.2970  146.4660 C   0  0  1  0  0  3  0  0  0  0  0  0
  185.2690  178.5940  147.2410 C   0  0  0  0  0  2  0  0  0  0  0  0
  186.2970  176.4850  144.2300 C   0  0  0  0  0  3  0  0  0  0  0  0
  185.9560  176.5470  142.9410 C   0  0  0  0  0  2  0  0  0  0  0  0
  1  2  1  0  0  0  0
  2  6  2  0  0  0  0
  2 21  1  0  0  0  0
  3  1  2  0  0  0  0
  3  4  1  0  0  0  0
  4  5  2  0  0  0  0
  5  6  1  0  0  0  0
  7  3  1  0  0  0  0
  8  7  1  0  0  0  0
  9 16  1  0  0  0  0
  9 15  1  0  0  0  0
 10  8  2  0  0  0  0
 12 11  1  1  0  0  0
 12 14  1  0  0  0  0
 12 13  1  0  0  0  0
 13  8  1  0  0  0  0
 14 10  1  0  0  0  0
 15 11  1  0  0  0  0
 16 14  1  0  0  0  0
 17  4  1  0  0  0  0
 18 17  1  0  0  0  0
 19 18  1  0  0  0  0
 20 19  1  0  0  0  0
 22 21  1  0  0  0  0
 23 22  1  0  0  0  0
 24 26  1  6  0  0  0
 24 29  1  0  0  0  0
 25 30  1  0  0  0  0
 28 24  1  0  0  0  0
 28 25  1  0  0  0  0
 29 23  1  6  0  0  0
 29 27  1  0  0  0  0
 30 27  1  0  0  0  0
 31 24  1  0  0  0  0
 32 31  2  0  0  0  0
M  END
>  <MODEL>
5

>  <REMARK>
 VINA RESULT:      -7.2      2.837      7.977
  Name = 
  10 active torsions:
  status: ('A' for Active; 'I' for Inactive)
    1  A    between atoms: C_2  and  C_5
    2  A    between atoms: C_2  and  C_6
    3  A    between atoms: C_3  and  C_22
    4  A    between atoms: C_4  and  C_27
    5  A    between atoms: C_13  and  C_29
    6  A    between atoms: C_14  and  O_18
    7  A    between atoms: C_16  and  C_20
    8  A    between atoms: C_16  and  O_24
    9  A    between atoms: O_18  and  C_29
   10  A    between atoms: O_24  and  C_27
                            x       y       z     vdW  Elec       q    Type
                         _______ _______ _______ _____ _____    ______ ____

>  <TORSDO>
F 10

$$$$
=
 OpenBabel11052419193D

 32 35  0  0  1  0  0  0  0  0999 V2000
  190.7610  177.0100  145.3150 C   0  0  0  0  0  3  0  0  0  0  0  0
  190.2840  176.8510  146.6180 C   0  0  0  0  0  0  0  0  0  0  0  0
  191.9170  176.3400  144.8980 C   0  0  0  0  0  0  0  0  0  0  0  0
  192.6080  175.5070  145.7960 C   0  0  0  0  0  0  0  0  0  0  0  0
  192.1170  175.3480  147.1030 C   0  0  0  0  0  3  0  0  0  0  0  0
  190.9570  176.0130  147.5100 C   0  0  0  0  0  3  0  0  0  0  0  0
  192.4130  176.5490  143.5050 C   0  0  0  0  0  2  0  0  0  0  0  0
  191.8170  175.5370  142.5870 C   0  0  0  0  0  0  0  0  0  0  0  0
  190.7440  171.6630  140.5680 C   0  0  0  0  0  2  0  0  0  0  0  0
  192.5170  174.6260  142.0040 N   0  0  0  0  0  0  0  0  0  0  0  0
  189.4290  173.1820  142.1590 C   0  0  0  0  0  2  0  0  0  0  0  0
  190.2710  174.2700  141.4780 C   0  0  1  0  0  3  0  0  0  0  0  0
  190.4140  175.4200  142.3620 N   0  0  0  0  0  2  0  0  0  0  0  0
  191.6420  173.8170  141.2810 N   0  0  0  0  0  0  0  0  0  0  0  0
  189.8450  171.7440  141.8010 C   0  0  0  0  0  2  0  0  0  0  0  0
  192.0040  172.4900  140.7990 C   0  0  0  0  0  2  0  0  0  0  0  0
  193.7700  174.8500  145.3750 O   0  0  0  0  0  0  0  0  0  0  0  0
  193.8610  173.4360  145.2740 C   0  0  0  0  0  2  0  0  0  0  0  0
  195.2890  173.0050  145.5310 C   0  0  0  0  0  2  0  0  0  0  0  0
  196.1370  174.2250  145.8240 C   0  0  0  0  0  1  0  0  0  0  0  0
  189.0220  177.5240  147.0320 C   0  0  0  0  0  2  0  0  0  0  0  0
  188.0460  176.5660  147.3130 O   0  0  0  0  0  0  0  0  0  0  0  0
  187.4270  176.3140  146.0860 C   0  0  0  0  0  2  0  0  0  0  0  0
  186.4090  177.7360  144.1550 C   0  0  2  0  0  0  0  0  0  0  0  0
  184.1390  178.8200  144.5960 C   0  0  0  0  0  2  0  0  0  0  0  0
  187.7870  178.1190  143.6470 C   0  0  0  0  0  1  0  0  0  0  0  0
  185.1410  177.3740  146.3670 C   0  0  0  0  0  2  0  0  0  0  0  0
  185.4920  178.9420  143.8920 C   0  0  0  0  0  2  0  0  0  0  0  0
  186.5040  177.4670  145.6810 C   0  0  1  0  0  3  0  0  0  0  0  0
  184.3350  178.6380  146.0960 C   0  0  0  0  0  2  0  0  0  0  0  0
  185.9570  176.5360  143.3530 C   0  0  0  0  0  3  0  0  0  0  0  0
  186.7600  175.8380  142.5470 C   0  0  0  0  0  2  0  0  0  0  0  0
  1  2  1  0  0  0  0
  2 21  1  0  0  0  0
  2  6  2  0  0  0  0
  3  1  2  0  0  0  0
  3  4  1  0  0  0  0
  4  5  2  0  0  0  0
  5  6  1  0  0  0  0
  7  3  1  0  0  0  0
  8  7  1  0  0  0  0
  9 16  1  0  0  0  0
  9 15  1  0  0  0  0
 10  8  2  0  0  0  0
 12 11  1  1  0  0  0
 12 13  1  0  0  0  0
 13  8  1  0  0  0  0
 14 12  1  0  0  0  0
 14 10  1  0  0  0  0
 15 11  1  0  0  0  0
 16 14  1  0  0  0  0
 17  4  1  0  0  0  0
 18 17  1  0  0  0  0
 18 19  1  0  0  0  0
 19 20  1  0  0  0  0
 21 22  1  0  0  0  0
 23 22  1  0  0  0  0
 24 26  1  6  0  0  0
 24 29  1  0  0  0  0
 25 30  1  0  0  0  0
 28 24  1  0  0  0  0
 28 25  1  0  0  0  0
 29 23  1  6  0  0  0
 29 27  1  0  0  0  0
 30 27  1  0  0  0  0
 31 24  1  0  0  0  0
 32 31  2  0  0  0  0
M  END
>  <MODEL>
6

>  <REMARK>
 VINA RESULT:      -7.2      2.581      8.099
  Name = 
  10 active torsions:
  status: ('A' for Active; 'I' for Inactive)
    1  A    between atoms: C_2  and  C_5
    2  A    between atoms: C_2  and  C_6
    3  A    between atoms: C_3  and  C_22
    4  A    between atoms: C_4  and  C_27
    5  A    between atoms: C_13  and  C_29
    6  A    between atoms: C_14  and  O_18
    7  A    between atoms: C_16  and  C_20
    8  A    between atoms: C_16  and  O_24
    9  A    between atoms: O_18  and  C_29
   10  A    between atoms: O_24  and  C_27
                            x       y       z     vdW  Elec       q    Type
                         _______ _______ _______ _____ _____    ______ ____

>  <TORSDO>
F 10

$$$$
=
 OpenBabel11052419193D

 32 35  0  0  1  0  0  0  0  0999 V2000
  190.1240  174.5170  141.5350 C   0  0  0  0  0  3  0  0  0  0  0  0
  188.7300  174.5220  141.6080 C   0  0  0  0  0  0  0  0  0  0  0  0
  190.8450  173.3600  141.8490 C   0  0  0  0  0  0  0  0  0  0  0  0
  190.1640  172.1940  142.2460 C   0  0  0  0  0  0  0  0  0  0  0  0
  188.7610  172.2060  142.3090 C   0  0  0  0  0  3  0  0  0  0  0  0
  188.0470  173.3630  141.9860 C   0  0  0  0  0  3  0  0  0  0  0  0
  192.3370  173.3940  141.7840 C   0  0  0  0  0  2  0  0  0  0  0  0
  192.8970  173.9570  143.0450 C   0  0  0  0  0  0  0  0  0  0  0  0
  193.8170  176.6820  146.5040 C   0  0  0  0  0  2  0  0  0  0  0  0
  193.3840  175.1480  143.1220 N   0  0  0  0  0  0  0  0  0  0  0  0
  192.3840  174.5640  146.3310 C   0  0  0  0  0  2  0  0  0  0  0  0
  193.4190  174.2050  145.2570 C   0  0  1  0  0  3  0  0  0  0  0  0
  192.8420  173.2740  144.2960 N   0  0  0  0  0  2  0  0  0  0  0  0
  193.7520  175.3710  144.4470 N   0  0  0  0  0  0  0  0  0  0  0  0
  192.4920  176.0070  146.8570 C   0  0  0  0  0  2  0  0  0  0  0  0
  193.9930  176.7020  144.9900 C   0  0  0  0  0  2  0  0  0  0  0  0
  190.8930  171.0450  142.5690 O   0  0  0  0  0  0  0  0  0  0  0  0
  190.7630  169.8230  141.8540 C   0  0  0  0  0  2  0  0  0  0  0  0
  190.9340  170.0880  140.3740 C   0  0  0  0  0  2  0  0  0  0  0  0
  192.4030  169.9990  140.0140 C   0  0  0  0  0  1  0  0  0  0  0  0
  187.9710  175.7420  141.2170 C   0  0  0  0  0  2  0  0  0  0  0  0
  186.9040  175.9380  142.0960 O   0  0  0  0  0  0  0  0  0  0  0  0
  187.3360  176.9430  142.9660 C   0  0  0  0  0  2  0  0  0  0  0  0
  188.2320  176.4940  145.3700 C   0  0  2  0  0  0  0  0  0  0  0  0
  186.6400  176.9920  147.3040 C   0  0  0  0  0  2  0  0  0  0  0  0
  189.1270  175.3720  144.8780 C   0  0  0  0  0  1  0  0  0  0  0  0
  185.8840  177.4760  144.9750 C   0  0  0  0  0  2  0  0  0  0  0  0
  187.7670  176.1000  146.7820 C   0  0  0  0  0  2  0  0  0  0  0  0
  187.0070  176.5980  144.4210 C   0  0  1  0  0  3  0  0  0  0  0  0
  185.4550  176.9680  146.3460 C   0  0  0  0  0  2  0  0  0  0  0  0
  189.0740  177.7480  145.4160 C   0  0  0  0  0  3  0  0  0  0  0  0
  190.2420  177.8800  144.7830 C   0  0  0  0  0  2  0  0  0  0  0  0
  1  2  2  0  0  0  0
  1  3  1  0  0  0  0
  2  6  1  0  0  0  0
  3  4  2  0  0  0  0
  4  5  1  0  0  0  0
  4 17  1  0  0  0  0
  6  5  2  0  0  0  0
  7  3  1  0  0  0  0
  7  8  1  0  0  0  0
  8 10  2  0  0  0  0
  8 13  1  0  0  0  0
  9 15  1  0  0  0  0
 10 14  1  0  0  0  0
 11 15  1  0  0  0  0
 12 11  1  1  0  0  0
 13 12  1  0  0  0  0
 14 16  1  0  0  0  0
 14 12  1  0  0  0  0
 16  9  1  0  0  0  0
 18 17  1  0  0  0  0
 19 18  1  0  0  0  0
 20 19  1  0  0  0  0
 21  2  1  0  0  0  0
 21 22  1  0  0  0  0
 22 23  1  0  0  0  0
 24 26  1  6  0  0  0
 24 31  1  0  0  0  0
 24 28  1  0  0  0  0
 27 30  1  0  0  0  0
 28 25  1  0  0  0  0
 29 23  1  6  0  0  0
 29 27  1  0  0  0  0
 29 24  1  0  0  0  0
 30 25  1  0  0  0  0
 32 31  2  0  0  0  0
M  END
>  <MODEL>
7

>  <REMARK>
 VINA RESULT:      -7.2      3.337      8.298
  Name = 
  10 active torsions:
  status: ('A' for Active; 'I' for Inactive)
    1  A    between atoms: C_2  and  C_5
    2  A    between atoms: C_2  and  C_6
    3  A    between atoms: C_3  and  C_22
    4  A    between atoms: C_4  and  C_27
    5  A    between atoms: C_13  and  C_29
    6  A    between atoms: C_14  and  O_18
    7  A    between atoms: C_16  and  C_20
    8  A    between atoms: C_16  and  O_24
    9  A    between atoms: O_18  and  C_29
   10  A    between atoms: O_24  and  C_27
                            x       y       z     vdW  Elec       q    Type
                         _______ _______ _______ _____ _____    ______ ____

>  <TORSDO>
F 10

$$$$
=
 OpenBabel11052419193D

 32 35  0  0  1  0  0  0  0  0999 V2000
  189.3360  175.4970  142.4340 C   0  0  0  0  0  3  0  0  0  0  0  0
  189.3460  174.3220  141.6810 C   0  0  0  0  0  0  0  0  0  0  0  0
  188.5720  176.5960  142.0220 C   0  0  0  0  0  0  0  0  0  0  0  0
  187.8140  176.5200  140.8400 C   0  0  0  0  0  0  0  0  0  0  0  0
  187.8240  175.3300  140.0920 C   0  0  0  0  0  3  0  0  0  0  0  0
  188.5830  174.2350  140.5140 C   0  0  0  0  0  3  0  0  0  0  0  0
  188.6010  177.8460  142.8390 C   0  0  0  0  0  2  0  0  0  0  0  0
  187.6140  177.7600  143.9510 C   0  0  0  0  0  0  0  0  0  0  0  0
  185.6970  177.8690  148.0200 C   0  0  0  0  0  2  0  0  0  0  0  0
  187.8600  177.1450  145.0570 N   0  0  0  0  0  0  0  0  0  0  0  0
  185.5380  179.4550  146.0130 C   0  0  0  0  0  2  0  0  0  0  0  0
  185.7620  178.1530  145.2330 C   0  0  1  0  0  3  0  0  0  0  0  0
  186.3610  178.4410  143.9360 N   0  0  0  0  0  2  0  0  0  0  0  0
  186.7590  177.3180  145.8930 N   0  0  0  0  0  0  0  0  0  0  0  0
  185.7120  179.3190  147.5360 C   0  0  0  0  0  2  0  0  0  0  0  0
  186.8110  177.0890  147.3310 C   0  0  0  0  0  2  0  0  0  0  0  0
  187.0620  177.6260  140.4290 O   0  0  0  0  0  0  0  0  0  0  0  0
  185.7030  177.5270  140.0270 C   0  0  0  0  0  2  0  0  0  0  0  0
  184.8610  178.4610  140.8690 C   0  0  0  0  0  2  0  0  0  0  0  0
  183.4000  178.2800  140.5130 C   0  0  0  0  0  1  0  0  0  0  0  0
  190.1170  173.1410  142.1590 C   0  0  0  0  0  2  0  0  0  0  0  0
  189.8380  172.9090  143.5080 O   0  0  0  0  0  0  0  0  0  0  0  0
  191.0820  172.9400  144.1420 C   0  0  0  0  0  2  0  0  0  0  0  0
  192.0850  174.7250  145.7530 C   0  0  2  0  0  0  0  0  0  0  0  0
  190.4840  175.7850  147.4370 C   0  0  0  0  0  2  0  0  0  0  0  0
  193.4450  174.0530  145.7250 C   0  0  0  0  0  1  0  0  0  0  0  0
  189.5800  174.1280  145.8040 C   0  0  0  0  0  2  0  0  0  0  0  0
  191.9140  175.3170  147.1610 C   0  0  0  0  0  2  0  0  0  0  0  0
  190.9990  173.6450  145.4990 C   0  0  1  0  0  3  0  0  0  0  0  0
  189.5010  174.6380  147.2370 C   0  0  0  0  0  2  0  0  0  0  0  0
  192.1080  175.8210  144.7120 C   0  0  0  0  0  3  0  0  0  0  0  0
  193.0770  176.7340  144.6190 C   0  0  0  0  0  2  0  0  0  0  0  0
  2 21  1  0  0  0  0
  2  1  2  0  0  0  0
  3  1  1  0  0  0  0
  3  7  1  0  0  0  0
  4  3  2  0  0  0  0
  5  6  2  0  0  0  0
  5  4  1  0  0  0  0
  6  2  1  0  0  0  0
  7  8  1  0  0  0  0
  8 10  2  0  0  0  0
 10 14  1  0  0  0  0
 11 15  1  0  0  0  0
 12 14  1  0  0  0  0
 12 11  1  1  0  0  0
 13  8  1  0  0  0  0
 13 12  1  0  0  0  0
 14 16  1  0  0  0  0
 15  9  1  0  0  0  0
 16  9  1  0  0  0  0
 17  4  1  0  0  0  0
 18 17  1  0  0  0  0
 18 19  1  0  0  0  0
 20 19  1  0  0  0  0
 21 22  1  0  0  0  0
 22 23  1  0  0  0  0
 24 26  1  6  0  0  0
 24 28  1  0  0  0  0
 27 30  1  0  0  0  0
 28 25  1  0  0  0  0
 29 23  1  6  0  0  0
 29 24  1  0  0  0  0
 29 27  1  0  0  0  0
 30 25  1  0  0  0  0
 31 24  1  0  0  0  0
 32 31  2  0  0  0  0
M  END
>  <MODEL>
8

>  <REMARK>
 VINA RESULT:      -7.1      2.200      4.864
  Name = 
  10 active torsions:
  status: ('A' for Active; 'I' for Inactive)
    1  A    between atoms: C_2  and  C_5
    2  A    between atoms: C_2  and  C_6
    3  A    between atoms: C_3  and  C_22
    4  A    between atoms: C_4  and  C_27
    5  A    between atoms: C_13  and  C_29
    6  A    between atoms: C_14  and  O_18
    7  A    between atoms: C_16  and  C_20
    8  A    between atoms: C_16  and  O_24
    9  A    between atoms: O_18  and  C_29
   10  A    between atoms: O_24  and  C_27
                            x       y       z     vdW  Elec       q    Type
                         _______ _______ _______ _____ _____    ______ ____

>  <TORSDO>
F 10

$$$$
=
 OpenBabel11052419193D

 32 35  0  0  1  0  0  0  0  0999 V2000
  187.8200  175.9660  143.1120 C   0  0  0  0  0  3  0  0  0  0  0  0
  187.7020  176.1390  141.7320 C   0  0  0  0  0  0  0  0  0  0  0  0
  187.3700  176.9580  143.9910 C   0  0  0  0  0  0  0  0  0  0  0  0
  186.8000  178.1400  143.4830 C   0  0  0  0  0  0  0  0  0  0  0  0
  186.6790  178.3020  142.0920 C   0  0  0  0  0  3  0  0  0  0  0  0
  187.1230  177.3030  141.2210 C   0  0  0  0  0  3  0  0  0  0  0  0
  187.5320  176.7530  145.4610 C   0  0  0  0  0  2  0  0  0  0  0  0
  188.9770  176.7030  145.8210 C   0  0  0  0  0  0  0  0  0  0  0  0
  193.1920  175.2910  146.5130 C   0  0  0  0  0  2  0  0  0  0  0  0
  189.4830  175.7670  146.5480 N   0  0  0  0  0  0  0  0  0  0  0  0
  192.1640  176.7780  144.6950 C   0  0  0  0  0  2  0  0  0  0  0  0
  191.2170  177.1600  145.8400 C   0  0  1  0  0  3  0  0  0  0  0  0
  189.9410  177.6180  145.3040 N   0  0  0  0  0  2  0  0  0  0  0  0
  190.8560  175.9890  146.6290 N   0  0  0  0  0  0  0  0  0  0  0  0
  193.1060  175.6030  145.0190 C   0  0  0  0  0  2  0  0  0  0  0  0
  191.8020  174.9620  147.0470 C   0  0  0  0  0  2  0  0  0  0  0  0
  186.3630  179.1320  144.3670 O   0  0  0  0  0  0  0  0  0  0  0  0
  185.0870  179.7500  144.2630 C   0  0  0  0  0  2  0  0  0  0  0  0
  184.0500  178.8750  144.9340 C   0  0  0  0  0  2  0  0  0  0  0  0
  184.4420  178.6500  146.3790 C   0  0  0  0  0  1  0  0  0  0  0  0
  188.1330  175.0520  140.8090 C   0  0  0  0  0  2  0  0  0  0  0  0
  187.9170  173.8090  141.4090 O   0  0  0  0  0  0  0  0  0  0  0  0
  188.8920  172.9720  140.8610 C   0  0  0  0  0  2  0  0  0  0  0  0
  191.3290  172.7110  141.7430 C   0  0  2  0  0  0  0  0  0  0  0  0
  191.6150  172.4040  144.2630 C   0  0  0  0  0  2  0  0  0  0  0  0
  191.7780  172.0620  140.4480 C   0  0  0  0  0  1  0  0  0  0  0  0
  189.3160  172.7450  143.3510 C   0  0  0  0  0  2  0  0  0  0  0  0
  192.1450  172.0570  142.8700 C   0  0  0  0  0  2  0  0  0  0  0  0
  189.8180  172.4130  141.9450 C   0  0  1  0  0  3  0  0  0  0  0  0
  190.1500  172.0040  144.3890 C   0  0  0  0  0  2  0  0  0  0  0  0
  191.6490  174.1850  141.6380 C   0  0  0  0  0  3  0  0  0  0  0  0
  192.8810  174.6630  141.4480 C   0  0  0  0  0  2  0  0  0  0  0  0
  1  3  1  0  0  0  0
  2  1  2  0  0  0  0
  3  7  1  0  0  0  0
  4  3  2  0  0  0  0
  4 17  1  0  0  0  0
  5  4  1  0  0  0  0
  6  2  1  0  0  0  0
  6  5  2  0  0  0  0
  7  8  1  0  0  0  0
  8 10  2  0  0  0  0
  9 16  1  0  0  0  0
 10 14  1  0  0  0  0
 11 15  1  0  0  0  0
 12 11  1  6  0  0  0
 12 14  1  0  0  0  0
 13  8  1  0  0  0  0
 13 12  1  0  0  0  0
 14 16  1  0  0  0  0
 15  9  1  0  0  0  0
 18 17  1  0  0  0  0
 18 19  1  0  0  0  0
 19 20  1  0  0  0  0
 21 22  1  0  0  0  0
 21  2  1  0  0  0  0
 23 22  1  0  0  0  0
 24 26  1  6  0  0  0
 24 29  1  0  0  0  0
 24 28  1  0  0  0  0
 25 30  1  0  0  0  0
 27 30  1  0  0  0  0
 28 25  1  0  0  0  0
 29 23  1  6  0  0  0
 29 27  1  0  0  0  0
 31 24  1  0  0  0  0
 32 31  2  0  0  0  0
M  END
>  <MODEL>
9

>  <REMARK>
 VINA RESULT:      -7.0      2.843      5.802
  Name = 
  10 active torsions:
  status: ('A' for Active; 'I' for Inactive)
    1  A    between atoms: C_2  and  C_5
    2  A    between atoms: C_2  and  C_6
    3  A    between atoms: C_3  and  C_22
    4  A    between atoms: C_4  and  C_27
    5  A    between atoms: C_13  and  C_29
    6  A    between atoms: C_14  and  O_18
    7  A    between atoms: C_16  and  C_20
    8  A    between atoms: C_16  and  O_24
    9  A    between atoms: O_18  and  C_29
   10  A    between atoms: O_24  and  C_27
                            x       y       z     vdW  Elec       q    Type
                         _______ _______ _______ _____ _____    ______ ____

>  <TORSDO>
F 10

$$$$
