=
 OpenBabel11052417173D

 30 33  0  0  0  0  0  0  0  0999 V2000
  187.9730  177.2260  142.2280 N   0  0  0  0  0  0  0  0  0  0  0  0
  186.2110  177.8850  140.7550 C   0  0  0  0  0  0  0  0  0  0  0  0
  185.4080  177.2130  145.5290 C   0  0  0  0  0  3  0  0  0  0  0  0
  188.4820  176.9080  143.4490 C   0  0  0  0  0  0  0  0  0  0  0  0
  185.8930  176.8450  146.7850 C   0  0  0  0  0  3  0  0  0  0  0  0
  184.8720  178.2320  140.5580 C   0  0  0  0  0  3  0  0  0  0  0  0
  187.0590  177.8690  139.6970 F   0  0  0  0  0  0  0  0  0  0  0  0
  186.2600  177.2330  144.4110 C   0  0  0  0  0  0  0  0  0  0  0  0
  183.9860  178.2530  141.6370 C   0  0  0  0  0  3  0  0  0  0  0  0
  186.6700  177.5570  142.0380 C   0  0  0  0  0  0  0  0  0  0  0  0
  187.6250  176.8860  144.5730 C   0  0  0  0  0  0  0  0  0  0  0  0
  187.2320  176.4890  146.9400 C   0  0  0  0  0  3  0  0  0  0  0  0
  188.0910  176.5050  145.8400 C   0  0  0  0  0  3  0  0  0  0  0  0
  184.4350  177.9270  142.9190 C   0  0  0  0  0  3  0  0  0  0  0  0
  185.7790  177.5760  143.1350 C   0  0  0  0  0  0  0  0  0  0  0  0
  190.3340  173.7360  141.0210 C   0  0  0  0  0  2  0  0  0  0  0  0
  191.7560  175.7620  142.4340 O   0  0  0  0  0  0  0  0  0  0  0  0
  190.5280  175.6310  142.6850 C   0  0  0  0  0  0  0  0  0  0  0  0
  188.5690  174.0020  142.6490 C   0  0  0  0  0  2  0  0  0  0  0  0
  189.8050  174.5310  142.1090 N   0  0  0  0  0  0  0  0  0  0  0  0
  189.8810  176.5810  143.5550 N   0  0  0  0  0  0  0  0  0  0  0  0
  189.2710  172.6990  140.7170 C   0  0  0  0  0  2  0  0  0  0  0  0
  188.3090  172.7120  141.8970 C   0  0  0  0  0  2  0  0  0  0  0  0
  190.6510  177.1800  144.6370 C   0  0  0  0  0  2  0  0  0  0  0  0
  191.1530  176.0990  145.5820 C   0  0  0  0  0  2  0  0  0  0  0  0
  192.5010  176.4890  146.1550 C   0  0  0  0  0  2  0  0  0  0  0  0
  193.5610  176.1060  145.2360 N   0  0  0  0  0  2  0  0  0  0  0  0
  194.9260  177.9250  145.7710 O   0  0  0  0  0  0  0  0  0  0  0  0
  194.7530  176.8760  145.0940 C   0  0  0  0  0  0  0  0  0  0  0  0
  195.7580  176.4560  144.1780 N   0  0  0  0  0  1  0  0  0  0  0  0
  1  4  1  0  0  0  0
  2 10  1  0  0  0  0
  3  5  2  0  0  0  0
  4 21  1  0  0  0  0
  4 11  2  0  0  0  0
  5 12  1  0  0  0  0
  6  2  2  0  0  0  0
  6  9  1  0  0  0  0
  7  2  1  0  0  0  0
  8 11  1  0  0  0  0
  8  3  1  0  0  0  0
  9 14  2  0  0  0  0
 10  1  2  0  0  0  0
 10 15  1  0  0  0  0
 11 13  1  0  0  0  0
 13 12  2  0  0  0  0
 14 15  1  0  0  0  0
 15  8  2  0  0  0  0
 16 20  1  0  0  0  0
 17 18  2  0  0  0  0
 18 21  1  0  0  0  0
 20 19  1  0  0  0  0
 20 18  1  0  0  0  0
 21 24  1  0  0  0  0
 22 16  1  0  0  0  0
 22 23  1  0  0  0  0
 23 19  1  0  0  0  0
 24 25  1  0  0  0  0
 25 26  1  0  0  0  0
 27 26  1  0  0  0  0
 29 27  1  0  0  0  0
 29 28  2  0  0  0  0
 30 29  1  0  0  0  0
M  END
>  <MODEL>
1

>  <REMARK>
 VINA RESULT:      -8.2      0.000      0.000
  Name = 
  5 active torsions:
  status: ('A' for Active; 'I' for Inactive)
    1  A    between atoms: C_4  and  N_13
    2  A    between atoms: N_7  and  C_16
    3  A    between atoms: N_13  and  C_27
    4  A    between atoms: C_16  and  C_30
    5  A    between atoms: C_27  and  C_30
                            x       y       z     vdW  Elec       q    Type
                         _______ _______ _______ _____ _____    ______ ____

>  <TORSDO>
F 5

$$$$
=
 OpenBabel11052417173D

 30 33  0  0  0  0  0  0  0  0999 V2000
  187.0790  176.0170  144.5170 N   0  0  0  0  0  0  0  0  0  0  0  0
  185.8910  177.0400  146.3200 C   0  0  0  0  0  0  0  0  0  0  0  0
  185.1380  178.4040  141.6870 C   0  0  0  0  0  3  0  0  0  0  0  0
  187.3800  175.8440  143.2010 C   0  0  0  0  0  0  0  0  0  0  0  0
  185.4600  178.2810  140.3350 C   0  0  0  0  0  3  0  0  0  0  0  0
  184.9420  177.9640  146.7670 C   0  0  0  0  0  3  0  0  0  0  0  0
  186.5430  176.2650  147.2200 F   0  0  0  0  0  0  0  0  0  0  0  0
  185.7740  177.6010  142.6500 C   0  0  0  0  0  0  0  0  0  0  0  0
  184.2620  178.7710  145.8520 C   0  0  0  0  0  3  0  0  0  0  0  0
  186.1610  176.9190  144.9500 C   0  0  0  0  0  0  0  0  0  0  0  0
  186.7420  176.6530  142.2330 C   0  0  0  0  0  0  0  0  0  0  0  0
  186.4250  177.3590  139.9270 C   0  0  0  0  0  3  0  0  0  0  0  0
  187.0640  176.5540  140.8710 C   0  0  0  0  0  3  0  0  0  0  0  0
  184.5270  178.6570  144.4860 C   0  0  0  0  0  3  0  0  0  0  0  0
  185.4770  177.7330  144.0190 C   0  0  0  0  0  0  0  0  0  0  0  0
  191.6230  176.2260  144.3150 C   0  0  0  0  0  2  0  0  0  0  0  0
  190.3690  173.8260  143.4250 O   0  0  0  0  0  0  0  0  0  0  0  0
  189.7250  174.9010  143.2940 C   0  0  0  0  0  0  0  0  0  0  0  0
  189.9410  177.4300  143.0660 C   0  0  0  0  0  2  0  0  0  0  0  0
  190.3720  176.1490  143.5910 N   0  0  0  0  0  0  0  0  0  0  0  0
  188.3590  174.8530  142.8370 N   0  0  0  0  0  0  0  0  0  0  0  0
  191.9490  177.7030  144.4130 C   0  0  0  0  0  2  0  0  0  0  0  0
  191.0430  178.4100  143.4160 C   0  0  0  0  0  2  0  0  0  0  0  0
  187.9670  173.8050  141.9040 C   0  0  0  0  0  2  0  0  0  0  0  0
  188.9100  173.7880  140.7110 C   0  0  0  0  0  2  0  0  0  0  0  0
  188.3170  172.9620  139.5860 C   0  0  0  0  0  2  0  0  0  0  0  0
  189.0400  173.2170  138.3500 N   0  0  0  0  0  2  0  0  0  0  0  0
  187.5680  174.8800  137.6240 O   0  0  0  0  0  0  0  0  0  0  0  0
  188.6050  174.1960  137.4080 C   0  0  0  0  0  0  0  0  0  0  0  0
  189.3500  174.4040  136.2140 N   0  0  0  0  0  1  0  0  0  0  0  0
  1 10  1  0  0  0  0
  2  6  1  0  0  0  0
  2  7  1  0  0  0  0
  3  8  1  0  0  0  0
  4  1  2  0  0  0  0
  5  3  2  0  0  0  0
  8 15  1  0  0  0  0
  9  6  2  0  0  0  0
 10  2  2  0  0  0  0
 11  8  2  0  0  0  0
 11  4  1  0  0  0  0
 12  5  1  0  0  0  0
 12 13  2  0  0  0  0
 13 11  1  0  0  0  0
 14  9  1  0  0  0  0
 15 14  2  0  0  0  0
 15 10  1  0  0  0  0
 16 22  1  0  0  0  0
 18 17  2  0  0  0  0
 18 20  1  0  0  0  0
 19 23  1  0  0  0  0
 19 20  1  0  0  0  0
 20 16  1  0  0  0  0
 21  4  1  0  0  0  0
 21 18  1  0  0  0  0
 23 22  1  0  0  0  0
 24 21  1  0  0  0  0
 25 24  1  0  0  0  0
 26 25  1  0  0  0  0
 27 26  1  0  0  0  0
 29 28  2  0  0  0  0
 29 27  1  0  0  0  0
 30 29  1  0  0  0  0
M  END
>  <MODEL>
2

>  <REMARK>
 VINA RESULT:      -8.1      2.697      5.799
  Name = 
  5 active torsions:
  status: ('A' for Active; 'I' for Inactive)
    1  A    between atoms: C_4  and  N_13
    2  A    between atoms: N_7  and  C_16
    3  A    between atoms: N_13  and  C_27
    4  A    between atoms: C_16  and  C_30
    5  A    between atoms: C_27  and  C_30
                            x       y       z     vdW  Elec       q    Type
                         _______ _______ _______ _____ _____    ______ ____

>  <TORSDO>
F 5

$$$$
=
 OpenBabel11052417173D

 30 33  0  0  0  0  0  0  0  0999 V2000
  189.1340  176.8220  142.8410 N   0  0  0  0  0  0  0  0  0  0  0  0
  187.3600  178.3380  142.3330 C   0  0  0  0  0  0  0  0  0  0  0  0
  187.6910  176.1980  146.7140 C   0  0  0  0  0  3  0  0  0  0  0  0
  189.8190  175.9830  143.6650 C   0  0  0  0  0  0  0  0  0  0  0  0
  188.3460  175.3070  147.5660 C   0  0  0  0  0  3  0  0  0  0  0  0
  186.2080  179.0210  142.7320 C   0  0  0  0  0  3  0  0  0  0  0  0
  187.8390  178.5140  141.0770 F   0  0  0  0  0  0  0  0  0  0  0  0
  188.1700  176.4270  145.4120 C   0  0  0  0  0  0  0  0  0  0  0  0
  185.7010  178.8510  144.0220 C   0  0  0  0  0  3  0  0  0  0  0  0
  188.0120  177.4800  143.2280 C   0  0  0  0  0  0  0  0  0  0  0  0
  189.3360  175.7510  144.9730 C   0  0  0  0  0  0  0  0  0  0  0  0
  189.4850  174.6300  147.1270 C   0  0  0  0  0  3  0  0  0  0  0  0
  189.9730  174.8480  145.8380 C   0  0  0  0  0  3  0  0  0  0  0  0
  186.3440  177.9970  144.9200 C   0  0  0  0  0  3  0  0  0  0  0  0
  187.5050  177.3030  144.5350 C   0  0  0  0  0  0  0  0  0  0  0  0
  189.7700  173.4280  140.0790 C   0  0  0  0  0  2  0  0  0  0  0  0
  192.1110  174.5260  141.2800 O   0  0  0  0  0  0  0  0  0  0  0  0
  191.0340  174.5970  141.9320 C   0  0  0  0  0  0  0  0  0  0  0  0
  188.7380  173.5430  142.2600 C   0  0  0  0  0  2  0  0  0  0  0  0
  189.8640  173.9300  141.4340 N   0  0  0  0  0  0  0  0  0  0  0  0
  191.0070  175.3380  143.1690 N   0  0  0  0  0  0  0  0  0  0  0  0
  188.3920  172.8060  139.9670 C   0  0  0  0  0  2  0  0  0  0  0  0
  187.8730  172.6540  141.3890 C   0  0  0  0  0  2  0  0  0  0  0  0
  192.2080  175.3710  143.9940 C   0  0  0  0  0  2  0  0  0  0  0  0
  192.7390  176.7930  144.0840 C   0  0  0  0  0  2  0  0  0  0  0  0
  193.8840  176.8630  145.0760 C   0  0  0  0  0  2  0  0  0  0  0  0
  195.1140  176.4090  144.4470 N   0  0  0  0  0  2  0  0  0  0  0  0
  195.4220  174.6270  145.9270 O   0  0  0  0  0  0  0  0  0  0  0  0
  195.8360  175.2760  144.9290 C   0  0  0  0  0  0  0  0  0  0  0  0
  197.0350  174.8760  144.2760 N   0  0  0  0  0  1  0  0  0  0  0  0
  1 10  2  0  0  0  0
  1  4  1  0  0  0  0
  2  6  2  0  0  0  0
  2 10  1  0  0  0  0
  3  5  2  0  0  0  0
  4 11  2  0  0  0  0
  6  9  1  0  0  0  0
  7  2  1  0  0  0  0
  8  3  1  0  0  0  0
  9 14  2  0  0  0  0
 10 15  1  0  0  0  0
 11  8  1  0  0  0  0
 11 13  1  0  0  0  0
 12  5  1  0  0  0  0
 13 12  2  0  0  0  0
 15 14  1  0  0  0  0
 15  8  2  0  0  0  0
 16 20  1  0  0  0  0
 17 18  2  0  0  0  0
 18 21  1  0  0  0  0
 20 18  1  0  0  0  0
 20 19  1  0  0  0  0
 21  4  1  0  0  0  0
 21 24  1  0  0  0  0
 22 16  1  0  0  0  0
 22 23  1  0  0  0  0
 23 19  1  0  0  0  0
 24 25  1  0  0  0  0
 25 26  1  0  0  0  0
 27 29  1  0  0  0  0
 27 26  1  0  0  0  0
 29 28  2  0  0  0  0
 30 29  1  0  0  0  0
M  END
>  <MODEL>
3

>  <REMARK>
 VINA RESULT:      -7.9      1.553      2.110
  Name = 
  5 active torsions:
  status: ('A' for Active; 'I' for Inactive)
    1  A    between atoms: C_4  and  N_13
    2  A    between atoms: N_7  and  C_16
    3  A    between atoms: N_13  and  C_27
    4  A    between atoms: C_16  and  C_30
    5  A    between atoms: C_27  and  C_30
                            x       y       z     vdW  Elec       q    Type
                         _______ _______ _______ _____ _____    ______ ____

>  <TORSDO>
F 5

$$$$
=
 OpenBabel11052417173D

 30 33  0  0  0  0  0  0  0  0999 V2000
  191.9320  173.8830  144.1870 N   0  0  0  0  0  0  0  0  0  0  0  0
  190.5740  172.0380  143.5100 C   0  0  0  0  0  0  0  0  0  0  0  0
  189.2600  176.6450  142.5440 C   0  0  0  0  0  3  0  0  0  0  0  0
  192.2280  175.2080  144.2730 C   0  0  0  0  0  0  0  0  0  0  0  0
  189.5140  178.0130  142.6590 C   0  0  0  0  0  3  0  0  0  0  0  0
  189.4260  171.5570  142.8740 C   0  0  0  0  0  3  0  0  0  0  0  0
  191.4480  171.1620  144.0630 F   0  0  0  0  0  0  0  0  0  0  0  0
  190.1540  175.7030  143.0820 C   0  0  0  0  0  0  0  0  0  0  0  0
  188.5150  172.4460  142.3000 C   0  0  0  0  0  3  0  0  0  0  0  0
  190.8140  173.4180  143.5730 C   0  0  0  0  0  0  0  0  0  0  0  0
  191.3280  176.1560  143.7340 C   0  0  0  0  0  0  0  0  0  0  0  0
  190.6620  178.4570  143.3160 C   0  0  0  0  0  3  0  0  0  0  0  0
  191.5600  177.5340  143.8540 C   0  0  0  0  0  3  0  0  0  0  0  0
  188.7470  173.8220  142.3600 C   0  0  0  0  0  3  0  0  0  0  0  0
  189.8960  174.3230  142.9950 C   0  0  0  0  0  0  0  0  0  0  0  0
  195.7940  176.4940  142.0320 C   0  0  0  0  0  2  0  0  0  0  0  0
  195.3520  176.9460  144.8120 O   0  0  0  0  0  0  0  0  0  0  0  0
  194.5780  176.1430  144.2230 C   0  0  0  0  0  0  0  0  0  0  0  0
  194.3560  174.5630  142.2360 C   0  0  0  0  0  2  0  0  0  0  0  0
  194.8530  175.7720  142.8620 N   0  0  0  0  0  0  0  0  0  0  0  0
  193.4440  175.6070  144.9330 N   0  0  0  0  0  0  0  0  0  0  0  0
  195.7830  175.7880  140.6910 C   0  0  0  0  0  2  0  0  0  0  0  0
  195.0920  174.4500  140.9160 C   0  0  0  0  0  2  0  0  0  0  0  0
  193.5580  175.3830  146.3690 C   0  0  0  0  0  2  0  0  0  0  0  0
  192.6840  176.3730  147.1230 C   0  0  0  0  0  2  0  0  0  0  0  0
  191.4890  175.6630  147.7290 C   0  0  0  0  0  2  0  0  0  0  0  0
  190.2570  176.2510  147.2290 N   0  0  0  0  0  2  0  0  0  0  0  0
  189.3190  174.2000  146.6180 O   0  0  0  0  0  0  0  0  0  0  0  0
  189.2070  175.4540  146.6830 C   0  0  0  0  0  0  0  0  0  0  0  0
  188.0220  176.0820  146.2070 N   0  0  0  0  0  1  0  0  0  0  0  0
  1  4  1  0  0  0  0
  2 10  1  0  0  0  0
  2  7  1  0  0  0  0
  3  5  2  0  0  0  0
  3  8  1  0  0  0  0
  4 21  1  0  0  0  0
  5 12  1  0  0  0  0
  6  2  2  0  0  0  0
  8 11  1  0  0  0  0
  9 14  2  0  0  0  0
  9  6  1  0  0  0  0
 10  1  2  0  0  0  0
 11 13  1  0  0  0  0
 11  4  2  0  0  0  0
 12 13  2  0  0  0  0
 14 15  1  0  0  0  0
 15  8  2  0  0  0  0
 15 10  1  0  0  0  0
 16 20  1  0  0  0  0
 18 17  2  0  0  0  0
 18 21  1  0  0  0  0
 19 20  1  0  0  0  0
 20 18  1  0  0  0  0
 21 24  1  0  0  0  0
 22 23  1  0  0  0  0
 22 16  1  0  0  0  0
 23 19  1  0  0  0  0
 24 25  1  0  0  0  0
 25 26  1  0  0  0  0
 27 26  1  0  0  0  0
 28 29  2  0  0  0  0
 29 27  1  0  0  0  0
 30 29  1  0  0  0  0
M  END
>  <MODEL>
4

>  <REMARK>
 VINA RESULT:      -7.6      3.364      5.756
  Name = 
  5 active torsions:
  status: ('A' for Active; 'I' for Inactive)
    1  A    between atoms: C_4  and  N_13
    2  A    between atoms: N_7  and  C_16
    3  A    between atoms: N_13  and  C_27
    4  A    between atoms: C_16  and  C_30
    5  A    between atoms: C_27  and  C_30
                            x       y       z     vdW  Elec       q    Type
                         _______ _______ _______ _____ _____    ______ ____

>  <TORSDO>
F 5

$$$$
=
 OpenBabel11052417173D

 30 33  0  0  0  0  0  0  0  0999 V2000
  191.9290  176.1430  143.0630 N   0  0  0  0  0  0  0  0  0  0  0  0
  194.3020  176.4010  142.9820 C   0  0  0  0  0  0  0  0  0  0  0  0
  191.9930  175.4920  147.1920 C   0  0  0  0  0  3  0  0  0  0  0  0
  190.7530  175.9050  143.7050 C   0  0  0  0  0  0  0  0  0  0  0  0
  190.7980  175.2920  147.8840 C   0  0  0  0  0  3  0  0  0  0  0  0
  195.5360  176.4130  143.6380 C   0  0  0  0  0  3  0  0  0  0  0  0
  194.2560  176.6240  141.6450 F   0  0  0  0  0  0  0  0  0  0  0  0
  191.9900  175.7020  145.8020 C   0  0  0  0  0  0  0  0  0  0  0  0
  195.6030  176.1870  145.0150 C   0  0  0  0  0  3  0  0  0  0  0  0
  193.1260  176.1600  143.7040 C   0  0  0  0  0  0  0  0  0  0  0  0
  190.7560  175.6960  145.1030 C   0  0  0  0  0  0  0  0  0  0  0  0
  189.5830  175.3030  147.1970 C   0  0  0  0  0  3  0  0  0  0  0  0
  189.5630  175.5080  145.8170 C   0  0  0  0  0  3  0  0  0  0  0  0
  194.4340  175.9470  145.7420 C   0  0  0  0  0  3  0  0  0  0  0  0
  193.1850  175.9300  145.0970 C   0  0  0  0  0  0  0  0  0  0  0  0
  188.9480  172.1690  142.2300 C   0  0  0  0  0  2  0  0  0  0  0  0
  187.6160  174.6840  142.3880 O   0  0  0  0  0  0  0  0  0  0  0  0
  188.8660  174.6770  142.5510 C   0  0  0  0  0  0  0  0  0  0  0  0
  191.0140  173.4060  142.0370 C   0  0  0  0  0  2  0  0  0  0  0  0
  189.5970  173.4590  142.3350 N   0  0  0  0  0  0  0  0  0  0  0  0
  189.5340  175.8940  142.9390 N   0  0  0  0  0  0  0  0  0  0  0  0
  190.0630  171.1660  142.0090 C   0  0  0  0  0  2  0  0  0  0  0  0
  191.2980  171.9730  141.6330 C   0  0  0  0  0  2  0  0  0  0  0  0
  189.0000  177.1670  142.4720 C   0  0  0  0  0  2  0  0  0  0  0  0
  188.2970  177.8890  143.6110 C   0  0  0  0  0  2  0  0  0  0  0  0
  186.8040  177.9510  143.3500 C   0  0  0  0  0  2  0  0  0  0  0  0
  186.0880  177.2410  144.3960 N   0  0  0  0  0  2  0  0  0  0  0  0
  185.6210  179.1680  145.6310 O   0  0  0  0  0  0  0  0  0  0  0  0
  185.5190  177.9170  145.5160 C   0  0  0  0  0  0  0  0  0  0  0  0
  184.8280  177.1720  146.5130 N   0  0  0  0  0  1  0  0  0  0  0  0
  1 10  2  0  0  0  0
  1  4  1  0  0  0  0
  2  6  2  0  0  0  0
  2 10  1  0  0  0  0
  3  5  2  0  0  0  0
  4 11  2  0  0  0  0
  6  9  1  0  0  0  0
  7  2  1  0  0  0  0
  8  3  1  0  0  0  0
  9 14  2  0  0  0  0
 10 15  1  0  0  0  0
 11  8  1  0  0  0  0
 11 13  1  0  0  0  0
 12  5  1  0  0  0  0
 13 12  2  0  0  0  0
 15 14  1  0  0  0  0
 15  8  2  0  0  0  0
 16 20  1  0  0  0  0
 17 18  2  0  0  0  0
 18 21  1  0  0  0  0
 19 20  1  0  0  0  0
 20 18  1  0  0  0  0
 21  4  1  0  0  0  0
 22 16  1  0  0  0  0
 23 22  1  0  0  0  0
 23 19  1  0  0  0  0
 24 21  1  0  0  0  0
 24 25  1  0  0  0  0
 26 25  1  0  0  0  0
 26 27  1  0  0  0  0
 27 29  1  0  0  0  0
 29 28  2  0  0  0  0
 29 30  1  0  0  0  0
M  END
>  <MODEL>
5

>  <REMARK>
 VINA RESULT:      -7.6      2.890      6.481
  Name = 
  5 active torsions:
  status: ('A' for Active; 'I' for Inactive)
    1  A    between atoms: C_4  and  N_13
    2  A    between atoms: N_7  and  C_16
    3  A    between atoms: N_13  and  C_27
    4  A    between atoms: C_16  and  C_30
    5  A    between atoms: C_27  and  C_30
                            x       y       z     vdW  Elec       q    Type
                         _______ _______ _______ _____ _____    ______ ____

>  <TORSDO>
F 5

$$$$
=
 OpenBabel11052417173D

 30 33  0  0  0  0  0  0  0  0999 V2000
  187.8800  175.3780  142.4420 N   0  0  0  0  0  0  0  0  0  0  0  0
  188.2830  173.0240  142.4620 C   0  0  0  0  0  0  0  0  0  0  0  0
  191.6610  176.1880  144.0300 C   0  0  0  0  0  3  0  0  0  0  0  0
  188.2260  176.6740  142.6760 C   0  0  0  0  0  0  0  0  0  0  0  0
  192.0600  177.5090  144.2380 C   0  0  0  0  0  3  0  0  0  0  0  0
  189.1270  171.9480  142.7520 C   0  0  0  0  0  3  0  0  0  0  0  0
  187.0570  172.7870  141.9330 F   0  0  0  0  0  0  0  0  0  0  0  0
  190.3890  175.8990  143.5070 C   0  0  0  0  0  0  0  0  0  0  0  0
  190.3930  172.1750  143.2960 C   0  0  0  0  0  3  0  0  0  0  0  0
  188.7040  174.3360  142.7190 C   0  0  0  0  0  0  0  0  0  0  0  0
  189.5060  176.9650  143.2010 C   0  0  0  0  0  0  0  0  0  0  0  0
  191.1960  178.5580  143.9210 C   0  0  0  0  0  3  0  0  0  0  0  0
  189.9300  178.2870  143.4020 C   0  0  0  0  0  3  0  0  0  0  0  0
  190.8200  173.4800  143.5530 C   0  0  0  0  0  3  0  0  0  0  0  0
  189.9840  174.5730  143.2690 C   0  0  0  0  0  0  0  0  0  0  0  0
  185.9720  178.8120  145.7970 C   0  0  0  0  0  2  0  0  0  0  0  0
  186.2650  179.6800  143.0980 O   0  0  0  0  0  0  0  0  0  0  0  0
  186.6240  178.5030  143.3720 C   0  0  0  0  0  0  0  0  0  0  0  0
  186.2880  176.5590  144.9840 C   0  0  0  0  0  2  0  0  0  0  0  0
  186.3590  177.9740  144.6820 N   0  0  0  0  0  0  0  0  0  0  0  0
  187.2800  177.7130  142.3610 N   0  0  0  0  0  0  0  0  0  0  0  0
  185.7960  177.8720  146.9730 C   0  0  0  0  0  2  0  0  0  0  0  0
  185.7380  176.4650  146.3940 C   0  0  0  0  0  2  0  0  0  0  0  0
  186.9160  177.9160  140.9650 C   0  0  0  0  0  2  0  0  0  0  0  0
  185.4820  177.4680  140.7290 C   0  0  0  0  0  2  0  0  0  0  0  0
  184.6190  178.6530  140.3430 C   0  0  0  0  0  2  0  0  0  0  0  0
  183.2140  178.2850  140.4060 N   0  0  0  0  0  2  0  0  0  0  0  0
  183.0420  178.6420  142.7090 O   0  0  0  0  0  0  0  0  0  0  0  0
  182.4830  178.3020  141.6310 C   0  0  0  0  0  0  0  0  0  0  0  0
  181.1090  177.9310  141.6370 N   0  0  0  0  0  1  0  0  0  0  0  0
  1  4  2  0  0  0  0
  1 10  1  0  0  0  0
  2 10  2  0  0  0  0
  2  6  1  0  0  0  0
  3  5  1  0  0  0  0
  4 11  1  0  0  0  0
  6  9  2  0  0  0  0
  7  2  1  0  0  0  0
  8  3  2  0  0  0  0
  9 14  1  0  0  0  0
 10 15  1  0  0  0  0
 11 13  2  0  0  0  0
 11  8  1  0  0  0  0
 12  5  2  0  0  0  0
 13 12  1  0  0  0  0
 15  8  1  0  0  0  0
 15 14  2  0  0  0  0
 16 22  1  0  0  0  0
 17 18  2  0  0  0  0
 18 20  1  0  0  0  0
 19 23  1  0  0  0  0
 20 19  1  0  0  0  0
 20 16  1  0  0  0  0
 21  4  1  0  0  0  0
 21 18  1  0  0  0  0
 23 22  1  0  0  0  0
 24 21  1  0  0  0  0
 25 24  1  0  0  0  0
 26 27  1  0  0  0  0
 26 25  1  0  0  0  0
 27 29  1  0  0  0  0
 29 30  1  0  0  0  0
 29 28  2  0  0  0  0
M  END
>  <MODEL>
6

>  <REMARK>
 VINA RESULT:      -7.5      3.335      7.392
  Name = 
  5 active torsions:
  status: ('A' for Active; 'I' for Inactive)
    1  A    between atoms: C_4  and  N_13
    2  A    between atoms: N_7  and  C_16
    3  A    between atoms: N_13  and  C_27
    4  A    between atoms: C_16  and  C_30
    5  A    between atoms: C_27  and  C_30
                            x       y       z     vdW  Elec       q    Type
                         _______ _______ _______ _____ _____    ______ ____

>  <TORSDO>
F 5

$$$$
=
 OpenBabel11052417173D

 30 33  0  0  0  0  0  0  0  0999 V2000
  189.0490  176.4860  145.3200 N   0  0  0  0  0  0  0  0  0  0  0  0
  187.4870  176.3870  147.1250 C   0  0  0  0  0  0  0  0  0  0  0  0
  186.0980  177.7480  142.6410 C   0  0  0  0  0  3  0  0  0  0  0  0
  189.3960  176.7060  144.0220 C   0  0  0  0  0  0  0  0  0  0  0  0
  186.4340  178.0260  141.3160 C   0  0  0  0  0  3  0  0  0  0  0  0
  186.1800  176.5390  147.5970 C   0  0  0  0  0  3  0  0  0  0  0  0
  188.4640  175.9920  147.9780 F   0  0  0  0  0  0  0  0  0  0  0  0
  187.0760  177.3120  143.5520 C   0  0  0  0  0  0  0  0  0  0  0  0
  185.1630  176.9460  146.7320 C   0  0  0  0  0  3  0  0  0  0  0  0
  187.7800  176.6400  145.7780 C   0  0  0  0  0  0  0  0  0  0  0  0
  188.4120  177.1460  143.1070 C   0  0  0  0  0  0  0  0  0  0  0  0
  187.7530  177.8780  140.8830 C   0  0  0  0  0  3  0  0  0  0  0  0
  188.7350  177.4460  141.7750 C   0  0  0  0  0  3  0  0  0  0  0  0
  185.4470  177.2020  145.3880 C   0  0  0  0  0  3  0  0  0  0  0  0
  186.7550  177.0520  144.8960 C   0  0  0  0  0  0  0  0  0  0  0  0
  190.6720  173.1690  141.7320 C   0  0  0  0  0  2  0  0  0  0  0  0
  192.1910  175.5610  142.0380 O   0  0  0  0  0  0  0  0  0  0  0  0
  191.1790  175.4160  142.7760 C   0  0  0  0  0  0  0  0  0  0  0  0
  189.6210  173.7050  143.8400 C   0  0  0  0  0  2  0  0  0  0  0  0
  190.4710  174.1670  142.7610 N   0  0  0  0  0  0  0  0  0  0  0  0
  190.7650  176.5040  143.6260 N   0  0  0  0  0  0  0  0  0  0  0  0
  189.7440  172.0240  142.0850 C   0  0  0  0  0  2  0  0  0  0  0  0
  189.3000  172.2580  143.5220 C   0  0  0  0  0  2  0  0  0  0  0  0
  191.7820  177.3930  144.1740 C   0  0  0  0  0  2  0  0  0  0  0  0
  192.5240  176.7030  145.3080 C   0  0  0  0  0  2  0  0  0  0  0  0
  193.9760  177.1400  145.3260 C   0  0  0  0  0  2  0  0  0  0  0  0
  194.7250  176.4120  144.3150 N   0  0  0  0  0  2  0  0  0  0  0  0
  195.4880  174.7780  145.8000 O   0  0  0  0  0  0  0  0  0  0  0  0
  195.4640  175.2320  144.6250 C   0  0  0  0  0  0  0  0  0  0  0  0
  196.1820  174.5590  143.5960 N   0  0  0  0  0  1  0  0  0  0  0  0
  1 10  1  0  0  0  0
  2  6  1  0  0  0  0
  2  7  1  0  0  0  0
  3  8  1  0  0  0  0
  4  1  2  0  0  0  0
  5  3  2  0  0  0  0
  8 15  1  0  0  0  0
  9  6  2  0  0  0  0
 10  2  2  0  0  0  0
 11  8  2  0  0  0  0
 11  4  1  0  0  0  0
 12  5  1  0  0  0  0
 12 13  2  0  0  0  0
 13 11  1  0  0  0  0
 14  9  1  0  0  0  0
 15 14  2  0  0  0  0
 15 10  1  0  0  0  0
 16 22  1  0  0  0  0
 16 20  1  0  0  0  0
 17 18  2  0  0  0  0
 18 21  1  0  0  0  0
 20 18  1  0  0  0  0
 20 19  1  0  0  0  0
 21  4  1  0  0  0  0
 21 24  1  0  0  0  0
 22 23  1  0  0  0  0
 23 19  1  0  0  0  0
 24 25  1  0  0  0  0
 25 26  1  0  0  0  0
 27 29  1  0  0  0  0
 27 26  1  0  0  0  0
 29 28  2  0  0  0  0
 30 29  1  0  0  0  0
M  END
>  <MODEL>
7

>  <REMARK>
 VINA RESULT:      -7.5      2.083      3.576
  Name = 
  5 active torsions:
  status: ('A' for Active; 'I' for Inactive)
    1  A    between atoms: C_4  and  N_13
    2  A    between atoms: N_7  and  C_16
    3  A    between atoms: N_13  and  C_27
    4  A    between atoms: C_16  and  C_30
    5  A    between atoms: C_27  and  C_30
                            x       y       z     vdW  Elec       q    Type
                         _______ _______ _______ _____ _____    ______ ____

>  <TORSDO>
F 5

$$$$
=
 OpenBabel11052417173D

 30 33  0  0  0  0  0  0  0  0999 V2000
  188.5580  175.2000  142.2850 N   0  0  0  0  0  0  0  0  0  0  0  0
  187.2720  177.0020  141.3880 C   0  0  0  0  0  0  0  0  0  0  0  0
  188.0550  176.5910  146.1950 C   0  0  0  0  0  3  0  0  0  0  0  0
  189.1390  174.5090  143.3040 C   0  0  0  0  0  0  0  0  0  0  0  0
  188.6000  175.8780  147.2630 C   0  0  0  0  0  3  0  0  0  0  0  0
  186.5340  178.1720  141.5880 C   0  0  0  0  0  3  0  0  0  0  0  0
  187.4370  176.5240  140.1300 F   0  0  0  0  0  0  0  0  0  0  0  0
  188.2240  176.1420  144.8730 C   0  0  0  0  0  0  0  0  0  0  0  0
  186.3540  178.6770  142.8770 C   0  0  0  0  0  3  0  0  0  0  0  0
  187.8360  176.3330  142.4830 C   0  0  0  0  0  0  0  0  0  0  0  0
  188.9670  174.9590  144.6330 C   0  0  0  0  0  0  0  0  0  0  0  0
  189.3170  174.7050  147.0260 C   0  0  0  0  0  3  0  0  0  0  0  0
  189.4950  174.2470  145.7200 C   0  0  0  0  0  3  0  0  0  0  0  0
  186.9120  178.0150  143.9730 C   0  0  0  0  0  3  0  0  0  0  0  0
  187.6580  176.8380  143.7900 C   0  0  0  0  0  0  0  0  0  0  0  0
  193.5100  174.3270  143.8120 C   0  0  0  0  0  2  0  0  0  0  0  0
  191.7980  172.0690  143.5010 O   0  0  0  0  0  0  0  0  0  0  0  0
  191.3080  173.2070  143.2680 C   0  0  0  0  0  0  0  0  0  0  0  0
  191.8590  175.6000  142.5910 C   0  0  0  0  0  2  0  0  0  0  0  0
  192.1680  174.3570  143.2690 N   0  0  0  0  0  0  0  0  0  0  0  0
  189.8970  173.3240  142.9960 N   0  0  0  0  0  0  0  0  0  0  0  0
  194.0610  175.7250  143.6190 C   0  0  0  0  0  2  0  0  0  0  0  0
  193.1330  176.4210  142.6340 C   0  0  0  0  0  2  0  0  0  0  0  0
  189.2210  172.2310  142.3090 C   0  0  0  0  0  2  0  0  0  0  0  0
  189.7590  172.0930  140.8930 C   0  0  0  0  0  2  0  0  0  0  0  0
  188.8050  172.7370  139.9050 C   0  0  0  0  0  2  0  0  0  0  0  0
  189.5060  173.0440  138.6690 N   0  0  0  0  0  2  0  0  0  0  0  0
  187.8160  174.4350  137.8490 O   0  0  0  0  0  0  0  0  0  0  0  0
  188.9480  173.9060  137.6780 C   0  0  0  0  0  0  0  0  0  0  0  0
  189.6760  174.1720  136.4850 N   0  0  0  0  0  1  0  0  0  0  0  0
  1 10  2  0  0  0  0
  1  4  1  0  0  0  0
  2  6  2  0  0  0  0
  2 10  1  0  0  0  0
  3  5  2  0  0  0  0
  4 11  2  0  0  0  0
  6  9  1  0  0  0  0
  7  2  1  0  0  0  0
  8  3  1  0  0  0  0
  9 14  2  0  0  0  0
 10 15  1  0  0  0  0
 11  8  1  0  0  0  0
 11 13  1  0  0  0  0
 12  5  1  0  0  0  0
 13 12  2  0  0  0  0
 15 14  1  0  0  0  0
 15  8  2  0  0  0  0
 18 20  1  0  0  0  0
 18 17  2  0  0  0  0
 19 23  1  0  0  0  0
 19 20  1  0  0  0  0
 20 16  1  0  0  0  0
 21 18  1  0  0  0  0
 21  4  1  0  0  0  0
 22 16  1  0  0  0  0
 23 22  1  0  0  0  0
 24 21  1  0  0  0  0
 25 24  1  0  0  0  0
 26 25  1  0  0  0  0
 27 26  1  0  0  0  0
 29 28  2  0  0  0  0
 29 27  1  0  0  0  0
 30 29  1  0  0  0  0
M  END
>  <MODEL>
8

>  <REMARK>
 VINA RESULT:      -7.5      2.472      5.047
  Name = 
  5 active torsions:
  status: ('A' for Active; 'I' for Inactive)
    1  A    between atoms: C_4  and  N_13
    2  A    between atoms: N_7  and  C_16
    3  A    between atoms: N_13  and  C_27
    4  A    between atoms: C_16  and  C_30
    5  A    between atoms: C_27  and  C_30
                            x       y       z     vdW  Elec       q    Type
                         _______ _______ _______ _____ _____    ______ ____

>  <TORSDO>
F 5

$$$$
=
 OpenBabel11052417173D

 30 33  0  0  0  0  0  0  0  0999 V2000
  189.9160  174.4240  144.8750 N   0  0  0  0  0  0  0  0  0  0  0  0
  190.3120  175.1940  147.1010 C   0  0  0  0  0  0  0  0  0  0  0  0
  193.5320  176.0270  143.5200 C   0  0  0  0  0  3  0  0  0  0  0  0
  190.2400  174.2850  143.5600 C   0  0  0  0  0  0  0  0  0  0  0  0
  193.9120  175.8590  142.1880 C   0  0  0  0  0  3  0  0  0  0  0  0
  191.1230  175.8710  148.0150 C   0  0  0  0  0  3  0  0  0  0  0  0
  189.1410  174.6540  147.5200 F   0  0  0  0  0  0  0  0  0  0  0  0
  192.3140  175.5030  143.9890 C   0  0  0  0  0  0  0  0  0  0  0  0
  192.3330  176.4330  147.6000 C   0  0  0  0  0  3  0  0  0  0  0  0
  190.7090  175.0780  145.7620 C   0  0  0  0  0  0  0  0  0  0  0  0
  191.4660  174.8100  143.0890 C   0  0  0  0  0  0  0  0  0  0  0  0
  193.0830  175.1630  141.3070 C   0  0  0  0  0  3  0  0  0  0  0  0
  191.8710  174.6380  141.7570 C   0  0  0  0  0  3  0  0  0  0  0  0
  192.7360  176.3200  146.2680 C   0  0  0  0  0  3  0  0  0  0  0  0
  191.9320  175.6430  145.3350 C   0  0  0  0  0  0  0  0  0  0  0  0
  187.5310  176.4080  140.8130 C   0  0  0  0  0  2  0  0  0  0  0  0
  188.1860  173.6380  140.6580 O   0  0  0  0  0  0  0  0  0  0  0  0
  188.5240  174.2570  141.7020 C   0  0  0  0  0  0  0  0  0  0  0  0
  187.9990  176.2660  143.1790 C   0  0  0  0  0  2  0  0  0  0  0  0
  188.0860  175.6130  141.8880 N   0  0  0  0  0  0  0  0  0  0  0  0
  189.3300  173.5860  142.6910 N   0  0  0  0  0  0  0  0  0  0  0  0
  187.2070  177.7560  141.4260 C   0  0  0  0  0  2  0  0  0  0  0  0
  187.2570  177.5660  142.9350 C   0  0  0  0  0  2  0  0  0  0  0  0
  189.1630  172.1500  142.8760 C   0  0  0  0  0  2  0  0  0  0  0  0
  190.3520  171.4060  142.2890 C   0  0  0  0  0  2  0  0  0  0  0  0
  191.3450  171.0600  143.3810 C   0  0  0  0  0  2  0  0  0  0  0  0
  192.6910  171.4110  142.9570 N   0  0  0  0  0  2  0  0  0  0  0  0
  193.2960  172.3190  145.0230 O   0  0  0  0  0  0  0  0  0  0  0  0
  193.6190  172.0430  143.8360 C   0  0  0  0  0  0  0  0  0  0  0  0
  194.9240  172.3660  143.3690 N   0  0  0  0  0  1  0  0  0  0  0  0
  1 10  1  0  0  0  0
  2  7  1  0  0  0  0
  2  6  1  0  0  0  0
  3  8  1  0  0  0  0
  4  1  2  0  0  0  0
  5  3  2  0  0  0  0
  8 15  1  0  0  0  0
  9  6  2  0  0  0  0
 10  2  2  0  0  0  0
 11  4  1  0  0  0  0
 11  8  2  0  0  0  0
 12 13  2  0  0  0  0
 12  5  1  0  0  0  0
 13 11  1  0  0  0  0
 14  9  1  0  0  0  0
 15 10  1  0  0  0  0
 15 14  2  0  0  0  0
 16 22  1  0  0  0  0
 16 20  1  0  0  0  0
 17 18  2  0  0  0  0
 18 20  1  0  0  0  0
 18 21  1  0  0  0  0
 20 19  1  0  0  0  0
 21 24  1  0  0  0  0
 21  4  1  0  0  0  0
 22 23  1  0  0  0  0
 23 19  1  0  0  0  0
 25 24  1  0  0  0  0
 25 26  1  0  0  0  0
 27 26  1  0  0  0  0
 27 29  1  0  0  0  0
 29 28  2  0  0  0  0
 30 29  1  0  0  0  0
M  END
>  <MODEL>
9

>  <REMARK>
 VINA RESULT:      -7.3      3.056      6.304
  Name = 
  5 active torsions:
  status: ('A' for Active; 'I' for Inactive)
    1  A    between atoms: C_4  and  N_13
    2  A    between atoms: N_7  and  C_16
    3  A    between atoms: N_13  and  C_27
    4  A    between atoms: C_16  and  C_30
    5  A    between atoms: C_27  and  C_30
                            x       y       z     vdW  Elec       q    Type
                         _______ _______ _______ _____ _____    ______ ____

>  <TORSDO>
F 5

$$$$
