=
 OpenBabel11052419353D

 55 59  0  0  1  0  0  0  0  0999 V2000
  193.8880  175.5950  142.1110 C   0  0  0  0  0  2  0  0  0  0  0  0
  191.6700  171.4640  140.2830 C   0  0  0  0  0  3  0  0  0  0  0  0
  189.5700  173.2380  140.1920 O   0  0  0  0  0  0  0  0  0  0  0  0
  193.7210  169.1360  137.1200 O   0  0  0  0  0  0  0  0  0  0  0  0
  192.9350  169.6980  137.9290 C   0  0  0  0  0  0  0  0  0  0  0  0
  187.8190  175.9420  143.0730 C   0  0  0  0  0  3  0  0  0  0  0  0
  186.8280  176.7060  143.9150 C   0  0  0  0  0  2  0  0  0  0  0  0
  189.7380  176.9350  144.3160 C   0  0  2  0  0  3  0  0  0  0  0  0
  188.7310  177.4050  145.3580 C   0  0  0  0  0  2  0  0  0  0  0  0
  189.6970  173.6470  142.5340 C   0  0  0  0  0  2  0  0  0  0  0  0
  187.4730  177.8820  144.6450 C   0  0  0  0  0  2  0  0  0  0  0  0
  196.1790  174.6720  141.8740 C   0  0  0  0  0  3  0  0  0  0  0  0
  189.1440  175.9590  143.3130 C   0  0  0  0  0  0  0  0  0  0  0  0
  195.4410  173.0330  139.7350 C   0  0  0  0  0  0  0  0  0  0  0  0
  192.4470  175.2560  141.8840 C   0  0  0  0  0  3  0  0  0  0  0  0
  194.4850  173.8510  140.3500 C   0  0  0  0  0  3  0  0  0  0  0  0
  191.8320  175.6310  144.2620 C   0  0  0  0  0  0  0  0  0  0  0  0
  192.6970  170.3930  140.3530 C   0  0  0  0  0  2  0  0  0  0  0  0
  190.9560  176.3580  144.9680 C   0  0  0  0  0  3  0  0  0  0  0  0
  191.1330  171.9410  141.3560 N   0  0  0  0  0  0  0  0  0  0  0  0
  190.1140  172.9410  141.2910 C   0  0  0  0  0  0  0  0  0  0  0  0
  197.1320  173.8550  141.2620 C   0  0  0  0  0  3  0  0  0  0  0  0
  193.4570  170.3380  139.1090 N   0  0  0  0  0  0  0  0  0  0  0  0
  194.8510  174.6690  141.4320 C   0  0  0  0  0  0  0  0  0  0  0  0
  190.0690  175.1270  142.4470 C   0  0  1  0  0  3  0  0  0  0  0  0
  191.5140  175.3190  142.8410 C   0  0  0  0  0  0  0  0  0  0  0  0
  194.8630  170.7110  139.1660 C   0  0  0  0  0  2  0  0  0  0  0  0
  195.0470  172.1200  138.6250 C   0  0  0  0  0  2  0  0  0  0  0  0
  196.7630  173.0350  140.1960 C   0  0  0  0  0  3  0  0  0  0  0  0
  193.9270  175.8880  145.6330 C   0  0  0  0  0  2  0  0  0  0  0  0
  195.3600  173.8610  145.9090 C   0  0  2  0  0  3  0  0  0  0  0  0
  192.9690  173.6090  145.1970 C   0  0  0  0  0  2  0  0  0  0  0  0
  194.3790  173.0410  145.0740 C   0  0  0  0  0  2  0  0  0  0  0  0
  195.3340  175.3240  145.4750 C   0  0  0  0  0  2  0  0  0  0  0  0
  192.9720  175.0450  144.9130 N   0  0  0  0  0  0  0  0  0  0  0  0
  196.7430  173.3120  145.7940 C   0  0  0  0  0  0  0  0  0  0  0  0
  197.0100  172.1470  146.1940 O   0  0  0  0  0  0  0  0  0  0  0  0
  197.7630  174.1020  145.1930 N   0  0  0  0  0  1  0  0  0  0  0  0
  191.1640  169.6530  137.5950 S   0  0  0  0  0  0  0  0  0  0  0  0
  191.2170  170.6050  136.0230 C   0  0  2  0  0  0  0  0  0  0  0  0
  191.3440  169.6130  134.8770 C   0  0  0  0  0  1  0  0  0  0  0  0
  192.3220  171.4840  135.9770 O   0  0  0  0  0  0  0  0  0  0  0  0
  192.7620  171.5000  134.7310 O   0  0  0  0  0  1  0  0  0  0  0  0
  189.8820  171.3510  135.8690 C   0  0  0  0  0  2  0  0  0  0  0  0
  188.5700  172.5070  137.5120 O   0  0  0  0  0  1  0  0  0  0  0  0
  189.7620  172.5760  136.7840 C   0  0  2  0  0  3  0  0  0  0  0  0
  189.8620  173.9100  136.0140 C   0  0  1  0  0  0  0  0  0  0  0  0
  189.8210  173.6410  134.5150 C   0  0  0  0  0  1  0  0  0  0  0  0
  188.7170  174.8130  136.3830 C   0  0  0  0  0  3  0  0  0  0  0  0
  188.1160  175.4560  135.5340 O   0  0  0  0  0  0  0  0  0  0  0  0
  191.1750  174.6150  136.3600 C   0  0  0  0  0  2  0  0  0  0  0  0
  191.3430  175.8120  135.6030 O   0  0  0  0  0  0  0  0  0  0  0  0
  192.5060  176.5890  135.6460 C   0  0  0  0  0  0  0  0  0  0  0  0
  193.6530  176.1270  136.4710 C   0  0  0  0  0  1  0  0  0  0  0  0
  192.6160  177.7300  134.9730 C   0  0  0  0  0  2  0  0  0  0  0  0
  2 18  1  0  0  0  0
  2 20  2  0  0  0  0
  3 21  2  0  0  0  0
  4  5  2  0  0  0  0
  5 23  1  0  0  0  0
  6 13  2  0  0  0  0
  6  7  1  0  0  0  0
  7 11  1  0  0  0  0
  8 19  1  1  0  0  0
  8  9  1  0  0  0  0
 11  9  1  0  0  0  0
 13  8  1  0  0  0  0
 14 29  2  0  0  0  0
 14 16  1  0  0  0  0
 15  1  1  0  0  0  0
 15 26  2  0  0  0  0
 16 24  2  0  0  0  0
 17 35  1  0  0  0  0
 17 19  2  0  0  0  0
 21 20  1  0  0  0  0
 21 10  1  0  0  0  0
 22 12  2  0  0  0  0
 23 27  1  0  0  0  0
 23 18  1  0  0  0  0
 24 12  1  0  0  0  0
 24  1  1  0  0  0  0
 25 10  1  1  0  0  0
 25 26  1  0  0  0  0
 25 13  1  0  0  0  0
 26 17  1  0  0  0  0
 28 27  1  0  0  0  0
 28 14  1  0  0  0  0
 29 22  1  0  0  0  0
 31 36  1  6  0  0  0
 33 32  1  0  0  0  0
 33 31  1  0  0  0  0
 34 30  1  0  0  0  0
 34 31  1  0  0  0  0
 35 32  1  0  0  0  0
 35 30  1  0  0  0  0
 36 37  2  0  0  0  0
 38 36  1  0  0  0  0
 39  5  1  0  0  0  0
 40 41  1  6  0  0  0
 40 39  1  0  0  0  0
 42 40  1  0  0  0  0
 43 42  1  0  0  0  0
 44 40  1  0  0  0  0
 44 46  1  0  0  0  0
 46 45  1  6  0  0  0
 47 48  1  6  0  0  0
 47 51  1  0  0  0  0
 47 49  1  0  0  0  0
 47 46  1  0  0  0  0
 50 49  2  0  0  0  0
 52 53  1  0  0  0  0
 52 51  1  0  0  0  0
 53 54  1  0  0  0  0
 55 53  2  0  0  0  0
M  END
>  <MODEL>
1

>  <REMARK>
 VINA RESULT:      -6.6      0.000      0.000
  Name = 
  12 active torsions:
  status: ('A' for Active; 'I' for Inactive)
    1  A    between atoms: C_1  and  O_53
    2  A    between atoms: O_6  and  C_20
    3  A    between atoms: C_8  and  S_22
    4  A    between atoms: C_10  and  C_32
    5  A    between atoms: C_11  and  C_29
    6  A    between atoms: C_12  and  C_14
    7  A    between atoms: C_12  and  C_20
    8  A    between atoms: C_14  and  C_29
    9  A    between atoms: C_20  and  S_22
   10  A    between atoms: C_29  and  C_38
   11  A    between atoms: C_33  and  N_52
   12  A    between atoms: C_38  and  O_53
                            x       y       z     vdW  Elec       q    Type
                         _______ _______ _______ _____ _____    ______ ____

>  <TORSDO>
F 12

$$$$
=
 OpenBabel11052419353D

 55 59  0  0  1  0  0  0  0  0999 V2000
  192.7400  172.8420  143.6000 C   0  0  0  0  0  2  0  0  0  0  0  0
  188.6480  175.7720  143.5310 C   0  0  0  0  0  3  0  0  0  0  0  0
  187.7480  173.6260  142.0660 O   0  0  0  0  0  0  0  0  0  0  0  0
  187.2280  177.5810  147.3180 O   0  0  0  0  0  0  0  0  0  0  0  0
  187.4010  177.0930  146.1680 C   0  0  0  0  0  0  0  0  0  0  0  0
  189.3190  171.4540  138.6750 C   0  0  0  0  0  3  0  0  0  0  0  0
  189.4410  170.7410  137.3520 C   0  0  0  0  0  2  0  0  0  0  0  0
  191.7710  171.2590  139.0790 C   0  0  2  0  0  3  0  0  0  0  0  0
  191.9120  170.8710  137.6130 C   0  0  0  0  0  2  0  0  0  0  0  0
  189.4850  173.8790  140.4580 C   0  0  0  0  0  2  0  0  0  0  0  0
  190.7500  169.9650  137.2310 C   0  0  0  0  0  2  0  0  0  0  0  0
  193.8460  174.1430  145.4000 C   0  0  0  0  0  3  0  0  0  0  0  0
  190.3880  171.7880  139.4240 C   0  0  0  0  0  0  0  0  0  0  0  0
  191.4070  174.9680  146.4860 C   0  0  0  0  0  0  0  0  0  0  0  0
  191.4910  172.7900  142.7740 C   0  0  0  0  0  3  0  0  0  0  0  0
  191.4240  174.1520  145.3470 C   0  0  0  0  0  3  0  0  0  0  0  0
  192.7320  172.9250  140.6260 C   0  0  0  0  0  0  0  0  0  0  0  0
  189.0380  177.0200  144.2370 C   0  0  0  0  0  2  0  0  0  0  0  0
  192.8320  172.2360  139.4810 C   0  0  0  0  0  3  0  0  0  0  0  0
  189.1340  175.4870  142.3690 N   0  0  0  0  0  0  0  0  0  0  0  0
  188.7310  174.3090  141.6670 C   0  0  0  0  0  0  0  0  0  0  0  0
  193.8280  174.9580  146.5340 C   0  0  0  0  0  3  0  0  0  0  0  0
  188.7360  176.9120  145.6600 N   0  0  0  0  0  0  0  0  0  0  0  0
  192.6490  173.7440  144.7940 C   0  0  0  0  0  0  0  0  0  0  0  0
  190.1820  172.5440  140.7210 C   0  0  1  0  0  3  0  0  0  0  0  0
  191.4910  172.7790  141.4360 C   0  0  0  0  0  0  0  0  0  0  0  0
  189.8620  176.8800  146.5820 C   0  0  0  0  0  2  0  0  0  0  0  0
  190.1130  175.4530  147.0430 C   0  0  0  0  0  2  0  0  0  0  0  0
  192.6110  175.3720  147.0740 C   0  0  0  0  0  3  0  0  0  0  0  0
  195.1570  173.5560  140.8680 C   0  0  0  0  0  2  0  0  0  0  0  0
  195.6580  175.7390  141.9720 C   0  0  2  0  0  3  0  0  0  0  0  0
  193.3670  175.3060  141.0480 C   0  0  0  0  0  2  0  0  0  0  0  0
  194.1640  176.0070  142.1440 C   0  0  0  0  0  2  0  0  0  0  0  0
  195.9340  174.2380  141.9870 C   0  0  0  0  0  2  0  0  0  0  0  0
  193.7360  173.8920  140.9740 N   0  0  0  0  0  0  0  0  0  0  0  0
  196.4450  176.4210  143.0410 C   0  0  0  0  0  0  0  0  0  0  0  0
  195.8710  176.9280  144.0420 O   0  0  0  0  0  0  0  0  0  0  0  0
  197.8650  176.4680  142.9440 N   0  0  0  0  0  1  0  0  0  0  0  0
  185.9570  176.6660  145.1780 S   0  0  0  0  0  0  0  0  0  0  0  0
  185.0380  178.2360  145.4490 C   0  0  2  0  0  0  0  0  0  0  0  0
  185.9930  179.2360  146.0810 C   0  0  0  0  0  1  0  0  0  0  0  0
  183.9380  178.0590  146.3190 O   0  0  0  0  0  0  0  0  0  0  0  0
  184.2970  178.5110  147.5060 O   0  0  0  0  0  1  0  0  0  0  0  0
  184.6050  178.7810  144.0780 C   0  0  0  0  0  2  0  0  0  0  0  0
  186.3100  179.8170  142.7460 O   0  0  0  0  0  1  0  0  0  0  0  0
  185.6690  178.5980  142.9900 C   0  0  2  0  0  3  0  0  0  0  0  0
  185.0950  178.0080  141.6840 C   0  0  1  0  0  0  0  0  0  0  0  0
  185.1360  179.0600  140.5840 C   0  0  0  0  0  1  0  0  0  0  0  0
  185.9010  176.8130  141.2520 C   0  0  0  0  0  3  0  0  0  0  0  0
  186.7540  176.9030  140.3810 O   0  0  0  0  0  0  0  0  0  0  0  0
  183.6450  177.5690  141.9030 C   0  0  0  0  0  2  0  0  0  0  0  0
  182.7730  178.1400  140.9290 O   0  0  0  0  0  0  0  0  0  0  0  0
  181.4740  178.5690  141.2230 C   0  0  0  0  0  0  0  0  0  0  0  0
  180.3850  178.2980  140.2480 C   0  0  0  0  0  1  0  0  0  0  0  0
  181.1840  179.2170  142.3470 C   0  0  0  0  0  2  0  0  0  0  0  0
  1 24  1  0  0  0  0
  2 18  1  0  0  0  0
  5  4  2  0  0  0  0
  6 13  2  0  0  0  0
  7  6  1  0  0  0  0
  8  9  1  6  0  0  0
  8 13  1  0  0  0  0
  8 19  1  0  0  0  0
 10 21  1  0  0  0  0
 11  7  1  0  0  0  0
 11  9  1  0  0  0  0
 12 22  1  0  0  0  0
 13 25  1  0  0  0  0
 14 28  1  0  0  0  0
 14 29  1  0  0  0  0
 15  1  1  0  0  0  0
 16 14  2  0  0  0  0
 17 35  1  0  0  0  0
 17 26  1  0  0  0  0
 18 23  1  0  0  0  0
 19 17  2  0  0  0  0
 20  2  2  0  0  0  0
 21  3  2  0  0  0  0
 21 20  1  0  0  0  0
 22 29  2  0  0  0  0
 23  5  1  0  0  0  0
 23 27  1  0  0  0  0
 24 16  1  0  0  0  0
 24 12  2  0  0  0  0
 25 10  1  6  0  0  0
 25 26  1  0  0  0  0
 26 15  2  0  0  0  0
 27 28  1  0  0  0  0
 30 35  1  0  0  0  0
 30 34  1  0  0  0  0
 31 34  1  0  0  0  0
 31 33  1  0  0  0  0
 31 36  1  1  0  0  0
 32 33  1  0  0  0  0
 35 32  1  0  0  0  0
 36 37  2  0  0  0  0
 38 36  1  0  0  0  0
 39 40  1  0  0  0  0
 39  5  1  0  0  0  0
 40 41  1  1  0  0  0
 40 42  1  0  0  0  0
 42 43  1  0  0  0  0
 44 40  1  0  0  0  0
 46 45  1  6  0  0  0
 46 44  1  0  0  0  0
 47 48  1  6  0  0  0
 47 51  1  0  0  0  0
 47 46  1  0  0  0  0
 49 47  1  0  0  0  0
 50 49  2  0  0  0  0
 52 53  1  0  0  0  0
 52 51  1  0  0  0  0
 53 55  2  0  0  0  0
 54 53  1  0  0  0  0
M  END
>  <MODEL>
2

>  <REMARK>
 VINA RESULT:      -6.3      4.140      8.744
  Name = 
  12 active torsions:
  status: ('A' for Active; 'I' for Inactive)
    1  A    between atoms: C_1  and  O_53
    2  A    between atoms: O_6  and  C_20
    3  A    between atoms: C_8  and  S_22
    4  A    between atoms: C_10  and  C_32
    5  A    between atoms: C_11  and  C_29
    6  A    between atoms: C_12  and  C_14
    7  A    between atoms: C_12  and  C_20
    8  A    between atoms: C_14  and  C_29
    9  A    between atoms: C_20  and  S_22
   10  A    between atoms: C_29  and  C_38
   11  A    between atoms: C_33  and  N_52
   12  A    between atoms: C_38  and  O_53
                            x       y       z     vdW  Elec       q    Type
                         _______ _______ _______ _____ _____    ______ ____

>  <TORSDO>
F 12

$$$$
=
 OpenBabel11052419353D

 55 59  0  0  1  0  0  0  0  0999 V2000
  195.8360  171.8000  140.8540 C   0  0  0  0  0  2  0  0  0  0  0  0
  190.8850  171.4070  141.6670 C   0  0  0  0  0  3  0  0  0  0  0  0
  191.8040  171.5670  144.2550 O   0  0  0  0  0  0  0  0  0  0  0  0
  188.1100  173.9620  139.3440 O   0  0  0  0  0  0  0  0  0  0  0  0
  188.7190  173.2280  140.1690 C   0  0  0  0  0  0  0  0  0  0  0  0
  194.8690  169.4770  146.4710 C   0  0  0  0  0  3  0  0  0  0  0  0
  195.6100  168.7320  147.5530 C   0  0  0  0  0  2  0  0  0  0  0  0
  196.7780  169.2110  144.8900 C   0  0  2  0  0  3  0  0  0  0  0  0
  197.3440  168.1780  145.8560 C   0  0  0  0  0  2  0  0  0  0  0  0
  193.1750  169.6410  143.9840 C   0  0  0  0  0  2  0  0  0  0  0  0
  197.1110  168.6590  147.2820 C   0  0  0  0  0  2  0  0  0  0  0  0
  195.5700  172.2850  138.4350 C   0  0  0  0  0  3  0  0  0  0  0  0
  195.3490  169.6130  145.2200 C   0  0  0  0  0  0  0  0  0  0  0  0
  193.0510  173.4360  138.8080 C   0  0  0  0  0  0  0  0  0  0  0  0
  195.0510  171.5090  142.0960 C   0  0  0  0  0  3  0  0  0  0  0  0
  193.7540  172.9230  139.9050 C   0  0  0  0  0  3  0  0  0  0  0  0
  196.2040  169.3450  142.4950 C   0  0  0  0  0  0  0  0  0  0  0  0
  190.2710  171.2340  140.3250 C   0  0  0  0  0  2  0  0  0  0  0  0
  196.8870  168.7380  143.4740 C   0  0  0  0  0  3  0  0  0  0  0  0
  191.6000  170.4710  142.1970 N   0  0  0  0  0  0  0  0  0  0  0  0
  192.1580  170.6170  143.5050 C   0  0  0  0  0  0  0  0  0  0  0  0
  194.8690  172.7950  137.3410 C   0  0  0  0  0  3  0  0  0  0  0  0
  189.9110  172.5300  139.7620 N   0  0  0  0  0  0  0  0  0  0  0  0
  195.0160  172.3350  139.7200 C   0  0  0  0  0  0  0  0  0  0  0  0
  194.5210  170.3380  144.1790 C   0  0  1  0  0  3  0  0  0  0  0  0
  195.2500  170.4280  142.8600 C   0  0  0  0  0  0  0  0  0  0  0  0
  190.6450  172.9760  138.5870 C   0  0  0  0  0  2  0  0  0  0  0  0
  191.6870  174.0080  138.9890 C   0  0  0  0  0  2  0  0  0  0  0  0
  193.6100  173.3670  137.5270 C   0  0  0  0  0  3  0  0  0  0  0  0
  197.5860  168.6270  140.5170 C   0  0  0  0  0  2  0  0  0  0  0  0
  196.3680  168.1680  138.3860 C   0  0  2  0  0  3  0  0  0  0  0  0
  195.1130  168.2020  140.5560 C   0  0  0  0  0  2  0  0  0  0  0  0
  195.0390  168.4980  139.0620 C   0  0  0  0  0  2  0  0  0  0  0  0
  197.5030  168.9580  139.0320 C   0  0  0  0  0  2  0  0  0  0  0  0
  196.2840  168.8500  141.1470 N   0  0  0  0  0  0  0  0  0  0  0  0
  196.3040  168.4570  136.9230 C   0  0  0  0  0  0  0  0  0  0  0  0
  195.2090  168.7430  136.3680 O   0  0  0  0  0  0  0  0  0  0  0  0
  197.5010  168.4410  136.1520 N   0  0  0  0  0  1  0  0  0  0  0  0
  188.0520  173.0510  141.8330 S   0  0  0  0  0  0  0  0  0  0  0  0
  188.4810  174.7410  142.4190 C   0  0  2  0  0  0  0  0  0  0  0  0
  187.2060  175.4050  142.9130 C   0  0  0  0  0  1  0  0  0  0  0  0
  189.0250  175.5340  141.3840 O   0  0  0  0  0  0  0  0  0  0  0  0
  188.2750  176.6170  141.2810 O   0  0  0  0  0  1  0  0  0  0  0  0
  189.4470  174.6050  143.6070 C   0  0  0  0  0  2  0  0  0  0  0  0
  190.6210  176.6210  144.1670 O   0  0  0  0  0  1  0  0  0  0  0  0
  189.4970  175.8560  144.4930 C   0  0  2  0  0  3  0  0  0  0  0  0
  189.4770  175.5230  146.0000 C   0  0  1  0  0  0  0  0  0  0  0  0
  189.5540  174.0130  146.1930 C   0  0  0  0  0  1  0  0  0  0  0  0
  190.6460  176.1670  146.6940 C   0  0  0  0  0  3  0  0  0  0  0  0
  191.0760  175.7310  147.7520 O   0  0  0  0  0  0  0  0  0  0  0  0
  188.1830  176.0430  146.6310 C   0  0  0  0  0  2  0  0  0  0  0  0
  187.8170  177.3170  146.1030 O   0  0  0  0  0  0  0  0  0  0  0  0
  186.5270  177.6160  145.6510 C   0  0  0  0  0  0  0  0  0  0  0  0
  185.3900  176.7710  146.1010 C   0  0  0  0  0  1  0  0  0  0  0  0
  186.2870  178.6320  144.8270 C   0  0  0  0  0  2  0  0  0  0  0  0
  1 15  1  0  0  0  0
  2 20  2  0  0  0  0
  4  5  2  0  0  0  0
  5 39  1  0  0  0  0
  6  7  1  0  0  0  0
  8 19  1  6  0  0  0
  8 13  1  0  0  0  0
  8  9  1  0  0  0  0
  9 11  1  0  0  0  0
 11  7  1  0  0  0  0
 12 24  1  0  0  0  0
 13  6  2  0  0  0  0
 14 28  1  0  0  0  0
 14 16  1  0  0  0  0
 15 26  2  0  0  0  0
 17 26  1  0  0  0  0
 17 19  2  0  0  0  0
 18  2  1  0  0  0  0
 20 21  1  0  0  0  0
 21 10  1  0  0  0  0
 21  3  2  0  0  0  0
 22 29  1  0  0  0  0
 22 12  2  0  0  0  0
 23  5  1  0  0  0  0
 23 18  1  0  0  0  0
 24 16  2  0  0  0  0
 24  1  1  0  0  0  0
 25 10  1  6  0  0  0
 25 13  1  0  0  0  0
 26 25  1  0  0  0  0
 27 28  1  0  0  0  0
 27 23  1  0  0  0  0
 29 14  2  0  0  0  0
 30 35  1  0  0  0  0
 31 36  1  6  0  0  0
 31 34  1  0  0  0  0
 31 33  1  0  0  0  0
 32 35  1  0  0  0  0
 33 32  1  0  0  0  0
 34 30  1  0  0  0  0
 35 17  1  0  0  0  0
 37 36  2  0  0  0  0
 38 36  1  0  0  0  0
 39 40  1  0  0  0  0
 40 41  1  1  0  0  0
 40 44  1  0  0  0  0
 42 40  1  0  0  0  0
 43 42  1  0  0  0  0
 44 46  1  0  0  0  0
 46 45  1  1  0  0  0
 46 47  1  0  0  0  0
 47 48  1  1  0  0  0
 47 51  1  0  0  0  0
 47 49  1  0  0  0  0
 49 50  2  0  0  0  0
 52 51  1  0  0  0  0
 53 54  1  0  0  0  0
 53 52  1  0  0  0  0
 55 53  2  0  0  0  0
M  END
>  <MODEL>
3

>  <REMARK>
 VINA RESULT:      -6.0      3.363      8.434
  Name = 
  12 active torsions:
  status: ('A' for Active; 'I' for Inactive)
    1  A    between atoms: C_1  and  O_53
    2  A    between atoms: O_6  and  C_20
    3  A    between atoms: C_8  and  S_22
    4  A    between atoms: C_10  and  C_32
    5  A    between atoms: C_11  and  C_29
    6  A    between atoms: C_12  and  C_14
    7  A    between atoms: C_12  and  C_20
    8  A    between atoms: C_14  and  C_29
    9  A    between atoms: C_20  and  S_22
   10  A    between atoms: C_29  and  C_38
   11  A    between atoms: C_33  and  N_52
   12  A    between atoms: C_38  and  O_53
                            x       y       z     vdW  Elec       q    Type
                         _______ _______ _______ _____ _____    ______ ____

>  <TORSDO>
F 12

$$$$
=
 OpenBabel11052419353D

 55 59  0  0  1  0  0  0  0  0999 V2000
  188.9450  174.4110  143.4860 C   0  0  0  0  0  2  0  0  0  0  0  0
  193.6320  174.9430  141.7320 C   0  0  0  0  0  3  0  0  0  0  0  0
  194.1160  174.8980  144.4390 O   0  0  0  0  0  0  0  0  0  0  0  0
  195.0080  172.3280  138.4310 O   0  0  0  0  0  0  0  0  0  0  0  0
  194.8530  173.0910  139.4230 C   0  0  0  0  0  0  0  0  0  0  0  0
  192.4550  177.0380  147.8060 C   0  0  0  0  0  3  0  0  0  0  0  0
  192.3120  177.8230  149.0860 C   0  0  0  0  0  2  0  0  0  0  0  0
  190.0050  177.1850  147.3670 C   0  0  2  0  0  3  0  0  0  0  0  0
  189.9450  178.2550  148.4500 C   0  0  0  0  0  2  0  0  0  0  0  0
  192.7080  176.7810  144.8140 C   0  0  0  0  0  2  0  0  0  0  0  0
  190.8710  177.8520  149.5900 C   0  0  0  0  0  2  0  0  0  0  0  0
  188.0050  173.8090  141.2700 C   0  0  0  0  0  3  0  0  0  0  0  0
  191.4270  176.8290  146.9610 C   0  0  0  0  0  0  0  0  0  0  0  0
  190.4260  172.7280  140.3890 C   0  0  0  0  0  0  0  0  0  0  0  0
  190.2270  174.7820  144.1670 C   0  0  0  0  0  3  0  0  0  0  0  0
  190.3350  173.2830  141.6720 C   0  0  0  0  0  3  0  0  0  0  0  0
  189.3290  176.9400  145.0070 C   0  0  0  0  0  0  0  0  0  0  0  0
  193.4970  175.0600  140.2570 C   0  0  0  0  0  2  0  0  0  0  0  0
  189.1920  177.5820  146.1740 C   0  0  0  0  0  3  0  0  0  0  0  0
  193.2320  175.8910  142.5130 N   0  0  0  0  0  0  0  0  0  0  0  0
  193.3980  175.8020  143.9290 C   0  0  0  0  0  0  0  0  0  0  0  0
  188.0970  173.2570  139.9910 C   0  0  0  0  0  3  0  0  0  0  0  0
  193.5880  173.7440  139.6350 N   0  0  0  0  0  0  0  0  0  0  0  0
  189.1210  173.8360  142.1140 C   0  0  0  0  0  0  0  0  0  0  0  0
  191.6640  176.0680  145.6730 C   0  0  1  0  0  3  0  0  0  0  0  0
  190.3840  175.8960  144.8910 C   0  0  0  0  0  0  0  0  0  0  0  0
  192.3890  173.2230  138.9920 C   0  0  0  0  0  2  0  0  0  0  0  0
  191.7250  172.1930  139.8920 C   0  0  0  0  0  2  0  0  0  0  0  0
  189.3060  172.7200  139.5500 C   0  0  0  0  0  3  0  0  0  0  0  0
  187.1440  177.6480  143.9770 C   0  0  0  0  0  2  0  0  0  0  0  0
  187.0850  177.8940  141.4930 C   0  0  2  0  0  3  0  0  0  0  0  0
  189.2870  177.8880  142.6930 C   0  0  0  0  0  2  0  0  0  0  0  0
  188.5590  177.5040  141.4080 C   0  0  0  0  0  2  0  0  0  0  0  0
  186.4270  177.2300  142.6990 C   0  0  0  0  0  2  0  0  0  0  0  0
  188.5750  177.3640  143.8590 N   0  0  0  0  0  0  0  0  0  0  0  0
  186.3650  177.5210  140.2400 C   0  0  0  0  0  0  0  0  0  0  0  0
  186.9220  176.8060  139.3640 O   0  0  0  0  0  0  0  0  0  0  0  0
  185.0210  177.9500  140.0490 N   0  0  0  0  0  1  0  0  0  0  0  0
  196.2460  173.3660  140.5330 S   0  0  0  0  0  0  0  0  0  0  0  0
  196.3200  171.6590  141.2140 C   0  0  2  0  0  0  0  0  0  0  0  0
  197.1220  171.7030  142.5050 C   0  0  0  0  0  1  0  0  0  0  0  0
  196.9550  170.7650  140.3240 O   0  0  0  0  0  0  0  0  0  0  0  0
  197.9410  170.1850  140.9850 O   0  0  0  0  0  1  0  0  0  0  0  0
  194.8870  171.2150  141.5500 C   0  0  0  0  0  2  0  0  0  0  0  0
  194.6890  168.8310  141.7350 O   0  0  0  0  0  1  0  0  0  0  0  0
  194.8320  170.0020  142.4860 C   0  0  2  0  0  3  0  0  0  0  0  0
  193.7180  170.1150  143.5480 C   0  0  1  0  0  0  0  0  0  0  0  0
  193.3930  171.5830  143.7970 C   0  0  0  0  0  1  0  0  0  0  0  0
  192.4750  169.4090  143.0790 C   0  0  0  0  0  3  0  0  0  0  0  0
  191.5560  170.0220  142.5540 O   0  0  0  0  0  0  0  0  0  0  0  0
  194.1800  169.4760  144.8600 C   0  0  0  0  0  2  0  0  0  0  0  0
  195.6010  169.5080  144.9860 O   0  0  0  0  0  0  0  0  0  0  0  0
  196.2580  169.9950  146.1210 C   0  0  0  0  0  0  0  0  0  0  0  0
  196.8000  171.3790  146.1040 C   0  0  0  0  0  1  0  0  0  0  0  0
  196.4160  169.2560  147.2150 C   0  0  0  0  0  2  0  0  0  0  0  0
  1 15  1  0  0  0  0
  2 20  2  0  0  0  0
  4  5  2  0  0  0  0
  5 23  1  0  0  0  0
  5 39  1  0  0  0  0
  6  7  1  0  0  0  0
  7 11  1  0  0  0  0
  8 19  1  6  0  0  0
  8  9  1  0  0  0  0
  9 11  1  0  0  0  0
 12 24  1  0  0  0  0
 13  8  1  0  0  0  0
 13  6  2  0  0  0  0
 14 16  1  0  0  0  0
 15 26  2  0  0  0  0
 16 24  2  0  0  0  0
 17 19  2  0  0  0  0
 18  2  1  0  0  0  0
 20 21  1  0  0  0  0
 21  3  2  0  0  0  0
 21 10  1  0  0  0  0
 22 12  2  0  0  0  0
 23 18  1  0  0  0  0
 24  1  1  0  0  0  0
 25 10  1  6  0  0  0
 25 13  1  0  0  0  0
 26 17  1  0  0  0  0
 26 25  1  0  0  0  0
 27 23  1  0  0  0  0
 27 28  1  0  0  0  0
 28 14  1  0  0  0  0
 29 22  1  0  0  0  0
 29 14  2  0  0  0  0
 31 36  1  6  0  0  0
 31 34  1  0  0  0  0
 32 35  1  0  0  0  0
 33 31  1  0  0  0  0
 33 32  1  0  0  0  0
 34 30  1  0  0  0  0
 35 30  1  0  0  0  0
 35 17  1  0  0  0  0
 37 36  2  0  0  0  0
 38 36  1  0  0  0  0
 39 40  1  0  0  0  0
 40 44  1  0  0  0  0
 40 41  1  1  0  0  0
 42 43  1  0  0  0  0
 42 40  1  0  0  0  0
 44 46  1  0  0  0  0
 46 45  1  6  0  0  0
 46 47  1  0  0  0  0
 47 48  1  1  0  0  0
 47 51  1  0  0  0  0
 49 47  1  0  0  0  0
 50 49  2  0  0  0  0
 51 52  1  0  0  0  0
 52 53  1  0  0  0  0
 53 55  2  0  0  0  0
 54 53  1  0  0  0  0
M  END
>  <MODEL>
4

>  <REMARK>
 VINA RESULT:      -5.7      3.222      7.765
  Name = 
  12 active torsions:
  status: ('A' for Active; 'I' for Inactive)
    1  A    between atoms: C_1  and  O_53
    2  A    between atoms: O_6  and  C_20
    3  A    between atoms: C_8  and  S_22
    4  A    between atoms: C_10  and  C_32
    5  A    between atoms: C_11  and  C_29
    6  A    between atoms: C_12  and  C_14
    7  A    between atoms: C_12  and  C_20
    8  A    between atoms: C_14  and  C_29
    9  A    between atoms: C_20  and  S_22
   10  A    between atoms: C_29  and  C_38
   11  A    between atoms: C_33  and  N_52
   12  A    between atoms: C_38  and  O_53
                            x       y       z     vdW  Elec       q    Type
                         _______ _______ _______ _____ _____    ______ ____

>  <TORSDO>
F 12

$$$$
=
 OpenBabel11052419353D

 55 59  0  0  1  0  0  0  0  0999 V2000
  191.1030  177.6370  143.5160 C   0  0  0  0  0  2  0  0  0  0  0  0
  191.2050  173.2010  141.1410 C   0  0  0  0  0  3  0  0  0  0  0  0
  189.4890  174.6000  139.5090 O   0  0  0  0  0  0  0  0  0  0  0  0
  195.1120  171.2610  140.3650 O   0  0  0  0  0  0  0  0  0  0  0  0
  193.9230  171.6810  140.3960 C   0  0  0  0  0  0  0  0  0  0  0  0
  185.9420  176.9620  140.2300 C   0  0  0  0  0  3  0  0  0  0  0  0
  184.5550  177.5450  140.1300 C   0  0  0  0  0  2  0  0  0  0  0  0
  186.4080  178.2560  142.3090 C   0  0  2  0  0  3  0  0  0  0  0  0
  184.9140  178.5470  142.3800 C   0  0  0  0  0  2  0  0  0  0  0  0
  187.9780  175.0150  141.3010 C   0  0  0  0  0  2  0  0  0  0  0  0
  184.3970  178.8100  140.9720 C   0  0  0  0  0  2  0  0  0  0  0  0
  193.0680  177.1110  144.9360 C   0  0  0  0  0  3  0  0  0  0  0  0
  186.7590  177.1980  141.2750 C   0  0  0  0  0  0  0  0  0  0  0  0
  194.1500  175.3800  143.0280 C   0  0  0  0  0  0  0  0  0  0  0  0
  190.2320  177.0630  142.4400 C   0  0  0  0  0  3  0  0  0  0  0  0
  192.9330  176.0240  142.7760 C   0  0  0  0  0  3  0  0  0  0  0  0
  188.1550  177.3200  143.7780 C   0  0  0  0  0  0  0  0  0  0  0  0
  192.0530  172.3160  141.9810 C   0  0  0  0  0  2  0  0  0  0  0  0
  186.9480  177.8880  143.6560 C   0  0  0  0  0  3  0  0  0  0  0  0
  190.0370  173.5770  141.5420 N   0  0  0  0  0  0  0  0  0  0  0  0
  189.2000  174.3930  140.7200 C   0  0  0  0  0  0  0  0  0  0  0  0
  194.2810  176.4670  145.1880 C   0  0  0  0  0  3  0  0  0  0  0  0
  193.4450  172.3940  141.5520 N   0  0  0  0  0  0  0  0  0  0  0  0
  192.3810  176.8880  143.7370 C   0  0  0  0  0  0  0  0  0  0  0  0
  188.1210  176.5360  141.3210 C   0  0  1  0  0  3  0  0  0  0  0  0
  188.9020  176.9650  142.5400 C   0  0  0  0  0  0  0  0  0  0  0  0
  194.3970  172.9960  142.4750 C   0  0  0  0  0  2  0  0  0  0  0  0
  194.7120  174.4180  142.0380 C   0  0  0  0  0  2  0  0  0  0  0  0
  194.8200  175.6010  144.2370 C   0  0  0  0  0  3  0  0  0  0  0  0
  188.4850  177.8250  146.2220 C   0  0  0  0  0  2  0  0  0  0  0  0
  189.8930  176.2310  147.5310 C   0  0  2  0  0  3  0  0  0  0  0  0
  188.9180  175.5170  145.3340 C   0  0  0  0  0  2  0  0  0  0  0  0
  190.1030  175.3750  146.2840 C   0  0  0  0  0  2  0  0  0  0  0  0
  189.6900  177.6930  147.1450 C   0  0  0  0  0  2  0  0  0  0  0  0
  188.6400  176.9300  145.0740 N   0  0  0  0  0  0  0  0  0  0  0  0
  191.0480  176.0980  148.4660 C   0  0  0  0  0  0  0  0  0  0  0  0
  191.5660  174.9720  148.6970 O   0  0  0  0  0  0  0  0  0  0  0  0
  191.5930  177.2630  149.0770 N   0  0  0  0  0  1  0  0  0  0  0  0
  192.8440  171.3420  138.9930 S   0  0  0  0  0  0  0  0  0  0  0  0
  193.5290  172.6330  137.8770 C   0  0  2  0  0  0  0  0  0  0  0  0
  194.7260  172.0400  137.1510 C   0  0  0  0  0  1  0  0  0  0  0  0
  193.9610  173.7720  138.5930 O   0  0  0  0  0  0  0  0  0  0  0  0
  194.4350  174.6360  137.7130 O   0  0  0  0  0  1  0  0  0  0  0  0
  192.4560  172.9830  136.8340 C   0  0  0  0  0  2  0  0  0  0  0  0
  191.9330  171.1830  135.3360 O   0  0  0  0  0  1  0  0  0  0  0  0
  191.5170  171.8140  136.5130 C   0  0  2  0  0  3  0  0  0  0  0  0
  190.0380  172.2420  136.4150 C   0  0  1  0  0  0  0  0  0  0  0  0
  189.3780  171.5390  135.2350 C   0  0  0  0  0  1  0  0  0  0  0  0
  189.3030  171.8800  137.6760 C   0  0  0  0  0  3  0  0  0  0  0  0
  189.3220  170.7400  138.1170 O   0  0  0  0  0  0  0  0  0  0  0  0
  189.9460  173.7560  136.2100 C   0  0  0  0  0  2  0  0  0  0  0  0
  188.6420  174.2480  136.5150 O   0  0  0  0  0  0  0  0  0  0  0  0
  188.1420  175.4550  136.0130 C   0  0  0  0  0  0  0  0  0  0  0  0
  186.9620  176.0770  136.6670 C   0  0  0  0  0  1  0  0  0  0  0  0
  188.6890  176.0600  134.9630 C   0  0  0  0  0  2  0  0  0  0  0  0
  1 24  1  0  0  0  0
  2 20  2  0  0  0  0
  2 18  1  0  0  0  0
  3 21  2  0  0  0  0
  4  5  2  0  0  0  0
  5 23  1  0  0  0  0
  6 13  2  0  0  0  0
  7  6  1  0  0  0  0
  7 11  1  0  0  0  0
  8  9  1  1  0  0  0
  8 19  1  0  0  0  0
 11  9  1  0  0  0  0
 12 22  1  0  0  0  0
 13 25  1  0  0  0  0
 13  8  1  0  0  0  0
 14 29  1  0  0  0  0
 15 26  2  0  0  0  0
 15  1  1  0  0  0  0
 16 14  2  0  0  0  0
 16 24  1  0  0  0  0
 17 35  1  0  0  0  0
 19 17  2  0  0  0  0
 21 10  1  0  0  0  0
 21 20  1  0  0  0  0
 23 18  1  0  0  0  0
 23 27  1  0  0  0  0
 24 12  2  0  0  0  0
 25 10  1  1  0  0  0
 25 26  1  0  0  0  0
 26 17  1  0  0  0  0
 28 27  1  0  0  0  0
 28 14  1  0  0  0  0
 29 22  2  0  0  0  0
 30 34  1  0  0  0  0
 31 36  1  1  0  0  0
 32 33  1  0  0  0  0
 33 31  1  0  0  0  0
 34 31  1  0  0  0  0
 35 32  1  0  0  0  0
 35 30  1  0  0  0  0
 36 37  2  0  0  0  0
 36 38  1  0  0  0  0
 39  5  1  0  0  0  0
 40 41  1  6  0  0  0
 40 42  1  0  0  0  0
 40 39  1  0  0  0  0
 43 42  1  0  0  0  0
 44 40  1  0  0  0  0
 46 45  1  6  0  0  0
 46 44  1  0  0  0  0
 47 48  1  6  0  0  0
 47 46  1  0  0  0  0
 47 49  1  0  0  0  0
 49 50  2  0  0  0  0
 51 47  1  0  0  0  0
 51 52  1  0  0  0  0
 53 52  1  0  0  0  0
 53 54  1  0  0  0  0
 55 53  2  0  0  0  0
M  END
>  <MODEL>
5

>  <REMARK>
 VINA RESULT:      -5.6      2.473      4.272
  Name = 
  12 active torsions:
  status: ('A' for Active; 'I' for Inactive)
    1  A    between atoms: C_1  and  O_53
    2  A    between atoms: O_6  and  C_20
    3  A    between atoms: C_8  and  S_22
    4  A    between atoms: C_10  and  C_32
    5  A    between atoms: C_11  and  C_29
    6  A    between atoms: C_12  and  C_14
    7  A    between atoms: C_12  and  C_20
    8  A    between atoms: C_14  and  C_29
    9  A    between atoms: C_20  and  S_22
   10  A    between atoms: C_29  and  C_38
   11  A    between atoms: C_33  and  N_52
   12  A    between atoms: C_38  and  O_53
                            x       y       z     vdW  Elec       q    Type
                         _______ _______ _______ _____ _____    ______ ____

>  <TORSDO>
F 12

$$$$
=
 OpenBabel11052419353D

 55 59  0  0  1  0  0  0  0  0999 V2000
  194.0200  172.4090  143.1250 C   0  0  0  0  0  2  0  0  0  0  0  0
  189.8400  175.1420  143.7560 C   0  0  0  0  0  3  0  0  0  0  0  0
  188.7770  172.8490  142.6690 O   0  0  0  0  0  0  0  0  0  0  0  0
  189.1600  177.1750  147.6340 O   0  0  0  0  0  0  0  0  0  0  0  0
  189.1110  176.6070  146.5080 C   0  0  0  0  0  0  0  0  0  0  0  0
  189.7110  170.4930  139.1680 C   0  0  0  0  0  3  0  0  0  0  0  0
  189.5890  169.6850  137.9010 C   0  0  0  0  0  2  0  0  0  0  0  0
  192.2000  170.4380  139.0400 C   0  0  2  0  0  3  0  0  0  0  0  0
  192.0470  169.9440  137.6070 C   0  0  0  0  0  2  0  0  0  0  0  0
  190.1100  173.0540  140.7070 C   0  0  0  0  0  2  0  0  0  0  0  0
  190.8860  168.9600  137.5490 C   0  0  0  0  0  2  0  0  0  0  0  0
  195.4060  173.8940  144.5490 C   0  0  0  0  0  3  0  0  0  0  0  0
  190.8940  170.9300  139.6420 C   0  0  0  0  0  0  0  0  0  0  0  0
  193.2120  174.6920  146.0840 C   0  0  0  0  0  0  0  0  0  0  0  0
  192.6280  172.2380  142.5960 C   0  0  0  0  0  3  0  0  0  0  0  0
  193.0340  173.7920  145.0260 C   0  0  0  0  0  3  0  0  0  0  0  0
  193.3690  172.2600  140.2250 C   0  0  0  0  0  0  0  0  0  0  0  0
  190.2960  176.4570  144.2760 C   0  0  0  0  0  2  0  0  0  0  0  0
  193.2620  171.4890  139.1340 C   0  0  0  0  0  3  0  0  0  0  0  0
  190.0820  174.7890  142.5380 N   0  0  0  0  0  0  0  0  0  0  0  0
  189.6090  173.5430  142.0210 C   0  0  0  0  0  0  0  0  0  0  0  0
  195.5830  174.7930  145.6030 C   0  0  0  0  0  3  0  0  0  0  0  0
  190.3140  176.4460  145.7340 N   0  0  0  0  0  0  0  0  0  0  0  0
  194.1330  173.3970  144.2460 C   0  0  0  0  0  0  0  0  0  0  0  0
  190.9270  171.7760  140.8990 C   0  0  1  0  0  3  0  0  0  0  0  0
  192.3420  172.1220  141.2940 C   0  0  0  0  0  0  0  0  0  0  0  0
  191.6120  176.5360  146.3880 C   0  0  0  0  0  2  0  0  0  0  0  0
  192.0410  175.1610  146.8770 C   0  0  0  0  0  2  0  0  0  0  0  0
  194.4880  175.1940  146.3670 C   0  0  0  0  0  3  0  0  0  0  0  0
  195.7850  172.9640  140.1530 C   0  0  0  0  0  2  0  0  0  0  0  0
  196.2910  175.3450  140.7100 C   0  0  2  0  0  3  0  0  0  0  0  0
  193.9590  174.6840  140.0660 C   0  0  0  0  0  2  0  0  0  0  0  0
  194.8050  175.6230  140.9220 C   0  0  0  0  0  2  0  0  0  0  0  0
  196.6120  173.8890  141.0370 C   0  0  0  0  0  2  0  0  0  0  0  0
  194.3650  173.2950  140.2810 N   0  0  0  0  0  0  0  0  0  0  0  0
  197.1250  176.2580  141.5440 C   0  0  0  0  0  0  0  0  0  0  0  0
  197.0980  177.5050  141.3620 O   0  0  0  0  0  0  0  0  0  0  0  0
  197.9360  175.7150  142.5810 N   0  0  0  0  0  1  0  0  0  0  0  0
  187.5160  176.0410  145.8890 S   0  0  0  0  0  0  0  0  0  0  0  0
  186.5360  177.4870  146.4630 C   0  0  2  0  0  0  0  0  0  0  0  0
  187.2690  178.7500  146.0390 C   0  0  0  0  0  1  0  0  0  0  0  0
  186.3950  177.5030  147.8690 O   0  0  0  0  0  0  0  0  0  0  0  0
  186.6940  178.7220  148.2810 O   0  0  0  0  0  1  0  0  0  0  0  0
  185.1740  177.4570  145.7500 C   0  0  0  0  0  2  0  0  0  0  0  0
  183.7890  179.2310  144.9180 O   0  0  0  0  0  1  0  0  0  0  0  0
  185.0070  178.5740  144.7140 C   0  0  2  0  0  3  0  0  0  0  0  0
  185.1220  178.0660  143.2610 C   0  0  1  0  0  0  0  0  0  0  0  0
  185.4810  176.5850  143.2620 C   0  0  0  0  0  1  0  0  0  0  0  0
  183.8170  178.2550  142.5360 C   0  0  0  0  0  3  0  0  0  0  0  0
  183.6920  177.9440  141.3610 O   0  0  0  0  0  0  0  0  0  0  0  0
  186.2120  178.8450  142.5200 C   0  0  0  0  0  2  0  0  0  0  0  0
  187.1830  177.9700  141.9480 O   0  0  0  0  0  0  0  0  0  0  0  0
  187.0210  177.3600  140.6990 C   0  0  0  0  0  0  0  0  0  0  0  0
  187.6820  176.0540  140.4420 C   0  0  0  0  0  1  0  0  0  0  0  0
  186.2970  177.9150  139.7320 C   0  0  0  0  0  2  0  0  0  0  0  0
  1 24  1  0  0  0  0
  2 18  1  0  0  0  0
  5  4  2  0  0  0  0
  6 13  2  0  0  0  0
  7  6  1  0  0  0  0
  8  9  1  6  0  0  0
  8 19  1  0  0  0  0
  8 13  1  0  0  0  0
 10 21  1  0  0  0  0
 11  9  1  0  0  0  0
 11  7  1  0  0  0  0
 12 22  1  0  0  0  0
 13 25  1  0  0  0  0
 14 29  1  0  0  0  0
 14 28  1  0  0  0  0
 15  1  1  0  0  0  0
 16 14  2  0  0  0  0
 17 35  1  0  0  0  0
 17 26  1  0  0  0  0
 18 23  1  0  0  0  0
 19 17  2  0  0  0  0
 20  2  2  0  0  0  0
 21 20  1  0  0  0  0
 21  3  2  0  0  0  0
 22 29  2  0  0  0  0
 23 27  1  0  0  0  0
 23  5  1  0  0  0  0
 24 12  2  0  0  0  0
 24 16  1  0  0  0  0
 25 10  1  6  0  0  0
 25 26  1  0  0  0  0
 26 15  2  0  0  0  0
 27 28  1  0  0  0  0
 30 35  1  0  0  0  0
 30 34  1  0  0  0  0
 31 33  1  0  0  0  0
 31 34  1  0  0  0  0
 31 36  1  1  0  0  0
 32 35  1  0  0  0  0
 32 33  1  0  0  0  0
 36 38  1  0  0  0  0
 37 36  2  0  0  0  0
 39 40  1  0  0  0  0
 39  5  1  0  0  0  0
 40 41  1  6  0  0  0
 40 42  1  0  0  0  0
 42 43  1  0  0  0  0
 44 40  1  0  0  0  0
 46 45  1  6  0  0  0
 46 44  1  0  0  0  0
 47 48  1  1  0  0  0
 47 46  1  0  0  0  0
 49 47  1  0  0  0  0
 50 49  2  0  0  0  0
 51 47  1  0  0  0  0
 52 51  1  0  0  0  0
 53 52  1  0  0  0  0
 54 53  1  0  0  0  0
 55 53  2  0  0  0  0
M  END
>  <MODEL>
6

>  <REMARK>
 VINA RESULT:      -5.5      3.859      8.381
  Name = 
  12 active torsions:
  status: ('A' for Active; 'I' for Inactive)
    1  A    between atoms: C_1  and  O_53
    2  A    between atoms: O_6  and  C_20
    3  A    between atoms: C_8  and  S_22
    4  A    between atoms: C_10  and  C_32
    5  A    between atoms: C_11  and  C_29
    6  A    between atoms: C_12  and  C_14
    7  A    between atoms: C_12  and  C_20
    8  A    between atoms: C_14  and  C_29
    9  A    between atoms: C_20  and  S_22
   10  A    between atoms: C_29  and  C_38
   11  A    between atoms: C_33  and  N_52
   12  A    between atoms: C_38  and  O_53
                            x       y       z     vdW  Elec       q    Type
                         _______ _______ _______ _____ _____    ______ ____

>  <TORSDO>
F 12

$$$$
=
 OpenBabel11052419353D

 55 59  0  0  1  0  0  0  0  0999 V2000
  190.6180  177.7840  143.7170 C   0  0  0  0  0  2  0  0  0  0  0  0
  190.1790  173.7380  140.7560 C   0  0  0  0  0  3  0  0  0  0  0  0
  188.2010  175.3380  139.7090 O   0  0  0  0  0  0  0  0  0  0  0  0
  193.8250  171.9750  138.9590 O   0  0  0  0  0  0  0  0  0  0  0  0
  192.6730  172.3720  139.2820 C   0  0  0  0  0  0  0  0  0  0  0  0
  184.9040  177.5310  141.4430 C   0  0  0  0  0  3  0  0  0  0  0  0
  183.5350  178.1070  141.7010 C   0  0  0  0  0  2  0  0  0  0  0  0
  185.7900  178.5170  143.5540 C   0  0  2  0  0  3  0  0  0  0  0  0
  184.3440  178.7780  143.9570 C   0  0  0  0  0  2  0  0  0  0  0  0
  187.0770  175.4730  141.8030 C   0  0  0  0  0  2  0  0  0  0  0  0
  183.5670  179.2350  142.7300 C   0  0  0  0  0  2  0  0  0  0  0  0
  192.8140  177.0810  144.6340 C   0  0  0  0  0  3  0  0  0  0  0  0
  185.9140  177.6230  142.3300 C   0  0  0  0  0  0  0  0  0  0  0  0
  193.4730  175.6560  142.3220 C   0  0  0  0  0  0  0  0  0  0  0  0
  189.5450  177.3610  142.7610 C   0  0  0  0  0  3  0  0  0  0  0  0
  192.2410  176.3160  142.4080 C   0  0  0  0  0  3  0  0  0  0  0  0
  187.7740  177.3990  144.5020 C   0  0  0  0  0  0  0  0  0  0  0  0
  191.1600  172.7510  141.2770 C   0  0  0  0  0  2  0  0  0  0  0  0
  186.5760  177.9640  144.7020 C   0  0  0  0  0  3  0  0  0  0  0  0
  189.1180  174.0390  141.4270 N   0  0  0  0  0  0  0  0  0  0  0  0
  188.1510  174.9560  140.9110 C   0  0  0  0  0  0  0  0  0  0  0  0
  194.0420  176.4210  144.5480 C   0  0  0  0  0  3  0  0  0  0  0  0
  192.4420  172.9060  140.6000 N   0  0  0  0  0  0  0  0  0  0  0  0
  191.9030  177.0250  143.5730 C   0  0  0  0  0  0  0  0  0  0  0  0
  187.2470  176.9770  142.0130 C   0  0  1  0  0  3  0  0  0  0  0  0
  188.2580  177.2350  143.1040 C   0  0  0  0  0  0  0  0  0  0  0  0
  193.5660  173.3800  141.3950 C   0  0  0  0  0  2  0  0  0  0  0  0
  193.8130  174.8530  141.1140 C   0  0  0  0  0  2  0  0  0  0  0  0
  194.3700  175.7080  143.3960 C   0  0  0  0  0  3  0  0  0  0  0  0
  188.8300  177.6530  146.7740 C   0  0  0  0  0  2  0  0  0  0  0  0
  190.1870  175.7340  147.6160 C   0  0  2  0  0  3  0  0  0  0  0  0
  188.5460  175.3770  145.7540 C   0  0  0  0  0  2  0  0  0  0  0  0
  189.8870  174.9470  146.3410 C   0  0  0  0  0  2  0  0  0  0  0  0
  190.1850  177.2330  147.3290 C   0  0  0  0  0  2  0  0  0  0  0  0
  188.4960  176.8320  145.6090 N   0  0  0  0  0  0  0  0  0  0  0  0
  191.4990  175.3200  148.1970 C   0  0  0  0  0  0  0  0  0  0  0  0
  191.6610  175.2580  149.4450 O   0  0  0  0  0  0  0  0  0  0  0  0
  192.5680  174.9600  147.3280 N   0  0  0  0  0  1  0  0  0  0  0  0
  191.3350  172.2270  138.0840 S   0  0  0  0  0  0  0  0  0  0  0  0
  191.9810  173.4640  136.8870 C   0  0  2  0  0  0  0  0  0  0  0  0
  192.2460  174.7560  137.6450 C   0  0  0  0  0  1  0  0  0  0  0  0
  191.0540  173.7340  135.8560 O   0  0  0  0  0  0  0  0  0  0  0  0
  189.9160  173.1500  136.1860 O   0  0  0  0  0  1  0  0  0  0  0  0
  193.3190  172.9450  136.3360 C   0  0  0  0  0  2  0  0  0  0  0  0
  194.2220  174.2300  134.5220 O   0  0  0  0  0  1  0  0  0  0  0  0
  194.2750  174.0650  135.9100 C   0  0  2  0  0  3  0  0  0  0  0  0
  195.7260  173.8240  136.3800 C   0  0  1  0  0  0  0  0  0  0  0  0
  195.9990  172.3270  136.4550 C   0  0  0  0  0  1  0  0  0  0  0  0
  196.6980  174.4540  135.4200 C   0  0  0  0  0  3  0  0  0  0  0  0
  197.5090  175.2890  135.7930 O   0  0  0  0  0  0  0  0  0  0  0  0
  195.9340  174.4410  137.7650 C   0  0  0  0  0  2  0  0  0  0  0  0
  196.7830  173.6310  138.5770 O   0  0  0  0  0  0  0  0  0  0  0  0
  197.1730  173.9890  139.8720 C   0  0  0  0  0  0  0  0  0  0  0  0
  197.5330  175.4030  140.1530 C   0  0  0  0  0  1  0  0  0  0  0  0
  197.2360  173.1010  140.8590 C   0  0  0  0  0  2  0  0  0  0  0  0
  2 18  1  0  0  0  0
  2 20  2  0  0  0  0
  3 21  2  0  0  0  0
  4  5  2  0  0  0  0
  5 23  1  0  0  0  0
  6  7  1  0  0  0  0
  6 13  2  0  0  0  0
  7 11  1  0  0  0  0
  8  9  1  1  0  0  0
  8 19  1  0  0  0  0
 11  9  1  0  0  0  0
 13  8  1  0  0  0  0
 14 16  2  0  0  0  0
 14 29  1  0  0  0  0
 15 26  2  0  0  0  0
 15  1  1  0  0  0  0
 16 24  1  0  0  0  0
 17 19  2  0  0  0  0
 17 35  1  0  0  0  0
 21 20  1  0  0  0  0
 21 10  1  0  0  0  0
 22 12  1  0  0  0  0
 23 18  1  0  0  0  0
 23 27  1  0  0  0  0
 24  1  1  0  0  0  0
 24 12  2  0  0  0  0
 25 10  1  1  0  0  0
 25 13  1  0  0  0  0
 25 26  1  0  0  0  0
 26 17  1  0  0  0  0
 28 27  1  0  0  0  0
 28 14  1  0  0  0  0
 29 22  2  0  0  0  0
 30 34  1  0  0  0  0
 31 36  1  6  0  0  0
 32 33  1  0  0  0  0
 33 31  1  0  0  0  0
 34 31  1  0  0  0  0
 35 32  1  0  0  0  0
 35 30  1  0  0  0  0
 36 37  2  0  0  0  0
 38 36  1  0  0  0  0
 39  5  1  0  0  0  0
 40 41  1  1  0  0  0
 40 39  1  0  0  0  0
 42 43  1  0  0  0  0
 42 40  1  0  0  0  0
 44 40  1  0  0  0  0
 46 45  1  6  0  0  0
 46 44  1  0  0  0  0
 46 47  1  0  0  0  0
 47 48  1  1  0  0  0
 47 51  1  0  0  0  0
 49 50  2  0  0  0  0
 49 47  1  0  0  0  0
 51 52  1  0  0  0  0
 52 53  1  0  0  0  0
 53 54  1  0  0  0  0
 53 55  2  0  0  0  0
M  END
>  <MODEL>
7

>  <REMARK>
 VINA RESULT:      -5.5      2.692      4.928
  Name = 
  12 active torsions:
  status: ('A' for Active; 'I' for Inactive)
    1  A    between atoms: C_1  and  O_53
    2  A    between atoms: O_6  and  C_20
    3  A    between atoms: C_8  and  S_22
    4  A    between atoms: C_10  and  C_32
    5  A    between atoms: C_11  and  C_29
    6  A    between atoms: C_12  and  C_14
    7  A    between atoms: C_12  and  C_20
    8  A    between atoms: C_14  and  C_29
    9  A    between atoms: C_20  and  S_22
   10  A    between atoms: C_29  and  C_38
   11  A    between atoms: C_33  and  N_52
   12  A    between atoms: C_38  and  O_53
                            x       y       z     vdW  Elec       q    Type
                         _______ _______ _______ _____ _____    ______ ____

>  <TORSDO>
F 12

$$$$
=
 OpenBabel11052419353D

 55 59  0  0  1  0  0  0  0  0999 V2000
  192.7950  172.8310  143.8590 C   0  0  0  0  0  2  0  0  0  0  0  0
  188.7650  175.8320  143.5740 C   0  0  0  0  0  3  0  0  0  0  0  0
  187.8510  173.6370  142.1900 O   0  0  0  0  0  0  0  0  0  0  0  0
  187.3080  177.8390  147.2450 O   0  0  0  0  0  0  0  0  0  0  0  0
  187.4930  177.2960  146.1220 C   0  0  0  0  0  0  0  0  0  0  0  0
  189.4430  171.2830  138.9340 C   0  0  0  0  0  3  0  0  0  0  0  0
  189.5760  170.5080  137.6480 C   0  0  0  0  0  2  0  0  0  0  0  0
  191.8830  171.0610  139.3970 C   0  0  2  0  0  3  0  0  0  0  0  0
  192.0450  170.6030  137.9530 C   0  0  0  0  0  2  0  0  0  0  0  0
  189.6230  173.7840  140.6080 C   0  0  0  0  0  2  0  0  0  0  0  0
  190.8720  169.7020  137.5890 C   0  0  0  0  0  2  0  0  0  0  0  0
  193.8920  174.1930  145.6200 C   0  0  0  0  0  3  0  0  0  0  0  0
  190.5040  171.6310  139.6890 C   0  0  0  0  0  0  0  0  0  0  0  0
  191.4490  175.1120  146.6170 C   0  0  0  0  0  0  0  0  0  0  0  0
  191.5620  172.7650  143.0110 C   0  0  0  0  0  3  0  0  0  0  0  0
  191.4730  174.2450  145.5180 C   0  0  0  0  0  3  0  0  0  0  0  0
  192.8460  172.7770  140.8840 C   0  0  0  0  0  0  0  0  0  0  0  0
  189.1650  177.1030  144.2300 C   0  0  0  0  0  2  0  0  0  0  0  0
  192.9550  172.0340  139.7750 C   0  0  0  0  0  3  0  0  0  0  0  0
  189.2670  175.4850  142.4360 N   0  0  0  0  0  0  0  0  0  0  0  0
  188.8540  174.2840  141.7810 C   0  0  0  0  0  0  0  0  0  0  0  0
  193.8690  175.0590  146.7150 C   0  0  0  0  0  3  0  0  0  0  0  0
  188.8340  177.0660  145.6500 N   0  0  0  0  0  0  0  0  0  0  0  0
  192.7000  173.7890  145.0080 C   0  0  0  0  0  0  0  0  0  0  0  0
  190.2890  172.4500  140.9450 C   0  0  1  0  0  3  0  0  0  0  0  0
  191.5880  172.6920  141.6750 C   0  0  0  0  0  0  0  0  0  0  0  0
  189.9410  177.0550  146.5960 C   0  0  0  0  0  2  0  0  0  0  0  0
  190.1550  175.6470  147.1260 C   0  0  0  0  0  2  0  0  0  0  0  0
  192.6500  175.5200  147.2110 C   0  0  0  0  0  3  0  0  0  0  0  0
  195.2550  173.3200  141.3760 C   0  0  0  0  0  2  0  0  0  0  0  0
  195.7610  175.6390  142.1510 C   0  0  2  0  0  3  0  0  0  0  0  0
  193.5950  175.1610  140.9830 C   0  0  0  0  0  2  0  0  0  0  0  0
  194.2830  176.0080  142.0490 C   0  0  0  0  0  2  0  0  0  0  0  0
  195.9180  174.1540  142.4650 C   0  0  0  0  0  2  0  0  0  0  0  0
  193.8630  173.7400  141.2090 N   0  0  0  0  0  0  0  0  0  0  0  0
  196.4420  176.4630  143.1930 C   0  0  0  0  0  0  0  0  0  0  0  0
  197.6410  176.8240  143.0500 O   0  0  0  0  0  0  0  0  0  0  0  0
  195.7160  176.8730  144.3470 N   0  0  0  0  0  1  0  0  0  0  0  0
  186.0600  176.8510  145.1240 S   0  0  0  0  0  0  0  0  0  0  0  0
  185.3150  178.5310  145.0560 C   0  0  2  0  0  0  0  0  0  0  0  0
  186.2000  179.4700  145.8610 C   0  0  0  0  0  1  0  0  0  0  0  0
  184.0170  178.5540  145.6140 O   0  0  0  0  0  0  0  0  0  0  0  0
  184.0550  177.8530  146.7330 O   0  0  0  0  0  1  0  0  0  0  0  0
  185.3200  178.9990  143.5920 C   0  0  0  0  0  2  0  0  0  0  0  0
  187.3640  179.4130  142.4050 O   0  0  0  0  0  1  0  0  0  0  0  0
  186.4680  178.4020  142.7680 C   0  0  2  0  0  3  0  0  0  0  0  0
  185.9750  177.6300  141.5260 C   0  0  1  0  0  0  0  0  0  0  0  0
  185.5660  176.2190  141.9280 C   0  0  0  0  0  1  0  0  0  0  0  0
  184.7930  178.3280  140.9110 C   0  0  0  0  0  3  0  0  0  0  0  0
  183.6760  177.8330  140.9410 O   0  0  0  0  0  0  0  0  0  0  0  0
  187.0940  177.5490  140.4850 C   0  0  0  0  0  2  0  0  0  0  0  0
  186.5740  177.5300  139.1570 O   0  0  0  0  0  0  0  0  0  0  0  0
  186.6880  176.4250  138.3060 C   0  0  0  0  0  0  0  0  0  0  0  0
  187.4850  175.2510  138.7490 C   0  0  0  0  0  1  0  0  0  0  0  0
  186.1090  176.3950  137.1090 C   0  0  0  0  0  2  0  0  0  0  0  0
  1 24  1  0  0  0  0
  2 18  1  0  0  0  0
  5  4  2  0  0  0  0
  6 13  2  0  0  0  0
  7  6  1  0  0  0  0
  8  9  1  6  0  0  0
  8 13  1  0  0  0  0
  8 19  1  0  0  0  0
 10 21  1  0  0  0  0
 11  7  1  0  0  0  0
 11  9  1  0  0  0  0
 12 22  1  0  0  0  0
 13 25  1  0  0  0  0
 14 28  1  0  0  0  0
 14 29  1  0  0  0  0
 15  1  1  0  0  0  0
 16 14  2  0  0  0  0
 17 35  1  0  0  0  0
 17 26  1  0  0  0  0
 18 23  1  0  0  0  0
 19 17  2  0  0  0  0
 20  2  2  0  0  0  0
 21  3  2  0  0  0  0
 21 20  1  0  0  0  0
 22 29  2  0  0  0  0
 23  5  1  0  0  0  0
 23 27  1  0  0  0  0
 24 16  1  0  0  0  0
 24 12  2  0  0  0  0
 25 10  1  6  0  0  0
 25 26  1  0  0  0  0
 26 15  2  0  0  0  0
 27 28  1  0  0  0  0
 30 34  1  0  0  0  0
 31 34  1  0  0  0  0
 31 36  1  1  0  0  0
 32 35  1  0  0  0  0
 32 33  1  0  0  0  0
 33 31  1  0  0  0  0
 35 30  1  0  0  0  0
 36 38  1  0  0  0  0
 37 36  2  0  0  0  0
 39  5  1  0  0  0  0
 40 39  1  0  0  0  0
 40 42  1  0  0  0  0
 40 41  1  1  0  0  0
 42 43  1  0  0  0  0
 44 40  1  0  0  0  0
 46 45  1  6  0  0  0
 46 44  1  0  0  0  0
 47 48  1  1  0  0  0
 47 46  1  0  0  0  0
 49 50  2  0  0  0  0
 49 47  1  0  0  0  0
 51 47  1  0  0  0  0
 52 51  1  0  0  0  0
 53 54  1  0  0  0  0
 53 52  1  0  0  0  0
 55 53  2  0  0  0  0
M  END
>  <MODEL>
8

>  <REMARK>
 VINA RESULT:      -5.5      3.795      8.126
  Name = 
  12 active torsions:
  status: ('A' for Active; 'I' for Inactive)
    1  A    between atoms: C_1  and  O_53
    2  A    between atoms: O_6  and  C_20
    3  A    between atoms: C_8  and  S_22
    4  A    between atoms: C_10  and  C_32
    5  A    between atoms: C_11  and  C_29
    6  A    between atoms: C_12  and  C_14
    7  A    between atoms: C_12  and  C_20
    8  A    between atoms: C_14  and  C_29
    9  A    between atoms: C_20  and  S_22
   10  A    between atoms: C_29  and  C_38
   11  A    between atoms: C_33  and  N_52
   12  A    between atoms: C_38  and  O_53
                            x       y       z     vdW  Elec       q    Type
                         _______ _______ _______ _____ _____    ______ ____

>  <TORSDO>
F 12

$$$$
=
 OpenBabel11052419353D

 55 59  0  0  1  0  0  0  0  0999 V2000
  190.7860  172.8670  143.1090 C   0  0  0  0  0  2  0  0  0  0  0  0
  192.8870  173.4580  138.5740 C   0  0  0  0  0  3  0  0  0  0  0  0
  194.9820  172.3250  139.9500 O   0  0  0  0  0  0  0  0  0  0  0  0
  190.6520  172.1550  134.9770 O   0  0  0  0  0  0  0  0  0  0  0  0
  191.4850  172.4940  135.8610 C   0  0  0  0  0  0  0  0  0  0  0  0
  196.9020  173.2020  143.7210 C   0  0  0  0  0  3  0  0  0  0  0  0
  197.9410  173.4500  144.7850 C   0  0  0  0  0  2  0  0  0  0  0  0
  195.0590  173.8000  145.2900 C   0  0  2  0  0  3  0  0  0  0  0  0
  196.1250  174.3750  146.2140 C   0  0  0  0  0  2  0  0  0  0  0  0
  194.9910  174.0770  141.5610 C   0  0  0  0  0  2  0  0  0  0  0  0
  197.3410  173.4590  146.1900 C   0  0  0  0  0  2  0  0  0  0  0  0
  188.4830  173.2750  142.2800 C   0  0  0  0  0  3  0  0  0  0  0  0
  195.5920  173.4570  143.9080 C   0  0  0  0  0  0  0  0  0  0  0  0
  189.0940  172.3270  139.7230 C   0  0  0  0  0  0  0  0  0  0  0  0
  192.2120  172.7920  142.6550 C   0  0  0  0  0  3  0  0  0  0  0  0
  190.0850  172.3580  140.7120 C   0  0  0  0  0  3  0  0  0  0  0  0
  192.9630  174.5580  144.2320 C   0  0  0  0  0  0  0  0  0  0  0  0
  191.8630  174.1440  137.7450 C   0  0  0  0  0  2  0  0  0  0  0  0
  193.8790  174.7180  145.1950 C   0  0  0  0  0  3  0  0  0  0  0  0
  193.4860  174.0770  139.5370 N   0  0  0  0  0  0  0  0  0  0  0  0
  194.5010  173.4340  140.3100 C   0  0  0  0  0  0  0  0  0  0  0  0
  187.4950  173.2460  141.2940 C   0  0  0  0  0  3  0  0  0  0  0  0
  191.0330  173.1640  137.0520 N   0  0  0  0  0  0  0  0  0  0  0  0
  189.7840  172.8420  141.9960 C   0  0  0  0  0  0  0  0  0  0  0  0
  194.6180  173.2230  142.7720 C   0  0  1  0  0  3  0  0  0  0  0  0
  193.1980  173.5180  143.1930 C   0  0  0  0  0  0  0  0  0  0  0  0
  189.6330  173.0770  137.4430 C   0  0  0  0  0  2  0  0  0  0  0  0
  189.4220  171.8700  138.3430 C   0  0  0  0  0  2  0  0  0  0  0  0
  187.8010  172.7760  140.0170 C   0  0  0  0  0  3  0  0  0  0  0  0
  191.0360  175.7780  145.2980 C   0  0  0  0  0  2  0  0  0  0  0  0
  189.5180  177.0520  143.7780 C   0  0  2  0  0  3  0  0  0  0  0  0
  191.8050  176.3930  142.9890 C   0  0  0  0  0  2  0  0  0  0  0  0
  190.3570  176.6360  142.5720 C   0  0  0  0  0  2  0  0  0  0  0  0
  189.5890  175.9860  144.8690 C   0  0  0  0  0  2  0  0  0  0  0  0
  191.8610  175.4750  144.1270 N   0  0  0  0  0  0  0  0  0  0  0  0
  188.1000  177.2900  143.3790 C   0  0  0  0  0  0  0  0  0  0  0  0
  187.3110  177.9150  144.1390 O   0  0  0  0  0  0  0  0  0  0  0  0
  187.6420  176.8350  142.1100 N   0  0  0  0  0  1  0  0  0  0  0  0
  193.2340  172.1540  135.5840 S   0  0  0  0  0  0  0  0  0  0  0  0
  193.1740  170.3640  135.9980 C   0  0  2  0  0  0  0  0  0  0  0  0
  192.2560  169.6810  134.9960 C   0  0  0  0  0  1  0  0  0  0  0  0
  192.6620  170.1400  137.2960 O   0  0  0  0  0  0  0  0  0  0  0  0
  192.7840  168.8500  137.5510 O   0  0  0  0  0  1  0  0  0  0  0  0
  194.5880  169.7850  135.8300 C   0  0  0  0  0  2  0  0  0  0  0  0
  196.2260  170.9410  134.5130 O   0  0  0  0  0  1  0  0  0  0  0  0
  195.6820  170.8580  135.7990 C   0  0  2  0  0  3  0  0  0  0  0  0
  196.7870  170.6170  136.8490 C   0  0  1  0  0  0  0  0  0  0  0  0
  196.2220  169.8120  138.0120 C   0  0  0  0  0  1  0  0  0  0  0  0
  197.9340  169.8600  136.2380 C   0  0  0  0  0  3  0  0  0  0  0  0
  197.9380  168.6380  136.1970 O   0  0  0  0  0  0  0  0  0  0  0  0
  197.3080  171.9570  137.3750 C   0  0  0  0  0  2  0  0  0  0  0  0
  196.4050  173.0220  137.0800 O   0  0  0  0  0  0  0  0  0  0  0  0
  196.6510  174.3540  137.4340 C   0  0  0  0  0  0  0  0  0  0  0  0
  195.9920  175.4400  136.6630 C   0  0  0  0  0  1  0  0  0  0  0  0
  197.4600  174.6770  138.4390 C   0  0  0  0  0  2  0  0  0  0  0  0
  2 20  2  0  0  0  0
  3 21  2  0  0  0  0
  4  5  2  0  0  0  0
  5 23  1  0  0  0  0
  6 13  2  0  0  0  0
  6  7  1  0  0  0  0
  7 11  1  0  0  0  0
  8 19  1  6  0  0  0
  8  9  1  0  0  0  0
 11  9  1  0  0  0  0
 13  8  1  0  0  0  0
 14 29  2  0  0  0  0
 14 16  1  0  0  0  0
 15  1  1  0  0  0  0
 15 26  2  0  0  0  0
 16 24  2  0  0  0  0
 17 19  2  0  0  0  0
 18  2  1  0  0  0  0
 20 21  1  0  0  0  0
 21 10  1  0  0  0  0
 22 12  2  0  0  0  0
 23 27  1  0  0  0  0
 23 18  1  0  0  0  0
 24 12  1  0  0  0  0
 24  1  1  0  0  0  0
 25 10  1  6  0  0  0
 25 26  1  0  0  0  0
 25 13  1  0  0  0  0
 26 17  1  0  0  0  0
 27 28  1  0  0  0  0
 28 14  1  0  0  0  0
 29 22  1  0  0  0  0
 31 36  1  6  0  0  0
 31 34  1  0  0  0  0
 32 35  1  0  0  0  0
 33 32  1  0  0  0  0
 33 31  1  0  0  0  0
 34 30  1  0  0  0  0
 35 17  1  0  0  0  0
 35 30  1  0  0  0  0
 36 37  2  0  0  0  0
 38 36  1  0  0  0  0
 39  5  1  0  0  0  0
 39 40  1  0  0  0  0
 40 41  1  6  0  0  0
 40 42  1  0  0  0  0
 42 43  1  0  0  0  0
 44 40  1  0  0  0  0
 46 45  1  6  0  0  0
 46 44  1  0  0  0  0
 46 47  1  0  0  0  0
 47 51  1  0  0  0  0
 47 48  1  1  0  0  0
 49 47  1  0  0  0  0
 50 49  2  0  0  0  0
 52 51  1  0  0  0  0
 52 53  1  0  0  0  0
 53 55  2  0  0  0  0
 54 53  1  0  0  0  0
M  END
>  <MODEL>
9

>  <REMARK>
 VINA RESULT:      -5.3      2.568      6.520
  Name = 
  12 active torsions:
  status: ('A' for Active; 'I' for Inactive)
    1  A    between atoms: C_1  and  O_53
    2  A    between atoms: O_6  and  C_20
    3  A    between atoms: C_8  and  S_22
    4  A    between atoms: C_10  and  C_32
    5  A    between atoms: C_11  and  C_29
    6  A    between atoms: C_12  and  C_14
    7  A    between atoms: C_12  and  C_20
    8  A    between atoms: C_14  and  C_29
    9  A    between atoms: C_20  and  S_22
   10  A    between atoms: C_29  and  C_38
   11  A    between atoms: C_33  and  N_52
   12  A    between atoms: C_38  and  O_53
                            x       y       z     vdW  Elec       q    Type
                         _______ _______ _______ _____ _____    ______ ____

>  <TORSDO>
F 12

$$$$
