=
 OpenBabel11052419173D

 32 37  0  0  1  0  0  0  0  0999 V2000
  187.0530  176.0810  141.7940 C   0  0  2  0  0  3  0  0  0  0  0  0
  187.5790  176.3180  144.3330 C   0  0  2  0  0  3  0  0  0  0  0  0
  187.2650  177.2750  140.8560 C   0  0  0  0  0  2  0  0  0  0  0  0
  186.5950  176.5170  143.2130 C   0  0  1  0  0  3  0  0  0  0  0  0
  187.0970  176.7810  145.6960 C   0  0  1  0  0  3  0  0  0  0  0  0
  192.2560  176.7530  145.6600 C   0  0  0  0  0  2  0  0  0  0  0  0
  188.8400  175.9080  144.1040 C   0  0  0  0  0  0  0  0  0  0  0  0
  190.5220  176.7790  147.4920 C   0  0  0  0  0  2  0  0  0  0  0  0
  189.5370  176.8870  146.3210 C   0  0  2  0  0  3  0  0  0  0  0  0
  186.1680  177.9950  143.2590 C   0  0  2  0  0  3  0  0  0  0  0  0
  188.1290  176.6240  146.8200 C   0  0  0  0  0  2  0  0  0  0  0  0
  185.5200  178.2960  144.5310 N   0  0  0  0  0  2  0  0  0  0  0  0
  185.2620  178.3280  142.0830 C   0  0  0  0  0  2  0  0  0  0  0  0
  189.1740  175.3370  142.8380 N   0  0  0  0  0  0  0  0  0  0  0  0
  188.2330  175.2090  141.8040 N   0  0  0  0  0  0  0  0  0  0  0  0
  189.8740  175.8900  145.2030 C   0  0  2  0  0  3  0  0  0  0  0  0
  186.5280  178.2110  145.5960 C   0  0  1  0  0  3  0  0  0  0  0  0
  185.9830  178.1130  140.7410 C   0  0  0  0  0  2  0  0  0  0  0  0
  191.9200  176.3010  147.0760 C   0  0  0  0  0  2  0  0  0  0  0  0
  191.2830  176.1490  144.6400 C   0  0  0  0  0  2  0  0  0  0  0  0
  190.0440  172.4040  140.1830 C   0  0  0  0  0  0  0  0  0  0  0  0
  189.4480  172.4640  136.7540 O   0  0  0  0  0  1  0  0  0  0  0  0
  190.5770  171.1590  140.5020 O   0  0  0  0  0  1  0  0  0  0  0  0
  188.3020  173.9040  138.2140 C   0  0  0  0  0  3  0  0  0  0  0  0
  188.5080  174.3090  140.7070 C   0  0  0  0  0  0  0  0  0  0  0  0
  190.5030  173.0570  138.9250 C   0  0  0  0  0  2  0  0  0  0  0  0
  188.0870  174.6480  139.4700 C   0  0  0  0  0  3  0  0  0  0  0  0
  189.1410  172.9840  140.9930 C   0  0  0  0  0  0  0  0  0  0  0  0
  188.7200  172.2560  142.2320 C   0  0  0  0  0  1  0  0  0  0  0  0
  189.3710  173.1510  137.9570 C   0  0  0  0  0  0  0  0  0  0  0  0
  185.9210  178.6800  146.9170 C   0  0  0  0  0  2  0  0  0  0  0  0
  184.5100  178.3330  146.9910 N   0  0  0  0  0  1  0  0  0  0  0  0
  1  3  1  6  0  0  0
  1 15  1  0  0  0  0
  1  4  1  0  0  0  0
  2  7  1  6  0  0  0
  2  5  1  0  0  0  0
  4 10  1  0  0  0  0
  4  2  1  0  0  0  0
  5 11  1  0  0  0  0
  6 19  1  0  0  0  0
  7 16  1  0  0  0  0
  9 11  1  0  0  0  0
  9  8  1  0  0  0  0
 10 12  1  0  0  0  0
 12 17  1  0  0  0  0
 13 10  1  0  0  0  0
 14  7  2  0  0  0  0
 15 14  1  0  0  0  0
 16  9  1  0  0  0  0
 17  5  1  0  0  0  0
 17 31  1  0  0  0  0
 18  3  1  0  0  0  0
 18 13  1  0  0  0  0
 19  8  1  0  0  0  0
 20 16  1  0  0  0  0
 20  6  1  0  0  0  0
 21 23  1  0  0  0  0
 21 28  2  0  0  0  0
 22 30  1  0  0  0  0
 24 27  1  0  0  0  0
 25 28  1  0  0  0  0
 25 15  1  0  0  0  0
 26 21  1  0  0  0  0
 27 25  2  0  0  0  0
 28 29  1  0  0  0  0
 30 24  2  0  0  0  0
 30 26  1  0  0  0  0
 31 32  1  0  0  0  0
M  END
>  <MODEL>
1

>  <REMARK>
 VINA RESULT:      -9.0      0.000      0.000
  Name = 
  2 active torsions:
  status: ('A' for Active; 'I' for Inactive)
    1  A    between atoms: C_13  and  C_29
    2  A    between atoms: C_16  and  N_27
                            x       y       z     vdW  Elec       q    Type
                         _______ _______ _______ _____ _____    ______ ____

>  <TORSDO>
F 2

$$$$
=
 OpenBabel11052419173D

 32 37  0  0  1  0  0  0  0  0999 V2000
  189.9000  175.9710  145.6620 C   0  0  2  0  0  3  0  0  0  0  0  0
  188.1440  177.3900  144.3650 C   0  0  2  0  0  3  0  0  0  0  0  0
  189.5530  174.5440  146.1020 C   0  0  0  0  0  2  0  0  0  0  0  0
  188.6670  176.9160  145.6930 C   0  0  1  0  0  3  0  0  0  0  0  0
  186.9250  178.2910  144.4430 C   0  0  1  0  0  3  0  0  0  0  0  0
  187.0660  176.0560  139.7950 C   0  0  0  0  0  2  0  0  0  0  0  0
  188.6320  176.9190  143.2030 C   0  0  0  0  0  0  0  0  0  0  0  0
  185.8730  178.0740  140.7280 C   0  0  0  0  0  2  0  0  0  0  0  0
  186.4980  177.6160  142.0510 C   0  0  2  0  0  3  0  0  0  0  0  0
  187.4740  176.2920  146.4390 C   0  0  2  0  0  3  0  0  0  0  0  0
  186.3680  178.7230  143.0810 C   0  0  0  0  0  2  0  0  0  0  0  0
  186.4340  177.2930  146.6580 N   0  0  0  0  0  2  0  0  0  0  0  0
  187.9280  175.6700  147.7510 C   0  0  0  0  0  2  0  0  0  0  0  0
  189.8730  176.2110  143.1960 N   0  0  0  0  0  0  0  0  0  0  0  0
  190.5980  175.9650  144.3720 N   0  0  0  0  0  0  0  0  0  0  0  0
  187.9800  177.2540  141.8820 C   0  0  2  0  0  3  0  0  0  0  0  0
  185.8570  177.6530  145.3560 C   0  0  1  0  0  3  0  0  0  0  0  0
  188.9450  174.5400  147.5120 C   0  0  0  0  0  2  0  0  0  0  0  0
  186.5320  177.4510  139.4900 C   0  0  0  0  0  2  0  0  0  0  0  0
  188.1550  176.1040  140.8730 C   0  0  0  0  0  2  0  0  0  0  0  0
  193.4110  173.5550  144.6110 C   0  0  0  0  0  0  0  0  0  0  0  0
  196.4280  175.2910  144.6380 O   0  0  0  0  0  1  0  0  0  0  0  0
  193.6890  172.2180  144.3420 O   0  0  0  0  0  1  0  0  0  0  0  0
  194.3930  176.3950  144.2450 C   0  0  0  0  0  3  0  0  0  0  0  0
  191.9910  175.5890  144.2760 C   0  0  0  0  0  0  0  0  0  0  0  0
  194.3330  174.2900  145.5230 C   0  0  0  0  0  2  0  0  0  0  0  0
  192.9270  176.5610  144.2850 C   0  0  0  0  0  3  0  0  0  0  0  0
  192.3420  174.1520  144.0530 C   0  0  0  0  0  0  0  0  0  0  0  0
  191.4730  173.3490  143.1360 C   0  0  0  0  0  1  0  0  0  0  0  0
  195.0490  175.3600  144.7700 C   0  0  0  0  0  0  0  0  0  0  0  0
  184.6560  178.5750  145.5640 C   0  0  0  0  0  2  0  0  0  0  0  0
  184.0680  178.3710  146.8780 N   0  0  0  0  0  1  0  0  0  0  0  0
  1  4  1  0  0  0  0
  1  3  1  6  0  0  0
  2  7  1  6  0  0  0
  2  5  1  0  0  0  0
  2  4  1  0  0  0  0
  3 18  1  0  0  0  0
  4 10  1  0  0  0  0
  5 17  1  0  0  0  0
  6 20  1  0  0  0  0
  8  9  1  0  0  0  0
  9 11  1  0  0  0  0
 10 12  1  0  0  0  0
 10 13  1  0  0  0  0
 11  5  1  0  0  0  0
 14  7  2  0  0  0  0
 14 15  1  0  0  0  0
 15  1  1  0  0  0  0
 16  9  1  0  0  0  0
 16  7  1  0  0  0  0
 17 31  1  0  0  0  0
 17 12  1  0  0  0  0
 18 13  1  0  0  0  0
 19  6  1  0  0  0  0
 19  8  1  0  0  0  0
 20 16  1  0  0  0  0
 21 26  1  0  0  0  0
 22 30  1  0  0  0  0
 23 21  1  0  0  0  0
 24 27  1  0  0  0  0
 24 30  2  0  0  0  0
 25 27  2  0  0  0  0
 25 15  1  0  0  0  0
 28 25  1  0  0  0  0
 28 21  2  0  0  0  0
 29 28  1  0  0  0  0
 30 26  1  0  0  0  0
 31 32  1  0  0  0  0
M  END
>  <MODEL>
2

>  <REMARK>
 VINA RESULT:      -8.8      2.683      5.729
  Name = 
  2 active torsions:
  status: ('A' for Active; 'I' for Inactive)
    1  A    between atoms: C_13  and  C_29
    2  A    between atoms: C_16  and  N_27
                            x       y       z     vdW  Elec       q    Type
                         _______ _______ _______ _____ _____    ______ ____

>  <TORSDO>
F 2

$$$$
=
 OpenBabel11052419173D

 32 37  0  0  1  0  0  0  0  0999 V2000
  189.9340  175.9080  145.5310 C   0  0  2  0  0  3  0  0  0  0  0  0
  188.1990  177.3270  144.2070 C   0  0  2  0  0  3  0  0  0  0  0  0
  189.5610  174.4990  146.0090 C   0  0  0  0  0  2  0  0  0  0  0  0
  188.7200  176.8770  145.5440 C   0  0  1  0  0  3  0  0  0  0  0  0
  186.9990  178.2540  144.2690 C   0  0  1  0  0  3  0  0  0  0  0  0
  187.0670  175.8980  139.6790 C   0  0  0  0  0  2  0  0  0  0  0  0
  188.6700  176.8170  143.0550 C   0  0  0  0  0  0  0  0  0  0  0  0
  185.9200  177.9630  140.5660 C   0  0  0  0  0  2  0  0  0  0  0  0
  186.5440  177.5260  141.8980 C   0  0  2  0  0  3  0  0  0  0  0  0
  187.5200  176.2970  146.3130 C   0  0  2  0  0  3  0  0  0  0  0  0
  186.4410  178.6620  142.8990 C   0  0  0  0  0  2  0  0  0  0  0  0
  186.5010  177.3240  146.5110 N   0  0  0  0  0  2  0  0  0  0  0  0
  187.9700  175.6990  147.6380 C   0  0  0  0  0  2  0  0  0  0  0  0
  189.8960  176.0840  143.0590 N   0  0  0  0  0  0  0  0  0  0  0  0
  190.6240  175.8550  144.2380 N   0  0  0  0  0  0  0  0  0  0  0  0
  188.0170  177.1300  141.7300 C   0  0  2  0  0  3  0  0  0  0  0  0
  185.9240  177.6620  145.2040 C   0  0  1  0  0  3  0  0  0  0  0  0
  188.9630  174.5440  147.4230 C   0  0  0  0  0  2  0  0  0  0  0  0
  186.5580  177.2950  139.3420 C   0  0  0  0  0  2  0  0  0  0  0  0
  188.1630  175.9510  140.7500 C   0  0  0  0  0  2  0  0  0  0  0  0
  194.2790  176.4130  144.5600 C   0  0  0  0  0  0  0  0  0  0  0  0
  195.9920  173.9220  142.8330 O   0  0  0  0  0  1  0  0  0  0  0  0
  195.1860  177.0480  145.4030 O   0  0  0  0  0  1  0  0  0  0  0  0
  193.6620  173.8280  143.1120 C   0  0  0  0  0  3  0  0  0  0  0  0
  192.0080  175.4480  144.1440 C   0  0  0  0  0  0  0  0  0  0  0  0
  194.7420  176.0400  143.1930 C   0  0  0  0  0  2  0  0  0  0  0  0
  192.3190  174.3780  143.3810 C   0  0  0  0  0  3  0  0  0  0  0  0
  193.0310  176.1460  144.9830 C   0  0  0  0  0  0  0  0  0  0  0  0
  192.6490  176.5400  146.3760 C   0  0  0  0  0  1  0  0  0  0  0  0
  194.7770  174.5550  143.0550 C   0  0  0  0  0  0  0  0  0  0  0  0
  184.7430  178.6120  145.3950 C   0  0  0  0  0  2  0  0  0  0  0  0
  184.0670  178.3520  146.6560 N   0  0  0  0  0  1  0  0  0  0  0  0
  1  4  1  0  0  0  0
  1  3  1  6  0  0  0
  2  7  1  6  0  0  0
  2  5  1  0  0  0  0
  2  4  1  0  0  0  0
  3 18  1  0  0  0  0
  4 10  1  0  0  0  0
  5 17  1  0  0  0  0
  6 20  1  0  0  0  0
  7 14  2  0  0  0  0
  8  9  1  0  0  0  0
  9 11  1  0  0  0  0
 10 12  1  0  0  0  0
 10 13  1  0  0  0  0
 11  5  1  0  0  0  0
 14 15  1  0  0  0  0
 15  1  1  0  0  0  0
 16  9  1  0  0  0  0
 16  7  1  0  0  0  0
 17 31  1  0  0  0  0
 17 12  1  0  0  0  0
 18 13  1  0  0  0  0
 19  6  1  0  0  0  0
 19  8  1  0  0  0  0
 20 16  1  0  0  0  0
 21 28  2  0  0  0  0
 21 23  1  0  0  0  0
 22 30  1  0  0  0  0
 24 27  1  0  0  0  0
 25 15  1  0  0  0  0
 25 28  1  0  0  0  0
 26 21  1  0  0  0  0
 27 25  2  0  0  0  0
 28 29  1  0  0  0  0
 30 24  2  0  0  0  0
 30 26  1  0  0  0  0
 31 32  1  0  0  0  0
M  END
>  <MODEL>
3

>  <REMARK>
 VINA RESULT:      -8.4      2.812      5.772
  Name = 
  2 active torsions:
  status: ('A' for Active; 'I' for Inactive)
    1  A    between atoms: C_13  and  C_29
    2  A    between atoms: C_16  and  N_27
                            x       y       z     vdW  Elec       q    Type
                         _______ _______ _______ _____ _____    ______ ____

>  <TORSDO>
F 2

$$$$
=
 OpenBabel11052419173D

 32 37  0  0  1  0  0  0  0  0999 V2000
  188.8860  175.0390  142.6330 C   0  0  2  0  0  3  0  0  0  0  0  0
  191.4120  175.6710  142.6360 C   0  0  2  0  0  3  0  0  0  0  0  0
  188.4440  173.6600  143.1360 C   0  0  0  0  0  2  0  0  0  0  0  0
  190.2690  174.9960  141.9270 C   0  0  1  0  0  3  0  0  0  0  0  0
  192.7470  175.5830  141.9200 C   0  0  1  0  0  3  0  0  0  0  0  0
  193.5840  176.3540  146.9530 C   0  0  0  0  0  2  0  0  0  0  0  0
  191.2790  176.1720  143.8780 C   0  0  0  0  0  0  0  0  0  0  0  0
  194.9990  176.6370  144.8830 C   0  0  0  0  0  2  0  0  0  0  0  0
  193.7790  176.0310  144.1770 C   0  0  2  0  0  3  0  0  0  0  0  0
  190.7250  173.5580  141.6260 C   0  0  2  0  0  3  0  0  0  0  0  0
  193.9160  176.2260  142.6780 C   0  0  0  0  0  2  0  0  0  0  0  0
  191.8960  173.5690  140.7540 N   0  0  0  0  0  2  0  0  0  0  0  0
  189.5880  172.7520  141.0160 C   0  0  0  0  0  2  0  0  0  0  0  0
  189.9720  176.3700  144.4200 N   0  0  0  0  0  0  0  0  0  0  0  0
  188.8090  176.0360  143.7070 N   0  0  0  0  0  0  0  0  0  0  0  0
  192.4710  176.6770  144.6550 C   0  0  2  0  0  3  0  0  0  0  0  0
  193.0280  174.1240  141.5070 C   0  0  1  0  0  3  0  0  0  0  0  0
  188.3940  172.6490  141.9810 C   0  0  0  0  0  2  0  0  0  0  0  0
  194.6940  177.1630  146.2920 C   0  0  0  0  0  2  0  0  0  0  0  0
  192.2720  176.4670  146.1670 C   0  0  0  0  0  2  0  0  0  0  0  0
  185.9510  178.3860  143.4240 C   0  0  0  0  0  0  0  0  0  0  0  0
  184.1350  178.3700  146.3940 O   0  0  0  0  0  1  0  0  0  0  0  0
  185.1650  178.9900  142.4470 O   0  0  0  0  0  1  0  0  0  0  0  0
  185.8850  176.8470  146.0290 C   0  0  0  0  0  3  0  0  0  0  0  0
  187.5410  176.5870  144.1280 C   0  0  0  0  0  0  0  0  0  0  0  0
  185.9370  178.9760  144.7930 C   0  0  0  0  0  2  0  0  0  0  0  0
  187.1150  176.3450  145.3860 C   0  0  0  0  0  3  0  0  0  0  0  0
  186.6900  177.3030  143.1270 C   0  0  0  0  0  0  0  0  0  0  0  0
  186.6380  176.7620  141.7330 C   0  0  0  0  0  1  0  0  0  0  0  0
  185.3150  178.0190  145.7540 C   0  0  0  0  0  0  0  0  0  0  0  0
  194.3060  173.9970  140.6790 C   0  0  0  0  0  2  0  0  0  0  0  0
  194.1710  174.6900  139.4080 N   0  0  0  0  0  1  0  0  0  0  0  0
  1  3  1  1  0  0  0
  1 15  1  0  0  0  0
  2  7  1  1  0  0  0
  4  1  1  0  0  0  0
  4  2  1  0  0  0  0
  5  2  1  0  0  0  0
  5 11  1  0  0  0  0
  7 14  2  0  0  0  0
  7 16  1  0  0  0  0
  8 19  1  0  0  0  0
  9 16  1  0  0  0  0
  9  8  1  0  0  0  0
 10  4  1  0  0  0  0
 11  9  1  0  0  0  0
 12 17  1  0  0  0  0
 12 10  1  0  0  0  0
 13 10  1  0  0  0  0
 13 18  1  0  0  0  0
 15 25  1  0  0  0  0
 15 14  1  0  0  0  0
 16 20  1  0  0  0  0
 17  5  1  0  0  0  0
 18  3  1  0  0  0  0
 19  6  1  0  0  0  0
 20  6  1  0  0  0  0
 21 26  1  0  0  0  0
 23 21  1  0  0  0  0
 25 27  2  0  0  0  0
 26 30  1  0  0  0  0
 27 24  1  0  0  0  0
 28 21  2  0  0  0  0
 28 25  1  0  0  0  0
 29 28  1  0  0  0  0
 30 24  2  0  0  0  0
 30 22  1  0  0  0  0
 31 17  1  0  0  0  0
 32 31  1  0  0  0  0
M  END
>  <MODEL>
4

>  <REMARK>
 VINA RESULT:      -8.2      3.454      6.888
  Name = 
  2 active torsions:
  status: ('A' for Active; 'I' for Inactive)
    1  A    between atoms: C_13  and  C_29
    2  A    between atoms: C_16  and  N_27
                            x       y       z     vdW  Elec       q    Type
                         _______ _______ _______ _____ _____    ______ ____

>  <TORSDO>
F 2

$$$$
=
 OpenBabel11052419173D

 32 37  0  0  1  0  0  0  0  0999 V2000
  189.6700  176.6070  144.1720 C   0  0  2  0  0  3  0  0  0  0  0  0
  190.2850  174.5540  142.6950 C   0  0  2  0  0  3  0  0  0  0  0  0
  190.1570  178.0060  143.7760 C   0  0  0  0  0  2  0  0  0  0  0  0
  190.6890  175.4970  143.7950 C   0  0  1  0  0  3  0  0  0  0  0  0
  191.3220  173.5010  142.3450 C   0  0  1  0  0  3  0  0  0  0  0  0
  188.2170  174.2160  138.2860 C   0  0  0  0  0  2  0  0  0  0  0  0
  189.1600  174.7380  141.9800 C   0  0  0  0  0  0  0  0  0  0  0  0
  189.8120  172.3830  138.9640 C   0  0  0  0  0  2  0  0  0  0  0  0
  190.1330  173.3300  140.1280 C   0  0  2  0  0  3  0  0  0  0  0  0
  192.0590  176.0740  143.4010 C   0  0  2  0  0  3  0  0  0  0  0  0
  190.9230  172.5800  141.1850 C   0  0  0  0  0  2  0  0  0  0  0  0
  193.0470  175.0050  143.2940 N   0  0  0  0  0  2  0  0  0  0  0  0
  192.4990  177.1380  144.3960 C   0  0  0  0  0  2  0  0  0  0  0  0
  188.1590  175.6360  142.4630 N   0  0  0  0  0  0  0  0  0  0  0  0
  188.3190  176.3590  143.6560 N   0  0  0  0  0  0  0  0  0  0  0  0
  188.8570  173.9020  140.7600 C   0  0  2  0  0  3  0  0  0  0  0  0
  192.6980  174.1650  142.1410 C   0  0  1  0  0  3  0  0  0  0  0  0
  191.5110  178.3160  144.4290 C   0  0  0  0  0  2  0  0  0  0  0  0
  188.5000  172.7190  138.2440 C   0  0  0  0  0  2  0  0  0  0  0  0
  188.0440  174.7070  139.7290 C   0  0  0  0  0  2  0  0  0  0  0  0
  186.0840  179.2010  144.4980 C   0  0  0  0  0  0  0  0  0  0  0  0
  183.9740  178.2850  147.1110 O   0  0  0  0  0  1  0  0  0  0  0  0
  185.5660  180.3530  143.9150 O   0  0  0  0  0  1  0  0  0  0  0  0
  185.3870  176.7160  146.0800 C   0  0  0  0  0  3  0  0  0  0  0  0
  187.1580  176.9500  144.2830 C   0  0  0  0  0  0  0  0  0  0  0  0
  186.0380  179.0900  145.9840 C   0  0  0  0  0  2  0  0  0  0  0  0
  186.5460  176.2770  145.2810 C   0  0  0  0  0  3  0  0  0  0  0  0
  186.6030  178.2250  143.7310 C   0  0  0  0  0  0  0  0  0  0  0  0
  186.5990  178.4060  142.2460 C   0  0  0  0  0  1  0  0  0  0  0  0
  185.1180  177.9850  146.3840 C   0  0  0  0  0  0  0  0  0  0  0  0
  193.8020  173.1360  141.9020 C   0  0  0  0  0  2  0  0  0  0  0  0
  194.0860  172.3890  143.1170 N   0  0  0  0  0  1  0  0  0  0  0  0
  1  3  1  6  0  0  0
  2  7  1  6  0  0  0
  2  4  1  0  0  0  0
  3 18  1  0  0  0  0
  4  1  1  0  0  0  0
  5  2  1  0  0  0  0
  6 20  1  0  0  0  0
  7 14  2  0  0  0  0
  8  9  1  0  0  0  0
  9 16  1  0  0  0  0
  9 11  1  0  0  0  0
 10  4  1  0  0  0  0
 10 13  1  0  0  0  0
 11  5  1  0  0  0  0
 12 10  1  0  0  0  0
 13 18  1  0  0  0  0
 14 15  1  0  0  0  0
 15  1  1  0  0  0  0
 15 25  1  0  0  0  0
 16  7  1  0  0  0  0
 17  5  1  0  0  0  0
 17 12  1  0  0  0  0
 19  6  1  0  0  0  0
 19  8  1  0  0  0  0
 20 16  1  0  0  0  0
 21 26  1  0  0  0  0
 23 21  1  0  0  0  0
 24 30  2  0  0  0  0
 25 27  2  0  0  0  0
 26 30  1  0  0  0  0
 27 24  1  0  0  0  0
 28 25  1  0  0  0  0
 28 21  2  0  0  0  0
 29 28  1  0  0  0  0
 30 22  1  0  0  0  0
 31 17  1  0  0  0  0
 31 32  1  0  0  0  0
M  END
>  <MODEL>
5

>  <REMARK>
 VINA RESULT:      -8.1      3.483      7.716
  Name = 
  2 active torsions:
  status: ('A' for Active; 'I' for Inactive)
    1  A    between atoms: C_13  and  C_29
    2  A    between atoms: C_16  and  N_27
                            x       y       z     vdW  Elec       q    Type
                         _______ _______ _______ _____ _____    ______ ____

>  <TORSDO>
F 2

$$$$
=
 OpenBabel11052419173D

 32 37  0  0  1  0  0  0  0  0999 V2000
  189.8840  175.5250  144.9930 C   0  0  2  0  0  3  0  0  0  0  0  0
  190.0750  173.3210  143.6220 C   0  0  2  0  0  3  0  0  0  0  0  0
  190.9560  176.6110  144.8440 C   0  0  0  0  0  2  0  0  0  0  0  0
  190.4680  174.0930  144.8510 C   0  0  1  0  0  3  0  0  0  0  0  0
  190.6890  171.9370  143.5140 C   0  0  1  0  0  3  0  0  0  0  0  0
  189.4000  173.5740  138.7940 C   0  0  0  0  0  2  0  0  0  0  0  0
  189.3610  173.8830  142.6290 C   0  0  0  0  0  0  0  0  0  0  0  0
  189.9140  171.3080  139.7770 C   0  0  0  0  0  2  0  0  0  0  0  0
  190.2180  172.1190  141.0430 C   0  0  2  0  0  3  0  0  0  0  0  0
  192.0060  174.0850  144.9030 C   0  0  2  0  0  3  0  0  0  0  0  0
  190.3250  171.1800  142.2310 C   0  0  0  0  0  2  0  0  0  0  0  0
  192.5020  172.7160  145.0130 N   0  0  0  0  0  2  0  0  0  0  0  0
  192.5090  174.9500  146.0500 C   0  0  0  0  0  2  0  0  0  0  0  0
  188.6810  175.1170  142.8640 N   0  0  0  0  0  0  0  0  0  0  0  0
  188.7500  175.7850  144.0980 N   0  0  0  0  0  0  0  0  0  0  0  0
  189.1300  173.1650  141.3210 C   0  0  2  0  0  3  0  0  0  0  0  0
  192.2100  172.0160  143.7550 C   0  0  1  0  0  3  0  0  0  0  0  0
  192.0760  176.4160  145.8760 C   0  0  0  0  0  2  0  0  0  0  0  0
  189.0950  172.0820  138.7360 C   0  0  0  0  0  2  0  0  0  0  0  0
  189.0170  174.1660  140.1560 C   0  0  0  0  0  2  0  0  0  0  0  0
  185.7720  177.1010  145.8790 C   0  0  0  0  0  0  0  0  0  0  0  0
  184.6230  179.9620  144.2620 O   0  0  0  0  0  1  0  0  0  0  0  0
  185.1820  177.0570  147.1380 O   0  0  0  0  0  1  0  0  0  0  0  0
  186.6380  178.9350  143.6310 C   0  0  0  0  0  3  0  0  0  0  0  0
  187.7720  176.8040  144.4040 C   0  0  0  0  0  0  0  0  0  0  0  0
  184.9300  177.5410  144.7300 C   0  0  0  0  0  2  0  0  0  0  0  0
  187.6060  177.8250  143.5360 C   0  0  0  0  0  3  0  0  0  0  0  0
  187.0630  176.7600  145.7210 C   0  0  0  0  0  0  0  0  0  0  0  0
  187.8450  176.3440  146.9270 C   0  0  0  0  0  1  0  0  0  0  0  0
  185.4350  178.8390  144.1950 C   0  0  0  0  0  0  0  0  0  0  0  0
  192.8600  170.6330  143.7750 C   0  0  0  0  0  2  0  0  0  0  0  0
  193.8630  170.5470  144.8260 N   0  0  0  0  0  1  0  0  0  0  0  0
  1  3  1  6  0  0  0
  2  7  1  6  0  0  0
  2  4  1  0  0  0  0
  3 18  1  0  0  0  0
  4 10  1  0  0  0  0
  4  1  1  0  0  0  0
  5  2  1  0  0  0  0
  5 17  1  0  0  0  0
  6 20  1  0  0  0  0
  7 14  2  0  0  0  0
  8  9  1  0  0  0  0
  9 16  1  0  0  0  0
  9 11  1  0  0  0  0
 10 12  1  0  0  0  0
 10 13  1  0  0  0  0
 11  5  1  0  0  0  0
 14 15  1  0  0  0  0
 15 25  1  0  0  0  0
 15  1  1  0  0  0  0
 16  7  1  0  0  0  0
 17 31  1  0  0  0  0
 17 12  1  0  0  0  0
 18 13  1  0  0  0  0
 19  6  1  0  0  0  0
 19  8  1  0  0  0  0
 20 16  1  0  0  0  0
 21 23  1  0  0  0  0
 24 30  2  0  0  0  0
 25 28  1  0  0  0  0
 26 21  1  0  0  0  0
 27 24  1  0  0  0  0
 27 25  2  0  0  0  0
 28 21  2  0  0  0  0
 28 29  1  0  0  0  0
 30 22  1  0  0  0  0
 30 26  1  0  0  0  0
 31 32  1  0  0  0  0
M  END
>  <MODEL>
6

>  <REMARK>
 VINA RESULT:      -8.1      3.504      7.608
  Name = 
  2 active torsions:
  status: ('A' for Active; 'I' for Inactive)
    1  A    between atoms: C_13  and  C_29
    2  A    between atoms: C_16  and  N_27
                            x       y       z     vdW  Elec       q    Type
                         _______ _______ _______ _____ _____    ______ ____

>  <TORSDO>
F 2

$$$$
=
 OpenBabel11052419173D

 32 37  0  0  1  0  0  0  0  0999 V2000
  189.4590  175.6980  145.3450 C   0  0  2  0  0  3  0  0  0  0  0  0
  190.2070  173.5370  144.1000 C   0  0  2  0  0  3  0  0  0  0  0  0
  190.2870  176.9810  145.2100 C   0  0  0  0  0  2  0  0  0  0  0  0
  190.3400  174.4190  145.3110 C   0  0  1  0  0  3  0  0  0  0  0  0
  191.1040  172.3130  144.1000 C   0  0  1  0  0  3  0  0  0  0  0  0
  189.8420  173.4700  139.2330 C   0  0  0  0  0  2  0  0  0  0  0  0
  189.4640  173.8990  143.0380 C   0  0  0  0  0  0  0  0  0  0  0  0
  190.7490  171.4020  140.3580 C   0  0  0  0  0  2  0  0  0  0  0  0
  190.7840  172.3030  141.5990 C   0  0  2  0  0  3  0  0  0  0  0  0
  191.8380  174.7400  145.4600 C   0  0  2  0  0  3  0  0  0  0  0  0
  191.0000  171.4510  142.8360 C   0  0  0  0  0  2  0  0  0  0  0  0
  192.6000  173.5130  145.6690 N   0  0  0  0  0  2  0  0  0  0  0  0
  192.0640  175.7320  146.5920 C   0  0  0  0  0  2  0  0  0  0  0  0
  188.5250  174.9680  143.1680 N   0  0  0  0  0  0  0  0  0  0  0  0
  188.3640  175.6780  144.3690 N   0  0  0  0  0  0  0  0  0  0  0  0
  189.4840  173.1030  141.7560 C   0  0  2  0  0  3  0  0  0  0  0  0
  192.5530  172.7220  144.4320 C   0  0  1  0  0  3  0  0  0  0  0  0
  191.3460  177.0650  146.3190 C   0  0  0  0  0  2  0  0  0  0  0  0
  189.8630  171.9460  139.2300 C   0  0  0  0  0  2  0  0  0  0  0  0
  189.2470  174.0140  140.5370 C   0  0  0  0  0  2  0  0  0  0  0  0
  186.0460  178.4460  143.5100 C   0  0  0  0  0  0  0  0  0  0  0  0
  183.8880  179.0250  146.1800 O   0  0  0  0  0  1  0  0  0  0  0  0
  185.5170  179.0800  142.3890 O   0  0  0  0  0  1  0  0  0  0  0  0
  185.3620  177.1960  146.1810 C   0  0  0  0  0  3  0  0  0  0  0  0
  187.1740  176.4760  144.5620 C   0  0  0  0  0  0  0  0  0  0  0  0
  185.9620  179.1570  144.8180 C   0  0  0  0  0  2  0  0  0  0  0  0
  186.5520  176.4320  145.7600 C   0  0  0  0  0  3  0  0  0  0  0  0
  186.6060  177.2280  143.4010 C   0  0  0  0  0  0  0  0  0  0  0  0
  186.6370  176.5740  142.0550 C   0  0  0  0  0  1  0  0  0  0  0  0
  185.0570  178.4170  145.7440 C   0  0  0  0  0  0  0  0  0  0  0  0
  193.4770  171.5110  144.5610 C   0  0  0  0  0  2  0  0  0  0  0  0
  194.3600  171.6530  145.7080 N   0  0  0  0  0  1  0  0  0  0  0  0
  1  3  1  6  0  0  0
  2  7  1  6  0  0  0
  2  4  1  0  0  0  0
  3 18  1  0  0  0  0
  4  1  1  0  0  0  0
  4 10  1  0  0  0  0
  5  2  1  0  0  0  0
  5 17  1  0  0  0  0
  6 20  1  0  0  0  0
  7 14  2  0  0  0  0
  8  9  1  0  0  0  0
  9 16  1  0  0  0  0
  9 11  1  0  0  0  0
 10 12  1  0  0  0  0
 10 13  1  0  0  0  0
 11  5  1  0  0  0  0
 14 15  1  0  0  0  0
 15 25  1  0  0  0  0
 15  1  1  0  0  0  0
 16  7  1  0  0  0  0
 17 31  1  0  0  0  0
 17 12  1  0  0  0  0
 18 13  1  0  0  0  0
 19  6  1  0  0  0  0
 19  8  1  0  0  0  0
 20 16  1  0  0  0  0
 21 26  1  0  0  0  0
 23 21  1  0  0  0  0
 25 27  2  0  0  0  0
 26 30  1  0  0  0  0
 27 24  1  0  0  0  0
 28 21  2  0  0  0  0
 28 25  1  0  0  0  0
 29 28  1  0  0  0  0
 30 22  1  0  0  0  0
 30 24  2  0  0  0  0
 31 32  1  0  0  0  0
M  END
>  <MODEL>
7

>  <REMARK>
 VINA RESULT:      -8.1      3.519      7.503
  Name = 
  2 active torsions:
  status: ('A' for Active; 'I' for Inactive)
    1  A    between atoms: C_13  and  C_29
    2  A    between atoms: C_16  and  N_27
                            x       y       z     vdW  Elec       q    Type
                         _______ _______ _______ _____ _____    ______ ____

>  <TORSDO>
F 2

$$$$
=
 OpenBabel11052419173D

 32 37  0  0  1  0  0  0  0  0999 V2000
  190.4860  175.4290  145.2250 C   0  0  2  0  0  3  0  0  0  0  0  0
  189.1650  175.9010  143.0310 C   0  0  2  0  0  3  0  0  0  0  0  0
  189.9610  174.3900  146.2230 C   0  0  0  0  0  2  0  0  0  0  0  0
  189.3390  176.1840  144.4980 C   0  0  1  0  0  3  0  0  0  0  0  0
  188.0180  176.6430  142.3700 C   0  0  1  0  0  3  0  0  0  0  0  0
  189.0870  172.4080  139.6230 C   0  0  0  0  0  2  0  0  0  0  0  0
  189.8770  174.9460  142.4050 C   0  0  0  0  0  0  0  0  0  0  0  0
  187.8370  174.5420  139.1270 C   0  0  0  0  0  2  0  0  0  0  0  0
  188.1120  174.8430  140.6060 C   0  0  2  0  0  3  0  0  0  0  0  0
  187.9710  175.9390  145.1590 C   0  0  2  0  0  3  0  0  0  0  0  0
  187.8160  176.3050  140.8870 C   0  0  0  0  0  2  0  0  0  0  0  0
  186.9720  176.8490  144.6060 N   0  0  0  0  0  2  0  0  0  0  0  0
  188.0730  176.0810  146.6710 C   0  0  0  0  0  2  0  0  0  0  0  0
  191.0410  174.4080  143.0350 N   0  0  0  0  0  0  0  0  0  0  0  0
  191.4600  174.8260  144.3080 N   0  0  0  0  0  0  0  0  0  0  0  0
  189.5680  174.5390  140.9840 C   0  0  2  0  0  3  0  0  0  0  0  0
  186.7330  176.4780  143.2050 C   0  0  1  0  0  3  0  0  0  0  0  0
  189.0460  175.0490  147.2650 C   0  0  0  0  0  2  0  0  0  0  0  0
  188.7230  173.4300  138.5520 C   0  0  0  0  0  2  0  0  0  0  0  0
  189.9000  173.0530  140.7520 C   0  0  0  0  0  2  0  0  0  0  0  0
  195.1300  175.3820  144.3110 C   0  0  0  0  0  0  0  0  0  0  0  0
  196.7190  172.6390  145.7480 O   0  0  0  0  0  1  0  0  0  0  0  0
  196.0460  176.4290  144.2630 O   0  0  0  0  0  1  0  0  0  0  0  0
  194.3790  172.8350  145.7630 C   0  0  0  0  0  3  0  0  0  0  0  0
  192.8120  174.5400  144.7350 C   0  0  0  0  0  0  0  0  0  0  0  0
  195.6210  174.0120  143.9910 C   0  0  0  0  0  2  0  0  0  0  0  0
  193.0730  173.3440  145.3040 C   0  0  0  0  0  3  0  0  0  0  0  0
  193.8470  175.6160  144.6410 C   0  0  0  0  0  0  0  0  0  0  0  0
  193.4360  177.0180  144.9630 C   0  0  0  0  0  1  0  0  0  0  0  0
  195.5480  173.1480  145.2060 C   0  0  0  0  0  0  0  0  0  0  0  0
  185.5750  177.3030  142.6460 C   0  0  0  0  0  2  0  0  0  0  0  0
  185.7850  178.7210  142.8870 N   0  0  0  0  0  1  0  0  0  0  0  0
  1  3  1  6  0  0  0
  2  7  1  1  0  0  0
  2  4  1  0  0  0  0
  3 18  1  0  0  0  0
  4 10  1  0  0  0  0
  4  1  1  0  0  0  0
  5  2  1  0  0  0  0
  5 17  1  0  0  0  0
  6 20  1  0  0  0  0
  7 14  2  0  0  0  0
  8  9  1  0  0  0  0
  9 11  1  0  0  0  0
  9 16  1  0  0  0  0
 10 13  1  0  0  0  0
 11  5  1  0  0  0  0
 12 10  1  0  0  0  0
 13 18  1  0  0  0  0
 14 15  1  0  0  0  0
 15 25  1  0  0  0  0
 15  1  1  0  0  0  0
 16  7  1  0  0  0  0
 17 12  1  0  0  0  0
 19  8  1  0  0  0  0
 19  6  1  0  0  0  0
 20 16  1  0  0  0  0
 21 28  2  0  0  0  0
 23 21  1  0  0  0  0
 25 27  2  0  0  0  0
 26 21  1  0  0  0  0
 26 30  1  0  0  0  0
 27 24  1  0  0  0  0
 28 25  1  0  0  0  0
 28 29  1  0  0  0  0
 30 22  1  0  0  0  0
 30 24  2  0  0  0  0
 31 32  1  0  0  0  0
 31 17  1  0  0  0  0
M  END
>  <MODEL>
8

>  <REMARK>
 VINA RESULT:      -8.0      2.973      6.432
  Name = 
  2 active torsions:
  status: ('A' for Active; 'I' for Inactive)
    1  A    between atoms: C_13  and  C_29
    2  A    between atoms: C_16  and  N_27
                            x       y       z     vdW  Elec       q    Type
                         _______ _______ _______ _____ _____    ______ ____

>  <TORSDO>
F 2

$$$$
=
 OpenBabel11052419173D

 32 37  0  0  1  0  0  0  0  0999 V2000
  192.1550  175.2670  145.5350 C   0  0  2  0  0  3  0  0  0  0  0  0
  193.1990  172.8880  145.3780 C   0  0  2  0  0  3  0  0  0  0  0  0
  192.5160  176.3290  144.4900 C   0  0  0  0  0  2  0  0  0  0  0  0
  193.3410  174.3110  145.8420 C   0  0  1  0  0  3  0  0  0  0  0  0
  194.3920  171.9970  145.6790 C   0  0  1  0  0  3  0  0  0  0  0  0
  191.7700  170.0100  141.7040 C   0  0  0  0  0  2  0  0  0  0  0  0
  192.1610  172.4880  144.6210 C   0  0  0  0  0  0  0  0  0  0  0  0
  193.4750  169.0780  143.3130 C   0  0  0  0  0  2  0  0  0  0  0  0
  193.5270  170.5230  143.8250 C   0  0  2  0  0  3  0  0  0  0  0  0
  194.6710  174.8310  145.2690 C   0  0  2  0  0  3  0  0  0  0  0  0
  194.2600  170.5620  145.1530 C   0  0  0  0  0  2  0  0  0  0  0  0
  195.7860  174.0430  145.7820 N   0  0  0  0  0  2  0  0  0  0  0  0
  194.8470  176.3100  145.5810 C   0  0  0  0  0  2  0  0  0  0  0  0
  191.0050  173.3220  144.5170 N   0  0  0  0  0  0  0  0  0  0  0  0
  190.9210  174.5650  145.1630 N   0  0  0  0  0  0  0  0  0  0  0  0
  192.1200  171.1110  144.0040 C   0  0  2  0  0  3  0  0  0  0  0  0
  195.6930  172.6880  145.2220 C   0  0  1  0  0  3  0  0  0  0  0  0
  193.7280  177.1540  144.9480 C   0  0  0  0  0  2  0  0  0  0  0  0
  192.2350  168.7720  142.4630 C   0  0  0  0  0  2  0  0  0  0  0  0
  191.3550  171.1270  142.6680 C   0  0  0  0  0  2  0  0  0  0  0  0
  188.0920  176.7030  144.0660 C   0  0  0  0  0  0  0  0  0  0  0  0
  186.0700  177.4470  146.8010 O   0  0  0  0  0  1  0  0  0  0  0  0
  187.3790  177.0100  142.9120 O   0  0  0  0  0  1  0  0  0  0  0  0
  187.8410  175.9130  146.9770 C   0  0  0  0  0  3  0  0  0  0  0  0
  189.6260  175.1860  145.3330 C   0  0  0  0  0  0  0  0  0  0  0  0
  187.9820  177.6370  145.2230 C   0  0  0  0  0  2  0  0  0  0  0  0
  189.1120  175.2810  146.5780 C   0  0  0  0  0  3  0  0  0  0  0  0
  188.8500  175.5930  144.1220 C   0  0  0  0  0  0  0  0  0  0  0  0
  188.8960  174.7000  142.9220 C   0  0  0  0  0  1  0  0  0  0  0  0
  187.2930  176.9590  146.3600 C   0  0  0  0  0  0  0  0  0  0  0  0
  196.9340  171.8860  145.6080 C   0  0  0  0  0  2  0  0  0  0  0  0
  197.9410  171.9520  144.5600 N   0  0  0  0  0  1  0  0  0  0  0  0
  1  3  1  6  0  0  0
  1  4  1  0  0  0  0
  2  7  1  6  0  0  0
  2  5  1  0  0  0  0
  2  4  1  0  0  0  0
  3 18  1  0  0  0  0
  6 19  1  0  0  0  0
  6 20  1  0  0  0  0
  8  9  1  0  0  0  0
  9 16  1  0  0  0  0
  9 11  1  0  0  0  0
 10 13  1  0  0  0  0
 10 12  1  0  0  0  0
 10  4  1  0  0  0  0
 11  5  1  0  0  0  0
 14  7  2  0  0  0  0
 14 15  1  0  0  0  0
 15 25  1  0  0  0  0
 15  1  1  0  0  0  0
 16  7  1  0  0  0  0
 17 31  1  0  0  0  0
 17  5  1  0  0  0  0
 17 12  1  0  0  0  0
 18 13  1  0  0  0  0
 19  8  1  0  0  0  0
 20 16  1  0  0  0  0
 21 28  2  0  0  0  0
 21 26  1  0  0  0  0
 23 21  1  0  0  0  0
 25 27  2  0  0  0  0
 26 30  1  0  0  0  0
 27 24  1  0  0  0  0
 28 25  1  0  0  0  0
 29 28  1  0  0  0  0
 30 22  1  0  0  0  0
 30 24  2  0  0  0  0
 32 31  1  0  0  0  0
M  END
>  <MODEL>
9

>  <REMARK>
 VINA RESULT:      -7.9      4.488      8.302
  Name = 
  2 active torsions:
  status: ('A' for Active; 'I' for Inactive)
    1  A    between atoms: C_13  and  C_29
    2  A    between atoms: C_16  and  N_27
                            x       y       z     vdW  Elec       q    Type
                         _______ _______ _______ _____ _____    ______ ____

>  <TORSDO>
F 2

$$$$
