=
 OpenBabel11052419053D

 32 35  0  0  1  0  0  0  0  0999 V2000
  190.4840  175.4170  145.7320 C   0  0  1  0  0  3  0  0  0  0  0  0
  189.2280  176.6040  143.8550 C   0  0  2  0  0  3  0  0  0  0  0  0
  189.7590  174.2260  146.3700 C   0  0  0  0  0  2  0  0  0  0  0  0
  189.5390  176.5770  145.3610 C   0  0  1  0  0  3  0  0  0  0  0  0
  188.2890  177.7740  143.5170 C   0  0  1  0  0  3  0  0  0  0  0  0
  188.2030  175.3320  141.9350 C   0  0  0  0  0  0  0  0  0  0  0  0
  187.8060  176.4830  141.3400 C   0  0  0  0  0  0  0  0  0  0  0  0
  188.2620  176.6550  146.1800 C   0  0  0  0  0  0  0  0  0  0  0  0
  188.0280  177.8230  142.0040 C   0  0  0  0  0  2  0  0  0  0  0  0
  187.2770  177.7280  145.8390 C   0  0  0  0  0  2  0  0  0  0  0  0
  187.9610  175.7680  147.1380 C   0  0  0  0  0  3  0  0  0  0  0  0
  188.5980  175.2930  143.3810 C   0  0  0  0  0  2  0  0  0  0  0  0
  186.9800  177.7180  144.3360 C   0  0  1  0  0  3  0  0  0  0  0  0
  188.9130  174.6860  147.5510 C   0  0  0  0  0  2  0  0  0  0  0  0
  188.3260  173.7680  141.0550 S   0  0  0  0  0  1  0  0  0  0  0  0
  186.0360  178.8680  143.9910 C   0  0  0  0  0  2  0  0  0  0  0  0
  184.7370  178.4040  143.7800 O   0  0  0  0  0  1  0  0  0  0  0  0
  191.4660  176.5980  147.5340 O   0  0  0  0  0  0  0  0  0  0  0  0
  191.6470  175.8850  146.5570 C   0  0  0  0  0  0  0  0  0  0  0  0
  195.8050  174.5990  145.6510 S   0  0  0  0  0  0  0  0  0  0  0  0
  195.2020  176.2060  145.0020 C   0  0  0  0  0  2  0  0  0  0  0  0
  194.3990  173.6030  145.0370 C   0  0  1  0  0  3  0  0  0  0  0  0
  193.0360  175.4690  146.1720 C   0  0  1  0  0  3  0  0  0  0  0  0
  193.0580  174.0240  145.6570 C   0  0  0  0  0  2  0  0  0  0  0  0
  193.7080  176.4760  145.2230 C   0  0  2  0  0  3  0  0  0  0  0  0
  192.9990  176.6020  143.8800 C   0  0  0  0  0  1  0  0  0  0  0  0
  194.3430  173.6110  143.5100 C   0  0  0  0  0  2  0  0  0  0  0  0
  192.1820  173.7390  142.5120 F   0  0  0  0  0  0  0  0  0  0  0  0
  193.1240  172.8550  143.0070 C   0  0  0  0  0  2  0  0  0  0  0  0
  187.2490  176.5370  140.0520 O   0  0  0  0  0  0  0  0  0  0  0  0
  186.5230  177.6430  139.5270 C   0  0  0  0  0  2  0  0  0  0  0  0
  185.2060  177.8030  140.2630 C   0  0  0  0  0  1  0  0  0  0  0  0
  1  3  1  0  0  0  0
  1 19  1  1  0  0  0
  2 12  1  1  0  0  0
  2  4  1  0  0  0  0
  3 14  1  0  0  0  0
  4  1  1  0  0  0  0
  4  8  1  1  0  0  0
  5  9  1  6  0  0  0
  5  2  1  0  0  0  0
  5 13  1  0  0  0  0
  6 12  1  0  0  0  0
  7  6  2  0  0  0  0
  7  9  1  0  0  0  0
  8 11  2  0  0  0  0
 10  8  1  0  0  0  0
 11 14  1  0  0  0  0
 13 16  1  1  0  0  0
 13 10  1  0  0  0  0
 15  6  1  0  0  0  0
 17 16  1  0  0  0  0
 19 18  2  0  0  0  0
 21 25  1  0  0  0  0
 21 20  1  0  0  0  0
 22 27  1  6  0  0  0
 22 20  1  0  0  0  0
 22 24  1  0  0  0  0
 23 19  1  6  0  0  0
 24 23  1  0  0  0  0
 25 26  1  6  0  0  0
 25 23  1  0  0  0  0
 28 29  1  0  0  0  0
 29 27  1  0  0  0  0
 30  7  1  0  0  0  0
 31 30  1  0  0  0  0
 31 32  1  0  0  0  0
M  END
>  <MODEL>
1

>  <REMARK>
 VINA RESULT:      -7.4      0.000      0.000
  Name = 
  7 active torsions:
  status: ('A' for Active; 'I' for Inactive)
    1  A    between atoms: C_1  and  C_27
    2  A    between atoms: C_7  and  C_15
    3  A    between atoms: C_7  and  C_26
    4  A    between atoms: C_9  and  O_11
    5  A    between atoms: O_11  and  C_12
    6  A    between atoms: C_13  and  C_29
    7  A    between atoms: C_16  and  C_27
                            x       y       z     vdW  Elec       q    Type
                         _______ _______ _______ _____ _____    ______ ____

>  <TORSDO>
F 7

$$$$
=
 OpenBabel11052419053D

 32 35  0  0  1  0  0  0  0  0999 V2000
  190.9690  175.9730  143.7810 C   0  0  1  0  0  3  0  0  0  0  0  0
  188.8290  177.3240  144.1120 C   0  0  2  0  0  3  0  0  0  0  0  0
  190.7760  174.5110  143.3630 C   0  0  0  0  0  2  0  0  0  0  0  0
  189.9090  176.4630  144.7880 C   0  0  1  0  0  3  0  0  0  0  0  0
  187.7930  177.8000  145.1430 C   0  0  1  0  0  3  0  0  0  0  0  0
  186.9980  177.3530  142.3790 C   0  0  0  0  0  0  0  0  0  0  0  0
  186.2780  178.2410  143.1060 C   0  0  0  0  0  0  0  0  0  0  0  0
  189.2810  175.3750  145.6430 C   0  0  0  0  0  0  0  0  0  0  0  0
  186.7490  178.7020  144.4670 C   0  0  0  0  0  2  0  0  0  0  0  0
  188.2110  175.7750  146.6080 C   0  0  0  0  0  2  0  0  0  0  0  0
  189.6000  174.0810  145.5160 C   0  0  0  0  0  3  0  0  0  0  0  0
  188.1180  176.5640  142.9900 C   0  0  0  0  0  2  0  0  0  0  0  0
  187.1450  176.6190  145.8990 C   0  0  1  0  0  3  0  0  0  0  0  0
  190.6840  173.6120  144.5900 C   0  0  0  0  0  2  0  0  0  0  0  0
  186.7110  177.0630  140.6270 S   0  0  0  0  0  1  0  0  0  0  0  0
  186.1020  177.0860  146.9120 C   0  0  0  0  0  2  0  0  0  0  0  0
  184.8110  176.7750  146.4820 O   0  0  0  0  0  1  0  0  0  0  0  0
  192.6490  177.3400  144.7370 O   0  0  0  0  0  0  0  0  0  0  0  0
  192.3650  176.2510  144.2570 C   0  0  0  0  0  0  0  0  0  0  0  0
  195.3120  172.9620  143.7530 S   0  0  0  0  0  0  0  0  0  0  0  0
  194.8410  173.4940  145.4460 C   0  0  0  0  0  2  0  0  0  0  0  0
  195.7130  174.6340  143.1300 C   0  0  1  0  0  3  0  0  0  0  0  0
  193.4080  175.1800  144.1400 C   0  0  1  0  0  3  0  0  0  0  0  0
  194.4990  175.5760  143.1360 C   0  0  0  0  0  2  0  0  0  0  0  0
  193.9550  174.7440  145.5100 C   0  0  2  0  0  3  0  0  0  0  0  0
  194.6840  175.8580  146.2500 C   0  0  0  0  0  1  0  0  0  0  0  0
  196.8980  175.2340  143.8840 C   0  0  0  0  0  2  0  0  0  0  0  0
  197.7280  175.9270  141.7600 F   0  0  0  0  0  0  0  0  0  0  0  0
  197.5590  176.3350  143.0700 C   0  0  0  0  0  2  0  0  0  0  0  0
  185.1080  178.8590  142.6360 O   0  0  0  0  0  0  0  0  0  0  0  0
  183.8020  178.3010  142.7270 C   0  0  0  0  0  2  0  0  0  0  0  0
  183.1620  178.2360  141.3530 C   0  0  0  0  0  1  0  0  0  0  0  0
  1 19  1  1  0  0  0
  1  4  1  0  0  0  0
  2 12  1  6  0  0  0
  2  4  1  0  0  0  0
  2  5  1  0  0  0  0
  3  1  1  0  0  0  0
  3 14  1  0  0  0  0
  4  8  1  6  0  0  0
  5  9  1  6  0  0  0
  5 13  1  0  0  0  0
  6 12  1  0  0  0  0
  6  7  2  0  0  0  0
  7  9  1  0  0  0  0
  8 10  1  0  0  0  0
 11  8  2  0  0  0  0
 13 10  1  0  0  0  0
 13 16  1  1  0  0  0
 14 11  1  0  0  0  0
 15  6  1  0  0  0  0
 17 16  1  0  0  0  0
 19 18  2  0  0  0  0
 20 21  1  0  0  0  0
 21 25  1  0  0  0  0
 22 24  1  0  0  0  0
 22 20  1  0  0  0  0
 22 27  1  1  0  0  0
 23 19  1  1  0  0  0
 23 25  1  0  0  0  0
 24 23  1  0  0  0  0
 25 26  1  6  0  0  0
 28 29  1  0  0  0  0
 29 27  1  0  0  0  0
 30 31  1  0  0  0  0
 30  7  1  0  0  0  0
 32 31  1  0  0  0  0
M  END
>  <MODEL>
2

>  <REMARK>
 VINA RESULT:      -7.0      2.130      3.026
  Name = 
  7 active torsions:
  status: ('A' for Active; 'I' for Inactive)
    1  A    between atoms: C_1  and  C_27
    2  A    between atoms: C_7  and  C_15
    3  A    between atoms: C_7  and  C_26
    4  A    between atoms: C_9  and  O_11
    5  A    between atoms: O_11  and  C_12
    6  A    between atoms: C_13  and  C_29
    7  A    between atoms: C_16  and  C_27
                            x       y       z     vdW  Elec       q    Type
                         _______ _______ _______ _____ _____    ______ ____

>  <TORSDO>
F 7

$$$$
=
 OpenBabel11052419053D

 32 35  0  0  1  0  0  0  0  0999 V2000
  191.3490  173.9230  142.7190 C   0  0  1  0  0  3  0  0  0  0  0  0
  189.9520  175.9300  143.4500 C   0  0  2  0  0  3  0  0  0  0  0  0
  190.5640  172.6490  142.3910 C   0  0  0  0  0  2  0  0  0  0  0  0
  190.7650  174.7080  143.9100 C   0  0  1  0  0  3  0  0  0  0  0  0
  189.3890  176.6930  144.6600 C   0  0  1  0  0  3  0  0  0  0  0  0
  187.9420  176.6950  142.1340 C   0  0  0  0  0  0  0  0  0  0  0  0
  187.7520  177.7440  142.9700 C   0  0  0  0  0  0  0  0  0  0  0  0
  189.9770  173.8750  144.9060 C   0  0  0  0  0  0  0  0  0  0  0  0
  188.6240  177.9390  144.1910 C   0  0  0  0  0  2  0  0  0  0  0  0
  189.3410  174.5820  146.0610 C   0  0  0  0  0  2  0  0  0  0  0  0
  189.7770  172.5600  144.7520 C   0  0  0  0  0  3  0  0  0  0  0  0
  188.8040  175.5300  142.5210 C   0  0  0  0  0  2  0  0  0  0  0  0
  188.5290  175.7840  145.5660 C   0  0  1  0  0  3  0  0  0  0  0  0
  190.4080  171.7830  143.6350 C   0  0  0  0  0  2  0  0  0  0  0  0
  187.2200  176.6130  140.4890 S   0  0  0  0  0  1  0  0  0  0  0  0
  187.9520  176.5420  146.7610 C   0  0  0  0  0  2  0  0  0  0  0  0
  186.5640  176.6490  146.6630 O   0  0  0  0  0  1  0  0  0  0  0  0
  193.3970  172.8810  142.1450 O   0  0  0  0  0  0  0  0  0  0  0  0
  192.8180  173.6620  142.8870 C   0  0  0  0  0  0  0  0  0  0  0  0
  194.8470  175.7510  146.2450 S   0  0  0  0  0  0  0  0  0  0  0  0
  194.9460  176.4630  144.5560 C   0  0  0  0  0  2  0  0  0  0  0  0
  195.3830  174.0670  145.7770 C   0  0  1  0  0  3  0  0  0  0  0  0
  193.5700  174.3710  143.9740 C   0  0  1  0  0  3  0  0  0  0  0  0
  194.4150  173.3890  144.7940 C   0  0  0  0  0  2  0  0  0  0  0  0
  194.3620  175.5800  143.4450 C   0  0  2  0  0  3  0  0  0  0  0  0
  195.4580  175.1960  142.4590 C   0  0  0  0  0  1  0  0  0  0  0  0
  196.8160  174.0700  145.2480 C   0  0  0  0  0  2  0  0  0  0  0  0
  197.1960  171.8810  146.1110 F   0  0  0  0  0  0  0  0  0  0  0  0
  197.2960  172.6550  144.9690 C   0  0  0  0  0  2  0  0  0  0  0  0
  186.8120  178.7610  142.7360 O   0  0  0  0  0  0  0  0  0  0  0  0
  185.4910  178.7820  143.2640 C   0  0  0  0  0  2  0  0  0  0  0  0
  185.3640  179.8670  144.3170 C   0  0  0  0  0  1  0  0  0  0  0  0
  1 19  1  1  0  0  0
  1  4  1  0  0  0  0
  2 12  1  6  0  0  0
  2  4  1  0  0  0  0
  2  5  1  0  0  0  0
  3  1  1  0  0  0  0
  3 14  1  0  0  0  0
  4  8  1  6  0  0  0
  5  9  1  6  0  0  0
  5 13  1  0  0  0  0
  6 12  1  0  0  0  0
  6  7  2  0  0  0  0
  7  9  1  0  0  0  0
  8 10  1  0  0  0  0
 11  8  2  0  0  0  0
 13 10  1  0  0  0  0
 13 16  1  1  0  0  0
 14 11  1  0  0  0  0
 15  6  1  0  0  0  0
 17 16  1  0  0  0  0
 18 19  2  0  0  0  0
 21 20  1  0  0  0  0
 22 27  1  6  0  0  0
 22 20  1  0  0  0  0
 23 19  1  6  0  0  0
 23 24  1  0  0  0  0
 24 22  1  0  0  0  0
 25 26  1  6  0  0  0
 25 23  1  0  0  0  0
 25 21  1  0  0  0  0
 29 27  1  0  0  0  0
 29 28  1  0  0  0  0
 30  7  1  0  0  0  0
 30 31  1  0  0  0  0
 31 32  1  0  0  0  0
M  END
>  <MODEL>
3

>  <REMARK>
 VINA RESULT:      -6.8      2.430      3.500
  Name = 
  7 active torsions:
  status: ('A' for Active; 'I' for Inactive)
    1  A    between atoms: C_1  and  C_27
    2  A    between atoms: C_7  and  C_15
    3  A    between atoms: C_7  and  C_26
    4  A    between atoms: C_9  and  O_11
    5  A    between atoms: O_11  and  C_12
    6  A    between atoms: C_13  and  C_29
    7  A    between atoms: C_16  and  C_27
                            x       y       z     vdW  Elec       q    Type
                         _______ _______ _______ _____ _____    ______ ____

>  <TORSDO>
F 7

$$$$
=
 OpenBabel11052419053D

 32 35  0  0  1  0  0  0  0  0999 V2000
  190.6460  175.5720  144.9820 C   0  0  1  0  0  3  0  0  0  0  0  0
  188.2210  176.1580  144.4410 C   0  0  2  0  0  3  0  0  0  0  0  0
  191.5220  176.7340  145.4600 C   0  0  0  0  0  2  0  0  0  0  0  0
  189.6430  175.9770  143.8830 C   0  0  1  0  0  3  0  0  0  0  0  0
  187.2470  176.5560  143.3210 C   0  0  1  0  0  3  0  0  0  0  0  0
  186.7860  177.4680  146.0470 C   0  0  0  0  0  0  0  0  0  0  0  0
  185.7110  177.3570  145.2290 C   0  0  0  0  0  0  0  0  0  0  0  0
  190.0550  177.1760  143.0460 C   0  0  0  0  0  0  0  0  0  0  0  0
  185.8220  176.6820  143.8800 C   0  0  0  0  0  2  0  0  0  0  0  0
  189.1050  177.6530  141.9940 C   0  0  0  0  0  2  0  0  0  0  0  0
  191.1910  177.8530  143.2600 C   0  0  0  0  0  3  0  0  0  0  0  0
  188.1770  177.2100  145.5520 C   0  0  0  0  0  2  0  0  0  0  0  0
  187.7030  177.8360  142.5860 C   0  0  1  0  0  3  0  0  0  0  0  0
  192.2010  177.4140  144.2780 C   0  0  0  0  0  2  0  0  0  0  0  0
  186.6490  177.8960  147.7880 S   0  0  0  0  0  1  0  0  0  0  0  0
  186.7290  178.2460  141.4840 C   0  0  0  0  0  2  0  0  0  0  0  0
  186.7800  177.3540  140.4120 O   0  0  0  0  0  1  0  0  0  0  0  0
  192.4340  174.0420  145.2400 O   0  0  0  0  0  0  0  0  0  0  0  0
  191.4560  174.3720  144.5850 C   0  0  0  0  0  0  0  0  0  0  0  0
  190.3190  172.2160  140.8680 S   0  0  0  0  0  0  0  0  0  0  0  0
  189.1530  172.2360  142.2850 C   0  0  0  0  0  2  0  0  0  0  0  0
  191.7750  171.6590  141.8230 C   0  0  1  0  0  3  0  0  0  0  0  0
  191.0520  173.5800  143.3770 C   0  0  1  0  0  3  0  0  0  0  0  0
  192.1890  172.6600  142.9120 C   0  0  0  0  0  2  0  0  0  0  0  0
  189.7090  172.8550  143.5740 C   0  0  2  0  0  3  0  0  0  0  0  0
  189.7470  171.8070  144.6790 C   0  0  0  0  0  1  0  0  0  0  0  0
  191.5570  170.2590  142.3940 C   0  0  0  0  0  2  0  0  0  0  0  0
  192.4860  169.7420  144.5280 F   0  0  0  0  0  0  0  0  0  0  0  0
  192.7760  169.7950  143.1770 C   0  0  0  0  0  2  0  0  0  0  0  0
  184.4170  177.7690  145.5890 O   0  0  0  0  0  0  0  0  0  0  0  0
  183.8880  179.0700  145.3640 C   0  0  0  0  0  2  0  0  0  0  0  0
  184.7590  179.8280  144.3800 C   0  0  0  0  0  1  0  0  0  0  0  0
  1 19  1  6  0  0  0
  1  3  1  0  0  0  0
  2 12  1  1  0  0  0
  4  8  1  1  0  0  0
  4  2  1  0  0  0  0
  4  1  1  0  0  0  0
  5  9  1  1  0  0  0
  5  2  1  0  0  0  0
  6 15  1  0  0  0  0
  7 30  1  0  0  0  0
  7  6  2  0  0  0  0
  8 11  2  0  0  0  0
  9  7  1  0  0  0  0
 10 13  1  0  0  0  0
 10  8  1  0  0  0  0
 11 14  1  0  0  0  0
 12  6  1  0  0  0  0
 13 16  1  6  0  0  0
 13  5  1  0  0  0  0
 14  3  1  0  0  0  0
 17 16  1  0  0  0  0
 19 18  2  0  0  0  0
 20 22  1  0  0  0  0
 20 21  1  0  0  0  0
 21 25  1  0  0  0  0
 22 27  1  1  0  0  0
 22 24  1  0  0  0  0
 23 25  1  0  0  0  0
 23 19  1  1  0  0  0
 24 23  1  0  0  0  0
 25 26  1  1  0  0  0
 27 29  1  0  0  0  0
 29 28  1  0  0  0  0
 31 30  1  0  0  0  0
 32 31  1  0  0  0  0
M  END
>  <MODEL>
4

>  <REMARK>
 VINA RESULT:      -6.8      2.522      4.564
  Name = 
  7 active torsions:
  status: ('A' for Active; 'I' for Inactive)
    1  A    between atoms: C_1  and  C_27
    2  A    between atoms: C_7  and  C_15
    3  A    between atoms: C_7  and  C_26
    4  A    between atoms: C_9  and  O_11
    5  A    between atoms: O_11  and  C_12
    6  A    between atoms: C_13  and  C_29
    7  A    between atoms: C_16  and  C_27
                            x       y       z     vdW  Elec       q    Type
                         _______ _______ _______ _____ _____    ______ ____

>  <TORSDO>
F 7

$$$$
=
 OpenBabel11052419053D

 32 35  0  0  1  0  0  0  0  0999 V2000
  189.2180  176.6940  144.0040 C   0  0  1  0  0  3  0  0  0  0  0  0
  189.8850  174.2530  143.6710 C   0  0  2  0  0  3  0  0  0  0  0  0
  189.9440  177.7100  143.1150 C   0  0  0  0  0  2  0  0  0  0  0  0
  190.1260  175.5410  144.4770 C   0  0  1  0  0  3  0  0  0  0  0  0
  190.8000  173.1230  144.1710 C   0  0  1  0  0  3  0  0  0  0  0  0
  189.9740  173.2040  141.3810 C   0  0  0  0  0  0  0  0  0  0  0  0
  190.2940  171.9980  141.9090 C   0  0  0  0  0  0  0  0  0  0  0  0
  191.6070  175.8720  144.5420 C   0  0  0  0  0  0  0  0  0  0  0  0
  190.5140  171.8290  143.3960 C   0  0  0  0  0  2  0  0  0  0  0  0
  192.5490  174.7840  144.9470 C   0  0  0  0  0  2  0  0  0  0  0  0
  192.0970  177.0670  144.1890 C   0  0  0  0  0  3  0  0  0  0  0  0
  190.1140  174.4690  142.1740 C   0  0  0  0  0  2  0  0  0  0  0  0
  192.2920  173.5220  144.1160 C   0  0  1  0  0  3  0  0  0  0  0  0
  191.2090  178.2120  143.8010 C   0  0  0  0  0  2  0  0  0  0  0  0
  189.3280  173.4010  139.7140 S   0  0  0  0  0  1  0  0  0  0  0  0
  193.2060  172.3960  144.5950 C   0  0  0  0  0  2  0  0  0  0  0  0
  193.8810  172.7590  145.7620 O   0  0  0  0  0  1  0  0  0  0  0  0
  188.8670  177.1550  146.2990 O   0  0  0  0  0  0  0  0  0  0  0  0
  188.5000  177.3470  145.1490 C   0  0  0  0  0  0  0  0  0  0  0  0
  185.1840  180.1820  144.2950 S   0  0  0  0  0  0  0  0  0  0  0  0
  185.0500  179.0520  145.7360 C   0  0  0  0  0  2  0  0  0  0  0  0
  185.5990  178.8870  143.0730 C   0  0  1  0  0  3  0  0  0  0  0  0
  187.3290  178.2410  144.8680 C   0  0  1  0  0  3  0  0  0  0  0  0
  186.9240  178.1760  143.3890 C   0  0  0  0  0  2  0  0  0  0  0  0
  186.1620  178.0010  145.8410 C   0  0  2  0  0  3  0  0  0  0  0  0
  185.5650  176.6030  145.7330 C   0  0  0  0  0  1  0  0  0  0  0  0
  184.4500  177.8950  142.9080 C   0  0  0  0  0  2  0  0  0  0  0  0
  184.3080  178.5040  140.6080 F   0  0  0  0  0  0  0  0  0  0  0  0
  183.5520  178.2900  141.7460 C   0  0  0  0  0  2  0  0  0  0  0  0
  190.3630  170.8150  141.1550 O   0  0  0  0  0  0  0  0  0  0  0  0
  191.3990  169.8460  141.2560 C   0  0  0  0  0  2  0  0  0  0  0  0
  190.8160  168.4870  141.5950 C   0  0  0  0  0  1  0  0  0  0  0  0
  1  4  1  0  0  0  0
  1 19  1  1  0  0  0
  2 12  1  6  0  0  0
  2  5  1  0  0  0  0
  2  4  1  0  0  0  0
  3 14  1  0  0  0  0
  3  1  1  0  0  0  0
  4  8  1  6  0  0  0
  5  9  1  6  0  0  0
  6  7  2  0  0  0  0
  6 12  1  0  0  0  0
  7  9  1  0  0  0  0
  8 10  1  0  0  0  0
 11  8  2  0  0  0  0
 13  5  1  0  0  0  0
 13 16  1  1  0  0  0
 13 10  1  0  0  0  0
 14 11  1  0  0  0  0
 15  6  1  0  0  0  0
 16 17  1  0  0  0  0
 19 18  2  0  0  0  0
 20 21  1  0  0  0  0
 21 25  1  0  0  0  0
 22 27  1  1  0  0  0
 22 24  1  0  0  0  0
 22 20  1  0  0  0  0
 23 19  1  6  0  0  0
 23 25  1  0  0  0  0
 24 23  1  0  0  0  0
 25 26  1  6  0  0  0
 28 29  1  0  0  0  0
 29 27  1  0  0  0  0
 30 31  1  0  0  0  0
 30  7  1  0  0  0  0
 31 32  1  0  0  0  0
M  END
>  <MODEL>
5

>  <REMARK>
 VINA RESULT:      -6.7      3.328      7.310
  Name = 
  7 active torsions:
  status: ('A' for Active; 'I' for Inactive)
    1  A    between atoms: C_1  and  C_27
    2  A    between atoms: C_7  and  C_15
    3  A    between atoms: C_7  and  C_26
    4  A    between atoms: C_9  and  O_11
    5  A    between atoms: O_11  and  C_12
    6  A    between atoms: C_13  and  C_29
    7  A    between atoms: C_16  and  C_27
                            x       y       z     vdW  Elec       q    Type
                         _______ _______ _______ _____ _____    ______ ____

>  <TORSDO>
F 7

$$$$
=
 OpenBabel11052419053D

 32 35  0  0  1  0  0  0  0  0999 V2000
  189.7200  177.4020  144.7810 C   0  0  1  0  0  3  0  0  0  0  0  0
  191.7830  176.0920  144.0440 C   0  0  2  0  0  3  0  0  0  0  0  0
  189.5280  177.5460  146.2940 C   0  0  0  0  0  2  0  0  0  0  0  0
  190.2810  176.0260  144.3670 C   0  0  1  0  0  3  0  0  0  0  0  0
  192.3090  174.7080  143.6300 C   0  0  1  0  0  3  0  0  0  0  0  0
  194.0730  176.5970  144.9690 C   0  0  0  0  0  0  0  0  0  0  0  0
  194.6400  175.6670  144.1640 C   0  0  0  0  0  0  0  0  0  0  0  0
  189.9820  174.8920  145.3320 C   0  0  0  0  0  0  0  0  0  0  0  0
  193.7960  174.7960  143.2590 C   0  0  0  0  0  2  0  0  0  0  0  0
  190.5380  173.5400  145.0160 C   0  0  0  0  0  2  0  0  0  0  0  0
  189.3060  175.0720  146.4740 C   0  0  0  0  0  3  0  0  0  0  0  0
  192.5960  176.6120  145.2310 C   0  0  0  0  0  2  0  0  0  0  0  0
  192.0370  173.6400  144.7130 C   0  0  1  0  0  3  0  0  0  0  0  0
  188.6950  176.3920  146.8400 C   0  0  0  0  0  2  0  0  0  0  0  0
  195.0140  177.9080  145.7640 S   0  0  0  0  0  1  0  0  0  0  0  0
  192.5740  172.2670  144.3150 C   0  0  0  0  0  2  0  0  0  0  0  0
  191.6500  171.5750  143.5300 O   0  0  0  0  0  1  0  0  0  0  0  0
  188.5180  177.8680  142.7950 O   0  0  0  0  0  0  0  0  0  0  0  0
  188.4800  177.7540  144.0120 C   0  0  0  0  0  0  0  0  0  0  0  0
  184.7850  178.5110  146.3640 S   0  0  0  0  0  0  0  0  0  0  0  0
  185.1960  176.7930  145.8680 C   0  0  0  0  0  2  0  0  0  0  0  0
  184.9560  179.2400  144.6950 C   0  0  1  0  0  3  0  0  0  0  0  0
  187.1920  177.9640  144.7510 C   0  0  1  0  0  3  0  0  0  0  0  0
  186.3810  179.1130  144.1360 C   0  0  0  0  0  2  0  0  0  0  0  0
  186.3930  176.6600  144.9170 C   0  0  2  0  0  3  0  0  0  0  0  0
  185.9380  176.0600  143.5930 C   0  0  0  0  0  1  0  0  0  0  0  0
  183.9170  178.6650  143.7330 C   0  0  0  0  0  2  0  0  0  0  0  0
  183.4810  178.1620  141.4450 F   0  0  0  0  0  0  0  0  0  0  0  0
  184.4400  178.6650  142.3050 C   0  0  0  0  0  2  0  0  0  0  0  0
  196.0280  175.4940  144.0380 O   0  0  0  0  0  0  0  0  0  0  0  0
  196.7650  174.4090  144.5920 C   0  0  0  0  0  2  0  0  0  0  0  0
  196.1200  173.9430  145.8840 C   0  0  0  0  0  1  0  0  0  0  0  0
  1 19  1  6  0  0  0
  1  3  1  0  0  0  0
  2  4  1  0  0  0  0
  2 12  1  1  0  0  0
  3 14  1  0  0  0  0
  4  1  1  0  0  0  0
  4  8  1  1  0  0  0
  5  9  1  1  0  0  0
  5  2  1  0  0  0  0
  5 13  1  0  0  0  0
  6 12  1  0  0  0  0
  6 15  1  0  0  0  0
  7  6  2  0  0  0  0
  8 11  2  0  0  0  0
  9  7  1  0  0  0  0
 10  8  1  0  0  0  0
 11 14  1  0  0  0  0
 13 16  1  6  0  0  0
 13 10  1  0  0  0  0
 17 16  1  0  0  0  0
 18 19  2  0  0  0  0
 21 20  1  0  0  0  0
 22 27  1  6  0  0  0
 22 20  1  0  0  0  0
 23 19  1  6  0  0  0
 23 25  1  0  0  0  0
 24 22  1  0  0  0  0
 24 23  1  0  0  0  0
 25 26  1  6  0  0  0
 25 21  1  0  0  0  0
 28 29  1  0  0  0  0
 29 27  1  0  0  0  0
 30  7  1  0  0  0  0
 30 31  1  0  0  0  0
 31 32  1  0  0  0  0
M  END
>  <MODEL>
6

>  <REMARK>
 VINA RESULT:      -6.6      3.142      7.782
  Name = 
  7 active torsions:
  status: ('A' for Active; 'I' for Inactive)
    1  A    between atoms: C_1  and  C_27
    2  A    between atoms: C_7  and  C_15
    3  A    between atoms: C_7  and  C_26
    4  A    between atoms: C_9  and  O_11
    5  A    between atoms: O_11  and  C_12
    6  A    between atoms: C_13  and  C_29
    7  A    between atoms: C_16  and  C_27
                            x       y       z     vdW  Elec       q    Type
                         _______ _______ _______ _____ _____    ______ ____

>  <TORSDO>
F 7

$$$$
=
 OpenBabel11052419053D

 32 35  0  0  1  0  0  0  0  0999 V2000
  190.6780  175.6230  145.0620 C   0  0  1  0  0  3  0  0  0  0  0  0
  188.2560  176.1960  144.4950 C   0  0  2  0  0  3  0  0  0  0  0  0
  191.5510  176.7970  145.5190 C   0  0  0  0  0  2  0  0  0  0  0  0
  189.6810  176.0030  143.9490 C   0  0  1  0  0  3  0  0  0  0  0  0
  187.2880  176.5670  143.3610 C   0  0  1  0  0  3  0  0  0  0  0  0
  186.8110  177.5400  146.0630 C   0  0  0  0  0  0  0  0  0  0  0  0
  185.7410  177.4090  145.2420 C   0  0  0  0  0  0  0  0  0  0  0  0
  190.0960  177.1840  143.0880 C   0  0  0  0  0  0  0  0  0  0  0  0
  185.8590  176.7050  143.9090 C   0  0  0  0  0  2  0  0  0  0  0  0
  189.1530  177.6370  142.0200 C   0  0  0  0  0  2  0  0  0  0  0  0
  191.2310  177.8660  143.2930 C   0  0  0  0  0  3  0  0  0  0  0  0
  188.2050  177.2710  145.5810 C   0  0  0  0  0  2  0  0  0  0  0  0
  187.7470  177.8310  142.6000 C   0  0  1  0  0  3  0  0  0  0  0  0
  192.2360  177.4500  144.3260 C   0  0  0  0  0  2  0  0  0  0  0  0
  186.6640  178.0060  147.7940 S   0  0  0  0  0  1  0  0  0  0  0  0
  186.7790  178.2160  141.4840 C   0  0  0  0  0  2  0  0  0  0  0  0
  186.8520  177.3130  140.4220 O   0  0  0  0  0  1  0  0  0  0  0  0
  190.9410  173.3570  144.4300 O   0  0  0  0  0  0  0  0  0  0  0  0
  191.4910  174.4160  144.6960 C   0  0  0  0  0  0  0  0  0  0  0  0
  195.9080  174.9150  144.7390 S   0  0  0  0  0  0  0  0  0  0  0  0
  195.0360  174.7850  143.1300 C   0  0  0  0  0  2  0  0  0  0  0  0
  195.1630  173.4200  145.4840 C   0  0  1  0  0  3  0  0  0  0  0  0
  192.9870  174.5210  144.6580 C   0  0  1  0  0  3  0  0  0  0  0  0
  193.6370  173.5270  145.6300 C   0  0  0  0  0  2  0  0  0  0  0  0
  193.5430  174.4430  143.2260 C   0  0  2  0  0  3  0  0  0  0  0  0
  193.2730  173.1060  142.5470 C   0  0  0  0  0  1  0  0  0  0  0  0
  195.5710  172.1610  144.7200 C   0  0  0  0  0  2  0  0  0  0  0  0
  197.1580  172.1590  146.4980 F   0  0  0  0  0  0  0  0  0  0  0  0
  196.6340  171.3840  145.4800 C   0  0  0  0  0  2  0  0  0  0  0  0
  184.4450  177.8280  145.5850 O   0  0  0  0  0  0  0  0  0  0  0  0
  183.8360  179.0340  145.1380 C   0  0  0  0  0  2  0  0  0  0  0  0
  184.8100  179.8300  144.2890 C   0  0  0  0  0  1  0  0  0  0  0  0
  1 19  1  6  0  0  0
  1  3  1  0  0  0  0
  2 12  1  1  0  0  0
  4  8  1  1  0  0  0
  4  2  1  0  0  0  0
  4  1  1  0  0  0  0
  5  9  1  1  0  0  0
  5  2  1  0  0  0  0
  6 15  1  0  0  0  0
  7 30  1  0  0  0  0
  7  6  2  0  0  0  0
  8 11  2  0  0  0  0
  9  7  1  0  0  0  0
 10 13  1  0  0  0  0
 10  8  1  0  0  0  0
 11 14  1  0  0  0  0
 12  6  1  0  0  0  0
 13 16  1  6  0  0  0
 13  5  1  0  0  0  0
 14  3  1  0  0  0  0
 17 16  1  0  0  0  0
 18 19  2  0  0  0  0
 20 22  1  0  0  0  0
 21 25  1  0  0  0  0
 21 20  1  0  0  0  0
 22 27  1  6  0  0  0
 22 24  1  0  0  0  0
 23 19  1  6  0  0  0
 23 24  1  0  0  0  0
 25 26  1  1  0  0  0
 25 23  1  0  0  0  0
 27 29  1  0  0  0  0
 29 28  1  0  0  0  0
 31 30  1  0  0  0  0
 32 31  1  0  0  0  0
M  END
>  <MODEL>
7

>  <REMARK>
 VINA RESULT:      -6.5      2.518      3.928
  Name = 
  7 active torsions:
  status: ('A' for Active; 'I' for Inactive)
    1  A    between atoms: C_1  and  C_27
    2  A    between atoms: C_7  and  C_15
    3  A    between atoms: C_7  and  C_26
    4  A    between atoms: C_9  and  O_11
    5  A    between atoms: O_11  and  C_12
    6  A    between atoms: C_13  and  C_29
    7  A    between atoms: C_16  and  C_27
                            x       y       z     vdW  Elec       q    Type
                         _______ _______ _______ _____ _____    ______ ____

>  <TORSDO>
F 7

$$$$
=
 OpenBabel11052419053D

 32 35  0  0  1  0  0  0  0  0999 V2000
  192.7470  175.4780  145.4920 C   0  0  1  0  0  3  0  0  0  0  0  0
  190.9530  175.4080  143.6770 C   0  0  2  0  0  3  0  0  0  0  0  0
  192.3210  174.9620  146.8700 C   0  0  0  0  0  2  0  0  0  0  0  0
  191.6350  176.2580  144.7630 C   0  0  1  0  0  3  0  0  0  0  0  0
  189.8560  176.2160  142.9670 C   0  0  1  0  0  3  0  0  0  0  0  0
  189.6010  173.3280  143.2310 C   0  0  0  0  0  0  0  0  0  0  0  0
  188.9620  173.9250  142.1960 C   0  0  0  0  0  0  0  0  0  0  0  0
  190.6040  176.9080  145.6700 C   0  0  0  0  0  0  0  0  0  0  0  0
  189.2180  175.3760  141.8510 C   0  0  0  0  0  2  0  0  0  0  0  0
  189.4700  177.6410  145.0270 C   0  0  0  0  0  2  0  0  0  0  0  0
  190.6380  176.7930  147.0040 C   0  0  0  0  0  3  0  0  0  0  0  0
  190.3500  174.1270  144.2560 C   0  0  0  0  0  2  0  0  0  0  0  0
  188.8060  176.7610  143.9620 C   0  0  1  0  0  3  0  0  0  0  0  0
  191.7610  176.0990  147.7170 C   0  0  0  0  0  2  0  0  0  0  0  0
  189.6430  171.5440  143.4550 S   0  0  0  0  0  1  0  0  0  0  0  0
  187.7020  177.5500  143.2590 C   0  0  0  0  0  2  0  0  0  0  0  0
  186.9410  178.2740  144.1780 O   0  0  0  0  0  1  0  0  0  0  0  0
  194.0630  177.3650  146.0500 O   0  0  0  0  0  0  0  0  0  0  0  0
  194.0320  176.2520  145.5440 C   0  0  0  0  0  0  0  0  0  0  0  0
  197.8290  174.4750  144.0660 S   0  0  0  0  0  0  0  0  0  0  0  0
  197.0590  175.8520  143.1290 C   0  0  0  0  0  2  0  0  0  0  0  0
  196.3250  173.4390  144.1580 C   0  0  1  0  0  3  0  0  0  0  0  0
  195.2790  175.6470  144.9710 C   0  0  1  0  0  3  0  0  0  0  0  0
  195.1850  174.1160  144.9350 C   0  0  0  0  0  2  0  0  0  0  0  0
  195.6700  176.2760  143.6230 C   0  0  2  0  0  3  0  0  0  0  0  0
  194.6370  176.0430  142.5280 C   0  0  0  0  0  1  0  0  0  0  0  0
  195.8760  172.9940  142.7670 C   0  0  0  0  0  2  0  0  0  0  0  0
  193.5900  172.9670  142.0930 F   0  0  0  0  0  0  0  0  0  0  0  0
  194.5360  172.2790  142.8310 C   0  0  0  0  0  2  0  0  0  0  0  0
  188.0950  173.2460  141.3240 O   0  0  0  0  0  0  0  0  0  0  0  0
  188.3210  173.0690  139.9300 C   0  0  0  0  0  2  0  0  0  0  0  0
  189.6280  172.3340  139.7000 C   0  0  0  0  0  1  0  0  0  0  0  0
  1 19  1  1  0  0  0
  1  3  1  0  0  0  0
  2 12  1  1  0  0  0
  2  4  1  0  0  0  0
  3 14  1  0  0  0  0
  4  1  1  0  0  0  0
  4  8  1  1  0  0  0
  5  9  1  6  0  0  0
  5  2  1  0  0  0  0
  5 13  1  0  0  0  0
  6 15  1  0  0  0  0
  6 12  1  0  0  0  0
  7  6  2  0  0  0  0
  8 11  2  0  0  0  0
  9  7  1  0  0  0  0
 10  8  1  0  0  0  0
 11 14  1  0  0  0  0
 13 16  1  6  0  0  0
 13 10  1  0  0  0  0
 16 17  1  0  0  0  0
 19 18  2  0  0  0  0
 20 22  1  0  0  0  0
 21 25  1  0  0  0  0
 21 20  1  0  0  0  0
 22 27  1  6  0  0  0
 22 24  1  0  0  0  0
 23 19  1  6  0  0  0
 24 23  1  0  0  0  0
 25 26  1  6  0  0  0
 25 23  1  0  0  0  0
 27 29  1  0  0  0  0
 28 29  1  0  0  0  0
 30  7  1  0  0  0  0
 31 30  1  0  0  0  0
 32 31  1  0  0  0  0
M  END
>  <MODEL>
8

>  <REMARK>
 VINA RESULT:      -6.4      2.114      2.881
  Name = 
  7 active torsions:
  status: ('A' for Active; 'I' for Inactive)
    1  A    between atoms: C_1  and  C_27
    2  A    between atoms: C_7  and  C_15
    3  A    between atoms: C_7  and  C_26
    4  A    between atoms: C_9  and  O_11
    5  A    between atoms: O_11  and  C_12
    6  A    between atoms: C_13  and  C_29
    7  A    between atoms: C_16  and  C_27
                            x       y       z     vdW  Elec       q    Type
                         _______ _______ _______ _____ _____    ______ ____

>  <TORSDO>
F 7

$$$$
=
 OpenBabel11052419053D

 32 35  0  0  1  0  0  0  0  0999 V2000
  186.7420  176.4290  142.3870 C   0  0  1  0  0  3  0  0  0  0  0  0
  188.4610  175.2700  143.8770 C   0  0  2  0  0  3  0  0  0  0  0  0
  187.2140  176.7750  140.9710 C   0  0  0  0  0  2  0  0  0  0  0  0
  187.8390  176.6120  143.4550 C   0  0  1  0  0  3  0  0  0  0  0  0
  189.5440  175.4880  144.9450 C   0  0  1  0  0  3  0  0  0  0  0  0
  189.7570  173.2570  143.0860 C   0  0  0  0  0  0  0  0  0  0  0  0
  190.3650  173.1340  144.2910 C   0  0  0  0  0  0  0  0  0  0  0  0
  188.9170  177.6240  143.1050 C   0  0  0  0  0  0  0  0  0  0  0  0
  190.1210  174.1380  145.3960 C   0  0  0  0  0  2  0  0  0  0  0  0
  190.0370  177.8160  144.0770 C   0  0  0  0  0  2  0  0  0  0  0  0
  188.9340  178.2910  141.9440 C   0  0  0  0  0  3  0  0  0  0  0  0
  189.0640  174.5250  142.6840 C   0  0  0  0  0  2  0  0  0  0  0  0
  190.6420  176.4620  144.4640 C   0  0  1  0  0  3  0  0  0  0  0  0
  187.8280  178.1690  140.9370 C   0  0  0  0  0  2  0  0  0  0  0  0
  189.6910  171.9220  141.8830 S   0  0  0  0  0  1  0  0  0  0  0  0
  191.7320  176.6670  145.5150 C   0  0  0  0  0  2  0  0  0  0  0  0
  192.9990  176.6720  144.9300 O   0  0  0  0  0  1  0  0  0  0  0  0
  184.7130  177.5420  141.8880 O   0  0  0  0  0  0  0  0  0  0  0  0
  185.4750  177.1430  142.7570 C   0  0  0  0  0  0  0  0  0  0  0  0
  184.3770  177.5870  147.0420 S   0  0  0  0  0  0  0  0  0  0  0  0
  184.2280  179.0350  145.9230 C   0  0  0  0  0  2  0  0  0  0  0  0
  186.1000  177.1710  146.5920 C   0  0  1  0  0  3  0  0  0  0  0  0
  185.1510  177.3610  144.2060 C   0  0  1  0  0  3  0  0  0  0  0  0
  186.2500  176.7900  145.1110 C   0  0  0  0  0  2  0  0  0  0  0  0
  184.7930  178.8250  144.5120 C   0  0  2  0  0  3  0  0  0  0  0  0
  185.9450  179.7910  144.2660 C   0  0  0  0  0  1  0  0  0  0  0  0
  187.0590  178.2920  146.9880 C   0  0  0  0  0  2  0  0  0  0  0  0
  186.3630  180.2080  148.2230 F   0  0  0  0  0  0  0  0  0  0  0  0
  186.6910  178.8700  148.3450 C   0  0  0  0  0  2  0  0  0  0  0  0
  191.1830  172.0470  144.6380 O   0  0  0  0  0  0  0  0  0  0  0  0
  192.5470  171.9030  144.2570 C   0  0  0  0  0  2  0  0  0  0  0  0
  193.3710  173.0480  144.8170 C   0  0  0  0  0  1  0  0  0  0  0  0
  1 19  1  1  0  0  0
  1  4  1  0  0  0  0
  2 12  1  6  0  0  0
  2  5  1  0  0  0  0
  3  1  1  0  0  0  0
  4  8  1  6  0  0  0
  4  2  1  0  0  0  0
  5  9  1  6  0  0  0
  6  7  2  0  0  0  0
  7 30  1  0  0  0  0
  7  9  1  0  0  0  0
  8 10  1  0  0  0  0
 10 13  1  0  0  0  0
 11  8  2  0  0  0  0
 12  6  1  0  0  0  0
 13  5  1  0  0  0  0
 13 16  1  1  0  0  0
 14  3  1  0  0  0  0
 14 11  1  0  0  0  0
 15  6  1  0  0  0  0
 17 16  1  0  0  0  0
 18 19  2  0  0  0  0
 21 20  1  0  0  0  0
 22 27  1  6  0  0  0
 22 20  1  0  0  0  0
 23 19  1  6  0  0  0
 23 25  1  0  0  0  0
 23 24  1  0  0  0  0
 24 22  1  0  0  0  0
 25 26  1  1  0  0  0
 25 21  1  0  0  0  0
 27 29  1  0  0  0  0
 28 29  1  0  0  0  0
 31 30  1  0  0  0  0
 31 32  1  0  0  0  0
M  END
>  <MODEL>
9

>  <REMARK>
 VINA RESULT:      -6.3      2.997      7.318
  Name = 
  7 active torsions:
  status: ('A' for Active; 'I' for Inactive)
    1  A    between atoms: C_1  and  C_27
    2  A    between atoms: C_7  and  C_15
    3  A    between atoms: C_7  and  C_26
    4  A    between atoms: C_9  and  O_11
    5  A    between atoms: O_11  and  C_12
    6  A    between atoms: C_13  and  C_29
    7  A    between atoms: C_16  and  C_27
                            x       y       z     vdW  Elec       q    Type
                         _______ _______ _______ _____ _____    ______ ____

>  <TORSDO>
F 7

$$$$
