=
 OpenBabel11052417063D

 30 36  0  0  1  0  0  0  0  0999 V2000
  187.7200  177.2050  145.4890 C   0  0  0  0  0  0  0  0  0  0  0  0
  185.2240  177.5560  145.8020 C   0  0  0  0  0  0  0  0  0  0  0  0
  185.4700  178.2990  141.9850 N   0  0  0  0  0  0  0  0  0  0  0  0
  187.9410  176.3830  144.3710 C   0  0  0  0  0  0  0  0  0  0  0  0
  188.6450  177.2220  146.5380 C   0  0  0  0  0  3  0  0  0  0  0  0
  191.5630  174.7330  145.4710 S   0  0  0  0  0  0  0  0  0  0  0  0
  188.2890  174.2220  142.2180 C   0  0  1  0  0  3  0  0  0  0  0  0
  190.0370  175.6590  145.3370 C   0  0  0  0  0  0  0  0  0  0  0  0
  190.7700  176.3620  147.4600 N   0  0  0  0  0  2  0  0  0  0  0  0
  187.4970  175.1670  141.4150 N   0  0  2  0  0  0  0  0  0  0  0  0
  186.2270  177.2730  141.3210 C   0  0  0  0  0  0  0  0  0  0  0  0
  189.7820  176.4230  146.4510 C   0  0  0  0  0  0  0  0  0  0  0  0
  189.1280  175.6250  144.2590 C   0  0  0  0  0  0  0  0  0  0  0  0
  184.0560  178.3310  145.5480 N   0  0  0  0  0  0  0  0  0  0  0  0
  188.2570  175.2340  140.1900 C   0  0  0  0  0  2  0  0  0  0  0  0
  188.8240  173.2540  141.3460 O   0  0  0  0  0  0  0  0  0  0  0  0
  193.1610  176.3120  147.0510 C   0  0  0  0  0  1  0  0  0  0  0  0
  185.1230  176.4290  146.3570 O   0  0  0  0  0  0  0  0  0  0  0  0
  185.7490  178.8920  143.1070 C   0  0  0  0  0  0  0  0  0  0  0  0
  184.1020  179.4210  144.8450 C   0  0  0  0  0  3  0  0  0  0  0  0
  191.8870  175.4930  147.1170 C   0  0  2  0  0  3  0  0  0  0  0  0
  186.5650  178.1660  145.5220 C   0  0  2  0  0  3  0  0  0  0  0  0
  186.9820  176.3750  143.3690 O   0  0  0  0  0  0  0  0  0  0  0  0
  185.9480  177.0150  140.1200 O   0  0  0  0  0  0  0  0  0  0  0  0
  187.3320  176.5050  142.0060 C   0  0  1  0  0  3  0  0  0  0  0  0
  188.9080  173.8770  140.0860 C   0  0  0  0  0  2  0  0  0  0  0  0
  190.5990  174.7540  142.6170 O   0  0  0  0  0  0  0  0  0  0  0  0
  185.3600  179.9270  144.1690 C   0  0  1  0  0  3  0  0  0  0  0  0
  186.5920  179.1980  144.3660 C   0  0  2  0  0  3  0  0  0  0  0  0
  189.4110  174.8560  143.0260 C   0  0  0  0  0  0  0  0  0  0  0  0
  1  5  1  0  0  0  0
  2 18  2  0  0  0  0
  3 19  2  0  0  0  0
  4  1  2  0  0  0  0
  6 21  1  0  0  0  0
  7 16  1  6  0  0  0
  7 30  1  0  0  0  0
  8  6  1  0  0  0  0
  8 12  1  0  0  0  0
 10 15  1  6  0  0  0
 10 25  1  0  0  0  0
 10  7  1  0  0  0  0
 11  3  1  0  0  0  0
 12  5  2  0  0  0  0
 12  9  1  0  0  0  0
 13  4  1  0  0  0  0
 13  8  2  0  0  0  0
 14  2  1  0  0  0  0
 19 28  1  0  0  0  0
 20 14  2  0  0  0  0
 21 17  1  6  0  0  0
 21  9  1  0  0  0  0
 22  1  1  6  0  0  0
 22  2  1  0  0  0  0
 23  4  1  0  0  0  0
 24 11  2  0  0  0  0
 25 11  1  6  0  0  0
 25 23  1  0  0  0  0
 26 15  1  0  0  0  0
 26 16  1  0  0  0  0
 27 30  2  0  0  0  0
 28 29  1  0  0  0  0
 28 20  1  1  0  0  0
 29 19  1  6  0  0  0
 29 22  1  0  0  0  0
 30 13  1  0  0  0  0
M  END
>  <MODEL>
1

>  <REMARK>
 VINA RESULT:      -9.1      0.000      0.000
  Name = 
  0 active torsions:
  status: ('A' for Active; 'I' for Inactive)
                            x       y       z     vdW  Elec       q    Type
                         _______ _______ _______ _____ _____    ______ ____

>  <TORSDO>
F 0

$$$$
=
 OpenBabel11052417063D

 30 36  0  0  1  0  0  0  0  0999 V2000
  187.6750  176.2870  142.8570 C   0  0  0  0  0  0  0  0  0  0  0  0
  186.3600  178.4090  143.3240 C   0  0  0  0  0  0  0  0  0  0  0  0
  187.6910  177.7120  146.9200 N   0  0  0  0  0  0  0  0  0  0  0  0
  188.9500  176.3890  143.4370 C   0  0  0  0  0  0  0  0  0  0  0  0
  187.4820  175.4870  141.7260 C   0  0  0  0  0  3  0  0  0  0  0  0
  191.0230  173.8570  140.9170 S   0  0  0  0  0  0  0  0  0  0  0  0
  191.8440  176.9000  144.3280 C   0  0  1  0  0  3  0  0  0  0  0  0
  189.8060  174.8390  141.7880 C   0  0  0  0  0  0  0  0  0  0  0  0
  188.4790  173.9670  140.0510 N   0  0  0  0  0  2  0  0  0  0  0  0
  191.1930  177.1820  145.6160 N   0  0  2  0  0  0  0  0  0  0  0  0
  189.1010  177.4340  146.8880 C   0  0  0  0  0  0  0  0  0  0  0  0
  188.5660  174.7930  141.1940 C   0  0  0  0  0  0  0  0  0  0  0  0
  190.0320  175.6310  142.9320 C   0  0  0  0  0  0  0  0  0  0  0  0
  185.4480  179.1260  144.1500 N   0  0  0  0  0  0  0  0  0  0  0  0
  191.9990  176.4160  146.5360 C   0  0  0  0  0  2  0  0  0  0  0  0
  193.2290  176.7910  144.5550 O   0  0  0  0  0  0  0  0  0  0  0  0
  189.5610  171.8090  139.8190 C   0  0  0  0  0  1  0  0  0  0  0  0
  186.9600  179.0010  142.3880 O   0  0  0  0  0  0  0  0  0  0  0  0
  186.7740  177.2550  146.1210 C   0  0  0  0  0  0  0  0  0  0  0  0
  184.9300  178.5930  145.2140 C   0  0  0  0  0  3  0  0  0  0  0  0
  189.7360  173.3100  139.7200 C   0  0  2  0  0  3  0  0  0  0  0  0
  186.4800  176.9250  143.5070 C   0  0  2  0  0  3  0  0  0  0  0  0
  189.1000  177.2180  144.5380 O   0  0  0  0  0  0  0  0  0  0  0  0
  189.7880  177.7470  147.8970 O   0  0  0  0  0  0  0  0  0  0  0  0
  189.7770  176.7890  145.7020 C   0  0  1  0  0  3  0  0  0  0  0  0
  193.3670  176.3970  145.9000 C   0  0  0  0  0  2  0  0  0  0  0  0
  192.0420  174.6010  143.6530 O   0  0  0  0  0  0  0  0  0  0  0  0
  185.2940  177.2130  145.7200 C   0  0  1  0  0  3  0  0  0  0  0  0
  186.2200  176.4160  144.9470 C   0  0  2  0  0  3  0  0  0  0  0  0
  191.3430  175.6490  143.6210 C   0  0  0  0  0  0  0  0  0  0  0  0
  1  4  1  0  0  0  0
  2 22  1  0  0  0  0
  2 14  1  0  0  0  0
  4 23  1  0  0  0  0
  5  1  2  0  0  0  0
  6  8  1  0  0  0  0
  7 30  1  1  0  0  0
  7 16  1  0  0  0  0
  7 10  1  0  0  0  0
  8 13  1  0  0  0  0
  9 12  1  0  0  0  0
 10 25  1  0  0  0  0
 10 15  1  1  0  0  0
 11  3  1  0  0  0  0
 11 24  2  0  0  0  0
 12  5  1  0  0  0  0
 12  8  2  0  0  0  0
 13  4  2  0  0  0  0
 13 30  1  0  0  0  0
 14 20  2  0  0  0  0
 16 26  1  0  0  0  0
 18  2  2  0  0  0  0
 19  3  2  0  0  0  0
 21 17  1  1  0  0  0
 21  9  1  0  0  0  0
 21  6  1  0  0  0  0
 22  1  1  1  0  0  0
 22 29  1  0  0  0  0
 25 23  1  6  0  0  0
 25 11  1  0  0  0  0
 26 15  1  0  0  0  0
 28 20  1  6  0  0  0
 28 19  1  0  0  0  0
 29 28  1  0  0  0  0
 29 19  1  1  0  0  0
 30 27  2  0  0  0  0
M  END
>  <MODEL>
2

>  <REMARK>
 VINA RESULT:      -8.5      2.174      5.148
  Name = 
  0 active torsions:
  status: ('A' for Active; 'I' for Inactive)
                            x       y       z     vdW  Elec       q    Type
                         _______ _______ _______ _____ _____    ______ ____

>  <TORSDO>
F 0

$$$$
=
 OpenBabel11052417063D

 30 36  0  0  1  0  0  0  0  0999 V2000
  188.4940  176.9360  144.7540 C   0  0  0  0  0  0  0  0  0  0  0  0
  185.9940  177.3280  144.9700 C   0  0  0  0  0  0  0  0  0  0  0  0
  186.3000  177.4690  141.0880 N   0  0  0  0  0  0  0  0  0  0  0  0
  188.7320  175.9510  143.7810 C   0  0  0  0  0  0  0  0  0  0  0  0
  189.4020  177.1190  145.8020 C   0  0  0  0  0  3  0  0  0  0  0  0
  192.3360  174.4990  145.1800 S   0  0  0  0  0  0  0  0  0  0  0  0
  189.1120  173.4830  141.9950 C   0  0  1  0  0  3  0  0  0  0  0  0
  190.8120  175.3900  144.8800 C   0  0  0  0  0  0  0  0  0  0  0  0
  191.5120  176.4160  146.8790 N   0  0  0  0  0  2  0  0  0  0  0  0
  188.3340  174.2890  141.0440 N   0  0  2  0  0  0  0  0  0  0  0  0
  187.0670  176.3530  140.6040 C   0  0  0  0  0  0  0  0  0  0  0  0
  190.5400  176.3180  145.8580 C   0  0  0  0  0  0  0  0  0  0  0  0
  189.9200  175.1870  143.8070 C   0  0  0  0  0  0  0  0  0  0  0  0
  184.8310  178.0520  144.5810 N   0  0  0  0  0  0  0  0  0  0  0  0
  189.1120  174.1670  139.8350 C   0  0  0  0  0  2  0  0  0  0  0  0
  189.6600  172.3910  141.2940 O   0  0  0  0  0  0  0  0  0  0  0  0
  193.9090  176.3070  146.5200 C   0  0  0  0  0  1  0  0  0  0  0  0
  185.8830  176.3010  145.6920 O   0  0  0  0  0  0  0  0  0  0  0  0
  186.5620  178.2290  142.1080 C   0  0  0  0  0  0  0  0  0  0  0  0
  184.8880  179.0190  143.7170 C   0  0  0  0  0  3  0  0  0  0  0  0
  192.6350  175.5060  146.6920 C   0  0  2  0  0  3  0  0  0  0  0  0
  187.3400  177.8890  144.6200 C   0  0  2  0  0  3  0  0  0  0  0  0
  187.7880  175.7860  142.7780 O   0  0  0  0  0  0  0  0  0  0  0  0
  186.8060  175.9110  139.4530 O   0  0  0  0  0  0  0  0  0  0  0  0
  188.1600  175.7030  141.4170 C   0  0  1  0  0  3  0  0  0  0  0  0
  189.7640  172.8110  139.9530 C   0  0  0  0  0  2  0  0  0  0  0  0
  191.4160  174.0740  142.3430 O   0  0  0  0  0  0  0  0  0  0  0  0
  186.1560  179.4160  142.9910 C   0  0  1  0  0  3  0  0  0  0  0  0
  187.3850  178.7280  143.3170 C   0  0  2  0  0  3  0  0  0  0  0  0
  190.2220  174.2360  142.7120 C   0  0  0  0  0  0  0  0  0  0  0  0
  1  5  1  0  0  0  0
  2 18  2  0  0  0  0
  3 19  2  0  0  0  0
  4 13  1  0  0  0  0
  4  1  2  0  0  0  0
  5 12  2  0  0  0  0
  6 21  1  0  0  0  0
  7 16  1  6  0  0  0
  7 30  1  0  0  0  0
  8  6  1  0  0  0  0
  8 12  1  0  0  0  0
 10 15  1  6  0  0  0
 10 25  1  0  0  0  0
 10  7  1  0  0  0  0
 11  3  1  0  0  0  0
 12  9  1  0  0  0  0
 13  8  2  0  0  0  0
 14  2  1  0  0  0  0
 15 26  1  0  0  0  0
 19 28  1  0  0  0  0
 20 14  2  0  0  0  0
 21 17  1  6  0  0  0
 21  9  1  0  0  0  0
 22  1  1  6  0  0  0
 22  2  1  0  0  0  0
 23  4  1  0  0  0  0
 24 11  2  0  0  0  0
 25 11  1  6  0  0  0
 25 23  1  0  0  0  0
 26 16  1  0  0  0  0
 27 30  2  0  0  0  0
 28 29  1  0  0  0  0
 28 20  1  1  0  0  0
 29 19  1  6  0  0  0
 29 22  1  0  0  0  0
 30 13  1  0  0  0  0
M  END
>  <MODEL>
3

>  <REMARK>
 VINA RESULT:      -8.1      1.116      1.206
  Name = 
  0 active torsions:
  status: ('A' for Active; 'I' for Inactive)
                            x       y       z     vdW  Elec       q    Type
                         _______ _______ _______ _____ _____    ______ ____

>  <TORSDO>
F 0

$$$$
=
 OpenBabel11052417063D

 30 36  0  0  1  0  0  0  0  0999 V2000
  190.3550  176.3070  145.0810 C   0  0  0  0  0  0  0  0  0  0  0  0
  192.8370  176.8250  144.9490 C   0  0  0  0  0  0  0  0  0  0  0  0
  192.9270  173.1070  143.7860 N   0  0  0  0  0  0  0  0  0  0  0  0
  189.9450  175.6680  143.8990 C   0  0  0  0  0  0  0  0  0  0  0  0
  189.4410  177.0670  145.8190 C   0  0  0  0  0  3  0  0  0  0  0  0
  185.9720  176.7970  143.8820 S   0  0  0  0  0  0  0  0  0  0  0  0
  189.0670  174.7160  141.1150 C   0  0  1  0  0  3  0  0  0  0  0  0
  187.7010  176.5040  144.2430 C   0  0  0  0  0  0  0  0  0  0  0  0
  187.1320  177.9210  146.0340 N   0  0  0  0  0  2  0  0  0  0  0  0
  190.1170  173.7110  141.3390 N   0  0  2  0  0  0  0  0  0  0  0  0
  191.9320  172.8730  142.7750 C   0  0  0  0  0  0  0  0  0  0  0  0
  188.1270  177.1710  145.3680 C   0  0  0  0  0  0  0  0  0  0  0  0
  188.5960  175.7250  143.4810 C   0  0  0  0  0  0  0  0  0  0  0  0
  194.1830  176.4390  145.2080 N   0  0  0  0  0  0  0  0  0  0  0  0
  189.4450  172.4850  140.9800 C   0  0  0  0  0  2  0  0  0  0  0  0
  188.3080  174.3100  140.0010 O   0  0  0  0  0  0  0  0  0  0  0  0
  184.8380  177.1990  146.3500 C   0  0  0  0  0  1  0  0  0  0  0  0
  192.6000  177.8420  144.2430 O   0  0  0  0  0  0  0  0  0  0  0  0
  192.7930  173.7720  144.8940 C   0  0  0  0  0  0  0  0  0  0  0  0
  194.4680  175.3180  145.7970 C   0  0  0  0  0  3  0  0  0  0  0  0
  185.8260  177.8360  145.3950 C   0  0  2  0  0  3  0  0  0  0  0  0
  191.7320  176.0840  145.6400 C   0  0  2  0  0  3  0  0  0  0  0  0
  190.8930  174.9520  143.1840 O   0  0  0  0  0  0  0  0  0  0  0  0
  192.1640  171.9850  141.9110 O   0  0  0  0  0  0  0  0  0  0  0  0
  190.6350  173.6430  142.7160 C   0  0  1  0  0  3  0  0  0  0  0  0
  188.4410  172.9090  139.9360 C   0  0  0  0  0  2  0  0  0  0  0  0
  186.9900  174.4470  142.2940 O   0  0  0  0  0  0  0  0  0  0  0  0
  193.4260  174.2920  146.1900 C   0  0  1  0  0  3  0  0  0  0  0  0
  192.0330  174.5970  145.9570 C   0  0  2  0  0  3  0  0  0  0  0  0
  188.1450  174.9510  142.3020 C   0  0  0  0  0  0  0  0  0  0  0  0
  1 22  1  0  0  0  0
  1  5  1  0  0  0  0
  2 14  1  0  0  0  0
  3 19  2  0  0  0  0
  4  1  2  0  0  0  0
  6  8  1  0  0  0  0
  6 21  1  0  0  0  0
  7 16  1  6  0  0  0
  7 10  1  0  0  0  0
  7 30  1  0  0  0  0
  8 12  1  0  0  0  0
 10 15  1  1  0  0  0
 10 25  1  0  0  0  0
 11  3  1  0  0  0  0
 12  5  2  0  0  0  0
 12  9  1  0  0  0  0
 13  4  1  0  0  0  0
 13  8  2  0  0  0  0
 14 20  2  0  0  0  0
 18  2  2  0  0  0  0
 19 28  1  0  0  0  0
 21  9  1  0  0  0  0
 21 17  1  1  0  0  0
 22  2  1  6  0  0  0
 22 29  1  0  0  0  0
 23  4  1  0  0  0  0
 24 11  2  0  0  0  0
 25 11  1  6  0  0  0
 25 23  1  0  0  0  0
 26 16  1  0  0  0  0
 26 15  1  0  0  0  0
 27 30  2  0  0  0  0
 28 20  1  6  0  0  0
 29 19  1  6  0  0  0
 29 28  1  0  0  0  0
 30 13  1  0  0  0  0
M  END
>  <MODEL>
4

>  <REMARK>
 VINA RESULT:      -8.0      2.513      6.054
  Name = 
  0 active torsions:
  status: ('A' for Active; 'I' for Inactive)
                            x       y       z     vdW  Elec       q    Type
                         _______ _______ _______ _____ _____    ______ ____

>  <TORSDO>
F 0

$$$$
=
 OpenBabel11052417063D

 30 36  0  0  1  0  0  0  0  0999 V2000
  188.4960  176.7450  143.9340 C   0  0  0  0  0  0  0  0  0  0  0  0
  190.3650  177.1310  145.6090 C   0  0  0  0  0  0  0  0  0  0  0  0
  190.4190  173.2360  145.5240 N   0  0  0  0  0  0  0  0  0  0  0  0
  188.9180  175.8190  142.9660 C   0  0  0  0  0  0  0  0  0  0  0  0
  187.5310  177.7050  143.6110 C   0  0  0  0  0  3  0  0  0  0  0  0
  186.5270  177.0190  139.8190 S   0  0  0  0  0  0  0  0  0  0  0  0
  190.0930  174.1660  140.6610 C   0  0  1  0  0  3  0  0  0  0  0  0
  187.3610  176.7840  141.3860 C   0  0  0  0  0  0  0  0  0  0  0  0
  186.0270  178.6550  141.8960 N   0  0  0  0  0  2  0  0  0  0  0  0
  190.4110  173.2290  141.7500 N   0  0  2  0  0  0  0  0  0  0  0  0
  190.4180  172.7630  144.1660 C   0  0  0  0  0  0  0  0  0  0  0  0
  186.9970  177.7210  142.3250 C   0  0  0  0  0  0  0  0  0  0  0  0
  188.3250  175.7990  141.6830 C   0  0  0  0  0  0  0  0  0  0  0  0
  190.9940  176.7900  146.8410 N   0  0  0  0  0  0  0  0  0  0  0  0
  189.9430  171.9730  141.2150 C   0  0  0  0  0  2  0  0  0  0  0  0
  190.2860  173.4920  139.4390 O   0  0  0  0  0  0  0  0  0  0  0  0
  184.1080  178.1170  140.5130 C   0  0  0  0  0  1  0  0  0  0  0  0
  190.9340  177.9220  144.8100 O   0  0  0  0  0  0  0  0  0  0  0  0
  189.6910  174.1830  146.0350 C   0  0  0  0  0  0  0  0  0  0  0  0
  190.5160  175.8660  147.6170 C   0  0  0  0  0  3  0  0  0  0  0  0
  185.5890  178.4380  140.5240 C   0  0  2  0  0  3  0  0  0  0  0  0
  188.9700  176.6420  145.3570 C   0  0  2  0  0  3  0  0  0  0  0  0
  189.8980  174.9050  143.3230 O   0  0  0  0  0  0  0  0  0  0  0  0
  190.9870  171.6660  143.9210 O   0  0  0  0  0  0  0  0  0  0  0  0
  189.7660  173.5270  143.0390 C   0  0  1  0  0  3  0  0  0  0  0  0
  190.1070  172.1240  139.7230 C   0  0  0  0  0  2  0  0  0  0  0  0
  187.8080  174.2940  139.9250 O   0  0  0  0  0  0  0  0  0  0  0  0
  189.3110  175.0190  147.2630 C   0  0  1  0  0  3  0  0  0  0  0  0
  188.6140  175.2910  146.0270 C   0  0  2  0  0  3  0  0  0  0  0  0
  188.6880  174.7450  140.7080 C   0  0  0  0  0  0  0  0  0  0  0  0
  2 14  1  0  0  0  0
  3 19  2  0  0  0  0
  4 23  1  0  0  0  0
  4  1  2  0  0  0  0
  5  1  1  0  0  0  0
  6 21  1  0  0  0  0
  6  8  1  0  0  0  0
  7 16  1  6  0  0  0
  7 30  1  0  0  0  0
  7 10  1  0  0  0  0
  8 13  2  0  0  0  0
  8 12  1  0  0  0  0
  9 12  1  0  0  0  0
 10 15  1  6  0  0  0
 10 25  1  0  0  0  0
 11  3  1  0  0  0  0
 12  5  2  0  0  0  0
 13  4  1  0  0  0  0
 14 20  2  0  0  0  0
 16 26  1  0  0  0  0
 18  2  2  0  0  0  0
 19 28  1  0  0  0  0
 21 17  1  1  0  0  0
 21  9  1  0  0  0  0
 22  1  1  6  0  0  0
 22  2  1  0  0  0  0
 22 29  1  0  0  0  0
 24 11  2  0  0  0  0
 25 23  1  1  0  0  0
 25 11  1  0  0  0  0
 26 15  1  0  0  0  0
 27 30  2  0  0  0  0
 28 20  1  6  0  0  0
 29 19  1  6  0  0  0
 29 28  1  0  0  0  0
 30 13  1  0  0  0  0
M  END
>  <MODEL>
5

>  <REMARK>
 VINA RESULT:      -7.9      2.769      5.738
  Name = 
  0 active torsions:
  status: ('A' for Active; 'I' for Inactive)
                            x       y       z     vdW  Elec       q    Type
                         _______ _______ _______ _____ _____    ______ ____

>  <TORSDO>
F 0

$$$$
=
 OpenBabel11052417063D

 30 36  0  0  1  0  0  0  0  0999 V2000
  189.0850  175.9250  145.2840 C   0  0  0  0  0  0  0  0  0  0  0  0
  191.5310  175.2740  145.0720 C   0  0  0  0  0  0  0  0  0  0  0  0
  190.0930  173.2250  142.0850 N   0  0  0  0  0  0  0  0  0  0  0  0
  188.5880  176.2980  144.0240 C   0  0  0  0  0  0  0  0  0  0  0  0
  188.5230  176.4630  146.4460 C   0  0  0  0  0  3  0  0  0  0  0  0
  185.5810  178.8580  145.2340 S   0  0  0  0  0  0  0  0  0  0  0  0
  187.7410  177.5310  141.3430 C   0  0  1  0  0  3  0  0  0  0  0  0
  186.9330  177.6910  145.1070 C   0  0  0  0  0  0  0  0  0  0  0  0
  186.8350  177.9690  147.4420 N   0  0  0  0  0  2  0  0  0  0  0  0
  188.1910  176.2310  140.8220 N   0  0  2  0  0  0  0  0  0  0  0  0
  189.2370  174.0490  141.2760 C   0  0  0  0  0  0  0  0  0  0  0  0
  187.4650  177.3630  146.3320 C   0  0  0  0  0  0  0  0  0  0  0  0
  187.4730  177.1600  143.9180 C   0  0  0  0  0  0  0  0  0  0  0  0
  192.5150  174.2650  144.8690 N   0  0  0  0  0  0  0  0  0  0  0  0
  187.0940  175.8510  139.9660 C   0  0  0  0  0  2  0  0  0  0  0  0
  187.0300  178.1860  140.3190 O   0  0  0  0  0  0  0  0  0  0  0  0
  184.4410  178.2910  147.6660 C   0  0  0  0  0  1  0  0  0  0  0  0
  191.8670  176.4890  145.0750 O   0  0  0  0  0  0  0  0  0  0  0  0
  190.1300  173.1510  143.3820 C   0  0  0  0  0  0  0  0  0  0  0  0
  192.1900  173.0190  144.7070 C   0  0  0  0  0  3  0  0  0  0  0  0
  185.7240  178.8330  147.0690 C   0  0  2  0  0  3  0  0  0  0  0  0
  190.1320  174.8540  145.4130 C   0  0  2  0  0  3  0  0  0  0  0  0
  189.1970  175.7620  142.8990 O   0  0  0  0  0  0  0  0  0  0  0  0
  189.1550  173.7890  140.0460 O   0  0  0  0  0  0  0  0  0  0  0  0
  188.4430  175.2010  141.8440 C   0  0  1  0  0  3  0  0  0  0  0  0
  186.5290  177.1660  139.4870 C   0  0  0  0  0  2  0  0  0  0  0  0
  185.6320  177.6080  142.4930 O   0  0  0  0  0  0  0  0  0  0  0  0
  190.7570  172.5330  144.6370 C   0  0  1  0  0  3  0  0  0  0  0  0
  189.6910  173.4900  144.8240 C   0  0  2  0  0  3  0  0  0  0  0  0
  186.8790  177.4530  142.5930 C   0  0  0  0  0  0  0  0  0  0  0  0
  1 22  1  0  0  0  0
  1  5  1  0  0  0  0
  2 18  2  0  0  0  0
  3 19  2  0  0  0  0
  4  1  2  0  0  0  0
  6 21  1  0  0  0  0
  7 16  1  6  0  0  0
  7 30  1  0  0  0  0
  8  6  1  0  0  0  0
  8 12  1  0  0  0  0
 10 15  1  6  0  0  0
 10  7  1  0  0  0  0
 10 25  1  0  0  0  0
 11  3  1  0  0  0  0
 12  5  2  0  0  0  0
 12  9  1  0  0  0  0
 13  4  1  0  0  0  0
 13  8  2  0  0  0  0
 14  2  1  0  0  0  0
 19 28  1  0  0  0  0
 20 14  2  0  0  0  0
 21  9  1  0  0  0  0
 21 17  1  1  0  0  0
 22  2  1  6  0  0  0
 23  4  1  0  0  0  0
 24 11  2  0  0  0  0
 25 11  1  6  0  0  0
 25 23  1  0  0  0  0
 26 15  1  0  0  0  0
 26 16  1  0  0  0  0
 27 30  2  0  0  0  0
 28 20  1  1  0  0  0
 28 29  1  0  0  0  0
 29 19  1  6  0  0  0
 29 22  1  0  0  0  0
 30 13  1  0  0  0  0
M  END
>  <MODEL>
6

>  <REMARK>
 VINA RESULT:      -7.8      2.423      5.548
  Name = 
  0 active torsions:
  status: ('A' for Active; 'I' for Inactive)
                            x       y       z     vdW  Elec       q    Type
                         _______ _______ _______ _____ _____    ______ ____

>  <TORSDO>
F 0

$$$$
=
 OpenBabel11052417063D

 30 36  0  0  1  0  0  0  0  0999 V2000
  191.0290  176.5120  144.3590 C   0  0  0  0  0  0  0  0  0  0  0  0
  188.8470  177.0840  145.5260 C   0  0  0  0  0  0  0  0  0  0  0  0
  187.4050  175.2800  142.3880 N   0  0  0  0  0  0  0  0  0  0  0  0
  191.0080  175.1650  143.9600 C   0  0  0  0  0  0  0  0  0  0  0  0
  192.2470  177.1400  144.6380 C   0  0  0  0  0  3  0  0  0  0  0  0
  195.0680  174.4100  143.9740 S   0  0  0  0  0  0  0  0  0  0  0  0
  191.0490  172.1210  143.5570 C   0  0  1  0  0  3  0  0  0  0  0  0
  193.4240  175.1130  144.0610 C   0  0  0  0  0  0  0  0  0  0  0  0
  194.7080  176.9530  144.7730 N   0  0  0  0  0  2  0  0  0  0  0  0
  189.7940  172.3930  142.8390 N   0  0  2  0  0  0  0  0  0  0  0  0
  188.0860  174.0340  142.1680 C   0  0  0  0  0  0  0  0  0  0  0  0
  193.4290  176.4140  144.5060 C   0  0  0  0  0  0  0  0  0  0  0  0
  192.2140  174.4530  143.7660 C   0  0  0  0  0  0  0  0  0  0  0  0
  187.5140  177.5800  145.4530 N   0  0  0  0  0  0  0  0  0  0  0  0
  189.9780  171.6520  141.6150 C   0  0  0  0  0  2  0  0  0  0  0  0
  191.4390  170.8000  143.2650 O   0  0  0  0  0  0  0  0  0  0  0  0
  196.6820  176.5610  143.4180 C   0  0  0  0  0  1  0  0  0  0  0  0
  189.2630  176.5530  146.5900 O   0  0  0  0  0  0  0  0  0  0  0  0
  187.9300  176.4300  142.6880 C   0  0  0  0  0  0  0  0  0  0  0  0
  187.0020  177.9920  144.3340 C   0  0  0  0  0  3  0  0  0  0  0  0
  195.7910  176.0140  144.5150 C   0  0  2  0  0  3  0  0  0  0  0  0
  189.7700  177.3320  144.3700 C   0  0  2  0  0  3  0  0  0  0  0  0
  189.7750  174.5750  143.7250 O   0  0  0  0  0  0  0  0  0  0  0  0
  187.4440  173.0960  141.6240 O   0  0  0  0  0  0  0  0  0  0  0  0
  189.5270  173.8130  142.5600 C   0  0  1  0  0  3  0  0  0  0  0  0
  190.8680  170.4990  142.0130 C   0  0  0  0  0  2  0  0  0  0  0  0
  193.1110  172.6900  142.4600 O   0  0  0  0  0  0  0  0  0  0  0  0
  187.7250  177.9160  143.0060 C   0  0  1  0  0  3  0  0  0  0  0  0
  189.0810  177.4170  142.9840 C   0  0  2  0  0  3  0  0  0  0  0  0
  192.1900  173.0730  143.2300 C   0  0  0  0  0  0  0  0  0  0  0  0
  1  5  1  0  0  0  0
  2 18  2  0  0  0  0
  3 19  2  0  0  0  0
  4  1  2  0  0  0  0
  6  8  1  0  0  0  0
  6 21  1  0  0  0  0
  7 30  1  6  0  0  0
  8 12  1  0  0  0  0
 10 15  1  6  0  0  0
 10  7  1  0  0  0  0
 11  3  1  0  0  0  0
 12  5  2  0  0  0  0
 12  9  1  0  0  0  0
 13  4  1  0  0  0  0
 13  8  2  0  0  0  0
 14  2  1  0  0  0  0
 15 26  1  0  0  0  0
 16  7  1  0  0  0  0
 19 28  1  0  0  0  0
 20 14  2  0  0  0  0
 21 17  1  6  0  0  0
 21  9  1  0  0  0  0
 22  1  1  6  0  0  0
 22  2  1  0  0  0  0
 23  4  1  0  0  0  0
 24 11  2  0  0  0  0
 25 11  1  1  0  0  0
 25 10  1  0  0  0  0
 25 23  1  0  0  0  0
 26 16  1  0  0  0  0
 27 30  2  0  0  0  0
 28 20  1  1  0  0  0
 29 19  1  1  0  0  0
 29 28  1  0  0  0  0
 29 22  1  0  0  0  0
 30 13  1  0  0  0  0
M  END
>  <MODEL>
7

>  <REMARK>
 VINA RESULT:      -7.8      2.916      3.838
  Name = 
  0 active torsions:
  status: ('A' for Active; 'I' for Inactive)
                            x       y       z     vdW  Elec       q    Type
                         _______ _______ _______ _____ _____    ______ ____

>  <TORSDO>
F 0

$$$$
=
 OpenBabel11052417063D

 30 36  0  0  1  0  0  0  0  0999 V2000
  189.7240  175.0790  143.3280 C   0  0  0  0  0  0  0  0  0  0  0  0
  188.5540  176.9790  144.5390 C   0  0  0  0  0  0  0  0  0  0  0  0
  191.5120  176.4090  147.0120 N   0  0  0  0  0  0  0  0  0  0  0  0
  191.1000  175.3510  143.2460 C   0  0  0  0  0  0  0  0  0  0  0  0
  189.1100  174.2810  142.3560 C   0  0  0  0  0  3  0  0  0  0  0  0
  191.9990  173.1960  139.8400 S   0  0  0  0  0  0  0  0  0  0  0  0
  193.9860  176.2560  142.7130 C   0  0  1  0  0  3  0  0  0  0  0  0
  191.2400  173.9750  141.2620 C   0  0  0  0  0  0  0  0  0  0  0  0
  189.3570  172.9560  140.2850 N   0  0  0  0  0  2  0  0  0  0  0  0
  194.0010  176.4160  144.1750 N   0  0  2  0  0  0  0  0  0  0  0  0
  192.7570  176.3380  146.2980 C   0  0  0  0  0  0  0  0  0  0  0  0
  189.8820  173.7620  141.3190 C   0  0  0  0  0  0  0  0  0  0  0  0
  191.8900  174.7680  142.2300 C   0  0  0  0  0  0  0  0  0  0  0  0
  188.0710  177.5410  145.7560 N   0  0  0  0  0  0  0  0  0  0  0  0
  195.2320  175.7550  144.5390 C   0  0  0  0  0  2  0  0  0  0  0  0
  195.3130  176.3430  142.2520 O   0  0  0  0  0  0  0  0  0  0  0  0
  190.4410  170.9810  139.3860 C   0  0  0  0  0  1  0  0  0  0  0  0
  188.5600  177.6700  143.4860 O   0  0  0  0  0  0  0  0  0  0  0  0
  190.3850  175.8410  146.7020 C   0  0  0  0  0  0  0  0  0  0  0  0
  188.1900  176.9170  146.8880 C   0  0  0  0  0  3  0  0  0  0  0  0
  190.3700  172.4940  139.3460 C   0  0  2  0  0  3  0  0  0  0  0  0
  188.9190  175.5250  144.5160 C   0  0  2  0  0  3  0  0  0  0  0  0
  191.6600  176.1710  144.2150 O   0  0  0  0  0  0  0  0  0  0  0  0
  193.8010  176.7250  146.8880 O   0  0  0  0  0  0  0  0  0  0  0  0
  192.8550  175.8210  144.8820 C   0  0  1  0  0  3  0  0  0  0  0  0
  196.1220  175.9460  143.3350 C   0  0  0  0  0  2  0  0  0  0  0  0
  194.1050  174.0240  141.8290 O   0  0  0  0  0  0  0  0  0  0  0  0
  188.9100  175.5940  147.0410 C   0  0  1  0  0  3  0  0  0  0  0  0
  189.4400  174.9540  145.8590 C   0  0  2  0  0  3  0  0  0  0  0  0
  193.3580  174.9610  142.2200 C   0  0  0  0  0  0  0  0  0  0  0  0
  2 14  1  0  0  0  0
  4  1  1  0  0  0  0
  4 23  1  0  0  0  0
  5  1  2  0  0  0  0
  6  8  1  0  0  0  0
  7 30  1  1  0  0  0
  7 10  1  0  0  0  0
  8 12  2  0  0  0  0
  8 13  1  0  0  0  0
  9 12  1  0  0  0  0
 10 15  1  1  0  0  0
 10 25  1  0  0  0  0
 11 24  2  0  0  0  0
 11  3  1  0  0  0  0
 12  5  1  0  0  0  0
 13  4  2  0  0  0  0
 14 20  2  0  0  0  0
 16  7  1  0  0  0  0
 16 26  1  0  0  0  0
 18  2  2  0  0  0  0
 19  3  2  0  0  0  0
 19 28  1  0  0  0  0
 21 17  1  1  0  0  0
 21  6  1  0  0  0  0
 21  9  1  0  0  0  0
 22  1  1  6  0  0  0
 22  2  1  0  0  0  0
 22 29  1  0  0  0  0
 25 23  1  6  0  0  0
 25 11  1  0  0  0  0
 26 15  1  0  0  0  0
 27 30  2  0  0  0  0
 28 20  1  6  0  0  0
 29 19  1  6  0  0  0
 29 28  1  0  0  0  0
 30 13  1  0  0  0  0
M  END
>  <MODEL>
8

>  <REMARK>
 VINA RESULT:      -7.8      3.067      6.315
  Name = 
  0 active torsions:
  status: ('A' for Active; 'I' for Inactive)
                            x       y       z     vdW  Elec       q    Type
                         _______ _______ _______ _____ _____    ______ ____

>  <TORSDO>
F 0

$$$$
=
 OpenBabel11052417063D

 30 36  0  0  1  0  0  0  0  0999 V2000
  188.6800  174.7500  142.7900 C   0  0  0  0  0  0  0  0  0  0  0  0
  189.3390  172.3810  142.1520 C   0  0  0  0  0  0  0  0  0  0  0  0
  192.8900  173.8450  142.8100 N   0  0  0  0  0  0  0  0  0  0  0  0
  189.3540  175.1240  143.9650 C   0  0  0  0  0  0  0  0  0  0  0  0
  187.4410  175.3220  142.4810 C   0  0  0  0  0  3  0  0  0  0  0  0
  186.6630  177.9020  145.4120 S   0  0  0  0  0  0  0  0  0  0  0  0
  190.5010  175.6620  146.7610 C   0  0  1  0  0  3  0  0  0  0  0  0
  187.5730  176.6810  144.4720 C   0  0  0  0  0  0  0  0  0  0  0  0
  185.6490  176.8930  143.1340 N   0  0  0  0  0  2  0  0  0  0  0  0
  191.7680  175.3250  146.0960 N   0  0  2  0  0  0  0  0  0  0  0  0
  192.9170  174.5540  144.0600 C   0  0  0  0  0  0  0  0  0  0  0  0
  186.8970  176.2650  143.3490 C   0  0  0  0  0  0  0  0  0  0  0  0
  188.8270  176.1290  144.8070 C   0  0  0  0  0  0  0  0  0  0  0  0
  190.1900  171.5020  141.4240 N   0  0  0  0  0  0  0  0  0  0  0  0
  192.6300  176.4020  146.5220 C   0  0  0  0  0  2  0  0  0  0  0  0
  190.8050  176.2320  148.0130 O   0  0  0  0  0  0  0  0  0  0  0  0
  185.2030  179.2470  143.5150 C   0  0  0  0  0  1  0  0  0  0  0  0
  188.5340  171.9160  143.0030 O   0  0  0  0  0  0  0  0  0  0  0  0
  191.9760  173.8970  141.8870 C   0  0  0  0  0  0  0  0  0  0  0  0
  191.1350  171.9510  140.6550 C   0  0  0  0  0  3  0  0  0  0  0  0
  185.3190  177.8780  144.1550 C   0  0  2  0  0  3  0  0  0  0  0  0
  189.3280  173.8360  141.7880 C   0  0  2  0  0  3  0  0  0  0  0  0
  190.5650  174.5080  144.2450 O   0  0  0  0  0  0  0  0  0  0  0  0
  194.0030  174.5870  144.6980 O   0  0  0  0  0  0  0  0  0  0  0  0
  191.7040  175.2520  144.6270 C   0  0  1  0  0  3  0  0  0  0  0  0
  192.0910  176.7900  147.8770 C   0  0  0  0  0  2  0  0  0  0  0  0
  189.5380  177.8180  146.3110 O   0  0  0  0  0  0  0  0  0  0  0  0
  191.4730  173.4210  140.5190 C   0  0  1  0  0  3  0  0  0  0  0  0
  190.6650  174.3860  141.2300 C   0  0  2  0  0  3  0  0  0  0  0  0
  189.5990  176.6040  145.9780 C   0  0  0  0  0  0  0  0  0  0  0  0
  1  4  1  0  0  0  0
  2 18  2  0  0  0  0
  3 11  1  0  0  0  0
  4 23  1  0  0  0  0
  4 13  2  0  0  0  0
  5  1  2  0  0  0  0
  5 12  1  0  0  0  0
  7 30  1  6  0  0  0
  7 16  1  0  0  0  0
  8 13  1  0  0  0  0
  8  6  1  0  0  0  0
  9 12  1  0  0  0  0
  9 21  1  0  0  0  0
 10 15  1  6  0  0  0
 10  7  1  0  0  0  0
 11 24  2  0  0  0  0
 12  8  2  0  0  0  0
 13 30  1  0  0  0  0
 14  2  1  0  0  0  0
 15 26  1  0  0  0  0
 19  3  2  0  0  0  0
 20 14  2  0  0  0  0
 21 17  1  6  0  0  0
 21  6  1  0  0  0  0
 22  2  1  1  0  0  0
 22  1  1  0  0  0  0
 23 25  1  0  0  0  0
 25 11  1  1  0  0  0
 25 10  1  0  0  0  0
 26 16  1  0  0  0  0
 28 20  1  1  0  0  0
 28 29  1  0  0  0  0
 28 19  1  0  0  0  0
 29 22  1  0  0  0  0
 29 19  1  1  0  0  0
 30 27  2  0  0  0  0
M  END
>  <MODEL>
9

>  <REMARK>
 VINA RESULT:      -7.7      2.762      6.910
  Name = 
  0 active torsions:
  status: ('A' for Active; 'I' for Inactive)
                            x       y       z     vdW  Elec       q    Type
                         _______ _______ _______ _____ _____    ______ ____

>  <TORSDO>
F 0

$$$$
