=
 OpenBabel11052420183D

 34 38  0  0  1  0  0  0  0  0999 V2000
  188.9020  174.7890  145.5680 C   0  0  2  0  0  3  0  0  0  0  0  0
  188.1980  177.8080  143.1900 C   0  0  0  0  0  2  0  0  0  0  0  0
  185.4350  179.2160  144.8340 C   0  0  0  0  0  0  0  0  0  0  0  0
  189.6390  175.8920  143.0020 O   0  0  0  0  0  0  0  0  0  0  0  0
  190.3960  172.8400  144.9570 C   0  0  0  0  0  3  0  0  0  0  0  0
  191.6790  172.8170  142.9050 C   0  0  0  0  0  3  0  0  0  0  0  0
  184.8140  179.1910  145.9300 O   0  0  0  0  0  1  0  0  0  0  0  0
  191.3040  172.2060  144.1040 C   0  0  0  0  0  3  0  0  0  0  0  0
  190.2110  174.6810  143.3920 C   0  0  0  0  0  0  0  0  0  0  0  0
  189.8610  174.0920  144.6220 C   0  0  0  0  0  0  0  0  0  0  0  0
  191.1330  174.0520  142.5490 C   0  0  0  0  0  3  0  0  0  0  0  0
  186.7050  178.0490  143.0180 C   0  0  0  0  0  2  0  0  0  0  0  0
  185.5410  180.4150  144.1380 O   0  0  0  0  0  0  0  0  0  0  0  0
  186.0210  178.0190  144.3050 N   0  0  0  0  0  0  0  0  0  0  0  0
  186.0100  176.7840  145.0830 C   0  0  0  0  0  2  0  0  0  0  0  0
  188.4450  176.3680  143.6110 C   0  0  1  0  0  3  0  0  0  0  0  0
  187.2840  176.6970  145.9130 C   0  0  0  0  0  2  0  0  0  0  0  0
  188.5300  176.2230  145.1410 C   0  0  1  0  0  3  0  0  0  0  0  0
  189.4210  174.7870  147.0130 C   0  0  0  0  0  2  0  0  0  0  0  0
  190.3160  175.9890  147.3020 C   0  0  0  0  0  2  0  0  0  0  0  0
  191.7540  175.5550  147.5470 C   0  0  0  0  0  2  0  0  0  0  0  0
  193.1890  176.7460  144.2780 N   0  0  0  0  0  0  0  0  0  0  0  0
  193.4390  174.5700  145.9790 C   0  0  0  0  0  3  0  0  0  0  0  0
  195.7280  174.8110  142.4680 C   0  0  0  0  0  0  0  0  0  0  0  0
  194.8290  175.8370  142.7960 C   0  0  0  0  0  3  0  0  0  0  0  0
  194.0640  175.7540  143.9620 C   0  0  0  0  0  0  0  0  0  0  0  0
  195.0940  173.6160  144.4870 C   0  0  0  0  0  3  0  0  0  0  0  0
  194.2000  174.6370  144.8130 C   0  0  0  0  0  0  0  0  0  0  0  0
  195.8540  173.7030  143.3170 C   0  0  0  0  0  3  0  0  0  0  0  0
  192.5530  175.6060  146.2860 C   0  0  0  0  0  0  0  0  0  0  0  0
  192.4360  176.6930  145.4110 C   0  0  0  0  0  3  0  0  0  0  0  0
  196.5440  174.8950  141.2470 C   0  0  0  0  0  0  0  0  0  0  0  0
  197.0500  173.7680  140.6880 F   0  0  0  0  0  0  0  0  0  0  0  0
  196.7810  176.0100  140.7090 O   0  0  0  0  0  0  0  0  0  0  0  0
  1 19  1  1  0  0  0
  3  7  1  0  0  0  0
  4  9  1  0  0  0  0
  4 16  1  0  0  0  0
  6  8  1  0  0  0  0
  8  5  2  0  0  0  0
  9 10  2  0  0  0  0
 10  5  1  0  0  0  0
 10  1  1  0  0  0  0
 11  6  2  0  0  0  0
 11  9  1  0  0  0  0
 12  2  1  0  0  0  0
 12 14  1  0  0  0  0
 13  3  2  0  0  0  0
 14  3  1  0  0  0  0
 14 15  1  0  0  0  0
 15 17  1  0  0  0  0
 16  2  1  1  0  0  0
 16 18  1  0  0  0  0
 18  1  1  0  0  0  0
 18 17  1  1  0  0  0
 19 20  1  0  0  0  0
 20 21  1  0  0  0  0
 22 31  1  0  0  0  0
 23 30  1  0  0  0  0
 24 25  2  0  0  0  0
 24 29  1  0  0  0  0
 25 26  1  0  0  0  0
 26 22  2  0  0  0  0
 26 28  1  0  0  0  0
 27 28  1  0  0  0  0
 28 23  2  0  0  0  0
 29 27  2  0  0  0  0
 30 21  1  0  0  0  0
 31 30  2  0  0  0  0
 32 24  1  0  0  0  0
 33 32  1  0  0  0  0
 34 32  2  0  0  0  0
M  END
>  <MODEL>
1

>  <REMARK>
 VINA RESULT:      -7.9      0.000      0.000
  Name = 
  5 active torsions:
  status: ('A' for Active; 'I' for Inactive)
    1  A    between atoms: C_1  and  C_9
    2  A    between atoms: C_7  and  C_11
    3  A    between atoms: C_8  and  C_9
    4  A    between atoms: C_8  and  C_18
    5  A    between atoms: C_18  and  C_30
                            x       y       z     vdW  Elec       q    Type
                         _______ _______ _______ _____ _____    ______ ____

>  <TORSDO>
F 5

$$$$
=
 OpenBabel11052420183D

 34 38  0  0  1  0  0  0  0  0999 V2000
  188.1730  176.1200  144.9460 C   0  0  2  0  0  3  0  0  0  0  0  0
  191.2010  176.9970  147.2540 C   0  0  0  0  0  2  0  0  0  0  0  0
  193.6040  174.8120  145.9230 C   0  0  0  0  0  0  0  0  0  0  0  0
  188.8700  177.5800  147.3390 O   0  0  0  0  0  0  0  0  0  0  0  0
  185.7860  176.7960  145.4450 C   0  0  0  0  0  3  0  0  0  0  0  0
  185.2380  178.2370  147.3100 C   0  0  0  0  0  3  0  0  0  0  0  0
  193.8370  174.0860  144.9210 O   0  0  0  0  0  0  0  0  0  0  0  0
  184.8370  177.4900  146.2000 C   0  0  0  0  0  3  0  0  0  0  0  0
  187.5350  177.5690  146.9340 C   0  0  0  0  0  0  0  0  0  0  0  0
  187.1450  176.8480  145.7890 C   0  0  0  0  0  0  0  0  0  0  0  0
  186.5850  178.2760  147.6770 C   0  0  0  0  0  3  0  0  0  0  0  0
  192.0120  175.7580  147.6080 C   0  0  0  0  0  2  0  0  0  0  0  0
  194.6560  175.4760  146.5430 O   0  0  0  0  0  1  0  0  0  0  0  0
  192.2670  174.9470  146.4250 N   0  0  0  0  0  0  0  0  0  0  0  0
  191.1460  174.3430  145.7130 C   0  0  0  0  0  2  0  0  0  0  0  0
  189.7850  176.5970  146.8710 C   0  0  1  0  0  3  0  0  0  0  0  0
  190.5700  175.3520  144.7280 C   0  0  0  0  0  2  0  0  0  0  0  0
  189.6330  176.4050  145.3520 C   0  0  1  0  0  3  0  0  0  0  0  0
  187.9800  176.3910  143.4470 C   0  0  0  0  0  2  0  0  0  0  0  0
  188.4430  177.7910  143.0530 C   0  0  0  0  0  2  0  0  0  0  0  0
  188.1890  178.0570  141.5760 C   0  0  0  0  0  2  0  0  0  0  0  0
  184.9160  177.6880  139.7560 N   0  0  0  0  0  0  0  0  0  0  0  0
  185.8140  178.4310  142.2720 C   0  0  0  0  0  3  0  0  0  0  0  0
  181.7070  178.3550  141.4050 C   0  0  0  0  0  0  0  0  0  0  0  0
  182.6420  177.9990  140.4220 C   0  0  0  0  0  3  0  0  0  0  0  0
  184.0090  178.0290  140.7100 C   0  0  0  0  0  0  0  0  0  0  0  0
  183.5170  178.7700  142.9720 C   0  0  0  0  0  3  0  0  0  0  0  0
  184.4480  178.4150  141.9940 C   0  0  0  0  0  0  0  0  0  0  0  0
  182.1520  178.7420  142.6770 C   0  0  0  0  0  3  0  0  0  0  0  0
  186.7260  178.0690  141.2780 C   0  0  0  0  0  0  0  0  0  0  0  0
  186.2530  177.7030  140.0120 C   0  0  0  0  0  3  0  0  0  0  0  0
  180.2650  178.3180  141.1130 C   0  0  0  0  0  0  0  0  0  0  0  0
  179.7740  178.9600  140.0250 F   0  0  0  0  0  0  0  0  0  0  0  0
  179.4740  177.6920  141.8690 O   0  0  0  0  0  0  0  0  0  0  0  0
  1 19  1  6  0  0  0
  1 18  1  0  0  0  0
  1 10  1  0  0  0  0
  2 12  1  0  0  0  0
  3 14  1  0  0  0  0
  3 13  1  0  0  0  0
  5 10  2  0  0  0  0
  5  8  1  0  0  0  0
  6 11  1  0  0  0  0
  7  3  2  0  0  0  0
  8  6  2  0  0  0  0
  9  4  1  0  0  0  0
  9 11  2  0  0  0  0
 10  9  1  0  0  0  0
 14 12  1  0  0  0  0
 15 14  1  0  0  0  0
 16  2  1  6  0  0  0
 16  4  1  0  0  0  0
 17 15  1  0  0  0  0
 18 17  1  1  0  0  0
 18 16  1  0  0  0  0
 20 19  1  0  0  0  0
 21 20  1  0  0  0  0
 22 31  2  0  0  0  0
 22 26  1  0  0  0  0
 24 29  1  0  0  0  0
 25 26  1  0  0  0  0
 25 24  2  0  0  0  0
 26 28  2  0  0  0  0
 28 23  1  0  0  0  0
 28 27  1  0  0  0  0
 29 27  2  0  0  0  0
 30 21  1  0  0  0  0
 30 23  2  0  0  0  0
 31 30  1  0  0  0  0
 32 24  1  0  0  0  0
 32 34  2  0  0  0  0
 33 32  1  0  0  0  0
M  END
>  <MODEL>
2

>  <REMARK>
 VINA RESULT:      -7.8      4.422      9.597
  Name = 
  5 active torsions:
  status: ('A' for Active; 'I' for Inactive)
    1  A    between atoms: C_1  and  C_9
    2  A    between atoms: C_7  and  C_11
    3  A    between atoms: C_8  and  C_9
    4  A    between atoms: C_8  and  C_18
    5  A    between atoms: C_18  and  C_30
                            x       y       z     vdW  Elec       q    Type
                         _______ _______ _______ _____ _____    ______ ____

>  <TORSDO>
F 5

$$$$
=
 OpenBabel11052420183D

 34 38  0  0  1  0  0  0  0  0999 V2000
  189.7640  177.4450  144.1310 C   0  0  2  0  0  3  0  0  0  0  0  0
  187.3070  176.8060  147.1000 C   0  0  0  0  0  2  0  0  0  0  0  0
  184.4220  178.3370  145.8120 C   0  0  0  0  0  0  0  0  0  0  0  0
  189.6830  176.5220  146.8670 O   0  0  0  0  0  0  0  0  0  0  0  0
  192.2740  177.1750  144.3040 C   0  0  0  0  0  3  0  0  0  0  0  0
  193.3220  176.2830  146.2950 C   0  0  0  0  0  3  0  0  0  0  0  0
  183.9260  178.7750  144.7400 O   0  0  0  0  0  0  0  0  0  0  0  0
  193.4250  176.7880  144.9970 C   0  0  0  0  0  3  0  0  0  0  0  0
  190.9190  176.5850  146.2250 C   0  0  0  0  0  0  0  0  0  0  0  0
  191.0110  177.0550  144.9010 C   0  0  0  0  0  0  0  0  0  0  0  0
  192.0710  176.1830  146.9090 C   0  0  0  0  0  3  0  0  0  0  0  0
  186.3840  177.9960  147.3290 C   0  0  0  0  0  2  0  0  0  0  0  0
  183.5940  177.7240  146.7450 O   0  0  0  0  0  1  0  0  0  0  0  0
  185.8260  178.4730  146.0700 N   0  0  0  0  0  0  0  0  0  0  0  0
  186.7170  179.0120  145.0490 C   0  0  0  0  0  2  0  0  0  0  0  0
  188.5670  177.2600  146.3810 C   0  0  1  0  0  3  0  0  0  0  0  0
  187.2760  177.8690  144.2100 C   0  0  0  0  0  2  0  0  0  0  0  0
  188.4470  177.1040  144.8550 C   0  0  1  0  0  3  0  0  0  0  0  0
  189.7560  176.8520  142.7150 C   0  0  0  0  0  2  0  0  0  0  0  0
  189.2980  175.3960  142.7060 C   0  0  0  0  0  2  0  0  0  0  0  0
  190.1100  174.5730  141.7160 C   0  0  0  0  0  2  0  0  0  0  0  0
  193.8550  174.4520  142.0580 N   0  0  0  0  0  0  0  0  0  0  0  0
  191.6190  173.6130  143.4670 C   0  0  0  0  0  3  0  0  0  0  0  0
  195.4770  172.9120  144.9670 C   0  0  0  0  0  0  0  0  0  0  0  0
  195.3060  173.5790  143.7450 C   0  0  0  0  0  3  0  0  0  0  0  0
  194.0220  173.8080  143.2440 C   0  0  0  0  0  0  0  0  0  0  0  0
  193.0650  172.7050  145.1880 C   0  0  0  0  0  3  0  0  0  0  0  0
  192.8950  173.3700  143.9730 C   0  0  0  0  0  0  0  0  0  0  0  0
  194.3520  172.4760  145.6820 C   0  0  0  0  0  3  0  0  0  0  0  0
  191.4740  174.2830  142.2500 C   0  0  0  0  0  0  0  0  0  0  0  0
  192.6150  174.6930  141.5500 C   0  0  0  0  0  3  0  0  0  0  0  0
  196.8250  172.6740  145.5060 C   0  0  0  0  0  0  0  0  0  0  0  0
  197.2090  173.2660  146.6640 F   0  0  0  0  0  0  0  0  0  0  0  0
  197.6340  171.9220  144.9000 O   0  0  0  0  0  0  0  0  0  0  0  0
  1 19  1  6  0  0  0
  1 18  1  0  0  0  0
  1 10  1  0  0  0  0
  2 12  1  0  0  0  0
  3 14  1  0  0  0  0
  3 13  1  0  0  0  0
  5 10  2  0  0  0  0
  5  8  1  0  0  0  0
  6 11  1  0  0  0  0
  7  3  2  0  0  0  0
  8  6  2  0  0  0  0
  9  4  1  0  0  0  0
  9 11  2  0  0  0  0
 10  9  1  0  0  0  0
 14 12  1  0  0  0  0
 15 14  1  0  0  0  0
 16  4  1  0  0  0  0
 16  2  1  1  0  0  0
 17 15  1  0  0  0  0
 18 17  1  6  0  0  0
 18 16  1  0  0  0  0
 20 19  1  0  0  0  0
 21 30  1  0  0  0  0
 21 20  1  0  0  0  0
 22 26  1  0  0  0  0
 23 28  1  0  0  0  0
 24 32  1  0  0  0  0
 24 29  1  0  0  0  0
 25 24  2  0  0  0  0
 26 25  1  0  0  0  0
 26 28  2  0  0  0  0
 27 29  2  0  0  0  0
 28 27  1  0  0  0  0
 30 23  2  0  0  0  0
 31 22  2  0  0  0  0
 31 30  1  0  0  0  0
 32 33  1  0  0  0  0
 34 32  2  0  0  0  0
M  END
>  <MODEL>
3

>  <REMARK>
 VINA RESULT:      -7.6      2.307      3.851
  Name = 
  5 active torsions:
  status: ('A' for Active; 'I' for Inactive)
    1  A    between atoms: C_1  and  C_9
    2  A    between atoms: C_7  and  C_11
    3  A    between atoms: C_8  and  C_9
    4  A    between atoms: C_8  and  C_18
    5  A    between atoms: C_18  and  C_30
                            x       y       z     vdW  Elec       q    Type
                         _______ _______ _______ _____ _____    ______ ____

>  <TORSDO>
F 5

$$$$
=
 OpenBabel11052420183D

 34 38  0  0  1  0  0  0  0  0999 V2000
  189.0050  175.0010  145.8880 C   0  0  2  0  0  3  0  0  0  0  0  0
  187.5010  177.5130  143.3010 C   0  0  0  0  0  2  0  0  0  0  0  0
  184.9380  178.9020  145.2570 C   0  0  0  0  0  0  0  0  0  0  0  0
  189.1090  175.7370  143.0970 O   0  0  0  0  0  0  0  0  0  0  0  0
  190.5900  173.1280  145.2670 C   0  0  0  0  0  3  0  0  0  0  0  0
  191.4610  172.8940  143.0220 C   0  0  0  0  0  3  0  0  0  0  0  0
  184.5400  178.9980  146.4480 O   0  0  0  0  0  1  0  0  0  0  0  0
  191.3940  172.4530  144.3460 C   0  0  0  0  0  3  0  0  0  0  0  0
  189.8890  174.6650  143.5290 C   0  0  0  0  0  0  0  0  0  0  0  0
  189.8500  174.2530  144.8750 C   0  0  0  0  0  0  0  0  0  0  0  0
  190.7090  173.9970  142.6140 C   0  0  0  0  0  3  0  0  0  0  0  0
  185.9830  177.5810  143.4040 C   0  0  0  0  0  2  0  0  0  0  0  0
  184.7630  179.9770  144.3920 O   0  0  0  0  0  0  0  0  0  0  0  0
  185.5600  177.6960  144.7940 N   0  0  0  0  0  0  0  0  0  0  0  0
  185.8470  176.6090  145.7240 C   0  0  0  0  0  2  0  0  0  0  0  0
  187.9990  176.1900  143.8620 C   0  0  1  0  0  3  0  0  0  0  0  0
  187.2550  176.7790  146.2820 C   0  0  0  0  0  2  0  0  0  0  0  0
  188.3840  176.3050  145.3470 C   0  0  1  0  0  3  0  0  0  0  0  0
  189.7800  175.2840  147.1830 C   0  0  0  0  0  2  0  0  0  0  0  0
  190.4950  176.6310  147.1400 C   0  0  0  0  0  2  0  0  0  0  0  0
  191.9720  176.4780  147.4730 C   0  0  0  0  0  2  0  0  0  0  0  0
  193.3350  176.0970  143.9870 N   0  0  0  0  0  0  0  0  0  0  0  0
  193.5940  174.8650  146.4570 C   0  0  0  0  0  3  0  0  0  0  0  0
  195.7870  173.5000  143.1470 C   0  0  0  0  0  0  0  0  0  0  0  0
  194.9160  174.5910  143.0140 C   0  0  0  0  0  3  0  0  0  0  0  0
  194.1830  175.0420  144.1150 C   0  0  0  0  0  0  0  0  0  0  0  0
  195.1890  173.3120  145.4950 C   0  0  0  0  0  3  0  0  0  0  0  0
  194.3230  174.3990  145.3630 C   0  0  0  0  0  0  0  0  0  0  0  0
  195.9170  172.8640  144.3890 C   0  0  0  0  0  3  0  0  0  0  0  0
  192.7360  175.9560  146.3010 C   0  0  0  0  0  0  0  0  0  0  0  0
  192.6140  176.5610  145.0440 C   0  0  0  0  0  3  0  0  0  0  0  0
  196.5690  173.0240  141.9950 C   0  0  0  0  0  0  0  0  0  0  0  0
  197.7250  173.6460  141.6540 F   0  0  0  0  0  0  0  0  0  0  0  0
  196.1750  172.0390  141.3160 O   0  0  0  0  0  0  0  0  0  0  0  0
  1 19  1  1  0  0  0
  2 12  1  0  0  0  0
  3  7  1  0  0  0  0
  4  9  1  0  0  0  0
  4 16  1  0  0  0  0
  6  8  1  0  0  0  0
  8  5  2  0  0  0  0
  9 10  2  0  0  0  0
 10  5  1  0  0  0  0
 10  1  1  0  0  0  0
 11  6  2  0  0  0  0
 11  9  1  0  0  0  0
 12 14  1  0  0  0  0
 13  3  2  0  0  0  0
 14  3  1  0  0  0  0
 14 15  1  0  0  0  0
 15 17  1  0  0  0  0
 16  2  1  6  0  0  0
 16 18  1  0  0  0  0
 18  1  1  0  0  0  0
 18 17  1  1  0  0  0
 20 19  1  0  0  0  0
 20 21  1  0  0  0  0
 22 26  2  0  0  0  0
 22 31  1  0  0  0  0
 24 29  1  0  0  0  0
 25 24  2  0  0  0  0
 25 26  1  0  0  0  0
 26 28  1  0  0  0  0
 28 27  1  0  0  0  0
 28 23  2  0  0  0  0
 29 27  2  0  0  0  0
 30 23  1  0  0  0  0
 30 21  1  0  0  0  0
 31 30  2  0  0  0  0
 32 24  1  0  0  0  0
 33 32  1  0  0  0  0
 34 32  2  0  0  0  0
M  END
>  <MODEL>
4

>  <REMARK>
 VINA RESULT:      -7.4      1.025      1.067
  Name = 
  5 active torsions:
  status: ('A' for Active; 'I' for Inactive)
    1  A    between atoms: C_1  and  C_9
    2  A    between atoms: C_7  and  C_11
    3  A    between atoms: C_8  and  C_9
    4  A    between atoms: C_8  and  C_18
    5  A    between atoms: C_18  and  C_30
                            x       y       z     vdW  Elec       q    Type
                         _______ _______ _______ _____ _____    ______ ____

>  <TORSDO>
F 5

$$$$
=
 OpenBabel11052420183D

 34 38  0  0  1  0  0  0  0  0999 V2000
  191.2660  173.6510  145.1690 C   0  0  2  0  0  3  0  0  0  0  0  0
  194.7460  175.4140  145.3840 C   0  0  0  0  0  2  0  0  0  0  0  0
  196.8320  172.6740  144.7040 C   0  0  0  0  0  0  0  0  0  0  0  0
  192.5230  176.1290  145.9580 O   0  0  0  0  0  0  0  0  0  0  0  0
  189.1170  174.6780  146.0270 C   0  0  0  0  0  3  0  0  0  0  0  0
  189.0390  176.9480  146.8630 C   0  0  0  0  0  3  0  0  0  0  0  0
  196.8110  171.4990  144.2510 O   0  0  0  0  0  0  0  0  0  0  0  0
  188.3930  175.7460  146.5630 C   0  0  0  0  0  3  0  0  0  0  0  0
  191.1450  176.0030  146.1260 C   0  0  0  0  0  0  0  0  0  0  0  0
  190.4920  174.8030  145.7820 C   0  0  0  0  0  0  0  0  0  0  0  0
  190.4130  177.0760  146.6460 C   0  0  0  0  0  3  0  0  0  0  0  0
  195.7880  174.5170  146.0390 C   0  0  0  0  0  2  0  0  0  0  0  0
  197.9320  173.4840  144.4450 O   0  0  0  0  0  1  0  0  0  0  0  0
  195.7370  173.1700  145.4860 N   0  0  0  0  0  0  0  0  0  0  0  0
  194.5340  172.3650  145.6670 C   0  0  0  0  0  2  0  0  0  0  0  0
  193.3510  174.9820  145.8090 C   0  0  1  0  0  3  0  0  0  0  0  0
  193.5290  172.7030  144.5720 C   0  0  0  0  0  2  0  0  0  0  0  0
  192.7240  173.9960  144.8090 C   0  0  1  0  0  3  0  0  0  0  0  0
  190.5450  173.0630  143.9480 C   0  0  0  0  0  2  0  0  0  0  0  0
  191.2390  173.4340  142.6400 C   0  0  0  0  0  2  0  0  0  0  0  0
  190.2490  174.0140  141.6400 C   0  0  0  0  0  2  0  0  0  0  0  0
  189.4820  177.4150  143.0540 N   0  0  0  0  0  0  0  0  0  0  0  0
  188.1290  175.0710  142.4500 C   0  0  0  0  0  3  0  0  0  0  0  0
  186.0740  178.3800  144.0160 C   0  0  0  0  0  0  0  0  0  0  0  0
  187.4560  178.4510  143.7890 C   0  0  0  0  0  3  0  0  0  0  0  0
  188.1410  177.3480  143.2710 C   0  0  0  0  0  0  0  0  0  0  0  0
  186.0620  176.0900  143.2020 C   0  0  0  0  0  3  0  0  0  0  0  0
  187.4370  176.1610  142.9750 C   0  0  0  0  0  0  0  0  0  0  0  0
  185.3840  177.1950  143.7230 C   0  0  0  0  0  3  0  0  0  0  0  0
  189.5050  175.1680  142.2280 C   0  0  0  0  0  0  0  0  0  0  0  0
  190.1710  176.3570  142.5450 C   0  0  0  0  0  3  0  0  0  0  0  0
  185.3450  179.5390  144.5520 C   0  0  0  0  0  0  0  0  0  0  0  0
  185.5760  180.7790  144.0540 F   0  0  0  0  0  0  0  0  0  0  0  0
  184.5010  179.3940  145.4760 O   0  0  0  0  0  0  0  0  0  0  0  0
  1 19  1  6  0  0  0
  1 10  1  0  0  0  0
  2 12  1  0  0  0  0
  3 14  1  0  0  0  0
  4  9  1  0  0  0  0
  5  8  1  0  0  0  0
  7  3  2  0  0  0  0
  8  6  2  0  0  0  0
  9 11  2  0  0  0  0
 10  5  2  0  0  0  0
 10  9  1  0  0  0  0
 11  6  1  0  0  0  0
 13  3  1  0  0  0  0
 14 15  1  0  0  0  0
 14 12  1  0  0  0  0
 16  2  1  6  0  0  0
 16  4  1  0  0  0  0
 17 15  1  0  0  0  0
 18 17  1  1  0  0  0
 18  1  1  0  0  0  0
 18 16  1  0  0  0  0
 20 19  1  0  0  0  0
 21 30  1  0  0  0  0
 21 20  1  0  0  0  0
 22 26  1  0  0  0  0
 23 28  1  0  0  0  0
 24 32  1  0  0  0  0
 25 24  1  0  0  0  0
 26 25  2  0  0  0  0
 27 29  1  0  0  0  0
 28 27  2  0  0  0  0
 28 26  1  0  0  0  0
 29 24  2  0  0  0  0
 30 23  2  0  0  0  0
 30 31  1  0  0  0  0
 31 22  2  0  0  0  0
 32 34  2  0  0  0  0
 33 32  1  0  0  0  0
M  END
>  <MODEL>
5

>  <REMARK>
 VINA RESULT:      -7.4      3.218      8.367
  Name = 
  5 active torsions:
  status: ('A' for Active; 'I' for Inactive)
    1  A    between atoms: C_1  and  C_9
    2  A    between atoms: C_7  and  C_11
    3  A    between atoms: C_8  and  C_9
    4  A    between atoms: C_8  and  C_18
    5  A    between atoms: C_18  and  C_30
                            x       y       z     vdW  Elec       q    Type
                         _______ _______ _______ _____ _____    ______ ____

>  <TORSDO>
F 5

$$$$
=
 OpenBabel11052420183D

 34 38  0  0  1  0  0  0  0  0999 V2000
  188.3680  176.4120  145.9010 C   0  0  2  0  0  3  0  0  0  0  0  0
  186.8300  176.1000  142.3240 C   0  0  0  0  0  2  0  0  0  0  0  0
  189.3620  174.2400  140.7590 C   0  0  0  0  0  0  0  0  0  0  0  0
  186.2190  177.4070  144.2470 O   0  0  0  0  0  0  0  0  0  0  0  0
  187.5330  178.0400  147.6500 C   0  0  0  0  0  3  0  0  0  0  0  0
  185.5560  179.3890  147.2900 C   0  0  0  0  0  3  0  0  0  0  0  0
  190.3780  173.5390  141.0100 O   0  0  0  0  0  1  0  0  0  0  0  0
  186.6180  178.9930  148.1060 C   0  0  0  0  0  3  0  0  0  0  0  0
  186.3420  177.9060  145.5430 C   0  0  0  0  0  0  0  0  0  0  0  0
  187.3910  177.4700  146.3770 C   0  0  0  0  0  0  0  0  0  0  0  0
  185.4190  178.8470  146.0100 C   0  0  0  0  0  3  0  0  0  0  0  0
  187.8970  176.2120  141.2430 C   0  0  0  0  0  2  0  0  0  0  0  0
  188.5470  173.8980  139.6860 O   0  0  0  0  0  0  0  0  0  0  0  0
  189.0530  175.3850  141.5650 N   0  0  0  0  0  0  0  0  0  0  0  0
  189.8390  175.6830  142.7570 C   0  0  0  0  0  2  0  0  0  0  0  0
  187.3130  176.7680  143.6010 C   0  0  1  0  0  3  0  0  0  0  0  0
  189.1980  175.0160  143.9680 C   0  0  0  0  0  2  0  0  0  0  0  0
  187.9860  175.7660  144.5550 C   0  0  1  0  0  3  0  0  0  0  0  0
  188.5960  175.3260  146.9620 C   0  0  0  0  0  2  0  0  0  0  0  0
  189.9610  175.4560  147.6310 C   0  0  0  0  0  2  0  0  0  0  0  0
  190.8350  176.4660  146.9020 C   0  0  0  0  0  2  0  0  0  0  0  0
  194.4990  176.0500  146.1530 N   0  0  0  0  0  0  0  0  0  0  0  0
  192.1940  174.5080  146.1390 C   0  0  0  0  0  3  0  0  0  0  0  0
  195.8980  172.8230  145.1050 C   0  0  0  0  0  0  0  0  0  0  0  0
  195.8150  174.1760  145.4670 C   0  0  0  0  0  3  0  0  0  0  0  0
  194.5810  174.7370  145.8060 C   0  0  0  0  0  0  0  0  0  0  0  0
  193.5000  172.5930  145.4270 C   0  0  0  0  0  3  0  0  0  0  0  0
  193.4180  173.9390  145.7880 C   0  0  0  0  0  0  0  0  0  0  0  0
  194.7370  172.0380  145.0860 C   0  0  0  0  0  3  0  0  0  0  0  0
  192.1370  175.8560  146.4990 C   0  0  0  0  0  0  0  0  0  0  0  0
  193.3110  176.6200  146.4940 C   0  0  0  0  0  3  0  0  0  0  0  0
  197.1940  172.2220  144.7550 C   0  0  0  0  0  0  0  0  0  0  0  0
  197.5980  171.0750  145.3560 F   0  0  0  0  0  0  0  0  0  0  0  0
  197.9410  172.7640  143.8970 O   0  0  0  0  0  0  0  0  0  0  0  0
  1 10  1  0  0  0  0
  1 19  1  1  0  0  0
  3  7  1  0  0  0  0
  3 14  1  0  0  0  0
  4  9  1  0  0  0  0
  5  8  1  0  0  0  0
  6  8  2  0  0  0  0
  9 11  2  0  0  0  0
  9 10  1  0  0  0  0
 10  5  2  0  0  0  0
 11  6  1  0  0  0  0
 12 14  1  0  0  0  0
 12  2  1  0  0  0  0
 13  3  2  0  0  0  0
 14 15  1  0  0  0  0
 15 17  1  0  0  0  0
 16  2  1  6  0  0  0
 16  4  1  0  0  0  0
 16 18  1  0  0  0  0
 18 17  1  6  0  0  0
 18  1  1  0  0  0  0
 19 20  1  0  0  0  0
 21 20  1  0  0  0  0
 22 31  1  0  0  0  0
 23 30  1  0  0  0  0
 24 25  2  0  0  0  0
 25 26  1  0  0  0  0
 26 22  2  0  0  0  0
 27 28  1  0  0  0  0
 28 26  1  0  0  0  0
 28 23  2  0  0  0  0
 29 24  1  0  0  0  0
 29 27  2  0  0  0  0
 30 21  1  0  0  0  0
 31 30  2  0  0  0  0
 32 24  1  0  0  0  0
 32 33  1  0  0  0  0
 34 32  2  0  0  0  0
M  END
>  <MODEL>
6

>  <REMARK>
 VINA RESULT:      -7.3      2.472      4.771
  Name = 
  5 active torsions:
  status: ('A' for Active; 'I' for Inactive)
    1  A    between atoms: C_1  and  C_9
    2  A    between atoms: C_7  and  C_11
    3  A    between atoms: C_8  and  C_9
    4  A    between atoms: C_8  and  C_18
    5  A    between atoms: C_18  and  C_30
                            x       y       z     vdW  Elec       q    Type
                         _______ _______ _______ _____ _____    ______ ____

>  <TORSDO>
F 5

$$$$
=
 OpenBabel11052420183D

 34 38  0  0  1  0  0  0  0  0999 V2000
  191.4040  174.2030  144.5970 C   0  0  2  0  0  3  0  0  0  0  0  0
  193.7720  171.1260  144.1650 C   0  0  0  0  0  2  0  0  0  0  0  0
  196.6350  172.3600  145.7790 C   0  0  0  0  0  0  0  0  0  0  0  0
  191.6250  171.6680  143.2290 O   0  0  0  0  0  0  0  0  0  0  0  0
  189.2480  174.5060  143.3050 C   0  0  0  0  0  3  0  0  0  0  0  0
  188.3890  172.7790  141.8440 C   0  0  0  0  0  3  0  0  0  0  0  0
  197.0200  173.2780  146.5500 O   0  0  0  0  0  1  0  0  0  0  0  0
  188.2660  174.0440  142.4250 C   0  0  0  0  0  3  0  0  0  0  0  0
  190.4960  172.4520  142.9920 C   0  0  0  0  0  0  0  0  0  0  0  0
  190.3580  173.7080  143.6150 C   0  0  0  0  0  0  0  0  0  0  0  0
  189.5020  171.9850  142.1260 C   0  0  0  0  0  3  0  0  0  0  0  0
  195.2060  171.5570  143.8860 C   0  0  0  0  0  2  0  0  0  0  0  0
  197.2090  171.0980  145.8800 O   0  0  0  0  0  0  0  0  0  0  0  0
  195.6180  172.6150  144.8000 N   0  0  0  0  0  0  0  0  0  0  0  0
  194.9340  173.9030  144.7630 C   0  0  0  0  0  2  0  0  0  0  0  0
  192.8110  172.2360  143.7710 C   0  0  1  0  0  3  0  0  0  0  0  0
  193.6810  173.8360  145.6260 C   0  0  0  0  0  2  0  0  0  0  0  0
  192.4710  173.1510  144.9600 C   0  0  1  0  0  3  0  0  0  0  0  0
  190.7670  174.7700  145.8730 C   0  0  0  0  0  2  0  0  0  0  0  0
  191.0260  176.2660  146.0270 C   0  0  0  0  0  2  0  0  0  0  0  0
  189.9050  176.9390  146.8070 C   0  0  0  0  0  2  0  0  0  0  0  0
  186.3020  176.9100  145.7210 N   0  0  0  0  0  0  0  0  0  0  0  0
  188.7790  177.5660  144.6610 C   0  0  0  0  0  3  0  0  0  0  0  0
  185.2850  178.0360  142.3800 C   0  0  0  0  0  0  0  0  0  0  0  0
  185.2100  177.5470  143.6930 C   0  0  0  0  0  3  0  0  0  0  0  0
  186.3730  177.3870  144.4500 C   0  0  0  0  0  0  0  0  0  0  0  0
  187.7010  178.2060  142.5850 C   0  0  0  0  0  3  0  0  0  0  0  0
  187.6260  177.7210  143.8920 C   0  0  0  0  0  0  0  0  0  0  0  0
  186.5340  178.3610  141.8320 C   0  0  0  0  0  3  0  0  0  0  0  0
  188.6780  177.0810  145.9670 C   0  0  0  0  0  0  0  0  0  0  0  0
  187.4190  176.7500  146.4830 C   0  0  0  0  0  3  0  0  0  0  0  0
  184.0650  178.2160  141.5790 C   0  0  0  0  0  0  0  0  0  0  0  0
  182.8460  178.0440  142.1470 F   0  0  0  0  0  0  0  0  0  0  0  0
  184.1380  178.5300  140.3610 O   0  0  0  0  0  0  0  0  0  0  0  0
  1 18  1  0  0  0  0
  1 19  1  1  0  0  0
  3 13  2  0  0  0  0
  3  7  1  0  0  0  0
  4 16  1  0  0  0  0
  5 10  1  0  0  0  0
  6 11  2  0  0  0  0
  6  8  1  0  0  0  0
  8  5  2  0  0  0  0
  9  4  1  0  0  0  0
  9 10  2  0  0  0  0
 10  1  1  0  0  0  0
 11  9  1  0  0  0  0
 12  2  1  0  0  0  0
 12 14  1  0  0  0  0
 14  3  1  0  0  0  0
 15 14  1  0  0  0  0
 15 17  1  0  0  0  0
 16  2  1  1  0  0  0
 16 18  1  0  0  0  0
 18 17  1  6  0  0  0
 19 20  1  0  0  0  0
 20 21  1  0  0  0  0
 22 31  1  0  0  0  0
 23 30  1  0  0  0  0
 24 25  2  0  0  0  0
 25 26  1  0  0  0  0
 26 22  2  0  0  0  0
 27 28  1  0  0  0  0
 28 26  1  0  0  0  0
 28 23  2  0  0  0  0
 29 24  1  0  0  0  0
 29 27  2  0  0  0  0
 30 31  2  0  0  0  0
 30 21  1  0  0  0  0
 32 33  1  0  0  0  0
 32 24  1  0  0  0  0
 34 32  2  0  0  0  0
M  END
>  <MODEL>
7

>  <REMARK>
 VINA RESULT:      -7.2      3.686      8.378
  Name = 
  5 active torsions:
  status: ('A' for Active; 'I' for Inactive)
    1  A    between atoms: C_1  and  C_9
    2  A    between atoms: C_7  and  C_11
    3  A    between atoms: C_8  and  C_9
    4  A    between atoms: C_8  and  C_18
    5  A    between atoms: C_18  and  C_30
                            x       y       z     vdW  Elec       q    Type
                         _______ _______ _______ _____ _____    ______ ____

>  <TORSDO>
F 5

$$$$
=
 OpenBabel11052420183D

 34 38  0  0  1  0  0  0  0  0999 V2000
  193.1280  173.7260  144.9890 C   0  0  2  0  0  3  0  0  0  0  0  0
  192.1110  174.4510  141.2870 C   0  0  0  0  0  2  0  0  0  0  0  0
  188.8090  173.2620  141.3440 C   0  0  0  0  0  0  0  0  0  0  0  0
  194.2220  174.5210  142.4360 O   0  0  0  0  0  0  0  0  0  0  0  0
  195.5190  173.7510  145.8170 C   0  0  0  0  0  3  0  0  0  0  0  0
  197.3500  174.4440  144.3940 C   0  0  0  0  0  3  0  0  0  0  0  0
  187.8900  172.9240  142.1360 O   0  0  0  0  0  1  0  0  0  0  0  0
  196.8830  173.9940  145.6320 C   0  0  0  0  0  3  0  0  0  0  0  0
  195.0940  174.3730  143.5140 C   0  0  0  0  0  0  0  0  0  0  0  0
  194.6100  173.9600  144.7700 C   0  0  0  0  0  0  0  0  0  0  0  0
  196.4570  174.6320  143.3370 C   0  0  0  0  0  3  0  0  0  0  0  0
  191.2320  173.3440  140.7210 C   0  0  0  0  0  2  0  0  0  0  0  0
  188.4810  173.9050  140.1560 O   0  0  0  0  0  0  0  0  0  0  0  0
  190.1790  172.9830  141.6610 N   0  0  0  0  0  0  0  0  0  0  0  0
  190.5370  172.4110  142.9540 C   0  0  0  0  0  2  0  0  0  0  0  0
  192.9340  173.9160  142.4480 C   0  0  1  0  0  3  0  0  0  0  0  0
  190.8390  173.5350  143.9380 C   0  0  0  0  0  2  0  0  0  0  0  0
  192.2430  174.1550  143.8010 C   0  0  1  0  0  3  0  0  0  0  0  0
  192.6290  174.3850  146.2830 C   0  0  0  0  0  2  0  0  0  0  0  0
  192.4680  175.8950  146.1320 C   0  0  0  0  0  2  0  0  0  0  0  0
  191.3490  176.4180  147.0230 C   0  0  0  0  0  2  0  0  0  0  0  0
  189.2610  177.7070  144.1710 N   0  0  0  0  0  0  0  0  0  0  0  0
  188.8820  176.7220  146.7340 C   0  0  0  0  0  3  0  0  0  0  0  0
  185.6000  177.8440  144.3690 C   0  0  0  0  0  0  0  0  0  0  0  0
  186.9040  177.9610  143.8660 C   0  0  0  0  0  3  0  0  0  0  0  0
  187.9960  177.5910  144.6550 C   0  0  0  0  0  0  0  0  0  0  0  0
  186.4870  176.9820  146.4610 C   0  0  0  0  0  3  0  0  0  0  0  0
  187.7840  177.0970  145.9600 C   0  0  0  0  0  0  0  0  0  0  0  0
  185.3990  177.3570  145.6680 C   0  0  0  0  0  3  0  0  0  0  0  0
  190.1710  176.8430  146.2100 C   0  0  0  0  0  0  0  0  0  0  0  0
  190.3420  177.3480  144.9160 C   0  0  0  0  0  3  0  0  0  0  0  0
  184.4440  178.2230  143.5420 C   0  0  0  0  0  0  0  0  0  0  0  0
  183.4680  179.0130  144.0550 F   0  0  0  0  0  0  0  0  0  0  0  0
  184.3470  177.8180  142.3520 O   0  0  0  0  0  0  0  0  0  0  0  0
  1 19  1  1  0  0  0
  3 14  1  0  0  0  0
  3  7  1  0  0  0  0
  4 16  1  0  0  0  0
  4  9  1  0  0  0  0
  6  8  2  0  0  0  0
  8  5  1  0  0  0  0
  9 10  1  0  0  0  0
 10  1  1  0  0  0  0
 10  5  2  0  0  0  0
 11  9  2  0  0  0  0
 11  6  1  0  0  0  0
 12  2  1  0  0  0  0
 12 14  1  0  0  0  0
 13  3  2  0  0  0  0
 14 15  1  0  0  0  0
 15 17  1  0  0  0  0
 16  2  1  6  0  0  0
 16 18  1  0  0  0  0
 18 17  1  6  0  0  0
 18  1  1  0  0  0  0
 20 19  1  0  0  0  0
 20 21  1  0  0  0  0
 22 26  2  0  0  0  0
 22 31  1  0  0  0  0
 24 29  1  0  0  0  0
 25 24  2  0  0  0  0
 25 26  1  0  0  0  0
 26 28  1  0  0  0  0
 28 27  1  0  0  0  0
 28 23  2  0  0  0  0
 29 27  2  0  0  0  0
 30 23  1  0  0  0  0
 30 21  1  0  0  0  0
 31 30  2  0  0  0  0
 32 33  1  0  0  0  0
 32 24  1  0  0  0  0
 34 32  2  0  0  0  0
M  END
>  <MODEL>
8

>  <REMARK>
 VINA RESULT:      -7.2      3.315      7.204
  Name = 
  5 active torsions:
  status: ('A' for Active; 'I' for Inactive)
    1  A    between atoms: C_1  and  C_9
    2  A    between atoms: C_7  and  C_11
    3  A    between atoms: C_8  and  C_9
    4  A    between atoms: C_8  and  C_18
    5  A    between atoms: C_18  and  C_30
                            x       y       z     vdW  Elec       q    Type
                         _______ _______ _______ _____ _____    ______ ____

>  <TORSDO>
F 5

$$$$
=
 OpenBabel11052420183D

 34 38  0  0  1  0  0  0  0  0999 V2000
  193.7980  174.4160  144.4480 C   0  0  2  0  0  3  0  0  0  0  0  0
  192.1810  171.7790  142.0610 C   0  0  0  0  0  2  0  0  0  0  0  0
  189.0790  173.3240  141.5010 C   0  0  0  0  0  0  0  0  0  0  0  0
  194.1760  171.7500  143.4030 O   0  0  0  0  0  0  0  0  0  0  0  0
  195.8620  173.9670  145.8420 C   0  0  0  0  0  3  0  0  0  0  0  0
  197.1170  171.9080  145.6270 C   0  0  0  0  0  3  0  0  0  0  0  0
  188.4810  174.4250  141.6290 O   0  0  0  0  0  1  0  0  0  0  0  0
  196.9430  173.1630  146.2160 C   0  0  0  0  0  3  0  0  0  0  0  0
  195.1080  172.2410  144.3160 C   0  0  0  0  0  0  0  0  0  0  0  0
  194.9500  173.5250  144.8730 C   0  0  0  0  0  0  0  0  0  0  0  0
  196.2010  171.4480  144.6800 C   0  0  0  0  0  3  0  0  0  0  0  0
  190.6940  171.6060  142.3430 C   0  0  0  0  0  2  0  0  0  0  0  0
  188.7960  172.5190  140.4020 O   0  0  0  0  0  0  0  0  0  0  0  0
  190.0360  172.8990  142.4800 N   0  0  0  0  0  0  0  0  0  0  0  0
  190.4190  173.7870  143.5720 C   0  0  0  0  0  2  0  0  0  0  0  0
  192.8810  172.3280  143.2940 C   0  0  1  0  0  3  0  0  0  0  0  0
  191.6350  174.6050  143.1580 C   0  0  0  0  0  2  0  0  0  0  0  0
  192.9820  173.8630  143.2630 C   0  0  1  0  0  3  0  0  0  0  0  0
  194.2630  175.8470  144.1460 C   0  0  0  0  0  2  0  0  0  0  0  0
  193.7400  176.8490  145.1720 C   0  0  0  0  0  2  0  0  0  0  0  0
  193.1920  176.1380  146.4020 C   0  0  0  0  0  2  0  0  0  0  0  0
  189.6210  175.4840  147.3920 N   0  0  0  0  0  0  0  0  0  0  0  0
  191.0070  176.9600  145.4980 C   0  0  0  0  0  3  0  0  0  0  0  0
  186.8140  177.0850  145.6550 C   0  0  0  0  0  0  0  0  0  0  0  0
  187.5300  176.2960  146.5660 C   0  0  0  0  0  3  0  0  0  0  0  0
  188.9260  176.2510  146.5110 C   0  0  0  0  0  0  0  0  0  0  0  0
  188.9010  177.7890  144.6280 C   0  0  0  0  0  3  0  0  0  0  0  0
  189.6140  177.0050  145.5360 C   0  0  0  0  0  0  0  0  0  0  0  0
  187.5050  177.8270  144.6870 C   0  0  0  0  0  3  0  0  0  0  0  0
  191.6990  176.1700  146.4190 C   0  0  0  0  0  0  0  0  0  0  0  0
  190.9810  175.4270  147.3640 C   0  0  0  0  0  3  0  0  0  0  0  0
  185.3450  177.1450  145.7120 C   0  0  0  0  0  0  0  0  0  0  0  0
  184.6660  176.3840  146.6060 F   0  0  0  0  0  0  0  0  0  0  0  0
  184.7030  177.9000  144.9340 O   0  0  0  0  0  0  0  0  0  0  0  0
  1 19  1  6  0  0  0
  1 10  1  0  0  0  0
  2 12  1  0  0  0  0
  3  7  1  0  0  0  0
  3 14  1  0  0  0  0
  4  9  1  0  0  0  0
  5  8  1  0  0  0  0
  6  8  2  0  0  0  0
  9 11  2  0  0  0  0
  9 10  1  0  0  0  0
 10  5  2  0  0  0  0
 11  6  1  0  0  0  0
 12 14  1  0  0  0  0
 13  3  2  0  0  0  0
 14 15  1  0  0  0  0
 16  2  1  6  0  0  0
 16  4  1  0  0  0  0
 17 15  1  0  0  0  0
 18 17  1  1  0  0  0
 18 16  1  0  0  0  0
 18  1  1  0  0  0  0
 19 20  1  0  0  0  0
 20 21  1  0  0  0  0
 21 30  1  0  0  0  0
 23 28  2  0  0  0  0
 23 30  1  0  0  0  0
 24 32  1  0  0  0  0
 24 25  2  0  0  0  0
 26 25  1  0  0  0  0
 26 22  2  0  0  0  0
 27 29  2  0  0  0  0
 27 28  1  0  0  0  0
 28 26  1  0  0  0  0
 29 24  1  0  0  0  0
 30 31  2  0  0  0  0
 31 22  1  0  0  0  0
 32 33  1  0  0  0  0
 34 32  2  0  0  0  0
M  END
>  <MODEL>
9

>  <REMARK>
 VINA RESULT:      -7.2      3.286      7.126
  Name = 
  5 active torsions:
  status: ('A' for Active; 'I' for Inactive)
    1  A    between atoms: C_1  and  C_9
    2  A    between atoms: C_7  and  C_11
    3  A    between atoms: C_8  and  C_9
    4  A    between atoms: C_8  and  C_18
    5  A    between atoms: C_18  and  C_30
                            x       y       z     vdW  Elec       q    Type
                         _______ _______ _______ _____ _____    ______ ____

>  <TORSDO>
F 5

$$$$
