=
 OpenBabel11052420443D

 43 48  0  0  1  0  0  0  0  0999 V2000
  194.9760  176.6280  145.8240 N   0  0  0  0  0  0  0  0  0  0  0  0
  189.9310  176.0810  146.2120 C   0  0  0  0  0  0  0  0  0  0  0  0
  188.9500  176.2930  143.6440 C   0  0  0  0  0  0  0  0  0  0  0  0
  192.7010  176.2120  146.6200 C   0  0  0  0  0  0  0  0  0  0  0  0
  194.5560  176.0410  144.5450 C   0  0  0  0  0  2  0  0  0  0  0  0
  194.9420  177.9770  145.7000 O   0  0  0  0  0  1  0  0  0  0  0  0
  192.1890  176.2810  145.3160 C   0  0  0  0  0  0  0  0  0  0  0  0
  194.0850  176.2740  146.8280 O   0  0  0  0  0  0  0  0  0  0  0  0
  193.1360  176.4760  144.1680 C   0  0  0  0  0  2  0  0  0  0  0  0
  190.2890  176.3320  143.8590 N   0  0  0  0  0  0  0  0  0  0  0  0
  190.8020  176.2300  145.1100 C   0  0  0  0  0  0  0  0  0  0  0  0
  190.4580  175.9920  147.5070 C   0  0  0  0  0  3  0  0  0  0  0  0
  188.5500  176.0400  145.9690 C   0  0  0  0  0  0  0  0  0  0  0  0
  188.0930  176.1530  144.6890 N   0  0  0  0  0  0  0  0  0  0  0  0
  191.8390  176.0550  147.7090 C   0  0  0  0  0  3  0  0  0  0  0  0
  187.6270  175.8880  147.0560 N   0  0  0  0  0  2  0  0  0  0  0  0
  184.3180  177.6080  146.4290 C   0  0  0  0  0  2  0  0  0  0  0  0
  184.8650  179.0400  146.4510 C   0  0  1  0  0  3  0  0  0  0  0  0
  187.0330  178.2420  147.1740 C   0  0  0  0  0  2  0  0  0  0  0  0
  185.4360  176.5890  146.2380 C   0  0  0  0  0  2  0  0  0  0  0  0
  186.5240  176.8110  147.2830 C   0  0  1  0  0  3  0  0  0  0  0  0
  185.9440  179.1890  147.4360 N   0  0  0  0  0  2  0  0  0  0  0  0
  185.6160  179.8630  144.0200 C   0  0  0  0  0  3  0  0  0  0  0  0
  185.2800  179.4930  145.1140 C   0  0  0  0  0  0  0  0  0  0  0  0
  188.4320  176.5050  142.2540 C   0  0  0  0  0  2  0  0  0  0  0  0
  188.6700  175.4030  141.4070 O   0  0  0  0  0  0  0  0  0  0  0  0
  187.7920  174.3680  141.7700 C   0  0  0  0  0  2  0  0  0  0  0  0
  188.3450  172.9960  141.4000 C   0  0  1  0  0  3  0  0  0  0  0  0
  188.0600  172.7220  140.0540 O   0  0  0  0  0  1  0  0  0  0  0  0
  189.8490  173.0290  141.6180 C   0  0  0  0  0  2  0  0  0  0  0  0
  190.2530  172.0830  142.6650 N   0  0  0  0  0  0  0  0  0  0  0  0
  191.8340  172.6870  144.0230 C   0  0  0  0  0  2  0  0  0  0  0  0
  189.7110  172.1200  144.9360 O   0  0  0  0  0  1  0  0  0  0  0  0
  191.7140  171.8930  142.7400 C   0  0  1  0  0  0  0  0  0  0  0  0
  192.0430  170.4260  142.9700 C   0  0  0  0  0  1  0  0  0  0  0  0
  190.3290  172.8410  143.9140 C   0  0  2  0  0  3  0  0  0  0  0  0
  192.5410  172.4940  141.5870 C   0  0  0  0  0  2  0  0  0  0  0  0
  193.4070  173.5670  142.0550 N   0  0  0  0  0  0  0  0  0  0  0  0
  195.8730  172.8930  139.8620 C   0  0  0  0  0  1  0  0  0  0  0  0
  194.5090  174.7300  140.2840 C   0  0  0  0  0  3  0  0  0  0  0  0
  195.4840  173.8420  140.8870 N   0  0  0  0  0  0  0  0  0  0  0  0
  193.2610  174.6660  141.1210 C   0  0  0  0  0  3  0  0  0  0  0  0
  194.7770  173.0840  141.9190 C   0  0  0  0  0  2  0  0  0  0  0  0
  1  8  1  0  0  0  0
  2 12  1  0  0  0  0
  3 10  2  0  0  0  0
  3 14  1  0  0  0  0
  4  8  1  0  0  0  0
  4 15  1  0  0  0  0
  5  1  1  0  0  0  0
  6  1  1  0  0  0  0
  7  4  2  0  0  0  0
  9  5  1  0  0  0  0
  9  7  1  0  0  0  0
 10 11  1  0  0  0  0
 11  7  1  0  0  0  0
 11  2  2  0  0  0  0
 12 15  2  0  0  0  0
 13  2  1  0  0  0  0
 13 16  1  0  0  0  0
 14 13  2  0  0  0  0
 17 18  1  0  0  0  0
 18 24  1  6  0  0  0
 18 22  1  0  0  0  0
 19 21  1  0  0  0  0
 19 22  1  0  0  0  0
 20 17  1  0  0  0  0
 20 21  1  0  0  0  0
 21 16  1  6  0  0  0
 23 24  3  0  0  0  0
 25  3  1  0  0  0  0
 26 27  1  0  0  0  0
 26 25  1  0  0  0  0
 28 29  1  6  0  0  0
 28 30  1  0  0  0  0
 28 27  1  0  0  0  0
 30 31  1  0  0  0  0
 31 34  1  0  0  0  0
 31 36  1  0  0  0  0
 34 35  1  1  0  0  0
 34 32  1  0  0  0  0
 36 32  1  0  0  0  0
 36 33  1  1  0  0  0
 37 38  1  0  0  0  0
 37 34  1  0  0  0  0
 39 41  1  0  0  0  0
 40 41  1  0  0  0  0
 40 42  2  0  0  0  0
 41 43  1  0  0  0  0
 42 38  1  0  0  0  0
 43 38  1  0  0  0  0
M  END
>  <MODEL>
1

>  <REMARK>
 VINA RESULT:      -7.5      0.000      0.000
  Name = 
  11 active torsions:
  status: ('A' for Active; 'I' for Inactive)
    1  A    between atoms: N_1  and  C_34
    2  A    between atoms: N_1  and  C_35
    3  A    between atoms: C_2  and  O_7
    4  A    between atoms: C_2  and  C_13
    5  A    between atoms: C_3  and  N_4
    6  A    between atoms: C_3  and  C_12
    7  A    between atoms: C_6  and  O_7
    8  A    between atoms: C_6  and  C_12
    9  A    between atoms: N_11  and  C_14
   10  A    between atoms: C_14  and  C_22
   11  A    between atoms: C_19  and  C_37
                            x       y       z     vdW  Elec       q    Type
                         _______ _______ _______ _____ _____    ______ ____

>  <TORSDO>
F 11

$$$$
=
 OpenBabel11052420443D

 43 48  0  0  1  0  0  0  0  0999 V2000
  184.4120  179.0280  144.7530 N   0  0  0  0  0  0  0  0  0  0  0  0
  188.1250  175.7760  143.5100 C   0  0  0  0  0  0  0  0  0  0  0  0
  189.7280  175.5730  145.7430 C   0  0  0  0  0  0  0  0  0  0  0  0
  185.8300  177.3820  143.6290 C   0  0  0  0  0  0  0  0  0  0  0  0
  184.7980  178.3870  146.0170 C   0  0  0  0  0  2  0  0  0  0  0  0
  185.1690  180.1410  144.5960 O   0  0  0  0  0  1  0  0  0  0  0  0
  186.6360  177.2400  144.7690 C   0  0  0  0  0  0  0  0  0  0  0  0
  184.6810  178.1820  143.6870 O   0  0  0  0  0  0  0  0  0  0  0  0
  186.2780  177.9930  146.0170 C   0  0  0  0  0  2  0  0  0  0  0  0
  188.6020  176.3280  145.7900 N   0  0  0  0  0  0  0  0  0  0  0  0
  187.7920  176.4470  144.7070 C   0  0  0  0  0  0  0  0  0  0  0  0
  187.2990  175.9120  142.3860 C   0  0  0  0  0  3  0  0  0  0  0  0
  189.2920  174.9990  143.4830 C   0  0  0  0  0  0  0  0  0  0  0  0
  190.0690  174.9210  144.6010 N   0  0  0  0  0  0  0  0  0  0  0  0
  186.1550  176.7110  142.4470 C   0  0  0  0  0  3  0  0  0  0  0  0
  189.6690  174.2980  142.2900 N   0  0  0  0  0  2  0  0  0  0  0  0
  192.3350  171.8800  141.1300 C   0  0  0  0  0  2  0  0  0  0  0  0
  191.4420  170.6340  141.1230 C   0  0  1  0  0  3  0  0  0  0  0  0
  189.6440  171.8710  142.1700 C   0  0  0  0  0  2  0  0  0  0  0  0
  191.5050  173.1600  141.1540 C   0  0  0  0  0  2  0  0  0  0  0  0
  190.5140  173.1130  142.3110 C   0  0  1  0  0  3  0  0  0  0  0  0
  190.4720  170.6620  142.2250 N   0  0  0  0  0  2  0  0  0  0  0  0
  190.2450  170.2700  138.7600 C   0  0  0  0  0  3  0  0  0  0  0  0
  190.7860  170.4340  139.8220 C   0  0  0  0  0  0  0  0  0  0  0  0
  190.6360  175.5510  146.9360 C   0  0  0  0  0  2  0  0  0  0  0  0
  191.5370  176.6350  146.9560 O   0  0  0  0  0  0  0  0  0  0  0  0
  192.8070  176.1620  146.5850 C   0  0  0  0  0  2  0  0  0  0  0  0
  193.3230  176.8440  145.3220 C   0  0  1  0  0  3  0  0  0  0  0  0
  194.5740  177.4240  145.5780 O   0  0  0  0  0  1  0  0  0  0  0  0
  193.4510  175.7810  144.2430 C   0  0  0  0  0  2  0  0  0  0  0  0
  194.6380  176.0120  143.4120 N   0  0  0  0  0  0  0  0  0  0  0  0
  195.2120  174.4590  142.0090 C   0  0  0  0  0  2  0  0  0  0  0  0
  194.7320  176.6300  141.1620 O   0  0  0  0  0  1  0  0  0  0  0  0
  195.5780  174.8740  143.4170 C   0  0  1  0  0  0  0  0  0  0  0  0
  197.0120  175.3770  143.4850 C   0  0  0  0  0  1  0  0  0  0  0  0
  194.2730  175.6490  142.0420 C   0  0  2  0  0  3  0  0  0  0  0  0
  195.3060  173.7680  144.4550 C   0  0  0  0  0  2  0  0  0  0  0  0
  195.0190  172.4940  143.8130 N   0  0  0  0  0  0  0  0  0  0  0  0
  196.6190  170.6590  146.1410 C   0  0  0  0  0  1  0  0  0  0  0  0
  194.4310  170.7710  145.3590 C   0  0  0  0  0  3  0  0  0  0  0  0
  195.8010  170.5320  144.9500 N   0  0  0  0  0  0  0  0  0  0  0  0
  193.9020  171.9050  144.5240 C   0  0  0  0  0  3  0  0  0  0  0  0
  196.1720  171.6340  144.0630 C   0  0  0  0  0  2  0  0  0  0  0  0
  1  5  1  0  0  0  0
  2 11  1  0  0  0  0
  3 10  2  0  0  0  0
  3 25  1  0  0  0  0
  4  8  1  0  0  0  0
  4  7  1  0  0  0  0
  5  9  1  0  0  0  0
  6  1  1  0  0  0  0
  7  9  1  0  0  0  0
  8  1  1  0  0  0  0
 11  7  2  0  0  0  0
 11 10  1  0  0  0  0
 12 15  1  0  0  0  0
 12  2  2  0  0  0  0
 13  2  1  0  0  0  0
 13 14  2  0  0  0  0
 14  3  1  0  0  0  0
 15  4  2  0  0  0  0
 16 13  1  0  0  0  0
 17 20  1  0  0  0  0
 18 24  1  6  0  0  0
 18 17  1  0  0  0  0
 18 22  1  0  0  0  0
 19 22  1  0  0  0  0
 19 21  1  0  0  0  0
 20 21  1  0  0  0  0
 21 16  1  6  0  0  0
 23 24  3  0  0  0  0
 25 26  1  0  0  0  0
 27 26  1  0  0  0  0
 28 29  1  1  0  0  0
 28 27  1  0  0  0  0
 30 28  1  0  0  0  0
 31 34  1  0  0  0  0
 31 30  1  0  0  0  0
 32 36  1  0  0  0  0
 32 34  1  0  0  0  0
 34 35  1  1  0  0  0
 34 37  1  0  0  0  0
 36 33  1  6  0  0  0
 36 31  1  0  0  0  0
 38 43  1  0  0  0  0
 38 37  1  0  0  0  0
 38 42  1  0  0  0  0
 41 40  1  0  0  0  0
 41 39  1  0  0  0  0
 42 40  2  0  0  0  0
 43 41  1  0  0  0  0
M  END
>  <MODEL>
2

>  <REMARK>
 VINA RESULT:      -7.0      2.636      7.293
  Name = 
  11 active torsions:
  status: ('A' for Active; 'I' for Inactive)
    1  A    between atoms: N_1  and  C_34
    2  A    between atoms: N_1  and  C_35
    3  A    between atoms: C_2  and  O_7
    4  A    between atoms: C_2  and  C_13
    5  A    between atoms: C_3  and  N_4
    6  A    between atoms: C_3  and  C_12
    7  A    between atoms: C_6  and  O_7
    8  A    between atoms: C_6  and  C_12
    9  A    between atoms: N_11  and  C_14
   10  A    between atoms: C_14  and  C_22
   11  A    between atoms: C_19  and  C_37
                            x       y       z     vdW  Elec       q    Type
                         _______ _______ _______ _____ _____    ______ ____

>  <TORSDO>
F 11

$$$$
=
 OpenBabel11052420443D

 43 48  0  0  1  0  0  0  0  0999 V2000
  184.7700  179.0050  146.3020 N   0  0  0  0  0  0  0  0  0  0  0  0
  188.8800  176.3110  144.9760 C   0  0  0  0  0  0  0  0  0  0  0  0
  188.4880  175.5830  142.3460 C   0  0  0  0  0  0  0  0  0  0  0  0
  186.9580  177.9130  146.2410 C   0  0  0  0  0  0  0  0  0  0  0  0
  184.9250  179.2290  144.8590 C   0  0  0  0  0  2  0  0  0  0  0  0
  183.9700  177.9260  146.4770 O   0  0  0  0  0  1  0  0  0  0  0  0
  186.7900  177.5650  144.8920 C   0  0  0  0  0  0  0  0  0  0  0  0
  186.0000  178.7160  146.8750 O   0  0  0  0  0  0  0  0  0  0  0  0
  185.5560  178.0170  144.1670 C   0  0  0  0  0  2  0  0  0  0  0  0
  187.5790  176.3760  142.9680 N   0  0  0  0  0  0  0  0  0  0  0  0
  187.7440  176.7520  144.2610 C   0  0  0  0  0  0  0  0  0  0  0  0
  189.0440  176.6840  146.3170 C   0  0  0  0  0  3  0  0  0  0  0  0
  189.8080  175.4940  144.3150 C   0  0  0  0  0  0  0  0  0  0  0  0
  189.5860  175.1450  143.0150 N   0  0  0  0  0  0  0  0  0  0  0  0
  188.0860  177.4840  146.9450 C   0  0  0  0  0  3  0  0  0  0  0  0
  190.9770  175.0240  145.0000 N   0  0  0  0  0  2  0  0  0  0  0  0
  194.4300  176.3580  144.2260 C   0  0  0  0  0  2  0  0  0  0  0  0
  195.0270  176.0970  145.6130 C   0  0  1  0  0  3  0  0  0  0  0  0
  192.8490  175.4890  146.4780 C   0  0  0  0  0  2  0  0  0  0  0  0
  193.1440  175.5650  144.0150 C   0  0  0  0  0  2  0  0  0  0  0  0
  192.1740  175.8380  145.1580 C   0  0  1  0  0  3  0  0  0  0  0  0
  194.0390  176.3240  146.6760 N   0  0  0  0  0  2  0  0  0  0  0  0
  196.1330  173.6690  145.7930 C   0  0  0  0  0  3  0  0  0  0  0  0
  195.6350  174.7620  145.7100 C   0  0  0  0  0  0  0  0  0  0  0  0
  188.2090  175.1200  140.9480 C   0  0  0  0  0  2  0  0  0  0  0  0
  188.9740  173.9930  140.5830 O   0  0  0  0  0  0  0  0  0  0  0  0
  188.2200  173.2180  139.6860 C   0  0  0  0  0  2  0  0  0  0  0  0
  189.0050  172.8840  138.4220 C   0  0  1  0  0  3  0  0  0  0  0  0
  188.7100  173.8250  137.4240 O   0  0  0  0  0  1  0  0  0  0  0  0
  190.4840  172.9380  138.7680 C   0  0  0  0  0  2  0  0  0  0  0  0
  191.1710  171.7110  138.3480 N   0  0  0  0  0  0  0  0  0  0  0  0
  190.6120  169.8520  139.3200 C   0  0  0  0  0  2  0  0  0  0  0  0
  190.3770  170.0110  136.9580 O   0  0  0  0  0  1  0  0  0  0  0  0
  191.6780  170.9150  139.4820 C   0  0  1  0  0  0  0  0  0  0  0  0
  193.0570  170.3610  139.1620 C   0  0  0  0  0  1  0  0  0  0  0  0
  190.1380  170.6930  138.1510 C   0  0  2  0  0  3  0  0  0  0  0  0
  191.6370  171.5940  140.8660 C   0  0  0  0  0  2  0  0  0  0  0  0
  191.1350  170.6880  141.8890 N   0  0  0  0  0  0  0  0  0  0  0  0
  193.1380  171.8930  144.3130 C   0  0  0  0  0  1  0  0  0  0  0  0
  190.8370  171.7400  144.0120 C   0  0  0  0  0  3  0  0  0  0  0  0
  192.0540  170.9560  144.0880 N   0  0  0  0  0  0  0  0  0  0  0  0
  190.1880  171.4400  142.6890 C   0  0  0  0  0  3  0  0  0  0  0  0
  192.2630  170.3790  142.7600 C   0  0  0  0  0  2  0  0  0  0  0  0
  1  6  1  0  0  0  0
  1  8  1  0  0  0  0
  2 12  1  0  0  0  0
  3 10  2  0  0  0  0
  3 14  1  0  0  0  0
  4  8  1  0  0  0  0
  4 15  1  0  0  0  0
  5  1  1  0  0  0  0
  7  4  2  0  0  0  0
  9  5  1  0  0  0  0
  9  7  1  0  0  0  0
 10 11  1  0  0  0  0
 11  7  1  0  0  0  0
 11  2  2  0  0  0  0
 12 15  2  0  0  0  0
 13  2  1  0  0  0  0
 13 16  1  0  0  0  0
 14 13  2  0  0  0  0
 17 18  1  0  0  0  0
 18 24  1  6  0  0  0
 18 22  1  0  0  0  0
 19 22  1  0  0  0  0
 20 17  1  0  0  0  0
 20 21  1  0  0  0  0
 21 16  1  6  0  0  0
 21 19  1  0  0  0  0
 24 23  3  0  0  0  0
 25  3  1  0  0  0  0
 26 25  1  0  0  0  0
 27 26  1  0  0  0  0
 28 29  1  6  0  0  0
 28 30  1  0  0  0  0
 28 27  1  0  0  0  0
 31 30  1  0  0  0  0
 31 34  1  0  0  0  0
 32 34  1  0  0  0  0
 34 35  1  6  0  0  0
 34 37  1  0  0  0  0
 36 33  1  6  0  0  0
 36 31  1  0  0  0  0
 36 32  1  0  0  0  0
 37 38  1  0  0  0  0
 38 42  1  0  0  0  0
 38 43  1  0  0  0  0
 40 41  1  0  0  0  0
 41 39  1  0  0  0  0
 42 40  2  0  0  0  0
 43 41  1  0  0  0  0
M  END
>  <MODEL>
3

>  <REMARK>
 VINA RESULT:      -6.9      2.844      6.281
  Name = 
  11 active torsions:
  status: ('A' for Active; 'I' for Inactive)
    1  A    between atoms: N_1  and  C_34
    2  A    between atoms: N_1  and  C_35
    3  A    between atoms: C_2  and  O_7
    4  A    between atoms: C_2  and  C_13
    5  A    between atoms: C_3  and  N_4
    6  A    between atoms: C_3  and  C_12
    7  A    between atoms: C_6  and  O_7
    8  A    between atoms: C_6  and  C_12
    9  A    between atoms: N_11  and  C_14
   10  A    between atoms: C_14  and  C_22
   11  A    between atoms: C_19  and  C_37
                            x       y       z     vdW  Elec       q    Type
                         _______ _______ _______ _____ _____    ______ ____

>  <TORSDO>
F 11

$$$$
=
 OpenBabel11052420443D

 43 48  0  0  1  0  0  0  0  0999 V2000
  184.7250  178.6760  144.3260 N   0  0  0  0  0  0  0  0  0  0  0  0
  188.4560  175.2710  143.6970 C   0  0  0  0  0  0  0  0  0  0  0  0
  189.8020  175.1760  146.1010 C   0  0  0  0  0  0  0  0  0  0  0  0
  186.2090  176.9310  143.4660 C   0  0  0  0  0  0  0  0  0  0  0  0
  184.9540  178.1080  145.6600 C   0  0  0  0  0  2  0  0  0  0  0  0
  185.5260  179.7590  144.1850 O   0  0  0  0  0  1  0  0  0  0  0  0
  186.8820  176.8440  144.6940 C   0  0  0  0  0  0  0  0  0  0  0  0
  185.0830  177.7570  143.3480 O   0  0  0  0  0  0  0  0  0  0  0  0
  186.4130  177.6830  145.8470 C   0  0  0  0  0  2  0  0  0  0  0  0
  188.6990  175.9570  145.9780 N   0  0  0  0  0  0  0  0  0  0  0  0
  188.0150  176.0240  144.8080 C   0  0  0  0  0  0  0  0  0  0  0  0
  187.7610  175.3530  142.4830 C   0  0  0  0  0  3  0  0  0  0  0  0
  189.5970  174.4690  143.8460 C   0  0  0  0  0  0  0  0  0  0  0  0
  190.2460  174.4450  145.0460 N   0  0  0  0  0  0  0  0  0  0  0  0
  186.6400  176.1790  142.3700 C   0  0  0  0  0  3  0  0  0  0  0  0
  190.0800  173.6860  142.7470 N   0  0  0  0  0  2  0  0  0  0  0  0
  191.9680  173.8170  139.4730 C   0  0  0  0  0  2  0  0  0  0  0  0
  193.3350  174.1530  140.0790 C   0  0  1  0  0  3  0  0  0  0  0  0
  192.3360  174.4520  142.2630 C   0  0  0  0  0  2  0  0  0  0  0  0
  191.0110  173.2730  140.5280 C   0  0  0  0  0  2  0  0  0  0  0  0
  190.9350  174.2380  141.7050 C   0  0  1  0  0  3  0  0  0  0  0  0
  193.2050  175.0430  141.2400 N   0  0  0  0  0  2  0  0  0  0  0  0
  194.7440  171.9570  140.6680 C   0  0  0  0  0  3  0  0  0  0  0  0
  194.1080  172.9450  140.4020 C   0  0  0  0  0  0  0  0  0  0  0  0
  190.5750  175.2100  147.3850 C   0  0  0  0  0  2  0  0  0  0  0  0
  191.9690  175.1400  147.1860 O   0  0  0  0  0  0  0  0  0  0  0  0
  192.4830  176.4480  147.1900 C   0  0  0  0  0  2  0  0  0  0  0  0
  193.4660  176.6770  146.0460 C   0  0  1  0  0  3  0  0  0  0  0  0
  194.5840  177.3780  146.5210 O   0  0  0  0  0  1  0  0  0  0  0  0
  193.8880  175.3150  145.5200 C   0  0  0  0  0  2  0  0  0  0  0  0
  195.3400  175.2520  145.3210 N   0  0  0  0  0  0  0  0  0  0  0  0
  196.0860  174.0950  143.6430 C   0  0  0  0  0  2  0  0  0  0  0  0
  196.6400  176.4060  143.7620 O   0  0  0  0  0  1  0  0  0  0  0  0
  195.8370  173.8780  145.1200 C   0  0  1  0  0  0  0  0  0  0  0  0
  197.1440  173.6750  145.8720 C   0  0  0  0  0  1  0  0  0  0  0  0
  195.5850  175.5040  143.9010 C   0  0  2  0  0  3  0  0  0  0  0  0
  194.8330  172.7410  145.3950 C   0  0  0  0  0  2  0  0  0  0  0  0
  194.7070  171.8530  144.2480 N   0  0  0  0  0  0  0  0  0  0  0  0
  194.6050  169.0430  146.1010 C   0  0  0  0  0  1  0  0  0  0  0  0
  193.1540  170.0730  144.6020 C   0  0  0  0  0  3  0  0  0  0  0  0
  194.4860  169.5150  144.7350 N   0  0  0  0  0  0  0  0  0  0  0  0
  193.3050  171.4970  144.1420 C   0  0  0  0  0  3  0  0  0  0  0  0
  195.4230  170.6290  144.5900 C   0  0  0  0  0  2  0  0  0  0  0  0
  1  5  1  0  0  0  0
  2 13  1  0  0  0  0
  2 11  1  0  0  0  0
  3 25  1  0  0  0  0
  4  7  1  0  0  0  0
  5  9  1  0  0  0  0
  6  1  1  0  0  0  0
  7 11  2  0  0  0  0
  7  9  1  0  0  0  0
  8  4  1  0  0  0  0
  8  1  1  0  0  0  0
 10  3  2  0  0  0  0
 11 10  1  0  0  0  0
 12  2  2  0  0  0  0
 13 14  2  0  0  0  0
 14  3  1  0  0  0  0
 15 12  1  0  0  0  0
 15  4  2  0  0  0  0
 16 13  1  0  0  0  0
 17 18  1  0  0  0  0
 17 20  1  0  0  0  0
 18 24  1  1  0  0  0
 18 22  1  0  0  0  0
 20 21  1  0  0  0  0
 21 19  1  0  0  0  0
 21 16  1  1  0  0  0
 22 19  1  0  0  0  0
 24 23  3  0  0  0  0
 26 27  1  0  0  0  0
 26 25  1  0  0  0  0
 28 29  1  1  0  0  0
 28 27  1  0  0  0  0
 30 28  1  0  0  0  0
 31 30  1  0  0  0  0
 32 36  1  0  0  0  0
 32 34  1  0  0  0  0
 34 31  1  0  0  0  0
 34 37  1  0  0  0  0
 34 35  1  1  0  0  0
 36 33  1  1  0  0  0
 36 31  1  0  0  0  0
 38 43  1  0  0  0  0
 38 37  1  0  0  0  0
 40 41  1  0  0  0  0
 41 39  1  0  0  0  0
 42 38  1  0  0  0  0
 42 40  2  0  0  0  0
 43 41  1  0  0  0  0
M  END
>  <MODEL>
4

>  <REMARK>
 VINA RESULT:      -6.9      2.477      7.358
  Name = 
  11 active torsions:
  status: ('A' for Active; 'I' for Inactive)
    1  A    between atoms: N_1  and  C_34
    2  A    between atoms: N_1  and  C_35
    3  A    between atoms: C_2  and  O_7
    4  A    between atoms: C_2  and  C_13
    5  A    between atoms: C_3  and  N_4
    6  A    between atoms: C_3  and  C_12
    7  A    between atoms: C_6  and  O_7
    8  A    between atoms: C_6  and  C_12
    9  A    between atoms: N_11  and  C_14
   10  A    between atoms: C_14  and  C_22
   11  A    between atoms: C_19  and  C_37
                            x       y       z     vdW  Elec       q    Type
                         _______ _______ _______ _____ _____    ______ ____

>  <TORSDO>
F 11

$$$$
=
 OpenBabel11052420443D

 43 48  0  0  1  0  0  0  0  0999 V2000
  186.1710  177.9510  148.3040 N   0  0  0  0  0  0  0  0  0  0  0  0
  184.4520  178.2780  143.5240 C   0  0  0  0  0  0  0  0  0  0  0  0
  186.2600  176.8860  141.9760 C   0  0  0  0  0  0  0  0  0  0  0  0
  184.8310  178.3680  146.3000 C   0  0  0  0  0  0  0  0  0  0  0  0
  186.6380  176.7250  147.6450 C   0  0  0  0  0  2  0  0  0  0  0  0
  187.1260  178.9000  148.1540 O   0  0  0  0  0  1  0  0  0  0  0  0
  185.7220  177.6340  145.5030 C   0  0  0  0  0  0  0  0  0  0  0  0
  185.0160  178.4130  147.6880 O   0  0  0  0  0  0  0  0  0  0  0  0
  186.8910  176.9520  146.1510 C   0  0  0  0  0  2  0  0  0  0  0  0
  186.4150  176.9230  143.3240 N   0  0  0  0  0  0  0  0  0  0  0  0
  185.5420  177.5980  144.1120 C   0  0  0  0  0  0  0  0  0  0  0  0
  183.5590  178.9910  144.3350 C   0  0  0  0  0  3  0  0  0  0  0  0
  184.3080  178.2260  142.1300 C   0  0  0  0  0  0  0  0  0  0  0  0
  185.2210  177.5350  141.3880 N   0  0  0  0  0  0  0  0  0  0  0  0
  183.7480  179.0330  145.7190 C   0  0  0  0  0  3  0  0  0  0  0  0
  183.2170  178.8990  141.4880 N   0  0  0  0  0  2  0  0  0  0  0  0
  179.8410  177.7820  140.2010 C   0  0  0  0  0  2  0  0  0  0  0  0
  179.0070  178.7360  141.0630 C   0  0  1  0  0  3  0  0  0  0  0  0
  180.9810  179.4150  142.2890 C   0  0  0  0  0  2  0  0  0  0  0  0
  181.3000  178.2210  140.1370 C   0  0  0  0  0  2  0  0  0  0  0  0
  181.8480  178.4060  141.5470 C   0  0  1  0  0  3  0  0  0  0  0  0
  179.6040  178.9210  142.3920 N   0  0  0  0  0  2  0  0  0  0  0  0
  178.5710  181.0700  139.8340 C   0  0  0  0  0  3  0  0  0  0  0  0
  178.7670  180.0210  140.3890 C   0  0  0  0  0  0  0  0  0  0  0  0
  187.3050  176.2060  141.1440 C   0  0  0  0  0  2  0  0  0  0  0  0
  187.8160  175.0410  141.7540 O   0  0  0  0  0  0  0  0  0  0  0  0
  189.0530  174.7380  141.1620 C   0  0  0  0  0  2  0  0  0  0  0  0
  190.0410  174.1610  142.1710 C   0  0  1  0  0  3  0  0  0  0  0  0
  190.6950  173.0550  141.6090 O   0  0  0  0  0  1  0  0  0  0  0  0
  191.0490  175.2490  142.5050 C   0  0  0  0  0  2  0  0  0  0  0  0
  190.5340  176.1450  143.5460 N   0  0  0  0  0  0  0  0  0  0  0  0
  191.5820  178.0160  143.8840 C   0  0  0  0  0  2  0  0  0  0  0  0
  189.2800  178.0970  143.2860 O   0  0  0  0  0  1  0  0  0  0  0  0
  191.5820  176.6200  144.4700 C   0  0  1  0  0  0  0  0  0  0  0  0
  191.0620  176.6260  145.8990 C   0  0  0  0  0  1  0  0  0  0  0  0
  190.4940  177.4880  142.9680 C   0  0  2  0  0  3  0  0  0  0  0  0
  192.9550  175.9280  144.3600 C   0  0  0  0  0  2  0  0  0  0  0  0
  193.2890  175.2100  145.5820 N   0  0  0  0  0  0  0  0  0  0  0  0
  195.4430  173.1070  144.0710 C   0  0  0  0  0  1  0  0  0  0  0  0
  195.6140  174.6930  145.7640 C   0  0  0  0  0  3  0  0  0  0  0  0
  194.9310  173.4740  145.3780 N   0  0  0  0  0  0  0  0  0  0  0  0
  194.5610  175.7310  146.0420 C   0  0  0  0  0  3  0  0  0  0  0  0
  193.5220  173.8220  145.1970 C   0  0  0  0  0  2  0  0  0  0  0  0
  2 11  2  0  0  0  0
  2 12  1  0  0  0  0
  3 10  2  0  0  0  0
  4  8  1  0  0  0  0
  5  1  1  0  0  0  0
  6  1  1  0  0  0  0
  7  9  1  0  0  0  0
  7  4  2  0  0  0  0
  8  1  1  0  0  0  0
  9  5  1  0  0  0  0
 10 11  1  0  0  0  0
 11  7  1  0  0  0  0
 12 15  2  0  0  0  0
 13  2  1  0  0  0  0
 14  3  1  0  0  0  0
 14 13  2  0  0  0  0
 15  4  1  0  0  0  0
 16 13  1  0  0  0  0
 17 18  1  0  0  0  0
 18 24  1  6  0  0  0
 18 22  1  0  0  0  0
 19 22  1  0  0  0  0
 20 17  1  0  0  0  0
 20 21  1  0  0  0  0
 21 16  1  6  0  0  0
 21 19  1  0  0  0  0
 23 24  3  0  0  0  0
 25 26  1  0  0  0  0
 25  3  1  0  0  0  0
 27 26  1  0  0  0  0
 27 28  1  0  0  0  0
 28 29  1  6  0  0  0
 28 30  1  0  0  0  0
 30 31  1  0  0  0  0
 31 34  1  0  0  0  0
 32 34  1  0  0  0  0
 34 35  1  1  0  0  0
 36 33  1  1  0  0  0
 36 31  1  0  0  0  0
 36 32  1  0  0  0  0
 37 34  1  0  0  0  0
 37 38  1  0  0  0  0
 38 42  1  0  0  0  0
 39 41  1  0  0  0  0
 40 42  2  0  0  0  0
 41 40  1  0  0  0  0
 43 41  1  0  0  0  0
 43 38  1  0  0  0  0
M  END
>  <MODEL>
5

>  <REMARK>
 VINA RESULT:      -6.8      3.985      6.248
  Name = 
  11 active torsions:
  status: ('A' for Active; 'I' for Inactive)
    1  A    between atoms: N_1  and  C_34
    2  A    between atoms: N_1  and  C_35
    3  A    between atoms: C_2  and  O_7
    4  A    between atoms: C_2  and  C_13
    5  A    between atoms: C_3  and  N_4
    6  A    between atoms: C_3  and  C_12
    7  A    between atoms: C_6  and  O_7
    8  A    between atoms: C_6  and  C_12
    9  A    between atoms: N_11  and  C_14
   10  A    between atoms: C_14  and  C_22
   11  A    between atoms: C_19  and  C_37
                            x       y       z     vdW  Elec       q    Type
                         _______ _______ _______ _____ _____    ______ ____

>  <TORSDO>
F 11

$$$$
=
 OpenBabel11052420443D

 43 48  0  0  1  0  0  0  0  0999 V2000
  193.5770  175.7770  145.9040 N   0  0  0  0  0  0  0  0  0  0  0  0
  188.9590  176.3940  143.8540 C   0  0  0  0  0  0  0  0  0  0  0  0
  188.4500  174.0860  142.4340 C   0  0  0  0  0  0  0  0  0  0  0  0
  191.3540  176.5990  145.2960 C   0  0  0  0  0  0  0  0  0  0  0  0
  193.0250  174.4210  145.7900 C   0  0  0  0  0  2  0  0  0  0  0  0
  194.2530  176.0540  144.7630 O   0  0  0  0  0  1  0  0  0  0  0  0
  191.0650  175.4160  144.5990 C   0  0  0  0  0  0  0  0  0  0  0  0
  192.5490  176.7030  146.0200 O   0  0  0  0  0  0  0  0  0  0  0  0
  192.0700  174.3020  144.5980 C   0  0  0  0  0  2  0  0  0  0  0  0
  189.5940  174.1940  143.1560 N   0  0  0  0  0  0  0  0  0  0  0  0
  189.8730  175.3170  143.8650 C   0  0  0  0  0  0  0  0  0  0  0  0
  189.2530  177.5610  144.5720 C   0  0  0  0  0  3  0  0  0  0  0  0
  187.7810  176.2620  143.1040 C   0  0  0  0  0  0  0  0  0  0  0  0
  187.5580  175.1100  142.4070 N   0  0  0  0  0  0  0  0  0  0  0  0
  190.4460  177.6600  145.2920 C   0  0  0  0  0  3  0  0  0  0  0  0
  186.8230  177.3280  143.0650 N   0  0  0  0  0  2  0  0  0  0  0  0
  184.1780  178.9300  145.2410 C   0  0  0  0  0  2  0  0  0  0  0  0
  184.5210  178.1580  146.5200 C   0  0  1  0  0  3  0  0  0  0  0  0
  186.0680  176.7500  145.3020 C   0  0  0  0  0  2  0  0  0  0  0  0
  185.3130  178.8550  144.2250 C   0  0  0  0  0  2  0  0  0  0  0  0
  185.6910  177.3990  143.9760 C   0  0  1  0  0  3  0  0  0  0  0  0
  184.9280  176.7780  146.2240 N   0  0  0  0  0  2  0  0  0  0  0  0
  186.3460  179.4310  148.0040 C   0  0  0  0  0  3  0  0  0  0  0  0
  185.5250  178.8600  147.3350 C   0  0  0  0  0  0  0  0  0  0  0  0
  188.2360  172.8640  141.5940 C   0  0  0  0  0  2  0  0  0  0  0  0
  188.0690  173.1640  140.2260 O   0  0  0  0  0  0  0  0  0  0  0  0
  189.3380  173.2060  139.6240 C   0  0  0  0  0  2  0  0  0  0  0  0
  190.1430  171.9410  139.9010 C   0  0  1  0  0  3  0  0  0  0  0  0
  189.9500  171.0230  138.8590 O   0  0  0  0  0  1  0  0  0  0  0  0
  191.6090  172.3350  139.9850 C   0  0  0  0  0  2  0  0  0  0  0  0
  192.4120  171.2630  140.5840 N   0  0  0  0  0  0  0  0  0  0  0  0
  193.3610  171.6530  142.4960 C   0  0  0  0  0  2  0  0  0  0  0  0
  191.8380  169.8320  142.3380 O   0  0  0  0  0  1  0  0  0  0  0  0
  193.7420  171.7170  141.0320 C   0  0  1  0  0  0  0  0  0  0  0  0
  194.7960  170.6750  140.6940 C   0  0  0  0  0  1  0  0  0  0  0  0
  192.0150  171.1710  141.9900 C   0  0  2  0  0  3  0  0  0  0  0  0
  194.1660  173.1310  140.5880 C   0  0  0  0  0  2  0  0  0  0  0  0
  194.3480  174.0160  141.7300 N   0  0  0  0  0  0  0  0  0  0  0  0
  196.8840  175.7340  140.3300 C   0  0  0  0  0  1  0  0  0  0  0  0
  194.7610  176.2840  141.1070 C   0  0  0  0  0  3  0  0  0  0  0  0
  196.0310  175.7090  141.5040 N   0  0  0  0  0  0  0  0  0  0  0  0
  193.6930  175.2670  141.4020 C   0  0  0  0  0  3  0  0  0  0  0  0
  195.7760  174.3020  141.8100 C   0  0  0  0  0  2  0  0  0  0  0  0
  1  8  1  0  0  0  0
  2 11  2  0  0  0  0
  2 12  1  0  0  0  0
  3 10  2  0  0  0  0
  4  8  1  0  0  0  0
  5  1  1  0  0  0  0
  6  1  1  0  0  0  0
  7  4  2  0  0  0  0
  9  7  1  0  0  0  0
  9  5  1  0  0  0  0
 10 11  1  0  0  0  0
 11  7  1  0  0  0  0
 12 15  2  0  0  0  0
 13  2  1  0  0  0  0
 14  3  1  0  0  0  0
 14 13  2  0  0  0  0
 15  4  1  0  0  0  0
 16 13  1  0  0  0  0
 17 18  1  0  0  0  0
 18 24  1  6  0  0  0
 19 22  1  0  0  0  0
 20 17  1  0  0  0  0
 21 16  1  6  0  0  0
 21 20  1  0  0  0  0
 21 19  1  0  0  0  0
 22 18  1  0  0  0  0
 24 23  3  0  0  0  0
 25  3  1  0  0  0  0
 26 25  1  0  0  0  0
 27 28  1  0  0  0  0
 27 26  1  0  0  0  0
 28 29  1  6  0  0  0
 28 30  1  0  0  0  0
 30 31  1  0  0  0  0
 31 34  1  0  0  0  0
 31 36  1  0  0  0  0
 34 35  1  6  0  0  0
 34 32  1  0  0  0  0
 36 33  1  1  0  0  0
 36 32  1  0  0  0  0
 37 34  1  0  0  0  0
 37 38  1  0  0  0  0
 38 43  1  0  0  0  0
 39 41  1  0  0  0  0
 40 42  2  0  0  0  0
 40 41  1  0  0  0  0
 41 43  1  0  0  0  0
 42 38  1  0  0  0  0
M  END
>  <MODEL>
6

>  <REMARK>
 VINA RESULT:      -6.8      1.842      2.670
  Name = 
  11 active torsions:
  status: ('A' for Active; 'I' for Inactive)
    1  A    between atoms: N_1  and  C_34
    2  A    between atoms: N_1  and  C_35
    3  A    between atoms: C_2  and  O_7
    4  A    between atoms: C_2  and  C_13
    5  A    between atoms: C_3  and  N_4
    6  A    between atoms: C_3  and  C_12
    7  A    between atoms: C_6  and  O_7
    8  A    between atoms: C_6  and  C_12
    9  A    between atoms: N_11  and  C_14
   10  A    between atoms: C_14  and  C_22
   11  A    between atoms: C_19  and  C_37
                            x       y       z     vdW  Elec       q    Type
                         _______ _______ _______ _____ _____    ______ ____

>  <TORSDO>
F 11

$$$$
=
 OpenBabel11052420443D

 43 48  0  0  1  0  0  0  0  0999 V2000
  189.2880  177.5380  146.0790 N   0  0  0  0  0  0  0  0  0  0  0  0
  193.5620  174.8930  145.2750 C   0  0  0  0  0  0  0  0  0  0  0  0
  194.2710  175.3850  142.6560 C   0  0  0  0  0  0  0  0  0  0  0  0
  191.3020  176.1740  146.3310 C   0  0  0  0  0  0  0  0  0  0  0  0
  190.0190  178.2950  145.0550 C   0  0  0  0  0  2  0  0  0  0  0  0
  188.4780  176.6520  145.4500 O   0  0  0  0  0  1  0  0  0  0  0  0
  191.6970  176.4420  145.0120 C   0  0  0  0  0  0  0  0  0  0  0  0
  190.1750  176.8140  146.8630 O   0  0  0  0  0  0  0  0  0  0  0  0
  190.8690  177.3730  144.1750 C   0  0  0  0  0  2  0  0  0  0  0  0
  193.1930  176.0120  143.1910 N   0  0  0  0  0  0  0  0  0  0  0  0
  192.8190  175.7920  144.4770 C   0  0  0  0  0  0  0  0  0  0  0  0
  193.1670  174.6510  146.5970 C   0  0  0  0  0  3  0  0  0  0  0  0
  194.6730  174.2560  144.7050 C   0  0  0  0  0  0  0  0  0  0  0  0
  194.9970  174.5140  143.4050 N   0  0  0  0  0  0  0  0  0  0  0  0
  192.0420  175.2920  147.1230 C   0  0  0  0  0  3  0  0  0  0  0  0
  195.4580  173.3380  145.4770 N   0  0  0  0  0  2  0  0  0  0  0  0
  194.8510  169.7150  144.5780 C   0  0  0  0  0  2  0  0  0  0  0  0
  195.9610  169.1330  145.4610 C   0  0  1  0  0  3  0  0  0  0  0  0
  196.7780  171.3560  145.9640 C   0  0  0  0  0  2  0  0  0  0  0  0
  194.5070  171.1440  144.9860 C   0  0  0  0  0  2  0  0  0  0  0  0
  195.7720  171.9940  145.0150 C   0  0  1  0  0  3  0  0  0  0  0  0
  197.1370  170.0130  145.4970 N   0  0  0  0  0  2  0  0  0  0  0  0
  195.0810  168.5510  147.9180 C   0  0  0  0  0  3  0  0  0  0  0  0
  195.4790  168.8120  146.8120 C   0  0  0  0  0  0  0  0  0  0  0  0
  194.5830  175.5910  141.2050 C   0  0  0  0  0  2  0  0  0  0  0  0
  194.5650  174.3900  140.4660 O   0  0  0  0  0  0  0  0  0  0  0  0
  193.3150  174.2780  139.8350 C   0  0  0  0  0  2  0  0  0  0  0  0
  192.5080  173.1030  140.3770 C   0  0  1  0  0  3  0  0  0  0  0  0
  193.2810  172.3890  141.3050 O   0  0  0  0  0  1  0  0  0  0  0  0
  191.2690  173.6660  141.0530 C   0  0  0  0  0  2  0  0  0  0  0  0
  190.8850  172.8560  142.2140 N   0  0  0  0  0  0  0  0  0  0  0  0
  188.8000  172.2840  142.4090 C   0  0  0  0  0  2  0  0  0  0  0  0
  190.4410  170.5650  142.2980 O   0  0  0  0  0  1  0  0  0  0  0  0
  189.7040  173.3840  142.9240 C   0  0  1  0  0  0  0  0  0  0  0  0
  189.8990  173.2730  144.4280 C   0  0  0  0  0  1  0  0  0  0  0  0
  190.0450  171.7680  141.7130 C   0  0  2  0  0  3  0  0  0  0  0  0
  189.2290  174.7900  142.5070 C   0  0  0  0  0  2  0  0  0  0  0  0
  187.9120  174.7460  141.8880 N   0  0  0  0  0  0  0  0  0  0  0  0
  187.2540  178.0030  142.4360 C   0  0  0  0  0  1  0  0  0  0  0  0
  187.4390  176.6620  140.5440 C   0  0  0  0  0  3  0  0  0  0  0  0
  186.7140  176.8210  141.7900 N   0  0  0  0  0  0  0  0  0  0  0  0
  188.0550  175.2910  140.5520 C   0  0  0  0  0  3  0  0  0  0  0  0
  187.0730  175.6790  142.6310 C   0  0  0  0  0  2  0  0  0  0  0  0
  1  8  1  0  0  0  0
  2 12  1  0  0  0  0
  3 10  2  0  0  0  0
  3 14  1  0  0  0  0
  4  8  1  0  0  0  0
  4 15  1  0  0  0  0
  5  1  1  0  0  0  0
  6  1  1  0  0  0  0
  7  4  2  0  0  0  0
  9  7  1  0  0  0  0
  9  5  1  0  0  0  0
 10 11  1  0  0  0  0
 11  7  1  0  0  0  0
 11  2  2  0  0  0  0
 12 15  2  0  0  0  0
 13  2  1  0  0  0  0
 13 16  1  0  0  0  0
 14 13  2  0  0  0  0
 17 20  1  0  0  0  0
 17 18  1  0  0  0  0
 18 22  1  0  0  0  0
 18 24  1  1  0  0  0
 20 21  1  0  0  0  0
 21 16  1  1  0  0  0
 21 19  1  0  0  0  0
 22 19  1  0  0  0  0
 24 23  3  0  0  0  0
 25  3  1  0  0  0  0
 26 25  1  0  0  0  0
 27 28  1  0  0  0  0
 27 26  1  0  0  0  0
 28 30  1  0  0  0  0
 28 29  1  1  0  0  0
 30 31  1  0  0  0  0
 31 34  1  0  0  0  0
 32 34  1  0  0  0  0
 34 35  1  1  0  0  0
 36 31  1  0  0  0  0
 36 33  1  1  0  0  0
 36 32  1  0  0  0  0
 37 34  1  0  0  0  0
 38 37  1  0  0  0  0
 38 43  1  0  0  0  0
 40 42  2  0  0  0  0
 40 41  1  0  0  0  0
 41 39  1  0  0  0  0
 41 43  1  0  0  0  0
 42 38  1  0  0  0  0
M  END
>  <MODEL>
7

>  <REMARK>
 VINA RESULT:      -6.8      3.027      7.471
  Name = 
  11 active torsions:
  status: ('A' for Active; 'I' for Inactive)
    1  A    between atoms: N_1  and  C_34
    2  A    between atoms: N_1  and  C_35
    3  A    between atoms: C_2  and  O_7
    4  A    between atoms: C_2  and  C_13
    5  A    between atoms: C_3  and  N_4
    6  A    between atoms: C_3  and  C_12
    7  A    between atoms: C_6  and  O_7
    8  A    between atoms: C_6  and  C_12
    9  A    between atoms: N_11  and  C_14
   10  A    between atoms: C_14  and  C_22
   11  A    between atoms: C_19  and  C_37
                            x       y       z     vdW  Elec       q    Type
                         _______ _______ _______ _____ _____    ______ ____

>  <TORSDO>
F 11

$$$$
=
 OpenBabel11052420443D

 43 48  0  0  1  0  0  0  0  0999 V2000
  193.7740  175.8410  145.2900 N   0  0  0  0  0  0  0  0  0  0  0  0
  188.9980  176.4780  143.6520 C   0  0  0  0  0  0  0  0  0  0  0  0
  188.3210  174.1320  142.3720 C   0  0  0  0  0  0  0  0  0  0  0  0
  191.5190  176.6850  144.8590 C   0  0  0  0  0  0  0  0  0  0  0  0
  193.1910  174.4940  145.2780 C   0  0  0  0  0  2  0  0  0  0  0  0
  194.3460  176.0640  144.0830 O   0  0  0  0  0  1  0  0  0  0  0  0
  191.1470  175.4850  144.2360 C   0  0  0  0  0  0  0  0  0  0  0  0
  192.7780  176.7910  145.4660 O   0  0  0  0  0  0  0  0  0  0  0  0
  192.1290  174.3520  144.1840 C   0  0  0  0  0  2  0  0  0  0  0  0
  189.5280  174.2430  142.9800 N   0  0  0  0  0  0  0  0  0  0  0  0
  189.8900  175.3840  143.6190 C   0  0  0  0  0  0  0  0  0  0  0  0
  189.3760  177.6630  144.2970 C   0  0  0  0  0  3  0  0  0  0  0  0
  187.7540  176.3440  143.0190 C   0  0  0  0  0  0  0  0  0  0  0  0
  187.4480  175.1730  142.3880 N   0  0  0  0  0  0  0  0  0  0  0  0
  190.6320  177.7640  144.9000 C   0  0  0  0  0  3  0  0  0  0  0  0
  186.8140  177.4260  143.0280 N   0  0  0  0  0  2  0  0  0  0  0  0
  184.1590  178.9680  145.2360 C   0  0  0  0  0  2  0  0  0  0  0  0
  184.5000  178.1650  146.4960 C   0  0  1  0  0  3  0  0  0  0  0  0
  186.0530  176.7910  145.2480 C   0  0  0  0  0  2  0  0  0  0  0  0
  185.2970  178.9200  144.2220 C   0  0  0  0  0  2  0  0  0  0  0  0
  185.6780  177.4720  143.9380 C   0  0  1  0  0  3  0  0  0  0  0  0
  184.9100  176.7940  146.1670 N   0  0  0  0  0  2  0  0  0  0  0  0
  186.3170  179.4090  148.0130 C   0  0  0  0  0  3  0  0  0  0  0  0
  185.4990  178.8480  147.3320 C   0  0  0  0  0  0  0  0  0  0  0  0
  188.0100  172.8860  141.6000 C   0  0  0  0  0  2  0  0  0  0  0  0
  188.1910  173.0440  140.2100 O   0  0  0  0  0  0  0  0  0  0  0  0
  189.4750  172.5800  139.8760 C   0  0  0  0  0  2  0  0  0  0  0  0
  189.9420  173.1180  138.5270 C   0  0  1  0  0  3  0  0  0  0  0  0
  189.0650  174.1230  138.0930 O   0  0  0  0  0  1  0  0  0  0  0  0
  191.3380  173.6900  138.7160 C   0  0  0  0  0  2  0  0  0  0  0  0
  191.8910  174.1660  137.4440 N   0  0  0  0  0  0  0  0  0  0  0  0
  193.8560  173.4520  136.8610 C   0  0  0  0  0  2  0  0  0  0  0  0
  192.0210  173.0310  135.4070 O   0  0  0  0  0  1  0  0  0  0  0  0
  193.2760  174.6600  137.5640 C   0  0  1  0  0  0  0  0  0  0  0  0
  193.4600  175.9190  136.7310 C   0  0  0  0  0  1  0  0  0  0  0  0
  192.4160  172.9920  136.7440 C   0  0  2  0  0  3  0  0  0  0  0  0
  193.8170  174.8340  138.9970 C   0  0  0  0  0  2  0  0  0  0  0  0
  195.0670  174.1120  139.1850 N   0  0  0  0  0  0  0  0  0  0  0  0
  196.3940  176.4160  141.2530 C   0  0  0  0  0  1  0  0  0  0  0  0
  195.8520  174.1610  141.4400 C   0  0  0  0  0  3  0  0  0  0  0  0
  196.6520  175.1060  140.6860 N   0  0  0  0  0  0  0  0  0  0  0  0
  194.9730  173.4310  140.4620 C   0  0  0  0  0  3  0  0  0  0  0  0
  196.1120  175.1200  139.3260 C   0  0  0  0  0  2  0  0  0  0  0  0
  1  8  1  0  0  0  0
  2 12  1  0  0  0  0
  3 14  1  0  0  0  0
  3 10  2  0  0  0  0
  4 15  1  0  0  0  0
  4  8  1  0  0  0  0
  5  1  1  0  0  0  0
  6  1  1  0  0  0  0
  7  4  2  0  0  0  0
  9  7  1  0  0  0  0
  9  5  1  0  0  0  0
 10 11  1  0  0  0  0
 11  2  2  0  0  0  0
 11  7  1  0  0  0  0
 12 15  2  0  0  0  0
 13 16  1  0  0  0  0
 13  2  1  0  0  0  0
 14 13  2  0  0  0  0
 17 18  1  0  0  0  0
 18 24  1  6  0  0  0
 19 22  1  0  0  0  0
 20 17  1  0  0  0  0
 21 16  1  6  0  0  0
 21 20  1  0  0  0  0
 21 19  1  0  0  0  0
 22 18  1  0  0  0  0
 24 23  3  0  0  0  0
 25  3  1  0  0  0  0
 26 25  1  0  0  0  0
 27 26  1  0  0  0  0
 28 29  1  1  0  0  0
 28 30  1  0  0  0  0
 28 27  1  0  0  0  0
 31 34  1  0  0  0  0
 31 30  1  0  0  0  0
 32 34  1  0  0  0  0
 34 35  1  6  0  0  0
 34 37  1  0  0  0  0
 36 33  1  6  0  0  0
 36 32  1  0  0  0  0
 36 31  1  0  0  0  0
 37 38  1  0  0  0  0
 38 43  1  0  0  0  0
 38 42  1  0  0  0  0
 41 39  1  0  0  0  0
 41 40  1  0  0  0  0
 42 40  2  0  0  0  0
 43 41  1  0  0  0  0
M  END
>  <MODEL>
8

>  <REMARK>
 VINA RESULT:      -6.8      2.378      3.899
  Name = 
  11 active torsions:
  status: ('A' for Active; 'I' for Inactive)
    1  A    between atoms: N_1  and  C_34
    2  A    between atoms: N_1  and  C_35
    3  A    between atoms: C_2  and  O_7
    4  A    between atoms: C_2  and  C_13
    5  A    between atoms: C_3  and  N_4
    6  A    between atoms: C_3  and  C_12
    7  A    between atoms: C_6  and  O_7
    8  A    between atoms: C_6  and  C_12
    9  A    between atoms: N_11  and  C_14
   10  A    between atoms: C_14  and  C_22
   11  A    between atoms: C_19  and  C_37
                            x       y       z     vdW  Elec       q    Type
                         _______ _______ _______ _____ _____    ______ ____

>  <TORSDO>
F 11

$$$$
=
 OpenBabel11052420443D

 43 48  0  0  1  0  0  0  0  0999 V2000
  196.6710  168.7140  145.8760 N   0  0  0  0  0  0  0  0  0  0  0  0
  194.1030  172.9850  144.8390 C   0  0  0  0  0  0  0  0  0  0  0  0
  191.7210  172.1770  143.7120 C   0  0  0  0  0  0  0  0  0  0  0  0
  195.9200  171.0360  145.7130 C   0  0  0  0  0  0  0  0  0  0  0  0
  195.2540  168.3410  145.9700 C   0  0  0  0  0  2  0  0  0  0  0  0
  197.0780  168.5060  144.6010 O   0  0  0  0  0  1  0  0  0  0  0  0
  194.6880  170.6410  145.1700 C   0  0  0  0  0  0  0  0  0  0  0  0
  196.8280  170.0650  146.1530 O   0  0  0  0  0  0  0  0  0  0  0  0
  194.3890  169.1780  145.0230 C   0  0  0  0  0  2  0  0  0  0  0  0
  192.6020  171.2480  144.1600 N   0  0  0  0  0  0  0  0  0  0  0  0
  193.7830  171.6150  144.7200 C   0  0  0  0  0  0  0  0  0  0  0  0
  195.3290  173.3650  145.4010 C   0  0  0  0  0  3  0  0  0  0  0  0
  193.1780  173.9290  144.3710 C   0  0  0  0  0  0  0  0  0  0  0  0
  192.0090  173.5010  143.8130 N   0  0  0  0  0  0  0  0  0  0  0  0
  196.2330  172.3920  145.8380 C   0  0  0  0  0  3  0  0  0  0  0  0
  193.4590  175.3320  144.4730 N   0  0  0  0  0  2  0  0  0  0  0  0
  191.7870  176.6350  147.6040 C   0  0  0  0  0  2  0  0  0  0  0  0
  190.3840  176.7720  147.0020 C   0  0  1  0  0  3  0  0  0  0  0  0
  191.2400  176.2700  144.7940 C   0  0  0  0  0  2  0  0  0  0  0  0
  192.6740  175.7370  146.7480 C   0  0  0  0  0  2  0  0  0  0  0  0
  192.6740  176.2310  145.3060 C   0  0  1  0  0  3  0  0  0  0  0  0
  190.4400  177.1990  145.5980 N   0  0  0  0  0  2  0  0  0  0  0  0
  188.9420  174.5390  147.2990 C   0  0  0  0  0  3  0  0  0  0  0  0
  189.5910  175.5440  147.1670 C   0  0  0  0  0  0  0  0  0  0  0  0
  190.4750  171.7180  143.0160 C   0  0  0  0  0  2  0  0  0  0  0  0
  189.9820  172.6660  142.0950 O   0  0  0  0  0  0  0  0  0  0  0  0
  189.1260  173.5440  142.7800 C   0  0  0  0  0  2  0  0  0  0  0  0
  188.8390  174.8060  141.9730 C   0  0  1  0  0  3  0  0  0  0  0  0
  188.1890  174.4620  140.7790 O   0  0  0  0  0  1  0  0  0  0  0  0
  187.9450  175.7010  142.8150 C   0  0  0  0  0  2  0  0  0  0  0  0
  187.0030  176.4490  141.9750 N   0  0  0  0  0  0  0  0  0  0  0  0
  187.0700  178.6160  142.0550 C   0  0  0  0  0  2  0  0  0  0  0  0
  187.4190  177.5480  139.9580 O   0  0  0  0  0  1  0  0  0  0  0  0
  186.2820  177.5040  142.7120 C   0  0  1  0  0  0  0  0  0  0  0  0
  184.8220  177.5410  142.2870 C   0  0  0  0  0  1  0  0  0  0  0  0
  187.7710  177.4990  141.3060 C   0  0  2  0  0  3  0  0  0  0  0  0
  186.4340  177.4910  144.2460 C   0  0  0  0  0  2  0  0  0  0  0  0
  185.2140  177.9310  144.9070 N   0  0  0  0  0  0  0  0  0  0  0  0
  186.3270  177.2340  148.0080 C   0  0  0  0  0  1  0  0  0  0  0  0
  185.6210  179.1610  146.9130 C   0  0  0  0  0  3  0  0  0  0  0  0
  185.2070  177.8270  147.3030 N   0  0  0  0  0  0  0  0  0  0  0  0
  185.4690  179.2630  145.4200 C   0  0  0  0  0  3  0  0  0  0  0  0
  185.0340  177.0650  146.0670 C   0  0  0  0  0  2  0  0  0  0  0  0
  1  5  1  0  0  0  0
  1  8  1  0  0  0  0
  2 12  1  0  0  0  0
  3 14  1  0  0  0  0
  3 10  2  0  0  0  0
  4 15  1  0  0  0  0
  4  8  1  0  0  0  0
  6  1  1  0  0  0  0
  7  4  2  0  0  0  0
  9  7  1  0  0  0  0
  9  5  1  0  0  0  0
 10 11  1  0  0  0  0
 11  2  2  0  0  0  0
 11  7  1  0  0  0  0
 12 15  2  0  0  0  0
 13 16  1  0  0  0  0
 13  2  1  0  0  0  0
 14 13  2  0  0  0  0
 18 24  1  6  0  0  0
 18 17  1  0  0  0  0
 19 21  1  0  0  0  0
 19 22  1  0  0  0  0
 20 17  1  0  0  0  0
 21 16  1  6  0  0  0
 21 20  1  0  0  0  0
 22 18  1  0  0  0  0
 24 23  3  0  0  0  0
 25  3  1  0  0  0  0
 26 27  1  0  0  0  0
 26 25  1  0  0  0  0
 28 29  1  6  0  0  0
 28 27  1  0  0  0  0
 28 30  1  0  0  0  0
 31 34  1  0  0  0  0
 31 30  1  0  0  0  0
 32 34  1  0  0  0  0
 34 35  1  6  0  0  0
 34 37  1  0  0  0  0
 36 33  1  6  0  0  0
 36 31  1  0  0  0  0
 36 32  1  0  0  0  0
 37 38  1  0  0  0  0
 38 42  1  0  0  0  0
 38 43  1  0  0  0  0
 40 41  1  0  0  0  0
 41 39  1  0  0  0  0
 42 40  2  0  0  0  0
 43 41  1  0  0  0  0
M  END
>  <MODEL>
9

>  <REMARK>
 VINA RESULT:      -6.7      2.958      7.309
  Name = 
  11 active torsions:
  status: ('A' for Active; 'I' for Inactive)
    1  A    between atoms: N_1  and  C_34
    2  A    between atoms: N_1  and  C_35
    3  A    between atoms: C_2  and  O_7
    4  A    between atoms: C_2  and  C_13
    5  A    between atoms: C_3  and  N_4
    6  A    between atoms: C_3  and  C_12
    7  A    between atoms: C_6  and  O_7
    8  A    between atoms: C_6  and  C_12
    9  A    between atoms: N_11  and  C_14
   10  A    between atoms: C_14  and  C_22
   11  A    between atoms: C_19  and  C_37
                            x       y       z     vdW  Elec       q    Type
                         _______ _______ _______ _____ _____    ______ ____

>  <TORSDO>
F 11

$$$$
