=
 OpenBabel11052418203D

 27 31  0  0  1  0  0  0  0  0999 V2000
  188.5050  177.3860  143.0640 N   0  0  0  0  0  0  0  0  0  0  0  0
  189.1050  176.3850  145.1190 C   0  0  1  0  0  3  0  0  0  0  0  0
  190.1370  174.6380  143.8160 N   0  0  0  0  0  2  0  0  0  0  0  0
  192.5150  176.9140  147.9570 C   0  0  0  0  0  3  0  0  0  0  0  0
  194.5120  176.9200  146.5420 F   0  0  0  0  0  0  0  0  0  0  0  0
  189.2970  176.7890  146.5150 C   0  0  0  0  0  3  0  0  0  0  0  0
  192.5370  176.0170  145.6540 C   0  0  0  0  0  0  0  0  0  0  0  0
  188.6620  172.6660  141.2120 N   0  0  0  0  0  0  0  0  0  0  0  0
  193.3860  175.6360  144.1610 Cl  0  0  0  0  0  0  0  0  0  0  0  0
  188.1250  173.5790  140.3690 C   0  0  0  0  0  3  0  0  0  0  0  0
  191.1350  175.4950  145.8700 C   0  0  2  0  0  3  0  0  0  0  0  0
  188.1430  176.9680  144.2980 C   0  0  0  0  0  0  0  0  0  0  0  0
  193.2030  176.5910  146.6770 C   0  0  0  0  0  0  0  0  0  0  0  0
  191.1880  176.7910  148.0800 C   0  0  0  0  0  3  0  0  0  0  0  0
  188.8380  176.6800  142.0150 O   0  0  0  0  0  0  0  0  0  0  0  0
  190.2040  175.6440  144.7120 C   0  0  2  0  0  3  0  0  0  0  0  0
  189.2740  173.0440  142.3620 C   0  0  0  0  0  3  0  0  0  0  0  0
  190.4450  176.2880  146.9260 C   0  0  0  0  0  0  0  0  0  0  0  0
  188.1910  174.9330  140.6840 C   0  0  0  0  0  3  0  0  0  0  0  0
  188.7720  175.3660  141.8830 C   0  0  0  0  0  0  0  0  0  0  0  0
  189.3370  174.3890  142.7520 C   0  0  0  0  0  0  0  0  0  0  0  0
  184.4680  178.7310  145.7000 C   0  0  0  0  0  3  0  0  0  0  0  0
  187.0470  177.7420  144.9760 C   0  0  2  0  0  3  0  0  0  0  0  0
  186.0460  176.7910  145.6380 C   0  0  0  0  0  2  0  0  0  0  0  0
  184.8160  177.5100  146.1340 C   0  0  0  0  0  3  0  0  0  0  0  0
  185.3330  179.5350  144.7610 C   0  0  0  0  0  2  0  0  0  0  0  0
  186.3170  178.6560  143.9930 C   0  0  0  0  0  2  0  0  0  0  0  0
  1 12  2  0  0  0  0
  2  6  1  6  0  0  0
  4 14  2  0  0  0  0
  5 13  1  0  0  0  0
  6 18  2  0  0  0  0
  7 13  2  0  0  0  0
  8 17  1  0  0  0  0
  9  7  1  0  0  0  0
 10 19  1  0  0  0  0
 10  8  2  0  0  0  0
 11  7  1  6  0  0  0
 11 18  1  0  0  0  0
 12  2  1  0  0  0  0
 13  4  1  0  0  0  0
 15  1  1  0  0  0  0
 16  3  1  1  0  0  0
 16  2  1  0  0  0  0
 16 11  1  0  0  0  0
 17 21  2  0  0  0  0
 18 14  1  0  0  0  0
 19 20  2  0  0  0  0
 20 15  1  0  0  0  0
 20 21  1  0  0  0  0
 21  3  1  0  0  0  0
 22 25  2  0  0  0  0
 23 12  1  6  0  0  0
 23 24  1  0  0  0  0
 24 25  1  0  0  0  0
 26 22  1  0  0  0  0
 27 26  1  0  0  0  0
 27 23  1  0  0  0  0
M  END
>  <MODEL>
1

>  <REMARK>
 VINA RESULT:      -8.5      0.000      0.000
  Name = 
  1 active torsions:
  status: ('A' for Active; 'I' for Inactive)
    1  A    between atoms: C_9  and  C_15
                            x       y       z     vdW  Elec       q    Type
                         _______ _______ _______ _____ _____    ______ ____

>  <TORSDO>
F 1

$$$$
=
 OpenBabel11052418203D

 27 31  0  0  1  0  0  0  0  0999 V2000
  187.6560  178.0180  143.7190 N   0  0  0  0  0  0  0  0  0  0  0  0
  188.4460  176.1470  144.9270 C   0  0  1  0  0  3  0  0  0  0  0  0
  189.4500  175.4050  142.8640 N   0  0  0  0  0  2  0  0  0  0  0  0
  192.0310  175.3830  147.4820 C   0  0  0  0  0  3  0  0  0  0  0  0
  193.9160  176.2640  146.1950 F   0  0  0  0  0  0  0  0  0  0  0  0
  188.7230  175.7840  146.3200 C   0  0  0  0  0  3  0  0  0  0  0  0
  191.9210  175.8080  145.0500 C   0  0  0  0  0  0  0  0  0  0  0  0
  187.8710  174.9590  139.6780 N   0  0  0  0  0  0  0  0  0  0  0  0
  192.6720  176.3170  143.5430 Cl  0  0  0  0  0  0  0  0  0  0  0  0
  187.2360  176.1350  139.4560 C   0  0  0  0  0  3  0  0  0  0  0  0
  190.5600  175.1490  145.0210 C   0  0  2  0  0  3  0  0  0  0  0  0
  187.4040  176.9980  144.5700 C   0  0  0  0  0  0  0  0  0  0  0  0
  192.6360  175.8180  146.1940 C   0  0  0  0  0  0  0  0  0  0  0  0
  190.7220  175.1160  147.5780 C   0  0  0  0  0  3  0  0  0  0  0  0
  187.9400  177.9820  142.4440 O   0  0  0  0  0  0  0  0  0  0  0  0
  189.5420  175.8050  144.1490 C   0  0  2  0  0  3  0  0  0  0  0  0
  188.5490  174.7330  140.8300 C   0  0  0  0  0  3  0  0  0  0  0  0
  189.9180  175.2290  146.3620 C   0  0  0  0  0  0  0  0  0  0  0  0
  187.2700  177.1310  140.4260 C   0  0  0  0  0  3  0  0  0  0  0  0
  187.9190  176.9240  141.6490 C   0  0  0  0  0  0  0  0  0  0  0  0
  188.5860  175.6840  141.8590 C   0  0  0  0  0  0  0  0  0  0  0  0
  184.4090  178.5040  147.2800 C   0  0  0  0  0  3  0  0  0  0  0  0
  186.3290  177.2270  145.5960 C   0  0  2  0  0  3  0  0  0  0  0  0
  185.1060  177.8900  144.9570 C   0  0  0  0  0  2  0  0  0  0  0  0
  184.0990  178.3420  145.9850 C   0  0  0  0  0  3  0  0  0  0  0  0
  185.7640  178.1460  147.8390 C   0  0  0  0  0  2  0  0  0  0  0  0
  186.8360  178.0850  146.7540 C   0  0  0  0  0  2  0  0  0  0  0  0
  1 12  2  0  0  0  0
  2  6  1  1  0  0  0
  4 14  2  0  0  0  0
  6 18  2  0  0  0  0
  7 13  2  0  0  0  0
  8 17  1  0  0  0  0
  9  7  1  0  0  0  0
 10  8  2  0  0  0  0
 10 19  1  0  0  0  0
 11  7  1  1  0  0  0
 11 18  1  0  0  0  0
 12  2  1  0  0  0  0
 13  5  1  0  0  0  0
 13  4  1  0  0  0  0
 15  1  1  0  0  0  0
 16  3  1  6  0  0  0
 16  2  1  0  0  0  0
 16 11  1  0  0  0  0
 17 21  2  0  0  0  0
 18 14  1  0  0  0  0
 19 20  2  0  0  0  0
 20 21  1  0  0  0  0
 20 15  1  0  0  0  0
 21  3  1  0  0  0  0
 22 26  1  0  0  0  0
 23 12  1  6  0  0  0
 23 27  1  0  0  0  0
 24 23  1  0  0  0  0
 24 25  1  0  0  0  0
 25 22  2  0  0  0  0
 27 26  1  0  0  0  0
M  END
>  <MODEL>
2

>  <REMARK>
 VINA RESULT:      -8.3      1.406      1.765
  Name = 
  1 active torsions:
  status: ('A' for Active; 'I' for Inactive)
    1  A    between atoms: C_9  and  C_15
                            x       y       z     vdW  Elec       q    Type
                         _______ _______ _______ _____ _____    ______ ____

>  <TORSDO>
F 1

$$$$
=
 OpenBabel11052418203D

 27 31  0  0  1  0  0  0  0  0999 V2000
  188.9370  177.2640  143.1410 N   0  0  0  0  0  0  0  0  0  0  0  0
  190.1930  176.2650  144.8760 C   0  0  1  0  0  3  0  0  0  0  0  0
  190.9850  174.6990  143.2210 N   0  0  0  0  0  2  0  0  0  0  0  0
  194.1950  177.0810  146.6860 C   0  0  0  0  0  3  0  0  0  0  0  0
  195.6990  177.3710  144.7770 F   0  0  0  0  0  0  0  0  0  0  0  0
  190.7300  176.6360  146.1880 C   0  0  0  0  0  3  0  0  0  0  0  0
  193.6550  176.2790  144.4120 C   0  0  0  0  0  0  0  0  0  0  0  0
  189.0410  172.6660  141.0000 N   0  0  0  0  0  0  0  0  0  0  0  0
  194.0800  176.0550  142.7190 Cl  0  0  0  0  0  0  0  0  0  0  0  0
  188.1970  173.5410  140.4040 C   0  0  0  0  0  3  0  0  0  0  0  0
  192.4310  175.5900  144.9730 C   0  0  2  0  0  3  0  0  0  0  0  0
  188.9840  176.7620  144.3950 C   0  0  0  0  0  0  0  0  0  0  0  0
  194.5220  176.8870  145.2470 C   0  0  0  0  0  0  0  0  0  0  0  0
  192.9770  176.8000  147.1640 C   0  0  0  0  0  3  0  0  0  0  0  0
  189.0300  176.6410  141.9960 O   0  0  0  0  0  0  0  0  0  0  0  0
  191.2000  175.6720  144.1310 C   0  0  2  0  0  3  0  0  0  0  0  0
  189.9110  173.0700  141.9590 C   0  0  0  0  0  3  0  0  0  0  0  0
  191.9930  176.2570  146.2290 C   0  0  0  0  0  0  0  0  0  0  0  0
  188.2130  174.8810  140.7800 C   0  0  0  0  0  3  0  0  0  0  0  0
  189.0620  175.3340  141.7970 C   0  0  0  0  0  0  0  0  0  0  0  0
  189.9460  174.3980  142.4070 C   0  0  0  0  0  0  0  0  0  0  0  0
  185.7170  177.9690  146.9340 C   0  0  0  0  0  3  0  0  0  0  0  0
  188.0520  177.3770  145.4020 C   0  0  2  0  0  3  0  0  0  0  0  0
  187.4880  176.3060  146.3390 C   0  0  0  0  0  2  0  0  0  0  0  0
  186.3820  176.8380  147.2160 C   0  0  0  0  0  3  0  0  0  0  0  0
  186.0900  178.8620  145.7770 C   0  0  0  0  0  2  0  0  0  0  0  0
  186.9050  178.1220  144.7200 C   0  0  0  0  0  2  0  0  0  0  0  0
  1 12  2  0  0  0  0
  2  6  1  6  0  0  0
  4 14  2  0  0  0  0
  5 13  1  0  0  0  0
  6 18  2  0  0  0  0
  7 13  2  0  0  0  0
  8 17  1  0  0  0  0
  9  7  1  0  0  0  0
 10 19  1  0  0  0  0
 10  8  2  0  0  0  0
 11  7  1  6  0  0  0
 11 18  1  0  0  0  0
 12  2  1  0  0  0  0
 13  4  1  0  0  0  0
 15  1  1  0  0  0  0
 16  3  1  1  0  0  0
 16  2  1  0  0  0  0
 16 11  1  0  0  0  0
 17 21  2  0  0  0  0
 18 14  1  0  0  0  0
 19 20  2  0  0  0  0
 20 15  1  0  0  0  0
 20 21  1  0  0  0  0
 21  3  1  0  0  0  0
 22 25  2  0  0  0  0
 23 12  1  6  0  0  0
 23 24  1  0  0  0  0
 24 25  1  0  0  0  0
 26 22  1  0  0  0  0
 27 23  1  0  0  0  0
 27 26  1  0  0  0  0
M  END
>  <MODEL>
3

>  <REMARK>
 VINA RESULT:      -8.2      1.116      1.379
  Name = 
  1 active torsions:
  status: ('A' for Active; 'I' for Inactive)
    1  A    between atoms: C_9  and  C_15
                            x       y       z     vdW  Elec       q    Type
                         _______ _______ _______ _____ _____    ______ ____

>  <TORSDO>
F 1

$$$$
=
 OpenBabel11052418203D

 27 31  0  0  1  0  0  0  0  0999 V2000
  188.3250  176.7370  142.4310 N   0  0  0  0  0  0  0  0  0  0  0  0
  188.5680  175.4430  144.3930 C   0  0  1  0  0  3  0  0  0  0  0  0
  189.7410  173.8360  143.0290 N   0  0  0  0  0  2  0  0  0  0  0  0
  191.5070  175.4180  147.7580 C   0  0  0  0  0  3  0  0  0  0  0  0
  193.6990  175.5140  146.6760 F   0  0  0  0  0  0  0  0  0  0  0  0
  188.5510  175.6460  145.8440 C   0  0  0  0  0  3  0  0  0  0  0  0
  191.8630  174.8370  145.3830 C   0  0  0  0  0  0  0  0  0  0  0  0
  188.6360  172.3050  139.9830 N   0  0  0  0  0  0  0  0  0  0  0  0
  192.9230  174.6180  143.9960 Cl  0  0  0  0  0  0  0  0  0  0  0  0
  188.2640  173.3480  139.2040 C   0  0  0  0  0  3  0  0  0  0  0  0
  190.4300  174.3610  145.3100 C   0  0  2  0  0  3  0  0  0  0  0  0
  187.7640  176.1770  143.5260 C   0  0  0  0  0  0  0  0  0  0  0  0
  192.3770  175.2350  146.5650 C   0  0  0  0  0  0  0  0  0  0  0  0
  190.1740  175.3450  147.6620 C   0  0  0  0  0  3  0  0  0  0  0  0
  188.7980  176.1630  141.3570 O   0  0  0  0  0  0  0  0  0  0  0  0
  189.6960  174.7090  144.0570 C   0  0  2  0  0  3  0  0  0  0  0  0
  189.0710  172.4950  141.2530 C   0  0  0  0  0  3  0  0  0  0  0  0
  189.6070  175.0380  146.3490 C   0  0  0  0  0  0  0  0  0  0  0  0
  188.3180  174.6420  139.7120 C   0  0  0  0  0  3  0  0  0  0  0  0
  188.7160  174.8820  141.0330 C   0  0  0  0  0  0  0  0  0  0  0  0
  189.1110  173.7710  141.8320 C   0  0  0  0  0  0  0  0  0  0  0  0
  184.5960  178.8760  144.6480 C   0  0  0  0  0  3  0  0  0  0  0  0
  186.5960  176.9060  144.1320 C   0  0  2  0  0  3  0  0  0  0  0  0
  185.5110  177.1540  143.0810 C   0  0  0  0  0  2  0  0  0  0  0  0
  184.4280  178.0750  143.5860 C   0  0  0  0  0  3  0  0  0  0  0  0
  185.8440  178.8480  145.4950 C   0  0  0  0  0  2  0  0  0  0  0  0
  187.0290  178.2340  144.7530 C   0  0  0  0  0  2  0  0  0  0  0  0
  1 12  2  0  0  0  0
  2  6  1  1  0  0  0
  6 18  2  0  0  0  0
  7 13  2  0  0  0  0
  8 17  1  0  0  0  0
  9  7  1  0  0  0  0
 10 19  1  0  0  0  0
 10  8  2  0  0  0  0
 11  7  1  6  0  0  0
 11 18  1  0  0  0  0
 12  2  1  0  0  0  0
 13  5  1  0  0  0  0
 13  4  1  0  0  0  0
 14  4  2  0  0  0  0
 15  1  1  0  0  0  0
 16  3  1  1  0  0  0
 16  2  1  0  0  0  0
 16 11  1  0  0  0  0
 17 21  2  0  0  0  0
 18 14  1  0  0  0  0
 19 20  2  0  0  0  0
 20 15  1  0  0  0  0
 20 21  1  0  0  0  0
 21  3  1  0  0  0  0
 22 26  1  0  0  0  0
 23 12  1  6  0  0  0
 23 27  1  0  0  0  0
 24 25  1  0  0  0  0
 24 23  1  0  0  0  0
 25 22  2  0  0  0  0
 27 26  1  0  0  0  0
M  END
>  <MODEL>
4

>  <REMARK>
 VINA RESULT:      -8.1      1.258      1.449
  Name = 
  1 active torsions:
  status: ('A' for Active; 'I' for Inactive)
    1  A    between atoms: C_9  and  C_15
                            x       y       z     vdW  Elec       q    Type
                         _______ _______ _______ _____ _____    ______ ____

>  <TORSDO>
F 1

$$$$
=
 OpenBabel11052418203D

 27 31  0  0  1  0  0  0  0  0999 V2000
  189.3300  175.0480  145.8200 N   0  0  0  0  0  0  0  0  0  0  0  0
  189.2730  175.4850  143.4990 C   0  0  1  0  0  3  0  0  0  0  0  0
  191.6750  175.2700  143.5330 N   0  0  0  0  0  2  0  0  0  0  0  0
  188.6380  172.9530  139.8730 C   0  0  0  0  0  3  0  0  0  0  0  0
  190.0800  171.0050  140.2090 F   0  0  0  0  0  0  0  0  0  0  0  0
  188.3130  175.3990  142.3950 C   0  0  0  0  0  3  0  0  0  0  0  0
  190.5250  172.9330  141.4680 C   0  0  0  0  0  0  0  0  0  0  0  0
  194.0140  176.9890  145.6350 N   0  0  0  0  0  0  0  0  0  0  0  0
  191.8940  172.1230  142.2200 Cl  0  0  0  0  0  0  0  0  0  0  0  0
  193.5400  176.7910  146.8880 C   0  0  0  0  0  3  0  0  0  0  0  0
  190.3140  174.4130  141.6980 C   0  0  2  0  0  3  0  0  0  0  0  0
  188.8930  175.8150  144.7970 C   0  0  0  0  0  0  0  0  0  0  0  0
  189.7940  172.2900  140.5340 C   0  0  0  0  0  0  0  0  0  0  0  0
  188.1910  174.1450  140.2880 C   0  0  0  0  0  3  0  0  0  0  0  0
  190.5380  174.9240  146.3050 O   0  0  0  0  0  0  0  0  0  0  0  0
  190.4560  174.8740  143.1110 C   0  0  2  0  0  3  0  0  0  0  0  0
  193.3510  176.5180  144.5500 C   0  0  0  0  0  3  0  0  0  0  0  0
  188.9070  174.7880  141.3890 C   0  0  0  0  0  0  0  0  0  0  0  0
  192.3480  176.0980  147.0740 C   0  0  0  0  0  3  0  0  0  0  0  0
  191.6060  175.6340  145.9800 C   0  0  0  0  0  0  0  0  0  0  0  0
  192.1260  175.8480  144.6720 C   0  0  0  0  0  0  0  0  0  0  0  0
  185.4770  178.2470  145.7940 C   0  0  0  0  0  3  0  0  0  0  0  0
  187.5470  176.4630  144.9690 C   0  0  2  0  0  3  0  0  0  0  0  0
  187.5810  177.9140  144.4830 C   0  0  0  0  0  2  0  0  0  0  0  0
  186.3240  178.6660  144.8420 C   0  0  0  0  0  3  0  0  0  0  0  0
  185.6520  176.9320  146.5130 C   0  0  0  0  0  2  0  0  0  0  0  0
  187.0860  176.4160  146.4250 C   0  0  0  0  0  2  0  0  0  0  0  0
  1 15  1  0  0  0  0
  2  6  1  1  0  0  0
  2 12  1  0  0  0  0
  3 21  1  0  0  0  0
  4 14  2  0  0  0  0
  4 13  1  0  0  0  0
  5 13  1  0  0  0  0
  7 11  1  0  0  0  0
  7  9  1  0  0  0  0
  8 10  1  0  0  0  0
 10 19  2  0  0  0  0
 11 18  1  1  0  0  0
 11 16  1  0  0  0  0
 12  1  2  0  0  0  0
 13  7  2  0  0  0  0
 14 18  1  0  0  0  0
 16  2  1  0  0  0  0
 16  3  1  6  0  0  0
 17 21  1  0  0  0  0
 17  8  2  0  0  0  0
 18  6  2  0  0  0  0
 20 15  1  0  0  0  0
 20 19  1  0  0  0  0
 21 20  2  0  0  0  0
 22 26  1  0  0  0  0
 23 12  1  1  0  0  0
 23 27  1  0  0  0  0
 24 25  1  0  0  0  0
 24 23  1  0  0  0  0
 25 22  2  0  0  0  0
 27 26  1  0  0  0  0
M  END
>  <MODEL>
5

>  <REMARK>
 VINA RESULT:      -7.9      2.743      5.525
  Name = 
  1 active torsions:
  status: ('A' for Active; 'I' for Inactive)
    1  A    between atoms: C_9  and  C_15
                            x       y       z     vdW  Elec       q    Type
                         _______ _______ _______ _____ _____    ______ ____

>  <TORSDO>
F 1

$$$$
=
 OpenBabel11052418203D

 27 31  0  0  1  0  0  0  0  0999 V2000
  189.0370  177.4180  142.6530 N   0  0  0  0  0  0  0  0  0  0  0  0
  187.3920  176.6610  144.1700 C   0  0  0  0  0  0  0  0  0  0  0  0
  189.2010  175.7270  145.4630 N   0  0  0  0  0  2  0  0  0  0  0  0
  185.2650  178.5180  147.6330 C   0  0  0  0  0  3  0  0  0  0  0  0
  187.0290  179.5870  148.9510 F   0  0  0  0  0  0  0  0  0  0  0  0
  186.0120  176.9920  144.5400 C   0  0  0  0  0  3  0  0  0  0  0  0
  187.6560  177.9280  147.4140 C   0  0  0  0  0  0  0  0  0  0  0  0
  191.7870  173.5080  144.3530 N   0  0  0  0  0  0  0  0  0  0  0  0
  189.3360  178.1200  147.8980 Cl  0  0  0  0  0  0  0  0  0  0  0  0
  192.3030  174.1210  143.2610 C   0  0  0  0  0  3  0  0  0  0  0  0
  187.2650  176.7870  146.5040 C   0  0  2  0  0  3  0  0  0  0  0  0
  187.8640  176.7800  142.8660 C   0  0  0  0  0  0  0  0  0  0  0  0
  186.6970  178.6650  148.0130 C   0  0  0  0  0  0  0  0  0  0  0  0
  184.8990  177.7680  146.5870 C   0  0  0  0  0  3  0  0  0  0  0  0
  190.2510  177.0430  142.9600 O   0  0  0  0  0  0  0  0  0  0  0  0
  188.1540  176.5670  145.3240 C   0  0  2  0  0  3  0  0  0  0  0  0
  190.7350  174.0370  145.0260 C   0  0  0  0  0  3  0  0  0  0  0  0
  185.9540  177.0670  145.8550 C   0  0  1  0  0  3  0  0  0  0  0  0
  191.7430  175.3120  142.8100 C   0  0  0  0  0  3  0  0  0  0  0  0
  190.6280  175.8710  143.4450 C   0  0  0  0  0  0  0  0  0  0  0  0
  190.1060  175.2140  144.5960 C   0  0  0  0  0  0  0  0  0  0  0  0
  185.4840  177.6420  139.3780 C   0  0  0  0  0  3  0  0  0  0  0  0
  186.8350  176.8800  141.7740 C   0  0  2  0  0  3  0  0  0  0  0  0
  187.4410  176.4890  140.4240 C   0  0  0  0  0  2  0  0  0  0  0  0
  186.5140  176.7900  139.2730 C   0  0  0  0  0  3  0  0  0  0  0  0
  185.0980  178.2910  140.6840 C   0  0  0  0  0  2  0  0  0  0  0  0
  186.2470  178.2880  141.6880 C   0  0  0  0  0  2  0  0  0  0  0  0
  1 12  2  0  0  0  0
  1 15  1  0  0  0  0
  2  6  2  0  0  0  0
  4 13  1  0  0  0  0
  7  9  1  0  0  0  0
  7 13  2  0  0  0  0
  8 17  1  0  0  0  0
 10  8  2  0  0  0  0
 11  7  1  6  0  0  0
 12  2  1  0  0  0  0
 13  5  1  0  0  0  0
 14  4  2  0  0  0  0
 15 20  1  0  0  0  0
 16  2  1  6  0  0  0
 16  3  1  0  0  0  0
 16 11  1  0  0  0  0
 18  6  1  6  0  0  0
 18 11  1  0  0  0  0
 18 14  1  0  0  0  0
 19 10  1  0  0  0  0
 19 20  2  0  0  0  0
 20 21  1  0  0  0  0
 21 17  2  0  0  0  0
 21  3  1  0  0  0  0
 22 26  1  0  0  0  0
 23 12  1  1  0  0  0
 24 23  1  0  0  0  0
 25 22  2  0  0  0  0
 25 24  1  0  0  0  0
 26 27  1  0  0  0  0
 27 23  1  0  0  0  0
M  END
>  <MODEL>
6

>  <REMARK>
 VINA RESULT:      -7.8      3.037      4.703
  Name = 
  1 active torsions:
  status: ('A' for Active; 'I' for Inactive)
    1  A    between atoms: C_9  and  C_15
                            x       y       z     vdW  Elec       q    Type
                         _______ _______ _______ _____ _____    ______ ____

>  <TORSDO>
F 1

$$$$
=
 OpenBabel11052418203D

 27 31  0  0  1  0  0  0  0  0999 V2000
  188.2970  175.6730  146.2010 N   0  0  0  0  0  0  0  0  0  0  0  0
  188.4120  176.8230  144.1400 C   0  0  1  0  0  3  0  0  0  0  0  0
  190.7110  176.1050  144.0180 N   0  0  0  0  0  2  0  0  0  0  0  0
  187.3760  175.7620  139.9250 C   0  0  0  0  0  3  0  0  0  0  0  0
  188.3610  173.5490  139.5760 F   0  0  0  0  0  0  0  0  0  0  0  0
  187.4920  177.2960  143.1010 C   0  0  0  0  0  3  0  0  0  0  0  0
  189.1620  174.8400  141.3640 C   0  0  0  0  0  0  0  0  0  0  0  0
  193.2890  176.5380  146.4690 N   0  0  0  0  0  0  0  0  0  0  0  0
  190.3020  173.5640  141.7720 Cl  0  0  0  0  0  0  0  0  0  0  0  0
  192.7420  176.0580  147.6120 C   0  0  0  0  0  3  0  0  0  0  0  0
  189.2610  176.1800  142.0560 C   0  0  2  0  0  3  0  0  0  0  0  0
  188.0660  176.7980  145.4880 C   0  0  0  0  0  0  0  0  0  0  0  0
  188.3430  174.6950  140.3010 C   0  0  0  0  0  0  0  0  0  0  0  0
  187.1790  176.8270  140.7110 C   0  0  0  0  0  3  0  0  0  0  0  0
  189.4340  175.1500  146.5780 O   0  0  0  0  0  0  0  0  0  0  0  0
  189.4500  176.1310  143.5370 C   0  0  2  0  0  3  0  0  0  0  0  0
  192.5780  176.5850  145.3160 C   0  0  0  0  0  3  0  0  0  0  0  0
  187.9770  176.9230  141.9330 C   0  0  0  0  0  0  0  0  0  0  0  0
  191.4250  175.6100  147.6120 C   0  0  0  0  0  3  0  0  0  0  0  0
  190.6390  175.6830  146.4560 C   0  0  0  0  0  0  0  0  0  0  0  0
  191.2350  176.1850  145.2640 C   0  0  0  0  0  0  0  0  0  0  0  0
  184.6660  178.6440  147.3870 C   0  0  0  0  0  3  0  0  0  0  0  0
  186.8830  177.6280  145.9040 C   0  0  2  0  0  3  0  0  0  0  0  0
  187.1390  178.2910  147.2590 C   0  0  0  0  0  2  0  0  0  0  0  0
  185.9000  178.9460  147.8180 C   0  0  0  0  0  3  0  0  0  0  0  0
  184.4160  177.7050  146.2330 C   0  0  0  0  0  2  0  0  0  0  0  0
  185.6080  176.7870  145.9730 C   0  0  0  0  0  2  0  0  0  0  0  0
  1 15  1  0  0  0  0
  2  6  1  6  0  0  0
  2 12  1  0  0  0  0
  3 21  1  0  0  0  0
  4 13  1  0  0  0  0
  4 14  2  0  0  0  0
  5 13  1  0  0  0  0
  7  9  1  0  0  0  0
  8 10  1  0  0  0  0
 10 19  2  0  0  0  0
 11  7  1  1  0  0  0
 11 16  1  0  0  0  0
 12  1  2  0  0  0  0
 13  7  2  0  0  0  0
 14 18  1  0  0  0  0
 16  3  1  6  0  0  0
 16  2  1  0  0  0  0
 17  8  2  0  0  0  0
 18 11  1  0  0  0  0
 18  6  2  0  0  0  0
 20 15  1  0  0  0  0
 20 19  1  0  0  0  0
 21 17  1  0  0  0  0
 21 20  2  0  0  0  0
 22 25  2  0  0  0  0
 23 12  1  1  0  0  0
 23 27  1  0  0  0  0
 23 24  1  0  0  0  0
 24 25  1  0  0  0  0
 26 22  1  0  0  0  0
 27 26  1  0  0  0  0
M  END
>  <MODEL>
7

>  <REMARK>
 VINA RESULT:      -7.7      2.799      5.413
  Name = 
  1 active torsions:
  status: ('A' for Active; 'I' for Inactive)
    1  A    between atoms: C_9  and  C_15
                            x       y       z     vdW  Elec       q    Type
                         _______ _______ _______ _____ _____    ______ ____

>  <TORSDO>
F 1

$$$$
=
 OpenBabel11052418203D

 27 31  0  0  1  0  0  0  0  0999 V2000
  186.7770  176.0660  144.0730 N   0  0  0  0  0  0  0  0  0  0  0  0
  188.8170  177.2570  144.1090 C   0  0  1  0  0  3  0  0  0  0  0  0
  188.4060  177.6300  146.4560 N   0  0  0  0  0  2  0  0  0  0  0  0
  193.1000  176.0750  144.5770 C   0  0  0  0  0  3  0  0  0  0  0  0
  193.1220  174.5410  146.4840 F   0  0  0  0  0  0  0  0  0  0  0  0
  190.0520  177.3320  143.3220 C   0  0  0  0  0  3  0  0  0  0  0  0
  191.2680  175.9560  146.2310 C   0  0  0  0  0  0  0  0  0  0  0  0
  185.4790  179.0200  147.9880 N   0  0  0  0  0  0  0  0  0  0  0  0
  190.5630  175.2910  147.6990 Cl  0  0  0  0  0  0  0  0  0  0  0  0
  184.4600  178.2890  147.4770 C   0  0  0  0  0  3  0  0  0  0  0  0
  190.6350  177.1650  145.5800 C   0  0  2  0  0  3  0  0  0  0  0  0
  187.5750  177.0120  143.5290 C   0  0  0  0  0  0  0  0  0  0  0  0
  192.4740  175.5230  145.8090 C   0  0  0  0  0  0  0  0  0  0  0  0
  192.4270  176.9010  143.7670 C   0  0  0  0  0  3  0  0  0  0  0  0
  186.1380  176.0770  145.2140 O   0  0  0  0  0  0  0  0  0  0  0  0
  189.1480  177.1250  145.4490 C   0  0  2  0  0  3  0  0  0  0  0  0
  186.7600  178.8120  147.5940 C   0  0  0  0  0  3  0  0  0  0  0  0
  191.0680  177.2730  144.1590 C   0  0  0  0  0  0  0  0  0  0  0  0
  184.7230  177.3090  146.5260 C   0  0  0  0  0  3  0  0  0  0  0  0
  186.0230  177.0910  146.0560 C   0  0  0  0  0  0  0  0  0  0  0  0
  187.0810  177.8660  146.6110 C   0  0  0  0  0  0  0  0  0  0  0  0
  186.4800  177.1820  139.3640 C   0  0  0  0  0  3  0  0  0  0  0  0
  187.4650  177.2130  142.0430 C   0  0  2  0  0  3  0  0  0  0  0  0
  186.2190  178.0340  141.7020 C   0  0  0  0  0  2  0  0  0  0  0  0
  185.9470  178.0690  140.2190 C   0  0  0  0  0  3  0  0  0  0  0  0
  187.4810  176.1410  139.7970 C   0  0  0  0  0  2  0  0  0  0  0  0
  187.4250  175.8790  141.3000 C   0  0  0  0  0  2  0  0  0  0  0  0
  1 15  1  0  0  0  0
  2  6  1  6  0  0  0
  2 16  1  0  0  0  0
  3 21  1  0  0  0  0
  4 13  1  0  0  0  0
  6 18  2  0  0  0  0
  7  9  1  0  0  0  0
 10  8  2  0  0  0  0
 11 18  1  6  0  0  0
 11  7  1  0  0  0  0
 12  1  2  0  0  0  0
 12  2  1  0  0  0  0
 13  7  2  0  0  0  0
 13  5  1  0  0  0  0
 14 18  1  0  0  0  0
 14  4  2  0  0  0  0
 15 20  1  0  0  0  0
 16 11  1  0  0  0  0
 16  3  1  1  0  0  0
 17  8  1  0  0  0  0
 19 10  1  0  0  0  0
 20 19  2  0  0  0  0
 20 21  1  0  0  0  0
 21 17  2  0  0  0  0
 22 26  1  0  0  0  0
 22 25  2  0  0  0  0
 23 12  1  1  0  0  0
 24 23  1  0  0  0  0
 25 24  1  0  0  0  0
 26 27  1  0  0  0  0
 27 23  1  0  0  0  0
M  END
>  <MODEL>
8

>  <REMARK>
 VINA RESULT:      -7.4      2.526      4.964
  Name = 
  1 active torsions:
  status: ('A' for Active; 'I' for Inactive)
    1  A    between atoms: C_9  and  C_15
                            x       y       z     vdW  Elec       q    Type
                         _______ _______ _______ _____ _____    ______ ____

>  <TORSDO>
F 1

$$$$
=
 OpenBabel11052418203D

 27 31  0  0  1  0  0  0  0  0999 V2000
  189.9500  177.1450  143.4780 N   0  0  0  0  0  0  0  0  0  0  0  0
  189.3440  174.8690  143.6590 C   0  0  0  0  0  0  0  0  0  0  0  0
  187.3960  175.4190  142.3480 N   0  0  0  0  0  2  0  0  0  0  0  0
  190.4050  171.1770  141.3770 C   0  0  0  0  0  3  0  0  0  0  0  0
  190.1670  171.8050  139.0240 F   0  0  0  0  0  0  0  0  0  0  0  0
  189.9960  173.5830  143.9260 C   0  0  0  0  0  3  0  0  0  0  0  0
  189.1040  173.1420  140.6320 C   0  0  0  0  0  0  0  0  0  0  0  0
  184.9730  177.9850  142.9690 N   0  0  0  0  0  0  0  0  0  0  0  0
  188.4640  174.1670  139.3540 Cl  0  0  0  0  0  0  0  0  0  0  0  0
  185.7140  179.1050  143.1400 C   0  0  0  0  0  3  0  0  0  0  0  0
  188.6210  173.3290  142.0530 C   0  0  2  0  0  3  0  0  0  0  0  0
  189.7610  176.0550  144.2560 C   0  0  0  0  0  0  0  0  0  0  0  0
  189.8590  172.0690  140.3180 C   0  0  0  0  0  0  0  0  0  0  0  0
  190.2960  171.4930  142.6730 C   0  0  0  0  0  3  0  0  0  0  0  0
  189.0680  177.8780  142.8510 O   0  0  0  0  0  0  0  0  0  0  0  0
  188.5490  174.7420  142.5310 C   0  0  2  0  0  3  0  0  0  0  0  0
  185.5580  176.7800  142.7600 C   0  0  0  0  0  3  0  0  0  0  0  0
  189.5860  172.7260  143.0120 C   0  0  1  0  0  3  0  0  0  0  0  0
  187.1030  179.0260  143.1090 C   0  0  0  0  0  3  0  0  0  0  0  0
  187.7510  177.7960  142.9420 C   0  0  0  0  0  0  0  0  0  0  0  0
  186.9520  176.6310  142.7570 C   0  0  0  0  0  0  0  0  0  0  0  0
  192.3030  176.5960  147.6950 C   0  0  0  0  0  3  0  0  0  0  0  0
  190.6370  175.9360  145.4720 C   0  0  2  0  0  3  0  0  0  0  0  0
  190.0330  176.7060  146.6490 C   0  0  0  0  0  2  0  0  0  0  0  0
  190.9830  176.8010  147.8170 C   0  0  0  0  0  3  0  0  0  0  0  0
  192.9370  176.1460  146.4020 C   0  0  0  0  0  2  0  0  0  0  0  0
  192.0520  176.4440  145.1940 C   0  0  0  0  0  2  0  0  0  0  0  0
  1 12  2  0  0  0  0
  2  6  2  0  0  0  0
  2 12  1  0  0  0  0
  3 21  1  0  0  0  0
  4 14  2  0  0  0  0
  5 13  1  0  0  0  0
  8 10  1  0  0  0  0
  9  7  1  0  0  0  0
 11  7  1  6  0  0  0
 11 16  1  0  0  0  0
 11 18  1  0  0  0  0
 13  7  2  0  0  0  0
 13  4  1  0  0  0  0
 15 20  1  0  0  0  0
 15  1  1  0  0  0  0
 16  3  1  1  0  0  0
 16  2  1  0  0  0  0
 17  8  2  0  0  0  0
 18 14  1  6  0  0  0
 18  6  1  0  0  0  0
 19 10  2  0  0  0  0
 20 19  1  0  0  0  0
 21 17  1  0  0  0  0
 21 20  2  0  0  0  0
 22 25  2  0  0  0  0
 23 12  1  6  0  0  0
 23 24  1  0  0  0  0
 24 25  1  0  0  0  0
 26 22  1  0  0  0  0
 27 23  1  0  0  0  0
 27 26  1  0  0  0  0
M  END
>  <MODEL>
9

>  <REMARK>
 VINA RESULT:      -7.3      2.886      5.854
  Name = 
  1 active torsions:
  status: ('A' for Active; 'I' for Inactive)
    1  A    between atoms: C_9  and  C_15
                            x       y       z     vdW  Elec       q    Type
                         _______ _______ _______ _____ _____    ______ ____

>  <TORSDO>
F 1

$$$$
