=
 OpenBabel11052417313D

 25 28  0  0  1  0  0  0  0  0999 V2000
  188.7770  177.0450  145.1600 C   0  0  0  0  0  0  0  0  0  0  0  0
  187.5790  177.9330  145.0290 C   0  0  1  0  0  3  0  0  0  0  0  0
  188.0370  176.0120  147.2300 C   0  0  0  0  0  3  0  0  0  0  0  0
  189.9460  177.0400  144.5440 C   0  0  0  0  0  0  0  0  0  0  0  0
  192.5510  176.7070  143.6570 C   0  0  0  0  0  3  0  0  0  0  0  0
  186.7230  176.6790  147.0420 C   0  0  0  0  0  3  0  0  0  0  0  0
  190.8100  176.1920  145.2290 C   0  0  0  0  0  0  0  0  0  0  0  0
  192.1220  176.0060  144.7970 C   0  0  0  0  0  3  0  0  0  0  0  0
  185.1310  178.0590  145.7640 C   0  0  0  0  0  0  0  0  0  0  0  0
  184.1090  178.1340  146.8460 C   0  0  0  0  0  1  0  0  0  0  0  0
  187.0460  178.0200  143.6240 C   0  0  0  0  0  3  0  0  0  0  0  0
  191.6760  177.5790  142.9780 C   0  0  0  0  0  3  0  0  0  0  0  0
  188.9720  176.1880  146.3000 C   0  0  0  0  0  0  0  0  0  0  0  0
  190.2920  175.6530  146.2930 N   0  0  0  0  0  0  0  0  0  0  0  0
  184.7970  178.4260  144.5210 C   0  0  0  0  0  3  0  0  0  0  0  0
  190.3560  177.7590  143.4230 C   0  0  0  0  0  3  0  0  0  0  0  0
  185.7580  178.3110  143.4000 C   0  0  0  0  0  0  0  0  0  0  0  0
  186.4860  177.5240  146.0130 C   0  0  0  0  0  0  0  0  0  0  0  0
  185.2800  178.4910  142.0020 C   0  0  0  0  0  2  0  0  0  0  0  0
  183.8850  178.0970  141.9060 N   0  0  0  0  0  2  0  0  0  0  0  0
  183.5140  178.2130  140.5070 C   0  0  0  0  0  2  0  0  0  0  0  0
  182.0160  178.0250  140.3550 C   0  0  0  0  0  2  0  0  0  0  0  0
  181.3680  178.4080  141.5300 O   0  0  0  0  0  0  0  0  0  0  0  0
  180.1530  178.9420  141.1010 C   0  0  0  0  0  2  0  0  0  0  0  0
  180.3190  180.2940  140.8050 O   0  0  0  0  0  1  0  0  0  0  0  0
  1 13  1  0  0  0  0
  2 11  1  6  0  0  0
  2  1  1  0  0  0  0
  2 18  1  0  0  0  0
  4  1  2  0  0  0  0
  4  7  1  0  0  0  0
  5  8  2  0  0  0  0
  6  3  1  0  0  0  0
  7 14  2  0  0  0  0
  8  7  1  0  0  0  0
  9 18  1  0  0  0  0
  9 10  1  0  0  0  0
 12 16  2  0  0  0  0
 12  5  1  0  0  0  0
 13  3  2  0  0  0  0
 14 13  1  0  0  0  0
 15  9  2  0  0  0  0
 16  4  1  0  0  0  0
 17 11  2  0  0  0  0
 17 15  1  0  0  0  0
 18  6  2  0  0  0  0
 19 17  1  0  0  0  0
 20 19  1  0  0  0  0
 21 20  1  0  0  0  0
 22 21  1  0  0  0  0
 22 23  1  0  0  0  0
 24 23  1  0  0  0  0
 25 24  1  0  0  0  0
M  END
>  <MODEL>
1

>  <REMARK>
 VINA RESULT:      -7.2      0.000      0.000
  Name = 
  6 active torsions:
  status: ('A' for Active; 'I' for Inactive)
    1  A    between atoms: O_2  and  C_7
    2  A    between atoms: O_2  and  C_25
    3  A    between atoms: C_6  and  N_15
    4  A    between atoms: C_6  and  C_23
    5  A    between atoms: N_15  and  C_21
    6  A    between atoms: C_21  and  C_25
                            x       y       z     vdW  Elec       q    Type
                         _______ _______ _______ _____ _____    ______ ____

>  <TORSDO>
F 6

$$$$
=
 OpenBabel11052417313D

 25 28  0  0  1  0  0  0  0  0999 V2000
  188.6880  177.0790  145.5310 C   0  0  0  0  0  0  0  0  0  0  0  0
  187.6560  178.0170  144.9880 C   0  0  1  0  0  3  0  0  0  0  0  0
  187.3540  176.3960  147.4420 C   0  0  0  0  0  3  0  0  0  0  0  0
  189.9680  176.9110  145.2470 C   0  0  0  0  0  0  0  0  0  0  0  0
  192.6650  176.2850  145.1170 C   0  0  0  0  0  3  0  0  0  0  0  0
  186.2030  177.1160  146.8400 C   0  0  0  0  0  3  0  0  0  0  0  0
  190.5440  176.1110  146.2290 C   0  0  0  0  0  0  0  0  0  0  0  0
  191.8970  175.7800  146.1810 C   0  0  0  0  0  3  0  0  0  0  0  0
  185.1270  178.4070  145.0380 C   0  0  0  0  0  0  0  0  0  0  0  0
  183.8790  178.6990  145.7980 C   0  0  0  0  0  1  0  0  0  0  0  0
  187.5040  177.9440  143.4930 C   0  0  0  0  0  3  0  0  0  0  0  0
  192.0800  177.1110  144.1360 C   0  0  0  0  0  3  0  0  0  0  0  0
  188.5050  176.3780  146.7750 C   0  0  0  0  0  0  0  0  0  0  0  0
  189.7250  175.7600  147.1760 N   0  0  0  0  0  0  0  0  0  0  0  0
  185.1540  178.6190  143.7160 C   0  0  0  0  0  3  0  0  0  0  0  0
  190.7160  177.4380  144.1960 C   0  0  0  0  0  3  0  0  0  0  0  0
  186.3490  178.2850  142.9070 C   0  0  0  0  0  0  0  0  0  0  0  0
  186.3170  177.8220  145.6930 C   0  0  0  0  0  0  0  0  0  0  0  0
  186.2570  178.3010  141.4220 C   0  0  0  0  0  2  0  0  0  0  0  0
  187.4790  177.7640  140.8490 N   0  0  0  0  0  2  0  0  0  0  0  0
  187.1410  176.4710  140.2800 C   0  0  0  0  0  2  0  0  0  0  0  0
  188.1180  175.4200  140.7720 C   0  0  0  0  0  2  0  0  0  0  0  0
  187.6200  174.8120  141.9260 O   0  0  0  0  0  0  0  0  0  0  0  0
  188.7510  174.5320  142.6900 C   0  0  0  0  0  2  0  0  0  0  0  0
  189.8960  174.8140  141.9460 O   0  0  0  0  0  1  0  0  0  0  0  0
  1 13  1  0  0  0  0
  2 11  1  6  0  0  0
  2  1  1  0  0  0  0
  2 18  1  0  0  0  0
  4  1  2  0  0  0  0
  4  7  1  0  0  0  0
  5  8  2  0  0  0  0
  6  3  1  0  0  0  0
  7 14  2  0  0  0  0
  8  7  1  0  0  0  0
  9 18  1  0  0  0  0
  9 10  1  0  0  0  0
 12 16  2  0  0  0  0
 12  5  1  0  0  0  0
 13 14  1  0  0  0  0
 13  3  2  0  0  0  0
 15  9  2  0  0  0  0
 16  4  1  0  0  0  0
 17 11  2  0  0  0  0
 17 15  1  0  0  0  0
 18  6  2  0  0  0  0
 19 17  1  0  0  0  0
 20 19  1  0  0  0  0
 21 22  1  0  0  0  0
 21 20  1  0  0  0  0
 22 23  1  0  0  0  0
 23 24  1  0  0  0  0
 25 24  1  0  0  0  0
M  END
>  <MODEL>
2

>  <REMARK>
 VINA RESULT:      -7.1      2.989      3.807
  Name = 
  6 active torsions:
  status: ('A' for Active; 'I' for Inactive)
    1  A    between atoms: O_2  and  C_7
    2  A    between atoms: O_2  and  C_25
    3  A    between atoms: C_6  and  N_15
    4  A    between atoms: C_6  and  C_23
    5  A    between atoms: N_15  and  C_21
    6  A    between atoms: C_21  and  C_25
                            x       y       z     vdW  Elec       q    Type
                         _______ _______ _______ _____ _____    ______ ____

>  <TORSDO>
F 6

$$$$
=
 OpenBabel11052417313D

 25 28  0  0  1  0  0  0  0  0999 V2000
  190.3080  176.2900  145.5530 C   0  0  0  0  0  0  0  0  0  0  0  0
  189.2590  177.2730  145.1380 C   0  0  1  0  0  3  0  0  0  0  0  0
  188.9790  175.3200  147.3400 C   0  0  0  0  0  3  0  0  0  0  0  0
  191.5920  176.1880  145.2580 C   0  0  0  0  0  0  0  0  0  0  0  0
  194.3020  175.6410  145.0620 C   0  0  0  0  0  3  0  0  0  0  0  0
  187.8160  176.0940  146.8360 C   0  0  0  0  0  3  0  0  0  0  0  0
  192.1800  175.2710  146.1230 C   0  0  0  0  0  0  0  0  0  0  0  0
  193.5390  174.9770  146.0390 C   0  0  0  0  0  3  0  0  0  0  0  0
  186.7220  177.6020  145.2230 C   0  0  0  0  0  0  0  0  0  0  0  0
  185.4650  177.7610  146.0070 C   0  0  0  0  0  1  0  0  0  0  0  0
  189.1150  177.4060  143.6460 C   0  0  0  0  0  3  0  0  0  0  0  0
  193.7040  176.5830  144.2010 C   0  0  0  0  0  3  0  0  0  0  0  0
  190.1330  175.4190  146.6860 C   0  0  0  0  0  0  0  0  0  0  0  0
  191.3640  174.7760  147.0060 N   0  0  0  0  0  0  0  0  0  0  0  0
  186.7510  177.9960  143.9440 C   0  0  0  0  0  3  0  0  0  0  0  0
  192.3330  176.8720  144.2960 C   0  0  0  0  0  3  0  0  0  0  0  0
  187.9560  177.8020  143.1050 C   0  0  0  0  0  0  0  0  0  0  0  0
  187.9210  176.9560  145.7990 C   0  0  0  0  0  0  0  0  0  0  0  0
  187.8700  178.0230  141.6360 C   0  0  0  0  0  2  0  0  0  0  0  0
  187.0890  176.9610  141.0250 N   0  0  0  0  0  2  0  0  0  0  0  0
  186.1480  177.6010  140.1230 C   0  0  0  0  0  2  0  0  0  0  0  0
  184.9830  178.1690  140.9120 C   0  0  0  0  0  2  0  0  0  0  0  0
  183.8270  178.1540  140.1300 O   0  0  0  0  0  0  0  0  0  0  0  0
  182.7810  178.1820  141.0510 C   0  0  0  0  0  2  0  0  0  0  0  0
  183.3000  178.2770  142.3410 O   0  0  0  0  0  1  0  0  0  0  0  0
  1 13  1  0  0  0  0
  2 11  1  6  0  0  0
  2  1  1  0  0  0  0
  2 18  1  0  0  0  0
  4  1  2  0  0  0  0
  4  7  1  0  0  0  0
  5  8  2  0  0  0  0
  6  3  1  0  0  0  0
  7 14  2  0  0  0  0
  8  7  1  0  0  0  0
  9 18  1  0  0  0  0
  9 10  1  0  0  0  0
 12 16  2  0  0  0  0
 12  5  1  0  0  0  0
 13 14  1  0  0  0  0
 13  3  2  0  0  0  0
 15  9  2  0  0  0  0
 16  4  1  0  0  0  0
 17 11  2  0  0  0  0
 17 15  1  0  0  0  0
 18  6  2  0  0  0  0
 19 17  1  0  0  0  0
 20 19  1  0  0  0  0
 21 22  1  0  0  0  0
 21 20  1  0  0  0  0
 23 22  1  0  0  0  0
 23 24  1  0  0  0  0
 24 25  1  0  0  0  0
M  END
>  <MODEL>
3

>  <REMARK>
 VINA RESULT:      -7.0      1.610      2.309
  Name = 
  6 active torsions:
  status: ('A' for Active; 'I' for Inactive)
    1  A    between atoms: O_2  and  C_7
    2  A    between atoms: O_2  and  C_25
    3  A    between atoms: C_6  and  N_15
    4  A    between atoms: C_6  and  C_23
    5  A    between atoms: N_15  and  C_21
    6  A    between atoms: C_21  and  C_25
                            x       y       z     vdW  Elec       q    Type
                         _______ _______ _______ _____ _____    ______ ____

>  <TORSDO>
F 6

$$$$
=
 OpenBabel11052417313D

 25 28  0  0  1  0  0  0  0  0999 V2000
  185.9120  177.7190  144.1490 C   0  0  0  0  0  0  0  0  0  0  0  0
  186.8880  177.4360  143.0490 C   0  0  0  0  0  0  0  0  0  0  0  0
  184.1240  178.4130  142.6590 C   0  0  0  0  0  3  0  0  0  0  0  0
  186.0630  177.8380  145.4560 C   0  0  0  0  0  0  0  0  0  0  0  0
  185.8900  178.3150  148.1810 C   0  0  0  0  0  3  0  0  0  0  0  0
  184.9460  177.9300  141.5190 C   0  0  0  0  0  3  0  0  0  0  0  0
  184.9010  178.3840  145.9930 C   0  0  1  0  0  3  0  0  0  0  0  0
  184.7910  178.6270  147.3610 C   0  0  0  0  0  3  0  0  0  0  0  0
  186.9320  176.8290  140.5640 C   0  0  0  0  0  0  0  0  0  0  0  0
  186.6090  177.1590  139.1470 C   0  0  0  0  0  1  0  0  0  0  0  0
  187.6800  176.1740  143.2580 C   0  0  0  0  0  3  0  0  0  0  0  0
  187.0710  177.7810  147.6280 C   0  0  0  0  0  3  0  0  0  0  0  0
  184.6060  178.2670  143.8900 C   0  0  0  0  0  0  0  0  0  0  0  0
  183.9910  178.6680  145.1110 N   0  0  0  0  0  0  0  0  0  0  0  0
  187.8720  175.9130  140.8250 C   0  0  0  0  0  3  0  0  0  0  0  0
  187.1710  177.5400  146.2480 C   0  0  0  0  0  3  0  0  0  0  0  0
  188.1860  175.5050  142.2140 C   0  0  0  0  0  0  0  0  0  0  0  0
  186.1940  177.4370  141.6900 C   0  0  0  0  0  0  0  0  0  0  0  0
  189.0500  174.3180  142.4530 C   0  0  0  0  0  2  0  0  0  0  0  0
  190.2740  174.7290  143.1190 N   0  0  0  0  0  2  0  0  0  0  0  0
  190.5670  173.7150  144.1170 C   0  0  0  0  0  2  0  0  0  0  0  0
  189.7970  174.0090  145.3910 C   0  0  0  0  0  2  0  0  0  0  0  0
  190.1150  175.2870  145.8540 O   0  0  0  0  0  0  0  0  0  0  0  0
  190.0600  175.1800  147.2430 C   0  0  0  0  0  2  0  0  0  0  0  0
  188.8990  174.5020  147.6100 O   0  0  0  0  0  1  0  0  0  0  0  0
  1  4  2  0  0  0  0
  2 11  1  0  0  0  0
  2  1  1  0  0  0  0
  3 13  1  0  0  0  0
  4  7  1  0  0  0  0
  4 16  1  0  0  0  0
  6 18  1  0  0  0  0
  6  3  2  0  0  0  0
  7  8  1  6  0  0  0
  8  5  2  0  0  0  0
  9 15  2  0  0  0  0
  9 18  1  0  0  0  0
 10  9  1  0  0  0  0
 12  5  1  0  0  0  0
 13  1  1  0  0  0  0
 13 14  2  0  0  0  0
 14  7  1  0  0  0  0
 15 17  1  0  0  0  0
 16 12  2  0  0  0  0
 17 19  1  0  0  0  0
 17 11  2  0  0  0  0
 18  2  2  0  0  0  0
 19 20  1  0  0  0  0
 20 21  1  0  0  0  0
 21 22  1  0  0  0  0
 22 23  1  0  0  0  0
 23 24  1  0  0  0  0
 24 25  1  0  0  0  0
M  END
>  <MODEL>
4

>  <REMARK>
 VINA RESULT:      -7.0      3.923      7.122
  Name = 
  6 active torsions:
  status: ('A' for Active; 'I' for Inactive)
    1  A    between atoms: O_2  and  C_7
    2  A    between atoms: O_2  and  C_25
    3  A    between atoms: C_6  and  N_15
    4  A    between atoms: C_6  and  C_23
    5  A    between atoms: N_15  and  C_21
    6  A    between atoms: C_21  and  C_25
                            x       y       z     vdW  Elec       q    Type
                         _______ _______ _______ _____ _____    ______ ____

>  <TORSDO>
F 6

$$$$
=
 OpenBabel11052417313D

 25 28  0  0  1  0  0  0  0  0999 V2000
  186.7640  177.0670  143.9250 C   0  0  0  0  0  0  0  0  0  0  0  0
  188.0050  176.2770  144.1980 C   0  0  1  0  0  3  0  0  0  0  0  0
  185.9650  176.9830  146.2180 C   0  0  0  0  0  3  0  0  0  0  0  0
  186.1690  177.4190  142.8000 C   0  0  0  0  0  0  0  0  0  0  0  0
  184.4980  178.2660  140.7560 C   0  0  0  0  0  3  0  0  0  0  0  0
  187.2770  176.4080  146.6080 C   0  0  0  0  0  3  0  0  0  0  0  0
  184.8970  177.9000  143.0960 C   0  0  0  0  0  0  0  0  0  0  0  0
  184.0430  178.3360  142.0850 C   0  0  0  0  0  3  0  0  0  0  0  0
  189.5850  175.6920  146.1250 C   0  0  0  0  0  0  0  0  0  0  0  0
  189.8230  175.0700  147.4580 C   0  0  0  0  0  1  0  0  0  0  0  0
  189.2270  176.8200  143.5080 C   0  0  0  0  0  3  0  0  0  0  0  0
  185.7800  177.7600  140.4610 C   0  0  0  0  0  3  0  0  0  0  0  0
  185.7730  177.3080  144.9420 C   0  0  0  0  0  0  0  0  0  0  0  0
  184.5950  177.8570  144.3600 N   0  0  0  0  0  0  0  0  0  0  0  0
  190.6260  175.9240  145.3160 C   0  0  0  0  0  3  0  0  0  0  0  0
  186.6320  177.3240  141.4890 C   0  0  0  0  0  3  0  0  0  0  0  0
  190.4490  176.5970  144.0080 C   0  0  0  0  0  0  0  0  0  0  0  0
  188.2380  176.1250  145.6990 C   0  0  0  0  0  0  0  0  0  0  0  0
  191.6460  177.0570  143.2520 C   0  0  0  0  0  2  0  0  0  0  0  0
  192.4020  175.9090  142.7850 N   0  0  0  0  0  2  0  0  0  0  0  0
  193.7950  176.1650  143.1100 C   0  0  0  0  0  2  0  0  0  0  0  0
  194.1660  175.4390  144.3890 C   0  0  0  0  0  2  0  0  0  0  0  0
  195.1890  176.1260  145.0450 O   0  0  0  0  0  0  0  0  0  0  0  0
  194.5560  177.2220  145.6300 C   0  0  0  0  0  2  0  0  0  0  0  0
  193.8960  176.8130  146.7870 O   0  0  0  0  0  1  0  0  0  0  0  0
  1  2  1  0  0  0  0
  1 13  1  0  0  0  0
  2 11  1  1  0  0  0
  2 18  1  0  0  0  0
  3  6  1  0  0  0  0
  4  7  1  0  0  0  0
  4  1  2  0  0  0  0
  5  8  2  0  0  0  0
  7 14  2  0  0  0  0
  8  7  1  0  0  0  0
  9 10  1  0  0  0  0
 11 17  2  0  0  0  0
 12  5  1  0  0  0  0
 12 16  2  0  0  0  0
 13  3  2  0  0  0  0
 14 13  1  0  0  0  0
 15  9  2  0  0  0  0
 16  4  1  0  0  0  0
 17 15  1  0  0  0  0
 18  9  1  0  0  0  0
 18  6  2  0  0  0  0
 19 17  1  0  0  0  0
 20 21  1  0  0  0  0
 20 19  1  0  0  0  0
 21 22  1  0  0  0  0
 22 23  1  0  0  0  0
 23 24  1  0  0  0  0
 24 25  1  0  0  0  0
M  END
>  <MODEL>
5

>  <REMARK>
 VINA RESULT:      -7.0      4.441      7.924
  Name = 
  6 active torsions:
  status: ('A' for Active; 'I' for Inactive)
    1  A    between atoms: O_2  and  C_7
    2  A    between atoms: O_2  and  C_25
    3  A    between atoms: C_6  and  N_15
    4  A    between atoms: C_6  and  C_23
    5  A    between atoms: N_15  and  C_21
    6  A    between atoms: C_21  and  C_25
                            x       y       z     vdW  Elec       q    Type
                         _______ _______ _______ _____ _____    ______ ____

>  <TORSDO>
F 6

$$$$
=
 OpenBabel11052417313D

 25 28  0  0  1  0  0  0  0  0999 V2000
  186.6570  177.1090  144.0520 C   0  0  0  0  0  0  0  0  0  0  0  0
  187.8980  176.3190  144.3280 C   0  0  1  0  0  3  0  0  0  0  0  0
  185.8590  177.0360  146.3450 C   0  0  0  0  0  3  0  0  0  0  0  0
  186.0620  177.4570  142.9250 C   0  0  0  0  0  0  0  0  0  0  0  0
  184.3920  178.2950  140.8780 C   0  0  0  0  0  3  0  0  0  0  0  0
  187.1710  176.4620  146.7380 C   0  0  0  0  0  3  0  0  0  0  0  0
  184.7910  177.9400  143.2200 C   0  0  0  0  0  0  0  0  0  0  0  0
  183.9370  178.3720  142.2060 C   0  0  0  0  0  3  0  0  0  0  0  0
  189.4780  175.7410  146.2570 C   0  0  0  0  0  0  0  0  0  0  0  0
  189.7150  175.1250  147.5930 C   0  0  0  0  0  1  0  0  0  0  0  0
  189.1200  176.8570  143.6350 C   0  0  0  0  0  3  0  0  0  0  0  0
  185.6730  177.7870  140.5850 C   0  0  0  0  0  3  0  0  0  0  0  0
  185.6670  177.3560  145.0680 C   0  0  0  0  0  0  0  0  0  0  0  0
  184.4890  177.9030  144.4830 N   0  0  0  0  0  0  0  0  0  0  0  0
  190.5180  175.9680  145.4460 C   0  0  0  0  0  3  0  0  0  0  0  0
  186.5250  177.3540  141.6140 C   0  0  0  0  0  3  0  0  0  0  0  0
  190.3420  176.6350  144.1350 C   0  0  0  0  0  0  0  0  0  0  0  0
  188.1300  176.1730  145.8290 C   0  0  0  0  0  0  0  0  0  0  0  0
  191.5390  177.0910  143.3780 C   0  0  0  0  0  2  0  0  0  0  0  0
  192.2650  175.9400  142.8690 N   0  0  0  0  0  2  0  0  0  0  0  0
  193.6780  176.2320  143.0340 C   0  0  0  0  0  2  0  0  0  0  0  0
  194.0260  176.2770  144.5100 C   0  0  0  0  0  2  0  0  0  0  0  0
  195.3340  176.7350  144.6750 O   0  0  0  0  0  0  0  0  0  0  0  0
  195.9920  176.3440  143.5100 C   0  0  0  0  0  2  0  0  0  0  0  0
  197.1160  177.1460  143.3200 O   0  0  0  0  0  1  0  0  0  0  0  0
  1  2  1  0  0  0  0
  1 13  1  0  0  0  0
  2 11  1  6  0  0  0
  2 18  1  0  0  0  0
  3  6  1  0  0  0  0
  4  7  1  0  0  0  0
  4  1  2  0  0  0  0
  5  8  2  0  0  0  0
  7 14  2  0  0  0  0
  8  7  1  0  0  0  0
  9 10  1  0  0  0  0
 11 17  2  0  0  0  0
 12  5  1  0  0  0  0
 12 16  2  0  0  0  0
 13  3  2  0  0  0  0
 14 13  1  0  0  0  0
 15  9  2  0  0  0  0
 16  4  1  0  0  0  0
 17 15  1  0  0  0  0
 18  9  1  0  0  0  0
 18  6  2  0  0  0  0
 19 17  1  0  0  0  0
 20 21  1  0  0  0  0
 20 19  1  0  0  0  0
 21 22  1  0  0  0  0
 22 23  1  0  0  0  0
 24 23  1  0  0  0  0
 25 24  1  0  0  0  0
M  END
>  <MODEL>
6

>  <REMARK>
 VINA RESULT:      -6.9      4.613      8.137
  Name = 
  6 active torsions:
  status: ('A' for Active; 'I' for Inactive)
    1  A    between atoms: O_2  and  C_7
    2  A    between atoms: O_2  and  C_25
    3  A    between atoms: C_6  and  N_15
    4  A    between atoms: C_6  and  C_23
    5  A    between atoms: N_15  and  C_21
    6  A    between atoms: C_21  and  C_25
                            x       y       z     vdW  Elec       q    Type
                         _______ _______ _______ _____ _____    ______ ____

>  <TORSDO>
F 6

$$$$
=
 OpenBabel11052417313D

 25 28  0  0  0  0  0  0  0  0999 V2000
  188.0520  176.8100  145.4370 C   0  0  0  0  0  0  0  0  0  0  0  0
  188.3120  175.8480  144.3200 C   0  0  0  0  0  0  0  0  0  0  0  0
  190.3170  176.7230  146.3100 C   0  0  0  0  0  3  0  0  0  0  0  0
  186.9320  177.2930  145.9450 C   0  0  0  0  0  0  0  0  0  0  0  0
  184.8960  178.4540  147.4250 C   0  0  0  0  0  3  0  0  0  0  0  0
  190.7080  175.9590  145.0970 C   0  0  0  0  0  3  0  0  0  0  0  0
  187.2220  177.9250  147.1500 C   0  0  0  0  0  0  0  0  0  0  0  0
  186.2150  178.5190  147.9070 C   0  0  0  0  0  3  0  0  0  0  0  0
  190.2430  174.9640  142.8910 C   0  0  0  0  0  0  0  0  0  0  0  0
  191.5470  174.2520  142.7790 C   0  0  0  0  0  1  0  0  0  0  0  0
  187.6810  176.2550  143.0160 C   0  0  0  0  0  2  0  0  0  0  0  0
  184.6060  177.7950  146.2130 C   0  0  0  0  0  3  0  0  0  0  0  0
  189.0560  177.1320  146.4170 C   0  0  0  0  0  0  0  0  0  0  0  0
  188.4740  177.8620  147.4940 N   0  0  0  0  0  0  0  0  0  0  0  0
  189.4720  175.0930  141.8050 C   0  0  0  0  0  3  0  0  0  0  0  0
  185.6290  177.1990  145.4580 C   0  0  0  0  0  3  0  0  0  0  0  0
  188.1970  175.8460  141.8510 C   0  0  0  0  0  0  0  0  0  0  0  0
  189.8080  175.5940  144.1560 C   0  0  0  0  0  0  0  0  0  0  0  0
  187.4960  176.1780  140.5810 C   0  0  0  0  0  2  0  0  0  0  0  0
  187.1680  177.5930  140.5570 N   0  0  0  0  0  2  0  0  0  0  0  0
  185.8630  177.7090  139.9290 C   0  0  0  0  0  2  0  0  0  0  0  0
  184.8430  178.1830  140.9470 C   0  0  0  0  0  2  0  0  0  0  0  0
  183.6990  178.6430  140.2940 O   0  0  0  0  0  0  0  0  0  0  0  0
  182.6390  178.0920  141.0130 C   0  0  0  0  0  2  0  0  0  0  0  0
  181.5160  178.9080  140.8840 O   0  0  0  0  0  1  0  0  0  0  0  0
  1  4  1  0  0  0  0
  1 13  1  0  0  0  0
  2  1  2  0  0  0  0
  3 13  1  0  0  0  0
  4  7  1  0  0  0  0
  5  8  1  0  0  0  0
  6  3  2  0  0  0  0
  7 14  1  0  0  0  0
  7  8  2  0  0  0  0
  9 18  2  0  0  0  0
 10  9  1  0  0  0  0
 11  2  1  0  0  0  0
 12  5  2  0  0  0  0
 13 14  2  0  0  0  0
 15 17  2  0  0  0  0
 15  9  1  0  0  0  0
 16  4  2  0  0  0  0
 16 12  1  0  0  0  0
 17 11  1  0  0  0  0
 18  2  1  0  0  0  0
 18  6  1  0  0  0  0
 19 17  1  0  0  0  0
 20 19  1  0  0  0  0
 21 20  1  0  0  0  0
 21 22  1  0  0  0  0
 23 22  1  0  0  0  0
 23 24  1  0  0  0  0
 25 24  1  0  0  0  0
M  END
>  <MODEL>
7

>  <REMARK>
 VINA RESULT:      -6.7      2.052      4.702
  Name = 
  6 active torsions:
  status: ('A' for Active; 'I' for Inactive)
    1  A    between atoms: O_2  and  C_7
    2  A    between atoms: O_2  and  C_25
    3  A    between atoms: C_6  and  N_15
    4  A    between atoms: C_6  and  C_23
    5  A    between atoms: N_15  and  C_21
    6  A    between atoms: C_21  and  C_25
                            x       y       z     vdW  Elec       q    Type
                         _______ _______ _______ _____ _____    ______ ____

>  <TORSDO>
F 6

$$$$
=
 OpenBabel11052417313D

 25 28  0  0  1  0  0  0  0  0999 V2000
  186.7010  177.2510  143.9900 C   0  0  0  0  0  0  0  0  0  0  0  0
  187.9980  176.5680  144.2940 C   0  0  1  0  0  3  0  0  0  0  0  0
  185.8430  177.0720  146.2550 C   0  0  0  0  0  3  0  0  0  0  0  0
  186.1120  177.5640  142.8500 C   0  0  0  0  0  0  0  0  0  0  0  0
  184.4380  178.2870  140.7620 C   0  0  0  0  0  3  0  0  0  0  0  0
  187.1880  176.6080  146.6810 C   0  0  0  0  0  3  0  0  0  0  0  0
  184.7960  177.9290  143.1100 C   0  0  0  0  0  0  0  0  0  0  0  0
  183.9380  178.3010  142.0760 C   0  0  0  0  0  3  0  0  0  0  0  0
  189.5630  176.0990  146.2650 C   0  0  0  0  0  0  0  0  0  0  0  0
  189.8120  175.4840  147.5990 C   0  0  0  0  0  1  0  0  0  0  0  0
  189.1880  177.2230  143.6480 C   0  0  0  0  0  3  0  0  0  0  0  0
  185.7680  177.8970  140.5030 C   0  0  0  0  0  3  0  0  0  0  0  0
  185.6630  177.3940  144.9770 C   0  0  0  0  0  0  0  0  0  0  0  0
  184.4590  177.8460  144.3630 N   0  0  0  0  0  0  0  0  0  0  0  0
  190.6030  176.4300  145.4910 C   0  0  0  0  0  3  0  0  0  0  0  0
  186.6220  177.5240  141.5530 C   0  0  0  0  0  3  0  0  0  0  0  0
  190.4090  177.1000  144.1840 C   0  0  0  0  0  0  0  0  0  0  0  0
  188.1960  176.4190  145.8000 C   0  0  0  0  0  0  0  0  0  0  0  0
  191.5840  177.6710  143.4710 C   0  0  0  0  0  2  0  0  0  0  0  0
  192.7120  176.7620  143.5790 N   0  0  0  0  0  2  0  0  0  0  0  0
  192.6760  175.9100  142.4030 C   0  0  0  0  0  2  0  0  0  0  0  0
  193.0980  174.5010  142.7750 C   0  0  0  0  0  2  0  0  0  0  0  0
  192.1860  173.9560  143.6790 O   0  0  0  0  0  0  0  0  0  0  0  0
  191.2220  173.3440  142.8780 C   0  0  0  0  0  2  0  0  0  0  0  0
  189.9520  173.7340  143.3000 O   0  0  0  0  0  1  0  0  0  0  0  0
  1  2  1  0  0  0  0
  1 13  1  0  0  0  0
  2 11  1  1  0  0  0
  2 18  1  0  0  0  0
  3  6  1  0  0  0  0
  4  7  1  0  0  0  0
  4  1  2  0  0  0  0
  5  8  2  0  0  0  0
  7 14  2  0  0  0  0
  8  7  1  0  0  0  0
  9 10  1  0  0  0  0
 11 17  2  0  0  0  0
 12  5  1  0  0  0  0
 12 16  2  0  0  0  0
 13  3  2  0  0  0  0
 14 13  1  0  0  0  0
 15  9  2  0  0  0  0
 16  4  1  0  0  0  0
 17 15  1  0  0  0  0
 18  9  1  0  0  0  0
 18  6  2  0  0  0  0
 19 20  1  0  0  0  0
 19 17  1  0  0  0  0
 21 22  1  0  0  0  0
 21 20  1  0  0  0  0
 22 23  1  0  0  0  0
 24 25  1  0  0  0  0
 24 23  1  0  0  0  0
M  END
>  <MODEL>
8

>  <REMARK>
 VINA RESULT:      -6.7      3.514      7.166
  Name = 
  6 active torsions:
  status: ('A' for Active; 'I' for Inactive)
    1  A    between atoms: O_2  and  C_7
    2  A    between atoms: O_2  and  C_25
    3  A    between atoms: C_6  and  N_15
    4  A    between atoms: C_6  and  C_23
    5  A    between atoms: N_15  and  C_21
    6  A    between atoms: C_21  and  C_25
                            x       y       z     vdW  Elec       q    Type
                         _______ _______ _______ _____ _____    ______ ____

>  <TORSDO>
F 6

$$$$
=
 OpenBabel11052417313D

 25 28  0  0  1  0  0  0  0  0999 V2000
  186.0760  177.6670  143.2550 C   0  0  0  0  0  0  0  0  0  0  0  0
  186.6150  177.1400  144.5480 C   0  0  1  0  0  3  0  0  0  0  0  0
  184.2040  178.8300  144.2750 C   0  0  0  0  0  3  0  0  0  0  0  0
  186.3420  177.3630  141.9970 C   0  0  0  0  0  0  0  0  0  0  0  0
  186.4410  176.9890  139.2520 C   0  0  0  0  0  3  0  0  0  0  0  0
  184.8080  178.5480  145.6020 C   0  0  0  0  0  3  0  0  0  0  0  0
  185.3690  177.9340  141.1820 C   0  0  0  0  0  0  0  0  0  0  0  0
  185.4020  177.7630  139.8000 C   0  0  0  0  0  3  0  0  0  0  0  0
  186.5990  177.6730  147.0510 C   0  0  0  0  0  0  0  0  0  0  0  0
  185.8540  177.8620  148.3280 C   0  0  0  0  0  1  0  0  0  0  0  0
  188.1140  177.2220  144.6530 C   0  0  0  0  0  3  0  0  0  0  0  0
  187.4120  176.3980  140.0840 C   0  0  0  0  0  3  0  0  0  0  0  0
  184.8520  178.4210  143.1880 C   0  0  0  0  0  0  0  0  0  0  0  0
  184.4440  178.5770  141.8310 N   0  0  0  0  0  0  0  0  0  0  0  0
  187.9140  177.4300  147.0910 C   0  0  0  0  0  3  0  0  0  0  0  0
  187.3680  176.5760  141.4760 C   0  0  0  0  0  3  0  0  0  0  0  0
  188.7110  177.2960  145.8490 C   0  0  0  0  0  0  0  0  0  0  0  0
  185.9380  177.8160  145.7370 C   0  0  0  0  0  0  0  0  0  0  0  0
  190.1970  177.2740  145.9300 C   0  0  0  0  0  2  0  0  0  0  0  0
  190.7050  176.0760  145.2820 N   0  0  0  0  0  2  0  0  0  0  0  0
  190.9050  175.0890  146.3290 C   0  0  0  0  0  2  0  0  0  0  0  0
  192.3350  175.1520  146.8290 C   0  0  0  0  0  2  0  0  0  0  0  0
  193.2060  175.3440  145.7560 O   0  0  0  0  0  0  0  0  0  0  0  0
  194.3470  175.9070  146.3270 C   0  0  0  0  0  2  0  0  0  0  0  0
  194.0080  177.1000  146.9620 O   0  0  0  0  0  1  0  0  0  0  0  0
  1  2  1  0  0  0  0
  2 11  1  6  0  0  0
  2 18  1  0  0  0  0
  3  6  1  0  0  0  0
  4  1  2  0  0  0  0
  5  8  2  0  0  0  0
  5 12  1  0  0  0  0
  6 18  2  0  0  0  0
  7 14  2  0  0  0  0
  7  4  1  0  0  0  0
  8  7  1  0  0  0  0
  9 15  2  0  0  0  0
  9 10  1  0  0  0  0
 11 17  2  0  0  0  0
 12 16  2  0  0  0  0
 13  1  1  0  0  0  0
 13  3  2  0  0  0  0
 14 13  1  0  0  0  0
 16  4  1  0  0  0  0
 17 19  1  0  0  0  0
 17 15  1  0  0  0  0
 18  9  1  0  0  0  0
 20 19  1  0  0  0  0
 20 21  1  0  0  0  0
 21 22  1  0  0  0  0
 23 24  1  0  0  0  0
 23 22  1  0  0  0  0
 24 25  1  0  0  0  0
M  END
>  <MODEL>
9

>  <REMARK>
 VINA RESULT:      -6.7      4.365      7.571
  Name = 
  6 active torsions:
  status: ('A' for Active; 'I' for Inactive)
    1  A    between atoms: O_2  and  C_7
    2  A    between atoms: O_2  and  C_25
    3  A    between atoms: C_6  and  N_15
    4  A    between atoms: C_6  and  C_23
    5  A    between atoms: N_15  and  C_21
    6  A    between atoms: C_21  and  C_25
                            x       y       z     vdW  Elec       q    Type
                         _______ _______ _______ _____ _____    ______ ____

>  <TORSDO>
F 6

$$$$
