=
 OpenBabel11052419103D

 32 37  0  0  1  0  0  0  0  0999 V2000
  190.6030  174.7030  145.3160 C   0  0  2  0  0  3  0  0  0  0  0  0
  188.8710  174.6230  143.5250 C   0  0  1  0  0  3  0  0  0  0  0  0
  191.0550  175.1560  146.6790 C   0  0  0  0  0  2  0  0  0  0  0  0
  189.3480  174.9930  144.9020 C   0  0  2  0  0  3  0  0  0  0  0  0
  188.8530  175.8970  142.6670 C   0  0  1  0  0  3  0  0  0  0  0  0
  189.5010  171.9550  139.4370 C   0  0  0  0  0  3  0  0  0  0  0  0
  189.7430  173.5270  142.8850 C   0  0  2  0  0  3  0  0  0  0  0  0
  188.4900  174.1540  139.3330 C   0  0  0  0  0  3  0  0  0  0  0  0
  188.7840  174.3570  140.6850 C   0  0  0  0  0  0  0  0  0  0  0  0
  188.5040  176.0380  145.5990 C   0  0  2  0  0  3  0  0  0  0  0  0
  188.3900  175.5760  141.3210 N   0  0  0  0  0  2  0  0  0  0  0  0
  188.4470  177.3030  144.7360 C   0  0  0  0  0  2  0  0  0  0  0  0
  188.9480  176.3390  146.9680 N   0  0  0  0  0  2  0  0  0  0  0  0
  191.1560  173.8480  143.0590 N   0  0  0  0  0  2  0  0  0  0  0  0
  191.4820  173.7780  144.4880 C   0  0  1  0  0  3  0  0  0  0  0  0
  189.4270  173.3420  141.4250 C   0  0  0  0  0  0  0  0  0  0  0  0
  187.9660  176.9750  143.3120 C   0  0  1  0  0  3  0  0  0  0  0  0
  190.4020  176.4860  147.0240 C   0  0  0  0  0  2  0  0  0  0  0  0
  188.8510  172.9570  138.7090 C   0  0  0  0  0  3  0  0  0  0  0  0
  189.7880  172.1470  140.7910 C   0  0  0  0  0  3  0  0  0  0  0  0
  195.0410  174.7450  143.3130 C   0  0  1  0  0  3  0  0  0  0  0  0
  197.0740  173.6350  146.6090 Cl  0  0  0  0  0  0  0  0  0  0  0  0
  195.5760  175.7560  142.3120 C   0  0  0  0  0  1  0  0  0  0  0  0
  194.9660  172.5490  145.1580 C   0  0  0  0  0  3  0  0  0  0  0  0
  192.9810  174.0160  144.7100 C   0  0  1  0  0  3  0  0  0  0  0  0
  195.9070  174.6820  144.4860 N   0  0  0  0  0  0  0  0  0  0  0  0
  193.6810  172.6870  144.8220 C   0  0  0  0  0  3  0  0  0  0  0  0
  193.5780  175.0210  143.6940 C   0  0  1  0  0  3  0  0  0  0  0  0
  193.3980  176.4400  144.2140 C   0  0  0  0  0  1  0  0  0  0  0  0
  195.8890  173.6880  145.3230 C   0  0  0  0  0  0  0  0  0  0  0  0
  187.9920  178.1860  142.5070 N   0  0  0  0  0  2  0  0  0  0  0  0
  186.6140  178.6070  142.3220 C   0  0  0  0  0  1  0  0  0  0  0  0
  1  3  1  1  0  0  0
  2  4  1  0  0  0  0
  3 18  1  0  0  0  0
  4  1  1  0  0  0  0
  4 10  1  0  0  0  0
  5 17  1  0  0  0  0
  5  2  1  0  0  0  0
  6 20  1  0  0  0  0
  7 14  1  0  0  0  0
  7  2  1  0  0  0  0
  8  9  2  0  0  0  0
  9 11  1  0  0  0  0
  9 16  1  0  0  0  0
 10 13  1  0  0  0  0
 11  5  1  0  0  0  0
 12 10  1  0  0  0  0
 13 18  1  0  0  0  0
 14 15  1  0  0  0  0
 15 25  1  0  0  0  0
 15  1  1  0  0  0  0
 16  7  1  0  0  0  0
 17 12  1  0  0  0  0
 19  8  1  0  0  0  0
 19  6  2  0  0  0  0
 20 16  2  0  0  0  0
 21 28  1  0  0  0  0
 21 26  1  0  0  0  0
 23 21  1  0  0  0  0
 24 30  1  0  0  0  0
 25 27  1  0  0  0  0
 26 30  2  0  0  0  0
 27 24  2  0  0  0  0
 28 29  1  0  0  0  0
 28 25  1  0  0  0  0
 30 22  1  0  0  0  0
 31 17  1  0  0  0  0
 32 31  1  0  0  0  0
M  END
>  <MODEL>
1

>  <REMARK>
 VINA RESULT:      -7.8      0.000      0.000
  Name = 
  2 active torsions:
  status: ('A' for Active; 'I' for Inactive)
    1  A    between atoms: N_13  and  C_29
    2  A    between atoms: C_16  and  C_27
                            x       y       z     vdW  Elec       q    Type
                         _______ _______ _______ _____ _____    ______ ____

>  <TORSDO>
F 2

$$$$
=
 OpenBabel11052419103D

 32 37  0  0  1  0  0  0  0  0999 V2000
  187.5980  176.1540  144.5840 C   0  0  2  0  0  3  0  0  0  0  0  0
  187.3250  174.9960  142.3930 C   0  0  1  0  0  3  0  0  0  0  0  0
  187.1150  177.1470  145.6070 C   0  0  0  0  0  2  0  0  0  0  0  0
  186.8550  175.9260  143.4770 C   0  0  2  0  0  3  0  0  0  0  0  0
  187.8160  175.8460  141.2120 C   0  0  1  0  0  3  0  0  0  0  0  0
  190.3650  171.3930  140.9780 C   0  0  0  0  0  3  0  0  0  0  0  0
  188.4230  174.0370  142.8900 C   0  0  2  0  0  3  0  0  0  0  0  0
  189.5960  173.0530  139.3920 C   0  0  0  0  0  3  0  0  0  0  0  0
  188.9980  173.7730  140.4300 C   0  0  0  0  0  0  0  0  0  0  0  0
  185.7440  176.8660  143.0590 C   0  0  2  0  0  3  0  0  0  0  0  0
  188.2780  174.9750  140.1380 N   0  0  0  0  0  2  0  0  0  0  0  0
  186.2070  177.6950  141.8570 C   0  0  0  0  0  2  0  0  0  0  0  0
  185.2530  177.7220  144.1490 N   0  0  0  0  0  2  0  0  0  0  0  0
  189.4290  174.7770  143.6440 N   0  0  0  0  0  2  0  0  0  0  0  0
  188.8140  175.2880  144.8740 C   0  0  1  0  0  3  0  0  0  0  0  0
  189.0690  173.2890  141.7540 C   0  0  0  0  0  0  0  0  0  0  0  0
  186.7030  176.7860  140.7190 C   0  0  1  0  0  3  0  0  0  0  0  0
  186.3670  178.2780  144.9160 C   0  0  0  0  0  2  0  0  0  0  0  0
  190.2810  171.8660  139.6650 C   0  0  0  0  0  3  0  0  0  0  0  0
  189.7610  172.1020  142.0190 C   0  0  0  0  0  3  0  0  0  0  0  0
  192.4320  176.3310  145.7730 C   0  0  1  0  0  3  0  0  0  0  0  0
  191.7200  177.8350  149.4420 Cl  0  0  0  0  0  0  0  0  0  0  0  0
  193.6500  176.7080  144.9460 C   0  0  0  0  0  1  0  0  0  0  0  0
  190.8160  175.6150  148.0340 C   0  0  0  0  0  3  0  0  0  0  0  0
  189.8600  175.9940  145.7450 C   0  0  1  0  0  3  0  0  0  0  0  0
  192.3480  177.1660  146.9680 N   0  0  0  0  0  0  0  0  0  0  0  0
  190.0740  175.1960  147.0050 C   0  0  0  0  0  3  0  0  0  0  0  0
  191.1340  176.3750  144.9510 C   0  0  1  0  0  3  0  0  0  0  0  0
  190.9380  177.7340  144.2940 C   0  0  0  0  0  1  0  0  0  0  0  0
  191.6290  176.8460  148.0010 C   0  0  0  0  0  0  0  0  0  0  0  0
  187.1980  177.6110  139.6280 N   0  0  0  0  0  2  0  0  0  0  0  0
  186.5280  177.1660  138.4190 C   0  0  0  0  0  1  0  0  0  0  0  0
  1 15  1  0  0  0  0
  1  3  1  1  0  0  0
  2  7  1  0  0  0  0
  2  4  1  0  0  0  0
  4  1  1  0  0  0  0
  5  2  1  0  0  0  0
  6 20  1  0  0  0  0
  7 14  1  0  0  0  0
  8 19  1  0  0  0  0
  8  9  2  0  0  0  0
  9 16  1  0  0  0  0
 10  4  1  0  0  0  0
 10 13  1  0  0  0  0
 11  9  1  0  0  0  0
 11  5  1  0  0  0  0
 12 10  1  0  0  0  0
 13 18  1  0  0  0  0
 14 15  1  0  0  0  0
 15 25  1  0  0  0  0
 16 20  2  0  0  0  0
 16  7  1  0  0  0  0
 17  5  1  0  0  0  0
 17 12  1  0  0  0  0
 18  3  1  0  0  0  0
 19  6  2  0  0  0  0
 21 26  1  0  0  0  0
 23 21  1  0  0  0  0
 25 27  1  0  0  0  0
 26 30  2  0  0  0  0
 27 24  2  0  0  0  0
 28 25  1  0  0  0  0
 28 21  1  0  0  0  0
 29 28  1  0  0  0  0
 30 24  1  0  0  0  0
 30 22  1  0  0  0  0
 31 17  1  0  0  0  0
 32 31  1  0  0  0  0
M  END
>  <MODEL>
2

>  <REMARK>
 VINA RESULT:      -7.4      2.611      3.628
  Name = 
  2 active torsions:
  status: ('A' for Active; 'I' for Inactive)
    1  A    between atoms: N_13  and  C_29
    2  A    between atoms: C_16  and  C_27
                            x       y       z     vdW  Elec       q    Type
                         _______ _______ _______ _____ _____    ______ ____

>  <TORSDO>
F 2

$$$$
=
 OpenBabel11052419103D

 32 37  0  0  1  0  0  0  0  0999 V2000
  189.2540  175.7940  142.0600 C   0  0  2  0  0  3  0  0  0  0  0  0
  190.2630  177.0030  143.9930 C   0  0  1  0  0  3  0  0  0  0  0  0
  188.0950  175.5510  141.1310 C   0  0  0  0  0  2  0  0  0  0  0  0
  189.1620  176.7660  142.9970 C   0  0  2  0  0  3  0  0  0  0  0  0
  189.8170  176.4270  145.3450 C   0  0  1  0  0  3  0  0  0  0  0  0
  194.9520  176.3050  145.3150 C   0  0  0  0  0  3  0  0  0  0  0  0
  191.5990  176.3900  143.5350 C   0  0  2  0  0  3  0  0  0  0  0  0
  193.2180  176.5320  146.9900 C   0  0  0  0  0  3  0  0  0  0  0  0
  192.2430  176.5100  145.9890 C   0  0  0  0  0  0  0  0  0  0  0  0
  187.8310  177.3810  143.3740 C   0  0  2  0  0  3  0  0  0  0  0  0
  190.8630  176.6430  146.3400 N   0  0  0  0  0  2  0  0  0  0  0  0
  187.3920  176.8430  144.7390 C   0  0  0  0  0  2  0  0  0  0  0  0
  186.7850  177.1940  142.3580 N   0  0  0  0  0  2  0  0  0  0  0  0
  191.3870  175.0280  143.0570 N   0  0  0  0  0  2  0  0  0  0  0  0
  190.5770  175.0790  141.8350 C   0  0  1  0  0  3  0  0  0  0  0  0
  192.6270  176.4030  144.6350 C   0  0  0  0  0  0  0  0  0  0  0  0
  188.4890  177.0600  145.7950 C   0  0  1  0  0  3  0  0  0  0  0  0
  186.7850  175.8210  141.8570 C   0  0  0  0  0  2  0  0  0  0  0  0
  194.5700  176.4270  146.6540 C   0  0  0  0  0  3  0  0  0  0  0  0
  193.9840  176.2940  144.3080 C   0  0  0  0  0  3  0  0  0  0  0  0
  191.3500  171.2910  141.6440 C   0  0  1  0  0  3  0  0  0  0  0  0
  189.4550  170.4740  138.1840 Cl  0  0  0  0  0  0  0  0  0  0  0  0
  191.6600  170.2300  142.6870 C   0  0  0  0  0  1  0  0  0  0  0  0
  191.0510  172.5620  139.0890 C   0  0  0  0  0  3  0  0  0  0  0  0
  190.4070  173.6730  141.2440 C   0  0  1  0  0  3  0  0  0  0  0  0
  190.5030  170.7370  140.5910 N   0  0  0  0  0  0  0  0  0  0  0  0
  191.1260  173.6040  139.9220 C   0  0  0  0  0  3  0  0  0  0  0  0
  190.7400  172.5570  142.2640 C   0  0  1  0  0  3  0  0  0  0  0  0
  189.5000  172.2310  143.0860 C   0  0  0  0  0  1  0  0  0  0  0  0
  190.3680  171.2990  139.4270 C   0  0  0  0  0  0  0  0  0  0  0  0
  188.0640  176.4750  147.0560 N   0  0  0  0  0  2  0  0  0  0  0  0
  186.6480  176.7640  147.2060 C   0  0  0  0  0  1  0  0  0  0  0  0
  1  3  1  6  0  0  0
  1  4  1  0  0  0  0
  2  5  1  0  0  0  0
  3 18  1  0  0  0  0
  4 10  1  0  0  0  0
  4  2  1  0  0  0  0
  5 17  1  0  0  0  0
  5 11  1  0  0  0  0
  6 19  1  0  0  0  0
  7  2  1  0  0  0  0
  7 16  1  0  0  0  0
  9 11  1  0  0  0  0
  9  8  1  0  0  0  0
 10 12  1  0  0  0  0
 12 17  1  0  0  0  0
 13 10  1  0  0  0  0
 14  7  1  0  0  0  0
 15  1  1  0  0  0  0
 15 14  1  0  0  0  0
 16  9  2  0  0  0  0
 17 31  1  0  0  0  0
 18 13  1  0  0  0  0
 19  8  2  0  0  0  0
 20 16  1  0  0  0  0
 20  6  2  0  0  0  0
 21 28  1  0  0  0  0
 21 23  1  0  0  0  0
 22 30  1  0  0  0  0
 24 30  1  0  0  0  0
 24 27  2  0  0  0  0
 25 15  1  0  0  0  0
 25 28  1  0  0  0  0
 26 21  1  0  0  0  0
 27 25  1  0  0  0  0
 28 29  1  0  0  0  0
 30 26  2  0  0  0  0
 31 32  1  0  0  0  0
M  END
>  <MODEL>
3

>  <REMARK>
 VINA RESULT:      -7.2      2.946      6.023
  Name = 
  2 active torsions:
  status: ('A' for Active; 'I' for Inactive)
    1  A    between atoms: N_13  and  C_29
    2  A    between atoms: C_16  and  C_27
                            x       y       z     vdW  Elec       q    Type
                         _______ _______ _______ _____ _____    ______ ____

>  <TORSDO>
F 2

$$$$
=
 OpenBabel11052419103D

 32 37  0  0  1  0  0  0  0  0999 V2000
  191.6050  174.5070  145.3530 C   0  0  2  0  0  3  0  0  0  0  0  0
  189.5150  174.4110  143.9970 C   0  0  1  0  0  3  0  0  0  0  0  0
  192.3120  174.8130  146.6460 C   0  0  0  0  0  2  0  0  0  0  0  0
  190.2610  174.6390  145.2830 C   0  0  2  0  0  3  0  0  0  0  0  0
  189.1230  175.7800  143.4230 C   0  0  1  0  0  3  0  0  0  0  0  0
  189.4750  172.5590  139.4370 C   0  0  0  0  0  3  0  0  0  0  0  0
  190.3410  173.5940  142.9860 C   0  0  2  0  0  3  0  0  0  0  0  0
  188.1910  174.5410  139.9760 C   0  0  0  0  0  3  0  0  0  0  0  0
  188.7760  174.5780  141.2460 C   0  0  0  0  0  0  0  0  0  0  0  0
  189.4830  175.4020  146.3330 C   0  0  2  0  0  3  0  0  0  0  0  0
  188.3930  175.5980  142.1730 N   0  0  0  0  0  2  0  0  0  0  0  0
  189.0520  176.7560  145.7600 C   0  0  0  0  0  2  0  0  0  0  0  0
  190.2030  175.5580  147.6050 N   0  0  0  0  0  2  0  0  0  0  0  0
  191.6990  174.1210  142.9090 N   0  0  0  0  0  2  0  0  0  0  0  0
  192.3690  173.8870  144.1930 C   0  0  1  0  0  3  0  0  0  0  0  0
  189.7060  173.5860  141.6220 C   0  0  0  0  0  0  0  0  0  0  0  0
  188.2870  176.5770  144.4390 C   0  0  1  0  0  3  0  0  0  0  0  0
  191.5950  175.9420  147.3720 C   0  0  0  0  0  2  0  0  0  0  0  0
  188.5420  173.5350  139.0720 C   0  0  0  0  0  3  0  0  0  0  0  0
  190.0550  172.5840  140.7080 C   0  0  0  0  0  3  0  0  0  0  0  0
  195.9430  174.2650  145.6330 C   0  0  1  0  0  3  0  0  0  0  0  0
  197.4410  176.7610  142.8490 Cl  0  0  0  0  0  0  0  0  0  0  0  0
  196.8160  173.3870  146.5130 C   0  0  0  0  0  1  0  0  0  0  0  0
  195.0090  176.5570  144.1800 C   0  0  0  0  0  3  0  0  0  0  0  0
  193.8330  174.3410  144.1260 C   0  0  1  0  0  3  0  0  0  0  0  0
  196.7470  174.9170  144.6050 N   0  0  0  0  0  0  0  0  0  0  0  0
  193.8960  175.8340  144.3240 C   0  0  0  0  0  3  0  0  0  0  0  0
  194.7600  173.4910  145.0300 C   0  0  1  0  0  3  0  0  0  0  0  0
  195.2320  172.2630  144.2640 C   0  0  0  0  0  1  0  0  0  0  0  0
  196.3400  175.9620  143.9480 C   0  0  0  0  0  0  0  0  0  0  0  0
  187.9580  177.8840  143.8930 N   0  0  0  0  0  2  0  0  0  0  0  0
  186.6930  178.2880  144.4830 C   0  0  0  0  0  1  0  0  0  0  0  0
  1  3  1  1  0  0  0
  2  4  1  0  0  0  0
  3 18  1  0  0  0  0
  4  1  1  0  0  0  0
  4 10  1  0  0  0  0
  5  2  1  0  0  0  0
  5 17  1  0  0  0  0
  6 20  1  0  0  0  0
  7  2  1  0  0  0  0
  8  9  2  0  0  0  0
  9 16  1  0  0  0  0
  9 11  1  0  0  0  0
 10 13  1  0  0  0  0
 11  5  1  0  0  0  0
 12 10  1  0  0  0  0
 14  7  1  0  0  0  0
 14 15  1  0  0  0  0
 15  1  1  0  0  0  0
 16  7  1  0  0  0  0
 17 12  1  0  0  0  0
 18 13  1  0  0  0  0
 19  6  2  0  0  0  0
 19  8  1  0  0  0  0
 20 16  2  0  0  0  0
 21 23  1  0  0  0  0
 22 30  1  0  0  0  0
 24 27  2  0  0  0  0
 25 15  1  0  0  0  0
 25 27  1  0  0  0  0
 25 28  1  0  0  0  0
 26 21  1  0  0  0  0
 28 21  1  0  0  0  0
 29 28  1  0  0  0  0
 30 24  1  0  0  0  0
 30 26  2  0  0  0  0
 31 17  1  0  0  0  0
 31 32  1  0  0  0  0
M  END
>  <MODEL>
4

>  <REMARK>
 VINA RESULT:      -7.1      1.357      2.124
  Name = 
  2 active torsions:
  status: ('A' for Active; 'I' for Inactive)
    1  A    between atoms: N_13  and  C_29
    2  A    between atoms: C_16  and  C_27
                            x       y       z     vdW  Elec       q    Type
                         _______ _______ _______ _____ _____    ______ ____

>  <TORSDO>
F 2

$$$$
=
 OpenBabel11052419103D

 32 37  0  0  1  0  0  0  0  0999 V2000
  188.9070  175.7990  144.5620 C   0  0  2  0  0  3  0  0  0  0  0  0
  187.6400  175.1070  142.5300 C   0  0  1  0  0  3  0  0  0  0  0  0
  188.9570  176.4850  145.9010 C   0  0  0  0  0  2  0  0  0  0  0  0
  187.7300  175.7200  143.8990 C   0  0  2  0  0  3  0  0  0  0  0  0
  187.5040  176.2430  141.5050 C   0  0  1  0  0  3  0  0  0  0  0  0
  189.6800  172.2920  139.0460 C   0  0  0  0  0  3  0  0  0  0  0  0
  188.8510  174.2090  142.2170 C   0  0  2  0  0  3  0  0  0  0  0  0
  188.2350  174.1420  138.4490 C   0  0  0  0  0  3  0  0  0  0  0  0
  188.1940  174.5450  139.7870 C   0  0  0  0  0  0  0  0  0  0  0  0
  186.5460  176.5820  144.2810 C   0  0  2  0  0  3  0  0  0  0  0  0
  187.4100  175.6820  140.1610 N   0  0  0  0  0  2  0  0  0  0  0  0
  186.3760  177.6980  143.2460 C   0  0  0  0  0  2  0  0  0  0  0  0
  186.6210  177.1200  145.6470 N   0  0  0  0  0  2  0  0  0  0  0  0
  190.0870  174.8920  142.5830 N   0  0  0  0  0  2  0  0  0  0  0  0
  190.1230  175.0500  144.0420 C   0  0  1  0  0  3  0  0  0  0  0  0
  188.8880  173.8050  140.7670 C   0  0  0  0  0  0  0  0  0  0  0  0
  186.2820  177.1200  141.8230 C   0  0  1  0  0  3  0  0  0  0  0  0
  187.9600  177.6350  145.9310 C   0  0  0  0  0  2  0  0  0  0  0  0
  188.9790  173.0190  138.0790 C   0  0  0  0  0  3  0  0  0  0  0  0
  189.6350  172.6840  140.3860 C   0  0  0  0  0  3  0  0  0  0  0  0
  193.9070  175.7700  143.6520 C   0  0  1  0  0  3  0  0  0  0  0  0
  194.5630  177.4500  147.2540 Cl  0  0  0  0  0  0  0  0  0  0  0  0
  194.8110  176.0040  142.4530 C   0  0  0  0  0  1  0  0  0  0  0  0
  193.0730  175.2830  146.3540 C   0  0  0  0  0  3  0  0  0  0  0  0
  191.4510  175.6800  144.4810 C   0  0  1  0  0  3  0  0  0  0  0  0
  194.2880  176.6470  144.7560 N   0  0  0  0  0  0  0  0  0  0  0  0
  192.0030  174.9050  145.6500 C   0  0  0  0  0  3  0  0  0  0  0  0
  192.4190  175.9120  143.2950 C   0  0  1  0  0  3  0  0  0  0  0  0
  192.1270  177.2630  142.6550 C   0  0  0  0  0  1  0  0  0  0  0  0
  193.9250  176.4300  145.9840 C   0  0  0  0  0  0  0  0  0  0  0  0
  186.1920  178.2110  140.8670 N   0  0  0  0  0  2  0  0  0  0  0  0
  184.7910  178.3580  140.5150 C   0  0  0  0  0  1  0  0  0  0  0  0
  1  3  1  1  0  0  0
  2  4  1  0  0  0  0
  3 18  1  0  0  0  0
  4 10  1  0  0  0  0
  4  1  1  0  0  0  0
  5 17  1  0  0  0  0
  5  2  1  0  0  0  0
  6 20  1  0  0  0  0
  7  2  1  0  0  0  0
  7 14  1  0  0  0  0
  8  9  2  0  0  0  0
  9 11  1  0  0  0  0
  9 16  1  0  0  0  0
 10 13  1  0  0  0  0
 11  5  1  0  0  0  0
 12 10  1  0  0  0  0
 13 18  1  0  0  0  0
 14 15  1  0  0  0  0
 15 25  1  0  0  0  0
 15  1  1  0  0  0  0
 16  7  1  0  0  0  0
 17 12  1  0  0  0  0
 19  8  1  0  0  0  0
 19  6  2  0  0  0  0
 20 16  2  0  0  0  0
 21 26  1  0  0  0  0
 23 21  1  0  0  0  0
 25 27  1  0  0  0  0
 26 30  2  0  0  0  0
 27 24  2  0  0  0  0
 28 21  1  0  0  0  0
 28 25  1  0  0  0  0
 29 28  1  0  0  0  0
 30 24  1  0  0  0  0
 30 22  1  0  0  0  0
 31 17  1  0  0  0  0
 32 31  1  0  0  0  0
M  END
>  <MODEL>
5

>  <REMARK>
 VINA RESULT:      -7.0      1.866      2.223
  Name = 
  2 active torsions:
  status: ('A' for Active; 'I' for Inactive)
    1  A    between atoms: N_13  and  C_29
    2  A    between atoms: C_16  and  C_27
                            x       y       z     vdW  Elec       q    Type
                         _______ _______ _______ _____ _____    ______ ____

>  <TORSDO>
F 2

$$$$
=
 OpenBabel11052419103D

 32 37  0  0  1  0  0  0  0  0999 V2000
  189.6000  175.1880  141.9570 C   0  0  2  0  0  3  0  0  0  0  0  0
  190.9730  176.5130  143.5620 C   0  0  1  0  0  3  0  0  0  0  0  0
  188.2650  174.8450  141.3510 C   0  0  0  0  0  2  0  0  0  0  0  0
  189.6770  176.1770  142.8770 C   0  0  2  0  0  3  0  0  0  0  0  0
  190.9200  175.9460  144.9890 C   0  0  1  0  0  3  0  0  0  0  0  0
  195.8810  176.1580  143.6720 C   0  0  0  0  0  3  0  0  0  0  0  0
  192.1920  175.9760  142.7890 C   0  0  2  0  0  3  0  0  0  0  0  0
  194.6080  176.3180  145.7260 C   0  0  0  0  0  3  0  0  0  0  0  0
  193.4180  176.2050  145.0020 C   0  0  0  0  0  0  0  0  0  0  0  0
  188.4430  176.7150  143.5690 C   0  0  2  0  0  3  0  0  0  0  0  0
  192.1630  176.2570  145.6870 N   0  0  0  0  0  2  0  0  0  0  0  0
  188.3970  176.1870  145.0070 C   0  0  0  0  0  2  0  0  0  0  0  0
  187.1920  176.4330  142.8500 N   0  0  0  0  0  2  0  0  0  0  0  0
  191.9630  174.5900  142.3940 N   0  0  0  0  0  2  0  0  0  0  0  0
  190.8710  174.5550  141.4140 C   0  0  1  0  0  3  0  0  0  0  0  0
  193.4580  176.0860  143.5960 C   0  0  0  0  0  0  0  0  0  0  0  0
  189.7060  176.5040  145.7510 C   0  0  1  0  0  3  0  0  0  0  0  0
  187.1630  175.0490  142.3790 C   0  0  0  0  0  2  0  0  0  0  0  0
  195.8380  176.2910  145.0630 C   0  0  0  0  0  3  0  0  0  0  0  0
  194.6950  176.0560  142.9410 C   0  0  0  0  0  3  0  0  0  0  0  0
  191.5680  170.7470  141.3900 C   0  0  1  0  0  3  0  0  0  0  0  0
  189.5570  169.7990  138.0310 Cl  0  0  0  0  0  0  0  0  0  0  0  0
  191.8900  169.7330  142.4750 C   0  0  0  0  0  1  0  0  0  0  0  0
  191.2170  171.8970  138.7850 C   0  0  0  0  0  3  0  0  0  0  0  0
  190.6580  173.1260  140.8990 C   0  0  1  0  0  3  0  0  0  0  0  0
  190.6800  170.1600  140.3910 N   0  0  0  0  0  0  0  0  0  0  0  0
  191.3360  172.9760  139.5620 C   0  0  0  0  0  3  0  0  0  0  0  0
  191.0000  172.0540  141.9640 C   0  0  1  0  0  3  0  0  0  0  0  0
  189.7790  171.7940  142.8360 C   0  0  0  0  0  1  0  0  0  0  0  0
  190.5220  170.6660  139.2050 C   0  0  0  0  0  0  0  0  0  0  0  0
  189.6500  175.9270  147.0850 N   0  0  0  0  0  2  0  0  0  0  0  0
  189.2170  174.5480  146.9370 C   0  0  0  0  0  1  0  0  0  0  0  0
  1  3  1  6  0  0  0
  1  4  1  0  0  0  0
  2  5  1  0  0  0  0
  3 18  1  0  0  0  0
  4  2  1  0  0  0  0
  4 10  1  0  0  0  0
  5 11  1  0  0  0  0
  5 17  1  0  0  0  0
  6 19  1  0  0  0  0
  7  2  1  0  0  0  0
  7 16  1  0  0  0  0
  9 11  1  0  0  0  0
  9  8  1  0  0  0  0
 10 12  1  0  0  0  0
 12 17  1  0  0  0  0
 13 10  1  0  0  0  0
 14  7  1  0  0  0  0
 15  1  1  0  0  0  0
 15 14  1  0  0  0  0
 16  9  2  0  0  0  0
 17 31  1  0  0  0  0
 18 13  1  0  0  0  0
 19  8  2  0  0  0  0
 20 16  1  0  0  0  0
 20  6  2  0  0  0  0
 21 28  1  0  0  0  0
 21 23  1  0  0  0  0
 22 30  1  0  0  0  0
 24 30  1  0  0  0  0
 24 27  2  0  0  0  0
 25 15  1  0  0  0  0
 25 28  1  0  0  0  0
 26 21  1  0  0  0  0
 27 25  1  0  0  0  0
 28 29  1  0  0  0  0
 30 26  2  0  0  0  0
 32 31  1  0  0  0  0
M  END
>  <MODEL>
6

>  <REMARK>
 VINA RESULT:      -6.9      2.897      6.069
  Name = 
  2 active torsions:
  status: ('A' for Active; 'I' for Inactive)
    1  A    between atoms: N_13  and  C_29
    2  A    between atoms: C_16  and  C_27
                            x       y       z     vdW  Elec       q    Type
                         _______ _______ _______ _____ _____    ______ ____

>  <TORSDO>
F 2

$$$$
=
 OpenBabel11052419103D

 32 37  0  0  1  0  0  0  0  0999 V2000
  192.4730  176.5080  144.2910 C   0  0  2  0  0  3  0  0  0  0  0  0
  194.6750  175.8020  143.3580 C   0  0  1  0  0  3  0  0  0  0  0  0
  191.6310  176.9640  145.4520 C   0  0  0  0  0  2  0  0  0  0  0  0
  193.8010  176.3210  144.4670 C   0  0  2  0  0  3  0  0  0  0  0  0
  194.9920  174.3280  143.6500 C   0  0  1  0  0  3  0  0  0  0  0  0
  195.2830  174.9160  138.5550 C   0  0  0  0  0  3  0  0  0  0  0  0
  194.0180  175.9720  141.9760 C   0  0  2  0  0  3  0  0  0  0  0  0
  196.3310  173.4970  140.2150 C   0  0  0  0  0  3  0  0  0  0  0  0
  195.6360  174.1640  141.2290 C   0  0  0  0  0  0  0  0  0  0  0  0
  194.4120  176.2190  145.8480 C   0  0  2  0  0  3  0  0  0  0  0  0
  195.8430  173.7910  142.5940 N   0  0  0  0  0  2  0  0  0  0  0  0
  194.7680  174.7570  146.1380 C   0  0  0  0  0  2  0  0  0  0  0  0
  193.5710  176.7910  146.9100 N   0  0  0  0  0  2  0  0  0  0  0  0
  192.6300  175.5250  142.0240 N   0  0  0  0  0  2  0  0  0  0  0  0
  191.8730  176.4310  142.8960 C   0  0  1  0  0  3  0  0  0  0  0  0
  194.7690  175.2290  140.9050 C   0  0  0  0  0  0  0  0  0  0  0  0
  195.6610  174.1780  145.0270 C   0  0  1  0  0  3  0  0  0  0  0  0
  192.1770  176.3820  146.7480 C   0  0  0  0  0  2  0  0  0  0  0  0
  196.1530  173.8700  138.8800 C   0  0  0  0  0  3  0  0  0  0  0  0
  194.5930  175.5930  139.5640 C   0  0  0  0  0  3  0  0  0  0  0  0
  188.7670  174.5860  141.5030 C   0  0  1  0  0  3  0  0  0  0  0  0
  185.9470  176.4180  143.7220 Cl  0  0  0  0  0  0  0  0  0  0  0  0
  188.5580  173.2270  140.8580 C   0  0  0  0  0  1  0  0  0  0  0  0
  188.2450  177.2610  142.4020 C   0  0  0  0  0  3  0  0  0  0  0  0
  190.3860  176.0530  142.9010 C   0  0  1  0  0  3  0  0  0  0  0  0
  187.6510  174.9080  142.3880 N   0  0  0  0  0  0  0  0  0  0  0  0
  189.5790  177.2170  142.3880 C   0  0  0  0  0  3  0  0  0  0  0  0
  190.1190  174.6840  142.2280 C   0  0  1  0  0  3  0  0  0  0  0  0
  190.2820  173.5710  143.2530 C   0  0  0  0  0  1  0  0  0  0  0  0
  187.3990  176.1160  142.7920 C   0  0  0  0  0  0  0  0  0  0  0  0
  195.9180  172.7740  145.3030 N   0  0  0  0  0  2  0  0  0  0  0  0
  194.6300  172.1350  145.5080 C   0  0  0  0  0  1  0  0  0  0  0  0
  1  4  1  0  0  0  0
  1  3  1  6  0  0  0
  2  5  1  0  0  0  0
  2  4  1  0  0  0  0
  3 18  1  0  0  0  0
  4 10  1  0  0  0  0
  5 17  1  0  0  0  0
  6 19  2  0  0  0  0
  6 20  1  0  0  0  0
  7 14  1  0  0  0  0
  7  2  1  0  0  0  0
  8  9  2  0  0  0  0
  9 11  1  0  0  0  0
 10 12  1  0  0  0  0
 10 13  1  0  0  0  0
 11  5  1  0  0  0  0
 14 15  1  0  0  0  0
 15 25  1  0  0  0  0
 15  1  1  0  0  0  0
 16  9  1  0  0  0  0
 16  7  1  0  0  0  0
 17 31  1  0  0  0  0
 17 12  1  0  0  0  0
 18 13  1  0  0  0  0
 19  8  1  0  0  0  0
 20 16  2  0  0  0  0
 21 28  1  0  0  0  0
 21 26  1  0  0  0  0
 23 21  1  0  0  0  0
 24 30  1  0  0  0  0
 26 30  2  0  0  0  0
 27 24  2  0  0  0  0
 27 25  1  0  0  0  0
 28 25  1  0  0  0  0
 28 29  1  0  0  0  0
 30 22  1  0  0  0  0
 31 32  1  0  0  0  0
M  END
>  <MODEL>
7

>  <REMARK>
 VINA RESULT:      -6.8      2.869      6.721
  Name = 
  2 active torsions:
  status: ('A' for Active; 'I' for Inactive)
    1  A    between atoms: N_13  and  C_29
    2  A    between atoms: C_16  and  C_27
                            x       y       z     vdW  Elec       q    Type
                         _______ _______ _______ _____ _____    ______ ____

>  <TORSDO>
F 2

$$$$
=
 OpenBabel11052419103D

 32 37  0  0  1  0  0  0  0  0999 V2000
  190.8660  172.5640  143.2650 C   0  0  2  0  0  3  0  0  0  0  0  0
  193.2900  172.1360  142.8680 C   0  0  1  0  0  3  0  0  0  0  0  0
  189.4240  172.3650  142.8820 C   0  0  0  0  0  2  0  0  0  0  0  0
  191.8330  171.9200  142.5700 C   0  0  2  0  0  3  0  0  0  0  0  0
  193.8740  173.0360  141.7690 C   0  0  1  0  0  3  0  0  0  0  0  0
  196.7450  173.7820  145.9630 C   0  0  0  0  0  3  0  0  0  0  0  0
  193.5110  172.7420  144.2660 C   0  0  2  0  0  3  0  0  0  0  0  0
  197.0940  173.8620  143.5680 C   0  0  0  0  0  3  0  0  0  0  0  0
  195.7730  173.4560  143.3580 C   0  0  0  0  0  0  0  0  0  0  0  0
  191.5540  171.2870  141.2240 C   0  0  2  0  0  3  0  0  0  0  0  0
  195.2920  173.2660  142.0240 N   0  0  0  0  0  2  0  0  0  0  0  0
  192.1640  172.1560  140.1190 C   0  0  0  0  0  2  0  0  0  0  0  0
  190.1290  171.0240  140.9780 N   0  0  0  0  0  2  0  0  0  0  0  0
  192.5940  173.8560  144.4790 N   0  0  0  0  0  2  0  0  0  0  0  0
  191.2230  173.3350  144.5260 C   0  0  1  0  0  3  0  0  0  0  0  0
  194.9340  173.1930  144.4620 C   0  0  0  0  0  0  0  0  0  0  0  0
  193.6580  172.4100  140.3810 C   0  0  1  0  0  3  0  0  0  0  0  0
  189.3110  172.1680  141.3770 C   0  0  0  0  0  2  0  0  0  0  0  0
  197.5790  174.0280  144.8680 C   0  0  0  0  0  3  0  0  0  0  0  0
  195.4270  173.3660  145.7610 C   0  0  0  0  0  3  0  0  0  0  0  0
  190.2320  177.0530  144.9560 C   0  0  1  0  0  3  0  0  0  0  0  0
  186.6060  176.5090  146.6260 Cl  0  0  0  0  0  0  0  0  0  0  0  0
  190.6300  178.3330  144.2410 C   0  0  0  0  0  1  0  0  0  0  0  0
  189.0900  175.2940  146.9150 C   0  0  0  0  0  3  0  0  0  0  0  0
  190.2310  174.4610  144.8420 C   0  0  1  0  0  3  0  0  0  0  0  0
  188.8120  177.0770  145.2920 N   0  0  0  0  0  0  0  0  0  0  0  0
  190.0060  174.5180  146.3310 C   0  0  0  0  0  3  0  0  0  0  0  0
  190.6100  175.7970  144.1550 C   0  0  1  0  0  3  0  0  0  0  0  0
  190.0210  175.8340  142.7520 C   0  0  0  0  0  1  0  0  0  0  0  0
  188.2860  176.2930  146.1850 C   0  0  0  0  0  0  0  0  0  0  0  0
  194.1830  173.2930  139.3520 N   0  0  0  0  0  2  0  0  0  0  0  0
  193.0960  174.1670  138.9450 C   0  0  0  0  0  1  0  0  0  0  0  0
  1  3  1  1  0  0  0
  1 15  1  0  0  0  0
  2  7  1  0  0  0  0
  4  2  1  0  0  0  0
  4  1  1  0  0  0  0
  5 11  1  0  0  0  0
  5  2  1  0  0  0  0
  7 16  1  0  0  0  0
  7 14  1  0  0  0  0
  8 19  1  0  0  0  0
  9  8  2  0  0  0  0
  9 16  1  0  0  0  0
 10  4  1  0  0  0  0
 11  9  1  0  0  0  0
 12 17  1  0  0  0  0
 12 10  1  0  0  0  0
 13 10  1  0  0  0  0
 13 18  1  0  0  0  0
 14 15  1  0  0  0  0
 15 25  1  0  0  0  0
 16 20  2  0  0  0  0
 17  5  1  0  0  0  0
 18  3  1  0  0  0  0
 19  6  2  0  0  0  0
 20  6  1  0  0  0  0
 21 26  1  0  0  0  0
 23 21  1  0  0  0  0
 25 27  1  0  0  0  0
 26 30  2  0  0  0  0
 27 24  2  0  0  0  0
 28 25  1  0  0  0  0
 28 21  1  0  0  0  0
 29 28  1  0  0  0  0
 30 22  1  0  0  0  0
 30 24  1  0  0  0  0
 31 17  1  0  0  0  0
 32 31  1  0  0  0  0
M  END
>  <MODEL>
8

>  <REMARK>
 VINA RESULT:      -6.7      2.891      6.820
  Name = 
  2 active torsions:
  status: ('A' for Active; 'I' for Inactive)
    1  A    between atoms: N_13  and  C_29
    2  A    between atoms: C_16  and  C_27
                            x       y       z     vdW  Elec       q    Type
                         _______ _______ _______ _____ _____    ______ ____

>  <TORSDO>
F 2

$$$$
=
 OpenBabel11052419103D

 32 37  0  0  1  0  0  0  0  0999 V2000
  190.2770  175.3030  144.0800 C   0  0  2  0  0  3  0  0  0  0  0  0
  188.6380  174.5430  142.3630 C   0  0  1  0  0  3  0  0  0  0  0  0
  190.6060  176.1100  145.3080 C   0  0  0  0  0  2  0  0  0  0  0  0
  189.0050  175.2780  143.6220 C   0  0  2  0  0  3  0  0  0  0  0  0
  188.4310  175.5780  141.2480 C   0  0  1  0  0  3  0  0  0  0  0  0
  189.8290  171.2000  138.9520 C   0  0  0  0  0  3  0  0  0  0  0  0
  189.7010  173.5000  141.9710 C   0  0  2  0  0  3  0  0  0  0  0  0
  188.4660  173.1180  138.3780 C   0  0  0  0  0  3  0  0  0  0  0  0
  188.6810  173.6560  139.6510 C   0  0  0  0  0  0  0  0  0  0  0  0
  187.9760  176.2890  144.0820 C   0  0  2  0  0  3  0  0  0  0  0  0
  188.0690  174.8990  140.0080 N   0  0  0  0  0  2  0  0  0  0  0  0
  187.7320  177.3080  142.9630 C   0  0  0  0  0  2  0  0  0  0  0  0
  188.3220  176.9510  145.3480 N   0  0  0  0  0  2  0  0  0  0  0  0
  191.0330  174.0870  142.0600 N   0  0  0  0  0  2  0  0  0  0  0  0
  191.3240  174.3850  143.4670 C   0  0  1  0  0  3  0  0  0  0  0  0
  189.4630  172.9510  140.5900 C   0  0  0  0  0  0  0  0  0  0  0  0
  187.3560  176.6020  141.6490 C   0  0  1  0  0  3  0  0  0  0  0  0
  189.7280  177.3530  145.3590 C   0  0  0  0  0  2  0  0  0  0  0  0
  189.0420  171.8940  138.0280 C   0  0  0  0  0  3  0  0  0  0  0  0
  190.0390  171.7270  140.2290 C   0  0  0  0  0  3  0  0  0  0  0  0
  194.0550  176.5160  145.1950 C   0  0  1  0  0  3  0  0  0  0  0  0
  196.9550  176.1180  142.4260 Cl  0  0  0  0  0  0  0  0  0  0  0  0
  194.3380  176.8840  146.6420 C   0  0  0  0  0  1  0  0  0  0  0  0
  194.2040  176.5080  142.3290 C   0  0  0  0  0  3  0  0  0  0  0  0
  192.7540  174.9180  143.6200 C   0  0  1  0  0  3  0  0  0  0  0  0
  195.3030  176.2660  144.4790 N   0  0  0  0  0  0  0  0  0  0  0  0
  193.0090  175.9560  142.5570 C   0  0  0  0  0  3  0  0  0  0  0  0
  193.0800  175.3340  145.0750 C   0  0  1  0  0  3  0  0  0  0  0  0
  193.5780  174.1220  145.8520 C   0  0  0  0  0  1  0  0  0  0  0  0
  195.3840  176.2710  143.1820 C   0  0  0  0  0  0  0  0  0  0  0  0
  187.2020  177.5960  140.5990 N   0  0  0  0  0  2  0  0  0  0  0  0
  185.8190  178.0410  140.6300 C   0  0  0  0  0  1  0  0  0  0  0  0
  1  3  1  1  0  0  0
  2  4  1  0  0  0  0
  3 18  1  0  0  0  0
  4  1  1  0  0  0  0
  4 10  1  0  0  0  0
  5 17  1  0  0  0  0
  5  2  1  0  0  0  0
  6 20  1  0  0  0  0
  7 14  1  0  0  0  0
  7  2  1  0  0  0  0
  8  9  2  0  0  0  0
  9 11  1  0  0  0  0
  9 16  1  0  0  0  0
 10 13  1  0  0  0  0
 11  5  1  0  0  0  0
 12 10  1  0  0  0  0
 13 18  1  0  0  0  0
 14 15  1  0  0  0  0
 15 25  1  0  0  0  0
 15  1  1  0  0  0  0
 16  7  1  0  0  0  0
 17 12  1  0  0  0  0
 19  8  1  0  0  0  0
 19  6  2  0  0  0  0
 20 16  2  0  0  0  0
 21 23  1  0  0  0  0
 22 30  1  0  0  0  0
 24 27  2  0  0  0  0
 24 30  1  0  0  0  0
 25 28  1  0  0  0  0
 26 21  1  0  0  0  0
 27 25  1  0  0  0  0
 28 21  1  0  0  0  0
 28 29  1  0  0  0  0
 30 26  2  0  0  0  0
 31 32  1  0  0  0  0
 31 17  1  0  0  0  0
M  END
>  <MODEL>
9

>  <REMARK>
 VINA RESULT:      -6.6      1.629      2.299
  Name = 
  2 active torsions:
  status: ('A' for Active; 'I' for Inactive)
    1  A    between atoms: N_13  and  C_29
    2  A    between atoms: C_16  and  C_27
                            x       y       z     vdW  Elec       q    Type
                         _______ _______ _______ _____ _____    ______ ____

>  <TORSDO>
F 2

$$$$
