=
 OpenBabel11052419283D

 55 60  0  0  1  0  0  0  0  0999 V2000
  193.3960  170.6020  138.2440 C   0  0  0  0  0  2  0  0  0  0  0  0
  191.7090  174.1250  140.7060 O   0  0  0  0  0  1  0  0  0  0  0  0
  191.2020  171.5190  143.3190 C   0  0  0  0  0  2  0  0  0  0  0  0
  193.6200  171.8480  144.8830 C   0  0  0  0  0  3  0  0  0  0  0  0
  194.7770  172.1430  145.6030 C   0  0  0  0  0  3  0  0  0  0  0  0
  194.9460  170.7160  143.1880 C   0  0  0  0  0  0  0  0  0  0  0  0
  196.0950  170.9990  143.9380 C   0  0  0  0  0  3  0  0  0  0  0  0
  192.2780  169.5680  142.2430 C   0  0  0  0  0  1  0  0  0  0  0  0
  196.0140  171.7090  145.1350 C   0  0  0  0  0  3  0  0  0  0  0  0
  191.7360  170.0850  136.4490 C   0  0  0  0  0  3  0  0  0  0  0  0
  193.6730  171.1210  143.6800 C   0  0  0  0  0  0  0  0  0  0  0  0
  190.1310  172.2560  137.1920 C   0  0  0  0  0  0  0  0  0  0  0  0
  194.1010  171.8390  138.7840 C   0  0  0  0  0  2  0  0  0  0  0  0
  191.3500  172.0250  137.8350 C   0  0  0  0  0  3  0  0  0  0  0  0
  195.4460  170.8410  140.6690 C   0  0  1  0  0  3  0  0  0  0  0  0
  190.1170  172.3020  140.5380 C   0  0  0  0  0  2  0  0  0  0  0  0
  195.1320  169.9670  141.8980 C   0  0  0  0  0  2  0  0  0  0  0  0
  191.3670  172.8680  141.2120 C   0  0  2  0  0  3  0  0  0  0  0  0
  191.2280  172.9230  142.7220 C   0  0  0  0  0  2  0  0  0  0  0  0
  190.5220  170.3180  135.7920 C   0  0  0  0  0  3  0  0  0  0  0  0
  189.1060  173.3780  140.1340 C   0  0  1  0  0  3  0  0  0  0  0  0
  192.1610  170.9430  137.4680 C   0  0  0  0  0  0  0  0  0  0  0  0
  192.4340  170.7910  143.0140 N   0  0  0  0  0  0  0  0  0  0  0  0
  194.2640  171.7370  140.2930 C   0  0  0  0  0  2  0  0  0  0  0  0
  188.3980  173.0290  138.8250 C   0  0  0  0  0  2  0  0  0  0  0  0
  189.2600  173.3950  137.6180 C   0  0  0  0  0  2  0  0  0  0  0  0
  189.7190  171.4000  136.1670 C   0  0  0  0  0  3  0  0  0  0  0  0
  197.3580  173.8710  137.7660 C   0  0  0  0  0  0  0  0  0  0  0  0
  196.7470  172.9380  141.3420 C   0  0  0  0  0  2  0  0  0  0  0  0
  197.1430  175.2690  137.6130 N   0  0  0  0  0  1  0  0  0  0  0  0
  197.1840  173.2470  139.0430 N   0  0  0  0  0  0  0  0  0  0  0  0
  197.8830  170.7180  141.3570 C   0  0  0  0  0  1  0  0  0  0  0  0
  197.2820  171.8160  139.2450 C   0  0  0  0  0  2  0  0  0  0  0  0
  197.7030  173.1880  136.7680 O   0  0  0  0  0  0  0  0  0  0  0  0
  196.8020  173.9730  140.2330 C   0  0  0  0  0  2  0  0  0  0  0  0
  196.8210  171.5630  140.6720 C   0  0  1  0  0  0  0  0  0  0  0  0
  188.1600  173.6680  141.2130 N   0  0  0  0  0  2  0  0  0  0  0  0
  187.9670  175.1090  141.3610 C   0  0  0  0  0  2  0  0  0  0  0  0
  190.4530  178.4150  144.8210 C   0  0  0  0  0  1  0  0  0  0  0  0
  189.2290  174.8820  145.4980 C   0  0  0  0  0  2  0  0  0  0  0  0
  189.8900  176.1700  145.9360 C   0  0  2  0  0  0  0  0  0  0  0  0
  189.5740  176.6000  142.5310 C   0  0  0  0  0  2  0  0  0  0  0  0
  187.7580  176.8940  144.7790 C   0  0  1  0  0  3  0  0  0  0  0  0
  188.3600  176.0660  145.9210 C   0  0  1  0  0  3  0  0  0  0  0  0
  188.4750  175.5610  142.7160 C   0  0  1  0  0  3  0  0  0  0  0  0
  192.0490  176.6660  142.7400 C   0  0  0  0  0  1  0  0  0  0  0  0
  187.3100  176.0900  143.5560 C   0  0  0  0  0  2  0  0  0  0  0  0
  190.6920  176.9090  144.8330 C   0  0  1  0  0  3  0  0  0  0  0  0
  190.7610  176.2670  143.4320 C   0  0  1  0  0  3  0  0  0  0  0  0
  190.5360  176.0290  147.3090 C   0  0  0  0  0  2  0  0  0  0  0  0
  192.6420  174.8820  146.8730 N   0  0  0  0  0  1  0  0  0  0  0  0
  192.0480  176.1560  147.2390 C   0  0  0  0  0  2  0  0  0  0  0  0
  186.5950  177.7080  145.3170 C   0  0  0  0  0  2  0  0  0  0  0  0
  184.7170  177.5960  146.4700 C   0  0  0  0  0  1  0  0  0  0  0  0
  185.5070  176.8730  145.5780 O   0  0  0  0  0  0  0  0  0  0  0  0
  1 13  1  0  0  0  0
  4  5  1  0  0  0  0
  6 11  1  0  0  0  0
  6  7  2  0  0  0  0
  7  9  1  0  0  0  0
  8 23  1  0  0  0  0
  9  5  2  0  0  0  0
 10 22  1  0  0  0  0
 11  4  2  0  0  0  0
 12 26  1  0  0  0  0
 12 14  1  0  0  0  0
 13 24  1  0  0  0  0
 15 24  1  1  0  0  0
 15 36  1  0  0  0  0
 15 17  1  0  0  0  0
 16 18  1  0  0  0  0
 17  6  1  0  0  0  0
 18  2  1  6  0  0  0
 18 19  1  0  0  0  0
 19  3  1  0  0  0  0
 20 27  1  0  0  0  0
 20 10  2  0  0  0  0
 21 16  1  0  0  0  0
 21 37  1  1  0  0  0
 22 14  2  0  0  0  0
 22  1  1  0  0  0  0
 23  3  1  0  0  0  0
 23 11  1  0  0  0  0
 25 21  1  0  0  0  0
 26 25  1  0  0  0  0
 27 12  2  0  0  0  0
 28 31  1  0  0  0  0
 30 28  1  0  0  0  0
 31 33  1  0  0  0  0
 31 35  1  0  0  0  0
 33 36  1  0  0  0  0
 34 28  2  0  0  0  0
 35 29  1  0  0  0  0
 36 29  1  0  0  0  0
 36 32  1  1  0  0  0
 37 38  1  0  0  0  0
 40 41  1  0  0  0  0
 41 50  1  1  0  0  0
 42 45  1  0  0  0  0
 42 49  1  0  0  0  0
 43 53  1  1  0  0  0
 43 44  1  0  0  0  0
 44 40  1  6  0  0  0
 44 41  1  0  0  0  0
 45 38  1  6  0  0  0
 45 47  1  0  0  0  0
 47 43  1  0  0  0  0
 48 39  1  6  0  0  0
 48 41  1  0  0  0  0
 49 46  1  6  0  0  0
 49 48  1  0  0  0  0
 51 52  1  0  0  0  0
 52 50  1  0  0  0  0
 53 55  1  0  0  0  0
 55 54  1  0  0  0  0
M  END
>  <MODEL>
1

>  <REMARK>
 VINA RESULT:      -7.6      0.000      0.000
  Name = 
  8 active torsions:
  status: ('A' for Active; 'I' for Inactive)
    1  A    between atoms: C_6  and  C_25
    2  A    between atoms: C_8  and  C_20
    3  A    between atoms: C_8  and  N_22
    4  A    between atoms: C_12  and  C_30
    5  A    between atoms: N_22  and  C_43
    6  A    between atoms: C_25  and  C_38
    7  A    between atoms: C_30  and  O_50
    8  A    between atoms: C_33  and  C_52
                            x       y       z     vdW  Elec       q    Type
                         _______ _______ _______ _____ _____    ______ ____

>  <TORSDO>
F 8

$$$$
=
 OpenBabel11052419283D

 55 60  0  0  1  0  0  0  0  0999 V2000
  193.3850  169.4640  140.3740 C   0  0  0  0  0  2  0  0  0  0  0  0
  192.4310  173.9810  140.3690 O   0  0  0  0  0  1  0  0  0  0  0  0
  191.5640  173.3840  143.9410 C   0  0  0  0  0  2  0  0  0  0  0  0
  194.0550  174.1190  145.2290 C   0  0  0  0  0  3  0  0  0  0  0  0
  195.2700  174.5660  145.7450 C   0  0  0  0  0  3  0  0  0  0  0  0
  195.1010  172.0370  144.5330 C   0  0  0  0  0  0  0  0  0  0  0  0
  196.3080  172.4920  145.0810 C   0  0  0  0  0  3  0  0  0  0  0  0
  192.2420  171.0190  144.1940 C   0  0  0  0  0  1  0  0  0  0  0  0
  196.3940  173.7480  145.6800 C   0  0  0  0  0  3  0  0  0  0  0  0
  191.5980  168.3230  139.0500 C   0  0  0  0  0  3  0  0  0  0  0  0
  193.9370  172.8500  144.6320 C   0  0  0  0  0  0  0  0  0  0  0  0
  190.4280  170.7720  138.3630 C   0  0  0  0  0  0  0  0  0  0  0  0
  194.3150  170.6560  140.1910 C   0  0  0  0  0  2  0  0  0  0  0  0
  191.6080  170.7380  139.1100 C   0  0  0  0  0  3  0  0  0  0  0  0
  195.5280  170.6620  142.4020 C   0  0  1  0  0  3  0  0  0  0  0  0
  190.5370  172.6640  141.1210 C   0  0  0  0  0  2  0  0  0  0  0  0
  195.1070  170.6810  143.8850 C   0  0  0  0  0  2  0  0  0  0  0  0
  191.8910  173.2920  141.4570 C   0  0  2  0  0  3  0  0  0  0  0  0
  191.8160  174.1960  142.6740 C   0  0  0  0  0  2  0  0  0  0  0  0
  190.4220  168.3510  138.2920 C   0  0  0  0  0  3  0  0  0  0  0  0
  189.7190  173.4860  140.1240 C   0  0  1  0  0  3  0  0  0  0  0  0
  192.2030  169.5180  139.4550 C   0  0  0  0  0  0  0  0  0  0  0  0
  192.6370  172.4180  144.1730 N   0  0  0  0  0  0  0  0  0  0  0  0
  194.5100  171.3810  141.5150 C   0  0  0  0  0  2  0  0  0  0  0  0
  188.9150  172.5940  139.1780 C   0  0  0  0  0  2  0  0  0  0  0  0
  189.7860  172.0820  138.0310 C   0  0  0  0  0  2  0  0  0  0  0  0
  189.8360  169.5740  137.9530 C   0  0  0  0  0  3  0  0  0  0  0  0
  197.7820  171.4650  138.4600 C   0  0  0  0  0  0  0  0  0  0  0  0
  197.2200  172.5390  142.0040 C   0  0  0  0  0  2  0  0  0  0  0  0
  197.8110  172.6190  137.6300 N   0  0  0  0  0  1  0  0  0  0  0  0
  197.5720  171.5930  139.8710 N   0  0  0  0  0  0  0  0  0  0  0  0
  197.9390  170.4470  143.1570 C   0  0  0  0  0  1  0  0  0  0  0  0
  197.4240  170.4550  140.7560 C   0  0  0  0  0  2  0  0  0  0  0  0
  197.9410  170.3300  137.9430 O   0  0  0  0  0  0  0  0  0  0  0  0
  197.3950  172.8660  140.5320 C   0  0  0  0  0  2  0  0  0  0  0  0
  197.0080  171.0250  142.1030 C   0  0  1  0  0  0  0  0  0  0  0  0
  188.8760  174.4770  140.7960 N   0  0  0  0  0  2  0  0  0  0  0  0
  188.2580  173.9070  141.9910 C   0  0  0  0  0  2  0  0  0  0  0  0
  188.6940  178.2380  145.1750 C   0  0  0  0  0  1  0  0  0  0  0  0
  185.6060  176.0940  144.6240 C   0  0  0  0  0  2  0  0  0  0  0  0
  186.3170  177.2660  145.2630 C   0  0  2  0  0  0  0  0  0  0  0  0
  188.8920  175.5490  143.7450 C   0  0  0  0  0  2  0  0  0  0  0  0
  186.8840  177.4240  142.8000 C   0  0  1  0  0  3  0  0  0  0  0  0
  185.7570  177.3980  143.8410 C   0  0  1  0  0  3  0  0  0  0  0  0
  187.7490  175.0170  142.8890 C   0  0  1  0  0  3  0  0  0  0  0  0
  189.6030  175.3710  146.1190 C   0  0  0  0  0  1  0  0  0  0  0  0
  187.0990  176.1130  142.0400 C   0  0  0  0  0  2  0  0  0  0  0  0
  187.8250  177.0440  145.5540 C   0  0  1  0  0  3  0  0  0  0  0  0
  188.4380  175.6740  145.1980 C   0  0  1  0  0  3  0  0  0  0  0  0
  185.4710  177.9080  146.3550 C   0  0  0  0  0  2  0  0  0  0  0  0
  186.6570  178.8710  148.2540 N   0  0  0  0  0  1  0  0  0  0  0  0
  186.0470  177.6590  147.7380 C   0  0  0  0  0  2  0  0  0  0  0  0
  186.6260  178.5540  141.8200 C   0  0  0  0  0  2  0  0  0  0  0  0
  184.7940  178.4390  140.5950 C   0  0  0  0  0  1  0  0  0  0  0  0
  186.1300  178.0420  140.6190 O   0  0  0  0  0  0  0  0  0  0  0  0
  3 23  1  0  0  0  0
  4  5  1  0  0  0  0
  6 11  1  0  0  0  0
  6  7  2  0  0  0  0
  7  9  1  0  0  0  0
  9  5  2  0  0  0  0
 10 22  1  0  0  0  0
 11  4  2  0  0  0  0
 12 14  1  0  0  0  0
 13  1  1  0  0  0  0
 13 24  1  0  0  0  0
 14 22  2  0  0  0  0
 15 24  1  6  0  0  0
 15 17  1  0  0  0  0
 16 18  1  0  0  0  0
 17  6  1  0  0  0  0
 18  2  1  6  0  0  0
 18 19  1  0  0  0  0
 19  3  1  0  0  0  0
 20 10  2  0  0  0  0
 21 37  1  1  0  0  0
 21 16  1  0  0  0  0
 22  1  1  0  0  0  0
 23  8  1  0  0  0  0
 23 11  1  0  0  0  0
 25 21  1  0  0  0  0
 26 12  1  0  0  0  0
 26 25  1  0  0  0  0
 27 20  1  0  0  0  0
 27 12  2  0  0  0  0
 28 31  1  0  0  0  0
 29 36  1  0  0  0  0
 30 28  1  0  0  0  0
 31 35  1  0  0  0  0
 31 33  1  0  0  0  0
 33 36  1  0  0  0  0
 34 28  2  0  0  0  0
 35 29  1  0  0  0  0
 36 15  1  0  0  0  0
 36 32  1  1  0  0  0
 37 38  1  0  0  0  0
 40 41  1  0  0  0  0
 41 48  1  0  0  0  0
 41 50  1  1  0  0  0
 42 49  1  0  0  0  0
 43 53  1  6  0  0  0
 43 44  1  0  0  0  0
 44 40  1  6  0  0  0
 44 41  1  0  0  0  0
 45 38  1  6  0  0  0
 45 42  1  0  0  0  0
 47 43  1  0  0  0  0
 47 45  1  0  0  0  0
 48 39  1  6  0  0  0
 49 48  1  0  0  0  0
 49 46  1  1  0  0  0
 50 52  1  0  0  0  0
 52 51  1  0  0  0  0
 54 55  1  0  0  0  0
 55 53  1  0  0  0  0
M  END
>  <MODEL>
2

>  <REMARK>
 VINA RESULT:      -7.1      2.064      2.827
  Name = 
  8 active torsions:
  status: ('A' for Active; 'I' for Inactive)
    1  A    between atoms: C_6  and  C_25
    2  A    between atoms: C_8  and  C_20
    3  A    between atoms: C_8  and  N_22
    4  A    between atoms: C_12  and  C_30
    5  A    between atoms: N_22  and  C_43
    6  A    between atoms: C_25  and  C_38
    7  A    between atoms: C_30  and  O_50
    8  A    between atoms: C_33  and  C_52
                            x       y       z     vdW  Elec       q    Type
                         _______ _______ _______ _____ _____    ______ ____

>  <TORSDO>
F 8

$$$$
=
 OpenBabel11052419283D

 55 60  0  0  1  0  0  0  0  0999 V2000
  189.2240  175.5740  144.9630 C   0  0  0  0  0  2  0  0  0  0  0  0
  192.9380  176.5210  142.3880 O   0  0  0  0  0  1  0  0  0  0  0  0
  192.4780  173.0290  141.1750 C   0  0  0  0  0  2  0  0  0  0  0  0
  190.9390  173.4960  138.7640 C   0  0  0  0  0  3  0  0  0  0  0  0
  190.2690  173.8410  137.5910 C   0  0  0  0  0  3  0  0  0  0  0  0
  188.9260  173.9270  140.0570 C   0  0  0  0  0  0  0  0  0  0  0  0
  188.2620  174.2460  138.8650 C   0  0  0  0  0  3  0  0  0  0  0  0
  190.3580  172.4240  142.2970 C   0  0  0  0  0  1  0  0  0  0  0  0
  188.9270  174.2070  137.6400 C   0  0  0  0  0  3  0  0  0  0  0  0
  189.9930  175.3660  147.3310 C   0  0  0  0  0  3  0  0  0  0  0  0
  190.2870  173.5140  140.0100 C   0  0  0  0  0  0  0  0  0  0  0  0
  192.6060  176.0950  146.6350 C   0  0  0  0  0  0  0  0  0  0  0  0
  189.3920  176.5700  143.8220 C   0  0  0  0  0  2  0  0  0  0  0  0
  191.5940  176.0860  145.6710 C   0  0  0  0  0  3  0  0  0  0  0  0
  188.1050  175.4180  141.9850 C   0  0  1  0  0  3  0  0  0  0  0  0
  193.2690  174.5390  143.7480 C   0  0  0  0  0  2  0  0  0  0  0  0
  188.1360  174.0220  141.3320 C   0  0  0  0  0  2  0  0  0  0  0  0
  192.6560  175.1560  142.4900 C   0  0  2  0  0  3  0  0  0  0  0  0
  193.0830  174.4290  141.2290 C   0  0  0  0  0  2  0  0  0  0  0  0
  191.0000  175.3840  148.3040 C   0  0  0  0  0  3  0  0  0  0  0  0
  194.5980  175.1820  144.1520 C   0  0  1  0  0  3  0  0  0  0  0  0
  190.2830  175.7260  146.0110 C   0  0  0  0  0  0  0  0  0  0  0  0
  191.0170  173.0830  141.1800 N   0  0  0  0  0  0  0  0  0  0  0  0
  189.4850  175.8380  142.4920 C   0  0  0  0  0  2  0  0  0  0  0  0
  194.7560  175.2490  145.6710 C   0  0  0  0  0  2  0  0  0  0  0  0
  194.0070  176.4480  146.2510 C   0  0  0  0  0  2  0  0  0  0  0  0
  192.3050  175.7440  147.9540 C   0  0  0  0  0  3  0  0  0  0  0  0
  185.2420  178.7610  143.3610 C   0  0  0  0  0  0  0  0  0  0  0  0
  188.1300  177.8380  141.1590 C   0  0  0  0  0  2  0  0  0  0  0  0
  185.5130  180.0180  143.9690 N   0  0  0  0  0  1  0  0  0  0  0  0
  186.1940  178.1680  142.4700 N   0  0  0  0  0  0  0  0  0  0  0  0
  187.0180  176.0740  139.7900 C   0  0  0  0  0  1  0  0  0  0  0  0
  186.0300  176.8450  141.9020 C   0  0  0  0  0  2  0  0  0  0  0  0
  184.1590  178.1750  143.6130 O   0  0  0  0  0  0  0  0  0  0  0  0
  187.4520  178.7930  142.1260 C   0  0  0  0  0  2  0  0  0  0  0  0
  187.3440  176.5240  141.2050 C   0  0  1  0  0  0  0  0  0  0  0  0
  195.7380  174.5270  143.5070 N   0  0  0  0  0  2  0  0  0  0  0  0
  196.3510  173.5510  144.4050 C   0  0  0  0  0  2  0  0  0  0  0  0
  196.2240  168.3360  143.0370 C   0  0  0  0  0  1  0  0  0  0  0  0
  193.2590  170.5710  143.8450 C   0  0  0  0  0  2  0  0  0  0  0  0
  193.8540  169.2360  143.4570 C   0  0  2  0  0  0  0  0  0  0  0  0
  196.5590  171.3620  143.2480 C   0  0  0  0  0  2  0  0  0  0  0  0
  195.2230  170.0060  145.4420 C   0  0  1  0  0  3  0  0  0  0  0  0
  193.8200  169.6550  144.9330 C   0  0  1  0  0  3  0  0  0  0  0  0
  195.7110  172.1920  144.2040 C   0  0  1  0  0  3  0  0  0  0  0  0
  196.4110  170.6260  140.8790 C   0  0  0  0  0  1  0  0  0  0  0  0
  195.5190  171.5040  145.5580 C   0  0  0  0  0  2  0  0  0  0  0  0
  195.1400  169.3120  142.5930 C   0  0  1  0  0  3  0  0  0  0  0  0
  195.6660  170.7070  142.1960 C   0  0  1  0  0  3  0  0  0  0  0  0
  192.7770  168.2420  143.0410 C   0  0  0  0  0  2  0  0  0  0  0  0
  190.7640  168.6730  141.7360 N   0  0  0  0  0  1  0  0  0  0  0  0
  192.2110  168.5620  141.6690 C   0  0  0  0  0  2  0  0  0  0  0  0
  195.4460  169.3310  146.7840 C   0  0  0  0  0  2  0  0  0  0  0  0
  197.5020  168.5480  146.6180 C   0  0  0  0  0  1  0  0  0  0  0  0
  196.7520  169.5560  147.2220 O   0  0  0  0  0  0  0  0  0  0  0  0
  1 22  1  0  0  0  0
  3 23  1  0  0  0  0
  3 19  1  0  0  0  0
  4 11  1  0  0  0  0
  5  9  1  0  0  0  0
  5  4  2  0  0  0  0
  6 17  1  0  0  0  0
  7  6  1  0  0  0  0
  9  7  2  0  0  0  0
 10 20  1  0  0  0  0
 11  6  2  0  0  0  0
 11 23  1  0  0  0  0
 12 27  1  0  0  0  0
 13  1  1  0  0  0  0
 14 22  1  0  0  0  0
 14 12  2  0  0  0  0
 15 17  1  6  0  0  0
 15 24  1  0  0  0  0
 16 21  1  0  0  0  0
 18  2  1  6  0  0  0
 18 16  1  0  0  0  0
 19 18  1  0  0  0  0
 21 37  1  6  0  0  0
 21 25  1  0  0  0  0
 22 10  2  0  0  0  0
 23  8  1  0  0  0  0
 24 13  1  0  0  0  0
 25 26  1  0  0  0  0
 26 12  1  0  0  0  0
 27 20  2  0  0  0  0
 28 34  2  0  0  0  0
 28 30  1  0  0  0  0
 29 36  1  0  0  0  0
 29 35  1  0  0  0  0
 31 28  1  0  0  0  0
 33 31  1  0  0  0  0
 35 31  1  0  0  0  0
 36 32  1  6  0  0  0
 36 33  1  0  0  0  0
 36 15  1  0  0  0  0
 37 38  1  0  0  0  0
 41 50  1  6  0  0  0
 41 40  1  0  0  0  0
 41 44  1  0  0  0  0
 42 45  1  0  0  0  0
 43 47  1  0  0  0  0
 43 53  1  1  0  0  0
 44 40  1  6  0  0  0
 44 43  1  0  0  0  0
 45 38  1  1  0  0  0
 45 47  1  0  0  0  0
 48 39  1  1  0  0  0
 48 41  1  0  0  0  0
 49 46  1  6  0  0  0
 49 48  1  0  0  0  0
 49 42  1  0  0  0  0
 52 51  1  0  0  0  0
 52 50  1  0  0  0  0
 53 55  1  0  0  0  0
 54 55  1  0  0  0  0
M  END
>  <MODEL>
3

>  <REMARK>
 VINA RESULT:      -7.1      2.629      9.684
  Name = 
  8 active torsions:
  status: ('A' for Active; 'I' for Inactive)
    1  A    between atoms: C_6  and  C_25
    2  A    between atoms: C_8  and  C_20
    3  A    between atoms: C_8  and  N_22
    4  A    between atoms: C_12  and  C_30
    5  A    between atoms: N_22  and  C_43
    6  A    between atoms: C_25  and  C_38
    7  A    between atoms: C_30  and  O_50
    8  A    between atoms: C_33  and  C_52
                            x       y       z     vdW  Elec       q    Type
                         _______ _______ _______ _____ _____    ______ ____

>  <TORSDO>
F 8

$$$$
=
 OpenBabel11052419283D

 55 60  0  0  1  0  0  0  0  0999 V2000
  187.6310  176.5980  141.7220 C   0  0  0  0  0  2  0  0  0  0  0  0
  190.0760  172.6900  141.9960 O   0  0  0  0  0  1  0  0  0  0  0  0
  192.9550  175.0080  142.4530 C   0  0  0  0  0  2  0  0  0  0  0  0
  193.1320  175.0820  145.3450 C   0  0  0  0  0  3  0  0  0  0  0  0
  193.1720  174.9840  146.7350 C   0  0  0  0  0  3  0  0  0  0  0  0
  191.1910  176.5390  145.4890 C   0  0  0  0  0  0  0  0  0  0  0  0
  191.2620  176.4490  146.8860 C   0  0  0  0  0  3  0  0  0  0  0  0
  191.7850  177.1850  142.5640 C   0  0  0  0  0  1  0  0  0  0  0  0
  192.2430  175.6760  147.5060 C   0  0  0  0  0  3  0  0  0  0  0  0
  186.9220  176.8690  139.3410 C   0  0  0  0  0  3  0  0  0  0  0  0
  192.1610  175.8660  144.6950 C   0  0  0  0  0  0  0  0  0  0  0  0
  188.0210  174.3880  138.6450 C   0  0  0  0  0  0  0  0  0  0  0  0
  187.5950  175.4970  142.7750 C   0  0  0  0  0  2  0  0  0  0  0  0
  188.0400  174.8220  139.9730 C   0  0  0  0  0  3  0  0  0  0  0  0
  188.7430  176.6430  144.7060 C   0  0  1  0  0  3  0  0  0  0  0  0
  190.9350  174.1690  140.2750 C   0  0  0  0  0  2  0  0  0  0  0  0
  190.0850  177.3740  144.9080 C   0  0  0  0  0  2  0  0  0  0  0  0
  190.8530  173.8280  141.7640 C   0  0  2  0  0  3  0  0  0  0  0  0
  192.2260  173.6690  142.3900 C   0  0  0  0  0  2  0  0  0  0  0  0
  186.8900  176.4350  138.0110 C   0  0  0  0  0  3  0  0  0  0  0  0
  190.9090  172.9380  139.3680 C   0  0  1  0  0  3  0  0  0  0  0  0
  187.4890  176.0600  140.3320 C   0  0  0  0  0  0  0  0  0  0  0  0
  192.2120  175.9790  143.2560 N   0  0  0  0  0  0  0  0  0  0  0  0
  188.8470  175.5530  143.6390 C   0  0  0  0  0  2  0  0  0  0  0  0
  190.1520  173.2070  138.0680 C   0  0  0  0  0  2  0  0  0  0  0  0
  188.6430  173.0810  138.2720 C   0  0  0  0  0  2  0  0  0  0  0  0
  187.4430  175.1980  137.6630 C   0  0  0  0  0  3  0  0  0  0  0  0
  186.5960  179.0510  148.0010 C   0  0  0  0  0  0  0  0  0  0  0  0
  186.4920  176.0480  145.7630 C   0  0  0  0  0  2  0  0  0  0  0  0
  185.3100  179.6590  148.0130 N   0  0  0  0  0  1  0  0  0  0  0  0
  186.8350  177.8790  147.2120 N   0  0  0  0  0  0  0  0  0  0  0  0
  188.5680  174.9120  146.5510 C   0  0  0  0  0  1  0  0  0  0  0  0
  188.1440  177.2740  147.0710 C   0  0  0  0  0  2  0  0  0  0  0  0
  187.5210  179.5530  148.6880 O   0  0  0  0  0  0  0  0  0  0  0  0
  185.8150  177.2440  146.4100 C   0  0  0  0  0  2  0  0  0  0  0  0
  187.9970  176.2070  145.9970 C   0  0  1  0  0  0  0  0  0  0  0  0
  192.2540  172.4120  139.1240 N   0  0  0  0  0  2  0  0  0  0  0  0
  193.0050  173.3000  138.2410 C   0  0  0  0  0  2  0  0  0  0  0  0
  197.9130  172.5570  140.3490 C   0  0  0  0  0  1  0  0  0  0  0  0
  195.7860  175.7000  140.5350 C   0  0  0  0  0  2  0  0  0  0  0  0
  197.0490  174.9260  140.8410 C   0  0  2  0  0  0  0  0  0  0  0  0
  194.9730  172.5050  139.5340 C   0  0  0  0  0  2  0  0  0  0  0  0
  196.6500  174.5690  138.3660 C   0  0  1  0  0  3  0  0  0  0  0  0
  196.8830  175.6040  139.4750 C   0  0  1  0  0  3  0  0  0  0  0  0
  194.2980  173.7210  138.9110 C   0  0  1  0  0  3  0  0  0  0  0  0
  195.2980  171.5960  141.8230 C   0  0  0  0  0  1  0  0  0  0  0  0
  195.2000  174.4310  137.8980 C   0  0  0  0  0  2  0  0  0  0  0  0
  196.8540  173.4020  141.0510 C   0  0  1  0  0  3  0  0  0  0  0  0
  195.4240  172.8320  140.9550 C   0  0  1  0  0  3  0  0  0  0  0  0
  197.9360  175.6710  141.8300 C   0  0  0  0  0  2  0  0  0  0  0  0
  196.6730  175.7860  143.9110 N   0  0  0  0  0  1  0  0  0  0  0  0
  197.7850  175.1340  143.2430 C   0  0  0  0  0  2  0  0  0  0  0  0
  197.5450  174.9000  137.1860 C   0  0  0  0  0  2  0  0  0  0  0  0
  197.1530  176.4050  135.6200 C   0  0  0  0  0  1  0  0  0  0  0  0
  196.7700  175.1340  136.0490 O   0  0  0  0  0  0  0  0  0  0  0  0
  1 13  1  0  0  0  0
  3 23  1  0  0  0  0
  4  5  1  0  0  0  0
  5  9  2  0  0  0  0
  6  7  2  0  0  0  0
  7  9  1  0  0  0  0
  8 23  1  0  0  0  0
 10 22  1  0  0  0  0
 11  4  2  0  0  0  0
 11  6  1  0  0  0  0
 12 14  1  0  0  0  0
 13 24  1  0  0  0  0
 14 22  2  0  0  0  0
 15 24  1  6  0  0  0
 15 17  1  0  0  0  0
 15 36  1  0  0  0  0
 16 18  1  0  0  0  0
 17  6  1  0  0  0  0
 18  2  1  6  0  0  0
 18 19  1  0  0  0  0
 19  3  1  0  0  0  0
 20 10  2  0  0  0  0
 21 37  1  6  0  0  0
 21 16  1  0  0  0  0
 22  1  1  0  0  0  0
 23 11  1  0  0  0  0
 25 26  1  0  0  0  0
 25 21  1  0  0  0  0
 26 12  1  0  0  0  0
 27 20  1  0  0  0  0
 27 12  2  0  0  0  0
 28 30  1  0  0  0  0
 28 34  2  0  0  0  0
 29 36  1  0  0  0  0
 29 35  1  0  0  0  0
 31 28  1  0  0  0  0
 33 31  1  0  0  0  0
 35 31  1  0  0  0  0
 36 32  1  1  0  0  0
 36 33  1  0  0  0  0
 38 37  1  0  0  0  0
 40 41  1  0  0  0  0
 41 48  1  0  0  0  0
 41 50  1  1  0  0  0
 42 49  1  0  0  0  0
 43 53  1  6  0  0  0
 43 44  1  0  0  0  0
 44 40  1  1  0  0  0
 44 41  1  0  0  0  0
 45 38  1  6  0  0  0
 45 42  1  0  0  0  0
 47 43  1  0  0  0  0
 47 45  1  0  0  0  0
 48 39  1  6  0  0  0
 49 48  1  0  0  0  0
 49 46  1  1  0  0  0
 50 52  1  0  0  0  0
 52 51  1  0  0  0  0
 54 55  1  0  0  0  0
 55 53  1  0  0  0  0
M  END
>  <MODEL>
4

>  <REMARK>
 VINA RESULT:      -6.9      2.544      8.992
  Name = 
  8 active torsions:
  status: ('A' for Active; 'I' for Inactive)
    1  A    between atoms: C_6  and  C_25
    2  A    between atoms: C_8  and  C_20
    3  A    between atoms: C_8  and  N_22
    4  A    between atoms: C_12  and  C_30
    5  A    between atoms: N_22  and  C_43
    6  A    between atoms: C_25  and  C_38
    7  A    between atoms: C_30  and  O_50
    8  A    between atoms: C_33  and  C_52
                            x       y       z     vdW  Elec       q    Type
                         _______ _______ _______ _____ _____    ______ ____

>  <TORSDO>
F 8

$$$$
=
 OpenBabel11052419283D

 55 60  0  0  1  0  0  0  0  0999 V2000
  194.9430  170.1760  141.7160 C   0  0  0  0  0  2  0  0  0  0  0  0
  193.6300  174.5980  141.9300 O   0  0  0  0  0  1  0  0  0  0  0  0
  197.1320  175.2630  140.8520 C   0  0  0  0  0  2  0  0  0  0  0  0
  196.7740  175.5080  137.9860 C   0  0  0  0  0  3  0  0  0  0  0  0
  196.4750  175.6790  136.6350 C   0  0  0  0  0  3  0  0  0  0  0  0
  196.5440  173.0990  137.7450 C   0  0  0  0  0  0  0  0  0  0  0  0
  196.2710  173.2880  136.3840 C   0  0  0  0  0  3  0  0  0  0  0  0
  197.9410  172.9590  140.4580 C   0  0  0  0  0  1  0  0  0  0  0  0
  196.2330  174.5680  135.8310 C   0  0  0  0  0  3  0  0  0  0  0  0
  195.1130  169.3340  144.0620 C   0  0  0  0  0  3  0  0  0  0  0  0
  196.8320  174.2260  138.5650 C   0  0  0  0  0  0  0  0  0  0  0  0
  194.1400  171.7520  145.0890 C   0  0  0  0  0  0  0  0  0  0  0  0
  193.9210  170.9310  140.8760 C   0  0  0  0  0  2  0  0  0  0  0  0
  194.2280  171.5540  143.7080 C   0  0  0  0  0  3  0  0  0  0  0  0
  195.1610  171.1480  138.6910 C   0  0  1  0  0  3  0  0  0  0  0  0
  195.5910  174.1760  143.2950 C   0  0  0  0  0  2  0  0  0  0  0  0
  196.5390  171.6860  138.2590 C   0  0  0  0  0  2  0  0  0  0  0  0
  195.0160  174.4210  141.8990 C   0  0  2  0  0  3  0  0  0  0  0  0
  195.6840  175.5920  141.2030 C   0  0  0  0  0  2  0  0  0  0  0  0
  195.0160  169.5210  145.4460 C   0  0  0  0  0  3  0  0  0  0  0  0
  194.8360  174.9160  144.4010 C   0  0  1  0  0  3  0  0  0  0  0  0
  194.7100  170.3470  143.1850 C   0  0  0  0  0  0  0  0  0  0  0  0
  197.2100  174.1110  139.9540 N   0  0  0  0  0  0  0  0  0  0  0  0
  194.6240  171.8830  139.9190 C   0  0  0  0  0  2  0  0  0  0  0  0
  194.7760  174.0980  145.6910 C   0  0  0  0  0  2  0  0  0  0  0  0
  193.6570  173.0580  145.6320 C   0  0  0  0  0  2  0  0  0  0  0  0
  194.5350  170.7310  145.9580 C   0  0  0  0  0  3  0  0  0  0  0  0
  190.6390  170.2470  138.7750 C   0  0  0  0  0  0  0  0  0  0  0  0
  193.3910  172.2460  137.2060 C   0  0  0  0  0  2  0  0  0  0  0  0
  189.5290  171.1040  139.0160 N   0  0  0  0  0  1  0  0  0  0  0  0
  191.8370  170.7630  138.1840 N   0  0  0  0  0  0  0  0  0  0  0  0
  194.7660  170.3670  136.3100 C   0  0  0  0  0  1  0  0  0  0  0  0
  193.0380  169.9720  138.0100 C   0  0  0  0  0  2  0  0  0  0  0  0
  190.5580  169.0320  139.0870 O   0  0  0  0  0  0  0  0  0  0  0  0
  191.9930  172.1450  137.7900 C   0  0  0  0  0  2  0  0  0  0  0  0
  194.1170  170.9450  137.5590 C   0  0  1  0  0  0  0  0  0  0  0  0
  195.3760  176.2580  144.6240 N   0  0  0  0  0  2  0  0  0  0  0  0
  194.3520  177.1450  145.1700 C   0  0  0  0  0  2  0  0  0  0  0  0
  189.1170  176.3710  146.2130 C   0  0  0  0  0  1  0  0  0  0  0  0
  191.3130  174.3520  143.8600 C   0  0  0  0  0  2  0  0  0  0  0  0
  189.9830  174.6470  144.5160 C   0  0  2  0  0  0  0  0  0  0  0  0
  192.1510  176.7020  146.2360 C   0  0  0  0  0  2  0  0  0  0  0  0
  190.8020  176.8880  143.6700 C   0  0  1  0  0  3  0  0  0  0  0  0
  190.4200  175.4520  143.2860 C   0  0  1  0  0  3  0  0  0  0  0  0
  192.9790  176.5340  144.9680 C   0  0  1  0  0  3  0  0  0  0  0  0
  191.3810  175.2440  148.0950 C   0  0  0  0  0  1  0  0  0  0  0  0
  192.3060  177.1640  143.7460 C   0  0  0  0  0  2  0  0  0  0  0  0
  190.0690  175.2070  145.9600 C   0  0  1  0  0  3  0  0  0  0  0  0
  191.4670  175.3820  146.5880 C   0  0  1  0  0  3  0  0  0  0  0  0
  188.9650  173.5470  144.2410 C   0  0  0  0  0  2  0  0  0  0  0  0
  189.2610  171.8580  142.5080 N   0  0  0  0  0  1  0  0  0  0  0  0
  189.6350  172.2380  143.8590 C   0  0  0  0  0  2  0  0  0  0  0  0
  190.1490  177.8510  142.6950 C   0  0  0  0  0  2  0  0  0  0  0  0
  188.0420  178.1120  142.0920 C   0  0  0  0  0  1  0  0  0  0  0  0
  189.1060  177.2140  142.0190 O   0  0  0  0  0  0  0  0  0  0  0  0
  1 22  1  0  0  0  0
  3 19  1  0  0  0  0
  4 11  1  0  0  0  0
  5  4  2  0  0  0  0
  6 17  1  0  0  0  0
  6 11  2  0  0  0  0
  7  6  1  0  0  0  0
  9  7  2  0  0  0  0
  9  5  1  0  0  0  0
 10 20  1  0  0  0  0
 11 23  1  0  0  0  0
 12 26  1  0  0  0  0
 12 27  1  0  0  0  0
 13  1  1  0  0  0  0
 14 12  2  0  0  0  0
 15 17  1  6  0  0  0
 15 24  1  0  0  0  0
 16 21  1  0  0  0  0
 18  2  1  1  0  0  0
 18 16  1  0  0  0  0
 19 18  1  0  0  0  0
 20 27  2  0  0  0  0
 21 37  1  1  0  0  0
 21 25  1  0  0  0  0
 22 14  1  0  0  0  0
 22 10  2  0  0  0  0
 23  8  1  0  0  0  0
 23  3  1  0  0  0  0
 24 13  1  0  0  0  0
 26 25  1  0  0  0  0
 28 30  1  0  0  0  0
 28 34  2  0  0  0  0
 29 36  1  0  0  0  0
 29 35  1  0  0  0  0
 31 28  1  0  0  0  0
 33 31  1  0  0  0  0
 35 31  1  0  0  0  0
 36 32  1  6  0  0  0
 36 33  1  0  0  0  0
 36 15  1  0  0  0  0
 37 38  1  0  0  0  0
 40 41  1  0  0  0  0
 41 50  1  6  0  0  0
 41 48  1  0  0  0  0
 42 49  1  0  0  0  0
 43 53  1  6  0  0  0
 43 47  1  0  0  0  0
 44 43  1  0  0  0  0
 44 40  1  1  0  0  0
 44 41  1  0  0  0  0
 45 38  1  1  0  0  0
 45 42  1  0  0  0  0
 47 45  1  0  0  0  0
 48 39  1  6  0  0  0
 48 49  1  0  0  0  0
 49 46  1  1  0  0  0
 51 52  1  0  0  0  0
 52 50  1  0  0  0  0
 55 54  1  0  0  0  0
 55 53  1  0  0  0  0
M  END
>  <MODEL>
5

>  <REMARK>
 VINA RESULT:      -6.6      2.364      6.350
  Name = 
  8 active torsions:
  status: ('A' for Active; 'I' for Inactive)
    1  A    between atoms: C_6  and  C_25
    2  A    between atoms: C_8  and  C_20
    3  A    between atoms: C_8  and  N_22
    4  A    between atoms: C_12  and  C_30
    5  A    between atoms: N_22  and  C_43
    6  A    between atoms: C_25  and  C_38
    7  A    between atoms: C_30  and  O_50
    8  A    between atoms: C_33  and  C_52
                            x       y       z     vdW  Elec       q    Type
                         _______ _______ _______ _____ _____    ______ ____

>  <TORSDO>
F 8

$$$$
=
 OpenBabel11052419283D

 55 60  0  0  1  0  0  0  0  0999 V2000
  195.1610  174.6280  142.8840 C   0  0  0  0  0  2  0  0  0  0  0  0
  191.6730  172.1830  144.6650 O   0  0  0  0  0  1  0  0  0  0  0  0
  189.8480  173.3540  141.6370 C   0  0  0  0  0  2  0  0  0  0  0  0
  190.2520  171.0990  139.8610 C   0  0  0  0  0  3  0  0  0  0  0  0
  190.4450  169.9340  139.1210 C   0  0  0  0  0  3  0  0  0  0  0  0
  192.5540  171.7630  139.4400 C   0  0  0  0  0  0  0  0  0  0  0  0
  192.7210  170.5990  138.6790 C   0  0  0  0  0  3  0  0  0  0  0  0
  191.6630  174.5150  140.4220 C   0  0  0  0  0  1  0  0  0  0  0  0
  191.6770  169.6880  138.5210 C   0  0  0  0  0  3  0  0  0  0  0  0
  195.4580  176.6550  144.3140 C   0  0  0  0  0  3  0  0  0  0  0  0
  191.2850  172.0410  140.0230 C   0  0  0  0  0  0  0  0  0  0  0  0
  193.5000  175.7750  146.1130 C   0  0  0  0  0  0  0  0  0  0  0  0
  195.0330  173.1250  143.0970 C   0  0  0  0  0  2  0  0  0  0  0  0
  193.8740  174.9760  145.0290 C   0  0  0  0  0  3  0  0  0  0  0  0
  194.7070  172.3300  140.7270 C   0  0  1  0  0  3  0  0  0  0  0  0
  191.0360  174.4870  144.2510 C   0  0  0  0  0  2  0  0  0  0  0  0
  193.7410  172.6740  139.5760 C   0  0  0  0  0  2  0  0  0  0  0  0
  191.2800  173.0900  143.6780 C   0  0  2  0  0  3  0  0  0  0  0  0
  190.0740  172.5630  142.9220 C   0  0  0  0  0  2  0  0  0  0  0  0
  195.0960  177.4550  145.4050 C   0  0  0  0  0  3  0  0  0  0  0  0
  190.4870  174.4690  145.6790 C   0  0  1  0  0  3  0  0  0  0  0  0
  194.8550  175.4070  144.1260 C   0  0  0  0  0  0  0  0  0  0  0  0
  191.0040  173.2600  140.7460 N   0  0  0  0  0  0  0  0  0  0  0  0
  194.0540  172.5310  142.0950 C   0  0  0  0  0  2  0  0  0  0  0  0
  191.0320  175.6310  146.5100 C   0  0  0  0  0  2  0  0  0  0  0  0
  192.4270  175.3170  147.0490 C   0  0  0  0  0  2  0  0  0  0  0  0
  194.1140  177.0160  146.3000 C   0  0  0  0  0  3  0  0  0  0  0  0
  196.8810  169.6760  143.8090 C   0  0  0  0  0  0  0  0  0  0  0  0
  194.6140  169.7750  140.8280 C   0  0  0  0  0  2  0  0  0  0  0  0
  196.3690  168.7350  144.7440 N   0  0  0  0  0  1  0  0  0  0  0  0
  196.1960  169.9170  142.5740 N   0  0  0  0  0  0  0  0  0  0  0  0
  196.1520  170.8950  139.2150 C   0  0  0  0  0  1  0  0  0  0  0  0
  196.6030  170.9360  141.6280 C   0  0  0  0  0  2  0  0  0  0  0  0
  197.9410  170.2970  144.0770 O   0  0  0  0  0  0  0  0  0  0  0  0
  194.9810  169.2310  142.1970 C   0  0  0  0  0  2  0  0  0  0  0  0
  195.4990  171.0020  140.5840 C   0  0  1  0  0  0  0  0  0  0  0  0
  189.0240  174.4140  145.7000 N   0  0  0  0  0  2  0  0  0  0  0  0
  188.4680  175.6340  146.2800 C   0  0  0  0  0  2  0  0  0  0  0  0
  186.1310  179.9610  144.0650 C   0  0  0  0  0  1  0  0  0  0  0  0
  185.7800  176.3430  142.9590 C   0  0  0  0  0  2  0  0  0  0  0  0
  185.4700  177.8160  142.8150 C   0  0  2  0  0  0  0  0  0  0  0  0
  187.1340  177.6820  145.8300 C   0  0  0  0  0  2  0  0  0  0  0  0
  187.9870  177.7010  143.0530 C   0  0  1  0  0  3  0  0  0  0  0  0
  186.7720  177.2510  142.2330 C   0  0  1  0  0  3  0  0  0  0  0  0
  187.6790  176.3920  145.2300 C   0  0  1  0  0  3  0  0  0  0  0  0
  184.9260  178.5240  146.5990 C   0  0  0  0  0  1  0  0  0  0  0  0
  188.5590  176.6470  144.0040 C   0  0  0  0  0  2  0  0  0  0  0  0
  185.4210  178.6140  144.1440 C   0  0  1  0  0  3  0  0  0  0  0  0
  185.6620  177.8460  145.4600 C   0  0  1  0  0  3  0  0  0  0  0  0
  184.3590  178.0580  141.8010 C   0  0  0  0  0  2  0  0  0  0  0  0
  181.9540  178.3070  141.4940 N   0  0  0  0  0  1  0  0  0  0  0  0
  183.0240  178.3240  142.4760 C   0  0  0  0  0  2  0  0  0  0  0  0
  189.0710  178.1860  142.1070 C   0  0  0  0  0  2  0  0  0  0  0  0
  191.1780  178.1790  142.7630 C   0  0  0  0  0  1  0  0  0  0  0  0
  190.0130  178.9430  142.8050 O   0  0  0  0  0  0  0  0  0  0  0  0
  1 13  1  0  0  0  0
  1 22  1  0  0  0  0
  3 19  1  0  0  0  0
  4 11  1  0  0  0  0
  5  4  2  0  0  0  0
  6 17  1  0  0  0  0
  6 11  2  0  0  0  0
  7  6  1  0  0  0  0
  8 23  1  0  0  0  0
  9  7  2  0  0  0  0
  9  5  1  0  0  0  0
 10 20  1  0  0  0  0
 11 23  1  0  0  0  0
 12 27  1  0  0  0  0
 12 26  1  0  0  0  0
 14 12  2  0  0  0  0
 15 17  1  6  0  0  0
 15 24  1  0  0  0  0
 16 21  1  0  0  0  0
 18 16  1  0  0  0  0
 18  2  1  1  0  0  0
 19 18  1  0  0  0  0
 20 27  2  0  0  0  0
 21 37  1  6  0  0  0
 21 25  1  0  0  0  0
 22 10  2  0  0  0  0
 22 14  1  0  0  0  0
 23  3  1  0  0  0  0
 24 13  1  0  0  0  0
 25 26  1  0  0  0  0
 28 34  2  0  0  0  0
 28 30  1  0  0  0  0
 29 35  1  0  0  0  0
 31 28  1  0  0  0  0
 33 31  1  0  0  0  0
 35 31  1  0  0  0  0
 36 32  1  6  0  0  0
 36 15  1  0  0  0  0
 36 29  1  0  0  0  0
 36 33  1  0  0  0  0
 37 38  1  0  0  0  0
 41 50  1  6  0  0  0
 41 40  1  0  0  0  0
 41 48  1  0  0  0  0
 43 53  1  6  0  0  0
 43 47  1  0  0  0  0
 44 41  1  0  0  0  0
 44 40  1  1  0  0  0
 44 43  1  0  0  0  0
 45 42  1  0  0  0  0
 45 38  1  1  0  0  0
 47 45  1  0  0  0  0
 48 39  1  6  0  0  0
 48 49  1  0  0  0  0
 49 42  1  0  0  0  0
 49 46  1  1  0  0  0
 50 52  1  0  0  0  0
 51 52  1  0  0  0  0
 53 55  1  0  0  0  0
 54 55  1  0  0  0  0
M  END
>  <MODEL>
6

>  <REMARK>
 VINA RESULT:      -6.5      2.776      6.544
  Name = 
  8 active torsions:
  status: ('A' for Active; 'I' for Inactive)
    1  A    between atoms: C_6  and  C_25
    2  A    between atoms: C_8  and  C_20
    3  A    between atoms: C_8  and  N_22
    4  A    between atoms: C_12  and  C_30
    5  A    between atoms: N_22  and  C_43
    6  A    between atoms: C_25  and  C_38
    7  A    between atoms: C_30  and  O_50
    8  A    between atoms: C_33  and  C_52
                            x       y       z     vdW  Elec       q    Type
                         _______ _______ _______ _____ _____    ______ ____

>  <TORSDO>
F 8

$$$$
=
 OpenBabel11052419283D

 55 60  0  0  1  0  0  0  0  0999 V2000
  195.4210  174.1000  141.9140 C   0  0  0  0  0  2  0  0  0  0  0  0
  192.3510  171.5570  144.2440 O   0  0  0  0  0  1  0  0  0  0  0  0
  190.0410  172.5810  141.5070 C   0  0  0  0  0  2  0  0  0  0  0  0
  190.2730  170.3040  139.7290 C   0  0  0  0  0  3  0  0  0  0  0  0
  190.4030  169.1300  138.9880 C   0  0  0  0  0  3  0  0  0  0  0  0
  192.4530  171.0510  138.9530 C   0  0  0  0  0  0  0  0  0  0  0  0
  192.5550  169.8770  138.1950 C   0  0  0  0  0  3  0  0  0  0  0  0
  191.6000  173.7860  140.0120 C   0  0  0  0  0  1  0  0  0  0  0  0
  191.5400  168.9210  138.2130 C   0  0  0  0  0  3  0  0  0  0  0  0
  195.8400  176.1710  143.2480 C   0  0  0  0  0  3  0  0  0  0  0  0
  191.2760  171.2900  139.7170 C   0  0  0  0  0  0  0  0  0  0  0  0
  194.2150  175.2540  145.3370 C   0  0  0  0  0  0  0  0  0  0  0  0
  195.3920  172.5990  142.1690 C   0  0  0  0  0  2  0  0  0  0  0  0
  194.4560  174.4460  144.2220 C   0  0  0  0  0  3  0  0  0  0  0  0
  194.7480  171.7350  139.8900 C   0  0  1  0  0  3  0  0  0  0  0  0
  191.5580  173.8230  143.8910 C   0  0  0  0  0  2  0  0  0  0  0  0
  193.6060  172.0130  138.8930 C   0  0  0  0  0  2  0  0  0  0  0  0
  191.7740  172.4240  143.3120 C   0  0  2  0  0  3  0  0  0  0  0  0
  190.4930  171.8300  142.7560 C   0  0  0  0  0  2  0  0  0  0  0  0
  195.6110  176.9800  144.3670 C   0  0  0  0  0  3  0  0  0  0  0  0
  191.2320  173.8160  145.3860 C   0  0  1  0  0  3  0  0  0  0  0  0
  195.2710  174.8950  143.1740 C   0  0  0  0  0  0  0  0  0  0  0  0
  191.0540  172.5130  140.4530 N   0  0  0  0  0  0  0  0  0  0  0  0
  194.3010  171.9420  141.3370 C   0  0  0  0  0  2  0  0  0  0  0  0
  191.8430  175.0190  146.1050 C   0  0  0  0  0  2  0  0  0  0  0  0
  193.3160  174.7750  146.4320 C   0  0  0  0  0  2  0  0  0  0  0  0
  194.7960  176.5230  145.4070 C   0  0  0  0  0  3  0  0  0  0  0  0
  196.7240  169.9710  136.1140 C   0  0  0  0  0  0  0  0  0  0  0  0
  197.0750  170.6780  139.7770 C   0  0  0  0  0  2  0  0  0  0  0  0
  197.9410  170.3120  135.4620 N   0  0  0  0  0  1  0  0  0  0  0  0
  196.5840  170.1530  137.5280 N   0  0  0  0  0  0  0  0  0  0  0  0
  195.1460  169.3360  140.6120 C   0  0  0  0  0  1  0  0  0  0  0  0
  195.3400  169.9280  138.2360 C   0  0  0  0  0  2  0  0  0  0  0  0
  195.7700  169.5100  135.4370 O   0  0  0  0  0  0  0  0  0  0  0  0
  197.6430  170.6650  138.3680 C   0  0  0  0  0  2  0  0  0  0  0  0
  195.5680  170.4370  139.6510 C   0  0  1  0  0  0  0  0  0  0  0  0
  189.7920  173.7030  145.6290 N   0  0  0  0  0  2  0  0  0  0  0  0
  189.2990  174.8570  146.3760 C   0  0  0  0  0  2  0  0  0  0  0  0
  186.3760  179.1900  145.0440 C   0  0  0  0  0  1  0  0  0  0  0  0
  186.4490  175.8330  143.2650 C   0  0  0  0  0  2  0  0  0  0  0  0
  185.9530  177.2550  143.4080 C   0  0  2  0  0  0  0  0  0  0  0  0
  187.7080  176.7650  146.3340 C   0  0  0  0  0  2  0  0  0  0  0  0
  188.4710  177.4210  143.6090 C   0  0  1  0  0  3  0  0  0  0  0  0
  187.2980  176.9830  142.7230 C   0  0  1  0  0  3  0  0  0  0  0  0
  188.3920  175.6930  145.4940 C   0  0  1  0  0  3  0  0  0  0  0  0
  185.4350  177.1540  147.2600 C   0  0  0  0  0  1  0  0  0  0  0  0
  189.1970  176.2870  144.3360 C   0  0  0  0  0  2  0  0  0  0  0  0
  185.8430  177.7720  144.8660 C   0  0  1  0  0  3  0  0  0  0  0  0
  186.2160  176.8060  146.0090 C   0  0  1  0  0  3  0  0  0  0  0  0
  184.7910  177.5410  142.4640 C   0  0  0  0  0  2  0  0  0  0  0  0
  184.6620  178.2610  140.1400 N   0  0  0  0  0  1  0  0  0  0  0  0
  185.1300  178.6320  141.4630 C   0  0  0  0  0  2  0  0  0  0  0  0
  189.4580  178.2110  142.7690 C   0  0  0  0  0  2  0  0  0  0  0  0
  191.5880  177.8400  143.2090 C   0  0  0  0  0  1  0  0  0  0  0  0
  190.5150  178.6570  143.5640 O   0  0  0  0  0  0  0  0  0  0  0  0
  1 13  1  0  0  0  0
  1 22  1  0  0  0  0
  3 19  1  0  0  0  0
  5  4  2  0  0  0  0
  6 11  2  0  0  0  0
  7  9  2  0  0  0  0
  7  6  1  0  0  0  0
  8 23  1  0  0  0  0
  9  5  1  0  0  0  0
 10 20  1  0  0  0  0
 11  4  1  0  0  0  0
 11 23  1  0  0  0  0
 12 27  1  0  0  0  0
 12 26  1  0  0  0  0
 14 12  2  0  0  0  0
 15 17  1  6  0  0  0
 15 24  1  0  0  0  0
 16 21  1  0  0  0  0
 17  6  1  0  0  0  0
 18 16  1  0  0  0  0
 18  2  1  1  0  0  0
 19 18  1  0  0  0  0
 20 27  2  0  0  0  0
 21 37  1  6  0  0  0
 21 25  1  0  0  0  0
 22 10  2  0  0  0  0
 22 14  1  0  0  0  0
 23  3  1  0  0  0  0
 24 13  1  0  0  0  0
 25 26  1  0  0  0  0
 28 31  1  0  0  0  0
 30 28  1  0  0  0  0
 31 33  1  0  0  0  0
 31 35  1  0  0  0  0
 33 36  1  0  0  0  0
 34 28  2  0  0  0  0
 35 29  1  0  0  0  0
 36 29  1  0  0  0  0
 36 15  1  0  0  0  0
 36 32  1  1  0  0  0
 37 38  1  0  0  0  0
 40 41  1  0  0  0  0
 41 50  1  6  0  0  0
 41 48  1  0  0  0  0
 43 53  1  6  0  0  0
 43 47  1  0  0  0  0
 44 40  1  1  0  0  0
 44 41  1  0  0  0  0
 44 43  1  0  0  0  0
 45 42  1  0  0  0  0
 45 38  1  1  0  0  0
 47 45  1  0  0  0  0
 48 39  1  6  0  0  0
 48 49  1  0  0  0  0
 49 42  1  0  0  0  0
 49 46  1  1  0  0  0
 51 52  1  0  0  0  0
 52 50  1  0  0  0  0
 53 55  1  0  0  0  0
 54 55  1  0  0  0  0
M  END
>  <MODEL>
7

>  <REMARK>
 VINA RESULT:      -6.5      2.522      5.983
  Name = 
  8 active torsions:
  status: ('A' for Active; 'I' for Inactive)
    1  A    between atoms: C_6  and  C_25
    2  A    between atoms: C_8  and  C_20
    3  A    between atoms: C_8  and  N_22
    4  A    between atoms: C_12  and  C_30
    5  A    between atoms: N_22  and  C_43
    6  A    between atoms: C_25  and  C_38
    7  A    between atoms: C_30  and  O_50
    8  A    between atoms: C_33  and  C_52
                            x       y       z     vdW  Elec       q    Type
                         _______ _______ _______ _____ _____    ______ ____

>  <TORSDO>
F 8

$$$$
=
 OpenBabel11052419283D

 55 60  0  0  1  0  0  0  0  0999 V2000
  187.7020  176.4030  141.7390 C   0  0  0  0  0  2  0  0  0  0  0  0
  190.4470  172.7240  142.2420 O   0  0  0  0  0  1  0  0  0  0  0  0
  193.1190  175.2870  142.6510 C   0  0  0  0  0  2  0  0  0  0  0  0
  193.2190  175.5020  145.5390 C   0  0  0  0  0  3  0  0  0  0  0  0
  193.2330  175.4700  146.9330 C   0  0  0  0  0  3  0  0  0  0  0  0
  191.1630  176.8010  145.5770 C   0  0  0  0  0  0  0  0  0  0  0  0
  191.2080  176.7790  146.9770 C   0  0  0  0  0  3  0  0  0  0  0  0
  191.7750  177.3630  142.6380 C   0  0  0  0  0  1  0  0  0  0  0  0
  192.2320  176.1170  147.6520 C   0  0  0  0  0  3  0  0  0  0  0  0
  187.0320  176.5100  139.3340 C   0  0  0  0  0  3  0  0  0  0  0  0
  192.2040  176.1750  144.8350 C   0  0  0  0  0  0  0  0  0  0  0  0
  188.3430  174.1000  138.7750 C   0  0  0  0  0  0  0  0  0  0  0  0
  187.7300  175.3510  142.8400 C   0  0  0  0  0  2  0  0  0  0  0  0
  188.2950  174.5910  140.0820 C   0  0  0  0  0  3  0  0  0  0  0  0
  188.7350  176.6700  144.7390 C   0  0  1  0  0  3  0  0  0  0  0  0
  191.2260  174.1910  140.4730 C   0  0  0  0  0  2  0  0  0  0  0  0
  190.0080  177.5170  144.9350 C   0  0  0  0  0  2  0  0  0  0  0  0
  191.1360  173.9100  141.9730 C   0  0  2  0  0  3  0  0  0  0  0  0
  192.5010  173.8910  142.6350 C   0  0  0  0  0  2  0  0  0  0  0  0
  187.0670  176.0170  138.0240 C   0  0  0  0  0  3  0  0  0  0  0  0
  191.3200  172.9220  139.6230 C   0  0  1  0  0  3  0  0  0  0  0  0
  187.6380  175.7950  140.3720 C   0  0  0  0  0  0  0  0  0  0  0  0
  192.2800  176.2280  143.3930 N   0  0  0  0  0  0  0  0  0  0  0  0
  188.9520  175.5460  143.7260 C   0  0  0  0  0  2  0  0  0  0  0  0
  190.5760  173.0720  138.2960 C   0  0  0  0  0  2  0  0  0  0  0  0
  189.0780  172.8320  138.4750 C   0  0  0  0  0  2  0  0  0  0  0  0
  187.7260  174.8160  137.7450 C   0  0  0  0  0  3  0  0  0  0  0  0
  186.5240  179.0670  148.0010 C   0  0  0  0  0  0  0  0  0  0  0  0
  186.4950  176.0370  145.7980 C   0  0  0  0  0  2  0  0  0  0  0  0
  185.2250  179.6460  148.0030 N   0  0  0  0  0  1  0  0  0  0  0  0
  186.7930  177.8920  147.2260 N   0  0  0  0  0  0  0  0  0  0  0  0
  188.5940  174.9570  146.6040 C   0  0  0  0  0  1  0  0  0  0  0  0
  188.1160  177.3150  147.0950 C   0  0  0  0  0  2  0  0  0  0  0  0
  187.4370  179.5970  148.6850 O   0  0  0  0  0  0  0  0  0  0  0  0
  185.7900  177.2250  146.4290 C   0  0  0  0  0  2  0  0  0  0  0  0
  187.9950  176.2330  146.0330 C   0  0  1  0  0  0  0  0  0  0  0  0
  192.7090  172.4980  139.4310 N   0  0  0  0  0  2  0  0  0  0  0  0
  192.9690  171.2420  140.1310 C   0  0  0  0  0  2  0  0  0  0  0  0
  197.8000  169.7530  142.0090 C   0  0  0  0  0  1  0  0  0  0  0  0
  195.5930  172.5560  143.3160 C   0  0  0  0  0  2  0  0  0  0  0  0
  196.8600  171.7310  143.3520 C   0  0  2  0  0  0  0  0  0  0  0  0
  194.8990  170.0110  141.0990 C   0  0  0  0  0  2  0  0  0  0  0  0
  196.5750  172.3780  140.9220 C   0  0  1  0  0  3  0  0  0  0  0  0
  196.7360  172.8920  142.3580 C   0  0  1  0  0  3  0  0  0  0  0  0
  194.2220  171.3710  140.9740 C   0  0  1  0  0  3  0  0  0  0  0  0
  195.1480  168.2740  142.8580 C   0  0  0  0  0  1  0  0  0  0  0  0
  195.1490  172.4280  140.3670 C   0  0  0  0  0  2  0  0  0  0  0  0
  196.6930  170.2460  142.9340 C   0  0  1  0  0  3  0  0  0  0  0  0
  195.2820  169.7540  142.5540 C   0  0  1  0  0  3  0  0  0  0  0  0
  197.6880  172.0290  144.5960 C   0  0  0  0  0  2  0  0  0  0  0  0
  197.1230  173.4250  146.5120 N   0  0  0  0  0  1  0  0  0  0  0  0
  196.8180  172.1790  145.8330 C   0  0  0  0  0  2  0  0  0  0  0  0
  197.5110  173.1520  140.0110 C   0  0  0  0  0  2  0  0  0  0  0  0
  197.9410  175.3160  139.9990 C   0  0  0  0  0  1  0  0  0  0  0  0
  196.9490  174.3880  139.6870 O   0  0  0  0  0  0  0  0  0  0  0  0
  1 13  1  0  0  0  0
  3 23  1  0  0  0  0
  4  5  1  0  0  0  0
  5  9  2  0  0  0  0
  6  7  2  0  0  0  0
  7  9  1  0  0  0  0
  8 23  1  0  0  0  0
 10 22  1  0  0  0  0
 11  4  2  0  0  0  0
 11  6  1  0  0  0  0
 12 14  1  0  0  0  0
 13 24  1  0  0  0  0
 14 22  2  0  0  0  0
 15 24  1  1  0  0  0
 15 17  1  0  0  0  0
 15 36  1  0  0  0  0
 16 18  1  0  0  0  0
 17  6  1  0  0  0  0
 18  2  1  6  0  0  0
 18 19  1  0  0  0  0
 19  3  1  0  0  0  0
 20 10  2  0  0  0  0
 21 37  1  6  0  0  0
 21 16  1  0  0  0  0
 22  1  1  0  0  0  0
 23 11  1  0  0  0  0
 25 26  1  0  0  0  0
 25 21  1  0  0  0  0
 26 12  1  0  0  0  0
 27 20  1  0  0  0  0
 27 12  2  0  0  0  0
 28 30  1  0  0  0  0
 28 34  2  0  0  0  0
 29 36  1  0  0  0  0
 29 35  1  0  0  0  0
 31 28  1  0  0  0  0
 33 31  1  0  0  0  0
 35 31  1  0  0  0  0
 36 32  1  1  0  0  0
 36 33  1  0  0  0  0
 37 38  1  0  0  0  0
 40 41  1  0  0  0  0
 41 50  1  1  0  0  0
 42 49  1  0  0  0  0
 43 53  1  6  0  0  0
 43 44  1  0  0  0  0
 44 40  1  1  0  0  0
 44 41  1  0  0  0  0
 45 38  1  6  0  0  0
 45 42  1  0  0  0  0
 47 43  1  0  0  0  0
 47 45  1  0  0  0  0
 48 39  1  6  0  0  0
 48 41  1  0  0  0  0
 49 46  1  6  0  0  0
 49 48  1  0  0  0  0
 50 52  1  0  0  0  0
 52 51  1  0  0  0  0
 55 54  1  0  0  0  0
 55 53  1  0  0  0  0
M  END
>  <MODEL>
8

>  <REMARK>
 VINA RESULT:      -6.4      2.395      8.932
  Name = 
  8 active torsions:
  status: ('A' for Active; 'I' for Inactive)
    1  A    between atoms: C_6  and  C_25
    2  A    between atoms: C_8  and  C_20
    3  A    between atoms: C_8  and  N_22
    4  A    between atoms: C_12  and  C_30
    5  A    between atoms: N_22  and  C_43
    6  A    between atoms: C_25  and  C_38
    7  A    between atoms: C_30  and  O_50
    8  A    between atoms: C_33  and  C_52
                            x       y       z     vdW  Elec       q    Type
                         _______ _______ _______ _____ _____    ______ ____

>  <TORSDO>
F 8

$$$$
=
 OpenBabel11052419283D

 55 60  0  0  1  0  0  0  0  0999 V2000
  196.2850  173.6100  140.7550 C   0  0  0  0  0  2  0  0  0  0  0  0
  193.4690  171.4670  143.7200 O   0  0  0  0  0  1  0  0  0  0  0  0
  190.8450  172.3520  141.2290 C   0  0  0  0  0  2  0  0  0  0  0  0
  190.7350  169.9080  139.6740 C   0  0  0  0  0  3  0  0  0  0  0  0
  190.7130  168.6640  139.0440 C   0  0  0  0  0  3  0  0  0  0  0  0
  192.8140  170.4610  138.5420 C   0  0  0  0  0  0  0  0  0  0  0  0
  192.7630  169.2170  137.8990 C   0  0  0  0  0  3  0  0  0  0  0  0
  192.2280  173.3250  139.4250 C   0  0  0  0  0  1  0  0  0  0  0  0
  191.7220  168.3230  138.1490 C   0  0  0  0  0  3  0  0  0  0  0  0
  196.9690  175.7720  141.8060 C   0  0  0  0  0  3  0  0  0  0  0  0
  191.7660  170.8340  139.4280 C   0  0  0  0  0  0  0  0  0  0  0  0
  195.6150  175.1440  144.1760 C   0  0  0  0  0  0  0  0  0  0  0  0
  196.2320  172.1440  141.1620 C   0  0  0  0  0  2  0  0  0  0  0  0
  195.6660  174.2230  143.1260 C   0  0  0  0  0  3  0  0  0  0  0  0
  195.2430  171.1050  139.0880 C   0  0  1  0  0  3  0  0  0  0  0  0
  192.7270  173.7280  143.2510 C   0  0  0  0  0  2  0  0  0  0  0  0
  193.9860  171.3490  138.2300 C   0  0  0  0  0  2  0  0  0  0  0  0
  192.8040  172.2720  142.7920 C   0  0  2  0  0  3  0  0  0  0  0  0
  191.4350  171.6980  142.4760 C   0  0  0  0  0  2  0  0  0  0  0  0
  196.9310  176.6940  142.8590 C   0  0  0  0  0  3  0  0  0  0  0  0
  192.6120  173.8800  144.7690 C   0  0  1  0  0  3  0  0  0  0  0  0
  196.3440  174.5270  141.9380 C   0  0  0  0  0  0  0  0  0  0  0  0
  191.6970  172.1310  140.0620 N   0  0  0  0  0  0  0  0  0  0  0  0
  195.0100  171.4710  140.5540 C   0  0  0  0  0  2  0  0  0  0  0  0
  193.3650  175.1110  145.2750 C   0  0  0  0  0  2  0  0  0  0  0  0
  194.8580  174.8190  145.4240 C   0  0  0  0  0  2  0  0  0  0  0  0
  196.2500  176.3820  144.0400 C   0  0  0  0  0  3  0  0  0  0  0  0
  196.7720  168.9790  135.2910 C   0  0  0  0  0  0  0  0  0  0  0  0
  197.4920  169.9090  138.8480 C   0  0  0  0  0  2  0  0  0  0  0  0
  197.9410  169.2040  134.5130 N   0  0  0  0  0  1  0  0  0  0  0  0
  196.7710  169.2630  136.6950 N   0  0  0  0  0  0  0  0  0  0  0  0
  195.5790  168.7410  139.9430 C   0  0  0  0  0  1  0  0  0  0  0  0
  195.5870  169.1590  137.5230 C   0  0  0  0  0  2  0  0  0  0  0  0
  195.7380  168.5310  134.7350 O   0  0  0  0  0  0  0  0  0  0  0  0
  197.9270  169.7680  137.4010 C   0  0  0  0  0  2  0  0  0  0  0  0
  195.9690  169.7490  138.8730 C   0  0  1  0  0  0  0  0  0  0  0  0
  191.2160  173.8670  145.2130 N   0  0  0  0  0  2  0  0  0  0  0  0
  190.9000  175.0800  145.9630 C   0  0  0  0  0  2  0  0  0  0  0  0
  186.3540  175.4920  143.0900 C   0  0  0  0  0  1  0  0  0  0  0  0
  188.6050  178.3270  144.2450 C   0  0  0  0  0  2  0  0  0  0  0  0
  187.3760  177.8070  143.5330 C   0  0  2  0  0  0  0  0  0  0  0  0
  189.1270  174.9210  144.2290 C   0  0  0  0  0  2  0  0  0  0  0  0
  187.3710  176.6380  145.7790 C   0  0  1  0  0  3  0  0  0  0  0  0
  187.3540  177.9910  145.0560 C   0  0  1  0  0  3  0  0  0  0  0  0
  189.7440  175.8070  145.3040 C   0  0  1  0  0  3  0  0  0  0  0  0
  189.1270  174.8310  141.7450 C   0  0  0  0  0  1  0  0  0  0  0  0
  188.7240  176.2290  146.3650 C   0  0  0  0  0  2  0  0  0  0  0  0
  187.5410  176.4210  142.8580 C   0  0  1  0  0  3  0  0  0  0  0  0
  188.9160  175.7280  142.9490 C   0  0  1  0  0  3  0  0  0  0  0  0
  186.6830  178.9060  142.7380 C   0  0  0  0  0  2  0  0  0  0  0  0
  184.3420  178.2910  143.0310 N   0  0  0  0  0  1  0  0  0  0  0  0
  185.3460  179.2910  143.3490 C   0  0  0  0  0  2  0  0  0  0  0  0
  186.3160  176.6480  146.8710 C   0  0  0  0  0  2  0  0  0  0  0  0
  184.5420  177.9600  146.8630 C   0  0  0  0  0  1  0  0  0  0  0  0
  185.0460  176.7840  146.3090 O   0  0  0  0  0  0  0  0  0  0  0  0
  1 13  1  0  0  0  0
  1 22  1  0  0  0  0
  3 19  1  0  0  0  0
  5  4  2  0  0  0  0
  6 11  2  0  0  0  0
  7  9  2  0  0  0  0
  7  6  1  0  0  0  0
  8 23  1  0  0  0  0
  9  5  1  0  0  0  0
 10 22  2  0  0  0  0
 10 20  1  0  0  0  0
 11  4  1  0  0  0  0
 11 23  1  0  0  0  0
 12 26  1  0  0  0  0
 14 12  2  0  0  0  0
 15 17  1  6  0  0  0
 15 24  1  0  0  0  0
 16 21  1  0  0  0  0
 17  6  1  0  0  0  0
 18 16  1  0  0  0  0
 18  2  1  1  0  0  0
 19 18  1  0  0  0  0
 20 27  2  0  0  0  0
 21 37  1  6  0  0  0
 21 25  1  0  0  0  0
 22 14  1  0  0  0  0
 23  3  1  0  0  0  0
 24 13  1  0  0  0  0
 25 26  1  0  0  0  0
 27 12  1  0  0  0  0
 28 31  1  0  0  0  0
 29 36  1  0  0  0  0
 30 28  1  0  0  0  0
 31 35  1  0  0  0  0
 31 33  1  0  0  0  0
 33 36  1  0  0  0  0
 34 28  2  0  0  0  0
 35 29  1  0  0  0  0
 36 15  1  0  0  0  0
 36 32  1  1  0  0  0
 37 38  1  0  0  0  0
 41 50  1  6  0  0  0
 41 40  1  0  0  0  0
 41 44  1  0  0  0  0
 42 45  1  0  0  0  0
 43 47  1  0  0  0  0
 43 53  1  1  0  0  0
 44 40  1  1  0  0  0
 44 43  1  0  0  0  0
 45 38  1  1  0  0  0
 45 47  1  0  0  0  0
 48 49  1  0  0  0  0
 48 39  1  1  0  0  0
 48 41  1  0  0  0  0
 49 46  1  6  0  0  0
 49 42  1  0  0  0  0
 50 52  1  0  0  0  0
 51 52  1  0  0  0  0
 55 54  1  0  0  0  0
 55 53  1  0  0  0  0
M  END
>  <MODEL>
9

>  <REMARK>
 VINA RESULT:      -6.3      2.620      5.642
  Name = 
  8 active torsions:
  status: ('A' for Active; 'I' for Inactive)
    1  A    between atoms: C_6  and  C_25
    2  A    between atoms: C_8  and  C_20
    3  A    between atoms: C_8  and  N_22
    4  A    between atoms: C_12  and  C_30
    5  A    between atoms: N_22  and  C_43
    6  A    between atoms: C_25  and  C_38
    7  A    between atoms: C_30  and  O_50
    8  A    between atoms: C_33  and  C_52
                            x       y       z     vdW  Elec       q    Type
                         _______ _______ _______ _____ _____    ______ ____

>  <TORSDO>
F 8

$$$$
