=
 OpenBabel11052418043D

 28 31  0  0  1  0  0  0  0  0999 V2000
  186.0600  178.9680  143.8120 C   0  0  1  0  0  3  0  0  0  0  0  0
  185.0890  178.6110  148.0130 C   0  0  0  0  0  1  0  0  0  0  0  0
  189.0010  176.7730  145.1350 C   0  0  1  0  0  3  0  0  0  0  0  0
  186.8450  178.2750  146.1410 C   0  0  2  0  0  3  0  0  0  0  0  0
  188.1400  177.5360  144.1090 C   0  0  0  0  0  2  0  0  0  0  0  0
  184.5180  178.8840  145.6950 O   0  0  0  0  0  0  0  0  0  0  0  0
  187.2770  177.0620  146.9860 C   0  0  0  0  0  2  0  0  0  0  0  0
  185.5660  179.0090  146.6240 C   0  0  1  0  0  3  0  0  0  0  0  0
  188.1710  176.0730  146.2200 C   0  0  0  0  0  2  0  0  0  0  0  0
  184.9020  179.6420  144.5730 C   0  0  0  0  0  2  0  0  0  0  0  0
  186.7560  177.8920  144.6560 C   0  0  2  0  0  3  0  0  0  0  0  0
  189.2710  174.8290  143.6200 C   0  0  0  0  0  2  0  0  0  0  0  0
  192.3230  175.3260  143.7250 C   0  0  0  0  0  2  0  0  0  0  0  0
  191.0450  173.9280  142.0620 C   0  0  1  0  0  3  0  0  0  0  0  0
  189.9030  175.8330  144.4710 N   0  0  0  0  0  0  0  0  0  0  0  0
  191.7780  176.4130  145.7550 O   0  0  0  0  0  0  0  0  0  0  0  0
  191.9780  173.9170  143.2740 C   0  0  0  0  0  2  0  0  0  0  0  0
  191.3290  175.8580  144.7170 C   0  0  0  0  0  0  0  0  0  0  0  0
  190.5950  172.6320  141.8140 O   0  0  0  0  0  1  0  0  0  0  0  0
  189.8480  174.8700  142.2110 C   0  0  0  0  0  2  0  0  0  0  0  0
  185.6040  178.4240  142.4860 C   0  0  0  0  0  0  0  0  0  0  0  0
  184.1650  177.9900  142.3710 C   0  0  0  0  0  2  0  0  0  0  0  0
  185.9120  177.8390  140.1410 C   0  0  0  0  0  0  0  0  0  0  0  0
  183.6080  178.2910  140.9790 C   0  0  0  0  0  2  0  0  0  0  0  0
  187.7570  178.6070  141.5470 F   0  0  0  0  0  0  0  0  0  0  0  0
  186.4420  178.2890  141.4380 C   0  0  0  0  0  0  0  0  0  0  0  0
  186.6910  177.5410  139.1980 O   0  0  0  0  0  0  0  0  0  0  0  0
  184.4970  177.7410  139.9610 N   0  0  0  0  0  2  0  0  0  0  0  0
  1 21  1  6  0  0  0
  1 10  1  0  0  0  0
  1 11  1  0  0  0  0
  3  5  1  6  0  0  0
  3  9  1  0  0  0  0
  4  8  1  0  0  0  0
  4  7  1  1  0  0  0
  6  8  1  0  0  0  0
  8  2  1  1  0  0  0
  9  7  1  0  0  0  0
 10  6  1  0  0  0  0
 11  5  1  6  0  0  0
 11  4  1  0  0  0  0
 12 15  1  0  0  0  0
 13 18  1  0  0  0  0
 14 19  1  1  0  0  0
 14 20  1  0  0  0  0
 14 17  1  0  0  0  0
 15 18  1  0  0  0  0
 15  3  1  0  0  0  0
 17 13  1  0  0  0  0
 18 16  2  0  0  0  0
 20 12  1  0  0  0  0
 22 21  1  0  0  0  0
 23 26  1  0  0  0  0
 24 22  1  0  0  0  0
 26 25  1  0  0  0  0
 26 21  2  0  0  0  0
 27 23  2  0  0  0  0
 28 23  1  0  0  0  0
 28 24  1  0  0  0  0
M  END
>  <MODEL>
1

>  <REMARK>
 VINA RESULT:      -8.5      0.000      0.000
  Name = 
  2 active torsions:
  status: ('A' for Active; 'I' for Inactive)
    1  A    between atoms: C_1  and  C_2
    2  A    between atoms: C_10  and  N_13
                            x       y       z     vdW  Elec       q    Type
                         _______ _______ _______ _____ _____    ______ ____

>  <TORSDO>
F 2

$$$$
=
 OpenBabel11052418043D

 28 31  0  0  1  0  0  0  0  0999 V2000
  190.7780  173.5970  143.7740 C   0  0  1  0  0  3  0  0  0  0  0  0
  193.6630  175.4050  146.4430 C   0  0  0  0  0  1  0  0  0  0  0  0
  188.6240  176.3070  145.5730 C   0  0  1  0  0  3  0  0  0  0  0  0
  191.1780  175.1430  145.7670 C   0  0  2  0  0  3  0  0  0  0  0  0
  188.9500  175.1680  144.5880 C   0  0  0  0  0  2  0  0  0  0  0  0
  193.0270  174.2660  144.4260 O   0  0  0  0  0  0  0  0  0  0  0  0
  191.0630  176.6070  146.2340 C   0  0  0  0  0  2  0  0  0  0  0  0
  192.6140  174.5580  145.7390 C   0  0  1  0  0  3  0  0  0  0  0  0
  189.7780  177.3010  145.7540 C   0  0  0  0  0  2  0  0  0  0  0  0
  192.2410  173.1770  144.0060 C   0  0  0  0  0  2  0  0  0  0  0  0
  190.4570  174.9490  144.4250 C   0  0  2  0  0  3  0  0  0  0  0  0
  187.2740  177.3770  143.7900 C   0  0  0  0  0  2  0  0  0  0  0  0
  184.9430  177.5360  145.8190 C   0  0  0  0  0  2  0  0  0  0  0  0
  184.8260  177.7860  143.3140 C   0  0  1  0  0  3  0  0  0  0  0  0
  187.3900  176.9930  145.1940 N   0  0  0  0  0  0  0  0  0  0  0  0
  186.6990  177.3980  147.3990 O   0  0  0  0  0  0  0  0  0  0  0  0
  184.7740  178.5060  144.6610 C   0  0  0  0  0  2  0  0  0  0  0  0
  186.3870  177.3380  146.1800 C   0  0  0  0  0  0  0  0  0  0  0  0
  184.8740  178.7280  142.2870 O   0  0  0  0  0  1  0  0  0  0  0  0
  186.0000  176.8120  143.1760 C   0  0  0  0  0  2  0  0  0  0  0  0
  190.4270  173.5870  142.3120 C   0  0  0  0  0  0  0  0  0  0  0  0
  191.3700  174.2870  141.3670 C   0  0  0  0  0  2  0  0  0  0  0  0
  189.0620  172.9540  140.3950 C   0  0  0  0  0  0  0  0  0  0  0  0
  191.4530  173.5540  140.0270 C   0  0  0  0  0  2  0  0  0  0  0  0
  188.4040  172.4410  142.6920 F   0  0  0  0  0  0  0  0  0  0  0  0
  189.3000  173.0120  141.8470 C   0  0  0  0  0  0  0  0  0  0  0  0
  187.9480  172.5800  139.9420 O   0  0  0  0  0  0  0  0  0  0  0  0
  190.1110  173.3310  139.5010 N   0  0  0  0  0  2  0  0  0  0  0  0
  1 21  1  6  0  0  0
  1 10  1  0  0  0  0
  1 11  1  0  0  0  0
  3  5  1  6  0  0  0
  3  9  1  0  0  0  0
  4  7  1  6  0  0  0
  6  8  1  0  0  0  0
  8  4  1  0  0  0  0
  8  2  1  6  0  0  0
  9  7  1  0  0  0  0
 10  6  1  0  0  0  0
 11  5  1  1  0  0  0
 11  4  1  0  0  0  0
 12 15  1  0  0  0  0
 13 18  1  0  0  0  0
 14 19  1  6  0  0  0
 14 17  1  0  0  0  0
 15  3  1  0  0  0  0
 15 18  1  0  0  0  0
 17 13  1  0  0  0  0
 18 16  2  0  0  0  0
 20 14  1  0  0  0  0
 20 12  1  0  0  0  0
 22 21  1  0  0  0  0
 23 26  1  0  0  0  0
 24 22  1  0  0  0  0
 26 21  2  0  0  0  0
 26 25  1  0  0  0  0
 27 23  2  0  0  0  0
 28 24  1  0  0  0  0
 28 23  1  0  0  0  0
M  END
>  <MODEL>
2

>  <REMARK>
 VINA RESULT:      -8.1      2.553      6.608
  Name = 
  2 active torsions:
  status: ('A' for Active; 'I' for Inactive)
    1  A    between atoms: C_1  and  C_2
    2  A    between atoms: C_10  and  N_13
                            x       y       z     vdW  Elec       q    Type
                         _______ _______ _______ _____ _____    ______ ____

>  <TORSDO>
F 2

$$$$
=
 OpenBabel11052418043D

 28 31  0  0  1  0  0  0  0  0999 V2000
  191.2690  175.6180  143.3050 C   0  0  1  0  0  3  0  0  0  0  0  0
  189.8100  172.4370  140.7600 C   0  0  0  0  0  1  0  0  0  0  0  0
  187.5340  176.6300  142.8090 C   0  0  1  0  0  3  0  0  0  0  0  0
  189.3870  174.7700  141.8000 C   0  0  2  0  0  3  0  0  0  0  0  0
  188.9760  176.7190  143.3440 C   0  0  0  0  0  2  0  0  0  0  0  0
  191.2610  173.3370  142.4510 O   0  0  0  0  0  0  0  0  0  0  0  0
  187.9130  174.3230  141.8030 C   0  0  0  0  0  2  0  0  0  0  0  0
  190.4160  173.6870  141.3820 C   0  0  1  0  0  3  0  0  0  0  0  0
  187.0150  175.1910  142.7000 C   0  0  0  0  0  2  0  0  0  0  0  0
  192.0750  174.4610  142.6850 C   0  0  0  0  0  2  0  0  0  0  0  0
  189.7550  175.4170  143.1440 C   0  0  2  0  0  3  0  0  0  0  0  0
  186.2980  176.9640  144.9320 C   0  0  0  0  0  2  0  0  0  0  0  0
  185.5580  179.7910  143.9160 C   0  0  0  0  0  2  0  0  0  0  0  0
  185.4160  178.9140  146.2750 C   0  0  1  0  0  3  0  0  0  0  0  0
  186.6270  177.4610  143.5990 N   0  0  0  0  0  0  0  0  0  0  0  0
  185.9770  178.8180  141.8000 O   0  0  0  0  0  0  0  0  0  0  0  0
  184.6330  179.3100  145.0220 C   0  0  0  0  0  2  0  0  0  0  0  0
  186.0320  178.6610  143.0490 C   0  0  0  0  0  0  0  0  0  0  0  0
  184.5570  178.2910  147.1790 O   0  0  0  0  0  1  0  0  0  0  0  0
  186.6170  178.0060  145.9950 C   0  0  0  0  0  2  0  0  0  0  0  0
  191.6480  175.8450  144.7420 C   0  0  0  0  0  0  0  0  0  0  0  0
  190.6330  175.4770  145.7950 C   0  0  0  0  0  2  0  0  0  0  0  0
  193.1790  176.4960  146.5230 C   0  0  0  0  0  0  0  0  0  0  0  0
  191.3140  174.9280  147.0490 C   0  0  0  0  0  2  0  0  0  0  0  0
  193.7250  176.7910  144.1590 F   0  0  0  0  0  0  0  0  0  0  0  0
  192.8300  176.3880  145.0970 C   0  0  0  0  0  0  0  0  0  0  0  0
  194.1920  177.1490  146.8880 O   0  0  0  0  0  0  0  0  0  0  0  0
  192.3510  175.8520  147.4940 N   0  0  0  0  0  2  0  0  0  0  0  0
  1 21  1  1  0  0  0
  3  9  1  1  0  0  0
  3  5  1  0  0  0  0
  3 15  1  0  0  0  0
  4  7  1  1  0  0  0
  4 11  1  0  0  0  0
  6 10  1  0  0  0  0
  7  9  1  0  0  0  0
  8  2  1  1  0  0  0
  8  4  1  0  0  0  0
  8  6  1  0  0  0  0
 10  1  1  0  0  0  0
 11  1  1  0  0  0  0
 11  5  1  6  0  0  0
 12 20  1  0  0  0  0
 13 17  1  0  0  0  0
 14 19  1  1  0  0  0
 15 12  1  0  0  0  0
 16 18  2  0  0  0  0
 17 14  1  0  0  0  0
 18 15  1  0  0  0  0
 18 13  1  0  0  0  0
 20 14  1  0  0  0  0
 21 26  2  0  0  0  0
 21 22  1  0  0  0  0
 22 24  1  0  0  0  0
 23 27  2  0  0  0  0
 23 28  1  0  0  0  0
 24 28  1  0  0  0  0
 25 26  1  0  0  0  0
 26 23  1  0  0  0  0
M  END
>  <MODEL>
3

>  <REMARK>
 VINA RESULT:      -8.0      2.306      7.668
  Name = 
  2 active torsions:
  status: ('A' for Active; 'I' for Inactive)
    1  A    between atoms: C_1  and  C_2
    2  A    between atoms: C_10  and  N_13
                            x       y       z     vdW  Elec       q    Type
                         _______ _______ _______ _____ _____    ______ ____

>  <TORSDO>
F 2

$$$$
=
 OpenBabel11052418043D

 28 31  0  0  1  0  0  0  0  0999 V2000
  186.8970  178.2960  143.2110 C   0  0  1  0  0  3  0  0  0  0  0  0
  184.1030  178.2370  146.5140 C   0  0  0  0  0  1  0  0  0  0  0  0
  189.1330  177.0070  146.1360 C   0  0  1  0  0  3  0  0  0  0  0  0
  186.5670  178.0880  145.7350 C   0  0  2  0  0  3  0  0  0  0  0  0
  188.7660  177.4240  144.6990 C   0  0  0  0  0  2  0  0  0  0  0  0
  184.6740  178.0910  144.1850 O   0  0  0  0  0  0  0  0  0  0  0  0
  186.7150  177.1160  146.9210 C   0  0  0  0  0  2  0  0  0  0  0  0
  185.1220  178.5630  145.4320 C   0  0  1  0  0  3  0  0  0  0  0  0
  187.9980  176.2730  146.8620 C   0  0  0  0  0  2  0  0  0  0  0  0
  185.4330  178.7750  143.2160 C   0  0  0  0  0  2  0  0  0  0  0  0
  187.2540  177.5180  144.4850 C   0  0  2  0  0  3  0  0  0  0  0  0
  190.4360  175.1050  145.2240 C   0  0  0  0  0  2  0  0  0  0  0  0
  192.8520  176.1340  146.8600 C   0  0  0  0  0  2  0  0  0  0  0  0
  192.8720  174.4920  144.9480 C   0  0  1  0  0  3  0  0  0  0  0  0
  190.3680  176.2250  146.1590 N   0  0  0  0  0  0  0  0  0  0  0  0
  191.1610  177.1580  148.1590 O   0  0  0  0  0  0  0  0  0  0  0  0
  192.9990  174.6750  146.4610 C   0  0  0  0  0  2  0  0  0  0  0  0
  191.4200  176.5070  147.1130 C   0  0  0  0  0  0  0  0  0  0  0  0
  192.8060  173.1310  144.6510 O   0  0  0  0  0  1  0  0  0  0  0  0
  191.6680  175.2120  144.3360 C   0  0  0  0  0  2  0  0  0  0  0  0
  187.2140  177.5070  141.9710 C   0  0  0  0  0  0  0  0  0  0  0  0
  188.3250  176.4920  142.0590 C   0  0  0  0  0  2  0  0  0  0  0  0
  186.8570  176.8360  139.6550 C   0  0  0  0  0  0  0  0  0  0  0  0
  188.0190  175.2630  141.2020 C   0  0  0  0  0  2  0  0  0  0  0  0
  185.6110  178.6670  140.6900 F   0  0  0  0  0  0  0  0  0  0  0  0
  186.5650  177.7070  140.8060 C   0  0  0  0  0  0  0  0  0  0  0  0
  186.3970  177.1050  138.5140 O   0  0  0  0  0  0  0  0  0  0  0  0
  187.6740  175.6790  139.8460 N   0  0  0  0  0  2  0  0  0  0  0  0
  1 21  1  6  0  0  0
  1 10  1  0  0  0  0
  1 11  1  0  0  0  0
  3  5  1  6  0  0  0
  3 15  1  0  0  0  0
  3  9  1  0  0  0  0
  4  7  1  1  0  0  0
  6  8  1  0  0  0  0
  8  4  1  0  0  0  0
  8  2  1  1  0  0  0
  9  7  1  0  0  0  0
 10  6  1  0  0  0  0
 11  5  1  1  0  0  0
 11  4  1  0  0  0  0
 12 15  1  0  0  0  0
 13 18  1  0  0  0  0
 14 19  1  1  0  0  0
 14 17  1  0  0  0  0
 15 18  1  0  0  0  0
 17 13  1  0  0  0  0
 18 16  2  0  0  0  0
 20 14  1  0  0  0  0
 20 12  1  0  0  0  0
 21 22  1  0  0  0  0
 23 28  1  0  0  0  0
 23 26  1  0  0  0  0
 24 22  1  0  0  0  0
 25 26  1  0  0  0  0
 26 21  2  0  0  0  0
 27 23  2  0  0  0  0
 28 24  1  0  0  0  0
M  END
>  <MODEL>
4

>  <REMARK>
 VINA RESULT:      -7.9      1.846      2.442
  Name = 
  2 active torsions:
  status: ('A' for Active; 'I' for Inactive)
    1  A    between atoms: C_1  and  C_2
    2  A    between atoms: C_10  and  N_13
                            x       y       z     vdW  Elec       q    Type
                         _______ _______ _______ _____ _____    ______ ____

>  <TORSDO>
F 2

$$$$
=
 OpenBabel11052418043D

 28 31  0  0  1  0  0  0  0  0999 V2000
  188.8290  176.3650  143.4740 C   0  0  1  0  0  3  0  0  0  0  0  0
  187.1490  177.6050  147.2630 C   0  0  0  0  0  1  0  0  0  0  0  0
  191.9630  176.3260  145.7970 C   0  0  1  0  0  3  0  0  0  0  0  0
  189.2780  177.1630  145.8580 C   0  0  2  0  0  3  0  0  0  0  0  0
  191.1440  176.1460  144.5040 C   0  0  0  0  0  2  0  0  0  0  0  0
  187.0300  176.5580  145.1040 O   0  0  0  0  0  0  0  0  0  0  0  0
  189.8840  176.7340  147.2080 C   0  0  0  0  0  2  0  0  0  0  0  0
  187.7590  177.4810  145.8750 C   0  0  1  0  0  3  0  0  0  0  0  0
  191.1890  175.9340  147.0630 C   0  0  0  0  0  2  0  0  0  0  0  0
  187.3830  176.8070  143.7650 C   0  0  0  0  0  2  0  0  0  0  0  0
  189.6350  176.1480  144.7620 C   0  0  2  0  0  3  0  0  0  0  0  0
  193.1840  174.1720  145.9320 C   0  0  0  0  0  2  0  0  0  0  0  0
  195.6910  175.6690  144.9100 C   0  0  0  0  0  2  0  0  0  0  0  0
  195.3000  173.1800  144.9730 C   0  0  1  0  0  3  0  0  0  0  0  0
  193.2380  175.6150  145.7160 N   0  0  0  0  0  0  0  0  0  0  0  0
  194.5540  177.5560  145.7730 O   0  0  0  0  0  0  0  0  0  0  0  0
  196.0370  174.3620  145.6040 C   0  0  0  0  0  2  0  0  0  0  0  0
  194.4840  176.3250  145.5150 C   0  0  0  0  0  0  0  0  0  0  0  0
  195.4850  172.0460  145.7630 O   0  0  0  0  0  1  0  0  0  0  0  0
  193.8040  173.4230  144.7610 C   0  0  0  0  0  2  0  0  0  0  0  0
  188.8660  175.1520  142.5850 C   0  0  0  0  0  0  0  0  0  0  0  0
  189.3270  173.8550  143.2000 C   0  0  0  0  0  2  0  0  0  0  0  0
  188.5040  173.9680  140.4870 C   0  0  0  0  0  0  0  0  0  0  0  0
  188.5670  172.6660  142.6120 C   0  0  0  0  0  2  0  0  0  0  0  0
  188.1900  176.3830  140.6930 F   0  0  0  0  0  0  0  0  0  0  0  0
  188.5380  175.2080  141.2790 C   0  0  0  0  0  0  0  0  0  0  0  0
  188.3690  174.0090  139.2350 O   0  0  0  0  0  0  0  0  0  0  0  0
  188.6290  172.7100  141.1550 N   0  0  0  0  0  2  0  0  0  0  0  0
  1 21  1  1  0  0  0
  1 10  1  0  0  0  0
  1 11  1  0  0  0  0
  3  5  1  6  0  0  0
  3  9  1  0  0  0  0
  4  8  1  0  0  0  0
  4  7  1  1  0  0  0
  6  8  1  0  0  0  0
  8  2  1  1  0  0  0
  9  7  1  0  0  0  0
 10  6  1  0  0  0  0
 11  5  1  6  0  0  0
 11  4  1  0  0  0  0
 13 18  1  0  0  0  0
 13 17  1  0  0  0  0
 14 17  1  0  0  0  0
 14 19  1  1  0  0  0
 15  3  1  0  0  0  0
 15 12  1  0  0  0  0
 18 15  1  0  0  0  0
 18 16  2  0  0  0  0
 20 14  1  0  0  0  0
 20 12  1  0  0  0  0
 21 22  1  0  0  0  0
 23 28  1  0  0  0  0
 23 26  1  0  0  0  0
 24 22  1  0  0  0  0
 25 26  1  0  0  0  0
 26 21  2  0  0  0  0
 27 23  2  0  0  0  0
 28 24  1  0  0  0  0
M  END
>  <MODEL>
5

>  <REMARK>
 VINA RESULT:      -7.5      2.907      4.293
  Name = 
  2 active torsions:
  status: ('A' for Active; 'I' for Inactive)
    1  A    between atoms: C_1  and  C_2
    2  A    between atoms: C_10  and  N_13
                            x       y       z     vdW  Elec       q    Type
                         _______ _______ _______ _____ _____    ______ ____

>  <TORSDO>
F 2

$$$$
=
 OpenBabel11052418043D

 28 31  0  0  1  0  0  0  0  0999 V2000
  188.9790  177.3790  144.9120 C   0  0  1  0  0  3  0  0  0  0  0  0
  191.2880  175.4360  148.0120 C   0  0  0  0  0  1  0  0  0  0  0  0
  190.8450  174.6010  142.9060 C   0  0  1  0  0  3  0  0  0  0  0  0
  190.8550  175.7420  145.4780 C   0  0  2  0  0  3  0  0  0  0  0  0
  189.8860  175.7820  143.1520 C   0  0  0  0  0  2  0  0  0  0  0  0
  189.3910  176.6690  147.2050 O   0  0  0  0  0  0  0  0  0  0  0  0
  191.2650  174.2590  145.3930 C   0  0  0  0  0  2  0  0  0  0  0  0
  190.7220  176.3200  146.9110 C   0  0  1  0  0  3  0  0  0  0  0  0
  190.8740  173.5940  144.0640 C   0  0  0  0  0  2  0  0  0  0  0  0
  189.0940  177.7810  146.3950 C   0  0  0  0  0  2  0  0  0  0  0  0
  189.5950  176.0000  144.6390 C   0  0  2  0  0  3  0  0  0  0  0  0
  189.1530  173.5820  141.4080 C   0  0  0  0  0  2  0  0  0  0  0  0
  191.3510  173.4210  139.2370 C   0  0  0  0  0  2  0  0  0  0  0  0
  188.8580  173.2160  138.9250 C   0  0  1  0  0  3  0  0  0  0  0  0
  190.5500  173.9390  141.6370 N   0  0  0  0  0  0  0  0  0  0  0  0
  192.7940  173.5060  141.1100 O   0  0  0  0  0  0  0  0  0  0  0  0
  190.1950  172.4730  138.9650 C   0  0  0  0  0  2  0  0  0  0  0  0
  191.6040  173.5920  140.7070 C   0  0  0  0  0  0  0  0  0  0  0  0
  187.8160  172.2910  138.8800 O   0  0  0  0  0  1  0  0  0  0  0  0
  188.6470  174.1740  140.1000 C   0  0  0  0  0  2  0  0  0  0  0  0
  187.5570  177.4580  144.4290 C   0  0  0  0  0  0  0  0  0  0  0  0
  186.4990  176.7960  145.2750 C   0  0  0  0  0  2  0  0  0  0  0  0
  185.8040  178.1850  142.9000 C   0  0  0  0  0  0  0  0  0  0  0  0
  185.1920  177.5890  145.2420 C   0  0  0  0  0  2  0  0  0  0  0  0
  188.1730  178.5970  142.4600 F   0  0  0  0  0  0  0  0  0  0  0  0
  187.2240  178.0600  143.2700 C   0  0  0  0  0  0  0  0  0  0  0  0
  185.4720  178.5850  141.7540 O   0  0  0  0  0  0  0  0  0  0  0  0
  184.8010  177.8430  143.8600 N   0  0  0  0  0  2  0  0  0  0  0  0
  1 21  1  1  0  0  0
  1 10  1  0  0  0  0
  3 15  1  6  0  0  0
  3  5  1  0  0  0  0
  3  9  1  0  0  0  0
  4  7  1  1  0  0  0
  4  8  1  0  0  0  0
  8  6  1  0  0  0  0
  8  2  1  1  0  0  0
  9  7  1  0  0  0  0
 10  6  1  0  0  0  0
 11  5  1  6  0  0  0
 11  1  1  0  0  0  0
 11  4  1  0  0  0  0
 12 15  1  0  0  0  0
 13 18  1  0  0  0  0
 14 19  1  1  0  0  0
 14 17  1  0  0  0  0
 14 20  1  0  0  0  0
 17 13  1  0  0  0  0
 18 16  2  0  0  0  0
 18 15  1  0  0  0  0
 20 12  1  0  0  0  0
 21 22  1  0  0  0  0
 23 26  1  0  0  0  0
 23 28  1  0  0  0  0
 24 22  1  0  0  0  0
 25 26  1  0  0  0  0
 26 21  2  0  0  0  0
 27 23  2  0  0  0  0
 28 24  1  0  0  0  0
M  END
>  <MODEL>
6

>  <REMARK>
 VINA RESULT:      -7.4      2.321      4.177
  Name = 
  2 active torsions:
  status: ('A' for Active; 'I' for Inactive)
    1  A    between atoms: C_1  and  C_2
    2  A    between atoms: C_10  and  N_13
                            x       y       z     vdW  Elec       q    Type
                         _______ _______ _______ _____ _____    ______ ____

>  <TORSDO>
F 2

$$$$
=
 OpenBabel11052418043D

 28 31  0  0  1  0  0  0  0  0999 V2000
  187.8600  177.7350  143.8160 C   0  0  1  0  0  3  0  0  0  0  0  0
  186.4250  176.7940  147.7880 C   0  0  0  0  0  1  0  0  0  0  0  0
  191.1550  176.7270  145.6470 C   0  0  1  0  0  3  0  0  0  0  0  0
  188.4580  177.2510  146.2520 C   0  0  2  0  0  3  0  0  0  0  0  0
  190.2500  177.1710  144.4820 C   0  0  0  0  0  2  0  0  0  0  0  0
  186.1800  176.9690  145.4050 O   0  0  0  0  0  0  0  0  0  0  0  0
  189.1740  176.2400  147.1690 C   0  0  0  0  0  2  0  0  0  0  0  0
  186.9360  177.4230  146.5010 C   0  0  1  0  0  3  0  0  0  0  0  0
  190.4870  175.7050  146.5770 C   0  0  0  0  0  2  0  0  0  0  0  0
  186.4270  177.8800  144.3600 C   0  0  0  0  0  2  0  0  0  0  0  0
  188.7640  176.9500  144.7770 C   0  0  2  0  0  3  0  0  0  0  0  0
  192.3860  175.3080  144.0290 C   0  0  0  0  0  2  0  0  0  0  0  0
  195.0000  176.5740  145.0940 C   0  0  0  0  0  2  0  0  0  0  0  0
  194.6730  175.2810  142.9550 C   0  0  1  0  0  3  0  0  0  0  0  0
  192.4410  176.2340  145.1570 N   0  0  0  0  0  0  0  0  0  0  0  0
  193.6680  177.0030  147.0020 O   0  0  0  0  0  0  0  0  0  0  0  0
  195.2430  175.2570  144.3740 C   0  0  0  0  0  2  0  0  0  0  0  0
  193.6820  176.5880  145.8120 C   0  0  0  0  0  0  0  0  0  0  0  0
  194.7340  173.9990  142.4120 O   0  0  0  0  0  1  0  0  0  0  0  0
  193.2390  175.8100  142.8720 C   0  0  0  0  0  2  0  0  0  0  0  0
  187.8680  177.1390  142.4360 C   0  0  0  0  0  0  0  0  0  0  0  0
  188.7740  175.9580  142.1940 C   0  0  0  0  0  2  0  0  0  0  0  0
  187.1080  176.9590  140.1280 C   0  0  0  0  0  0  0  0  0  0  0  0
  188.1410  174.9680  141.2160 C   0  0  0  0  0  2  0  0  0  0  0  0
  186.3620  178.7520  141.6120 F   0  0  0  0  0  0  0  0  0  0  0  0
  187.1280  177.6450  141.4300 C   0  0  0  0  0  0  0  0  0  0  0  0
  186.5670  177.4980  139.1260 O   0  0  0  0  0  0  0  0  0  0  0  0
  187.7130  175.6690  140.0100 N   0  0  0  0  0  2  0  0  0  0  0  0
  1 21  1  6  0  0  0
  1 10  1  0  0  0  0
  1 11  1  0  0  0  0
  3  5  1  6  0  0  0
  3  9  1  0  0  0  0
  4  8  1  0  0  0  0
  4  7  1  1  0  0  0
  6  8  1  0  0  0  0
  8  2  1  1  0  0  0
  9  7  1  0  0  0  0
 10  6  1  0  0  0  0
 11  5  1  6  0  0  0
 11  4  1  0  0  0  0
 12 15  1  0  0  0  0
 13 18  1  0  0  0  0
 14 19  1  1  0  0  0
 14 17  1  0  0  0  0
 15  3  1  0  0  0  0
 15 18  1  0  0  0  0
 17 13  1  0  0  0  0
 18 16  2  0  0  0  0
 20 14  1  0  0  0  0
 20 12  1  0  0  0  0
 22 21  1  0  0  0  0
 23 26  1  0  0  0  0
 24 22  1  0  0  0  0
 26 25  1  0  0  0  0
 26 21  2  0  0  0  0
 27 23  2  0  0  0  0
 28 23  1  0  0  0  0
 28 24  1  0  0  0  0
M  END
>  <MODEL>
7

>  <REMARK>
 VINA RESULT:      -7.4      2.089      2.929
  Name = 
  2 active torsions:
  status: ('A' for Active; 'I' for Inactive)
    1  A    between atoms: C_1  and  C_2
    2  A    between atoms: C_10  and  N_13
                            x       y       z     vdW  Elec       q    Type
                         _______ _______ _______ _____ _____    ______ ____

>  <TORSDO>
F 2

$$$$
=
 OpenBabel11052418043D

 28 31  0  0  1  0  0  0  0  0999 V2000
  187.5770  176.1980  145.8340 C   0  0  1  0  0  3  0  0  0  0  0  0
  184.5520  178.4500  143.7140 C   0  0  0  0  0  1  0  0  0  0  0  0
  188.2560  175.1740  142.1320 C   0  0  1  0  0  3  0  0  0  0  0  0
  186.3350  176.5750  143.6350 C   0  0  2  0  0  3  0  0  0  0  0  0
  188.4610  175.2230  143.6580 C   0  0  0  0  0  2  0  0  0  0  0  0
  186.0760  178.0930  145.5360 O   0  0  0  0  0  0  0  0  0  0  0  0
  186.5220  177.0360  142.1760 C   0  0  0  0  0  2  0  0  0  0  0  0
  185.3830  177.4460  144.4970 C   0  0  1  0  0  3  0  0  0  0  0  0
  187.8200  176.5190  141.5360 C   0  0  0  0  0  2  0  0  0  0  0  0
  186.4640  177.0790  146.4330 C   0  0  0  0  0  2  0  0  0  0  0  0
  187.6980  176.3750  144.3150 C   0  0  2  0  0  3  0  0  0  0  0  0
  190.7300  175.0250  142.0480 C   0  0  0  0  0  2  0  0  0  0  0  0
  190.4050  172.9260  139.7980 C   0  0  0  0  0  2  0  0  0  0  0  0
  192.4580  173.3980  141.1810 C   0  0  1  0  0  3  0  0  0  0  0  0
  189.4460  174.6570  141.4570 N   0  0  0  0  0  0  0  0  0  0  0  0
  188.3020  173.9760  139.5260 O   0  0  0  0  0  0  0  0  0  0  0  0
  191.7900  173.5520  139.8140 C   0  0  0  0  0  2  0  0  0  0  0  0
  189.3450  173.8970  140.2290 C   0  0  0  0  0  0  0  0  0  0  0  0
  193.6270  174.1590  141.2120 O   0  0  0  0  0  1  0  0  0  0  0  0
  191.5590  173.7860  142.3580 C   0  0  0  0  0  2  0  0  0  0  0  0
  188.8920  176.4250  146.5260 C   0  0  0  0  0  0  0  0  0  0  0  0
  189.3810  177.8470  146.6380 C   0  0  0  0  0  2  0  0  0  0  0  0
  190.8700  175.7060  147.7540 C   0  0  0  0  0  0  0  0  0  0  0  0
  190.1200  178.0750  147.9570 C   0  0  0  0  0  2  0  0  0  0  0  0
  189.2480  174.1190  146.8480 F   0  0  0  0  0  0  0  0  0  0  0  0
  189.6380  175.4100  147.0040 C   0  0  0  0  0  0  0  0  0  0  0  0
  191.6710  174.7850  148.0630 O   0  0  0  0  0  0  0  0  0  0  0  0
  191.1500  177.0570  148.1290 N   0  0  0  0  0  2  0  0  0  0  0  0
  1 10  1  0  0  0  0
  1 21  1  1  0  0  0
  3 15  1  6  0  0  0
  3  5  1  0  0  0  0
  4  7  1  6  0  0  0
  4 11  1  0  0  0  0
  4  8  1  0  0  0  0
  6 10  1  0  0  0  0
  8  2  1  6  0  0  0
  8  6  1  0  0  0  0
  9  3  1  0  0  0  0
  9  7  1  0  0  0  0
 11  5  1  6  0  0  0
 11  1  1  0  0  0  0
 12 20  1  0  0  0  0
 13 17  1  0  0  0  0
 13 18  1  0  0  0  0
 14 19  1  6  0  0  0
 14 20  1  0  0  0  0
 15 12  1  0  0  0  0
 16 18  2  0  0  0  0
 17 14  1  0  0  0  0
 18 15  1  0  0  0  0
 21 22  1  0  0  0  0
 21 26  2  0  0  0  0
 22 24  1  0  0  0  0
 23 27  2  0  0  0  0
 23 28  1  0  0  0  0
 24 28  1  0  0  0  0
 25 26  1  0  0  0  0
 26 23  1  0  0  0  0
M  END
>  <MODEL>
8

>  <REMARK>
 VINA RESULT:      -7.4      2.654      5.559
  Name = 
  2 active torsions:
  status: ('A' for Active; 'I' for Inactive)
    1  A    between atoms: C_1  and  C_2
    2  A    between atoms: C_10  and  N_13
                            x       y       z     vdW  Elec       q    Type
                         _______ _______ _______ _____ _____    ______ ____

>  <TORSDO>
F 2

$$$$
=
 OpenBabel11052418043D

 28 31  0  0  1  0  0  0  0  0999 V2000
  185.5660  176.9040  144.2860 C   0  0  1  0  0  3  0  0  0  0  0  0
  185.8090  178.2930  140.1950 C   0  0  0  0  0  1  0  0  0  0  0  0
  189.1930  175.8640  143.2950 C   0  0  1  0  0  3  0  0  0  0  0  0
  186.8620  176.8710  142.0850 C   0  0  2  0  0  3  0  0  0  0  0  0
  187.9570  176.0400  144.1970 C   0  0  0  0  0  2  0  0  0  0  0  0
  184.9780  178.3890  142.4470 O   0  0  0  0  0  0  0  0  0  0  0  0
  188.1960  177.2830  141.4330 C   0  0  0  0  0  2  0  0  0  0  0  0
  185.5920  177.5470  141.5030 C   0  0  1  0  0  3  0  0  0  0  0  0
  189.4160  177.0410  142.3360 C   0  0  0  0  0  2  0  0  0  0  0  0
  184.4490  177.5410  143.4380 C   0  0  0  0  0  2  0  0  0  0  0  0
  186.9400  177.0220  143.6110 C   0  0  2  0  0  3  0  0  0  0  0  0
  190.8960  176.7110  144.8860 C   0  0  0  0  0  2  0  0  0  0  0  0
  191.9300  173.8050  145.1370 C   0  0  0  0  0  2  0  0  0  0  0  0
  192.4040  175.7480  146.6710 C   0  0  1  0  0  3  0  0  0  0  0  0
  190.3910  175.5960  144.0900 N   0  0  0  0  0  0  0  0  0  0  0  0
  190.8870  173.5650  143.0270 O   0  0  0  0  0  0  0  0  0  0  0  0
  192.9600  174.8290  145.5820 C   0  0  0  0  0  2  0  0  0  0  0  0
  191.0720  174.3200  144.0180 C   0  0  0  0  0  0  0  0  0  0  0  0
  193.3010  176.7910  146.8990 O   0  0  0  0  0  1  0  0  0  0  0  0
  191.0190  176.3200  146.3520 C   0  0  0  0  0  2  0  0  0  0  0  0
  185.5830  177.4610  145.6820 C   0  0  0  0  0  0  0  0  0  0  0  0
  185.2520  176.5180  146.8110 C   0  0  0  0  0  2  0  0  0  0  0  0
  185.9420  179.2210  147.3300 C   0  0  0  0  0  0  0  0  0  0  0  0
  186.0750  176.8400  148.0590 C   0  0  0  0  0  2  0  0  0  0  0  0
  186.0760  179.6380  144.9250 F   0  0  0  0  0  0  0  0  0  0  0  0
  185.8470  178.7590  145.9350 C   0  0  0  0  0  0  0  0  0  0  0  0
  186.0160  180.4490  147.5950 O   0  0  0  0  0  0  0  0  0  0  0  0
  185.9450  178.2560  148.3850 N   0  0  0  0  0  2  0  0  0  0  0  0
  1 21  1  1  0  0  0
  3  9  1  1  0  0  0
  3 15  1  0  0  0  0
  3  5  1  0  0  0  0
  4  7  1  6  0  0  0
  4 11  1  0  0  0  0
  6 10  1  0  0  0  0
  7  9  1  0  0  0  0
  8  2  1  6  0  0  0
  8  4  1  0  0  0  0
  8  6  1  0  0  0  0
 10  1  1  0  0  0  0
 11  5  1  1  0  0  0
 11  1  1  0  0  0  0
 12 20  1  0  0  0  0
 13 17  1  0  0  0  0
 14 19  1  6  0  0  0
 15 12  1  0  0  0  0
 16 18  2  0  0  0  0
 17 14  1  0  0  0  0
 18 15  1  0  0  0  0
 18 13  1  0  0  0  0
 20 14  1  0  0  0  0
 21 26  2  0  0  0  0
 21 22  1  0  0  0  0
 22 24  1  0  0  0  0
 23 27  2  0  0  0  0
 23 28  1  0  0  0  0
 24 28  1  0  0  0  0
 25 26  1  0  0  0  0
 26 23  1  0  0  0  0
M  END
>  <MODEL>
9

>  <REMARK>
 VINA RESULT:      -7.2      2.298      4.853
  Name = 
  2 active torsions:
  status: ('A' for Active; 'I' for Inactive)
    1  A    between atoms: C_1  and  C_2
    2  A    between atoms: C_10  and  N_13
                            x       y       z     vdW  Elec       q    Type
                         _______ _______ _______ _____ _____    ______ ____

>  <TORSDO>
F 2

$$$$
