=
 OpenBabel11052420303D

 34 41  0  0  1  0  0  0  0  0999 V2000
  195.2720  174.6940  143.2630 C   0  0  2  0  0  0  0  0  0  0  0  0
  191.7700  174.5940  141.4200 C   0  0  0  0  0  2  0  0  0  0  0  0
  192.0670  174.1660  145.5100 N   0  0  0  0  0  2  0  0  0  0  0  0
  194.0170  175.3420  140.7150 C   0  0  0  0  0  3  0  0  0  0  0  0
  193.9370  176.2590  146.3860 C   0  0  1  0  0  3  0  0  0  0  0  0
  189.7370  176.6320  145.4980 C   0  0  1  0  0  3  0  0  0  0  0  0
  195.6600  175.1010  144.7220 C   0  0  1  0  0  0  0  0  0  0  0  0
  196.1710  173.8150  144.0430 C   0  0  0  0  0  2  0  0  0  0  0  0
  197.3070  175.3850  142.0090 O   0  0  0  0  0  0  0  0  0  0  0  0
  197.5200  175.6650  140.6290 C   0  0  0  0  0  2  0  0  0  0  0  0
  190.1380  175.4190  146.3490 C   0  0  0  0  0  2  0  0  0  0  0  0
  191.6560  175.2030  146.4550 C   0  0  2  0  0  3  0  0  0  0  0  0
  194.6780  177.3910  146.0280 O   0  0  0  0  0  1  0  0  0  0  0  0
  195.6910  174.5400  146.1370 C   0  0  0  0  0  2  0  0  0  0  0  0
  195.3060  175.5830  140.9300 C   0  0  0  0  0  0  0  0  0  0  0  0
  195.9390  175.6510  142.2490 C   0  0  1  0  0  3  0  0  0  0  0  0
  196.2650  175.6660  139.9700 O   0  0  0  0  0  0  0  0  0  0  0  0
  190.9380  173.9030  142.5040 C   0  0  0  0  0  2  0  0  0  0  0  0
  191.4710  172.5210  142.9280 C   0  0  2  0  0  3  0  0  0  0  0  0
  192.1230  177.1120  144.8140 C   0  0  0  0  0  2  0  0  0  0  0  0
  192.6280  172.0070  142.0670 C   0  0  0  0  0  2  0  0  0  0  0  0
  192.4380  176.5070  146.1970 C   0  0  2  0  0  3  0  0  0  0  0  0
  190.6990  176.8210  144.3280 C   0  0  0  0  0  2  0  0  0  0  0  0
  194.3820  175.0060  145.6180 C   0  0  1  0  0  0  0  0  0  0  0  0
  193.4580  173.7910  145.7620 C   0  0  0  0  0  2  0  0  0  0  0  0
  193.1400  175.0760  141.9030 C   0  0  2  0  0  3  0  0  0  0  0  0
  193.9680  172.6730  142.4050 C   0  0  0  0  0  2  0  0  0  0  0  0
  193.8660  174.1280  142.9020 C   0  0  1  0  0  3  0  0  0  0  0  0
  190.3570  171.5320  142.9470 C   0  0  0  0  0  0  0  0  0  0  0  0
  189.1610  171.8300  143.5890 O   0  0  0  0  0  1  0  0  0  0  0  0
  190.5020  170.4170  142.3810 O   0  0  0  0  0  0  0  0  0  0  0  0
  188.3200  176.4540  144.9840 C   0  0  0  0  0  3  0  0  0  0  0  0
  187.4350  177.5480  145.5460 C   0  0  0  0  0  2  0  0  0  0  0  0
  187.9390  177.6420  144.1220 C   0  0  0  0  0  2  0  0  0  0  0  0
  1  8  1  6  0  0  0
  1  7  1  0  0  0  0
  2 26  1  0  0  0  0
  2 18  1  0  0  0  0
  3 25  1  0  0  0  0
  3 12  1  0  0  0  0
  4 15  2  0  0  0  0
  5 13  1  6  0  0  0
  6 32  1  6  0  0  0
  6 11  1  0  0  0  0
  7  8  1  6  0  0  0
  7 24  1  0  0  0  0
  7 14  1  0  0  0  0
  9 16  1  0  0  0  0
 10  9  1  0  0  0  0
 12 11  1  6  0  0  0
 16 15  1  6  0  0  0
 16  1  1  0  0  0  0
 17 10  1  0  0  0  0
 17 15  1  0  0  0  0
 18 19  1  0  0  0  0
 19 29  1  6  0  0  0
 21 27  1  0  0  0  0
 21 19  1  0  0  0  0
 22 20  1  6  0  0  0
 22  5  1  0  0  0  0
 22 12  1  0  0  0  0
 23 20  1  0  0  0  0
 23  6  1  0  0  0  0
 24 25  1  6  0  0  0
 24 14  1  0  0  0  0
 24  5  1  0  0  0  0
 26  4  1  6  0  0  0
 26 28  1  0  0  0  0
 28 27  1  6  0  0  0
 28  1  1  0  0  0  0
 29 30  1  0  0  0  0
 31 29  2  0  0  0  0
 32 33  1  0  0  0  0
 34 32  1  0  0  0  0
 34 33  1  0  0  0  0
M  END
>  <MODEL>
1

>  <REMARK>
 VINA RESULT:      -7.9      0.000      0.000
  Name = 
  2 active torsions:
  status: ('A' for Active; 'I' for Inactive)
    1  A    between atoms: C_3  and  C_25
    2  A    between atoms: C_7  and  C_11
                            x       y       z     vdW  Elec       q    Type
                         _______ _______ _______ _____ _____    ______ ____

>  <TORSDO>
F 2

$$$$
=
 OpenBabel11052420303D

 34 41  0  0  1  0  0  0  0  0999 V2000
  188.4230  175.4520  142.3990 C   0  0  2  0  0  0  0  0  0  0  0  0
  190.8610  177.8820  144.3540 C   0  0  0  0  0  2  0  0  0  0  0  0
  191.4520  173.8010  144.3230 N   0  0  0  0  0  2  0  0  0  0  0  0
  189.1390  178.2670  142.6250 C   0  0  0  0  0  3  0  0  0  0  0  0
  191.0850  172.9750  141.5250 C   0  0  1  0  0  3  0  0  0  0  0  0
  194.5800  174.7010  143.3640 C   0  0  1  0  0  3  0  0  0  0  0  0
  188.6610  174.0430  141.7630 C   0  0  1  0  0  0  0  0  0  0  0  0
  187.4490  174.3690  142.6580 C   0  0  0  0  0  2  0  0  0  0  0  0
  186.7130  176.3970  140.8590 O   0  0  0  0  0  0  0  0  0  0  0  0
  186.3130  177.7380  140.5950 C   0  0  0  0  0  2  0  0  0  0  0  0
  193.8850  173.5850  144.1570 C   0  0  0  0  0  2  0  0  0  0  0  0
  192.5300  173.1540  143.5760 C   0  0  2  0  0  3  0  0  0  0  0  0
  190.9030  173.3820  140.1990 O   0  0  0  0  0  1  0  0  0  0  0  0
  188.7310  172.5710  142.1450 C   0  0  0  0  0  2  0  0  0  0  0  0
  188.2190  177.8560  141.7580 C   0  0  0  0  0  0  0  0  0  0  0  0
  188.0540  176.4740  141.3010 C   0  0  1  0  0  3  0  0  0  0  0  0
  187.2050  178.6140  141.2650 O   0  0  0  0  0  0  0  0  0  0  0  0
  191.5130  176.8700  145.3010 C   0  0  0  0  0  2  0  0  0  0  0  0
  190.5200  176.1110  146.2000 C   0  0  2  0  0  3  0  0  0  0  0  0
  192.6180  174.9910  141.7950 C   0  0  0  0  0  2  0  0  0  0  0  0
  189.0810  176.6270  146.1160 C   0  0  0  0  0  2  0  0  0  0  0  0
  192.4190  173.4880  142.0740 C   0  0  2  0  0  3  0  0  0  0  0  0
  193.5580  175.6810  142.7910 C   0  0  0  0  0  2  0  0  0  0  0  0
  189.9230  173.4050  142.4300 C   0  0  1  0  0  0  0  0  0  0  0  0
  190.1660  173.2240  143.9340 C   0  0  0  0  0  2  0  0  0  0  0  0
  190.0560  177.2400  143.2210 C   0  0  2  0  0  3  0  0  0  0  0  0
  188.3510  176.1650  144.8490 C   0  0  0  0  0  2  0  0  0  0  0  0
  189.2510  175.9670  143.6140 C   0  0  1  0  0  3  0  0  0  0  0  0
  190.9980  176.1270  147.6110 C   0  0  0  0  0  0  0  0  0  0  0  0
  191.0400  177.3180  148.3270 O   0  0  0  0  0  1  0  0  0  0  0  0
  191.3690  175.0560  148.1580 O   0  0  0  0  0  0  0  0  0  0  0  0
  195.5600  175.4360  144.2600 C   0  0  0  0  0  3  0  0  0  0  0  0
  196.9630  175.2880  143.7050 C   0  0  0  0  0  2  0  0  0  0  0  0
  196.1970  176.5750  143.4890 C   0  0  0  0  0  2  0  0  0  0  0  0
  1  8  1  1  0  0  0
  1 28  1  0  0  0  0
  2 18  1  0  0  0  0
  5 13  1  6  0  0  0
  5 22  1  0  0  0  0
  5 24  1  0  0  0  0
  6 11  1  0  0  0  0
  6 32  1  1  0  0  0
  7 14  1  6  0  0  0
  7  1  1  0  0  0  0
  7 24  1  0  0  0  0
  7  8  1  0  0  0  0
 10  9  1  0  0  0  0
 10 17  1  0  0  0  0
 12 11  1  1  0  0  0
 12  3  1  0  0  0  0
 15  4  2  0  0  0  0
 16  9  1  1  0  0  0
 16 15  1  0  0  0  0
 16  1  1  0  0  0  0
 17 15  1  0  0  0  0
 18 19  1  0  0  0  0
 19 29  1  1  0  0  0
 20 23  1  0  0  0  0
 21 19  1  0  0  0  0
 22 20  1  1  0  0  0
 22 12  1  0  0  0  0
 23  6  1  0  0  0  0
 24 14  1  6  0  0  0
 24 25  1  0  0  0  0
 25  3  1  0  0  0  0
 26  4  1  1  0  0  0
 26 28  1  0  0  0  0
 26  2  1  0  0  0  0
 27 21  1  0  0  0  0
 28 27  1  1  0  0  0
 29 31  2  0  0  0  0
 29 30  1  0  0  0  0
 33 32  1  0  0  0  0
 34 33  1  0  0  0  0
 34 32  1  0  0  0  0
M  END
>  <MODEL>
2

>  <REMARK>
 VINA RESULT:      -7.8      2.645      6.865
  Name = 
  2 active torsions:
  status: ('A' for Active; 'I' for Inactive)
    1  A    between atoms: C_3  and  C_25
    2  A    between atoms: C_7  and  C_11
                            x       y       z     vdW  Elec       q    Type
                         _______ _______ _______ _____ _____    ______ ____

>  <TORSDO>
F 2

$$$$
=
 OpenBabel11052420303D

 34 41  0  0  1  0  0  0  0  0999 V2000
  190.1500  176.3130  144.6010 C   0  0  2  0  0  0  0  0  0  0  0  0
  190.0340  172.3880  145.1010 C   0  0  0  0  0  2  0  0  0  0  0  0
  192.9420  174.1830  142.7940 N   0  0  0  0  0  2  0  0  0  0  0  0
  188.9410  174.2630  146.2810 C   0  0  0  0  0  3  0  0  0  0  0  0
  193.8780  176.4870  144.3620 C   0  0  1  0  0  3  0  0  0  0  0  0
  195.0140  172.3490  144.7590 C   0  0  1  0  0  3  0  0  0  0  0  0
  191.3400  177.2800  144.2910 C   0  0  1  0  0  0  0  0  0  0  0  0
  189.9980  177.3280  143.5350 C   0  0  0  0  0  2  0  0  0  0  0  0
  188.6810  177.7760  145.9760 O   0  0  0  0  0  0  0  0  0  0  0  0
  187.6400  177.4740  146.9000 C   0  0  0  0  0  2  0  0  0  0  0  0
  194.9560  172.8950  143.3250 C   0  0  0  0  0  2  0  0  0  0  0  0
  194.3390  174.2980  143.2140 C   0  0  2  0  0  3  0  0  0  0  0  0
  193.8350  177.1660  145.5840 O   0  0  0  0  0  1  0  0  0  0  0  0
  192.1800  177.7840  143.1260 C   0  0  0  0  0  2  0  0  0  0  0  0
  188.7140  175.5550  146.4970 C   0  0  0  0  0  0  0  0  0  0  0  0
  189.5370  176.6510  145.9790 C   0  0  1  0  0  3  0  0  0  0  0  0
  187.6170  176.0720  147.1100 O   0  0  0  0  0  0  0  0  0  0  0  0
  190.8930  171.9600  143.9080 C   0  0  0  0  0  2  0  0  0  0  0  0
  190.3680  172.4410  142.5420 C   0  0  2  0  0  3  0  0  0  0  0  0
  193.7570  174.3270  145.7060 C   0  0  0  0  0  2  0  0  0  0  0  0
  188.9890  173.1050  142.6020 C   0  0  0  0  0  2  0  0  0  0  0  0
  194.4390  175.0740  144.5420 C   0  0  2  0  0  3  0  0  0  0  0  0
  193.7990  172.8020  145.5650 C   0  0  0  0  0  2  0  0  0  0  0  0
  192.5080  176.4450  143.6720 C   0  0  1  0  0  0  0  0  0  0  0  0
  192.4160  175.5060  142.4630 C   0  0  0  0  0  2  0  0  0  0  0  0
  190.1000  173.8870  145.4060 C   0  0  2  0  0  3  0  0  0  0  0  0
  189.0390  174.5420  143.1350 C   0  0  0  0  0  2  0  0  0  0  0  0
  190.1560  174.8180  144.1610 C   0  0  1  0  0  3  0  0  0  0  0  0
  190.3580  171.3080  141.5750 C   0  0  0  0  0  0  0  0  0  0  0  0
  190.2530  171.5480  140.2090 O   0  0  0  0  0  0  0  0  0  0  0  0
  190.4410  170.1250  141.9960 O   0  0  0  0  0  1  0  0  0  0  0  0
  195.0850  170.8340  144.7300 C   0  0  0  0  0  3  0  0  0  0  0  0
  196.3050  170.3680  145.4990 C   0  0  0  0  0  2  0  0  0  0  0  0
  194.9350  170.2910  146.1370 C   0  0  0  0  0  2  0  0  0  0  0  0
  1  8  1  6  0  0  0
  1 16  1  0  0  0  0
  3 12  1  0  0  0  0
  4 15  2  0  0  0  0
  5 22  1  0  0  0  0
  5 13  1  1  0  0  0
  6 32  1  6  0  0  0
  6 23  1  0  0  0  0
  7 14  1  1  0  0  0
  7  1  1  0  0  0  0
  8  7  1  0  0  0  0
  9 10  1  0  0  0  0
 10 17  1  0  0  0  0
 11  6  1  0  0  0  0
 12 11  1  1  0  0  0
 12 22  1  0  0  0  0
 14 24  1  0  0  0  0
 15 17  1  0  0  0  0
 16  9  1  6  0  0  0
 16 15  1  0  0  0  0
 18  2  1  0  0  0  0
 19 29  1  6  0  0  0
 19 21  1  0  0  0  0
 19 18  1  0  0  0  0
 21 27  1  0  0  0  0
 22 20  1  1  0  0  0
 23 20  1  0  0  0  0
 24 25  1  6  0  0  0
 24  7  1  0  0  0  0
 24  5  1  0  0  0  0
 25  3  1  0  0  0  0
 26  2  1  6  0  0  0
 26  4  1  0  0  0  0
 28 27  1  6  0  0  0
 28  1  1  0  0  0  0
 28 26  1  0  0  0  0
 29 31  1  0  0  0  0
 30 29  2  0  0  0  0
 32 33  1  0  0  0  0
 32 34  1  0  0  0  0
 33 34  1  0  0  0  0
M  END
>  <MODEL>
3

>  <REMARK>
 VINA RESULT:      -7.7      2.284      6.221
  Name = 
  2 active torsions:
  status: ('A' for Active; 'I' for Inactive)
    1  A    between atoms: C_3  and  C_25
    2  A    between atoms: C_7  and  C_11
                            x       y       z     vdW  Elec       q    Type
                         _______ _______ _______ _____ _____    ______ ____

>  <TORSDO>
F 2

$$$$
=
 OpenBabel11052420303D

 34 41  0  0  1  0  0  0  0  0999 V2000
  192.7230  175.3310  145.3650 C   0  0  2  0  0  0  0  0  0  0  0  0
  190.6700  175.7900  142.0120 C   0  0  0  0  0  2  0  0  0  0  0  0
  188.7920  175.0330  145.6040 N   0  0  0  0  0  2  0  0  0  0  0  0
  193.0030  176.3100  142.6350 C   0  0  0  0  0  3  0  0  0  0  0  0
  190.0800  176.8150  147.5550 C   0  0  1  0  0  3  0  0  0  0  0  0
  186.9700  177.7580  144.7250 C   0  0  1  0  0  3  0  0  0  0  0  0
  192.3310  175.5810  146.8580 C   0  0  1  0  0  0  0  0  0  0  0  0
  193.0310  174.2960  146.3760 C   0  0  0  0  0  2  0  0  0  0  0  0
  195.1540  175.8590  145.4060 O   0  0  0  0  0  0  0  0  0  0  0  0
  196.0650  176.2120  144.3690 C   0  0  0  0  0  2  0  0  0  0  0  0
  186.7950  176.4460  145.5040 C   0  0  0  0  0  2  0  0  0  0  0  0
  188.0230  176.0420  146.3330 C   0  0  2  0  0  3  0  0  0  0  0  0
  190.9730  177.8720  147.7640 O   0  0  0  0  0  1  0  0  0  0  0  0
  191.5920  174.9190  148.0130 C   0  0  0  0  0  2  0  0  0  0  0  0
  194.0110  176.3760  143.4990 C   0  0  0  0  0  0  0  0  0  0  0  0
  193.8790  176.2710  144.9540 C   0  0  1  0  0  3  0  0  0  0  0  0
  195.3300  176.4120  143.1730 O   0  0  0  0  0  0  0  0  0  0  0  0
  189.3550  175.1280  142.4330 C   0  0  0  0  0  2  0  0  0  0  0  0
  189.5000  173.6650  142.8920 C   0  0  2  0  0  3  0  0  0  0  0  0
  189.3940  177.9940  145.4030 C   0  0  0  0  0  2  0  0  0  0  0  0
  190.8970  173.0780  142.6760 C   0  0  0  0  0  2  0  0  0  0  0  0
  188.9120  177.2560  146.6690 C   0  0  2  0  0  3  0  0  0  0  0  0
  188.4080  177.9130  144.2330 C   0  0  0  0  0  2  0  0  0  0  0  0
  190.7720  175.5770  146.9680 C   0  0  1  0  0  0  0  0  0  0  0  0
  189.8250  174.4750  146.4740 C   0  0  0  0  0  2  0  0  0  0  0  0
  191.6250  176.0660  143.1760 C   0  0  2  0  0  3  0  0  0  0  0  0
  191.9140  173.5500  143.7230 C   0  0  0  0  0  2  0  0  0  0  0  0
  191.6680  174.9680  144.2770 C   0  0  1  0  0  3  0  0  0  0  0  0
  188.4710  172.8190  142.2230 C   0  0  0  0  0  0  0  0  0  0  0  0
  188.1520  173.0230  140.8860 O   0  0  0  0  0  0  0  0  0  0  0  0
  187.8850  171.9160  142.8760 O   0  0  0  0  0  1  0  0  0  0  0  0
  186.0120  177.7900  143.5490 C   0  0  0  0  0  3  0  0  0  0  0  0
  185.4960  179.2030  143.3540 C   0  0  0  0  0  2  0  0  0  0  0  0
  186.5840  178.6640  142.4500 C   0  0  0  0  0  2  0  0  0  0  0  0
  1  8  1  1  0  0  0
  1  7  1  0  0  0  0
  2 18  1  0  0  0  0
  3 12  1  0  0  0  0
  3 25  1  0  0  0  0
  4 26  1  0  0  0  0
  4 15  2  0  0  0  0
  5 13  1  6  0  0  0
  6 32  1  6  0  0  0
  6 11  1  0  0  0  0
  7  8  1  6  0  0  0
  7 24  1  0  0  0  0
  7 14  1  0  0  0  0
 10  9  1  0  0  0  0
 12 11  1  6  0  0  0
 12 22  1  0  0  0  0
 16 15  1  6  0  0  0
 16  1  1  0  0  0  0
 16  9  1  0  0  0  0
 17 15  1  0  0  0  0
 17 10  1  0  0  0  0
 18 19  1  0  0  0  0
 19 29  1  6  0  0  0
 21 19  1  0  0  0  0
 21 27  1  0  0  0  0
 22 20  1  6  0  0  0
 22  5  1  0  0  0  0
 23  6  1  0  0  0  0
 23 20  1  0  0  0  0
 24 25  1  6  0  0  0
 24  5  1  0  0  0  0
 24 14  1  0  0  0  0
 26  2  1  6  0  0  0
 26 28  1  0  0  0  0
 28 27  1  6  0  0  0
 28  1  1  0  0  0  0
 29 31  1  0  0  0  0
 30 29  2  0  0  0  0
 33 32  1  0  0  0  0
 34 33  1  0  0  0  0
 34 32  1  0  0  0  0
M  END
>  <MODEL>
4

>  <REMARK>
 VINA RESULT:      -7.7      2.046      3.254
  Name = 
  2 active torsions:
  status: ('A' for Active; 'I' for Inactive)
    1  A    between atoms: C_3  and  C_25
    2  A    between atoms: C_7  and  C_11
                            x       y       z     vdW  Elec       q    Type
                         _______ _______ _______ _____ _____    ______ ____

>  <TORSDO>
F 2

$$$$
=
 OpenBabel11052420303D

 34 41  0  0  1  0  0  0  0  0999 V2000
  193.8220  172.6090  142.6030 C   0  0  2  0  0  0  0  0  0  0  0  0
  193.3270  173.8100  146.3430 C   0  0  0  0  0  2  0  0  0  0  0  0
  191.9720  176.0540  143.1600 N   0  0  0  0  0  2  0  0  0  0  0  0
  193.9330  171.6330  145.3460 C   0  0  0  0  0  3  0  0  0  0  0  0
  190.6470  174.1450  141.3590 C   0  0  1  0  0  3  0  0  0  0  0  0
  189.0700  175.9950  144.9180 C   0  0  1  0  0  3  0  0  0  0  0  0
  193.0010  172.9070  141.3060 C   0  0  1  0  0  0  0  0  0  0  0  0
  194.5380  173.0010  141.3690 C   0  0  0  0  0  2  0  0  0  0  0  0
  194.6340  170.3020  142.1460 O   0  0  0  0  0  0  0  0  0  0  0  0
  195.1060  169.2750  143.0110 C   0  0  0  0  0  2  0  0  0  0  0  0
  189.8260  176.9230  143.9560 C   0  0  0  0  0  2  0  0  0  0  0  0
  190.5560  176.1890  142.8210 C   0  0  2  0  0  3  0  0  0  0  0  0
  190.1920  172.8350  141.1720 O   0  0  0  0  0  1  0  0  0  0  0  0
  192.8350  173.9720  140.2310 C   0  0  0  0  0  2  0  0  0  0  0  0
  194.1580  170.8240  144.3160 C   0  0  0  0  0  0  0  0  0  0  0  0
  193.7690  171.1000  142.9300 C   0  0  1  0  0  3  0  0  0  0  0  0
  194.8990  169.6850  144.3520 O   0  0  0  0  0  0  0  0  0  0  0  0
  193.0690  175.2990  146.0940 C   0  0  0  0  0  2  0  0  0  0  0  0
  194.2020  176.0220  145.3410 C   0  0  2  0  0  3  0  0  0  0  0  0
  189.9380  173.9030  143.7940 C   0  0  0  0  0  2  0  0  0  0  0  0
  195.4570  175.1700  145.1340 C   0  0  0  0  0  2  0  0  0  0  0  0
  189.9350  174.8050  142.5430 C   0  0  2  0  0  3  0  0  0  0  0  0
  189.8210  174.6800  145.1100 C   0  0  0  0  0  2  0  0  0  0  0  0
  192.1710  174.2120  141.5340 C   0  0  1  0  0  0  0  0  0  0  0  0
  192.7140  175.5700  141.9970 C   0  0  0  0  0  2  0  0  0  0  0  0
  193.2700  172.9520  145.0770 C   0  0  2  0  0  3  0  0  0  0  0  0
  195.3060  174.1430  144.0050 C   0  0  0  0  0  2  0  0  0  0  0  0
  193.8760  173.6050  143.8010 C   0  0  1  0  0  3  0  0  0  0  0  0
  194.5440  177.2930  146.0380 C   0  0  0  0  0  0  0  0  0  0  0  0
  195.2690  178.2820  145.3830 O   0  0  0  0  0  0  0  0  0  0  0  0
  194.1770  177.4720  147.2280 O   0  0  0  0  0  1  0  0  0  0  0  0
  188.8780  176.6850  146.2550 C   0  0  0  0  0  3  0  0  0  0  0  0
  187.4100  176.6610  146.6320 C   0  0  0  0  0  2  0  0  0  0  0  0
  188.3710  175.6850  147.2760 C   0  0  0  0  0  2  0  0  0  0  0  0
  1  8  1  6  0  0  0
  1 16  1  0  0  0  0
  1 28  1  0  0  0  0
  5 13  1  1  0  0  0
  5 24  1  0  0  0  0
  5 22  1  0  0  0  0
  6 23  1  0  0  0  0
  6 32  1  1  0  0  0
  7 14  1  6  0  0  0
  7  8  1  0  0  0  0
  7 24  1  0  0  0  0
  7  1  1  0  0  0  0
  9 10  1  0  0  0  0
 10 17  1  0  0  0  0
 11  6  1  0  0  0  0
 12  3  1  0  0  0  0
 12 11  1  1  0  0  0
 15 17  1  0  0  0  0
 15  4  2  0  0  0  0
 16  9  1  6  0  0  0
 16 15  1  0  0  0  0
 18  2  1  0  0  0  0
 19 29  1  1  0  0  0
 19 18  1  0  0  0  0
 20 23  1  0  0  0  0
 21 19  1  0  0  0  0
 22 12  1  0  0  0  0
 22 20  1  1  0  0  0
 24 14  1  6  0  0  0
 24 25  1  0  0  0  0
 25  3  1  0  0  0  0
 26  4  1  1  0  0  0
 26  2  1  0  0  0  0
 27 21  1  0  0  0  0
 28 27  1  1  0  0  0
 28 26  1  0  0  0  0
 29 31  1  0  0  0  0
 30 29  2  0  0  0  0
 32 33  1  0  0  0  0
 32 34  1  0  0  0  0
 33 34  1  0  0  0  0
M  END
>  <MODEL>
5

>  <REMARK>
 VINA RESULT:      -6.9      2.187      5.189
  Name = 
  2 active torsions:
  status: ('A' for Active; 'I' for Inactive)
    1  A    between atoms: C_3  and  C_25
    2  A    between atoms: C_7  and  C_11
                            x       y       z     vdW  Elec       q    Type
                         _______ _______ _______ _____ _____    ______ ____

>  <TORSDO>
F 2

$$$$
=
 OpenBabel11052420303D

 34 41  0  0  1  0  0  0  0  0999 V2000
  190.2440  174.7640  144.8960 C   0  0  2  0  0  0  0  0  0  0  0  0
  193.5010  176.6430  143.6570 C   0  0  0  0  0  2  0  0  0  0  0  0
  193.1120  172.5510  143.3230 N   0  0  0  0  0  2  0  0  0  0  0  0
  191.2380  177.4280  144.2590 C   0  0  0  0  0  3  0  0  0  0  0  0
  190.4020  172.1020  142.2740 C   0  0  1  0  0  3  0  0  0  0  0  0
  193.9640  173.1730  140.0970 C   0  0  1  0  0  3  0  0  0  0  0  0
  189.5900  173.4190  144.4380 C   0  0  1  0  0  0  0  0  0  0  0  0
  189.8170  173.7840  145.9180 C   0  0  0  0  0  2  0  0  0  0  0  0
  188.2380  176.0790  145.5570 O   0  0  0  0  0  0  0  0  0  0  0  0
  188.0300  177.4800  145.7060 C   0  0  0  0  0  2  0  0  0  0  0  0
  194.1260  172.0650  141.1480 C   0  0  0  0  0  2  0  0  0  0  0  0
  192.8960  171.8690  142.0470 C   0  0  2  0  0  3  0  0  0  0  0  0
  189.2410  172.6780  141.7470 O   0  0  0  0  0  1  0  0  0  0  0  0
  189.7170  171.9160  144.6380 C   0  0  0  0  0  2  0  0  0  0  0  0
  189.9780  177.2340  144.6380 C   0  0  0  0  0  0  0  0  0  0  0  0
  189.2850  175.9430  144.6160 C   0  0  1  0  0  3  0  0  0  0  0  0
  189.1800  178.1590  145.2310 O   0  0  0  0  0  0  0  0  0  0  0  0
  194.4710  175.4580  143.6160 C   0  0  0  0  0  2  0  0  0  0  0  0
  194.6340  174.7250  144.9610 C   0  0  2  0  0  3  0  0  0  0  0  0
  191.7060  173.8750  140.9910 C   0  0  0  0  0  2  0  0  0  0  0  0
  193.9410  175.4170  146.1380 C   0  0  0  0  0  2  0  0  0  0  0  0
  191.6080  172.3840  141.3730 C   0  0  2  0  0  3  0  0  0  0  0  0
  193.1290  174.3270  140.6460 C   0  0  0  0  0  2  0  0  0  0  0  0
  190.6780  172.5620  143.7120 C   0  0  1  0  0  0  0  0  0  0  0  0
  192.0570  172.1820  144.2650 C   0  0  0  0  0  2  0  0  0  0  0  0
  192.0330  176.2360  143.8150 C   0  0  2  0  0  3  0  0  0  0  0  0
  192.4240  175.1950  146.1540 C   0  0  0  0  0  2  0  0  0  0  0  0
  191.7730  175.0330  144.7660 C   0  0  1  0  0  3  0  0  0  0  0  0
  196.0800  174.5220  145.2560 C   0  0  0  0  0  0  0  0  0  0  0  0
  197.0490  174.9160  144.3390 O   0  0  0  0  0  0  0  0  0  0  0  0
  196.4280  173.9860  146.3400 O   0  0  0  0  0  1  0  0  0  0  0  0
  195.3290  173.6770  139.6660 C   0  0  0  0  0  3  0  0  0  0  0  0
  195.4520  173.5790  138.1580 C   0  0  0  0  0  2  0  0  0  0  0  0
  195.1650  174.9160  138.8070 C   0  0  0  0  0  2  0  0  0  0  0  0
  1  8  1  1  0  0  0
  3 25  1  0  0  0  0
  4 15  2  0  0  0  0
  5 13  1  6  0  0  0
  5 24  1  0  0  0  0
  6 32  1  1  0  0  0
  6 23  1  0  0  0  0
  6 11  1  0  0  0  0
  7 14  1  6  0  0  0
  7  1  1  0  0  0  0
  7  8  1  0  0  0  0
  9 10  1  0  0  0  0
 12 11  1  6  0  0  0
 12  3  1  0  0  0  0
 15 17  1  0  0  0  0
 16 15  1  1  0  0  0
 16  1  1  0  0  0  0
 16  9  1  0  0  0  0
 17 10  1  0  0  0  0
 18  2  1  0  0  0  0
 18 19  1  0  0  0  0
 19 29  1  1  0  0  0
 19 21  1  0  0  0  0
 21 27  1  0  0  0  0
 22 20  1  1  0  0  0
 22 12  1  0  0  0  0
 22  5  1  0  0  0  0
 23 20  1  0  0  0  0
 24 25  1  1  0  0  0
 24  7  1  0  0  0  0
 24 14  1  0  0  0  0
 26  2  1  1  0  0  0
 26  4  1  0  0  0  0
 26 28  1  0  0  0  0
 28  1  1  0  0  0  0
 28 27  1  1  0  0  0
 29 31  1  0  0  0  0
 30 29  2  0  0  0  0
 33 34  1  0  0  0  0
 33 32  1  0  0  0  0
 34 32  1  0  0  0  0
M  END
>  <MODEL>
6

>  <REMARK>
 VINA RESULT:      -6.8      2.134      6.801
  Name = 
  2 active torsions:
  status: ('A' for Active; 'I' for Inactive)
    1  A    between atoms: C_3  and  C_25
    2  A    between atoms: C_7  and  C_11
                            x       y       z     vdW  Elec       q    Type
                         _______ _______ _______ _____ _____    ______ ____

>  <TORSDO>
F 2

$$$$
=
 OpenBabel11052420303D

 34 41  0  0  1  0  0  0  0  0999 V2000
  192.4320  175.3230  145.3980 C   0  0  2  0  0  0  0  0  0  0  0  0
  193.7970  173.1560  142.3790 C   0  0  0  0  0  2  0  0  0  0  0  0
  189.9690  172.6630  143.8290 N   0  0  0  0  0  2  0  0  0  0  0  0
  194.5990  175.2310  143.4520 C   0  0  0  0  0  3  0  0  0  0  0  0
  188.9010  175.3820  144.1690 C   0  0  1  0  0  3  0  0  0  0  0  0
  189.1500  173.0420  140.5580 C   0  0  1  0  0  3  0  0  0  0  0  0
  190.9800  175.7540  145.7860 C   0  0  1  0  0  0  0  0  0  0  0  0
  191.9810  175.1640  146.7980 C   0  0  0  0  0  2  0  0  0  0  0  0
  193.7510  177.2670  146.2170 O   0  0  0  0  0  0  0  0  0  0  0  0
  195.0530  177.7380  145.8810 C   0  0  0  0  0  2  0  0  0  0  0  0
  188.6410  172.3020  141.8040 C   0  0  0  0  0  2  0  0  0  0  0  0
  188.7760  173.1050  143.1070 C   0  0  2  0  0  3  0  0  0  0  0  0
  189.0940  176.7500  143.9520 O   0  0  0  0  0  1  0  0  0  0  0  0
  189.7360  175.2230  146.4850 C   0  0  0  0  0  2  0  0  0  0  0  0
  194.5010  176.2250  144.3300 C   0  0  0  0  0  0  0  0  0  0  0  0
  193.2890  176.5680  145.0780 C   0  0  1  0  0  3  0  0  0  0  0  0
  195.5320  176.9880  144.7770 O   0  0  0  0  0  0  0  0  0  0  0  0
  192.7930  172.0000  142.4290 C   0  0  0  0  0  2  0  0  0  0  0  0
  192.7510  171.2540  143.7760 C   0  0  2  0  0  3  0  0  0  0  0  0
  190.0080  175.0010  141.9060 C   0  0  0  0  0  2  0  0  0  0  0  0
  193.8410  171.6830  144.7620 C   0  0  0  0  0  2  0  0  0  0  0  0
  188.8400  174.6230  142.8400 C   0  0  2  0  0  3  0  0  0  0  0  0
  190.3630  173.9060  140.8940 C   0  0  0  0  0  2  0  0  0  0  0  0
  189.9720  174.7820  145.0900 C   0  0  1  0  0  0  0  0  0  0  0  0
  189.9810  173.2500  145.1680 C   0  0  0  0  0  2  0  0  0  0  0  0
  193.3960  174.3610  143.2330 C   0  0  2  0  0  3  0  0  0  0  0  0
  193.5380  173.0210  145.4460 C   0  0  0  0  0  2  0  0  0  0  0  0
  192.7270  174.0190  144.5960 C   0  0  1  0  0  3  0  0  0  0  0  0
  192.8070  169.7840  143.5440 C   0  0  0  0  0  0  0  0  0  0  0  0
  192.6940  169.2680  142.2580 O   0  0  0  0  0  0  0  0  0  0  0  0
  192.9550  169.0030  144.5200 O   0  0  0  0  0  1  0  0  0  0  0  0
  189.5090  172.0400  139.4760 C   0  0  0  0  0  3  0  0  0  0  0  0
  188.8830  172.4670  138.1620 C   0  0  0  0  0  2  0  0  0  0  0  0
  190.3540  172.7180  138.4160 C   0  0  0  0  0  2  0  0  0  0  0  0
  1  7  1  0  0  0  0
  1  8  1  1  0  0  0
  2 18  1  0  0  0  0
  3 25  1  0  0  0  0
  4 15  2  0  0  0  0
  5 13  1  6  0  0  0
  5 24  1  0  0  0  0
  6 32  1  6  0  0  0
  6 23  1  0  0  0  0
  6 11  1  0  0  0  0
  7 14  1  1  0  0  0
  7  8  1  0  0  0  0
 10  9  1  0  0  0  0
 12 11  1  6  0  0  0
 12  3  1  0  0  0  0
 15 17  1  0  0  0  0
 16 15  1  1  0  0  0
 16  1  1  0  0  0  0
 16  9  1  0  0  0  0
 17 10  1  0  0  0  0
 18 19  1  0  0  0  0
 19 29  1  6  0  0  0
 19 21  1  0  0  0  0
 21 27  1  0  0  0  0
 22 20  1  6  0  0  0
 22 12  1  0  0  0  0
 22  5  1  0  0  0  0
 23 20  1  0  0  0  0
 24 25  1  6  0  0  0
 24  7  1  0  0  0  0
 24 14  1  0  0  0  0
 26  2  1  1  0  0  0
 26  4  1  0  0  0  0
 26 28  1  0  0  0  0
 28  1  1  0  0  0  0
 28 27  1  1  0  0  0
 29 31  1  0  0  0  0
 30 29  2  0  0  0  0
 33 34  1  0  0  0  0
 33 32  1  0  0  0  0
 34 32  1  0  0  0  0
M  END
>  <MODEL>
7

>  <REMARK>
 VINA RESULT:      -6.8      2.282      4.802
  Name = 
  2 active torsions:
  status: ('A' for Active; 'I' for Inactive)
    1  A    between atoms: C_3  and  C_25
    2  A    between atoms: C_7  and  C_11
                            x       y       z     vdW  Elec       q    Type
                         _______ _______ _______ _____ _____    ______ ____

>  <TORSDO>
F 2

$$$$
=
 OpenBabel11052420303D

 34 41  0  0  1  0  0  0  0  0999 V2000
  192.9570  171.5560  142.3730 C   0  0  2  0  0  0  0  0  0  0  0  0
  193.7700  173.5580  145.6910 C   0  0  0  0  0  2  0  0  0  0  0  0
  191.9450  175.3720  142.4690 N   0  0  0  0  0  2  0  0  0  0  0  0
  193.6930  171.1460  145.1630 C   0  0  0  0  0  3  0  0  0  0  0  0
  189.8590  173.4970  141.5880 C   0  0  1  0  0  3  0  0  0  0  0  0
  189.7060  176.3290  144.8340 C   0  0  1  0  0  3  0  0  0  0  0  0
  191.8570  171.7690  141.2820 C   0  0  1  0  0  0  0  0  0  0  0  0
  193.3400  171.5200  140.9450 C   0  0  0  0  0  2  0  0  0  0  0  0
  193.2080  169.0810  142.3330 O   0  0  0  0  0  0  0  0  0  0  0  0
  193.7330  168.1660  143.2900 C   0  0  0  0  0  2  0  0  0  0  0  0
  190.2950  176.8500  143.5150 C   0  0  0  0  0  2  0  0  0  0  0  0
  190.5340  175.7570  142.4610 C   0  0  2  0  0  3  0  0  0  0  0  0
  189.1580  172.3160  141.8550 O   0  0  0  0  0  1  0  0  0  0  0  0
  191.5670  172.6080  140.0450 C   0  0  0  0  0  2  0  0  0  0  0  0
  193.4720  170.1180  144.3480 C   0  0  0  0  0  0  0  0  0  0  0  0
  192.7520  170.1950  143.0750 C   0  0  1  0  0  3  0  0  0  0  0  0
  193.9930  168.8710  144.4920 O   0  0  0  0  0  0  0  0  0  0  0  0
  193.7010  174.9860  145.1420 C   0  0  0  0  0  2  0  0  0  0  0  0
  194.6720  175.2660  143.9790 C   0  0  2  0  0  3  0  0  0  0  0  0
  189.8540  173.9130  144.1010 C   0  0  0  0  0  2  0  0  0  0  0  0
  195.6550  174.1260  143.6970 C   0  0  0  0  0  2  0  0  0  0  0  0
  189.6390  174.5250  142.7020 C   0  0  2  0  0  3  0  0  0  0  0  0
  190.2530  174.9420  145.1650 C   0  0  0  0  0  2  0  0  0  0  0  0
  191.3570  173.2480  141.3660 C   0  0  1  0  0  0  0  0  0  0  0  0
  192.2280  174.5100  141.3240 C   0  0  0  0  0  2  0  0  0  0  0  0
  193.2080  172.5000  144.7360 C   0  0  2  0  0  3  0  0  0  0  0  0
  195.0160  172.9580  142.9370 C   0  0  0  0  0  2  0  0  0  0  0  0
  193.5190  172.7300  143.2290 C   0  0  1  0  0  3  0  0  0  0  0  0
  195.4070  176.5380  144.2260 C   0  0  0  0  0  0  0  0  0  0  0  0
  196.4920  176.8900  143.4330 O   0  0  0  0  0  0  0  0  0  0  0  0
  195.0450  177.2970  145.1630 O   0  0  0  0  0  1  0  0  0  0  0  0
  190.0260  177.2970  145.9580 C   0  0  0  0  0  3  0  0  0  0  0  0
  188.8530  177.3670  146.9150 C   0  0  0  0  0  2  0  0  0  0  0  0
  190.0740  176.5480  147.2750 C   0  0  0  0  0  2  0  0  0  0  0  0
  1  8  1  6  0  0  0
  1 16  1  0  0  0  0
  1 28  1  0  0  0  0
  5 13  1  1  0  0  0
  5 22  1  0  0  0  0
  6 23  1  0  0  0  0
  6 32  1  1  0  0  0
  7 14  1  6  0  0  0
  7 24  1  0  0  0  0
  7  1  1  0  0  0  0
  8  7  1  0  0  0  0
  9 10  1  0  0  0  0
 10 17  1  0  0  0  0
 11  6  1  0  0  0  0
 12  3  1  0  0  0  0
 12 22  1  0  0  0  0
 12 11  1  1  0  0  0
 15 17  1  0  0  0  0
 15  4  2  0  0  0  0
 16  9  1  6  0  0  0
 16 15  1  0  0  0  0
 18  2  1  0  0  0  0
 19 29  1  1  0  0  0
 19 18  1  0  0  0  0
 20 23  1  0  0  0  0
 21 19  1  0  0  0  0
 22 20  1  1  0  0  0
 24 14  1  6  0  0  0
 24  5  1  0  0  0  0
 25 24  1  0  0  0  0
 25  3  1  0  0  0  0
 26  4  1  1  0  0  0
 26  2  1  0  0  0  0
 27 21  1  0  0  0  0
 28 27  1  1  0  0  0
 28 26  1  0  0  0  0
 29 31  1  0  0  0  0
 30 29  2  0  0  0  0
 32 33  1  0  0  0  0
 32 34  1  0  0  0  0
 33 34  1  0  0  0  0
M  END
>  <MODEL>
8

>  <REMARK>
 VINA RESULT:      -6.7      1.947      5.540
  Name = 
  2 active torsions:
  status: ('A' for Active; 'I' for Inactive)
    1  A    between atoms: C_3  and  C_25
    2  A    between atoms: C_7  and  C_11
                            x       y       z     vdW  Elec       q    Type
                         _______ _______ _______ _____ _____    ______ ____

>  <TORSDO>
F 2

$$$$
=
 OpenBabel11052420303D

 34 41  0  0  1  0  0  0  0  0999 V2000
  189.3140  174.7910  143.0810 C   0  0  2  0  0  0  0  0  0  0  0  0
  192.1970  177.4800  143.4440 C   0  0  0  0  0  2  0  0  0  0  0  0
  192.9910  173.4360  143.5760 N   0  0  0  0  0  2  0  0  0  0  0  0
  189.8580  177.6220  142.6600 C   0  0  0  0  0  3  0  0  0  0  0  0
  191.4610  172.2620  141.3560 C   0  0  1  0  0  3  0  0  0  0  0  0
  195.2800  174.2530  141.2080 C   0  0  1  0  0  3  0  0  0  0  0  0
  189.3360  173.3170  142.5590 C   0  0  1  0  0  0  0  0  0  0  0  0
  188.6390  173.7350  143.8680 C   0  0  0  0  0  2  0  0  0  0  0  0
  187.0320  175.5120  142.4000 O   0  0  0  0  0  0  0  0  0  0  0  0
  186.4650  176.8040  142.2080 C   0  0  0  0  0  2  0  0  0  0  0  0
  195.0970  173.2350  142.3430 C   0  0  0  0  0  2  0  0  0  0  0  0
  193.6590  172.7160  142.4920 C   0  0  2  0  0  3  0  0  0  0  0  0
  190.6740  172.4970  140.2240 O   0  0  0  0  0  1  0  0  0  0  0  0
  189.6730  171.9050  143.0190 C   0  0  0  0  0  2  0  0  0  0  0  0
  188.6770  177.0930  142.3550 C   0  0  0  0  0  0  0  0  0  0  0  0
  188.4190  175.6630  142.1720 C   0  0  1  0  0  3  0  0  0  0  0  0
  187.5000  177.7690  142.3020 O   0  0  0  0  0  0  0  0  0  0  0  0
  193.2740  176.6040  144.0900 C   0  0  0  0  0  2  0  0  0  0  0  0
  192.8470  175.9490  145.4170 C   0  0  2  0  0  3  0  0  0  0  0  0
  192.8080  174.3170  140.6850 C   0  0  0  0  0  2  0  0  0  0  0  0
  191.4930  176.4310  145.9450 C   0  0  0  0  0  2  0  0  0  0  0  0
  192.8610  172.8580  141.1800 C   0  0  2  0  0  3  0  0  0  0  0  0
  194.0450  175.1390  141.0640 C   0  0  0  0  0  2  0  0  0  0  0  0
  190.8040  172.7850  142.6410 C   0  0  1  0  0  0  0  0  0  0  0  0
  191.7110  172.7970  143.8780 C   0  0  0  0  0  2  0  0  0  0  0  0
  191.0140  176.6900  142.8770 C   0  0  2  0  0  3  0  0  0  0  0  0
  190.3040  175.8040  145.2060 C   0  0  0  0  0  2  0  0  0  0  0  0
  190.5630  175.4660  143.7240 C   0  0  1  0  0  3  0  0  0  0  0  0
  193.9070  176.1490  146.4450 C   0  0  0  0  0  0  0  0  0  0  0  0
  194.9960  175.2870  146.5110 O   0  0  0  0  0  0  0  0  0  0  0  0
  193.8140  177.1020  147.2620 O   0  0  0  0  0  1  0  0  0  0  0  0
  196.5050  175.1080  141.4770 C   0  0  0  0  0  3  0  0  0  0  0  0
  197.1520  175.4940  140.1610 C   0  0  0  0  0  2  0  0  0  0  0  0
  196.2930  176.4950  140.9020 C   0  0  0  0  0  2  0  0  0  0  0  0
  1 28  1  0  0  0  0
  1  8  1  1  0  0  0
  2 18  1  0  0  0  0
  3 25  1  0  0  0  0
  5 13  1  6  0  0  0
  5 24  1  0  0  0  0
  6 32  1  1  0  0  0
  6 11  1  0  0  0  0
  7 24  1  0  0  0  0
  7 14  1  6  0  0  0
  7  1  1  0  0  0  0
  7  8  1  0  0  0  0
 10 17  1  0  0  0  0
 10  9  1  0  0  0  0
 12 11  1  6  0  0  0
 12  3  1  0  0  0  0
 15  4  2  0  0  0  0
 16 15  1  1  0  0  0
 16  9  1  0  0  0  0
 16  1  1  0  0  0  0
 17 15  1  0  0  0  0
 18 19  1  0  0  0  0
 19 21  1  0  0  0  0
 19 29  1  1  0  0  0
 20 23  1  0  0  0  0
 22 20  1  1  0  0  0
 22  5  1  0  0  0  0
 22 12  1  0  0  0  0
 23  6  1  0  0  0  0
 24 14  1  1  0  0  0
 24 25  1  0  0  0  0
 26  4  1  1  0  0  0
 26  2  1  0  0  0  0
 26 28  1  0  0  0  0
 27 21  1  0  0  0  0
 28 27  1  1  0  0  0
 29 30  2  0  0  0  0
 29 31  1  0  0  0  0
 33 34  1  0  0  0  0
 33 32  1  0  0  0  0
 34 32  1  0  0  0  0
M  END
>  <MODEL>
9

>  <REMARK>
 VINA RESULT:      -6.6      2.220      6.912
  Name = 
  2 active torsions:
  status: ('A' for Active; 'I' for Inactive)
    1  A    between atoms: C_3  and  C_25
    2  A    between atoms: C_7  and  C_11
                            x       y       z     vdW  Elec       q    Type
                         _______ _______ _______ _____ _____    ______ ____

>  <TORSDO>
F 2

$$$$
