=
 OpenBabel11052417303D

 25 28  0  0  1  0  0  0  0  0999 V2000
  186.7700  177.5440  142.7630 C   0  0  0  0  0  0  0  0  0  0  0  0
  185.9120  177.8710  143.7670 N   0  0  0  0  0  0  0  0  0  0  0  0
  184.1800  178.4180  142.2320 C   0  0  0  0  0  3  0  0  0  0  0  0
  186.0320  177.8890  145.1030 C   0  0  0  0  0  0  0  0  0  0  0  0
  188.7470  174.3110  142.2200 N   0  0  0  0  0  2  0  0  0  0  0  0
  185.7370  178.1120  147.8440 C   0  0  0  0  0  3  0  0  0  0  0  0
  185.0150  178.0660  141.2110 N   0  0  0  0  0  0  0  0  0  0  0  0
  184.8460  178.3300  145.6320 C   0  0  0  0  0  0  0  0  0  0  0  0
  184.6590  178.4550  147.0060 C   0  0  0  0  0  3  0  0  0  0  0  0
  187.1840  177.1240  140.3340 C   0  0  2  0  0  3  0  0  0  0  0  0
  186.4430  176.9690  139.0150 C   0  0  0  0  0  1  0  0  0  0  0  0
  189.3350  173.8750  143.4510 C   0  0  0  0  0  0  0  0  0  0  0  0
  188.4680  177.0180  143.0460 S   0  0  0  0  0  0  0  0  0  0  0  0
  186.9580  177.6570  147.2970 C   0  0  0  0  0  3  0  0  0  0  0  0
  184.6530  178.3060  143.5350 C   0  0  0  0  0  0  0  0  0  0  0  0
  183.9510  178.6040  144.6580 N   0  0  0  0  0  0  0  0  0  0  0  0
  187.7600  175.8350  140.7230 N   0  0  0  0  0  0  0  0  0  0  0  0
  187.1190  177.5400  145.9040 C   0  0  0  0  0  3  0  0  0  0  0  0
  188.3200  175.6380  141.8820 C   0  0  0  0  0  0  0  0  0  0  0  0
  186.2920  177.6260  141.4420 C   0  0  0  0  0  0  0  0  0  0  0  0
  189.5400  174.6740  144.4010 O   0  0  0  0  0  0  0  0  0  0  0  0
  189.7370  172.4480  143.5990 C   0  0  0  0  0  2  0  0  0  0  0  0
  190.7030  172.0710  142.5300 C   0  0  0  0  0  0  0  0  0  0  0  0
  191.7790  172.7100  142.3990 O   0  0  0  0  0  0  0  0  0  0  0  0
  190.4270  170.9650  141.6780 N   0  0  0  0  0  1  0  0  0  0  0  0
  1 13  1  0  0  0  0
  1  2  1  0  0  0  0
  2  4  1  0  0  0  0
  3 15  1  0  0  0  0
  4  8  2  0  0  0  0
  4 18  1  0  0  0  0
  5 12  1  0  0  0  0
  7 20  1  0  0  0  0
  7  3  2  0  0  0  0
  8  9  1  0  0  0  0
  9  6  2  0  0  0  0
 10 11  1  6  0  0  0
 10 17  1  0  0  0  0
 10 20  1  0  0  0  0
 12 22  1  0  0  0  0
 12 21  2  0  0  0  0
 14  6  1  0  0  0  0
 15  2  1  0  0  0  0
 15 16  2  0  0  0  0
 16  8  1  0  0  0  0
 17 19  2  0  0  0  0
 18 14  2  0  0  0  0
 19  5  1  0  0  0  0
 19 13  1  0  0  0  0
 20  1  2  0  0  0  0
 23 22  1  0  0  0  0
 24 23  2  0  0  0  0
 25 23  1  0  0  0  0
M  END
>  <MODEL>
1

>  <REMARK>
 VINA RESULT:      -7.5      0.000      0.000
  Name = 
  2 active torsions:
  status: ('A' for Active; 'I' for Inactive)
    1  A    between atoms: C_2  and  C_21
    2  A    between atoms: C_15  and  C_21
                            x       y       z     vdW  Elec       q    Type
                         _______ _______ _______ _____ _____    ______ ____

>  <TORSDO>
F 2

$$$$
=
 OpenBabel11052417303D

 25 28  0  0  1  0  0  0  0  0999 V2000
  186.9310  177.3710  144.7440 C   0  0  0  0  0  0  0  0  0  0  0  0
  186.4100  177.7390  143.5420 N   0  0  0  0  0  0  0  0  0  0  0  0
  184.9650  179.3330  144.5560 C   0  0  0  0  0  3  0  0  0  0  0  0
  186.6310  177.3280  142.2850 C   0  0  0  0  0  0  0  0  0  0  0  0
  190.5910  177.2420  145.8620 N   0  0  0  0  0  2  0  0  0  0  0  0
  186.6850  176.8680  139.5580 C   0  0  0  0  0  3  0  0  0  0  0  0
  185.4970  178.9990  145.7680 N   0  0  0  0  0  0  0  0  0  0  0  0
  185.8010  178.0350  141.4530 C   0  0  0  0  0  0  0  0  0  0  0  0
  185.7990  177.8320  140.0750 C   0  0  0  0  0  3  0  0  0  0  0  0
  187.1480  177.7460  147.2050 C   0  0  2  0  0  3  0  0  0  0  0  0
  186.7850  178.7510  148.2870 C   0  0  0  0  0  1  0  0  0  0  0  0
  191.4030  176.6550  144.8380 C   0  0  0  0  0  0  0  0  0  0  0  0
  188.1700  176.0770  144.9280 S   0  0  0  0  0  0  0  0  0  0  0  0
  187.5390  176.1410  140.4170 C   0  0  0  0  0  3  0  0  0  0  0  0
  185.4490  178.6820  143.4260 C   0  0  0  0  0  0  0  0  0  0  0  0
  185.0370  178.9030  142.1510 N   0  0  0  0  0  0  0  0  0  0  0  0
  188.6000  177.7420  147.0120 N   0  0  0  0  0  0  0  0  0  0  0  0
  187.5210  176.3670  141.8050 C   0  0  0  0  0  3  0  0  0  0  0  0
  189.1760  177.0880  146.0450 C   0  0  0  0  0  0  0  0  0  0  0  0
  186.4700  178.0420  145.8900 C   0  0  0  0  0  0  0  0  0  0  0  0
  190.9100  175.9040  143.9570 O   0  0  0  0  0  0  0  0  0  0  0  0
  192.8700  176.9180  144.8340 C   0  0  0  0  0  2  0  0  0  0  0  0
  193.5010  176.3360  146.0520 C   0  0  0  0  0  0  0  0  0  0  0  0
  194.1950  177.0620  146.8090 O   0  0  0  0  0  0  0  0  0  0  0  0
  193.2900  174.9670  146.3780 N   0  0  0  0  0  1  0  0  0  0  0  0
  1 13  1  0  0  0  0
  1 20  2  0  0  0  0
  2  1  1  0  0  0  0
  3  7  2  0  0  0  0
  4  2  1  0  0  0  0
  5 19  1  0  0  0  0
  6  9  2  0  0  0  0
  6 14  1  0  0  0  0
  7 20  1  0  0  0  0
  8 16  1  0  0  0  0
  8  4  2  0  0  0  0
  9  8  1  0  0  0  0
 10 11  1  1  0  0  0
 12  5  1  0  0  0  0
 13 19  1  0  0  0  0
 14 18  2  0  0  0  0
 15  2  1  0  0  0  0
 15  3  1  0  0  0  0
 16 15  2  0  0  0  0
 17 10  1  0  0  0  0
 18  4  1  0  0  0  0
 19 17  2  0  0  0  0
 20 10  1  0  0  0  0
 21 12  2  0  0  0  0
 22 12  1  0  0  0  0
 22 23  1  0  0  0  0
 23 25  1  0  0  0  0
 23 24  2  0  0  0  0
M  END
>  <MODEL>
2

>  <REMARK>
 VINA RESULT:      -7.0      2.917      5.239
  Name = 
  2 active torsions:
  status: ('A' for Active; 'I' for Inactive)
    1  A    between atoms: C_2  and  C_21
    2  A    between atoms: C_15  and  C_21
                            x       y       z     vdW  Elec       q    Type
                         _______ _______ _______ _____ _____    ______ ____

>  <TORSDO>
F 2

$$$$
=
 OpenBabel11052417303D

 25 28  0  0  1  0  0  0  0  0999 V2000
  188.2520  177.4860  143.8410 C   0  0  0  0  0  0  0  0  0  0  0  0
  188.7190  177.3770  145.1140 N   0  0  0  0  0  0  0  0  0  0  0  0
  186.6520  178.1160  146.0310 C   0  0  0  0  0  3  0  0  0  0  0  0
  189.9040  177.0120  145.6260 C   0  0  0  0  0  0  0  0  0  0  0  0
  188.1880  174.8650  141.0510 N   0  0  0  0  0  2  0  0  0  0  0  0
  192.0940  176.3630  147.1860 C   0  0  0  0  0  3  0  0  0  0  0  0
  186.1550  178.2020  144.7620 N   0  0  0  0  0  0  0  0  0  0  0  0
  189.8260  177.1080  146.9920 C   0  0  0  0  0  0  0  0  0  0  0  0
  190.9070  176.7910  147.8110 C   0  0  0  0  0  3  0  0  0  0  0  0
  186.3470  177.8710  142.2690 C   0  0  2  0  0  3  0  0  0  0  0  0
  184.8340  178.0170  142.2550 C   0  0  0  0  0  1  0  0  0  0  0  0
  189.4370  174.1650  140.9970 C   0  0  0  0  0  0  0  0  0  0  0  0
  189.2560  177.1370  142.3880 S   0  0  0  0  0  0  0  0  0  0  0  0
  192.1710  176.2640  145.7790 C   0  0  0  0  0  3  0  0  0  0  0  0
  187.9650  177.6850  146.1930 C   0  0  0  0  0  0  0  0  0  0  0  0
  188.6050  177.5350  147.3810 N   0  0  0  0  0  0  0  0  0  0  0  0
  186.7210  176.6160  141.6130 N   0  0  0  0  0  0  0  0  0  0  0  0
  191.0630  176.5910  144.9750 C   0  0  0  0  0  3  0  0  0  0  0  0
  187.9410  176.1610  141.6140 C   0  0  0  0  0  0  0  0  0  0  0  0
  186.9170  177.8920  143.6660 C   0  0  0  0  0  0  0  0  0  0  0  0
  190.4920  174.6650  141.4700 O   0  0  0  0  0  0  0  0  0  0  0  0
  189.4940  172.8290  140.3420 C   0  0  0  0  0  2  0  0  0  0  0  0
  190.2070  171.8550  141.2160 C   0  0  0  0  0  0  0  0  0  0  0  0
  191.2810  171.3280  140.8260 O   0  0  0  0  0  0  0  0  0  0  0  0
  189.6920  171.5480  142.5060 N   0  0  0  0  0  1  0  0  0  0  0  0
  1  2  1  0  0  0  0
  2  4  1  0  0  0  0
  2 15  1  0  0  0  0
  3 15  1  0  0  0  0
  4  8  1  0  0  0  0
  5 19  1  0  0  0  0
  6  9  1  0  0  0  0
  7  3  2  0  0  0  0
  8 16  1  0  0  0  0
  8  9  2  0  0  0  0
 10 11  1  1  0  0  0
 10 20  1  0  0  0  0
 12  5  1  0  0  0  0
 12 21  2  0  0  0  0
 13  1  1  0  0  0  0
 14  6  2  0  0  0  0
 15 16  2  0  0  0  0
 17 19  2  0  0  0  0
 17 10  1  0  0  0  0
 18  4  2  0  0  0  0
 18 14  1  0  0  0  0
 19 13  1  0  0  0  0
 20  1  2  0  0  0  0
 20  7  1  0  0  0  0
 22 12  1  0  0  0  0
 22 23  1  0  0  0  0
 23 25  1  0  0  0  0
 24 23  2  0  0  0  0
M  END
>  <MODEL>
3

>  <REMARK>
 VINA RESULT:      -6.7      2.547      3.693
  Name = 
  2 active torsions:
  status: ('A' for Active; 'I' for Inactive)
    1  A    between atoms: C_2  and  C_21
    2  A    between atoms: C_15  and  C_21
                            x       y       z     vdW  Elec       q    Type
                         _______ _______ _______ _____ _____    ______ ____

>  <TORSDO>
F 2

$$$$
=
 OpenBabel11052417303D

 25 28  0  0  1  0  0  0  0  0999 V2000
  190.5990  174.7990  143.3310 C   0  0  0  0  0  0  0  0  0  0  0  0
  191.8730  175.1880  143.6090 N   0  0  0  0  0  0  0  0  0  0  0  0
  192.6280  174.5800  141.4370 C   0  0  0  0  0  3  0  0  0  0  0  0
  192.4560  175.6940  144.7060 C   0  0  0  0  0  0  0  0  0  0  0  0
  187.3380  176.7790  143.6520 N   0  0  0  0  0  2  0  0  0  0  0  0
  194.1330  176.7320  146.6450 C   0  0  0  0  0  3  0  0  0  0  0  0
  191.3500  174.2140  141.1280 N   0  0  0  0  0  0  0  0  0  0  0  0
  193.7870  175.8810  144.4340 C   0  0  0  0  0  0  0  0  0  0  0  0
  194.6630  176.4010  145.3830 C   0  0  0  0  0  3  0  0  0  0  0  0
  188.8950  174.0260  141.6740 C   0  0  2  0  0  3  0  0  0  0  0  0
  188.7020  173.8250  140.1800 C   0  0  0  0  0  1  0  0  0  0  0  0
  187.3120  177.4970  144.8910 C   0  0  0  0  0  0  0  0  0  0  0  0
  189.2590  174.8750  144.5310 S   0  0  0  0  0  0  0  0  0  0  0  0
  192.7610  176.5390  146.9230 C   0  0  0  0  0  3  0  0  0  0  0  0
  192.8770  175.0830  142.7100 C   0  0  0  0  0  0  0  0  0  0  0  0
  194.0840  175.5000  143.1720 N   0  0  0  0  0  0  0  0  0  0  0  0
  188.0470  175.1300  142.1300 N   0  0  0  0  0  0  0  0  0  0  0  0
  191.8990  176.0120  145.9440 C   0  0  0  0  0  3  0  0  0  0  0  0
  188.1220  175.6200  143.3340 C   0  0  0  0  0  0  0  0  0  0  0  0
  190.3300  174.3170  142.0380 C   0  0  0  0  0  0  0  0  0  0  0  0
  188.0210  177.1450  145.8700 O   0  0  0  0  0  0  0  0  0  0  0  0
  186.4040  178.6690  145.0330 C   0  0  0  0  0  2  0  0  0  0  0  0
  185.6000  178.5520  146.2820 C   0  0  0  0  0  0  0  0  0  0  0  0
  185.8280  179.3200  147.2520 O   0  0  0  0  0  0  0  0  0  0  0  0
  184.5510  177.5940  146.3660 N   0  0  0  0  0  1  0  0  0  0  0  0
  1  2  1  0  0  0  0
  1 13  1  0  0  0  0
  2  4  1  0  0  0  0
  3 15  1  0  0  0  0
  4 18  1  0  0  0  0
  5 12  1  0  0  0  0
  6 14  1  0  0  0  0
  7  3  2  0  0  0  0
  7 20  1  0  0  0  0
  8  4  2  0  0  0  0
  8  9  1  0  0  0  0
  9  6  2  0  0  0  0
 10 11  1  6  0  0  0
 10 20  1  0  0  0  0
 10 17  1  0  0  0  0
 12 22  1  0  0  0  0
 12 21  2  0  0  0  0
 15 16  2  0  0  0  0
 15  2  1  0  0  0  0
 16  8  1  0  0  0  0
 17 19  2  0  0  0  0
 18 14  2  0  0  0  0
 19  5  1  0  0  0  0
 19 13  1  0  0  0  0
 20  1  2  0  0  0  0
 22 23  1  0  0  0  0
 23 25  1  0  0  0  0
 23 24  2  0  0  0  0
M  END
>  <MODEL>
4

>  <REMARK>
 VINA RESULT:      -6.7      3.655      6.992
  Name = 
  2 active torsions:
  status: ('A' for Active; 'I' for Inactive)
    1  A    between atoms: C_2  and  C_21
    2  A    between atoms: C_15  and  C_21
                            x       y       z     vdW  Elec       q    Type
                         _______ _______ _______ _____ _____    ______ ____

>  <TORSDO>
F 2

$$$$
=
 OpenBabel11052417303D

 25 28  0  0  1  0  0  0  0  0999 V2000
  188.8330  177.1270  144.5020 C   0  0  0  0  0  0  0  0  0  0  0  0
  189.7990  176.9060  145.4340 N   0  0  0  0  0  0  0  0  0  0  0  0
  188.3490  177.5250  147.2150 C   0  0  0  0  0  3  0  0  0  0  0  0
  191.0790  176.5120  145.3500 C   0  0  0  0  0  0  0  0  0  0  0  0
  187.5030  174.7800  141.7860 N   0  0  0  0  0  2  0  0  0  0  0  0
  193.7080  175.7510  145.7470 C   0  0  0  0  0  3  0  0  0  0  0  0
  187.3580  177.7230  146.2980 N   0  0  0  0  0  0  0  0  0  0  0  0
  191.5990  176.4780  146.6180 C   0  0  0  0  0  0  0  0  0  0  0  0
  192.9180  176.1010  146.8590 C   0  0  0  0  0  3  0  0  0  0  0  0
  186.4490  177.6310  143.9480 C   0  0  2  0  0  3  0  0  0  0  0  0
  185.0820  177.7560  144.6010 C   0  0  0  0  0  1  0  0  0  0  0  0
  188.5870  174.1070  141.1360 C   0  0  0  0  0  0  0  0  0  0  0  0
  189.1040  176.9320  142.7330 S   0  0  0  0  0  0  0  0  0  0  0  0
  193.1690  175.7870  144.4410 C   0  0  0  0  0  3  0  0  0  0  0  0
  189.5920  177.1000  146.7560 C   0  0  0  0  0  0  0  0  0  0  0  0
  190.6770  176.8490  147.5320 N   0  0  0  0  0  0  0  0  0  0  0  0
  186.4690  176.4490  143.0830 N   0  0  0  0  0  0  0  0  0  0  0  0
  191.8330  176.1710  144.2270 C   0  0  0  0  0  3  0  0  0  0  0  0
  187.5570  176.0140  142.5170 C   0  0  0  0  0  0  0  0  0  0  0  0
  187.5650  177.5290  144.9580 C   0  0  0  0  0  0  0  0  0  0  0  0
  189.7560  174.5750  141.1510 O   0  0  0  0  0  0  0  0  0  0  0  0
  188.3200  172.8390  140.4010 C   0  0  0  0  0  2  0  0  0  0  0  0
  188.5490  173.0300  138.9420 C   0  0  0  0  0  0  0  0  0  0  0  0
  188.0200  174.0020  138.3430 O   0  0  0  0  0  0  0  0  0  0  0  0
  189.3950  172.1340  138.2310 N   0  0  0  0  0  1  0  0  0  0  0  0
  1 20  2  0  0  0  0
  1  2  1  0  0  0  0
  2 15  1  0  0  0  0
  4  2  1  0  0  0  0
  4  8  1  0  0  0  0
  5 19  1  0  0  0  0
  6  9  1  0  0  0  0
  7  3  2  0  0  0  0
  8  9  2  0  0  0  0
  8 16  1  0  0  0  0
 10 11  1  1  0  0  0
 10 20  1  0  0  0  0
 12 21  2  0  0  0  0
 12  5  1  0  0  0  0
 13  1  1  0  0  0  0
 14  6  2  0  0  0  0
 15  3  1  0  0  0  0
 15 16  2  0  0  0  0
 17 10  1  0  0  0  0
 18 14  1  0  0  0  0
 18  4  2  0  0  0  0
 19 13  1  0  0  0  0
 19 17  2  0  0  0  0
 20  7  1  0  0  0  0
 22 12  1  0  0  0  0
 23 22  1  0  0  0  0
 24 23  2  0  0  0  0
 25 23  1  0  0  0  0
M  END
>  <MODEL>
5

>  <REMARK>
 VINA RESULT:      -6.6      3.448      5.146
  Name = 
  2 active torsions:
  status: ('A' for Active; 'I' for Inactive)
    1  A    between atoms: C_2  and  C_21
    2  A    between atoms: C_15  and  C_21
                            x       y       z     vdW  Elec       q    Type
                         _______ _______ _______ _____ _____    ______ ____

>  <TORSDO>
F 2

$$$$
=
 OpenBabel11052417303D

 25 28  0  0  1  0  0  0  0  0999 V2000
  187.3440  177.1450  143.1500 C   0  0  0  0  0  0  0  0  0  0  0  0
  187.3130  176.7840  144.4610 N   0  0  0  0  0  0  0  0  0  0  0  0
  185.1510  177.7270  144.7640 C   0  0  0  0  0  3  0  0  0  0  0  0
  188.1920  176.1560  145.2570 C   0  0  0  0  0  0  0  0  0  0  0  0
  187.9840  174.9860  140.0540 N   0  0  0  0  0  2  0  0  0  0  0  0
  189.6010  174.9370  147.3010 C   0  0  0  0  0  3  0  0  0  0  0  0
  185.1490  178.0710  143.4430 N   0  0  0  0  0  0  0  0  0  0  0  0
  187.6460  176.0730  146.5130 C   0  0  0  0  0  0  0  0  0  0  0  0
  188.3240  175.4680  147.5670 C   0  0  0  0  0  3  0  0  0  0  0  0
  186.1740  178.0620  141.1390 C   0  0  2  0  0  3  0  0  0  0  0  0
  184.7910  178.4620  140.6540 C   0  0  0  0  0  1  0  0  0  0  0  0
  189.0860  174.1000  140.2850 C   0  0  0  0  0  0  0  0  0  0  0  0
  188.7520  176.8370  142.0720 S   0  0  0  0  0  0  0  0  0  0  0  0
  190.1610  175.0230  146.0070 C   0  0  0  0  0  3  0  0  0  0  0  0
  186.2650  177.0620  145.2680 C   0  0  0  0  0  0  0  0  0  0  0  0
  186.4220  176.6430  146.5490 N   0  0  0  0  0  0  0  0  0  0  0  0
  186.6160  176.8650  140.4190 N   0  0  0  0  0  0  0  0  0  0  0  0
  189.4530  175.6400  144.9590 C   0  0  0  0  0  3  0  0  0  0  0  0
  187.6970  176.2140  140.7370 C   0  0  0  0  0  0  0  0  0  0  0  0
  186.2110  177.7920  142.6230 C   0  0  0  0  0  0  0  0  0  0  0  0
  189.9530  174.3430  141.1650 O   0  0  0  0  0  0  0  0  0  0  0  0
  189.2230  172.8770  139.4460 C   0  0  0  0  0  2  0  0  0  0  0  0
  189.7070  173.2380  138.0840 C   0  0  0  0  0  0  0  0  0  0  0  0
  188.9040  173.2590  137.1150 O   0  0  0  0  0  0  0  0  0  0  0  0
  191.0710  173.5930  137.8840 N   0  0  0  0  0  1  0  0  0  0  0  0
  1  2  1  0  0  0  0
  2  4  1  0  0  0  0
  2 15  1  0  0  0  0
  3 15  1  0  0  0  0
  4  8  1  0  0  0  0
  5 12  1  0  0  0  0
  5 19  1  0  0  0  0
  6  9  1  0  0  0  0
  7  3  2  0  0  0  0
  8 16  1  0  0  0  0
  8  9  2  0  0  0  0
 10 11  1  6  0  0  0
 10 20  1  0  0  0  0
 12 21  2  0  0  0  0
 13  1  1  0  0  0  0
 14  6  2  0  0  0  0
 15 16  2  0  0  0  0
 17 19  2  0  0  0  0
 17 10  1  0  0  0  0
 18  4  2  0  0  0  0
 18 14  1  0  0  0  0
 19 13  1  0  0  0  0
 20  1  2  0  0  0  0
 20  7  1  0  0  0  0
 22 12  1  0  0  0  0
 23 22  1  0  0  0  0
 24 23  2  0  0  0  0
 25 23  1  0  0  0  0
M  END
>  <MODEL>
6

>  <REMARK>
 VINA RESULT:      -6.6      2.629      3.333
  Name = 
  2 active torsions:
  status: ('A' for Active; 'I' for Inactive)
    1  A    between atoms: C_2  and  C_21
    2  A    between atoms: C_15  and  C_21
                            x       y       z     vdW  Elec       q    Type
                         _______ _______ _______ _____ _____    ______ ____

>  <TORSDO>
F 2

$$$$
=
 OpenBabel11052417303D

 25 28  0  0  1  0  0  0  0  0999 V2000
  186.9200  178.0480  143.0060 C   0  0  0  0  0  0  0  0  0  0  0  0
  186.9720  178.0350  144.3660 N   0  0  0  0  0  0  0  0  0  0  0  0
  184.6950  178.6970  144.5490 C   0  0  0  0  0  3  0  0  0  0  0  0
  187.9530  177.7680  145.2410 C   0  0  0  0  0  0  0  0  0  0  0  0
  187.8320  175.2850  140.5190 N   0  0  0  0  0  2  0  0  0  0  0  0
  189.5740  177.3340  147.4400 C   0  0  0  0  0  3  0  0  0  0  0  0
  184.6140  178.6860  143.1870 N   0  0  0  0  0  0  0  0  0  0  0  0
  187.4510  177.9310  146.5070 C   0  0  0  0  0  0  0  0  0  0  0  0
  188.2350  177.7220  147.6390 C   0  0  0  0  0  3  0  0  0  0  0  0
  185.5840  178.2360  140.9020 C   0  0  2  0  0  3  0  0  0  0  0  0
  184.1460  178.2910  140.4140 C   0  0  0  0  0  1  0  0  0  0  0  0
  189.0630  174.6590  140.9000 C   0  0  0  0  0  0  0  0  0  0  0  0
  188.3390  177.6840  141.9600 S   0  0  0  0  0  0  0  0  0  0  0  0
  190.0880  177.1660  146.1350 C   0  0  0  0  0  3  0  0  0  0  0  0
  185.9080  178.3540  145.1370 C   0  0  0  0  0  0  0  0  0  0  0  0
  186.1530  178.3050  146.4710 N   0  0  0  0  0  0  0  0  0  0  0  0
  186.1930  176.9730  140.4800 N   0  0  0  0  0  0  0  0  0  0  0  0
  189.2730  177.3840  145.0090 C   0  0  0  0  0  3  0  0  0  0  0  0
  187.3690  176.5920  140.8880 C   0  0  0  0  0  0  0  0  0  0  0  0
  185.6900  178.3650  142.4020 C   0  0  0  0  0  0  0  0  0  0  0  0
  189.8970  175.2440  141.6380 O   0  0  0  0  0  0  0  0  0  0  0  0
  189.3740  173.2950  140.3870 C   0  0  0  0  0  2  0  0  0  0  0  0
  189.3810  172.3120  141.5060 C   0  0  0  0  0  0  0  0  0  0  0  0
  188.4540  172.3200  142.3570 O   0  0  0  0  0  0  0  0  0  0  0  0
  190.4170  171.3400  141.5930 N   0  0  0  0  0  1  0  0  0  0  0  0
  1  2  1  0  0  0  0
  2 15  1  0  0  0  0
  2  4  1  0  0  0  0
  3 15  1  0  0  0  0
  4  8  1  0  0  0  0
  5 19  1  0  0  0  0
  5 12  1  0  0  0  0
  6  9  1  0  0  0  0
  7  3  2  0  0  0  0
  8  9  2  0  0  0  0
 10 11  1  1  0  0  0
 10 20  1  0  0  0  0
 12 21  2  0  0  0  0
 13  1  1  0  0  0  0
 14  6  2  0  0  0  0
 15 16  2  0  0  0  0
 16  8  1  0  0  0  0
 17 19  2  0  0  0  0
 17 10  1  0  0  0  0
 18  4  2  0  0  0  0
 18 14  1  0  0  0  0
 19 13  1  0  0  0  0
 20  1  2  0  0  0  0
 20  7  1  0  0  0  0
 22 12  1  0  0  0  0
 22 23  1  0  0  0  0
 23 25  1  0  0  0  0
 23 24  2  0  0  0  0
M  END
>  <MODEL>
7

>  <REMARK>
 VINA RESULT:      -6.6      1.820      2.453
  Name = 
  2 active torsions:
  status: ('A' for Active; 'I' for Inactive)
    1  A    between atoms: C_2  and  C_21
    2  A    between atoms: C_15  and  C_21
                            x       y       z     vdW  Elec       q    Type
                         _______ _______ _______ _____ _____    ______ ____

>  <TORSDO>
F 2

$$$$
=
 OpenBabel11052417303D

 25 28  0  0  1  0  0  0  0  0999 V2000
  188.4890  175.7660  144.7650 C   0  0  0  0  0  0  0  0  0  0  0  0
  188.3300  175.6130  143.4220 N   0  0  0  0  0  0  0  0  0  0  0  0
  186.6580  177.3040  143.3380 C   0  0  0  0  0  3  0  0  0  0  0  0
  188.8960  174.7970  142.5210 C   0  0  0  0  0  0  0  0  0  0  0  0
  191.6830  176.4430  146.7640 N   0  0  0  0  0  2  0  0  0  0  0  0
  189.7170  173.3830  140.2910 C   0  0  0  0  0  3  0  0  0  0  0  0
  186.8260  177.4940  144.6790 N   0  0  0  0  0  0  0  0  0  0  0  0
  188.3360  175.0600  141.2970 C   0  0  0  0  0  0  0  0  0  0  0  0
  188.7230  174.3690  140.1510 C   0  0  0  0  0  3  0  0  0  0  0  0
  188.0020  177.0340  146.8630 C   0  0  2  0  0  3  0  0  0  0  0  0
  187.3500  178.3200  147.3450 C   0  0  0  0  0  1  0  0  0  0  0  0
  192.7510  175.6130  146.2920 C   0  0  0  0  0  0  0  0  0  0  0  0
  189.6230  174.7680  145.7450 S   0  0  0  0  0  0  0  0  0  0  0  0
  190.2930  173.1140  141.5530 C   0  0  0  0  0  3  0  0  0  0  0  0
  187.4420  176.3410  142.7090 C   0  0  0  0  0  0  0  0  0  0  0  0
  187.4070  176.0360  141.3860 N   0  0  0  0  0  0  0  0  0  0  0  0
  189.4490  177.1140  147.0730 N   0  0  0  0  0  0  0  0  0  0  0  0
  189.8830  173.8280  142.6940 C   0  0  0  0  0  3  0  0  0  0  0  0
  190.2740  176.2180  146.6140 C   0  0  0  0  0  0  0  0  0  0  0  0
  187.7240  176.7570  145.4060 C   0  0  0  0  0  0  0  0  0  0  0  0
  192.5260  174.5440  145.6660 O   0  0  0  0  0  0  0  0  0  0  0  0
  194.1590  176.0100  146.5730 C   0  0  0  0  0  2  0  0  0  0  0  0
  194.6780  176.8800  145.4810 C   0  0  0  0  0  0  0  0  0  0  0  0
  194.9310  178.0920  145.7070 O   0  0  0  0  0  0  0  0  0  0  0  0
  194.9210  176.3330  144.1900 N   0  0  0  0  0  1  0  0  0  0  0  0
  1 20  2  0  0  0  0
  1 13  1  0  0  0  0
  2  1  1  0  0  0  0
  3  7  2  0  0  0  0
  4 18  1  0  0  0  0
  4  2  1  0  0  0  0
  6 14  1  0  0  0  0
  7 20  1  0  0  0  0
  8 16  1  0  0  0  0
  8  4  2  0  0  0  0
  9  6  2  0  0  0  0
  9  8  1  0  0  0  0
 10 17  1  0  0  0  0
 10 11  1  6  0  0  0
 12 22  1  0  0  0  0
 12  5  1  0  0  0  0
 13 19  1  0  0  0  0
 14 18  2  0  0  0  0
 15  3  1  0  0  0  0
 15  2  1  0  0  0  0
 16 15  2  0  0  0  0
 19  5  1  0  0  0  0
 19 17  2  0  0  0  0
 20 10  1  0  0  0  0
 21 12  2  0  0  0  0
 23 24  2  0  0  0  0
 23 22  1  0  0  0  0
 25 23  1  0  0  0  0
M  END
>  <MODEL>
8

>  <REMARK>
 VINA RESULT:      -6.5      3.578      6.016
  Name = 
  2 active torsions:
  status: ('A' for Active; 'I' for Inactive)
    1  A    between atoms: C_2  and  C_21
    2  A    between atoms: C_15  and  C_21
                            x       y       z     vdW  Elec       q    Type
                         _______ _______ _______ _____ _____    ______ ____

>  <TORSDO>
F 2

$$$$
=
 OpenBabel11052417303D

 25 28  0  0  1  0  0  0  0  0999 V2000
  190.4590  174.6240  142.6290 C   0  0  0  0  0  0  0  0  0  0  0  0
  191.6040  174.9290  143.2990 N   0  0  0  0  0  0  0  0  0  0  0  0
  192.9640  174.1320  141.5170 C   0  0  0  0  0  3  0  0  0  0  0  0
  191.8430  175.4550  144.5090 C   0  0  0  0  0  0  0  0  0  0  0  0
  187.4690  176.8650  141.7940 N   0  0  0  0  0  2  0  0  0  0  0  0
  192.8870  176.4780  146.8560 C   0  0  0  0  0  3  0  0  0  0  0  0
  191.8270  173.8480  140.8170 N   0  0  0  0  0  0  0  0  0  0  0  0
  193.2010  175.5220  144.6840 C   0  0  0  0  0  0  0  0  0  0  0  0
  193.7650  176.0310  145.8510 C   0  0  0  0  0  3  0  0  0  0  0  0
  189.3210  173.8840  140.5300 C   0  0  2  0  0  3  0  0  0  0  0  0
  189.6070  173.6070  139.0630 C   0  0  0  0  0  1  0  0  0  0  0  0
  187.1090  177.6580  142.9310 C   0  0  0  0  0  0  0  0  0  0  0  0
  188.8150  174.8760  143.3180 S   0  0  0  0  0  0  0  0  0  0  0  0
  191.4880  176.4090  146.6740 C   0  0  0  0  0  3  0  0  0  0  0  0
  192.8310  174.6920  142.7840 C   0  0  0  0  0  0  0  0  0  0  0  0
  193.8550  175.0420  143.6030 N   0  0  0  0  0  0  0  0  0  0  0  0
  188.4780  175.0760  140.6450 N   0  0  0  0  0  0  0  0  0  0  0  0
  190.9460  175.8910  145.4840 C   0  0  0  0  0  3  0  0  0  0  0  0
  188.2020  175.6310  141.7900 C   0  0  0  0  0  0  0  0  0  0  0  0
  190.5810  174.0850  141.3360 C   0  0  0  0  0  0  0  0  0  0  0  0
  187.4250  177.3130  144.1000 O   0  0  0  0  0  0  0  0  0  0  0  0
  186.3170  178.9030  142.7270 C   0  0  0  0  0  2  0  0  0  0  0  0
  184.9850  178.7800  143.3820 C   0  0  0  0  0  0  0  0  0  0  0  0
  184.1370  177.9640  142.9370 O   0  0  0  0  0  0  0  0  0  0  0  0
  184.6830  179.5600  144.5330 N   0  0  0  0  0  1  0  0  0  0  0  0
  1  2  1  0  0  0  0
  1 13  1  0  0  0  0
  2  4  1  0  0  0  0
  3 15  1  0  0  0  0
  4  8  2  0  0  0  0
  4 18  1  0  0  0  0
  5 12  1  0  0  0  0
  7 20  1  0  0  0  0
  7  3  2  0  0  0  0
  8  9  1  0  0  0  0
  9  6  2  0  0  0  0
 10 11  1  6  0  0  0
 10 17  1  0  0  0  0
 10 20  1  0  0  0  0
 12 21  2  0  0  0  0
 14  6  1  0  0  0  0
 15  2  1  0  0  0  0
 15 16  2  0  0  0  0
 16  8  1  0  0  0  0
 17 19  2  0  0  0  0
 18 14  2  0  0  0  0
 19  5  1  0  0  0  0
 19 13  1  0  0  0  0
 20  1  2  0  0  0  0
 22 12  1  0  0  0  0
 22 23  1  0  0  0  0
 23 25  1  0  0  0  0
 24 23  2  0  0  0  0
M  END
>  <MODEL>
9

>  <REMARK>
 VINA RESULT:      -6.3      3.385      6.830
  Name = 
  2 active torsions:
  status: ('A' for Active; 'I' for Inactive)
    1  A    between atoms: C_2  and  C_21
    2  A    between atoms: C_15  and  C_21
                            x       y       z     vdW  Elec       q    Type
                         _______ _______ _______ _____ _____    ______ ____

>  <TORSDO>
F 2

$$$$
