=
 OpenBabel11052420553D

 43 49  0  0  1  0  0  0  0  0999 V2000
  196.1630  173.7530  145.7500 C   0  0  0  0  0  0  0  0  0  0  0  0
  191.3630  175.2240  145.3420 C   0  0  0  0  0  0  0  0  0  0  0  0
  189.8270  172.9550  144.4000 C   0  0  1  0  0  3  0  0  0  0  0  0
  194.0970  175.0100  145.8240 C   0  0  0  0  0  0  0  0  0  0  0  0
  195.4810  172.6610  145.2010 C   0  0  0  0  0  3  0  0  0  0  0  0
  197.5280  173.6700  145.9850 O   0  0  0  0  0  1  0  0  0  0  0  0
  193.4030  173.9130  145.2690 C   0  0  0  0  0  0  0  0  0  0  0  0
  195.4700  174.9260  146.0620 C   0  0  0  0  0  3  0  0  0  0  0  0
  194.1060  172.7400  144.9620 C   0  0  0  0  0  3  0  0  0  0  0  0
  191.2850  172.9230  144.4790 N   0  0  0  0  0  2  0  0  0  0  0  0
  192.0230  174.0150  145.0420 C   0  0  0  0  0  0  0  0  0  0  0  0
  192.0620  176.2550  145.8960 N   0  0  0  0  0  0  0  0  0  0  0  0
  189.8730  175.3490  145.1350 C   0  0  2  0  0  3  0  0  0  0  0  0
  189.3730  174.3750  144.0640 C   0  0  0  0  0  2  0  0  0  0  0  0
  193.3970  176.1750  146.1360 C   0  0  0  0  0  3  0  0  0  0  0  0
  189.3280  171.9580  143.3530 C   0  0  1  0  0  3  0  0  0  0  0  0
  188.5050  172.6660  142.2940 C   0  0  0  0  0  2  0  0  0  0  0  0
  190.4980  171.3670  142.5940 C   0  0  0  0  0  2  0  0  0  0  0  0
  189.3730  172.9220  141.1570 N   0  0  0  0  0  0  0  0  0  0  0  0
  190.3380  171.8340  141.1620 C   0  0  0  0  0  2  0  0  0  0  0  0
  188.5610  172.7710  139.9610 C   0  0  0  0  0  2  0  0  0  0  0  0
  188.9410  173.8320  138.9320 C   0  0  2  0  0  3  0  0  0  0  0  0
  189.1900  174.1090  136.6520 O   0  0  0  0  0  0  0  0  0  0  0  0
  187.8160  174.5090  138.4840 O   0  0  0  0  0  0  0  0  0  0  0  0
  189.5970  173.2760  137.6950 C   0  0  1  0  0  0  0  0  0  0  0  0
  191.1070  173.3380  137.8600 C   0  0  0  0  0  1  0  0  0  0  0  0
  188.1690  174.9190  137.1890 C   0  0  0  0  0  2  0  0  0  0  0  0
  189.1680  171.9310  137.4400 O   0  0  0  0  0  0  0  0  0  0  0  0
  189.9690  170.9220  136.8840 C   0  0  0  0  0  0  0  0  0  0  0  0
  191.2120  169.9470  135.0360 C   0  0  0  0  0  3  0  0  0  0  0  0
  191.1270  168.8080  137.1700 C   0  0  0  0  0  3  0  0  0  0  0  0
  191.5680  168.8650  135.8450 C   0  0  0  0  0  3  0  0  0  0  0  0
  190.3300  169.8340  137.6860 C   0  0  0  0  0  3  0  0  0  0  0  0
  190.4150  170.9730  135.5530 C   0  0  0  0  0  3  0  0  0  0  0  0
  189.5270  176.7130  144.7530 N   0  0  0  0  0  2  0  0  0  0  0  0
  186.0910  177.5990  145.9500 C   0  0  0  0  0  3  0  0  0  0  0  0
  185.5980  178.2860  144.8360 C   0  0  0  0  0  0  0  0  0  0  0  0
  187.6940  177.9150  143.6820 C   0  0  0  0  0  3  0  0  0  0  0  0
  187.3870  177.0770  145.9310 C   0  0  0  0  0  3  0  0  0  0  0  0
  188.1950  177.2330  144.7950 C   0  0  0  0  0  0  0  0  0  0  0  0
  186.3980  178.4380  143.7000 C   0  0  0  0  0  3  0  0  0  0  0  0
  183.6870  178.7500  146.1370 O   0  0  0  0  0  1  0  0  0  0  0  0
  184.2100  178.8210  144.8470 C   0  0  0  0  0  2  0  0  0  0  0  0
  1  6  1  0  0  0  0
  1  8  1  0  0  0  0
  2 12  1  0  0  0  0
  3 14  1  6  0  0  0
  3 10  1  0  0  0  0
  4  8  2  0  0  0  0
  4 15  1  0  0  0  0
  5  1  2  0  0  0  0
  7  4  1  0  0  0  0
  9  5  1  0  0  0  0
  9  7  2  0  0  0  0
 10 11  1  0  0  0  0
 11  7  1  0  0  0  0
 11  2  2  0  0  0  0
 12 15  2  0  0  0  0
 13 35  1  6  0  0  0
 13  2  1  0  0  0  0
 14 13  1  0  0  0  0
 16 17  1  6  0  0  0
 16  3  1  0  0  0  0
 18 16  1  0  0  0  0
 19 20  1  0  0  0  0
 19 17  1  0  0  0  0
 20 18  1  0  0  0  0
 21 19  1  0  0  0  0
 22 21  1  1  0  0  0
 23 27  1  0  0  0  0
 23 25  1  0  0  0  0
 24 22  1  0  0  0  0
 25 26  1  1  0  0  0
 25 22  1  0  0  0  0
 27 24  1  0  0  0  0
 28 25  1  0  0  0  0
 29 28  1  0  0  0  0
 29 33  1  0  0  0  0
 30 34  1  0  0  0  0
 30 32  2  0  0  0  0
 31 33  2  0  0  0  0
 32 31  1  0  0  0  0
 34 29  2  0  0  0  0
 35 40  1  0  0  0  0
 37 43  1  0  0  0  0
 37 36  2  0  0  0  0
 38 41  2  0  0  0  0
 38 40  1  0  0  0  0
 39 36  1  0  0  0  0
 40 39  2  0  0  0  0
 41 37  1  0  0  0  0
 43 42  1  0  0  0  0
M  END
>  <MODEL>
1

>  <REMARK>
 VINA RESULT:      -8.6      0.000      0.000
  Name = 
  8 active torsions:
  status: ('A' for Active; 'I' for Inactive)
    1  A    between atoms: N_1  and  C_34
    2  A    between atoms: N_1  and  C_35
    3  A    between atoms: C_2  and  C_13
    4  A    between atoms: C_3  and  C_4
    5  A    between atoms: C_3  and  N_12
    6  A    between atoms: C_11  and  O_14
    7  A    between atoms: O_14  and  C_22
    8  A    between atoms: C_19  and  C_37
                            x       y       z     vdW  Elec       q    Type
                         _______ _______ _______ _____ _____    ______ ____

>  <TORSDO>
F 8

$$$$
=
 OpenBabel11052420553D

 43 49  0  0  1  0  0  0  0  0999 V2000
  184.9930  178.0750  145.6940 C   0  0  0  0  0  0  0  0  0  0  0  0
  189.5850  176.0900  145.1090 C   0  0  0  0  0  0  0  0  0  0  0  0
  189.7640  175.0740  142.4020 C   0  0  1  0  0  3  0  0  0  0  0  0
  187.2850  177.3680  146.0170 C   0  0  0  0  0  0  0  0  0  0  0  0
  184.9990  177.5120  144.4130 C   0  0  0  0  0  3  0  0  0  0  0  0
  183.8520  178.7040  146.1690 O   0  0  0  0  0  1  0  0  0  0  0  0
  187.2970  176.7970  144.7260 C   0  0  0  0  0  0  0  0  0  0  0  0
  186.1370  178.0030  146.4950 C   0  0  0  0  0  3  0  0  0  0  0  0
  186.1460  176.8760  143.9300 C   0  0  0  0  0  3  0  0  0  0  0  0
  188.5100  175.5760  142.9590 N   0  0  0  0  0  2  0  0  0  0  0  0
  188.4610  176.1680  144.2620 C   0  0  0  0  0  0  0  0  0  0  0  0
  189.5440  176.6710  146.3420 N   0  0  0  0  0  0  0  0  0  0  0  0
  190.8600  175.4440  144.6230 C   0  0  2  0  0  3  0  0  0  0  0  0
  190.5840  174.4230  143.5150 C   0  0  0  0  0  2  0  0  0  0  0  0
  188.4310  177.2960  146.8080 C   0  0  0  0  0  3  0  0  0  0  0  0
  189.4850  174.0790  141.2740 C   0  0  1  0  0  3  0  0  0  0  0  0
  190.7750  173.6930  140.5750 C   0  0  0  0  0  2  0  0  0  0  0  0
  188.9550  172.7790  141.8410 C   0  0  0  0  0  2  0  0  0  0  0  0
  191.2190  172.4270  141.1360 N   0  0  0  0  0  0  0  0  0  0  0  0
  190.0000  171.7320  141.5190 C   0  0  0  0  0  2  0  0  0  0  0  0
  191.8220  171.6710  140.0510 C   0  0  0  0  0  2  0  0  0  0  0  0
  193.1360  171.0490  140.5140 C   0  0  2  0  0  3  0  0  0  0  0  0
  195.2920  171.6410  141.0980 O   0  0  0  0  0  0  0  0  0  0  0  0
  193.2030  171.0120  141.9000 O   0  0  0  0  0  0  0  0  0  0  0  0
  194.3610  171.8070  140.0720 C   0  0  1  0  0  0  0  0  0  0  0  0
  194.8860  171.1980  138.7810 C   0  0  0  0  0  1  0  0  0  0  0  0
  194.5800  171.0620  142.1680 C   0  0  0  0  0  2  0  0  0  0  0  0
  194.0740  173.2010  139.8960 O   0  0  0  0  0  0  0  0  0  0  0  0
  194.6620  174.2430  140.6280 C   0  0  0  0  0  0  0  0  0  0  0  0
  194.7190  175.7640  142.5240 C   0  0  0  0  0  3  0  0  0  0  0  0
  196.4610  175.8580  140.8470 C   0  0  0  0  0  3  0  0  0  0  0  0
  195.8980  176.3310  142.0350 C   0  0  0  0  0  3  0  0  0  0  0  0
  195.8440  174.8170  140.1460 C   0  0  0  0  0  3  0  0  0  0  0  0
  194.1010  174.7240  141.8220 C   0  0  0  0  0  3  0  0  0  0  0  0
  191.5510  174.7890  145.7280 N   0  0  0  0  0  2  0  0  0  0  0  0
  194.8410  173.0360  145.3790 C   0  0  0  0  0  3  0  0  0  0  0  0
  195.7200  174.0590  145.7510 C   0  0  0  0  0  0  0  0  0  0  0  0
  193.8390  175.5410  146.1150 C   0  0  0  0  0  3  0  0  0  0  0  0
  193.4630  173.2690  145.3680 C   0  0  0  0  0  3  0  0  0  0  0  0
  192.9560  174.5240  145.7370 C   0  0  0  0  0  0  0  0  0  0  0  0
  195.2180  175.3080  146.1260 C   0  0  0  0  0  3  0  0  0  0  0  0
  197.7890  174.3680  144.6640 O   0  0  0  0  0  1  0  0  0  0  0  0
  197.1850  173.8040  145.7860 C   0  0  0  0  0  2  0  0  0  0  0  0
  1  6  1  0  0  0  0
  1  8  1  0  0  0  0
  2 12  1  0  0  0  0
  3 10  1  0  0  0  0
  3 14  1  1  0  0  0
  4  8  2  0  0  0  0
  4 15  1  0  0  0  0
  5  1  2  0  0  0  0
  7  4  1  0  0  0  0
  9  5  1  0  0  0  0
  9  7  2  0  0  0  0
 10 11  1  0  0  0  0
 11  7  1  0  0  0  0
 11  2  2  0  0  0  0
 12 15  2  0  0  0  0
 13  2  1  0  0  0  0
 13 35  1  1  0  0  0
 14 13  1  0  0  0  0
 16 17  1  1  0  0  0
 16 18  1  0  0  0  0
 16  3  1  0  0  0  0
 17 19  1  0  0  0  0
 19 20  1  0  0  0  0
 20 18  1  0  0  0  0
 21 19  1  0  0  0  0
 22 21  1  1  0  0  0
 22 24  1  0  0  0  0
 23 27  1  0  0  0  0
 24 27  1  0  0  0  0
 25 26  1  6  0  0  0
 25 22  1  0  0  0  0
 25 23  1  0  0  0  0
 28 25  1  0  0  0  0
 28 29  1  0  0  0  0
 29 34  1  0  0  0  0
 31 32  2  0  0  0  0
 32 30  1  0  0  0  0
 33 29  2  0  0  0  0
 33 31  1  0  0  0  0
 34 30  2  0  0  0  0
 35 40  1  0  0  0  0
 36 37  1  0  0  0  0
 37 43  1  0  0  0  0
 37 41  2  0  0  0  0
 38 41  1  0  0  0  0
 39 36  2  0  0  0  0
 39 40  1  0  0  0  0
 40 38  2  0  0  0  0
 42 43  1  0  0  0  0
M  END
>  <MODEL>
2

>  <REMARK>
 VINA RESULT:      -8.2      2.771      7.693
  Name = 
  8 active torsions:
  status: ('A' for Active; 'I' for Inactive)
    1  A    between atoms: N_1  and  C_34
    2  A    between atoms: N_1  and  C_35
    3  A    between atoms: C_2  and  C_13
    4  A    between atoms: C_3  and  C_4
    5  A    between atoms: C_3  and  N_12
    6  A    between atoms: C_11  and  O_14
    7  A    between atoms: O_14  and  C_22
    8  A    between atoms: C_19  and  C_37
                            x       y       z     vdW  Elec       q    Type
                         _______ _______ _______ _____ _____    ______ ____

>  <TORSDO>
F 8

$$$$
=
 OpenBabel11052420553D

 43 49  0  0  1  0  0  0  0  0999 V2000
  184.8530  178.2660  145.5660 C   0  0  0  0  0  0  0  0  0  0  0  0
  188.5430  175.4160  143.6600 C   0  0  0  0  0  0  0  0  0  0  0  0
  190.2980  174.6760  145.8440 C   0  0  1  0  0  3  0  0  0  0  0  0
  186.2660  176.9550  144.1020 C   0  0  0  0  0  0  0  0  0  0  0  0
  185.7230  178.0160  146.6320 C   0  0  0  0  0  3  0  0  0  0  0  0
  183.7200  179.0410  145.7630 O   0  0  0  0  0  1  0  0  0  0  0  0
  187.1490  176.7000  145.1740 C   0  0  0  0  0  0  0  0  0  0  0  0
  185.1240  177.7330  144.3020 C   0  0  0  0  0  3  0  0  0  0  0  0
  186.8670  177.2360  146.4380 C   0  0  0  0  0  3  0  0  0  0  0  0
  189.2080  175.6330  146.0170 N   0  0  0  0  0  2  0  0  0  0  0  0
  188.2880  175.9120  144.9550 C   0  0  0  0  0  0  0  0  0  0  0  0
  187.6570  175.6650  142.6550 N   0  0  0  0  0  0  0  0  0  0  0  0
  189.7460  174.5400  143.4050 C   0  0  2  0  0  3  0  0  0  0  0  0
  190.8570  174.8010  144.4270 C   0  0  0  0  0  2  0  0  0  0  0  0
  186.5420  176.4170  142.8460 C   0  0  0  0  0  3  0  0  0  0  0  0
  191.3900  174.9180  146.8870 C   0  0  1  0  0  3  0  0  0  0  0  0
  192.7450  174.5110  146.3420 C   0  0  0  0  0  2  0  0  0  0  0  0
  191.5230  176.4000  147.1720 C   0  0  0  0  0  2  0  0  0  0  0  0
  193.4040  175.7120  145.8550 N   0  0  0  0  0  0  0  0  0  0  0  0
  192.9080  176.7870  146.6990 C   0  0  0  0  0  2  0  0  0  0  0  0
  194.8220  175.5620  146.1390 C   0  0  0  0  0  2  0  0  0  0  0  0
  195.6250  175.6310  144.8430 C   0  0  2  0  0  3  0  0  0  0  0  0
  196.1730  174.3450  143.0040 O   0  0  0  0  0  0  0  0  0  0  0  0
  194.8300  176.0700  143.7930 O   0  0  0  0  0  0  0  0  0  0  0  0
  196.1830  174.3040  144.3980 C   0  0  1  0  0  0  0  0  0  0  0  0
  197.6080  174.1650  144.9110 C   0  0  0  0  0  1  0  0  0  0  0  0
  195.4230  175.4880  142.6620 C   0  0  0  0  0  2  0  0  0  0  0  0
  195.3690  173.2170  144.8600 O   0  0  0  0  0  0  0  0  0  0  0  0
  194.8640  172.1890  144.0510 C   0  0  0  0  0  0  0  0  0  0  0  0
  195.1230  170.1120  142.8140 C   0  0  0  0  0  3  0  0  0  0  0  0
  192.9790  171.2330  142.8560 C   0  0  0  0  0  3  0  0  0  0  0  0
  193.7810  170.1700  142.4320 C   0  0  0  0  0  3  0  0  0  0  0  0
  193.5200  172.2390  143.6630 C   0  0  0  0  0  3  0  0  0  0  0  0
  195.6640  171.1180  143.6200 C   0  0  0  0  0  3  0  0  0  0  0  0
  190.2610  174.7640  142.0590 N   0  0  0  0  0  2  0  0  0  0  0  0
  192.2360  172.7590  139.5890 C   0  0  0  0  0  3  0  0  0  0  0  0
  191.4430  171.6110  139.4950 C   0  0  0  0  0  0  0  0  0  0  0  0
  189.8790  172.5630  141.0800 C   0  0  0  0  0  3  0  0  0  0  0  0
  191.8530  173.8050  140.4330 C   0  0  0  0  0  3  0  0  0  0  0  0
  190.6710  173.7110  141.1830 C   0  0  0  0  0  0  0  0  0  0  0  0
  190.2610  171.5160  140.2350 C   0  0  0  0  0  3  0  0  0  0  0  0
  192.0840  169.3490  139.3120 O   0  0  0  0  0  1  0  0  0  0  0  0
  191.8370  170.5080  138.5780 C   0  0  0  0  0  2  0  0  0  0  0  0
  1  6  1  0  0  0  0
  1  5  1  0  0  0  0
  2 11  1  0  0  0  0
  3 14  1  6  0  0  0
  3 10  1  0  0  0  0
  3 16  1  0  0  0  0
  4  8  1  0  0  0  0
  4  7  1  0  0  0  0
  7  9  1  0  0  0  0
  8  1  2  0  0  0  0
  9  5  2  0  0  0  0
 11  7  2  0  0  0  0
 11 10  1  0  0  0  0
 12 15  1  0  0  0  0
 12  2  2  0  0  0  0
 13 35  1  6  0  0  0
 13  2  1  0  0  0  0
 13 14  1  0  0  0  0
 15  4  2  0  0  0  0
 16 17  1  6  0  0  0
 16 18  1  0  0  0  0
 19 21  1  0  0  0  0
 19 17  1  0  0  0  0
 19 20  1  0  0  0  0
 20 18  1  0  0  0  0
 22 21  1  1  0  0  0
 23 25  1  0  0  0  0
 24 22  1  0  0  0  0
 25 22  1  0  0  0  0
 25 28  1  0  0  0  0
 25 26  1  1  0  0  0
 27 23  1  0  0  0  0
 27 24  1  0  0  0  0
 29 28  1  0  0  0  0
 30 34  1  0  0  0  0
 31 33  2  0  0  0  0
 32 30  2  0  0  0  0
 32 31  1  0  0  0  0
 33 29  1  0  0  0  0
 34 29  2  0  0  0  0
 36 39  1  0  0  0  0
 37 36  2  0  0  0  0
 37 41  1  0  0  0  0
 38 40  1  0  0  0  0
 39 40  2  0  0  0  0
 40 35  1  0  0  0  0
 41 38  2  0  0  0  0
 43 42  1  0  0  0  0
 43 37  1  0  0  0  0
M  END
>  <MODEL>
3

>  <REMARK>
 VINA RESULT:      -8.2      2.509      8.419
  Name = 
  8 active torsions:
  status: ('A' for Active; 'I' for Inactive)
    1  A    between atoms: N_1  and  C_34
    2  A    between atoms: N_1  and  C_35
    3  A    between atoms: C_2  and  C_13
    4  A    between atoms: C_3  and  C_4
    5  A    between atoms: C_3  and  N_12
    6  A    between atoms: C_11  and  O_14
    7  A    between atoms: O_14  and  C_22
    8  A    between atoms: C_19  and  C_37
                            x       y       z     vdW  Elec       q    Type
                         _______ _______ _______ _____ _____    ______ ____

>  <TORSDO>
F 8

$$$$
=
 OpenBabel11052420553D

 43 49  0  0  1  0  0  0  0  0999 V2000
  195.7940  174.7860  138.4360 C   0  0  0  0  0  0  0  0  0  0  0  0
  193.9170  173.8100  143.0070 C   0  0  0  0  0  0  0  0  0  0  0  0
  191.4050  172.4120  142.6440 C   0  0  1  0  0  3  0  0  0  0  0  0
  195.4690  174.5700  140.8250 C   0  0  0  0  0  0  0  0  0  0  0  0
  194.5430  174.2030  138.2110 C   0  0  0  0  0  3  0  0  0  0  0  0
  196.5760  175.1840  137.3620 O   0  0  0  0  0  1  0  0  0  0  0  0
  194.2050  173.9820  140.6050 C   0  0  0  0  0  0  0  0  0  0  0  0
  196.2570  174.9690  139.7430 C   0  0  0  0  0  3  0  0  0  0  0  0
  193.7500  173.8020  139.2910 C   0  0  0  0  0  3  0  0  0  0  0  0
  192.1410  172.9850  141.5200 N   0  0  0  0  0  2  0  0  0  0  0  0
  193.4300  173.5840  141.7040 C   0  0  0  0  0  0  0  0  0  0  0  0
  195.1510  174.3610  143.1810 N   0  0  0  0  0  0  0  0  0  0  0  0
  193.1150  173.3640  144.2060 C   0  0  2  0  0  3  0  0  0  0  0  0
  191.6210  173.2810  143.8830 C   0  0  0  0  0  2  0  0  0  0  0  0
  195.9250  174.7440  142.1310 C   0  0  0  0  0  3  0  0  0  0  0  0
  189.9180  172.3000  142.3060 C   0  0  1  0  0  3  0  0  0  0  0  0
  189.1810  173.5590  142.7230 C   0  0  0  0  0  2  0  0  0  0  0  0
  189.7270  172.2270  140.8050 C   0  0  0  0  0  2  0  0  0  0  0  0
  189.0480  174.4030  141.5470 N   0  0  0  0  0  0  0  0  0  0  0  0
  188.9700  173.4820  140.4240 C   0  0  0  0  0  2  0  0  0  0  0  0
  187.7600  175.0680  141.6480 C   0  0  0  0  0  2  0  0  0  0  0  0
  187.9280  176.5700  141.4370 C   0  0  2  0  0  3  0  0  0  0  0  0
  187.1520  178.5910  142.2440 O   0  0  0  0  0  0  0  0  0  0  0  0
  188.9150  177.0770  142.2720 O   0  0  0  0  0  0  0  0  0  0  0  0
  186.6910  177.3730  141.7430 C   0  0  1  0  0  0  0  0  0  0  0  0
  185.9100  177.5940  140.4570 C   0  0  0  0  0  1  0  0  0  0  0  0
  188.5320  178.4130  142.4650 C   0  0  0  0  0  2  0  0  0  0  0  0
  185.8770  176.7190  142.7260 O   0  0  0  0  0  0  0  0  0  0  0  0
  185.5160  177.2660  143.9660 C   0  0  0  0  0  0  0  0  0  0  0  0
  185.7290  177.4250  146.3830 C   0  0  0  0  0  3  0  0  0  0  0  0
  184.1350  178.8230  145.2160 C   0  0  0  0  0  3  0  0  0  0  0  0
  184.7380  178.4100  146.4070 C   0  0  0  0  0  3  0  0  0  0  0  0
  184.5240  178.2530  144.0000 C   0  0  0  0  0  3  0  0  0  0  0  0
  186.1170  176.8540  145.1660 C   0  0  0  0  0  3  0  0  0  0  0  0
  193.3230  174.2780  145.3240 N   0  0  0  0  0  2  0  0  0  0  0  0
  190.7840  177.0240  145.5220 C   0  0  0  0  0  3  0  0  0  0  0  0
  190.3260  176.8580  146.8330 C   0  0  0  0  0  0  0  0  0  0  0  0
  191.8570  175.0060  147.1330 C   0  0  0  0  0  3  0  0  0  0  0  0
  191.7730  176.1760  145.0160 C   0  0  0  0  0  3  0  0  0  0  0  0
  192.3140  175.1620  145.8210 C   0  0  0  0  0  0  0  0  0  0  0  0
  190.8670  175.8530  147.6400 C   0  0  0  0  0  3  0  0  0  0  0  0
  189.8590  178.6100  148.3410 O   0  0  0  0  0  1  0  0  0  0  0  0
  189.2900  177.7750  147.3800 C   0  0  0  0  0  2  0  0  0  0  0  0
  1  8  1  0  0  0  0
  2 12  1  0  0  0  0
  2 13  1  0  0  0  0
  3 14  1  1  0  0  0
  4 15  1  0  0  0  0
  5  1  2  0  0  0  0
  5  9  1  0  0  0  0
  6  1  1  0  0  0  0
  7  4  1  0  0  0  0
  7 11  1  0  0  0  0
  8  4  2  0  0  0  0
  9  7  2  0  0  0  0
 10 11  1  0  0  0  0
 10  3  1  0  0  0  0
 11  2  2  0  0  0  0
 13 35  1  1  0  0  0
 14 13  1  0  0  0  0
 15 12  2  0  0  0  0
 16 18  1  6  0  0  0
 16  3  1  0  0  0  0
 16 17  1  0  0  0  0
 19 21  1  0  0  0  0
 19 17  1  0  0  0  0
 20 18  1  0  0  0  0
 20 19  1  0  0  0  0
 22 21  1  1  0  0  0
 22 25  1  0  0  0  0
 22 24  1  0  0  0  0
 23 27  1  0  0  0  0
 24 27  1  0  0  0  0
 25 26  1  6  0  0  0
 25 23  1  0  0  0  0
 25 28  1  0  0  0  0
 28 29  1  0  0  0  0
 29 33  2  0  0  0  0
 29 34  1  0  0  0  0
 30 32  1  0  0  0  0
 31 32  2  0  0  0  0
 33 31  1  0  0  0  0
 34 30  2  0  0  0  0
 35 40  1  0  0  0  0
 36 37  1  0  0  0  0
 37 43  1  0  0  0  0
 37 41  2  0  0  0  0
 38 41  1  0  0  0  0
 39 36  2  0  0  0  0
 39 40  1  0  0  0  0
 40 38  2  0  0  0  0
 43 42  1  0  0  0  0
M  END
>  <MODEL>
4

>  <REMARK>
 VINA RESULT:      -8.1      3.453      6.951
  Name = 
  8 active torsions:
  status: ('A' for Active; 'I' for Inactive)
    1  A    between atoms: N_1  and  C_34
    2  A    between atoms: N_1  and  C_35
    3  A    between atoms: C_2  and  C_13
    4  A    between atoms: C_3  and  C_4
    5  A    between atoms: C_3  and  N_12
    6  A    between atoms: C_11  and  O_14
    7  A    between atoms: O_14  and  C_22
    8  A    between atoms: C_19  and  C_37
                            x       y       z     vdW  Elec       q    Type
                         _______ _______ _______ _____ _____    ______ ____

>  <TORSDO>
F 8

$$$$
=
 OpenBabel11052420553D

 43 49  0  0  1  0  0  0  0  0999 V2000
  185.2490  178.2260  145.5860 C   0  0  0  0  0  0  0  0  0  0  0  0
  188.7470  175.1890  143.6090 C   0  0  0  0  0  0  0  0  0  0  0  0
  190.6770  174.6020  145.6890 C   0  0  1  0  0  3  0  0  0  0  0  0
  186.5240  176.7860  144.1170 C   0  0  0  0  0  0  0  0  0  0  0  0
  186.2060  178.0510  146.5910 C   0  0  0  0  0  3  0  0  0  0  0  0
  184.1410  179.0280  145.8150 O   0  0  0  0  0  1  0  0  0  0  0  0
  187.4940  176.6060  145.1270 C   0  0  0  0  0  0  0  0  0  0  0  0
  185.4080  177.5920  144.3500 C   0  0  0  0  0  3  0  0  0  0  0  0
  187.3240  177.2440  146.3640 C   0  0  0  0  0  3  0  0  0  0  0  0
  189.6120  175.5840  145.8760 N   0  0  0  0  0  2  0  0  0  0  0  0
  188.6060  175.7880  144.8770 C   0  0  0  0  0  0  0  0  0  0  0  0
  187.7800  175.3680  142.6650 N   0  0  0  0  0  0  0  0  0  0  0  0
  189.9190  174.2810  143.3240 C   0  0  2  0  0  3  0  0  0  0  0  0
  191.1140  174.6080  144.2240 C   0  0  0  0  0  2  0  0  0  0  0  0
  186.6890  176.1470  142.8890 C   0  0  0  0  0  3  0  0  0  0  0  0
  191.8550  174.9120  146.6130 C   0  0  1  0  0  3  0  0  0  0  0  0
  193.1110  174.2140  146.1260 C   0  0  0  0  0  2  0  0  0  0  0  0
  192.1920  176.3880  146.5550 C   0  0  0  0  0  2  0  0  0  0  0  0
  193.8840  175.1790  145.3610 N   0  0  0  0  0  0  0  0  0  0  0  0
  193.5830  176.4690  145.9600 C   0  0  0  0  0  2  0  0  0  0  0  0
  195.2860  174.9010  145.6220 C   0  0  0  0  0  2  0  0  0  0  0  0
  195.5710  173.4140  145.4230 C   0  0  2  0  0  3  0  0  0  0  0  0
  196.8570  171.9930  144.1350 O   0  0  0  0  0  0  0  0  0  0  0  0
  196.6350  173.0070  146.2140 O   0  0  0  0  0  0  0  0  0  0  0  0
  195.9530  173.0480  144.0130 C   0  0  1  0  0  0  0  0  0  0  0  0
  194.7110  172.5940  143.2610 C   0  0  0  0  0  1  0  0  0  0  0  0
  197.1820  171.9260  145.5050 C   0  0  0  0  0  2  0  0  0  0  0  0
  196.5790  174.1510  143.3410 O   0  0  0  0  0  0  0  0  0  0  0  0
  196.3520  174.5140  142.0060 C   0  0  0  0  0  0  0  0  0  0  0  0
  196.7250  174.2450  139.6190 C   0  0  0  0  0  3  0  0  0  0  0  0
  195.2200  175.9630  140.4200 C   0  0  0  0  0  3  0  0  0  0  0  0
  195.8460  175.3000  139.3610 C   0  0  0  0  0  3  0  0  0  0  0  0
  195.4730  175.5700  141.7380 C   0  0  0  0  0  3  0  0  0  0  0  0
  196.9780  173.8530  140.9370 C   0  0  0  0  0  3  0  0  0  0  0  0
  190.3180  174.3910  141.9250 N   0  0  0  0  0  2  0  0  0  0  0  0
  193.0490  172.8790  139.8560 C   0  0  0  0  0  3  0  0  0  0  0  0
  192.7540  171.5190  139.9940 C   0  0  0  0  0  0  0  0  0  0  0  0
  190.8540  172.0730  141.3890 C   0  0  0  0  0  3  0  0  0  0  0  0
  192.2500  173.8340  140.4910 C   0  0  0  0  0  3  0  0  0  0  0  0
  191.1470  173.4340  141.2610 C   0  0  0  0  0  0  0  0  0  0  0  0
  191.6530  171.1170  140.7540 C   0  0  0  0  0  3  0  0  0  0  0  0
  194.8930  170.9790  139.1600 O   0  0  0  0  0  1  0  0  0  0  0  0
  193.5900  170.5040  139.2980 C   0  0  0  0  0  2  0  0  0  0  0  0
  1  6  1  0  0  0  0
  1  5  1  0  0  0  0
  2 11  1  0  0  0  0
  3 14  1  6  0  0  0
  3 10  1  0  0  0  0
  3 16  1  0  0  0  0
  4  8  1  0  0  0  0
  4  7  1  0  0  0  0
  7  9  1  0  0  0  0
  8  1  2  0  0  0  0
  9  5  2  0  0  0  0
 11  7  2  0  0  0  0
 11 10  1  0  0  0  0
 12 15  1  0  0  0  0
 12  2  2  0  0  0  0
 13 35  1  6  0  0  0
 13  2  1  0  0  0  0
 13 14  1  0  0  0  0
 15  4  2  0  0  0  0
 16 17  1  6  0  0  0
 18 16  1  0  0  0  0
 19 21  1  0  0  0  0
 19 20  1  0  0  0  0
 19 17  1  0  0  0  0
 20 18  1  0  0  0  0
 22 21  1  6  0  0  0
 22 24  1  0  0  0  0
 23 27  1  0  0  0  0
 25 26  1  6  0  0  0
 25 23  1  0  0  0  0
 25 22  1  0  0  0  0
 27 24  1  0  0  0  0
 28 25  1  0  0  0  0
 29 28  1  0  0  0  0
 30 34  1  0  0  0  0
 31 33  2  0  0  0  0
 32 30  2  0  0  0  0
 32 31  1  0  0  0  0
 33 29  1  0  0  0  0
 34 29  2  0  0  0  0
 36 37  2  0  0  0  0
 36 39  1  0  0  0  0
 37 41  1  0  0  0  0
 39 40  2  0  0  0  0
 40 38  1  0  0  0  0
 40 35  1  0  0  0  0
 41 38  2  0  0  0  0
 42 43  1  0  0  0  0
 43 37  1  0  0  0  0
M  END
>  <MODEL>
5

>  <REMARK>
 VINA RESULT:      -7.9      3.007      8.699
  Name = 
  8 active torsions:
  status: ('A' for Active; 'I' for Inactive)
    1  A    between atoms: N_1  and  C_34
    2  A    between atoms: N_1  and  C_35
    3  A    between atoms: C_2  and  C_13
    4  A    between atoms: C_3  and  C_4
    5  A    between atoms: C_3  and  N_12
    6  A    between atoms: C_11  and  O_14
    7  A    between atoms: O_14  and  C_22
    8  A    between atoms: C_19  and  C_37
                            x       y       z     vdW  Elec       q    Type
                         _______ _______ _______ _____ _____    ______ ____

>  <TORSDO>
F 8

$$$$
=
 OpenBabel11052420553D

 43 49  0  0  1  0  0  0  0  0999 V2000
  197.0540  175.5670  140.2090 C   0  0  0  0  0  0  0  0  0  0  0  0
  194.8050  175.0790  144.6890 C   0  0  0  0  0  0  0  0  0  0  0  0
  193.9070  172.3350  144.9260 C   0  0  1  0  0  3  0  0  0  0  0  0
  196.1860  175.9520  142.4350 C   0  0  0  0  0  0  0  0  0  0  0  0
  196.5530  174.2610  140.2370 C   0  0  0  0  0  3  0  0  0  0  0  0
  197.7340  176.0250  139.0900 O   0  0  0  0  0  1  0  0  0  0  0  0
  195.6770  174.6360  142.4690 C   0  0  0  0  0  0  0  0  0  0  0  0
  196.8720  176.4110  141.3080 C   0  0  0  0  0  3  0  0  0  0  0  0
  195.8670  173.7960  141.3630 C   0  0  0  0  0  3  0  0  0  0  0  0
  194.4620  172.8630  143.6830 N   0  0  0  0  0  2  0  0  0  0  0  0
  194.9950  174.1910  143.6120 C   0  0  0  0  0  0  0  0  0  0  0  0
  195.3290  176.3360  144.6290 N   0  0  0  0  0  0  0  0  0  0  0  0
  194.1010  174.6160  145.9420 C   0  0  2  0  0  3  0  0  0  0  0  0
  193.1530  173.4480  145.6530 C   0  0  0  0  0  2  0  0  0  0  0  0
  196.0030  176.7860  143.5370 C   0  0  0  0  0  3  0  0  0  0  0  0
  192.9870  171.1480  144.6370 C   0  0  1  0  0  3  0  0  0  0  0  0
  191.5990  171.6310  144.2600 C   0  0  0  0  0  2  0  0  0  0  0  0
  193.4730  170.3940  143.4170 C   0  0  0  0  0  2  0  0  0  0  0  0
  191.5100  171.6300  142.8090 N   0  0  0  0  0  0  0  0  0  0  0  0
  192.3850  170.5530  142.3740 C   0  0  0  0  0  2  0  0  0  0  0  0
  190.1510  171.2450  142.4670 C   0  0  0  0  0  2  0  0  0  0  0  0
  189.6860  172.0070  141.2300 C   0  0  2  0  0  3  0  0  0  0  0  0
  189.4240  174.1640  140.4480 O   0  0  0  0  0  0  0  0  0  0  0  0
  190.7510  172.2580  140.3770 O   0  0  0  0  0  0  0  0  0  0  0  0
  189.0850  173.3540  141.5330 C   0  0  1  0  0  0  0  0  0  0  0  0
  187.5740  173.2160  141.6350 C   0  0  0  0  0  1  0  0  0  0  0  0
  190.3690  173.4290  139.7050 C   0  0  0  0  0  2  0  0  0  0  0  0
  189.6280  173.9060  142.7400 O   0  0  0  0  0  0  0  0  0  0  0  0
  190.1450  175.2030  142.8720 C   0  0  0  0  0  0  0  0  0  0  0  0
  192.0020  176.7660  143.0150 C   0  0  0  0  0  3  0  0  0  0  0  0
  189.7260  177.5810  143.1290 C   0  0  0  0  0  3  0  0  0  0  0  0
  191.1010  177.8270  143.1390 C   0  0  0  0  0  3  0  0  0  0  0  0
  189.2500  176.2720  142.9960 C   0  0  0  0  0  3  0  0  0  0  0  0
  191.5260  175.4580  142.8830 C   0  0  0  0  0  3  0  0  0  0  0  0
  193.3520  175.7160  146.5400 N   0  0  0  0  0  2  0  0  0  0  0  0
  189.7470  174.7030  146.5080 C   0  0  0  0  0  3  0  0  0  0  0  0
  189.1280  175.9490  146.6470 C   0  0  0  0  0  0  0  0  0  0  0  0
  191.2980  177.0220  146.7000 C   0  0  0  0  0  3  0  0  0  0  0  0
  191.1420  174.6170  146.4720 C   0  0  0  0  0  3  0  0  0  0  0  0
  191.9240  175.7780  146.5670 C   0  0  0  0  0  0  0  0  0  0  0  0
  189.9030  177.1080  146.7360 C   0  0  0  0  0  3  0  0  0  0  0  0
  187.2400  177.2260  146.0430 O   0  0  0  0  0  1  0  0  0  0  0  0
  187.6430  176.0430  146.6610 C   0  0  0  0  0  2  0  0  0  0  0  0
  1  5  2  0  0  0  0
  1  8  1  0  0  0  0
  2 13  1  0  0  0  0
  3 14  1  6  0  0  0
  4  7  1  0  0  0  0
  4 15  1  0  0  0  0
  5  9  1  0  0  0  0
  6  1  1  0  0  0  0
  7 11  1  0  0  0  0
  8  4  2  0  0  0  0
  9  7  2  0  0  0  0
 10  3  1  0  0  0  0
 11 10  1  0  0  0  0
 11  2  2  0  0  0  0
 12  2  1  0  0  0  0
 13 35  1  6  0  0  0
 14 13  1  0  0  0  0
 15 12  2  0  0  0  0
 16 18  1  6  0  0  0
 16  3  1  0  0  0  0
 17 16  1  0  0  0  0
 19 17  1  0  0  0  0
 20 19  1  0  0  0  0
 20 18  1  0  0  0  0
 21 19  1  0  0  0  0
 22 25  1  0  0  0  0
 22 21  1  1  0  0  0
 23 25  1  0  0  0  0
 24 22  1  0  0  0  0
 25 26  1  1  0  0  0
 25 28  1  0  0  0  0
 27 24  1  0  0  0  0
 27 23  1  0  0  0  0
 28 29  1  0  0  0  0
 29 34  2  0  0  0  0
 29 33  1  0  0  0  0
 30 32  2  0  0  0  0
 31 32  1  0  0  0  0
 33 31  2  0  0  0  0
 34 30  1  0  0  0  0
 35 40  1  0  0  0  0
 36 37  1  0  0  0  0
 37 43  1  0  0  0  0
 37 41  2  0  0  0  0
 38 41  1  0  0  0  0
 39 36  2  0  0  0  0
 39 40  1  0  0  0  0
 40 38  2  0  0  0  0
 42 43  1  0  0  0  0
M  END
>  <MODEL>
6

>  <REMARK>
 VINA RESULT:      -7.8      3.096      5.382
  Name = 
  8 active torsions:
  status: ('A' for Active; 'I' for Inactive)
    1  A    between atoms: N_1  and  C_34
    2  A    between atoms: N_1  and  C_35
    3  A    between atoms: C_2  and  C_13
    4  A    between atoms: C_3  and  C_4
    5  A    between atoms: C_3  and  N_12
    6  A    between atoms: C_11  and  O_14
    7  A    between atoms: O_14  and  C_22
    8  A    between atoms: C_19  and  C_37
                            x       y       z     vdW  Elec       q    Type
                         _______ _______ _______ _____ _____    ______ ____

>  <TORSDO>
F 8

$$$$
=
 OpenBabel11052420553D

 43 49  0  0  1  0  0  0  0  0999 V2000
  196.3580  174.0640  145.0380 C   0  0  0  0  0  0  0  0  0  0  0  0
  191.5150  175.4400  144.8940 C   0  0  0  0  0  0  0  0  0  0  0  0
  190.2570  173.9990  142.7170 C   0  0  1  0  0  3  0  0  0  0  0  0
  194.2000  175.0510  145.5150 C   0  0  0  0  0  0  0  0  0  0  0  0
  195.8180  173.4230  143.9180 C   0  0  0  0  0  3  0  0  0  0  0  0
  197.6970  173.8930  145.3570 O   0  0  0  0  0  1  0  0  0  0  0  0
  193.6500  174.4080  144.3860 C   0  0  0  0  0  0  0  0  0  0  0  0
  195.5480  174.8770  145.8370 C   0  0  0  0  0  3  0  0  0  0  0  0
  194.4700  173.5930  143.5920 C   0  0  0  0  0  3  0  0  0  0  0  0
  191.7000  173.9560  142.9430 N   0  0  0  0  0  2  0  0  0  0  0  0
  192.2930  174.5900  144.0820 C   0  0  0  0  0  0  0  0  0  0  0  0
  192.0750  176.0280  145.9880 N   0  0  0  0  0  0  0  0  0  0  0  0
  190.0450  175.6300  144.6050 C   0  0  2  0  0  3  0  0  0  0  0  0
  189.7250  175.3710  143.1300 C   0  0  0  0  0  2  0  0  0  0  0  0
  193.3840  175.8570  146.3090 C   0  0  0  0  0  3  0  0  0  0  0  0
  189.9390  173.7060  141.2500 C   0  0  1  0  0  3  0  0  0  0  0  0
  191.2110  173.6860  140.4230 C   0  0  0  0  0  2  0  0  0  0  0  0
  189.3690  172.3100  141.1060 C   0  0  0  0  0  2  0  0  0  0  0  0
  191.6160  172.2990  140.2700 N   0  0  0  0  0  0  0  0  0  0  0  0
  190.3770  171.5370  140.2820 C   0  0  0  0  0  2  0  0  0  0  0  0
  192.1870  172.1690  138.9390 C   0  0  0  0  0  2  0  0  0  0  0  0
  193.5710  171.5310  139.0230 C   0  0  2  0  0  3  0  0  0  0  0  0
  195.7780  172.0850  139.4170 O   0  0  0  0  0  0  0  0  0  0  0  0
  193.8570  171.1460  140.3260 O   0  0  0  0  0  0  0  0  0  0  0  0
  194.6930  172.4510  138.6190 C   0  0  1  0  0  0  0  0  0  0  0  0
  195.0190  172.2250  137.1510 C   0  0  0  0  0  1  0  0  0  0  0  0
  195.2570  171.2100  140.3910 C   0  0  0  0  0  2  0  0  0  0  0  0
  194.3520  173.8230  138.8590 O   0  0  0  0  0  0  0  0  0  0  0  0
  195.0730  174.6990  139.6840 C   0  0  0  0  0  0  0  0  0  0  0  0
  197.1520  175.7000  140.4500 C   0  0  0  0  0  3  0  0  0  0  0  0
  195.0520  176.3650  141.4500 C   0  0  0  0  0  3  0  0  0  0  0  0
  196.4420  176.4750  141.3700 C   0  0  0  0  0  3  0  0  0  0  0  0
  194.3700  175.4800  140.6090 C   0  0  0  0  0  3  0  0  0  0  0  0
  196.4700  174.8140  139.6100 C   0  0  0  0  0  3  0  0  0  0  0  0
  189.6280  176.9810  144.9640 N   0  0  0  0  0  2  0  0  0  0  0  0
  186.1390  178.3410  144.9850 C   0  0  0  0  0  3  0  0  0  0  0  0
  185.7080  177.9270  146.2490 C   0  0  0  0  0  0  0  0  0  0  0  0
  187.8680  176.9090  146.6520 C   0  0  0  0  0  3  0  0  0  0  0  0
  187.4310  178.0320  144.5530 C   0  0  0  0  0  3  0  0  0  0  0  0
  188.3030  177.3140  145.3860 C   0  0  0  0  0  0  0  0  0  0  0  0
  186.5750  177.2170  147.0850 C   0  0  0  0  0  3  0  0  0  0  0  0
  183.6800  179.0190  145.7420 O   0  0  0  0  0  1  0  0  0  0  0  0
  184.3400  178.2760  146.7190 C   0  0  0  0  0  2  0  0  0  0  0  0
  1  6  1  0  0  0  0
  1  8  1  0  0  0  0
  2 12  1  0  0  0  0
  3 10  1  0  0  0  0
  3 14  1  6  0  0  0
  4  8  2  0  0  0  0
  4 15  1  0  0  0  0
  5  1  2  0  0  0  0
  7  4  1  0  0  0  0
  9  5  1  0  0  0  0
  9  7  2  0  0  0  0
 10 11  1  0  0  0  0
 11  7  1  0  0  0  0
 11  2  2  0  0  0  0
 12 15  2  0  0  0  0
 13  2  1  0  0  0  0
 13 35  1  6  0  0  0
 14 13  1  0  0  0  0
 16 17  1  6  0  0  0
 16  3  1  0  0  0  0
 18 16  1  0  0  0  0
 19 20  1  0  0  0  0
 19 17  1  0  0  0  0
 20 18  1  0  0  0  0
 21 19  1  0  0  0  0
 22 21  1  1  0  0  0
 22 24  1  0  0  0  0
 23 27  1  0  0  0  0
 24 27  1  0  0  0  0
 25 26  1  6  0  0  0
 25 28  1  0  0  0  0
 25 22  1  0  0  0  0
 25 23  1  0  0  0  0
 28 29  1  0  0  0  0
 29 33  1  0  0  0  0
 30 32  2  0  0  0  0
 32 31  1  0  0  0  0
 33 31  2  0  0  0  0
 34 29  2  0  0  0  0
 34 30  1  0  0  0  0
 35 40  1  0  0  0  0
 36 37  1  0  0  0  0
 37 43  1  0  0  0  0
 37 41  2  0  0  0  0
 38 41  1  0  0  0  0
 39 36  2  0  0  0  0
 39 40  1  0  0  0  0
 40 38  2  0  0  0  0
 42 43  1  0  0  0  0
M  END
>  <MODEL>
7

>  <REMARK>
 VINA RESULT:      -7.8      2.978      4.464
  Name = 
  8 active torsions:
  status: ('A' for Active; 'I' for Inactive)
    1  A    between atoms: N_1  and  C_34
    2  A    between atoms: N_1  and  C_35
    3  A    between atoms: C_2  and  C_13
    4  A    between atoms: C_3  and  C_4
    5  A    between atoms: C_3  and  N_12
    6  A    between atoms: C_11  and  O_14
    7  A    between atoms: O_14  and  C_22
    8  A    between atoms: C_19  and  C_37
                            x       y       z     vdW  Elec       q    Type
                         _______ _______ _______ _____ _____    ______ ____

>  <TORSDO>
F 8

$$$$
=
 OpenBabel11052420553D

 43 49  0  0  1  0  0  0  0  0999 V2000
  196.0330  176.5340  143.3590 C   0  0  0  0  0  0  0  0  0  0  0  0
  191.3670  175.8320  145.1190 C   0  0  0  0  0  0  0  0  0  0  0  0
  189.8070  174.6080  143.0060 C   0  0  1  0  0  3  0  0  0  0  0  0
  194.0660  176.4130  144.7630 C   0  0  0  0  0  0  0  0  0  0  0  0
  195.2960  176.0350  142.2800 C   0  0  0  0  0  3  0  0  0  0  0  0
  197.3760  176.8420  143.1980 O   0  0  0  0  0  1  0  0  0  0  0  0
  193.3160  175.9110  143.6770 C   0  0  0  0  0  0  0  0  0  0  0  0
  195.4180  176.7210  144.6010 C   0  0  0  0  0  3  0  0  0  0  0  0
  193.9420  175.7250  142.4370 C   0  0  0  0  0  3  0  0  0  0  0  0
  191.1660  175.0930  142.7830 N   0  0  0  0  0  2  0  0  0  0  0  0
  191.9600  175.6030  143.8610 C   0  0  0  0  0  0  0  0  0  0  0  0
  192.1270  176.2980  146.1500 N   0  0  0  0  0  0  0  0  0  0  0  0
  189.9170  175.4800  145.3510 C   0  0  2  0  0  3  0  0  0  0  0  0
  189.1200  175.4960  144.0430 C   0  0  0  0  0  2  0  0  0  0  0  0
  193.4450  176.5930  145.9980 C   0  0  0  0  0  3  0  0  0  0  0  0
  189.0240  174.5930  141.6930 C   0  0  1  0  0  3  0  0  0  0  0  0
  189.8030  173.8600  140.6170 C   0  0  0  0  0  2  0  0  0  0  0  0
  187.7490  173.7900  141.8520 C   0  0  0  0  0  2  0  0  0  0  0  0
  189.2960  172.4990  140.5530 N   0  0  0  0  0  0  0  0  0  0  0  0
  187.8950  172.5970  140.9310 C   0  0  0  0  0  2  0  0  0  0  0  0
  189.3380  172.0970  139.1570 C   0  0  0  0  0  2  0  0  0  0  0  0
  190.4310  171.0540  138.9450 C   0  0  2  0  0  3  0  0  0  0  0  0
  192.6220  170.8730  138.2340 O   0  0  0  0  0  0  0  0  0  0  0  0
  191.2150  170.9240  140.0830 O   0  0  0  0  0  0  0  0  0  0  0  0
  191.3890  171.3900  137.8320 C   0  0  1  0  0  0  0  0  0  0  0  0
  190.9260  170.7130  136.5520 C   0  0  0  0  0  1  0  0  0  0  0  0
  192.4580  170.5050  139.5840 C   0  0  0  0  0  2  0  0  0  0  0  0
  191.4940  172.8090  137.6470 O   0  0  0  0  0  0  0  0  0  0  0  0
  192.6950  173.5330  137.6320 C   0  0  0  0  0  0  0  0  0  0  0  0
  194.7010  174.3340  136.5170 C   0  0  0  0  0  3  0  0  0  0  0  0
  194.2770  174.9380  138.8210 C   0  0  0  0  0  3  0  0  0  0  0  0
  195.0840  175.0020  137.6820 C   0  0  0  0  0  3  0  0  0  0  0  0
  193.0870  174.2060  138.7950 C   0  0  0  0  0  3  0  0  0  0  0  0
  193.5110  173.6010  136.4920 C   0  0  0  0  0  3  0  0  0  0  0  0
  189.3150  176.4100  146.3000 N   0  0  0  0  0  2  0  0  0  0  0  0
  185.6680  177.0930  146.8070 C   0  0  0  0  0  3  0  0  0  0  0  0
  185.4490  178.0680  145.8280 C   0  0  0  0  0  0  0  0  0  0  0  0
  187.7750  177.9260  145.1680 C   0  0  0  0  0  3  0  0  0  0  0  0
  186.9410  176.5410  146.9690 C   0  0  0  0  0  3  0  0  0  0  0  0
  188.0010  176.9560  146.1490 C   0  0  0  0  0  0  0  0  0  0  0  0
  186.5010  178.4790  145.0050 C   0  0  0  0  0  3  0  0  0  0  0  0
  183.9000  178.9760  144.2990 O   0  0  0  0  0  1  0  0  0  0  0  0
  184.0880  178.6380  145.6390 C   0  0  0  0  0  2  0  0  0  0  0  0
  1  8  1  0  0  0  0
  2 13  1  0  0  0  0
  2 12  1  0  0  0  0
  3 14  1  1  0  0  0
  4 15  1  0  0  0  0
  5  9  1  0  0  0  0
  5  1  2  0  0  0  0
  6  1  1  0  0  0  0
  7 11  1  0  0  0  0
  7  4  1  0  0  0  0
  8  4  2  0  0  0  0
  9  7  2  0  0  0  0
 10  3  1  0  0  0  0
 10 11  1  0  0  0  0
 11  2  2  0  0  0  0
 13 35  1  1  0  0  0
 14 13  1  0  0  0  0
 15 12  2  0  0  0  0
 16 17  1  6  0  0  0
 16 18  1  0  0  0  0
 16  3  1  0  0  0  0
 19 17  1  0  0  0  0
 19 20  1  0  0  0  0
 20 18  1  0  0  0  0
 21 19  1  0  0  0  0
 22 21  1  1  0  0  0
 22 24  1  0  0  0  0
 23 27  1  0  0  0  0
 25 26  1  6  0  0  0
 25 23  1  0  0  0  0
 25 22  1  0  0  0  0
 27 24  1  0  0  0  0
 28 25  1  0  0  0  0
 29 28  1  0  0  0  0
 29 33  1  0  0  0  0
 30 32  2  0  0  0  0
 32 31  1  0  0  0  0
 33 31  2  0  0  0  0
 34 30  1  0  0  0  0
 34 29  2  0  0  0  0
 36 39  1  0  0  0  0
 37 36  2  0  0  0  0
 38 40  1  0  0  0  0
 40 35  1  0  0  0  0
 40 39  2  0  0  0  0
 41 38  2  0  0  0  0
 41 37  1  0  0  0  0
 42 43  1  0  0  0  0
 43 37  1  0  0  0  0
M  END
>  <MODEL>
8

>  <REMARK>
 VINA RESULT:      -7.7      2.258      3.338
  Name = 
  8 active torsions:
  status: ('A' for Active; 'I' for Inactive)
    1  A    between atoms: N_1  and  C_34
    2  A    between atoms: N_1  and  C_35
    3  A    between atoms: C_2  and  C_13
    4  A    between atoms: C_3  and  C_4
    5  A    between atoms: C_3  and  N_12
    6  A    between atoms: C_11  and  O_14
    7  A    between atoms: O_14  and  C_22
    8  A    between atoms: C_19  and  C_37
                            x       y       z     vdW  Elec       q    Type
                         _______ _______ _______ _____ _____    ______ ____

>  <TORSDO>
F 8

$$$$
=
 OpenBabel11052420553D

 43 49  0  0  1  0  0  0  0  0999 V2000
  185.0880  178.1560  145.9210 C   0  0  0  0  0  0  0  0  0  0  0  0
  189.7170  176.2910  145.2380 C   0  0  0  0  0  0  0  0  0  0  0  0
  189.8670  175.2870  142.5240 C   0  0  1  0  0  3  0  0  0  0  0  0
  187.4030  177.5080  146.1960 C   0  0  0  0  0  0  0  0  0  0  0  0
  185.0830  177.5980  144.6380 C   0  0  0  0  0  3  0  0  0  0  0  0
  183.9420  178.7550  146.4210 O   0  0  0  0  0  1  0  0  0  0  0  0
  187.4040  176.9410  144.9030 C   0  0  0  0  0  0  0  0  0  0  0  0
  186.2490  178.1120  146.6990 C   0  0  0  0  0  3  0  0  0  0  0  0
  186.2360  176.9920  144.1300 C   0  0  0  0  0  3  0  0  0  0  0  0
  188.6130  175.7560  143.1080 N   0  0  0  0  0  2  0  0  0  0  0  0
  188.5740  176.3430  144.4140 C   0  0  0  0  0  0  0  0  0  0  0  0
  189.6860  176.8680  146.4730 N   0  0  0  0  0  0  0  0  0  0  0  0
  190.9980  175.6800  144.7240 C   0  0  2  0  0  3  0  0  0  0  0  0
  190.7260  174.6550  143.6190 C   0  0  0  0  0  2  0  0  0  0  0  0
  188.5670  177.4620  146.9630 C   0  0  0  0  0  3  0  0  0  0  0  0
  189.5910  174.2900  141.3980 C   0  0  1  0  0  3  0  0  0  0  0  0
  190.8600  173.5490  141.0220 C   0  0  0  0  0  2  0  0  0  0  0  0
  188.6460  173.2070  141.8780 C   0  0  0  0  0  2  0  0  0  0  0  0
  190.8460  172.2690  141.7130 N   0  0  0  0  0  0  0  0  0  0  0  0
  189.4410  171.9180  141.8370 C   0  0  0  0  0  2  0  0  0  0  0  0
  191.4550  171.2990  140.8190 C   0  0  0  0  0  2  0  0  0  0  0  0
  192.7560  171.8560  140.2490 C   0  0  2  0  0  3  0  0  0  0  0  0
  195.0170  171.3880  140.1550 O   0  0  0  0  0  0  0  0  0  0  0  0
  193.0070  171.3300  138.9890 O   0  0  0  0  0  0  0  0  0  0  0  0
  193.9740  171.5270  141.0720 C   0  0  1  0  0  0  0  0  0  0  0  0
  194.2600  172.6790  142.0230 C   0  0  0  0  0  1  0  0  0  0  0  0
  194.4060  171.3700  138.8850 C   0  0  0  0  0  2  0  0  0  0  0  0
  193.7970  170.3020  141.7970 O   0  0  0  0  0  0  0  0  0  0  0  0
  194.4100  169.9940  143.0200 C   0  0  0  0  0  0  0  0  0  0  0  0
  196.3760  169.5570  144.3830 C   0  0  0  0  0  3  0  0  0  0  0  0
  194.1740  169.5030  145.3860 C   0  0  0  0  0  3  0  0  0  0  0  0
  195.5610  169.3760  145.5030 C   0  0  0  0  0  3  0  0  0  0  0  0
  193.6020  169.8110  144.1480 C   0  0  0  0  0  3  0  0  0  0  0  0
  195.8030  169.8640  143.1450 C   0  0  0  0  0  3  0  0  0  0  0  0
  191.7280  175.0400  145.8130 N   0  0  0  0  0  2  0  0  0  0  0  0
  194.9100  173.0740  145.6410 C   0  0  0  0  0  3  0  0  0  0  0  0
  195.8510  174.1080  145.5980 C   0  0  0  0  0  0  0  0  0  0  0  0
  194.0630  175.7380  145.7110 C   0  0  0  0  0  3  0  0  0  0  0  0
  193.5470  173.3730  145.7110 C   0  0  0  0  0  3  0  0  0  0  0  0
  193.1170  174.7080  145.7470 C   0  0  0  0  0  0  0  0  0  0  0  0
  195.4270  175.4390  145.6400 C   0  0  0  0  0  3  0  0  0  0  0  0
  197.5510  172.8770  144.5250 O   0  0  0  0  0  1  0  0  0  0  0  0
  197.3030  173.7910  145.5480 C   0  0  0  0  0  2  0  0  0  0  0  0
  1  6  1  0  0  0  0
  1  8  1  0  0  0  0
  2 12  1  0  0  0  0
  3 10  1  0  0  0  0
  3 14  1  1  0  0  0
  4  8  2  0  0  0  0
  4 15  1  0  0  0  0
  5  1  2  0  0  0  0
  7  4  1  0  0  0  0
  9  5  1  0  0  0  0
  9  7  2  0  0  0  0
 10 11  1  0  0  0  0
 11  7  1  0  0  0  0
 11  2  2  0  0  0  0
 12 15  2  0  0  0  0
 13  2  1  0  0  0  0
 13 35  1  1  0  0  0
 14 13  1  0  0  0  0
 16 17  1  1  0  0  0
 16 18  1  0  0  0  0
 16  3  1  0  0  0  0
 17 19  1  0  0  0  0
 19 20  1  0  0  0  0
 20 18  1  0  0  0  0
 21 19  1  0  0  0  0
 22 21  1  1  0  0  0
 22 25  1  0  0  0  0
 23 25  1  0  0  0  0
 24 22  1  0  0  0  0
 25 28  1  0  0  0  0
 25 26  1  1  0  0  0
 27 24  1  0  0  0  0
 27 23  1  0  0  0  0
 28 29  1  0  0  0  0
 29 34  2  0  0  0  0
 29 33  1  0  0  0  0
 30 32  2  0  0  0  0
 31 32  1  0  0  0  0
 33 31  2  0  0  0  0
 34 30  1  0  0  0  0
 36 39  1  0  0  0  0
 37 41  1  0  0  0  0
 37 36  2  0  0  0  0
 38 40  1  0  0  0  0
 39 40  2  0  0  0  0
 40 35  1  0  0  0  0
 41 38  2  0  0  0  0
 42 43  1  0  0  0  0
 43 37  1  0  0  0  0
M  END
>  <MODEL>
9

>  <REMARK>
 VINA RESULT:      -7.7      2.694      7.678
  Name = 
  8 active torsions:
  status: ('A' for Active; 'I' for Inactive)
    1  A    between atoms: N_1  and  C_34
    2  A    between atoms: N_1  and  C_35
    3  A    between atoms: C_2  and  C_13
    4  A    between atoms: C_3  and  C_4
    5  A    between atoms: C_3  and  N_12
    6  A    between atoms: C_11  and  O_14
    7  A    between atoms: O_14  and  C_22
    8  A    between atoms: C_19  and  C_37
                            x       y       z     vdW  Elec       q    Type
                         _______ _______ _______ _____ _____    ______ ____

>  <TORSDO>
F 8

$$$$
