=
 OpenBabel11052421253D

 32 38  0  0  1  0  0  0  0  0999 V2000
  193.1800  176.3050  146.8860 C   0  0  0  0  0  2  0  0  0  0  0  0
  188.7470  177.0710  144.3190 C   0  0  0  0  0  0  0  0  0  0  0  0
  185.8080  178.3990  147.9730 C   0  0  0  0  0  3  0  0  0  0  0  0
  184.7870  178.6540  147.0580 C   0  0  0  0  0  3  0  0  0  0  0  0
  187.8970  176.9300  141.9040 C   0  0  0  0  0  0  0  0  0  0  0  0
  186.7210  177.3040  141.0510 C   0  0  0  0  0  0  0  0  0  0  0  0
  190.9730  176.2330  144.8200 C   0  0  0  0  0  0  0  0  0  0  0  0
  189.5080  176.9060  146.5900 N   0  0  0  0  0  0  0  0  0  0  0  0
  184.7360  177.9440  140.4750 C   0  0  0  0  0  0  0  0  0  0  0  0
  191.7150  176.0340  147.2770 C   0  0  0  0  0  2  0  0  0  0  0  0
  187.0420  177.9250  147.5230 C   0  0  0  0  0  3  0  0  0  0  0  0
  188.5100  177.2210  145.6990 C   0  0  0  0  0  0  0  0  0  0  0  0
  187.2840  177.7310  146.1550 C   0  0  0  0  0  0  0  0  0  0  0  0
  186.4480  177.8020  143.8540 C   0  0  0  0  0  0  0  0  0  0  0  0
  185.4300  177.6270  139.3970 O   0  0  0  0  0  0  0  0  0  0  0  0
  192.8460  174.5850  145.1950 C   0  0  0  0  0  2  0  0  0  0  0  0
  190.7300  176.4400  146.1990 C   0  0  0  0  0  0  0  0  0  0  0  0
  186.6320  177.2240  139.7070 N   0  0  0  0  0  0  0  0  0  0  0  0
  192.2230  175.6250  144.2560 C   0  0  0  0  0  2  0  0  0  0  0  0
  193.8080  175.1980  146.1350 N   0  0  1  0  0  0  0  0  0  0  0  0
  185.0050  178.4630  145.6960 C   0  0  0  0  0  3  0  0  0  0  0  0
  186.2480  178.0170  145.2250 C   0  0  0  0  0  0  0  0  0  0  0  0
  185.3350  177.9660  142.9440 N   0  0  0  0  0  0  0  0  0  0  0  0
  189.9840  176.5750  143.9030 C   0  0  0  0  0  3  0  0  0  0  0  0
  188.1200  175.4140  141.7980 C   0  0  0  0  0  1  0  0  0  0  0  0
  183.3350  178.4330  140.4760 C   0  0  0  0  0  1  0  0  0  0  0  0
  187.7130  177.3360  143.3790 C   0  0  0  0  0  0  0  0  0  0  0  0
  185.5450  177.7350  141.5580 C   0  0  0  0  0  0  0  0  0  0  0  0
  195.3170  175.0950  144.1370 C   0  0  2  0  0  3  0  0  0  0  0  0
  194.9410  175.8180  145.4280 C   0  0  2  0  0  3  0  0  0  0  0  0
  196.1550  174.9110  145.4010 C   0  0  0  0  0  2  0  0  0  0  0  0
  195.9960  175.9700  143.2900 O   0  0  0  0  0  1  0  0  0  0  0  0
  1 10  1  0  0  0  0
  2 12  1  0  0  0  0
  4  3  2  0  0  0  0
  5 27  2  0  0  0  0
  6 28  1  0  0  0  0
  6  5  1  0  0  0  0
  7 17  2  0  0  0  0
  9 26  1  0  0  0  0
  9 28  2  0  0  0  0
 11  3  1  0  0  0  0
 12 13  1  0  0  0  0
 12  8  2  0  0  0  0
 13 11  2  0  0  0  0
 14 22  1  0  0  0  0
 15 18  1  0  0  0  0
 15  9  1  0  0  0  0
 17  8  1  0  0  0  0
 17 10  1  0  0  0  0
 18  6  2  0  0  0  0
 19  7  1  0  0  0  0
 19 16  1  0  0  0  0
 20 16  1  6  0  0  0
 20  1  1  0  0  0  0
 21  4  1  0  0  0  0
 22 21  2  0  0  0  0
 22 13  1  0  0  0  0
 23 14  2  0  0  0  0
 24  2  2  0  0  0  0
 24  7  1  0  0  0  0
 25  5  1  0  0  0  0
 27 14  1  0  0  0  0
 27  2  1  0  0  0  0
 28 23  1  0  0  0  0
 29 32  1  6  0  0  0
 29 31  1  0  0  0  0
 29 30  1  0  0  0  0
 30 31  1  1  0  0  0
 30 20  1  0  0  0  0
M  END
>  <MODEL>
1

>  <REMARK>
 VINA RESULT:     -10.3      0.000      0.000
  Name = 
  1 active torsions:
  status: ('A' for Active; 'I' for Inactive)
    1  A    between atoms: C_10  and  N_24
                            x       y       z     vdW  Elec       q    Type
                         _______ _______ _______ _____ _____    ______ ____

>  <TORSDO>
F 1

$$$$
=
 OpenBabel11052421253D

 32 38  0  0  1  0  0  0  0  0999 V2000
  193.6330  174.8470  145.7480 C   0  0  0  0  0  2  0  0  0  0  0  0
  189.0670  176.1910  143.7070 C   0  0  0  0  0  0  0  0  0  0  0  0
  186.4360  176.8680  147.7540 C   0  0  0  0  0  3  0  0  0  0  0  0
  185.3640  177.3170  146.9820 C   0  0  0  0  0  3  0  0  0  0  0  0
  188.0470  176.5310  141.3790 C   0  0  0  0  0  0  0  0  0  0  0  0
  186.8310  177.0880  140.7010 C   0  0  0  0  0  0  0  0  0  0  0  0
  191.2890  175.2200  143.8750 C   0  0  0  0  0  0  0  0  0  0  0  0
  189.9740  175.5790  145.8440 N   0  0  0  0  0  0  0  0  0  0  0  0
  184.8360  177.8720  140.4050 C   0  0  0  0  0  0  0  0  0  0  0  0
  192.1900  174.5410  146.1880 C   0  0  0  0  0  2  0  0  0  0  0  0
  187.6170  176.4600  147.1320 C   0  0  0  0  0  3  0  0  0  0  0  0
  188.9290  176.0810  145.1050 C   0  0  0  0  0  0  0  0  0  0  0  0
  187.7580  176.5240  145.7380 C   0  0  0  0  0  0  0  0  0  0  0  0
  186.7700  177.0500  143.5600 C   0  0  0  0  0  0  0  0  0  0  0  0
  185.4420  177.7500  139.2380 O   0  0  0  0  0  0  0  0  0  0  0  0
  193.1200  173.4870  143.7940 C   0  0  0  0  0  2  0  0  0  0  0  0
  191.1480  175.1670  145.2830 C   0  0  0  0  0  0  0  0  0  0  0  0
  186.6470  177.2670  139.3770 N   0  0  0  0  0  0  0  0  0  0  0  0
  192.4730  174.7010  143.1150 C   0  0  0  0  0  2  0  0  0  0  0  0
  194.1670  173.8880  144.7570 N   0  0  1  0  0  0  0  0  0  0  0  0
  185.4820  177.3830  145.5950 C   0  0  0  0  0  3  0  0  0  0  0  0
  186.6720  177.0050  144.9580 C   0  0  0  0  0  0  0  0  0  0  0  0
  185.6030  177.4100  142.7830 N   0  0  0  0  0  0  0  0  0  0  0  0
  190.2530  175.7540  143.1150 C   0  0  0  0  0  3  0  0  0  0  0  0
  188.2070  175.0580  140.9740 C   0  0  0  0  0  1  0  0  0  0  0  0
  183.4570  178.3850  140.6020 C   0  0  0  0  0  1  0  0  0  0  0  0
  187.9810  176.6530  142.9130 C   0  0  0  0  0  0  0  0  0  0  0  0
  185.7090  177.4420  141.3660 C   0  0  0  0  0  0  0  0  0  0  0  0
  196.5360  174.6810  144.9480 C   0  0  2  0  0  3  0  0  0  0  0  0
  195.2710  174.6050  144.0970 C   0  0  2  0  0  3  0  0  0  0  0  0
  195.6170  175.8940  144.8170 C   0  0  0  0  0  2  0  0  0  0  0  0
  197.6430  174.8830  144.1240 O   0  0  0  0  0  1  0  0  0  0  0  0
  1 10  1  0  0  0  0
  2 12  1  0  0  0  0
  4  3  2  0  0  0  0
  5 27  2  0  0  0  0
  6 28  1  0  0  0  0
  6  5  1  0  0  0  0
  7 17  2  0  0  0  0
  9 26  1  0  0  0  0
  9 28  2  0  0  0  0
 11  3  1  0  0  0  0
 12 13  1  0  0  0  0
 12  8  2  0  0  0  0
 13 11  2  0  0  0  0
 14 22  1  0  0  0  0
 15 18  1  0  0  0  0
 15  9  1  0  0  0  0
 17  8  1  0  0  0  0
 17 10  1  0  0  0  0
 18  6  2  0  0  0  0
 19 16  1  0  0  0  0
 19  7  1  0  0  0  0
 20 16  1  6  0  0  0
 20  1  1  0  0  0  0
 21  4  1  0  0  0  0
 22 21  2  0  0  0  0
 22 13  1  0  0  0  0
 23 14  2  0  0  0  0
 24  2  2  0  0  0  0
 24  7  1  0  0  0  0
 25  5  1  0  0  0  0
 27 14  1  0  0  0  0
 27  2  1  0  0  0  0
 28 23  1  0  0  0  0
 29 32  1  6  0  0  0
 30 20  1  0  0  0  0
 30 31  1  1  0  0  0
 30 29  1  0  0  0  0
 31 29  1  0  0  0  0
M  END
>  <MODEL>
2

>  <REMARK>
 VINA RESULT:      -9.5      1.163      1.320
  Name = 
  1 active torsions:
  status: ('A' for Active; 'I' for Inactive)
    1  A    between atoms: C_10  and  N_24
                            x       y       z     vdW  Elec       q    Type
                         _______ _______ _______ _____ _____    ______ ____

>  <TORSDO>
F 1

$$$$
=
 OpenBabel11052421253D

 32 38  0  0  1  0  0  0  0  0999 V2000
  191.1990  173.1910  139.3060 C   0  0  0  0  0  2  0  0  0  0  0  0
  188.9830  175.7130  143.2500 C   0  0  0  0  0  0  0  0  0  0  0  0
  192.2090  174.8450  146.7990 C   0  0  0  0  0  3  0  0  0  0  0  0
  191.4920  175.6830  147.6540 C   0  0  0  0  0  3  0  0  0  0  0  0
  186.8780  177.1140  143.6720 C   0  0  0  0  0  0  0  0  0  0  0  0
  186.2570  178.0220  144.6920 C   0  0  0  0  0  0  0  0  0  0  0  0
  189.2050  174.5540  141.1250 C   0  0  0  0  0  0  0  0  0  0  0  0
  190.7790  174.1620  142.8850 N   0  0  0  0  0  0  0  0  0  0  0  0
  185.8930  179.0460  146.5630 C   0  0  0  0  0  0  0  0  0  0  0  0
  191.1230  172.8670  140.8090 C   0  0  0  0  0  2  0  0  0  0  0  0
  191.7550  174.6300  145.4970 C   0  0  0  0  0  3  0  0  0  0  0  0
  190.1200  175.0290  143.7230 C   0  0  0  0  0  0  0  0  0  0  0  0
  190.6010  175.2710  145.0200 C   0  0  0  0  0  0  0  0  0  0  0  0
  188.7150  176.7700  145.4510 C   0  0  0  0  0  0  0  0  0  0  0  0
  184.9610  179.3760  145.6880 O   0  0  0  0  0  0  0  0  0  0  0  0
  188.7870  172.8540  139.3080 C   0  0  0  0  0  2  0  0  0  0  0  0
  190.3740  173.9180  141.6050 C   0  0  0  0  0  0  0  0  0  0  0  0
  185.1420  178.7660  144.5480 N   0  0  0  0  0  0  0  0  0  0  0  0
  188.5830  174.2980  139.7840 C   0  0  0  0  0  2  0  0  0  0  0  0
  190.0370  172.7010  138.5340 N   0  0  1  0  0  0  0  0  0  0  0  0
  190.3410  176.3230  147.2020 C   0  0  0  0  0  3  0  0  0  0  0  0
  189.8890  176.1410  145.8880 C   0  0  0  0  0  0  0  0  0  0  0  0
  187.9330  177.5390  146.3950 N   0  0  0  0  0  0  0  0  0  0  0  0
  188.5430  175.4590  141.9490 C   0  0  0  0  0  3  0  0  0  0  0  0
  185.9150  175.9470  143.4000 C   0  0  0  0  0  1  0  0  0  0  0  0
  185.9800  179.5550  147.9540 C   0  0  0  0  0  1  0  0  0  0  0  0
  188.2510  176.5730  144.1130 C   0  0  0  0  0  0  0  0  0  0  0  0
  186.7380  178.1630  145.9460 C   0  0  0  0  0  0  0  0  0  0  0  0
  190.9380  172.9810  136.2130 C   0  0  2  0  0  3  0  0  0  0  0  0
  190.0260  173.5210  137.3110 C   0  0  2  0  0  3  0  0  0  0  0  0
  191.3690  174.1780  137.0590 C   0  0  0  0  0  2  0  0  0  0  0  0
  190.5120  173.4560  134.9730 O   0  0  0  0  0  1  0  0  0  0  0  0
  1 10  1  0  0  0  0
  2 12  1  0  0  0  0
  2 27  1  0  0  0  0
  3  4  1  0  0  0  0
  5 27  2  0  0  0  0
  5  6  1  0  0  0  0
  6 28  1  0  0  0  0
  7 17  2  0  0  0  0
  7 24  1  0  0  0  0
  8 12  2  0  0  0  0
  9 26  1  0  0  0  0
 10 17  1  0  0  0  0
 11  3  2  0  0  0  0
 12 13  1  0  0  0  0
 13 11  1  0  0  0  0
 13 22  2  0  0  0  0
 14 22  1  0  0  0  0
 14 23  2  0  0  0  0
 15  9  1  0  0  0  0
 16 19  1  0  0  0  0
 17  8  1  0  0  0  0
 18  6  2  0  0  0  0
 18 15  1  0  0  0  0
 19  7  1  0  0  0  0
 20  1  1  1  0  0  0
 20 16  1  0  0  0  0
 21  4  2  0  0  0  0
 22 21  1  0  0  0  0
 24  2  2  0  0  0  0
 25  5  1  0  0  0  0
 27 14  1  0  0  0  0
 28 23  1  0  0  0  0
 28  9  2  0  0  0  0
 29 32  1  6  0  0  0
 29 31  1  0  0  0  0
 29 30  1  0  0  0  0
 30 31  1  1  0  0  0
 30 20  1  0  0  0  0
M  END
>  <MODEL>
3

>  <REMARK>
 VINA RESULT:      -8.6      3.351      6.200
  Name = 
  1 active torsions:
  status: ('A' for Active; 'I' for Inactive)
    1  A    between atoms: C_10  and  N_24
                            x       y       z     vdW  Elec       q    Type
                         _______ _______ _______ _____ _____    ______ ____

>  <TORSDO>
F 1

$$$$
=
 OpenBabel11052421253D

 32 38  0  0  1  0  0  0  0  0999 V2000
  184.8450  178.6250  143.5090 C   0  0  0  0  0  2  0  0  0  0  0  0
  189.0090  175.6270  144.2110 C   0  0  0  0  0  0  0  0  0  0  0  0
  190.7790  177.4980  148.3490 C   0  0  0  0  0  3  0  0  0  0  0  0
  191.7530  176.4990  148.3830 C   0  0  0  0  0  3  0  0  0  0  0  0
  190.1620  173.6620  143.0340 C   0  0  0  0  0  0  0  0  0  0  0  0
  191.2280  172.6280  143.2460 C   0  0  0  0  0  0  0  0  0  0  0  0
  187.1830  176.7570  143.0740 C   0  0  0  0  0  0  0  0  0  0  0  0
  188.0680  177.6410  145.1150 N   0  0  0  0  0  0  0  0  0  0  0  0
  192.9120  171.5780  144.1080 C   0  0  0  0  0  0  0  0  0  0  0  0
  186.2460  178.9390  144.0660 C   0  0  0  0  0  2  0  0  0  0  0  0
  189.8650  177.5410  147.2940 C   0  0  0  0  0  3  0  0  0  0  0  0
  188.9960  176.6310  145.1990 C   0  0  0  0  0  0  0  0  0  0  0  0
  189.8880  176.5720  146.2800 C   0  0  0  0  0  0  0  0  0  0  0  0
  190.9370  174.5800  145.3180 C   0  0  0  0  0  0  0  0  0  0  0  0
  192.5240  170.9640  143.0050 O   0  0  0  0  0  0  0  0  0  0  0  0
  185.9880  178.2150  141.3980 C   0  0  0  0  0  2  0  0  0  0  0  0
  187.1540  177.7260  144.1050 C   0  0  0  0  0  0  0  0  0  0  0  0
  191.5140  171.5780  142.4500 N   0  0  0  0  0  0  0  0  0  0  0  0
  186.3160  176.7870  141.8490 C   0  0  0  0  0  2  0  0  0  0  0  0
  184.7560  178.7250  142.0370 N   0  0  1  0  0  0  0  0  0  0  0  0
  191.7970  175.5320  147.3830 C   0  0  0  0  0  3  0  0  0  0  0  0
  190.8670  175.5430  146.3340 C   0  0  0  0  0  0  0  0  0  0  0  0
  192.0270  173.6280  145.3210 N   0  0  0  0  0  0  0  0  0  0  0  0
  188.0950  175.7100  143.1590 C   0  0  0  0  0  3  0  0  0  0  0  0
  190.5080  174.4760  141.7780 C   0  0  0  0  0  1  0  0  0  0  0  0
  194.0340  171.1450  144.9770 C   0  0  0  0  0  1  0  0  0  0  0  0
  189.9950  174.6010  144.2430 C   0  0  0  0  0  0  0  0  0  0  0  0
  192.0960  172.6630  144.2810 C   0  0  0  0  0  0  0  0  0  0  0  0
  182.7420  178.5350  140.5580 C   0  0  2  0  0  3  0  0  0  0  0  0
  183.5790  177.9170  141.6750 C   0  0  2  0  0  3  0  0  0  0  0  0
  182.2820  178.6260  142.0130 C   0  0  0  0  0  2  0  0  0  0  0  0
  181.9940  177.5410  139.9290 O   0  0  0  0  0  1  0  0  0  0  0  0
  1 10  1  0  0  0  0
  2 27  1  0  0  0  0
  2 12  1  0  0  0  0
  3  4  1  0  0  0  0
  5  6  1  0  0  0  0
  5 27  2  0  0  0  0
  6 28  1  0  0  0  0
  7 24  1  0  0  0  0
  7 17  2  0  0  0  0
  8 12  2  0  0  0  0
  9 28  2  0  0  0  0
  9 26  1  0  0  0  0
 10 17  1  0  0  0  0
 11  3  2  0  0  0  0
 12 13  1  0  0  0  0
 13 22  2  0  0  0  0
 13 11  1  0  0  0  0
 14 23  2  0  0  0  0
 14 22  1  0  0  0  0
 15  9  1  0  0  0  0
 16 19  1  0  0  0  0
 17  8  1  0  0  0  0
 18 15  1  0  0  0  0
 18  6  2  0  0  0  0
 19  7  1  0  0  0  0
 20 16  1  6  0  0  0
 20  1  1  0  0  0  0
 21  4  2  0  0  0  0
 22 21  1  0  0  0  0
 24  2  2  0  0  0  0
 25  5  1  0  0  0  0
 27 14  1  0  0  0  0
 28 23  1  0  0  0  0
 29 32  1  6  0  0  0
 29 30  1  0  0  0  0
 29 31  1  0  0  0  0
 30 31  1  1  0  0  0
 30 20  1  0  0  0  0
M  END
>  <MODEL>
4

>  <REMARK>
 VINA RESULT:      -8.5      2.472      8.090
  Name = 
  1 active torsions:
  status: ('A' for Active; 'I' for Inactive)
    1  A    between atoms: C_10  and  N_24
                            x       y       z     vdW  Elec       q    Type
                         _______ _______ _______ _____ _____    ______ ____

>  <TORSDO>
F 1

$$$$
=
 OpenBabel11052421253D

 32 38  0  0  1  0  0  0  0  0999 V2000
  188.5070  172.6650  138.4480 C   0  0  0  0  0  2  0  0  0  0  0  0
  189.1100  175.4570  142.7680 C   0  0  0  0  0  0  0  0  0  0  0  0
  185.3450  178.5300  142.3880 C   0  0  0  0  0  3  0  0  0  0  0  0
  185.6410  179.0470  143.6490 C   0  0  0  0  0  3  0  0  0  0  0  0
  190.7150  175.5530  144.7660 C   0  0  0  0  0  0  0  0  0  0  0  0
  190.8640  176.1740  146.1230 C   0  0  0  0  0  0  0  0  0  0  0  0
  189.6650  174.0110  140.8960 C   0  0  0  0  0  0  0  0  0  0  0  0
  187.8150  175.5220  140.7480 N   0  0  0  0  0  0  0  0  0  0  0  0
  190.5340  177.4710  147.8230 C   0  0  0  0  0  0  0  0  0  0  0  0
  188.2690  174.1590  138.7390 C   0  0  0  0  0  2  0  0  0  0  0  0
  186.1440  177.5210  141.8470 C   0  0  0  0  0  3  0  0  0  0  0  0
  188.0540  176.0030  142.0140 C   0  0  0  0  0  0  0  0  0  0  0  0
  187.2260  176.9920  142.5670 C   0  0  0  0  0  0  0  0  0  0  0  0
  188.6010  177.0220  144.5930 C   0  0  0  0  0  0  0  0  0  0  0  0
  191.5680  176.6850  148.0600 O   0  0  0  0  0  0  0  0  0  0  0  0
  190.8590  173.1610  138.8420 C   0  0  0  0  0  2  0  0  0  0  0  0
  188.5670  174.5370  140.1760 C   0  0  0  0  0  0  0  0  0  0  0  0
  191.8050  175.8940  147.0480 N   0  0  0  0  0  0  0  0  0  0  0  0
  190.6410  173.0090  140.3530 C   0  0  0  0  0  2  0  0  0  0  0  0
  189.8990  172.3500  138.0630 N   0  0  1  0  0  0  0  0  0  0  0  0
  186.7140  178.5410  144.3780 C   0  0  0  0  0  3  0  0  0  0  0  0
  187.5070  177.5060  143.8620 C   0  0  0  0  0  0  0  0  0  0  0  0
  188.9490  177.6580  145.8450 N   0  0  0  0  0  0  0  0  0  0  0  0
  189.9020  174.4640  142.1900 C   0  0  0  0  0  3  0  0  0  0  0  0
  191.9310  175.9410  143.9100 C   0  0  0  0  0  1  0  0  0  0  0  0
  190.0020  178.4890  148.7630 C   0  0  0  0  0  1  0  0  0  0  0  0
  189.4140  175.9750  144.0580 C   0  0  0  0  0  0  0  0  0  0  0  0
  190.0660  177.1670  146.5730 C   0  0  0  0  0  0  0  0  0  0  0  0
  191.3660  170.3320  137.8290 C   0  0  2  0  0  3  0  0  0  0  0  0
  190.0490  170.9110  138.3400 C   0  0  2  0  0  3  0  0  0  0  0  0
  190.0660  170.0900  137.0650 C   0  0  0  0  0  2  0  0  0  0  0  0
  191.6750  169.1730  138.5390 O   0  0  0  0  0  1  0  0  0  0  0  0
  1 10  1  0  0  0  0
  2 27  1  0  0  0  0
  3  4  1  0  0  0  0
  4 21  2  0  0  0  0
  5  6  1  0  0  0  0
  6 28  1  0  0  0  0
  6 18  2  0  0  0  0
  7 24  2  0  0  0  0
  8 12  1  0  0  0  0
  9 15  1  0  0  0  0
  9 26  1  0  0  0  0
 10 17  1  0  0  0  0
 11  3  2  0  0  0  0
 11 13  1  0  0  0  0
 12 13  1  0  0  0  0
 12  2  2  0  0  0  0
 13 22  2  0  0  0  0
 14 23  2  0  0  0  0
 16 19  1  0  0  0  0
 17  8  2  0  0  0  0
 17  7  1  0  0  0  0
 18 15  1  0  0  0  0
 19  7  1  0  0  0  0
 20 30  1  0  0  0  0
 20  1  1  1  0  0  0
 20 16  1  0  0  0  0
 22 21  1  0  0  0  0
 22 14  1  0  0  0  0
 23 28  1  0  0  0  0
 24  2  1  0  0  0  0
 25  5  1  0  0  0  0
 27 14  1  0  0  0  0
 27  5  2  0  0  0  0
 28  9  2  0  0  0  0
 29 30  1  0  0  0  0
 29 32  1  1  0  0  0
 30 31  1  6  0  0  0
 31 29  1  0  0  0  0
M  END
>  <MODEL>
5

>  <REMARK>
 VINA RESULT:      -8.5      3.650      6.930
  Name = 
  1 active torsions:
  status: ('A' for Active; 'I' for Inactive)
    1  A    between atoms: C_10  and  N_24
                            x       y       z     vdW  Elec       q    Type
                         _______ _______ _______ _____ _____    ______ ____

>  <TORSDO>
F 1

$$$$
=
 OpenBabel11052421253D

 32 38  0  0  1  0  0  0  0  0999 V2000
  185.9020  177.2350  143.8350 C   0  0  0  0  0  2  0  0  0  0  0  0
  190.7260  175.3980  143.4030 C   0  0  0  0  0  0  0  0  0  0  0  0
  190.4330  173.0980  139.1160 C   0  0  0  0  0  3  0  0  0  0  0  0
  191.8000  172.8230  139.1710 C   0  0  0  0  0  3  0  0  0  0  0  0
  192.9060  175.4380  144.7510 C   0  0  0  0  0  0  0  0  0  0  0  0
  194.3660  175.1130  144.6320 C   0  0  0  0  0  0  0  0  0  0  0  0
  188.7030  176.2640  144.4350 C   0  0  0  0  0  0  0  0  0  0  0  0
  188.5970  175.1400  142.3240 N   0  0  0  0  0  0  0  0  0  0  0  0
  196.2240  174.3100  143.8680 C   0  0  0  0  0  0  0  0  0  0  0  0
  186.4430  175.9160  143.2520 C   0  0  0  0  0  2  0  0  0  0  0  0
  189.8220  173.7910  140.1630 C   0  0  0  0  0  3  0  0  0  0  0  0
  189.9530  174.9120  142.3310 C   0  0  0  0  0  0  0  0  0  0  0  0
  190.5680  174.2470  141.2590 C   0  0  0  0  0  0  0  0  0  0  0  0
  192.7320  174.4000  142.3950 C   0  0  0  0  0  0  0  0  0  0  0  0
  196.4440  174.9160  145.0210 O   0  0  0  0  0  0  0  0  0  0  0  0
  186.7080  176.3970  145.9740 C   0  0  0  0  0  2  0  0  0  0  0  0
  187.9540  175.8130  143.3220 C   0  0  0  0  0  0  0  0  0  0  0  0
  195.3400  175.4040  145.5190 N   0  0  0  0  0  0  0  0  0  0  0  0
  188.1150  176.9160  145.6520 C   0  0  0  0  0  2  0  0  0  0  0  0
  185.6610  177.1850  145.2920 N   0  0  1  0  0  0  0  0  0  0  0  0
  192.5580  173.2620  140.2540 C   0  0  0  0  0  3  0  0  0  0  0  0
  191.9650  173.9860  141.2980 C   0  0  0  0  0  0  0  0  0  0  0  0
  194.1200  174.0000  142.4770 N   0  0  0  0  0  0  0  0  0  0  0  0
  190.0800  176.0690  144.4440 C   0  0  0  0  0  3  0  0  0  0  0  0
  192.3200  174.6460  145.9300 C   0  0  0  0  0  1  0  0  0  0  0  0
  197.2610  173.6440  143.0410 C   0  0  0  0  0  1  0  0  0  0  0  0
  192.1210  175.1280  143.4630 C   0  0  0  0  0  0  0  0  0  0  0  0
  194.8870  174.4150  143.5990 C   0  0  0  0  0  0  0  0  0  0  0  0
  185.4260  178.7680  147.2200 C   0  0  2  0  0  3  0  0  0  0  0  0
  185.6690  178.5930  145.7230 C   0  0  2  0  0  3  0  0  0  0  0  0
  184.3070  179.0410  146.2160 C   0  0  0  0  0  2  0  0  0  0  0  0
  185.9410  179.9940  147.6390 O   0  0  0  0  0  1  0  0  0  0  0  0
  2 27  1  0  0  0  0
  2 24  1  0  0  0  0
  3  4  2  0  0  0  0
  3 11  1  0  0  0  0
  4 21  1  0  0  0  0
  5 25  1  0  0  0  0
  6  5  1  0  0  0  0
  6 18  2  0  0  0  0
  7 24  2  0  0  0  0
  7 19  1  0  0  0  0
  8 12  1  0  0  0  0
  8 17  2  0  0  0  0
  9 15  1  0  0  0  0
 10 17  1  0  0  0  0
 10  1  1  0  0  0  0
 11 13  2  0  0  0  0
 12  2  2  0  0  0  0
 13 22  1  0  0  0  0
 13 12  1  0  0  0  0
 14 23  2  0  0  0  0
 14 27  1  0  0  0  0
 15 18  1  0  0  0  0
 17  7  1  0  0  0  0
 19 16  1  0  0  0  0
 20  1  1  6  0  0  0
 20 30  1  0  0  0  0
 20 16  1  0  0  0  0
 21 22  2  0  0  0  0
 22 14  1  0  0  0  0
 23 28  1  0  0  0  0
 26  9  1  0  0  0  0
 27  5  2  0  0  0  0
 28  9  2  0  0  0  0
 28  6  1  0  0  0  0
 29 32  1  6  0  0  0
 30 31  1  6  0  0  0
 30 29  1  0  0  0  0
 31 29  1  0  0  0  0
M  END
>  <MODEL>
6

>  <REMARK>
 VINA RESULT:      -8.1      2.783      8.786
  Name = 
  1 active torsions:
  status: ('A' for Active; 'I' for Inactive)
    1  A    between atoms: C_10  and  N_24
                            x       y       z     vdW  Elec       q    Type
                         _______ _______ _______ _____ _____    ______ ____

>  <TORSDO>
F 1

$$$$
=
 OpenBabel11052421253D

 32 38  0  0  1  0  0  0  0  0999 V2000
  187.7900  177.9910  145.4010 C   0  0  0  0  0  2  0  0  0  0  0  0
  190.7870  173.9850  144.0600 C   0  0  0  0  0  0  0  0  0  0  0  0
  195.0010  175.2780  146.1380 C   0  0  0  0  0  3  0  0  0  0  0  0
  195.5600  174.0560  145.7630 C   0  0  0  0  0  3  0  0  0  0  0  0
  190.5630  171.7960  142.7440 C   0  0  0  0  0  0  0  0  0  0  0  0
  191.2900  170.5140  142.4660 C   0  0  0  0  0  0  0  0  0  0  0  0
  188.9460  175.5720  144.0030 C   0  0  0  0  0  0  0  0  0  0  0  0
  191.0260  176.1690  145.0270 N   0  0  0  0  0  0  0  0  0  0  0  0
  192.8760  169.0450  142.3680 C   0  0  0  0  0  0  0  0  0  0  0  0
  189.2780  177.9150  145.0150 C   0  0  0  0  0  2  0  0  0  0  0  0
  193.6810  175.5730  145.7930 C   0  0  0  0  0  3  0  0  0  0  0  0
  191.5760  174.9480  144.7200 C   0  0  0  0  0  0  0  0  0  0  0  0
  192.8920  174.6430  145.1010 C   0  0  0  0  0  0  0  0  0  0  0  0
  192.7060  172.4520  144.0220 C   0  0  0  0  0  0  0  0  0  0  0  0
  191.7920  168.5670  141.7840 O   0  0  0  0  0  0  0  0  0  0  0  0
  187.3560  177.3120  143.1030 C   0  0  0  0  0  2  0  0  0  0  0  0
  189.7410  176.5040  144.7120 C   0  0  0  0  0  0  0  0  0  0  0  0
  190.8150  169.4340  141.8140 N   0  0  0  0  0  0  0  0  0  0  0  0
  187.5610  175.8430  143.4950 C   0  0  0  0  0  2  0  0  0  0  0  0
  186.8820  178.1250  144.2430 N   0  0  1  0  0  0  0  0  0  0  0  0
  194.7950  173.1210  145.0700 C   0  0  0  0  0  3  0  0  0  0  0  0
  193.4590  173.3900  144.7430 C   0  0  0  0  0  0  0  0  0  0  0  0
  193.3490  171.2450  143.5490 N   0  0  0  0  0  0  0  0  0  0  0  0
  189.4770  174.3190  143.7110 C   0  0  0  0  0  3  0  0  0  0  0  0
  190.2790  172.5010  141.4080 C   0  0  0  0  0  1  0  0  0  0  0  0
  194.1640  168.3210  142.5030 C   0  0  0  0  0  1  0  0  0  0  0  0
  191.3470  172.7340  143.6800 C   0  0  0  0  0  0  0  0  0  0  0  0
  192.5810  170.3070  142.8090 C   0  0  0  0  0  0  0  0  0  0  0  0
  185.0760  178.4400  145.9520 C   0  0  2  0  0  3  0  0  0  0  0  0
  185.5730  177.6630  144.7350 C   0  0  2  0  0  3  0  0  0  0  0  0
  185.6750  177.0440  146.1160 C   0  0  0  0  0  2  0  0  0  0  0  0
  183.6890  178.3300  146.0440 O   0  0  0  0  0  1  0  0  0  0  0  0
  2 12  1  0  0  0  0
  4  3  2  0  0  0  0
  5 27  2  0  0  0  0
  6  5  1  0  0  0  0
  6 28  1  0  0  0  0
  7 17  2  0  0  0  0
  9 26  1  0  0  0  0
  9 28  2  0  0  0  0
 10  1  1  0  0  0  0
 11  3  1  0  0  0  0
 12  8  2  0  0  0  0
 12 13  1  0  0  0  0
 13 11  2  0  0  0  0
 14 22  1  0  0  0  0
 15 18  1  0  0  0  0
 15  9  1  0  0  0  0
 16 19  1  0  0  0  0
 17 10  1  0  0  0  0
 17  8  1  0  0  0  0
 18  6  2  0  0  0  0
 19  7  1  0  0  0  0
 20 16  1  6  0  0  0
 20 30  1  0  0  0  0
 20  1  1  0  0  0  0
 21  4  1  0  0  0  0
 22 21  2  0  0  0  0
 22 13  1  0  0  0  0
 23 14  2  0  0  0  0
 24  7  1  0  0  0  0
 24  2  2  0  0  0  0
 25  5  1  0  0  0  0
 27 14  1  0  0  0  0
 27  2  1  0  0  0  0
 28 23  1  0  0  0  0
 29 32  1  6  0  0  0
 29 31  1  0  0  0  0
 30 29  1  0  0  0  0
 30 31  1  1  0  0  0
M  END
>  <MODEL>
7

>  <REMARK>
 VINA RESULT:      -8.1      3.672      8.404
  Name = 
  1 active torsions:
  status: ('A' for Active; 'I' for Inactive)
    1  A    between atoms: C_10  and  N_24
                            x       y       z     vdW  Elec       q    Type
                         _______ _______ _______ _____ _____    ______ ____

>  <TORSDO>
F 1

$$$$
=
 OpenBabel11052421253D

 32 38  0  0  1  0  0  0  0  0999 V2000
  195.1190  173.3460  141.9510 C   0  0  0  0  0  2  0  0  0  0  0  0
  190.7770  175.8710  143.2130 C   0  0  0  0  0  0  0  0  0  0  0  0
  191.5440  176.6660  147.9590 C   0  0  0  0  0  3  0  0  0  0  0  0
  190.3720  177.4200  148.0220 C   0  0  0  0  0  3  0  0  0  0  0  0
  188.6370  176.6770  142.0520 C   0  0  0  0  0  0  0  0  0  0  0  0
  187.4420  177.5570  142.2730 C   0  0  0  0  0  0  0  0  0  0  0  0
  192.2940  174.4240  141.9830 C   0  0  0  0  0  0  0  0  0  0  0  0
  192.6490  174.8470  144.3120 N   0  0  0  0  0  0  0  0  0  0  0  0
  185.9670  178.7860  143.2700 C   0  0  0  0  0  0  0  0  0  0  0  0
  194.2570  173.3180  143.2260 C   0  0  0  0  0  2  0  0  0  0  0  0
  191.9280  176.0780  146.7530 C   0  0  0  0  0  3  0  0  0  0  0  0
  191.5300  175.6430  144.3800 C   0  0  0  0  0  0  0  0  0  0  0  0
  191.1680  176.2610  145.5870 C   0  0  0  0  0  0  0  0  0  0  0  0
  189.1910  177.2240  144.5120 C   0  0  0  0  0  0  0  0  0  0  0  0
  185.6510  178.6610  141.9940 O   0  0  0  0  0  0  0  0  0  0  0  0
  193.1850  172.3510  140.8540 C   0  0  0  0  0  2  0  0  0  0  0  0
  193.0650  174.2510  143.1570 C   0  0  0  0  0  0  0  0  0  0  0  0
  186.5140  177.9140  141.3620 N   0  0  0  0  0  0  0  0  0  0  0  0
  192.5680  173.7440  140.6740 C   0  0  0  0  0  2  0  0  0  0  0  0
  194.6610  172.4060  140.9050 N   0  0  1  0  0  0  0  0  0  0  0  0
  189.6000  177.6080  146.8780 C   0  0  0  0  0  3  0  0  0  0  0  0
  189.9880  177.0500  145.6520 C   0  0  0  0  0  0  0  0  0  0  0  0
  187.9240  177.9120  144.6360 N   0  0  0  0  0  0  0  0  0  0  0  0
  191.1760  175.2510  142.0270 C   0  0  0  0  0  3  0  0  0  0  0  0
  188.1490  175.2570  141.7240 C   0  0  0  0  0  1  0  0  0  0  0  0
  185.1950  179.5640  144.2700 C   0  0  0  0  0  1  0  0  0  0  0  0
  189.5830  176.6430  143.2670 C   0  0  0  0  0  0  0  0  0  0  0  0
  187.1170  178.0730  143.4780 C   0  0  0  0  0  0  0  0  0  0  0  0
  196.7380  172.7110  139.5360 C   0  0  2  0  0  3  0  0  0  0  0  0
  195.2310  172.9310  139.6530 C   0  0  2  0  0  3  0  0  0  0  0  0
  196.1810  174.0860  139.9050 C   0  0  0  0  0  2  0  0  0  0  0  0
  197.1130  172.7410  138.1940 O   0  0  0  0  0  1  0  0  0  0  0  0
  1 10  1  0  0  0  0
  2 27  1  0  0  0  0
  2 12  1  0  0  0  0
  3  4  1  0  0  0  0
  5  6  1  0  0  0  0
  5 27  2  0  0  0  0
  6 28  1  0  0  0  0
  7 24  1  0  0  0  0
  7 17  2  0  0  0  0
  8 12  2  0  0  0  0
  9 28  2  0  0  0  0
  9 26  1  0  0  0  0
 11  3  2  0  0  0  0
 12 13  1  0  0  0  0
 13 22  2  0  0  0  0
 13 11  1  0  0  0  0
 14 23  2  0  0  0  0
 14 22  1  0  0  0  0
 15  9  1  0  0  0  0
 17 10  1  0  0  0  0
 17  8  1  0  0  0  0
 18 15  1  0  0  0  0
 18  6  2  0  0  0  0
 19 16  1  0  0  0  0
 19  7  1  0  0  0  0
 20 16  1  6  0  0  0
 20  1  1  0  0  0  0
 21  4  2  0  0  0  0
 22 21  1  0  0  0  0
 24  2  2  0  0  0  0
 25  5  1  0  0  0  0
 27 14  1  0  0  0  0
 28 23  1  0  0  0  0
 29 32  1  6  0  0  0
 29 30  1  0  0  0  0
 29 31  1  0  0  0  0
 30 31  1  1  0  0  0
 30 20  1  0  0  0  0
M  END
>  <MODEL>
8

>  <REMARK>
 VINA RESULT:      -8.0      2.844      4.278
  Name = 
  1 active torsions:
  status: ('A' for Active; 'I' for Inactive)
    1  A    between atoms: C_10  and  N_24
                            x       y       z     vdW  Elec       q    Type
                         _______ _______ _______ _____ _____    ______ ____

>  <TORSDO>
F 1

$$$$
=
 OpenBabel11052421253D

 32 38  0  0  1  0  0  0  0  0999 V2000
  187.7460  177.4290  145.9160 C   0  0  0  0  0  2  0  0  0  0  0  0
  190.1400  173.8220  143.0720 C   0  0  0  0  0  0  0  0  0  0  0  0
  194.1480  173.0820  145.7440 C   0  0  0  0  0  3  0  0  0  0  0  0
  194.5280  172.0490  144.8870 C   0  0  0  0  0  3  0  0  0  0  0  0
  189.7290  172.5320  140.8940 C   0  0  0  0  0  0  0  0  0  0  0  0
  190.2470  171.3660  140.1060 C   0  0  0  0  0  0  0  0  0  0  0  0
  188.6480  175.6550  143.6390 C   0  0  0  0  0  0  0  0  0  0  0  0
  190.6180  175.2550  144.9380 N   0  0  0  0  0  0  0  0  0  0  0  0
  191.5370  169.7610  139.4400 C   0  0  0  0  0  0  0  0  0  0  0  0
  189.2380  177.1860  145.6210 C   0  0  0  0  0  2  0  0  0  0  0  0
  192.9720  173.7920  145.4970 C   0  0  0  0  0  3  0  0  0  0  0  0
  190.9790  174.1950  144.1400 C   0  0  0  0  0  0  0  0  0  0  0  0
  192.1440  173.4620  144.4140 C   0  0  0  0  0  0  0  0  0  0  0  0
  191.7340  172.0590  142.4490 C   0  0  0  0  0  0  0  0  0  0  0  0
  190.4880  169.8460  138.6430 O   0  0  0  0  0  0  0  0  0  0  0  0
  187.5560  177.9270  143.5400 C   0  0  0  0  0  2  0  0  0  0  0  0
  189.4790  175.9790  144.7370 C   0  0  0  0  0  0  0  0  0  0  0  0
  189.6910  170.8140  139.0080 N   0  0  0  0  0  0  0  0  0  0  0  0
  187.4290  176.4300  143.2330 C   0  0  0  0  0  2  0  0  0  0  0  0
  187.0660  178.2540  144.8960 N   0  0  1  0  0  0  0  0  0  0  0  0
  193.7230  171.7090  143.8030 C   0  0  0  0  0  3  0  0  0  0  0  0
  192.5230  172.3920  143.5590 C   0  0  0  0  0  0  0  0  0  0  0  0
  192.2130  171.0620  141.5160 N   0  0  0  0  0  0  0  0  0  0  0  0
  188.9810  174.5660  142.8400 C   0  0  0  0  0  3  0  0  0  0  0  0
  189.7870  173.7880  140.0110 C   0  0  0  0  0  1  0  0  0  0  0  0
  192.6370  168.7750  139.3030 C   0  0  0  0  0  1  0  0  0  0  0  0
  190.5170  172.7660  142.1970 C   0  0  0  0  0  0  0  0  0  0  0  0
  191.4100  170.7400  140.3890 C   0  0  0  0  0  0  0  0  0  0  0  0
  185.0160  178.5490  146.3050 C   0  0  2  0  0  3  0  0  0  0  0  0
  185.6360  177.9410  145.0500 C   0  0  2  0  0  3  0  0  0  0  0  0
  185.3770  177.0650  146.2610 C   0  0  0  0  0  2  0  0  0  0  0  0
  183.6360  178.6650  146.1380 O   0  0  0  0  0  1  0  0  0  0  0  0
  2 12  1  0  0  0  0
  4  3  2  0  0  0  0
  5 27  2  0  0  0  0
  6 28  1  0  0  0  0
  6  5  1  0  0  0  0
  7 17  2  0  0  0  0
  9 28  2  0  0  0  0
 10  1  1  0  0  0  0
 11  3  1  0  0  0  0
 12 13  1  0  0  0  0
 12  8  2  0  0  0  0
 13 11  2  0  0  0  0
 14 22  1  0  0  0  0
 15 18  1  0  0  0  0
 15  9  1  0  0  0  0
 17  8  1  0  0  0  0
 17 10  1  0  0  0  0
 18  6  2  0  0  0  0
 19 16  1  0  0  0  0
 19  7  1  0  0  0  0
 20 16  1  6  0  0  0
 20 30  1  0  0  0  0
 20  1  1  0  0  0  0
 21  4  1  0  0  0  0
 22 21  2  0  0  0  0
 22 13  1  0  0  0  0
 23 14  2  0  0  0  0
 24  2  2  0  0  0  0
 24  7  1  0  0  0  0
 25  5  1  0  0  0  0
 26  9  1  0  0  0  0
 27 14  1  0  0  0  0
 27  2  1  0  0  0  0
 28 23  1  0  0  0  0
 29 32  1  6  0  0  0
 30 31  1  1  0  0  0
 30 29  1  0  0  0  0
 31 29  1  0  0  0  0
M  END
>  <MODEL>
9

>  <REMARK>
 VINA RESULT:      -8.0      4.052      8.022
  Name = 
  1 active torsions:
  status: ('A' for Active; 'I' for Inactive)
    1  A    between atoms: C_10  and  N_24
                            x       y       z     vdW  Elec       q    Type
                         _______ _______ _______ _____ _____    ______ ____

>  <TORSDO>
F 1

$$$$
