=
 OpenBabel11052419153D

 32 35  0  0  1  0  0  0  0  0999 V2000
  190.9170  175.2190  143.3080 C   0  0  2  0  0  3  0  0  0  0  0  0
  192.5060  175.3990  145.0430 C   0  0  2  0  0  3  0  0  0  0  0  0
  193.2030  175.1040  142.7340 O   0  0  0  0  0  0  0  0  0  0  0  0
  192.2660  174.6980  143.7010 C   0  0  2  0  0  3  0  0  0  0  0  0
  195.0200  175.4130  144.2700 C   0  0  2  0  0  3  0  0  0  0  0  0
  194.4360  174.5710  143.1380 C   0  0  0  0  0  2  0  0  0  0  0  0
  191.7460  176.5850  145.1140 O   0  0  0  0  0  0  0  0  0  0  0  0
  190.8620  176.5690  144.0160 C   0  0  2  0  0  3  0  0  0  0  0  0
  193.9640  175.6710  145.3200 C   0  0  0  0  0  0  0  0  0  0  0  0
  194.3340  176.0040  146.5560 C   0  0  0  0  0  2  0  0  0  0  0  0
  187.3800  178.1230  143.7600 C   0  0  0  0  0  0  0  0  0  0  0  0
  186.5700  178.7680  142.8320 O   0  0  0  0  0  1  0  0  0  0  0  0
  189.4820  177.0610  144.3730 C   0  0  0  0  0  0  0  0  0  0  0  0
  186.8880  177.8870  145.0460 C   0  0  0  0  0  3  0  0  0  0  0  0
  188.9700  176.8250  145.6560 C   0  0  0  0  0  3  0  0  0  0  0  0
  188.6770  177.7110  143.4140 C   0  0  0  0  0  0  0  0  0  0  0  0
  189.1860  177.9610  142.0310 C   0  0  0  0  0  1  0  0  0  0  0  0
  187.6810  177.2350  146.0020 C   0  0  0  0  0  0  0  0  0  0  0  0
  185.9620  177.4640  147.7650 C   0  0  0  0  0  1  0  0  0  0  0  0
  187.2130  176.9820  147.2940 O   0  0  0  0  0  0  0  0  0  0  0  0
  190.1420  173.3710  144.7890 N   0  0  0  0  0  2  0  0  0  0  0  0
  189.7810  174.2450  143.6770 C   0  0  2  0  0  3  0  0  0  0  0  0
  189.4060  173.4360  142.5230 N   0  0  0  0  0  0  0  0  0  0  0  0
  189.1760  172.0980  143.0380 C   0  0  0  0  0  2  0  0  0  0  0  0
  189.4400  172.1340  144.5230 C   0  0  0  0  0  2  0  0  0  0  0  0
  188.1230  173.9320  142.0470 C   0  0  0  0  0  2  0  0  0  0  0  0
  188.2990  174.6320  140.7130 C   0  0  0  0  0  2  0  0  0  0  0  0
  189.0120  173.7080  139.7500 C   0  0  0  0  0  2  0  0  0  0  0  0
  188.0790  172.8900  139.1150 O   0  0  0  0  0  1  0  0  0  0  0  0
  195.5570  176.7210  143.7040 C   0  0  0  0  0  2  0  0  0  0  0  0
  197.8100  176.0830  143.0030 C   0  0  0  0  0  2  0  0  0  0  0  0
  196.5840  176.4590  142.6540 C   0  0  0  0  0  3  0  0  0  0  0  0
  1 22  1  1  0  0  0
  1  4  1  0  0  0  0
  1  8  1  0  0  0  0
  2  7  1  6  0  0  0
  2  9  1  0  0  0  0
  3  6  1  0  0  0  0
  4  3  1  6  0  0  0
  4  2  1  0  0  0  0
  5 30  1  6  0  0  0
  5  9  1  0  0  0  0
  6  5  1  0  0  0  0
  8 13  1  1  0  0  0
  8  7  1  0  0  0  0
  9 10  2  0  0  0  0
 11 14  1  0  0  0  0
 12 11  1  0  0  0  0
 13 15  2  0  0  0  0
 14 18  2  0  0  0  0
 15 18  1  0  0  0  0
 16 11  2  0  0  0  0
 16 13  1  0  0  0  0
 17 16  1  0  0  0  0
 18 20  1  0  0  0  0
 20 19  1  0  0  0  0
 22 21  1  1  0  0  0
 23 24  1  0  0  0  0
 23 22  1  0  0  0  0
 24 25  1  0  0  0  0
 25 21  1  0  0  0  0
 26 23  1  0  0  0  0
 27 26  1  0  0  0  0
 28 27  1  0  0  0  0
 29 28  1  0  0  0  0
 32 31  2  0  0  0  0
 32 30  1  0  0  0  0
M  END
>  <MODEL>
1

>  <REMARK>
 VINA RESULT:      -6.6      0.000      0.000
  Name = 
  8 active torsions:
  status: ('A' for Active; 'I' for Inactive)
    1  A    between atoms: C_1  and  C_5
    2  A    between atoms: C_11  and  C_12
    3  A    between atoms: C_11  and  C_31
    4  A    between atoms: C_13  and  C_18
    5  A    between atoms: N_14  and  C_29
    6  A    between atoms: O_15  and  C_26
    7  A    between atoms: C_16  and  C_27
    8  A    between atoms: C_18  and  C_29
                            x       y       z     vdW  Elec       q    Type
                         _______ _______ _______ _____ _____    ______ ____

>  <TORSDO>
F 8

$$$$
=
 OpenBabel11052419153D

 32 35  0  0  1  0  0  0  0  0999 V2000
  192.3370  174.5380  145.2790 C   0  0  2  0  0  3  0  0  0  0  0  0
  190.2370  175.1520  144.3930 C   0  0  2  0  0  3  0  0  0  0  0  0
  190.5760  174.9630  146.7920 O   0  0  0  0  0  0  0  0  0  0  0  0
  190.8720  174.3720  145.5500 C   0  0  2  0  0  3  0  0  0  0  0  0
  188.3960  175.7510  146.1740 C   0  0  2  0  0  3  0  0  0  0  0  0
  189.2050  174.7580  147.0040 C   0  0  0  0  0  2  0  0  0  0  0  0
  191.1390  176.1190  143.9060 O   0  0  0  0  0  0  0  0  0  0  0  0
  192.3850  175.8560  144.5120 C   0  0  2  0  0  3  0  0  0  0  0  0
  188.9120  175.7770  144.7540 C   0  0  0  0  0  0  0  0  0  0  0  0
  188.1250  176.2280  143.7770 C   0  0  0  0  0  2  0  0  0  0  0  0
  195.8580  176.5990  143.0980 C   0  0  0  0  0  0  0  0  0  0  0  0
  197.0910  177.0870  143.5130 O   0  0  0  0  0  1  0  0  0  0  0  0
  193.5410  176.0090  143.5550 C   0  0  0  0  0  0  0  0  0  0  0  0
  195.6940  176.2010  141.7690 C   0  0  0  0  0  3  0  0  0  0  0  0
  193.3970  175.6070  142.2200 C   0  0  0  0  0  3  0  0  0  0  0  0
  194.7850  176.5040  143.9990 C   0  0  0  0  0  0  0  0  0  0  0  0
  194.9780  176.9250  145.4210 C   0  0  0  0  0  1  0  0  0  0  0  0
  194.4620  175.7020  141.3220 C   0  0  0  0  0  0  0  0  0  0  0  0
  195.2210  174.5030  139.2970 C   0  0  0  0  0  1  0  0  0  0  0  0
  194.2720  175.2920  140.0000 O   0  0  0  0  0  0  0  0  0  0  0  0
  191.9270  172.3280  144.2030 N   0  0  0  0  0  2  0  0  0  0  0  0
  192.9350  173.3300  144.5330 C   0  0  2  0  0  3  0  0  0  0  0  0
  193.9940  172.7140  145.3250 N   0  0  0  0  0  0  0  0  0  0  0  0
  193.8270  171.2810  145.1590 C   0  0  0  0  0  2  0  0  0  0  0  0
  192.6330  171.0660  144.2620 C   0  0  0  0  0  2  0  0  0  0  0  0
  195.2610  173.0670  144.7010 C   0  0  0  0  0  2  0  0  0  0  0  0
  196.2550  173.5090  145.7580 C   0  0  0  0  0  2  0  0  0  0  0  0
  197.5680  173.8660  145.0960 C   0  0  0  0  0  2  0  0  0  0  0  0
  197.5000  173.5640  143.7360 O   0  0  0  0  0  1  0  0  0  0  0  0
  188.4800  177.1320  146.8110 C   0  0  0  0  0  2  0  0  0  0  0  0
  186.0480  176.9060  146.8770 C   0  0  0  0  0  2  0  0  0  0  0  0
  187.1170  177.6630  147.1010 C   0  0  0  0  0  3  0  0  0  0  0  0
  1 22  1  6  0  0  0
  1  4  1  0  0  0  0
  2  7  1  1  0  0  0
  2  9  1  0  0  0  0
  2  4  1  0  0  0  0
  3  6  1  0  0  0  0
  4  3  1  1  0  0  0
  5 30  1  1  0  0  0
  5  6  1  0  0  0  0
  7  8  1  0  0  0  0
  8 13  1  6  0  0  0
  8  1  1  0  0  0  0
  9  5  1  0  0  0  0
 10  9  2  0  0  0  0
 11 12  1  0  0  0  0
 11 16  1  0  0  0  0
 13 16  2  0  0  0  0
 14 11  2  0  0  0  0
 15 13  1  0  0  0  0
 16 17  1  0  0  0  0
 18 14  1  0  0  0  0
 18 15  2  0  0  0  0
 19 20  1  0  0  0  0
 20 18  1  0  0  0  0
 21 25  1  0  0  0  0
 22 21  1  1  0  0  0
 22 23  1  0  0  0  0
 24 23  1  0  0  0  0
 25 24  1  0  0  0  0
 26 23  1  0  0  0  0
 26 27  1  0  0  0  0
 28 27  1  0  0  0  0
 29 28  1  0  0  0  0
 30 32  1  0  0  0  0
 31 32  2  0  0  0  0
M  END
>  <MODEL>
2

>  <REMARK>
 VINA RESULT:      -6.4      2.638      7.366
  Name = 
  8 active torsions:
  status: ('A' for Active; 'I' for Inactive)
    1  A    between atoms: C_1  and  C_5
    2  A    between atoms: C_11  and  C_12
    3  A    between atoms: C_11  and  C_31
    4  A    between atoms: C_13  and  C_18
    5  A    between atoms: N_14  and  C_29
    6  A    between atoms: O_15  and  C_26
    7  A    between atoms: C_16  and  C_27
    8  A    between atoms: C_18  and  C_29
                            x       y       z     vdW  Elec       q    Type
                         _______ _______ _______ _____ _____    ______ ____

>  <TORSDO>
F 8

$$$$
=
 OpenBabel11052419153D

 32 35  0  0  1  0  0  0  0  0999 V2000
  189.6080  175.3250  144.3910 C   0  0  2  0  0  3  0  0  0  0  0  0
  188.6350  176.7910  142.8200 C   0  0  2  0  0  3  0  0  0  0  0  0
  187.4350  176.1370  144.8290 O   0  0  0  0  0  0  0  0  0  0  0  0
  188.2750  175.6700  143.8000 C   0  0  2  0  0  3  0  0  0  0  0  0
  186.2790  177.7530  143.4850 C   0  0  2  0  0  3  0  0  0  0  0  0
  186.2020  176.4200  144.2260 C   0  0  0  0  0  2  0  0  0  0  0  0
  189.8320  177.4210  143.2190 O   0  0  0  0  0  0  0  0  0  0  0  0
  190.3830  176.6310  144.2480 C   0  0  2  0  0  3  0  0  0  0  0  0
  187.5270  177.7990  142.6340 C   0  0  0  0  0  0  0  0  0  0  0  0
  187.5920  178.6470  141.6090 C   0  0  0  0  0  2  0  0  0  0  0  0
  194.0670  176.1530  145.1500 C   0  0  0  0  0  0  0  0  0  0  0  0
  194.8740  175.9920  146.2700 O   0  0  0  0  0  1  0  0  0  0  0  0
  191.8810  176.4890  144.1350 C   0  0  0  0  0  0  0  0  0  0  0  0
  194.6510  176.1430  143.8810 C   0  0  0  0  0  3  0  0  0  0  0  0
  192.4830  176.4690  142.8690 C   0  0  0  0  0  3  0  0  0  0  0  0
  192.6800  176.3240  145.2850 C   0  0  0  0  0  0  0  0  0  0  0  0
  192.0670  176.3230  146.6490 C   0  0  0  0  0  1  0  0  0  0  0  0
  193.8620  176.3000  142.7330 C   0  0  0  0  0  0  0  0  0  0  0  0
  195.7840  176.6000  141.2060 C   0  0  0  0  0  1  0  0  0  0  0  0
  194.4200  176.2890  141.4520 O   0  0  0  0  0  0  0  0  0  0  0  0
  189.4670  173.6230  142.5770 N   0  0  0  0  0  2  0  0  0  0  0  0
  190.2550  174.1070  143.7050 C   0  0  2  0  0  3  0  0  0  0  0  0
  190.4500  173.0240  144.6640 N   0  0  0  0  0  0  0  0  0  0  0  0
  190.1110  171.8040  143.9530 C   0  0  0  0  0  2  0  0  0  0  0  0
  189.6960  172.1940  142.5560 C   0  0  0  0  0  2  0  0  0  0  0  0
  191.8740  172.9600  144.9580 C   0  0  0  0  0  2  0  0  0  0  0  0
  192.6670  172.8680  143.6680 C   0  0  0  0  0  2  0  0  0  0  0  0
  194.0410  172.3050  143.9610 C   0  0  0  0  0  2  0  0  0  0  0  0
  194.4200  172.6540  145.2560 O   0  0  0  0  0  1  0  0  0  0  0  0
  186.2640  178.8960  144.4930 C   0  0  0  0  0  2  0  0  0  0  0  0
  184.1450  178.8880  145.7110 C   0  0  0  0  0  2  0  0  0  0  0  0
  184.8710  179.3830  144.7150 C   0  0  0  0  0  3  0  0  0  0  0  0
  1 22  1  6  0  0  0
  2  9  1  1  0  0  0
  2  7  1  0  0  0  0
  2  4  1  0  0  0  0
  4  1  1  0  0  0  0
  4  3  1  1  0  0  0
  5  6  1  0  0  0  0
  5 30  1  1  0  0  0
  6  3  1  0  0  0  0
  7  8  1  0  0  0  0
  8 13  1  6  0  0  0
  8  1  1  0  0  0  0
  9  5  1  0  0  0  0
 10  9  2  0  0  0  0
 11 16  1  0  0  0  0
 11 12  1  0  0  0  0
 13 16  2  0  0  0  0
 14 11  2  0  0  0  0
 15 13  1  0  0  0  0
 16 17  1  0  0  0  0
 18 15  2  0  0  0  0
 18 14  1  0  0  0  0
 19 20  1  0  0  0  0
 20 18  1  0  0  0  0
 22 21  1  6  0  0  0
 22 23  1  0  0  0  0
 23 26  1  0  0  0  0
 24 23  1  0  0  0  0
 25 21  1  0  0  0  0
 25 24  1  0  0  0  0
 27 28  1  0  0  0  0
 27 26  1  0  0  0  0
 28 29  1  0  0  0  0
 30 32  1  0  0  0  0
 32 31  2  0  0  0  0
M  END
>  <MODEL>
3

>  <REMARK>
 VINA RESULT:      -6.0      2.169      7.009
  Name = 
  8 active torsions:
  status: ('A' for Active; 'I' for Inactive)
    1  A    between atoms: C_1  and  C_5
    2  A    between atoms: C_11  and  C_12
    3  A    between atoms: C_11  and  C_31
    4  A    between atoms: C_13  and  C_18
    5  A    between atoms: N_14  and  C_29
    6  A    between atoms: O_15  and  C_26
    7  A    between atoms: C_16  and  C_27
    8  A    between atoms: C_18  and  C_29
                            x       y       z     vdW  Elec       q    Type
                         _______ _______ _______ _____ _____    ______ ____

>  <TORSDO>
F 8

$$$$
=
 OpenBabel11052419153D

 32 35  0  0  1  0  0  0  0  0999 V2000
  191.0760  175.0850  143.2390 C   0  0  2  0  0  3  0  0  0  0  0  0
  192.6410  175.3870  144.9800 C   0  0  2  0  0  3  0  0  0  0  0  0
  193.3710  174.9330  142.7070 O   0  0  0  0  0  0  0  0  0  0  0  0
  192.4200  174.5940  143.6870 C   0  0  2  0  0  3  0  0  0  0  0  0
  195.1660  175.3500  144.2430 C   0  0  2  0  0  3  0  0  0  0  0  0
  194.5970  174.4310  143.1640 C   0  0  0  0  0  2  0  0  0  0  0  0
  191.8800  176.5730  144.9590 O   0  0  0  0  0  0  0  0  0  0  0  0
  191.0120  176.4810  143.8520 C   0  0  2  0  0  3  0  0  0  0  0  0
  194.0960  175.6780  145.2570 C   0  0  0  0  0  0  0  0  0  0  0  0
  194.4480  176.0960  146.4730 C   0  0  0  0  0  2  0  0  0  0  0  0
  187.8810  177.5940  145.7400 C   0  0  0  0  0  0  0  0  0  0  0  0
  187.3980  177.6780  147.0410 O   0  0  0  0  0  1  0  0  0  0  0  0
  189.6260  176.9950  144.1550 C   0  0  0  0  0  0  0  0  0  0  0  0
  187.0770  178.0350  144.6860 C   0  0  0  0  0  3  0  0  0  0  0  0
  188.8100  177.4490  143.1090 C   0  0  0  0  0  3  0  0  0  0  0  0
  189.1590  177.0740  145.4830 C   0  0  0  0  0  0  0  0  0  0  0  0
  190.0110  176.6150  146.6220 C   0  0  0  0  0  1  0  0  0  0  0  0
  187.5380  177.9660  143.3640 C   0  0  0  0  0  0  0  0  0  0  0  0
  186.9250  177.9120  140.9680 C   0  0  0  0  0  1  0  0  0  0  0  0
  186.7580  178.4040  142.2910 O   0  0  0  0  0  0  0  0  0  0  0  0
  190.3050  173.2970  144.7940 N   0  0  0  0  0  2  0  0  0  0  0  0
  189.9360  174.1380  143.6600 C   0  0  2  0  0  3  0  0  0  0  0  0
  189.5330  173.2950  142.5390 N   0  0  0  0  0  0  0  0  0  0  0  0
  189.2960  171.9780  143.1030 C   0  0  0  0  0  2  0  0  0  0  0  0
  189.5850  172.0600  144.5810 C   0  0  0  0  0  2  0  0  0  0  0  0
  188.2480  173.7900  142.0680 C   0  0  0  0  0  2  0  0  0  0  0  0
  188.4280  174.5400  140.7620 C   0  0  0  0  0  2  0  0  0  0  0  0
  188.9250  173.5850  139.6980 C   0  0  0  0  0  2  0  0  0  0  0  0
  187.9700  172.5920  139.4820 O   0  0  0  0  0  1  0  0  0  0  0  0
  195.7100  176.6170  143.5950 C   0  0  0  0  0  2  0  0  0  0  0  0
  197.9240  175.6920  143.1270 C   0  0  0  0  0  2  0  0  0  0  0  0
  196.8320  176.2930  142.6660 C   0  0  0  0  0  3  0  0  0  0  0  0
  1 22  1  1  0  0  0
  1  4  1  0  0  0  0
  1  8  1  0  0  0  0
  2  7  1  6  0  0  0
  2  9  1  0  0  0  0
  3  6  1  0  0  0  0
  4  3  1  6  0  0  0
  4  2  1  0  0  0  0
  5 30  1  6  0  0  0
  5  9  1  0  0  0  0
  6  5  1  0  0  0  0
  8 13  1  1  0  0  0
  8  7  1  0  0  0  0
  9 10  2  0  0  0  0
 11 12  1  0  0  0  0
 13 16  2  0  0  0  0
 14 11  2  0  0  0  0
 15 18  2  0  0  0  0
 15 13  1  0  0  0  0
 16 11  1  0  0  0  0
 16 17  1  0  0  0  0
 18 14  1  0  0  0  0
 19 20  1  0  0  0  0
 20 18  1  0  0  0  0
 22 21  1  1  0  0  0
 23 24  1  0  0  0  0
 23 22  1  0  0  0  0
 24 25  1  0  0  0  0
 25 21  1  0  0  0  0
 26 23  1  0  0  0  0
 27 26  1  0  0  0  0
 28 27  1  0  0  0  0
 29 28  1  0  0  0  0
 32 31  2  0  0  0  0
 32 30  1  0  0  0  0
M  END
>  <MODEL>
4

>  <REMARK>
 VINA RESULT:      -6.0      0.628      2.114
  Name = 
  8 active torsions:
  status: ('A' for Active; 'I' for Inactive)
    1  A    between atoms: C_1  and  C_5
    2  A    between atoms: C_11  and  C_12
    3  A    between atoms: C_11  and  C_31
    4  A    between atoms: C_13  and  C_18
    5  A    between atoms: N_14  and  C_29
    6  A    between atoms: O_15  and  C_26
    7  A    between atoms: C_16  and  C_27
    8  A    between atoms: C_18  and  C_29
                            x       y       z     vdW  Elec       q    Type
                         _______ _______ _______ _____ _____    ______ ____

>  <TORSDO>
F 8

$$$$
=
 OpenBabel11052419153D

 32 35  0  0  1  0  0  0  0  0999 V2000
  192.0600  175.2010  143.9790 C   0  0  2  0  0  3  0  0  0  0  0  0
  190.7270  174.8590  145.8960 C   0  0  2  0  0  3  0  0  0  0  0  0
  190.4550  176.8440  144.5220 O   0  0  0  0  0  0  0  0  0  0  0  0
  191.4030  175.9700  145.0850 C   0  0  2  0  0  3  0  0  0  0  0  0
  188.8710  176.6750  146.3160 C   0  0  2  0  0  3  0  0  0  0  0  0
  189.8920  177.5510  145.5940 C   0  0  0  0  0  2  0  0  0  0  0  0
  190.4920  173.7350  145.0790 O   0  0  0  0  0  0  0  0  0  0  0  0
  191.1790  173.9600  143.8690 C   0  0  2  0  0  3  0  0  0  0  0  0
  189.4590  175.3080  146.5800 C   0  0  0  0  0  0  0  0  0  0  0  0
  188.9360  174.5420  147.5370 C   0  0  0  0  0  2  0  0  0  0  0  0
  192.6310  171.3320  141.5030 C   0  0  0  0  0  0  0  0  0  0  0  0
  192.7270  171.0660  140.1430 O   0  0  0  0  0  1  0  0  0  0  0  0
  191.8640  172.7210  143.3480 C   0  0  0  0  0  0  0  0  0  0  0  0
  193.2180  170.4510  142.4140 C   0  0  0  0  0  3  0  0  0  0  0  0
  192.4660  171.8300  144.2480 C   0  0  0  0  0  3  0  0  0  0  0  0
  191.9520  172.4720  141.9630 C   0  0  0  0  0  0  0  0  0  0  0  0
  191.3370  173.4120  140.9770 C   0  0  0  0  0  1  0  0  0  0  0  0
  193.1400  170.6950  143.7920 C   0  0  0  0  0  0  0  0  0  0  0  0
  194.5710  170.2910  145.7680 C   0  0  0  0  0  1  0  0  0  0  0  0
  193.7230  169.8330  144.7250 O   0  0  0  0  0  0  0  0  0  0  0  0
  193.9140  175.2240  145.6440 N   0  0  0  0  0  2  0  0  0  0  0  0
  193.5470  174.9180  144.2650 C   0  0  2  0  0  3  0  0  0  0  0  0
  194.3960  175.6800  143.3550 N   0  0  0  0  0  0  0  0  0  0  0  0
  195.5100  176.1510  144.1580 C   0  0  0  0  0  2  0  0  0  0  0  0
  195.2910  175.6620  145.5680 C   0  0  0  0  0  2  0  0  0  0  0  0
  194.9400  174.7410  142.3850 C   0  0  0  0  0  2  0  0  0  0  0  0
  194.6110  175.1990  140.9770 C   0  0  0  0  0  2  0  0  0  0  0  0
  195.8940  175.4240  140.2080 C   0  0  0  0  0  2  0  0  0  0  0  0
  196.6380  176.4260  140.8280 O   0  0  0  0  0  1  0  0  0  0  0  0
  187.6060  176.5710  145.4740 C   0  0  0  0  0  2  0  0  0  0  0  0
  186.2700  177.1630  147.4330 C   0  0  0  0  0  2  0  0  0  0  0  0
  186.4770  177.2950  146.1270 C   0  0  0  0  0  3  0  0  0  0  0  0
  1 22  1  1  0  0  0
  1  4  1  0  0  0  0
  2  7  1  6  0  0  0
  2  9  1  0  0  0  0
  3  6  1  0  0  0  0
  4  3  1  6  0  0  0
  4  2  1  0  0  0  0
  5 30  1  6  0  0  0
  5  9  1  0  0  0  0
  6  5  1  0  0  0  0
  8 13  1  1  0  0  0
  8  1  1  0  0  0  0
  8  7  1  0  0  0  0
  9 10  2  0  0  0  0
 11 16  2  0  0  0  0
 11 14  1  0  0  0  0
 12 11  1  0  0  0  0
 13 15  2  0  0  0  0
 14 18  2  0  0  0  0
 16 13  1  0  0  0  0
 17 16  1  0  0  0  0
 18 15  1  0  0  0  0
 18 20  1  0  0  0  0
 20 19  1  0  0  0  0
 22 21  1  1  0  0  0
 23 24  1  0  0  0  0
 23 22  1  0  0  0  0
 24 25  1  0  0  0  0
 25 21  1  0  0  0  0
 26 23  1  0  0  0  0
 27 26  1  0  0  0  0
 28 29  1  0  0  0  0
 28 27  1  0  0  0  0
 30 32  1  0  0  0  0
 32 31  2  0  0  0  0
M  END
>  <MODEL>
5

>  <REMARK>
 VINA RESULT:      -5.8      2.923      7.136
  Name = 
  8 active torsions:
  status: ('A' for Active; 'I' for Inactive)
    1  A    between atoms: C_1  and  C_5
    2  A    between atoms: C_11  and  C_12
    3  A    between atoms: C_11  and  C_31
    4  A    between atoms: C_13  and  C_18
    5  A    between atoms: N_14  and  C_29
    6  A    between atoms: O_15  and  C_26
    7  A    between atoms: C_16  and  C_27
    8  A    between atoms: C_18  and  C_29
                            x       y       z     vdW  Elec       q    Type
                         _______ _______ _______ _____ _____    ______ ____

>  <TORSDO>
F 8

$$$$
=
 OpenBabel11052419153D

 32 35  0  0  1  0  0  0  0  0999 V2000
  190.9170  174.9650  142.9900 C   0  0  2  0  0  3  0  0  0  0  0  0
  190.0440  175.1260  145.1760 C   0  0  2  0  0  3  0  0  0  0  0  0
  189.3900  176.7050  143.4480 O   0  0  0  0  0  0  0  0  0  0  0  0
  190.4760  175.9930  143.9880 C   0  0  2  0  0  3  0  0  0  0  0  0
  188.2360  177.0050  145.5310 C   0  0  2  0  0  3  0  0  0  0  0  0
  189.0370  177.6630  144.4090 C   0  0  0  0  0  2  0  0  0  0  0  0
  189.6930  173.8350  144.7340 O   0  0  0  0  0  0  0  0  0  0  0  0
  190.0930  173.7430  143.3850 C   0  0  2  0  0  3  0  0  0  0  0  0
  188.9310  175.7440  145.9880 C   0  0  0  0  0  0  0  0  0  0  0  0
  188.6630  175.2470  147.1960 C   0  0  0  0  0  2  0  0  0  0  0  0
  191.0250  170.5350  141.5280 C   0  0  0  0  0  0  0  0  0  0  0  0
  190.7410  169.8760  140.3380 O   0  0  0  0  0  1  0  0  0  0  0  0
  190.7080  172.4070  143.0500 C   0  0  0  0  0  0  0  0  0  0  0  0
  191.9360  169.9670  142.4210 C   0  0  0  0  0  3  0  0  0  0  0  0
  191.6320  171.8270  143.9310 C   0  0  0  0  0  3  0  0  0  0  0  0
  190.4070  171.7580  141.8350 C   0  0  0  0  0  0  0  0  0  0  0  0
  189.4410  172.3590  140.8650 C   0  0  0  0  0  1  0  0  0  0  0  0
  192.2460  170.6100  143.6280 C   0  0  0  0  0  0  0  0  0  0  0  0
  194.1740  170.8390  145.1600 C   0  0  0  0  0  1  0  0  0  0  0  0
  193.1570  170.0670  144.5370 O   0  0  0  0  0  0  0  0  0  0  0  0
  193.0960  175.4950  144.0750 N   0  0  0  0  0  2  0  0  0  0  0  0
  192.4430  174.7510  143.0030 C   0  0  2  0  0  3  0  0  0  0  0  0
  193.0230  175.1330  141.7200 N   0  0  0  0  0  0  0  0  0  0  0  0
  194.2660  175.8150  142.0380 C   0  0  0  0  0  2  0  0  0  0  0  0
  194.3970  175.8390  143.5410 C   0  0  0  0  0  2  0  0  0  0  0  0
  193.3800  173.9050  141.0260 C   0  0  0  0  0  2  0  0  0  0  0  0
  192.6190  173.8080  139.7180 C   0  0  0  0  0  2  0  0  0  0  0  0
  192.9030  172.4720  139.0660 C   0  0  0  0  0  2  0  0  0  0  0  0
  191.9680  172.2390  138.0590 O   0  0  0  0  0  1  0  0  0  0  0  0
  186.8270  176.7030  145.0380 C   0  0  0  0  0  2  0  0  0  0  0  0
  184.9390  177.0730  146.5450 C   0  0  0  0  0  2  0  0  0  0  0  0
  185.8330  177.5900  145.7100 C   0  0  0  0  0  3  0  0  0  0  0  0
  1 22  1  1  0  0  0
  1  8  1  0  0  0  0
  1  4  1  0  0  0  0
  2  7  1  6  0  0  0
  2  9  1  0  0  0  0
  3  6  1  0  0  0  0
  4  3  1  6  0  0  0
  4  2  1  0  0  0  0
  5 30  1  6  0  0  0
  5  9  1  0  0  0  0
  6  5  1  0  0  0  0
  8 13  1  1  0  0  0
  8  7  1  0  0  0  0
  9 10  2  0  0  0  0
 11 16  2  0  0  0  0
 11 14  1  0  0  0  0
 12 11  1  0  0  0  0
 13 15  2  0  0  0  0
 14 18  2  0  0  0  0
 16 13  1  0  0  0  0
 17 16  1  0  0  0  0
 18 15  1  0  0  0  0
 18 20  1  0  0  0  0
 20 19  1  0  0  0  0
 22 21  1  1  0  0  0
 23 24  1  0  0  0  0
 23 22  1  0  0  0  0
 24 25  1  0  0  0  0
 25 21  1  0  0  0  0
 26 23  1  0  0  0  0
 27 26  1  0  0  0  0
 28 27  1  0  0  0  0
 29 28  1  0  0  0  0
 30 32  1  0  0  0  0
 32 31  2  0  0  0  0
M  END
>  <MODEL>
6

>  <REMARK>
 VINA RESULT:      -5.8      2.711      6.778
  Name = 
  8 active torsions:
  status: ('A' for Active; 'I' for Inactive)
    1  A    between atoms: C_1  and  C_5
    2  A    between atoms: C_11  and  C_12
    3  A    between atoms: C_11  and  C_31
    4  A    between atoms: C_13  and  C_18
    5  A    between atoms: N_14  and  C_29
    6  A    between atoms: O_15  and  C_26
    7  A    between atoms: C_16  and  C_27
    8  A    between atoms: C_18  and  C_29
                            x       y       z     vdW  Elec       q    Type
                         _______ _______ _______ _____ _____    ______ ____

>  <TORSDO>
F 8

$$$$
=
 OpenBabel11052419153D

 32 35  0  0  1  0  0  0  0  0999 V2000
  192.8290  174.5790  145.2370 C   0  0  2  0  0  3  0  0  0  0  0  0
  194.6040  175.7360  144.1970 C   0  0  2  0  0  3  0  0  0  0  0  0
  195.0200  173.7520  145.5360 O   0  0  0  0  0  0  0  0  0  0  0  0
  194.2670  174.9380  145.4610 C   0  0  2  0  0  3  0  0  0  0  0  0
  196.9780  174.6380  144.4710 C   0  0  2  0  0  3  0  0  0  0  0  0
  196.3450  174.1450  145.7700 C   0  0  0  0  0  2  0  0  0  0  0  0
  193.7360  175.3720  143.1470 O   0  0  0  0  0  0  0  0  0  0  0  0
  192.7230  174.5730  143.7150 C   0  0  2  0  0  3  0  0  0  0  0  0
  196.0480  175.6060  143.7780 C   0  0  0  0  0  0  0  0  0  0  0  0
  196.5390  176.4620  142.8830 C   0  0  0  0  0  2  0  0  0  0  0  0
  189.1670  174.1670  142.3710 C   0  0  0  0  0  0  0  0  0  0  0  0
  188.2590  173.1630  142.0570 O   0  0  0  0  0  1  0  0  0  0  0  0
  191.3560  174.8840  143.1580 C   0  0  0  0  0  0  0  0  0  0  0  0
  188.7920  175.5020  142.2050 C   0  0  0  0  0  3  0  0  0  0  0  0
  190.9590  176.2190  142.9930 C   0  0  0  0  0  3  0  0  0  0  0  0
  190.4490  173.8490  142.8490 C   0  0  0  0  0  0  0  0  0  0  0  0
  190.8330  172.4160  143.0310 C   0  0  0  0  0  1  0  0  0  0  0  0
  189.6860  176.5360  142.5160 C   0  0  0  0  0  0  0  0  0  0  0  0
  188.1370  178.2930  141.7230 C   0  0  0  0  0  1  0  0  0  0  0  0
  189.3350  177.8800  142.3640 O   0  0  0  0  0  0  0  0  0  0  0  0
  192.5690  176.5180  146.7800 N   0  0  0  0  0  2  0  0  0  0  0  0
  191.8650  175.5440  145.9520 C   0  0  2  0  0  3  0  0  0  0  0  0
  190.9150  174.8010  146.7740 N   0  0  0  0  0  0  0  0  0  0  0  0
  190.7730  175.5680  147.9990 C   0  0  0  0  0  2  0  0  0  0  0  0
  191.6730  176.7730  147.8870 C   0  0  0  0  0  2  0  0  0  0  0  0
  189.6290  174.8460  146.0950 C   0  0  0  0  0  2  0  0  0  0  0  0
  188.5800  175.4480  147.0100 C   0  0  0  0  0  2  0  0  0  0  0  0
  187.7300  176.4260  146.2280 C   0  0  0  0  0  2  0  0  0  0  0  0
  188.5450  177.4220  145.6920 O   0  0  0  0  0  1  0  0  0  0  0  0
  197.2910  173.4460  143.5760 C   0  0  0  0  0  2  0  0  0  0  0  0
  195.7010  171.9870  142.4280 C   0  0  0  0  0  2  0  0  0  0  0  0
  196.1840  173.2120  142.6040 C   0  0  0  0  0  3  0  0  0  0  0  0
  1  4  1  0  0  0  0
  1 22  1  1  0  0  0
  2  7  1  6  0  0  0
  2  4  1  0  0  0  0
  3  6  1  0  0  0  0
  4  3  1  6  0  0  0
  5 30  1  6  0  0  0
  5  6  1  0  0  0  0
  7  8  1  0  0  0  0
  8 13  1  1  0  0  0
  8  1  1  0  0  0  0
  9  2  1  0  0  0  0
  9  5  1  0  0  0  0
 10  9  2  0  0  0  0
 11 16  1  0  0  0  0
 12 11  1  0  0  0  0
 14 11  2  0  0  0  0
 14 18  1  0  0  0  0
 15 13  1  0  0  0  0
 16 17  1  0  0  0  0
 16 13  2  0  0  0  0
 18 15  2  0  0  0  0
 19 20  1  0  0  0  0
 20 18  1  0  0  0  0
 21 25  1  0  0  0  0
 22 23  1  0  0  0  0
 22 21  1  1  0  0  0
 23 24  1  0  0  0  0
 25 24  1  0  0  0  0
 26 23  1  0  0  0  0
 26 27  1  0  0  0  0
 28 27  1  0  0  0  0
 29 28  1  0  0  0  0
 31 32  2  0  0  0  0
 32 30  1  0  0  0  0
M  END
>  <MODEL>
7

>  <REMARK>
 VINA RESULT:      -5.6      2.095      4.599
  Name = 
  8 active torsions:
  status: ('A' for Active; 'I' for Inactive)
    1  A    between atoms: C_1  and  C_5
    2  A    between atoms: C_11  and  C_12
    3  A    between atoms: C_11  and  C_31
    4  A    between atoms: C_13  and  C_18
    5  A    between atoms: N_14  and  C_29
    6  A    between atoms: O_15  and  C_26
    7  A    between atoms: C_16  and  C_27
    8  A    between atoms: C_18  and  C_29
                            x       y       z     vdW  Elec       q    Type
                         _______ _______ _______ _____ _____    ______ ____

>  <TORSDO>
F 8

$$$$
=
 OpenBabel11052419153D

 32 35  0  0  1  0  0  0  0  0999 V2000
  192.2570  174.6770  143.5470 C   0  0  2  0  0  3  0  0  0  0  0  0
  191.9250  175.8550  145.5650 C   0  0  2  0  0  3  0  0  0  0  0  0
  190.3170  176.0060  143.7500 O   0  0  0  0  0  0  0  0  0  0  0  0
  191.6900  175.9680  144.0550 C   0  0  2  0  0  3  0  0  0  0  0  0
  189.6580  177.1770  145.7370 C   0  0  2  0  0  3  0  0  0  0  0  0
  189.8460  177.2390  144.2220 C   0  0  0  0  0  2  0  0  0  0  0  0
  192.0230  174.5000  145.9420 O   0  0  0  0  0  0  0  0  0  0  0  0
  192.1010  173.7510  144.7500 C   0  0  2  0  0  3  0  0  0  0  0  0
  190.8810  176.5730  146.3850 C   0  0  0  0  0  0  0  0  0  0  0  0
  191.1210  176.8000  147.6760 C   0  0  0  0  0  2  0  0  0  0  0  0
  193.7680  170.3340  144.3510 C   0  0  0  0  0  0  0  0  0  0  0  0
  193.4980  169.0760  143.8270 O   0  0  0  0  0  1  0  0  0  0  0  0
  193.1000  172.6230  144.8360 C   0  0  0  0  0  0  0  0  0  0  0  0
  195.0120  170.5760  144.9380 C   0  0  0  0  0  3  0  0  0  0  0  0
  194.3570  172.8510  145.4140 C   0  0  0  0  0  3  0  0  0  0  0  0
  192.8060  171.3550  144.2940 C   0  0  0  0  0  0  0  0  0  0  0  0
  191.4810  171.0850  143.6550 C   0  0  0  0  0  1  0  0  0  0  0  0
  195.3150  171.8370  145.4720 C   0  0  0  0  0  0  0  0  0  0  0  0
  197.1020  173.4160  146.1270 C   0  0  0  0  0  1  0  0  0  0  0  0
  196.5530  172.1070  146.0600 O   0  0  0  0  0  0  0  0  0  0  0  0
  194.2350  176.1680  143.2770 N   0  0  0  0  0  2  0  0  0  0  0  0
  193.7000  174.8330  143.0300 C   0  0  2  0  0  3  0  0  0  0  0  0
  193.7660  174.5370  141.6030 N   0  0  0  0  0  0  0  0  0  0  0  0
  194.6730  175.5210  141.0390 C   0  0  0  0  0  2  0  0  0  0  0  0
  195.1280  176.4150  142.1660 C   0  0  0  0  0  2  0  0  0  0  0  0
  194.4090  173.2390  141.4610 C   0  0  0  0  0  2  0  0  0  0  0  0
  193.4620  172.2620  140.7900 C   0  0  0  0  0  2  0  0  0  0  0  0
  194.2280  171.0260  140.3700 C   0  0  0  0  0  2  0  0  0  0  0  0
  193.4510  169.8940  140.6110 O   0  0  0  0  0  1  0  0  0  0  0  0
  188.4110  176.3640  146.0600 C   0  0  0  0  0  2  0  0  0  0  0  0
  186.1680  177.1450  146.6360 C   0  0  0  0  0  2  0  0  0  0  0  0
  187.4700  177.1550  146.9040 C   0  0  0  0  0  3  0  0  0  0  0  0
  1 22  1  1  0  0  0
  1  4  1  0  0  0  0
  1  8  1  0  0  0  0
  2  7  1  1  0  0  0
  2  9  1  0  0  0  0
  3  6  1  0  0  0  0
  4  3  1  1  0  0  0
  4  2  1  0  0  0  0
  5 30  1  6  0  0  0
  5  9  1  0  0  0  0
  6  5  1  0  0  0  0
  8 13  1  1  0  0  0
  8  7  1  0  0  0  0
  9 10  2  0  0  0  0
 11 14  1  0  0  0  0
 12 11  1  0  0  0  0
 13 15  2  0  0  0  0
 14 18  2  0  0  0  0
 15 18  1  0  0  0  0
 16 11  2  0  0  0  0
 16 13  1  0  0  0  0
 17 16  1  0  0  0  0
 18 20  1  0  0  0  0
 20 19  1  0  0  0  0
 22 21  1  6  0  0  0
 23 22  1  0  0  0  0
 24 23  1  0  0  0  0
 24 25  1  0  0  0  0
 25 21  1  0  0  0  0
 26 23  1  0  0  0  0
 27 26  1  0  0  0  0
 28 29  1  0  0  0  0
 28 27  1  0  0  0  0
 30 32  1  0  0  0  0
 31 32  2  0  0  0  0
M  END
>  <MODEL>
8

>  <REMARK>
 VINA RESULT:      -5.4      3.165      7.155
  Name = 
  8 active torsions:
  status: ('A' for Active; 'I' for Inactive)
    1  A    between atoms: C_1  and  C_5
    2  A    between atoms: C_11  and  C_12
    3  A    between atoms: C_11  and  C_31
    4  A    between atoms: C_13  and  C_18
    5  A    between atoms: N_14  and  C_29
    6  A    between atoms: O_15  and  C_26
    7  A    between atoms: C_16  and  C_27
    8  A    between atoms: C_18  and  C_29
                            x       y       z     vdW  Elec       q    Type
                         _______ _______ _______ _____ _____    ______ ____

>  <TORSDO>
F 8

$$$$
=
 OpenBabel11052419153D

 32 35  0  0  1  0  0  0  0  0999 V2000
  190.0950  175.5370  143.3920 C   0  0  2  0  0  3  0  0  0  0  0  0
  190.5210  175.1690  145.6840 C   0  0  2  0  0  3  0  0  0  0  0  0
  192.3400  175.5540  144.1200 O   0  0  0  0  0  0  0  0  0  0  0  0
  191.1080  174.8980  144.2940 C   0  0  2  0  0  3  0  0  0  0  0  0
  193.0420  175.3630  146.4070 C   0  0  2  0  0  3  0  0  0  0  0  0
  193.2500  174.9030  144.9660 C   0  0  0  0  0  2  0  0  0  0  0  0
  189.6730  176.2940  145.6430 O   0  0  0  0  0  0  0  0  0  0  0  0
  189.4920  176.6190  144.2830 C   0  0  2  0  0  3  0  0  0  0  0  0
  191.5730  175.3200  146.7550 C   0  0  0  0  0  0  0  0  0  0  0  0
  191.2020  175.2670  148.0340 C   0  0  0  0  0  2  0  0  0  0  0  0
  185.7670  177.3950  144.6400 C   0  0  0  0  0  0  0  0  0  0  0  0
  184.7660  177.3770  145.6040 O   0  0  0  0  0  1  0  0  0  0  0  0
  188.0720  177.0100  143.9610 C   0  0  0  0  0  0  0  0  0  0  0  0
  185.4600  177.8240  143.3470 C   0  0  0  0  0  3  0  0  0  0  0  0
  187.7480  177.4510  142.6700 C   0  0  0  0  0  3  0  0  0  0  0  0
  187.0730  176.9870  144.9560 C   0  0  0  0  0  0  0  0  0  0  0  0
  187.3890  176.5400  146.3470 C   0  0  0  0  0  1  0  0  0  0  0  0
  186.4500  177.8550  142.3540 C   0  0  0  0  0  0  0  0  0  0  0  0
  184.8830  178.1670  140.4660 C   0  0  0  0  0  1  0  0  0  0  0  0
  186.1710  178.2840  141.0540 O   0  0  0  0  0  0  0  0  0  0  0  0
  188.9470  173.3450  143.6900 N   0  0  0  0  0  2  0  0  0  0  0  0
  189.0840  174.5180  142.8330 C   0  0  2  0  0  3  0  0  0  0  0  0
  189.4700  174.0990  141.4900 N   0  0  0  0  0  0  0  0  0  0  0  0
  189.2050  172.6720  141.4320 C   0  0  0  0  0  2  0  0  0  0  0  0
  188.6660  172.2570  142.7780 C   0  0  0  0  0  2  0  0  0  0  0  0
  188.5540  174.7390  140.5580 C   0  0  0  0  0  2  0  0  0  0  0  0
  188.2230  173.7890  139.4220 C   0  0  0  0  0  2  0  0  0  0  0  0
  188.2400  174.5460  138.1120 C   0  0  0  0  0  2  0  0  0  0  0  0
  188.8160  173.7500  137.1230 O   0  0  0  0  0  1  0  0  0  0  0  0
  193.6020  176.7700  146.5750 C   0  0  0  0  0  2  0  0  0  0  0  0
  195.3390  178.0100  145.3850 C   0  0  0  0  0  2  0  0  0  0  0  0
  194.9570  176.8750  145.9620 C   0  0  0  0  0  3  0  0  0  0  0  0
  1 22  1  1  0  0  0
  1  8  1  0  0  0  0
  1  4  1  0  0  0  0
  2  7  1  6  0  0  0
  2  9  1  0  0  0  0
  3  6  1  0  0  0  0
  4  3  1  1  0  0  0
  4  2  1  0  0  0  0
  5 30  1  6  0  0  0
  5  9  1  0  0  0  0
  6  5  1  0  0  0  0
  8 13  1  6  0  0  0
  8  7  1  0  0  0  0
  9 10  2  0  0  0  0
 11 16  1  0  0  0  0
 11 12  1  0  0  0  0
 13 16  2  0  0  0  0
 14 11  2  0  0  0  0
 15 13  1  0  0  0  0
 16 17  1  0  0  0  0
 18 15  2  0  0  0  0
 18 14  1  0  0  0  0
 19 20  1  0  0  0  0
 20 18  1  0  0  0  0
 22 21  1  1  0  0  0
 23 22  1  0  0  0  0
 24 23  1  0  0  0  0
 24 25  1  0  0  0  0
 25 21  1  0  0  0  0
 26 23  1  0  0  0  0
 27 26  1  0  0  0  0
 28 27  1  0  0  0  0
 29 28  1  0  0  0  0
 31 32  2  0  0  0  0
 32 30  1  0  0  0  0
M  END
>  <MODEL>
9

>  <REMARK>
 VINA RESULT:      -5.4      1.751      3.031
  Name = 
  8 active torsions:
  status: ('A' for Active; 'I' for Inactive)
    1  A    between atoms: C_1  and  C_5
    2  A    between atoms: C_11  and  C_12
    3  A    between atoms: C_11  and  C_31
    4  A    between atoms: C_13  and  C_18
    5  A    between atoms: N_14  and  C_29
    6  A    between atoms: O_15  and  C_26
    7  A    between atoms: C_16  and  C_27
    8  A    between atoms: C_18  and  C_29
                            x       y       z     vdW  Elec       q    Type
                         _______ _______ _______ _____ _____    ______ ____

>  <TORSDO>
F 8

$$$$
