=
 OpenBabel11052421373D

 32 35  0  0  1  0  0  0  0  0999 V2000
  180.8200  179.0690  140.6660 C   0  0  2  0  0  3  0  0  0  0  0  0
  185.1910  178.2790  143.0970 C   0  0  0  0  0  0  0  0  0  0  0  0
  182.8930  178.8210  142.5700 C   0  0  0  0  0  0  0  0  0  0  0  0
  184.2600  177.6560  140.9380 C   0  0  0  0  0  3  0  0  0  0  0  0
  181.9610  178.2430  140.4190 O   0  0  0  0  0  0  0  0  0  0  0  0
  187.5800  178.1600  140.9290 C   0  0  0  0  0  1  0  0  0  0  0  0
  185.3360  177.6770  141.8320 C   0  0  0  0  0  0  0  0  0  0  0  0
  186.6480  177.0730  141.4450 C   0  0  2  0  0  3  0  0  0  0  0  0
  187.2680  177.1090  143.9770 C   0  0  1  0  0  3  0  0  0  0  0  0
  180.4830  179.0780  142.1590 C   0  0  0  0  0  2  0  0  0  0  0  0
  183.0420  178.2350  141.3040 C   0  0  0  0  0  0  0  0  0  0  0  0
  181.6550  179.3620  142.9270 O   0  0  0  0  0  0  0  0  0  0  0  0
  187.2260  176.3170  142.6510 C   0  0  2  0  0  3  0  0  0  0  0  0
  183.9710  178.8610  143.4570 C   0  0  0  0  0  3  0  0  0  0  0  0
  186.3600  178.3540  144.0340 C   0  0  0  0  0  2  0  0  0  0  0  0
  179.7300  178.5960  139.9350 O   0  0  0  0  0  0  0  0  0  0  0  0
  178.7290  179.5490  140.1320 C   0  0  0  0  0  2  0  0  0  0  0  0
  178.0660  179.8920  138.8100 C   0  0  0  0  0  2  0  0  0  0  0  0
  178.8000  182.1230  139.9900 C   0  0  0  0  0  1  0  0  0  0  0  0
  178.5350  181.5680  138.2830 S   0  0  0  0  0  0  0  0  0  0  0  0
  188.5060  175.5320  142.3510 C   0  0  0  0  0  2  0  0  0  0  0  0
  188.6640  174.1810  140.1180 C   0  0  0  0  0  1  0  0  0  0  0  0
  188.1810  173.8170  141.8280 S   0  0  0  0  0  0  0  0  0  0  0  0
  187.0920  176.2000  145.1990 C   0  0  0  0  0  2  0  0  0  0  0  0
  187.4630  176.8650  146.4560 N   0  0  0  0  0  0  0  0  0  0  0  0
  186.2010  178.6190  147.7010 C   0  0  0  0  0  2  0  0  0  0  0  0
  185.0520  176.9850  146.9270 C   0  0  0  0  0  2  0  0  0  0  0  0
  186.4550  177.1330  147.4890 C   0  0  0  0  0  3  0  0  0  0  0  0
  184.8000  178.4620  147.1490 C   0  0  0  0  0  2  0  0  0  0  0  0
  189.8380  176.8290  147.0620 C   0  0  0  0  0  3  0  0  0  0  0  0
  188.7520  177.4760  146.6370 C   0  0  0  0  0  3  0  0  0  0  0  0
  189.8340  175.4630  147.3210 O   0  0  0  0  0  1  0  0  0  0  0  0
  1 16  1  6  0  0  0
  1 10  1  0  0  0  0
  2 14  1  0  0  0  0
  2 15  1  0  0  0  0
  3 12  1  0  0  0  0
  3 14  2  0  0  0  0
  4 11  2  0  0  0  0
  4  7  1  0  0  0  0
  5  1  1  0  0  0  0
  5 11  1  0  0  0  0
  7  2  2  0  0  0  0
  8  6  1  1  0  0  0
  8  7  1  0  0  0  0
  8 13  1  0  0  0  0
  9 15  1  0  0  0  0
  9 24  1  1  0  0  0
 10 12  1  0  0  0  0
 11  3  1  0  0  0  0
 13 21  1  6  0  0  0
 13  9  1  0  0  0  0
 16 17  1  0  0  0  0
 18 17  1  0  0  0  0
 20 18  1  0  0  0  0
 20 19  1  0  0  0  0
 22 23  1  0  0  0  0
 23 21  1  0  0  0  0
 24 25  1  0  0  0  0
 25 31  1  0  0  0  0
 25 28  1  0  0  0  0
 27 29  1  0  0  0  0
 27 28  1  0  0  0  0
 28 26  1  0  0  0  0
 29 26  1  0  0  0  0
 30 32  1  0  0  0  0
 31 30  2  0  0  0  0
M  END
>  <MODEL>
1

>  <REMARK>
 VINA RESULT:      -6.4      0.000      0.000
  Name = 
  10 active torsions:
  status: ('A' for Active; 'I' for Inactive)
    1  A    between atoms: C_2  and  O_24
    2  A    between atoms: S_5  and  C_25
    3  A    between atoms: C_7  and  N_32
    4  A    between atoms: C_10  and  C_20
    5  A    between atoms: C_10  and  O_24
    6  A    between atoms: C_16  and  C_27
    7  A    between atoms: S_17  and  C_20
    8  A    between atoms: C_22  and  N_32
    9  A    between atoms: C_25  and  C_26
   10  A    between atoms: C_27  and  N_32
                            x       y       z     vdW  Elec       q    Type
                         _______ _______ _______ _____ _____    ______ ____

>  <TORSDO>
F 10

$$$$
=
 OpenBabel11052421373D

 32 35  0  0  1  0  0  0  0  0999 V2000
  195.5170  175.1940  145.4300 C   0  0  2  0  0  3  0  0  0  0  0  0
  190.8790  177.1730  144.9740 C   0  0  0  0  0  0  0  0  0  0  0  0
  193.0970  176.3270  144.5110 C   0  0  0  0  0  0  0  0  0  0  0  0
  192.0700  175.8970  146.6660 C   0  0  0  0  0  3  0  0  0  0  0  0
  194.3100  175.0890  146.1900 O   0  0  0  0  0  0  0  0  0  0  0  0
  189.8530  178.1010  147.8910 C   0  0  0  0  0  1  0  0  0  0  0  0
  190.9310  176.5980  146.2580 C   0  0  0  0  0  0  0  0  0  0  0  0
  189.7700  176.7540  147.1880 C   0  0  2  0  0  3  0  0  0  0  0  0
  188.3530  177.4180  145.1020 C   0  0  1  0  0  3  0  0  0  0  0  0
  195.2020  175.1980  143.9310 C   0  0  0  0  0  2  0  0  0  0  0  0
  193.1550  175.7690  145.7960 C   0  0  0  0  0  0  0  0  0  0  0  0
  194.1810  176.1560  143.6450 O   0  0  0  0  0  0  0  0  0  0  0  0
  188.4660  176.5770  146.3930 C   0  0  2  0  0  3  0  0  0  0  0  0
  191.9690  177.0460  144.1080 C   0  0  0  0  0  3  0  0  0  0  0  0
  189.6820  177.9760  144.5560 C   0  0  0  0  0  2  0  0  0  0  0  0
  196.3610  174.1260  145.7350 O   0  0  0  0  0  0  0  0  0  0  0  0
  195.8510  173.0490  145.0080 C   0  0  0  0  0  2  0  0  0  0  0  0
  195.9670  171.7700  145.8160 C   0  0  0  0  0  2  0  0  0  0  0  0
  193.5260  171.9450  144.8570 C   0  0  0  0  0  1  0  0  0  0  0  0
  194.6460  170.6070  145.3580 S   0  0  0  0  0  0  0  0  0  0  0  0
  187.1980  176.5740  147.2510 C   0  0  0  0  0  2  0  0  0  0  0  0
  184.8410  177.3930  146.4680 C   0  0  0  0  0  1  0  0  0  0  0  0
  186.3080  178.1630  147.2070 S   0  0  0  0  0  0  0  0  0  0  0  0
  187.5270  176.7110  144.0220 C   0  0  0  0  0  2  0  0  0  0  0  0
  187.3160  177.5470  142.8330 N   0  0  0  0  0  0  0  0  0  0  0  0
  188.7770  175.9470  141.5980 C   0  0  0  0  0  2  0  0  0  0  0  0
  187.1310  176.7760  140.5040 C   0  0  0  0  0  2  0  0  0  0  0  0
  188.0580  177.2890  141.5920 C   0  0  0  0  0  3  0  0  0  0  0  0
  187.8560  175.4460  140.5050 C   0  0  0  0  0  2  0  0  0  0  0  0
  185.2310  178.8350  142.8510 C   0  0  0  0  0  3  0  0  0  0  0  0
  186.5620  178.7700  142.8920 C   0  0  0  0  0  3  0  0  0  0  0  0
  184.4330  177.6980  142.8000 O   0  0  0  0  0  1  0  0  0  0  0  0
  1 16  1  6  0  0  0
  1  5  1  0  0  0  0
  2  7  1  0  0  0  0
  3 11  2  0  0  0  0
  7  4  2  0  0  0  0
  7  8  1  0  0  0  0
  8  6  1  6  0  0  0
  9 24  1  6  0  0  0
  9 13  1  0  0  0  0
 10  1  1  0  0  0  0
 11  5  1  0  0  0  0
 11  4  1  0  0  0  0
 12 10  1  0  0  0  0
 12  3  1  0  0  0  0
 13  8  1  0  0  0  0
 13 21  1  1  0  0  0
 14  3  1  0  0  0  0
 14  2  2  0  0  0  0
 15  2  1  0  0  0  0
 15  9  1  0  0  0  0
 17 16  1  0  0  0  0
 17 18  1  0  0  0  0
 19 20  1  0  0  0  0
 20 18  1  0  0  0  0
 22 23  1  0  0  0  0
 23 21  1  0  0  0  0
 25 31  1  0  0  0  0
 25 24  1  0  0  0  0
 27 29  1  0  0  0  0
 27 28  1  0  0  0  0
 28 26  1  0  0  0  0
 28 25  1  0  0  0  0
 29 26  1  0  0  0  0
 30 31  2  0  0  0  0
 32 30  1  0  0  0  0
M  END
>  <MODEL>
2

>  <REMARK>
 VINA RESULT:      -6.2      4.193     10.964
  Name = 
  10 active torsions:
  status: ('A' for Active; 'I' for Inactive)
    1  A    between atoms: C_2  and  O_24
    2  A    between atoms: S_5  and  C_25
    3  A    between atoms: C_7  and  N_32
    4  A    between atoms: C_10  and  C_20
    5  A    between atoms: C_10  and  O_24
    6  A    between atoms: C_16  and  C_27
    7  A    between atoms: S_17  and  C_20
    8  A    between atoms: C_22  and  N_32
    9  A    between atoms: C_25  and  C_26
   10  A    between atoms: C_27  and  N_32
                            x       y       z     vdW  Elec       q    Type
                         _______ _______ _______ _____ _____    ______ ____

>  <TORSDO>
F 10

$$$$
=
 OpenBabel11052421373D

 32 35  0  0  1  0  0  0  0  0999 V2000
  195.3490  176.1210  144.2000 C   0  0  2  0  0  3  0  0  0  0  0  0
  190.3070  175.9460  144.6350 C   0  0  0  0  0  0  0  0  0  0  0  0
  192.6640  176.2890  145.0620 C   0  0  0  0  0  0  0  0  0  0  0  0
  191.9030  175.8330  142.8040 C   0  0  0  0  0  3  0  0  0  0  0  0
  194.2680  176.1450  143.2650 O   0  0  0  0  0  0  0  0  0  0  0  0
  189.1340  173.9890  142.3510 C   0  0  0  0  0  1  0  0  0  0  0  0
  190.5860  175.7610  143.2670 C   0  0  0  0  0  0  0  0  0  0  0  0
  189.4690  175.4740  142.3150 C   0  0  2  0  0  3  0  0  0  0  0  0
  187.8440  176.3480  144.1580 C   0  0  1  0  0  3  0  0  0  0  0  0
  195.0000  176.9530  145.4370 C   0  0  0  0  0  2  0  0  0  0  0  0
  192.9420  176.0880  143.7020 C   0  0  0  0  0  0  0  0  0  0  0  0
  193.7150  176.5780  145.9370 O   0  0  0  0  0  0  0  0  0  0  0  0
  188.2660  176.3630  142.6720 C   0  0  2  0  0  3  0  0  0  0  0  0
  191.3510  176.1970  145.5310 C   0  0  0  0  0  3  0  0  0  0  0  0
  188.9020  175.8110  145.1420 C   0  0  0  0  0  2  0  0  0  0  0  0
  196.5030  176.6240  143.5990 O   0  0  0  0  0  0  0  0  0  0  0  0
  197.3070  175.5040  143.3800 C   0  0  0  0  0  2  0  0  0  0  0  0
  197.9410  175.5770  142.0020 C   0  0  0  0  0  2  0  0  0  0  0  0
  197.7470  175.6380  139.3820 C   0  0  0  0  0  1  0  0  0  0  0  0
  196.8180  174.8890  140.7490 S   0  0  0  0  0  0  0  0  0  0  0  0
  187.0970  176.2690  141.6880 C   0  0  0  0  0  2  0  0  0  0  0  0
  186.5640  176.9440  139.2180 C   0  0  0  0  0  1  0  0  0  0  0  0
  186.8030  177.8250  140.7860 S   0  0  0  0  0  0  0  0  0  0  0  0
  187.2560  177.6910  144.6050 C   0  0  0  0  0  2  0  0  0  0  0  0
  185.8340  177.5960  144.9600 N   0  0  0  0  0  0  0  0  0  0  0  0
  186.5670  177.0220  147.2740 C   0  0  0  0  0  2  0  0  0  0  0  0
  184.7750  178.1860  147.1010 C   0  0  0  0  0  2  0  0  0  0  0  0
  185.4200  177.0870  146.2740 C   0  0  0  0  0  3  0  0  0  0  0  0
  185.9130  178.1110  148.0990 C   0  0  0  0  0  2  0  0  0  0  0  0
  184.2930  178.9590  143.6280 C   0  0  0  0  0  3  0  0  0  0  0  0
  184.7960  177.7760  143.9810 C   0  0  0  0  0  3  0  0  0  0  0  0
  184.7750  180.1560  144.1450 O   0  0  0  0  0  1  0  0  0  0  0  0
  1 16  1  6  0  0  0
  1 10  1  0  0  0  0
  2 15  1  0  0  0  0
  2 14  1  0  0  0  0
  3 14  2  0  0  0  0
  3 12  1  0  0  0  0
  4  7  1  0  0  0  0
  4 11  2  0  0  0  0
  5 11  1  0  0  0  0
  5  1  1  0  0  0  0
  7  2  2  0  0  0  0
  8  6  1  1  0  0  0
  8 13  1  0  0  0  0
  8  7  1  0  0  0  0
  9 24  1  1  0  0  0
  9 15  1  0  0  0  0
 10 12  1  0  0  0  0
 11  3  1  0  0  0  0
 13 21  1  6  0  0  0
 13  9  1  0  0  0  0
 17 16  1  0  0  0  0
 18 17  1  0  0  0  0
 19 20  1  0  0  0  0
 20 18  1  0  0  0  0
 22 23  1  0  0  0  0
 23 21  1  0  0  0  0
 24 25  1  0  0  0  0
 25 28  1  0  0  0  0
 26 29  1  0  0  0  0
 27 29  1  0  0  0  0
 28 27  1  0  0  0  0
 28 26  1  0  0  0  0
 30 31  2  0  0  0  0
 30 32  1  0  0  0  0
 31 25  1  0  0  0  0
M  END
>  <MODEL>
3

>  <REMARK>
 VINA RESULT:      -6.1      4.410     10.169
  Name = 
  10 active torsions:
  status: ('A' for Active; 'I' for Inactive)
    1  A    between atoms: C_2  and  O_24
    2  A    between atoms: S_5  and  C_25
    3  A    between atoms: C_7  and  N_32
    4  A    between atoms: C_10  and  C_20
    5  A    between atoms: C_10  and  O_24
    6  A    between atoms: C_16  and  C_27
    7  A    between atoms: S_17  and  C_20
    8  A    between atoms: C_22  and  N_32
    9  A    between atoms: C_25  and  C_26
   10  A    between atoms: C_27  and  N_32
                            x       y       z     vdW  Elec       q    Type
                         _______ _______ _______ _____ _____    ______ ____

>  <TORSDO>
F 10

$$$$
=
 OpenBabel11052421373D

 32 35  0  0  1  0  0  0  0  0999 V2000
  190.3440  172.8460  139.0980 C   0  0  2  0  0  3  0  0  0  0  0  0
  188.3500  176.1710  142.3550 C   0  0  0  0  0  0  0  0  0  0  0  0
  188.6470  174.5390  140.5940 C   0  0  0  0  0  0  0  0  0  0  0  0
  190.4310  174.9220  142.1940 C   0  0  0  0  0  3  0  0  0  0  0  0
  190.7180  173.3150  140.3960 O   0  0  0  0  0  0  0  0  0  0  0  0
  190.7320  177.9500  143.6130 C   0  0  0  0  0  1  0  0  0  0  0  0
  189.6390  175.8780  142.8400 C   0  0  0  0  0  0  0  0  0  0  0  0
  190.1640  176.6040  144.0370 C   0  0  2  0  0  3  0  0  0  0  0  0
  187.6990  177.2910  144.5410 C   0  0  1  0  0  3  0  0  0  0  0  0
  188.8260  172.6630  139.0160 C   0  0  0  0  0  2  0  0  0  0  0  0
  189.9380  174.2590  141.0680 C   0  0  0  0  0  0  0  0  0  0  0  0
  188.1620  173.8380  139.4870 O   0  0  0  0  0  0  0  0  0  0  0  0
  189.0370  176.7340  145.0760 C   0  0  2  0  0  3  0  0  0  0  0  0
  187.8630  175.5080  141.2250 C   0  0  0  0  0  3  0  0  0  0  0  0
  187.5230  177.2380  143.0100 C   0  0  0  0  0  2  0  0  0  0  0  0
  190.9840  171.6360  138.8320 O   0  0  0  0  0  0  0  0  0  0  0  0
  189.9490  170.7150  138.6640 C   0  0  0  0  0  2  0  0  0  0  0  0
  190.3290  169.3820  139.2840 C   0  0  0  0  0  2  0  0  0  0  0  0
  190.8700  168.9900  141.8260 C   0  0  0  0  0  1  0  0  0  0  0  0
  191.7770  169.5750  140.3670 S   0  0  0  0  0  0  0  0  0  0  0  0
  189.4770  177.3380  146.4130 C   0  0  0  0  0  2  0  0  0  0  0  0
  189.3230  174.8650  147.2500 C   0  0  0  0  0  1  0  0  0  0  0  0
  190.5280  176.2140  147.3870 S   0  0  0  0  0  0  0  0  0  0  0  0
  186.4930  176.7130  145.2890 C   0  0  0  0  0  2  0  0  0  0  0  0
  185.4540  177.7190  145.5500 N   0  0  0  0  0  0  0  0  0  0  0  0
  185.9490  177.3880  147.9720 C   0  0  0  0  0  2  0  0  0  0  0  0
  185.9420  179.4120  147.2660 C   0  0  0  0  0  2  0  0  0  0  0  0
  185.1600  178.1570  146.9200 C   0  0  0  0  0  3  0  0  0  0  0  0
  186.7170  178.6460  148.3190 C   0  0  0  0  0  2  0  0  0  0  0  0
  184.6180  179.3100  143.8850 C   0  0  0  0  0  3  0  0  0  0  0  0
  184.5380  178.1440  144.5260 C   0  0  0  0  0  3  0  0  0  0  0  0
  185.6460  180.2160  144.1150 O   0  0  0  0  0  1  0  0  0  0  0  0
  1 16  1  1  0  0  0
  1  5  1  0  0  0  0
  2  7  1  0  0  0  0
  2 15  1  0  0  0  0
  3 11  2  0  0  0  0
  3 14  1  0  0  0  0
  4  7  2  0  0  0  0
  5 11  1  0  0  0  0
  7  8  1  0  0  0  0
  8  6  1  6  0  0  0
  8 13  1  0  0  0  0
  9 13  1  0  0  0  0
  9 24  1  1  0  0  0
 10  1  1  0  0  0  0
 10 12  1  0  0  0  0
 11  4  1  0  0  0  0
 12  3  1  0  0  0  0
 13 21  1  1  0  0  0
 14  2  2  0  0  0  0
 15  9  1  0  0  0  0
 17 16  1  0  0  0  0
 17 18  1  0  0  0  0
 18 20  1  0  0  0  0
 20 19  1  0  0  0  0
 21 23  1  0  0  0  0
 22 23  1  0  0  0  0
 24 25  1  0  0  0  0
 25 28  1  0  0  0  0
 26 29  1  0  0  0  0
 27 29  1  0  0  0  0
 28 27  1  0  0  0  0
 28 26  1  0  0  0  0
 30 32  1  0  0  0  0
 30 31  2  0  0  0  0
 31 25  1  0  0  0  0
M  END
>  <MODEL>
4

>  <REMARK>
 VINA RESULT:      -6.1      4.754      8.414
  Name = 
  10 active torsions:
  status: ('A' for Active; 'I' for Inactive)
    1  A    between atoms: C_2  and  O_24
    2  A    between atoms: S_5  and  C_25
    3  A    between atoms: C_7  and  N_32
    4  A    between atoms: C_10  and  C_20
    5  A    between atoms: C_10  and  O_24
    6  A    between atoms: C_16  and  C_27
    7  A    between atoms: S_17  and  C_20
    8  A    between atoms: C_22  and  N_32
    9  A    between atoms: C_25  and  C_26
   10  A    between atoms: C_27  and  N_32
                            x       y       z     vdW  Elec       q    Type
                         _______ _______ _______ _____ _____    ______ ____

>  <TORSDO>
F 10

$$$$
=
 OpenBabel11052421373D

 32 35  0  0  1  0  0  0  0  0999 V2000
  195.4900  176.0490  143.7450 C   0  0  2  0  0  3  0  0  0  0  0  0
  190.5350  176.2100  144.7690 C   0  0  0  0  0  0  0  0  0  0  0  0
  192.9400  176.4280  144.9000 C   0  0  0  0  0  0  0  0  0  0  0  0
  191.8930  175.9010  142.7760 C   0  0  0  0  0  3  0  0  0  0  0  0
  194.3090  176.0900  142.9410 O   0  0  0  0  0  0  0  0  0  0  0  0
  188.9920  174.2100  142.7590 C   0  0  0  0  0  1  0  0  0  0  0  0
  190.6370  175.9360  143.3920 C   0  0  0  0  0  0  0  0  0  0  0  0
  189.4010  175.6670  142.5950 C   0  0  2  0  0  3  0  0  0  0  0  0
  188.0580  176.7380  144.5570 C   0  0  1  0  0  3  0  0  0  0  0  0
  195.3380  176.9660  144.9620 C   0  0  0  0  0  2  0  0  0  0  0  0
  193.0440  176.1390  143.5320 C   0  0  0  0  0  0  0  0  0  0  0  0
  194.1020  176.6980  145.6280 O   0  0  0  0  0  0  0  0  0  0  0  0
  188.3010  176.6470  143.0340 C   0  0  2  0  0  3  0  0  0  0  0  0
  191.6890  176.4440  145.5220 C   0  0  0  0  0  3  0  0  0  0  0  0
  189.1940  176.1900  145.4440 C   0  0  0  0  0  2  0  0  0  0  0  0
  196.5910  176.4460  142.9850 O   0  0  0  0  0  0  0  0  0  0  0  0
  197.5370  175.4370  143.1730 C   0  0  0  0  0  2  0  0  0  0  0  0
  197.6150  174.5580  141.9380 C   0  0  0  0  0  2  0  0  0  0  0  0
  196.8600  174.0570  139.4710 C   0  0  0  0  0  1  0  0  0  0  0  0
  197.2750  175.5330  140.4410 S   0  0  0  0  0  0  0  0  0  0  0  0
  187.0190  176.5740  142.2000 C   0  0  0  0  0  2  0  0  0  0  0  0
  185.4330  177.9020  140.6000 C   0  0  0  0  0  1  0  0  0  0  0  0
  187.1760  177.4010  140.5840 S   0  0  0  0  0  0  0  0  0  0  0  0
  187.6030  178.1370  144.9870 C   0  0  0  0  0  2  0  0  0  0  0  0
  186.2690  178.1340  145.6030 N   0  0  0  0  0  0  0  0  0  0  0  0
  185.2730  179.6200  143.8640 C   0  0  0  0  0  2  0  0  0  0  0  0
  183.9010  178.6760  145.2130 C   0  0  0  0  0  2  0  0  0  0  0  0
  185.3150  179.2170  145.3320 C   0  0  0  0  0  3  0  0  0  0  0  0
  183.8590  179.0870  143.7560 C   0  0  0  0  0  2  0  0  0  0  0  0
  186.1650  177.4270  147.9470 C   0  0  0  0  0  3  0  0  0  0  0  0
  185.9220  177.2150  146.6530 C   0  0  0  0  0  3  0  0  0  0  0  0
  186.7380  178.6040  148.4120 O   0  0  0  0  0  1  0  0  0  0  0  0
  1 16  1  6  0  0  0
  1 10  1  0  0  0  0
  2 15  1  0  0  0  0
  2 14  1  0  0  0  0
  3 14  2  0  0  0  0
  3 12  1  0  0  0  0
  4  7  1  0  0  0  0
  4 11  2  0  0  0  0
  5 11  1  0  0  0  0
  5  1  1  0  0  0  0
  7  2  2  0  0  0  0
  8  6  1  1  0  0  0
  8 13  1  0  0  0  0
  8  7  1  0  0  0  0
  9 24  1  1  0  0  0
  9 15  1  0  0  0  0
 10 12  1  0  0  0  0
 11  3  1  0  0  0  0
 13 21  1  6  0  0  0
 13  9  1  0  0  0  0
 16 17  1  0  0  0  0
 18 17  1  0  0  0  0
 19 20  1  0  0  0  0
 20 18  1  0  0  0  0
 23 22  1  0  0  0  0
 23 21  1  0  0  0  0
 24 25  1  0  0  0  0
 25 31  1  0  0  0  0
 26 28  1  0  0  0  0
 27 28  1  0  0  0  0
 28 25  1  0  0  0  0
 29 26  1  0  0  0  0
 29 27  1  0  0  0  0
 30 32  1  0  0  0  0
 31 30  2  0  0  0  0
M  END
>  <MODEL>
5

>  <REMARK>
 VINA RESULT:      -6.1      4.509     10.151
  Name = 
  10 active torsions:
  status: ('A' for Active; 'I' for Inactive)
    1  A    between atoms: C_2  and  O_24
    2  A    between atoms: S_5  and  C_25
    3  A    between atoms: C_7  and  N_32
    4  A    between atoms: C_10  and  C_20
    5  A    between atoms: C_10  and  O_24
    6  A    between atoms: C_16  and  C_27
    7  A    between atoms: S_17  and  C_20
    8  A    between atoms: C_22  and  N_32
    9  A    between atoms: C_25  and  C_26
   10  A    between atoms: C_27  and  N_32
                            x       y       z     vdW  Elec       q    Type
                         _______ _______ _______ _____ _____    ______ ____

>  <TORSDO>
F 10

$$$$
=
 OpenBabel11052421373D

 32 35  0  0  1  0  0  0  0  0999 V2000
  186.3020  177.8610  143.3280 C   0  0  2  0  0  3  0  0  0  0  0  0
  190.0190  174.6090  144.4450 C   0  0  0  0  0  0  0  0  0  0  0  0
  188.1360  175.7120  143.4020 C   0  0  0  0  0  0  0  0  0  0  0  0
  189.4740  176.9030  145.0400 C   0  0  0  0  0  3  0  0  0  0  0  0
  187.5570  177.9770  144.0040 O   0  0  0  0  0  0  0  0  0  0  0  0
  191.0160  175.1670  147.4650 C   0  0  0  0  0  1  0  0  0  0  0  0
  190.2870  175.7740  145.1870 C   0  0  0  0  0  0  0  0  0  0  0  0
  191.4360  175.7960  146.1440 C   0  0  2  0  0  3  0  0  0  0  0  0
  192.3420  173.6880  144.9060 C   0  0  1  0  0  3  0  0  0  0  0  0
  186.4360  176.9360  142.1150 C   0  0  0  0  0  2  0  0  0  0  0  0
  188.3940  176.8680  144.1540 C   0  0  0  0  0  0  0  0  0  0  0  0
  187.0720  175.7130  142.4960 O   0  0  0  0  0  0  0  0  0  0  0  0
  192.6360  175.0830  145.5010 C   0  0  2  0  0  3  0  0  0  0  0  0
  188.9350  174.5770  143.5630 C   0  0  0  0  0  3  0  0  0  0  0  0
  190.8540  173.3780  144.6460 C   0  0  0  0  0  2  0  0  0  0  0  0
  185.8700  179.1220  142.9180 O   0  0  0  0  0  0  0  0  0  0  0  0
  185.2890  179.6860  144.0550 C   0  0  0  0  0  2  0  0  0  0  0  0
  184.3290  178.6990  144.6960 C   0  0  0  0  0  2  0  0  0  0  0  0
  185.1170  176.9390  146.4820 C   0  0  0  0  0  1  0  0  0  0  0  0
  184.5620  178.6680  146.4990 S   0  0  0  0  0  0  0  0  0  0  0  0
  193.9280  175.1540  146.3210 C   0  0  0  0  0  2  0  0  0  0  0  0
  194.7870  177.5480  145.7120 C   0  0  0  0  0  1  0  0  0  0  0  0
  195.3270  175.8480  145.3820 S   0  0  0  0  0  0  0  0  0  0  0  0
  193.2250  173.3810  143.6910 C   0  0  0  0  0  2  0  0  0  0  0  0
  192.7780  174.0770  142.4760 N   0  0  0  0  0  0  0  0  0  0  0  0
  191.9670  171.9080  141.5500 C   0  0  0  0  0  2  0  0  0  0  0  0
  191.0500  173.6810  140.7710 C   0  0  0  0  0  2  0  0  0  0  0  0
  192.4430  173.3250  141.2600 C   0  0  0  0  0  3  0  0  0  0  0  0
  190.5830  172.2670  141.0510 C   0  0  0  0  0  2  0  0  0  0  0  0
  193.9640  176.1610  141.9710 C   0  0  0  0  0  3  0  0  0  0  0  0
  192.8650  175.5060  142.3480 C   0  0  0  0  0  3  0  0  0  0  0  0
  195.1330  175.5040  141.6080 O   0  0  0  0  0  1  0  0  0  0  0  0
  1 16  1  6  0  0  0
  1  5  1  0  0  0  0
  2 15  1  0  0  0  0
  2  7  1  0  0  0  0
  3 14  1  0  0  0  0
  3 11  2  0  0  0  0
  4  7  2  0  0  0  0
  5 11  1  0  0  0  0
  7  8  1  0  0  0  0
  8  6  1  1  0  0  0
  9 24  1  6  0  0  0
  9 13  1  0  0  0  0
 10 12  1  0  0  0  0
 10  1  1  0  0  0  0
 11  4  1  0  0  0  0
 12  3  1  0  0  0  0
 13  8  1  0  0  0  0
 13 21  1  1  0  0  0
 14  2  2  0  0  0  0
 15  9  1  0  0  0  0
 16 17  1  0  0  0  0
 17 18  1  0  0  0  0
 18 20  1  0  0  0  0
 19 20  1  0  0  0  0
 23 22  1  0  0  0  0
 23 21  1  0  0  0  0
 25 24  1  0  0  0  0
 27 29  1  0  0  0  0
 27 28  1  0  0  0  0
 28 26  1  0  0  0  0
 28 25  1  0  0  0  0
 29 26  1  0  0  0  0
 30 31  2  0  0  0  0
 31 25  1  0  0  0  0
 32 30  1  0  0  0  0
M  END
>  <MODEL>
6

>  <REMARK>
 VINA RESULT:      -5.9      4.487      7.660
  Name = 
  10 active torsions:
  status: ('A' for Active; 'I' for Inactive)
    1  A    between atoms: C_2  and  O_24
    2  A    between atoms: S_5  and  C_25
    3  A    between atoms: C_7  and  N_32
    4  A    between atoms: C_10  and  C_20
    5  A    between atoms: C_10  and  O_24
    6  A    between atoms: C_16  and  C_27
    7  A    between atoms: S_17  and  C_20
    8  A    between atoms: C_22  and  N_32
    9  A    between atoms: C_25  and  C_26
   10  A    between atoms: C_27  and  N_32
                            x       y       z     vdW  Elec       q    Type
                         _______ _______ _______ _____ _____    ______ ____

>  <TORSDO>
F 10

$$$$
=
 OpenBabel11052421373D

 32 35  0  0  1  0  0  0  0  0999 V2000
  186.0610  178.0210  143.4550 C   0  0  2  0  0  3  0  0  0  0  0  0
  189.8850  174.9030  144.5860 C   0  0  0  0  0  0  0  0  0  0  0  0
  187.9730  175.9430  143.5310 C   0  0  0  0  0  0  0  0  0  0  0  0
  189.2480  177.1690  145.1920 C   0  0  0  0  0  3  0  0  0  0  0  0
  187.3030  178.1790  144.1450 O   0  0  0  0  0  0  0  0  0  0  0  0
  190.8290  175.4730  147.6200 C   0  0  0  0  0  1  0  0  0  0  0  0
  190.1020  176.0720  145.3400 C   0  0  0  0  0  0  0  0  0  0  0  0
  191.2390  176.1290  146.3090 C   0  0  2  0  0  3  0  0  0  0  0  0
  192.2370  174.0670  145.0640 C   0  0  1  0  0  3  0  0  0  0  0  0
  186.2420  177.1110  142.2360 C   0  0  0  0  0  2  0  0  0  0  0  0
  188.1790  177.1020  144.2950 C   0  0  0  0  0  0  0  0  0  0  0  0
  186.9200  175.9110  142.6140 O   0  0  0  0  0  0  0  0  0  0  0  0
  192.4720  175.4670  145.6730 C   0  0  2  0  0  3  0  0  0  0  0  0
  188.8130  174.8370  143.6920 C   0  0  0  0  0  3  0  0  0  0  0  0
  190.7650  173.7030  144.7860 C   0  0  0  0  0  2  0  0  0  0  0  0
  185.5850  179.2680  143.0500 O   0  0  0  0  0  0  0  0  0  0  0  0
  184.9630  179.7970  144.1830 C   0  0  0  0  0  2  0  0  0  0  0  0
  184.1000  178.7400  144.8470 C   0  0  0  0  0  2  0  0  0  0  0  0
  184.9930  176.9170  146.5150 C   0  0  0  0  0  1  0  0  0  0  0  0
  184.4630  178.6490  146.6260 S   0  0  0  0  0  0  0  0  0  0  0  0
  193.7510  175.5800  146.5070 C   0  0  0  0  0  2  0  0  0  0  0  0
  195.2670  176.7460  144.7240 C   0  0  0  0  0  1  0  0  0  0  0  0
  194.5700  177.1990  146.3360 S   0  0  0  0  0  0  0  0  0  0  0  0
  193.1430  173.8030  143.8560 C   0  0  0  0  0  2  0  0  0  0  0  0
  193.8010  172.4910  143.9180 N   0  0  0  0  0  0  0  0  0  0  0  0
  192.2990  170.6020  143.2870 C   0  0  0  0  0  2  0  0  0  0  0  0
  192.7270  172.0360  141.7520 C   0  0  0  0  0  2  0  0  0  0  0  0
  193.5060  171.4550  142.9200 C   0  0  0  0  0  3  0  0  0  0  0  0
  191.5320  171.1780  142.1150 C   0  0  0  0  0  2  0  0  0  0  0  0
  195.8200  172.4860  145.3070 C   0  0  0  0  0  3  0  0  0  0  0  0
  194.5730  172.0840  145.0620 C   0  0  0  0  0  3  0  0  0  0  0  0
  196.4820  173.3970  144.4920 O   0  0  0  0  0  1  0  0  0  0  0  0
  1 16  1  6  0  0  0
  1  5  1  0  0  0  0
  2 15  1  0  0  0  0
  2  7  1  0  0  0  0
  3 14  1  0  0  0  0
  3 11  2  0  0  0  0
  4  7  2  0  0  0  0
  5 11  1  0  0  0  0
  7  8  1  0  0  0  0
  8  6  1  1  0  0  0
  9 24  1  6  0  0  0
  9 13  1  0  0  0  0
 10 12  1  0  0  0  0
 10  1  1  0  0  0  0
 11  4  1  0  0  0  0
 12  3  1  0  0  0  0
 13  8  1  0  0  0  0
 13 21  1  1  0  0  0
 14  2  2  0  0  0  0
 15  9  1  0  0  0  0
 16 17  1  0  0  0  0
 17 18  1  0  0  0  0
 18 20  1  0  0  0  0
 19 20  1  0  0  0  0
 22 23  1  0  0  0  0
 23 21  1  0  0  0  0
 24 25  1  0  0  0  0
 25 31  1  0  0  0  0
 27 29  1  0  0  0  0
 27 28  1  0  0  0  0
 28 26  1  0  0  0  0
 28 25  1  0  0  0  0
 29 26  1  0  0  0  0
 31 30  2  0  0  0  0
 32 30  1  0  0  0  0
M  END
>  <MODEL>
7

>  <REMARK>
 VINA RESULT:      -5.8      4.687      7.780
  Name = 
  10 active torsions:
  status: ('A' for Active; 'I' for Inactive)
    1  A    between atoms: C_2  and  O_24
    2  A    between atoms: S_5  and  C_25
    3  A    between atoms: C_7  and  N_32
    4  A    between atoms: C_10  and  C_20
    5  A    between atoms: C_10  and  O_24
    6  A    between atoms: C_16  and  C_27
    7  A    between atoms: S_17  and  C_20
    8  A    between atoms: C_22  and  N_32
    9  A    between atoms: C_25  and  C_26
   10  A    between atoms: C_27  and  N_32
                            x       y       z     vdW  Elec       q    Type
                         _______ _______ _______ _____ _____    ______ ____

>  <TORSDO>
F 10

$$$$
=
 OpenBabel11052421373D

 32 35  0  0  1  0  0  0  0  0999 V2000
  186.6930  178.2100  146.2020 C   0  0  2  0  0  3  0  0  0  0  0  0
  190.9540  175.4770  146.0900 C   0  0  0  0  0  0  0  0  0  0  0  0
  188.6820  176.2210  146.4630 C   0  0  0  0  0  0  0  0  0  0  0  0
  190.1120  177.4410  144.9290 C   0  0  0  0  0  3  0  0  0  0  0  0
  187.8400  178.1880  145.3480 O   0  0  0  0  0  0  0  0  0  0  0  0
  193.4310  177.4400  145.4350 C   0  0  0  0  0  1  0  0  0  0  0  0
  191.1490  176.5370  145.1850 C   0  0  0  0  0  0  0  0  0  0  0  0
  192.4730  176.7020  144.5100 C   0  0  2  0  0  3  0  0  0  0  0  0
  192.9860  174.2400  145.1980 C   0  0  1  0  0  3  0  0  0  0  0  0
  186.2930  176.7840  146.5910 C   0  0  0  0  0  2  0  0  0  0  0  0
  188.8830  177.2870  145.5740 C   0  0  0  0  0  0  0  0  0  0  0  0
  187.4330  176.0670  147.0700 O   0  0  0  0  0  0  0  0  0  0  0  0
  192.9980  175.3190  144.0930 C   0  0  2  0  0  3  0  0  0  0  0  0
  189.7230  175.3290  146.7370 C   0  0  0  0  0  3  0  0  0  0  0  0
  192.0830  174.5420  146.4100 C   0  0  0  0  0  2  0  0  0  0  0  0
  185.6320  178.8400  145.5500 O   0  0  0  0  0  0  0  0  0  0  0  0
  185.1970  177.9130  144.6020 C   0  0  0  0  0  2  0  0  0  0  0  0
  184.9450  178.6040  143.2730 C   0  0  0  0  0  2  0  0  0  0  0  0
  186.3160  176.4140  142.7940 C   0  0  0  0  0  1  0  0  0  0  0  0
  186.1540  178.0530  142.0320 S   0  0  0  0  0  0  0  0  0  0  0  0
  194.2850  175.3540  143.2650 C   0  0  0  0  0  2  0  0  0  0  0  0
  196.6440  176.4570  143.5130 C   0  0  0  0  0  1  0  0  0  0  0  0
  195.7790  175.0500  144.2640 S   0  0  0  0  0  0  0  0  0  0  0  0
  192.7560  172.8340  144.6320 C   0  0  0  0  0  2  0  0  0  0  0  0
  191.9740  172.8470  143.3880 N   0  0  0  0  0  0  0  0  0  0  0  0
  189.7820  172.7560  142.2010 C   0  0  0  0  0  2  0  0  0  0  0  0
  189.7340  172.4380  144.3200 C   0  0  0  0  0  2  0  0  0  0  0  0
  190.5740  173.2920  143.3860 C   0  0  0  0  0  3  0  0  0  0  0  0
  188.9410  171.9160  143.1390 C   0  0  0  0  0  2  0  0  0  0  0  0
  192.5870  170.9060  142.0230 C   0  0  0  0  0  3  0  0  0  0  0  0
  192.4550  172.2230  142.1850 C   0  0  0  0  0  3  0  0  0  0  0  0
  192.2120  169.9950  143.0040 O   0  0  0  0  0  1  0  0  0  0  0  0
  1 16  1  6  0  0  0
  1 10  1  0  0  0  0
  2 15  1  0  0  0  0
  2 14  1  0  0  0  0
  3 14  2  0  0  0  0
  3 12  1  0  0  0  0
  4  7  1  0  0  0  0
  4 11  2  0  0  0  0
  5 11  1  0  0  0  0
  5  1  1  0  0  0  0
  7  2  2  0  0  0  0
  8  7  1  0  0  0  0
  8  6  1  1  0  0  0
  9 24  1  6  0  0  0
  9 15  1  0  0  0  0
 10 12  1  0  0  0  0
 11  3  1  0  0  0  0
 13 21  1  1  0  0  0
 13  8  1  0  0  0  0
 13  9  1  0  0  0  0
 17 16  1  0  0  0  0
 18 17  1  0  0  0  0
 20 19  1  0  0  0  0
 20 18  1  0  0  0  0
 21 23  1  0  0  0  0
 22 23  1  0  0  0  0
 25 24  1  0  0  0  0
 26 29  1  0  0  0  0
 26 28  1  0  0  0  0
 28 25  1  0  0  0  0
 28 27  1  0  0  0  0
 29 27  1  0  0  0  0
 30 31  2  0  0  0  0
 30 32  1  0  0  0  0
 31 25  1  0  0  0  0
M  END
>  <MODEL>
8

>  <REMARK>
 VINA RESULT:      -5.7      4.264      7.649
  Name = 
  10 active torsions:
  status: ('A' for Active; 'I' for Inactive)
    1  A    between atoms: C_2  and  O_24
    2  A    between atoms: S_5  and  C_25
    3  A    between atoms: C_7  and  N_32
    4  A    between atoms: C_10  and  C_20
    5  A    between atoms: C_10  and  O_24
    6  A    between atoms: C_16  and  C_27
    7  A    between atoms: S_17  and  C_20
    8  A    between atoms: C_22  and  N_32
    9  A    between atoms: C_25  and  C_26
   10  A    between atoms: C_27  and  N_32
                            x       y       z     vdW  Elec       q    Type
                         _______ _______ _______ _____ _____    ______ ____

>  <TORSDO>
F 10

$$$$
=
 OpenBabel11052421373D

 32 35  0  0  1  0  0  0  0  0999 V2000
  187.8800  177.5590  146.0590 C   0  0  2  0  0  3  0  0  0  0  0  0
  192.3450  175.1710  146.1200 C   0  0  0  0  0  0  0  0  0  0  0  0
  190.0160  175.7480  146.4340 C   0  0  0  0  0  0  0  0  0  0  0  0
  191.3680  177.0070  144.8610 C   0  0  0  0  0  3  0  0  0  0  0  0
  189.0380  177.5900  145.2200 O   0  0  0  0  0  0  0  0  0  0  0  0
  194.6690  177.2930  145.4040 C   0  0  0  0  0  1  0  0  0  0  0  0
  192.4690  176.2020  145.1700 C   0  0  0  0  0  0  0  0  0  0  0  0
  193.7860  176.4410  144.5040 C   0  0  2  0  0  3  0  0  0  0  0  0
  194.4820  174.0600  145.3090 C   0  0  1  0  0  3  0  0  0  0  0  0
  187.5890  176.1240  146.5090 C   0  0  0  0  0  2  0  0  0  0  0  0
  190.1450  176.7860  145.4990 C   0  0  0  0  0  0  0  0  0  0  0  0
  188.7740  175.5220  147.0320 O   0  0  0  0  0  0  0  0  0  0  0  0
  194.4240  175.0860  144.1550 C   0  0  2  0  0  3  0  0  0  0  0  0
  191.1200  174.9550  146.7590 C   0  0  0  0  0  3  0  0  0  0  0  0
  193.5390  174.3440  146.4960 C   0  0  0  0  0  2  0  0  0  0  0  0
  186.7830  178.0730  145.3680 O   0  0  0  0  0  0  0  0  0  0  0  0
  185.6690  177.5630  146.0380 C   0  0  0  0  0  2  0  0  0  0  0  0
  184.4150  178.2960  145.5990 C   0  0  0  0  0  2  0  0  0  0  0  0
  184.2140  178.2830  142.9790 C   0  0  0  0  0  1  0  0  0  0  0  0
  184.7930  179.4480  144.2440 S   0  0  0  0  0  0  0  0  0  0  0  0
  195.7170  175.1870  143.3420 C   0  0  0  0  0  2  0  0  0  0  0  0
  196.1840  176.5940  141.1880 C   0  0  0  0  0  1  0  0  0  0  0  0
  195.4480  174.9770  141.5520 S   0  0  0  0  0  0  0  0  0  0  0  0
  194.3710  172.6170  144.8050 C   0  0  0  0  0  2  0  0  0  0  0  0
  195.5960  171.8410  145.0380 N   0  0  0  0  0  0  0  0  0  0  0  0
  196.2640  169.8220  146.3430 C   0  0  0  0  0  2  0  0  0  0  0  0
  194.2260  169.9020  145.6850 C   0  0  0  0  0  2  0  0  0  0  0  0
  195.5520  170.3750  145.1150 C   0  0  0  0  0  3  0  0  0  0  0  0
  194.9390  169.3450  146.9000 C   0  0  0  0  0  2  0  0  0  0  0  0
  197.8470  172.7010  144.5910 C   0  0  0  0  0  3  0  0  0  0  0  0
  196.8300  172.4710  145.4230 C   0  0  0  0  0  3  0  0  0  0  0  0
  197.7830  172.3940  143.2370 O   0  0  0  0  0  1  0  0  0  0  0  0
  1 16  1  6  0  0  0
  1 10  1  0  0  0  0
  2 15  1  0  0  0  0
  2 14  1  0  0  0  0
  3 14  2  0  0  0  0
  3 12  1  0  0  0  0
  4  7  1  0  0  0  0
  4 11  2  0  0  0  0
  5 11  1  0  0  0  0
  5  1  1  0  0  0  0
  7  2  2  0  0  0  0
  8  7  1  0  0  0  0
  8  6  1  1  0  0  0
  9 24  1  6  0  0  0
  9 15  1  0  0  0  0
 10 12  1  0  0  0  0
 11  3  1  0  0  0  0
 13 21  1  1  0  0  0
 13  8  1  0  0  0  0
 13  9  1  0  0  0  0
 16 17  1  0  0  0  0
 18 17  1  0  0  0  0
 19 20  1  0  0  0  0
 20 18  1  0  0  0  0
 22 23  1  0  0  0  0
 23 21  1  0  0  0  0
 24 25  1  0  0  0  0
 25 28  1  0  0  0  0
 25 31  1  0  0  0  0
 26 29  1  0  0  0  0
 27 29  1  0  0  0  0
 28 27  1  0  0  0  0
 28 26  1  0  0  0  0
 30 31  2  0  0  0  0
 32 30  1  0  0  0  0
M  END
>  <MODEL>
9

>  <REMARK>
 VINA RESULT:      -5.7      5.941      9.160
  Name = 
  10 active torsions:
  status: ('A' for Active; 'I' for Inactive)
    1  A    between atoms: C_2  and  O_24
    2  A    between atoms: S_5  and  C_25
    3  A    between atoms: C_7  and  N_32
    4  A    between atoms: C_10  and  C_20
    5  A    between atoms: C_10  and  O_24
    6  A    between atoms: C_16  and  C_27
    7  A    between atoms: S_17  and  C_20
    8  A    between atoms: C_22  and  N_32
    9  A    between atoms: C_25  and  C_26
   10  A    between atoms: C_27  and  N_32
                            x       y       z     vdW  Elec       q    Type
                         _______ _______ _______ _____ _____    ______ ____

>  <TORSDO>
F 10

$$$$
