=
 OpenBabel11052418403D

 34 38  0  0  1  0  0  0  0  0999 V2000
  189.5480  175.6130  145.4200 C   0  0  1  0  0  0  0  0  0  0  0  0
  190.3400  177.2590  143.3470 S   0  0  0  0  0  0  0  0  0  0  0  0
  191.0390  175.8490  145.5890 C   0  0  0  0  0  2  0  0  0  0  0  0
  188.9210  175.6770  146.6650 O   0  0  0  0  0  1  0  0  0  0  0  0
  191.5970  176.2900  144.2450 C   0  0  2  0  0  3  0  0  0  0  0  0
  189.0560  176.7640  144.5470 C   0  0  1  0  0  3  0  0  0  0  0  0
  186.4680  178.8860  143.5580 C   0  0  0  0  0  0  0  0  0  0  0  0
  185.5230  177.3820  145.2540 C   0  0  0  0  0  0  0  0  0  0  0  0
  187.6220  176.6410  144.0030 C   0  0  1  0  0  3  0  0  0  0  0  0
  184.4440  179.5410  144.7840 C   0  0  0  0  0  3  0  0  0  0  0  0
  184.3890  178.3250  145.3470 C   0  0  0  0  0  3  0  0  0  0  0  0
  186.7870  177.8070  144.5550 C   0  0  1  0  0  3  0  0  0  0  0  0
  185.6700  180.0440  144.0580 C   0  0  0  0  0  2  0  0  0  0  0  0
  187.5470  176.4830  142.4980 C   0  0  0  0  0  0  0  0  0  0  0  0
  186.5960  178.6820  142.2500 C   0  0  0  0  0  3  0  0  0  0  0  0
  185.4460  176.2590  145.8200 O   0  0  0  0  0  0  0  0  0  0  0  0
  188.0070  175.2660  141.9070 N   0  0  0  0  0  2  0  0  0  0  0  0
  187.1220  177.4520  141.7390 N   0  0  0  0  0  0  0  0  0  0  0  0
  187.9990  175.0370  140.4720 C   0  0  0  0  0  2  0  0  0  0  0  0
  189.0300  174.1630  140.1370 O   0  0  0  0  0  1  0  0  0  0  0  0
  192.9070  177.0540  144.3980 C   0  0  0  0  0  2  0  0  0  0  0  0
  194.0580  176.3860  143.6460 C   0  0  0  0  0  2  0  0  0  0  0  0
  196.8340  176.6700  142.6690 O   0  0  0  0  0  0  0  0  0  0  0  0
  195.3220  176.2800  144.4960 C   0  0  2  0  0  3  0  0  0  0  0  0
  196.5480  175.9620  143.6700 C   0  0  0  0  0  0  0  0  0  0  0  0
  197.1590  174.0960  145.1110 C   0  0  0  0  0  3  0  0  0  0  0  0
  195.9670  174.3470  145.9390 C   0  0  0  0  0  3  0  0  0  0  0  0
  195.1180  175.3400  145.6580 C   0  0  0  0  0  3  0  0  0  0  0  0
  197.4330  174.8500  144.0460 C   0  0  0  0  0  3  0  0  0  0  0  0
  189.2860  174.2490  144.7720 C   0  0  0  0  0  2  0  0  0  0  0  0
  190.8560  172.2920  144.3790 C   0  0  1  0  0  3  0  0  0  0  0  0
  190.1440  173.1400  145.3830 C   0  0  2  0  0  3  0  0  0  0  0  0
  189.6450  171.8890  144.9720 O   0  0  0  0  0  0  0  0  0  0  0  0
  190.6150  172.6880  143.0590 O   0  0  0  0  0  1  0  0  0  0  0  0
  1  3  1  0  0  0  0
  1  4  1  1  0  0  0
  2  5  1  0  0  0  0
  5 21  1  1  0  0  0
  5  3  1  0  0  0  0
  6  2  1  6  0  0  0
  6  1  1  0  0  0  0
  7 13  1  0  0  0  0
  8 11  1  0  0  0  0
  8 16  2  0  0  0  0
  9 14  1  6  0  0  0
  9  6  1  0  0  0  0
  9 12  1  0  0  0  0
 10 11  2  0  0  0  0
 12  7  1  6  0  0  0
 12  8  1  0  0  0  0
 13 10  1  0  0  0  0
 15  7  2  0  0  0  0
 17 14  1  0  0  0  0
 18 15  1  0  0  0  0
 18 14  2  0  0  0  0
 19 17  1  0  0  0  0
 20 19  1  0  0  0  0
 22 21  1  0  0  0  0
 23 25  2  0  0  0  0
 24 22  1  6  0  0  0
 24 28  1  0  0  0  0
 25 29  1  0  0  0  0
 25 24  1  0  0  0  0
 26 27  1  0  0  0  0
 28 27  2  0  0  0  0
 29 26  2  0  0  0  0
 30  1  1  0  0  0  0
 31 34  1  6  0  0  0
 31 33  1  0  0  0  0
 31 32  1  0  0  0  0
 32 30  1  6  0  0  0
 33 32  1  0  0  0  0
M  END
>  <MODEL>
1

>  <REMARK>
 VINA RESULT:      -7.6      0.000      0.000
  Name = 
  7 active torsions:
  status: ('A' for Active; 'I' for Inactive)
    1  A    between atoms: C_3  and  C_13
    2  A    between atoms: C_3  and  C_17
    3  A    between atoms: C_4  and  C_31
    4  A    between atoms: C_5  and  C_27
    5  A    between atoms: C_8  and  C_27
    6  A    between atoms: C_12  and  N_28
    7  A    between atoms: C_17  and  C_29
                            x       y       z     vdW  Elec       q    Type
                         _______ _______ _______ _____ _____    ______ ____

>  <TORSDO>
F 7

$$$$
=
 OpenBabel11052418403D

 34 38  0  0  1  0  0  0  0  0999 V2000
  190.4770  177.2990  143.9800 C   0  0  1  0  0  0  0  0  0  0  0  0
  189.9190  175.3260  145.8320 S   0  0  0  0  0  0  0  0  0  0  0  0
  189.4130  177.8550  144.9100 C   0  0  0  0  0  2  0  0  0  0  0  0
  191.4260  178.2860  143.7120 O   0  0  0  0  0  1  0  0  0  0  0  0
  188.7230  176.6800  145.5850 C   0  0  2  0  0  3  0  0  0  0  0  0
  191.1350  176.1620  144.7570 C   0  0  1  0  0  3  0  0  0  0  0  0
  194.1100  174.4170  145.2870 C   0  0  0  0  0  0  0  0  0  0  0  0
  194.4850  175.8480  143.3270 C   0  0  0  0  0  0  0  0  0  0  0  0
  192.0830  175.2510  143.9590 C   0  0  1  0  0  3  0  0  0  0  0  0
  196.3980  175.0130  144.6260 C   0  0  0  0  0  3  0  0  0  0  0  0
  195.9280  175.5880  143.5090 C   0  0  0  0  0  3  0  0  0  0  0  0
  193.5230  175.5060  144.4340 C   0  0  1  0  0  3  0  0  0  0  0  0
  195.5020  174.6320  145.7820 C   0  0  0  0  0  2  0  0  0  0  0  0
  191.6790  173.7910  143.9600 C   0  0  0  0  0  0  0  0  0  0  0  0
  193.5670  173.2040  145.3350 C   0  0  0  0  0  3  0  0  0  0  0  0
  194.0830  176.4150  142.2760 O   0  0  0  0  0  0  0  0  0  0  0  0
  190.5040  173.3990  143.2480 N   0  0  0  0  0  2  0  0  0  0  0  0
  192.3520  172.9060  144.6380 N   0  0  0  0  0  0  0  0  0  0  0  0
  190.0250  172.0270  143.2180 C   0  0  0  0  0  2  0  0  0  0  0  0
  188.7220  172.0020  142.7280 O   0  0  0  0  0  1  0  0  0  0  0  0
  188.0490  177.0930  146.8890 C   0  0  0  0  0  2  0  0  0  0  0  0
  186.6680  176.4580  147.0520 C   0  0  0  0  0  2  0  0  0  0  0  0
  185.5660  176.1350  144.3280 O   0  0  0  0  0  0  0  0  0  0  0  0
  185.5620  177.3040  146.4270 C   0  0  2  0  0  3  0  0  0  0  0  0
  185.5750  177.2470  144.9160 C   0  0  0  0  0  0  0  0  0  0  0  0
  185.5580  179.6760  144.7230 C   0  0  0  0  0  3  0  0  0  0  0  0
  185.5670  179.7910  146.1920 C   0  0  0  0  0  3  0  0  0  0  0  0
  185.5760  178.7100  146.9770 C   0  0  0  0  0  3  0  0  0  0  0  0
  185.5650  178.4850  144.1230 C   0  0  0  0  0  3  0  0  0  0  0  0
  189.8490  176.8100  142.6710 C   0  0  0  0  0  2  0  0  0  0  0  0
  187.5970  176.5030  141.5370 C   0  0  1  0  0  3  0  0  0  0  0  0
  188.4170  177.3160  142.4860 C   0  0  2  0  0  3  0  0  0  0  0  0
  188.2300  177.6970  141.1440 O   0  0  0  0  0  0  0  0  0  0  0  0
  188.2940  175.4140  141.0060 O   0  0  0  0  0  1  0  0  0  0  0  0
  1  4  1  6  0  0  0
  1  6  1  0  0  0  0
  1  3  1  0  0  0  0
  3  5  1  0  0  0  0
  5  2  1  0  0  0  0
  5 21  1  1  0  0  0
  6  2  1  6  0  0  0
  7 15  2  0  0  0  0
  7 13  1  0  0  0  0
  8 11  1  0  0  0  0
  9 14  1  1  0  0  0
  9 12  1  0  0  0  0
  9  6  1  0  0  0  0
 10 13  1  0  0  0  0
 11 10  2  0  0  0  0
 12  8  1  6  0  0  0
 12  7  1  0  0  0  0
 14 18  2  0  0  0  0
 16  8  2  0  0  0  0
 17 14  1  0  0  0  0
 18 15  1  0  0  0  0
 19 17  1  0  0  0  0
 20 19  1  0  0  0  0
 21 22  1  0  0  0  0
 23 25  2  0  0  0  0
 24 28  1  0  0  0  0
 24 22  1  1  0  0  0
 25 24  1  0  0  0  0
 26 27  1  0  0  0  0
 27 28  2  0  0  0  0
 29 26  2  0  0  0  0
 29 25  1  0  0  0  0
 30  1  1  0  0  0  0
 31 34  1  6  0  0  0
 31 32  1  0  0  0  0
 32 30  1  6  0  0  0
 33 31  1  0  0  0  0
 33 32  1  0  0  0  0
M  END
>  <MODEL>
2

>  <REMARK>
 VINA RESULT:      -7.5      2.181      8.033
  Name = 
  7 active torsions:
  status: ('A' for Active; 'I' for Inactive)
    1  A    between atoms: C_3  and  C_13
    2  A    between atoms: C_3  and  C_17
    3  A    between atoms: C_4  and  C_31
    4  A    between atoms: C_5  and  C_27
    5  A    between atoms: C_8  and  C_27
    6  A    between atoms: C_12  and  N_28
    7  A    between atoms: C_17  and  C_29
                            x       y       z     vdW  Elec       q    Type
                         _______ _______ _______ _____ _____    ______ ____

>  <TORSDO>
F 7

$$$$
=
 OpenBabel11052418403D

 34 38  0  0  1  0  0  0  0  0999 V2000
  190.8850  175.9590  143.4650 C   0  0  1  0  0  0  0  0  0  0  0  0
  190.7610  174.2870  145.6600 S   0  0  0  0  0  0  0  0  0  0  0  0
  189.7380  176.4520  144.3290 C   0  0  0  0  0  2  0  0  0  0  0  0
  191.6090  177.0510  142.9830 O   0  0  0  0  0  1  0  0  0  0  0  0
  189.3100  175.3060  145.2330 C   0  0  2  0  0  3  0  0  0  0  0  0
  191.7690  175.1390  144.3990 C   0  0  1  0  0  3  0  0  0  0  0  0
  194.8570  173.7640  145.2680 C   0  0  0  0  0  0  0  0  0  0  0  0
  195.2470  175.1410  143.2730 C   0  0  0  0  0  0  0  0  0  0  0  0
  192.8780  174.3070  143.7320 C   0  0  1  0  0  3  0  0  0  0  0  0
  197.1170  174.5830  144.7690 C   0  0  0  0  0  3  0  0  0  0  0  0
  196.6880  175.0520  143.5880 C   0  0  0  0  0  3  0  0  0  0  0  0
  194.2330  174.7410  144.3110 C   0  0  1  0  0  3  0  0  0  0  0  0
  196.1680  174.1550  145.8640 C   0  0  0  0  0  2  0  0  0  0  0  0
  192.6350  172.8120  143.7780 C   0  0  0  0  0  0  0  0  0  0  0  0
  194.4460  172.5000  145.3340 C   0  0  0  0  0  3  0  0  0  0  0  0
  194.8810  175.6140  142.1630 O   0  0  0  0  0  0  0  0  0  0  0  0
  191.5770  172.2600  142.9920 N   0  0  0  0  0  2  0  0  0  0  0  0
  193.3370  172.0380  144.5550 N   0  0  0  0  0  0  0  0  0  0  0  0
  191.2540  170.8430  142.9950 C   0  0  0  0  0  2  0  0  0  0  0  0
  190.4070  170.5590  141.9260 O   0  0  0  0  0  1  0  0  0  0  0  0
  188.5770  175.8060  146.4730 C   0  0  0  0  0  2  0  0  0  0  0  0
  187.8340  177.1170  146.2160 C   0  0  0  0  0  2  0  0  0  0  0  0
  186.1850  176.7410  143.7920 O   0  0  0  0  0  0  0  0  0  0  0  0
  186.3200  176.9300  146.1830 C   0  0  2  0  0  3  0  0  0  0  0  0
  185.7240  177.2710  144.8370 C   0  0  0  0  0  0  0  0  0  0  0  0
  184.0700  178.7570  145.8310 C   0  0  0  0  0  3  0  0  0  0  0  0
  184.6230  178.4770  147.1670 C   0  0  0  0  0  3  0  0  0  0  0  0
  185.6580  177.6480  147.3340 C   0  0  0  0  0  3  0  0  0  0  0  0
  184.5850  178.1950  144.7370 C   0  0  0  0  0  3  0  0  0  0  0  0
  190.3600  175.1240  142.2930 C   0  0  0  0  0  2  0  0  0  0  0  0
  187.9430  174.4880  141.8440 C   0  0  1  0  0  3  0  0  0  0  0  0
  188.9710  175.5720  141.8340 C   0  0  2  0  0  3  0  0  0  0  0  0
  188.6180  174.8650  140.6690 O   0  0  0  0  0  0  0  0  0  0  0  0
  188.4440  173.2620  142.2920 O   0  0  0  0  0  1  0  0  0  0  0  0
  1  4  1  6  0  0  0
  1  3  1  0  0  0  0
  1  6  1  0  0  0  0
  3  5  1  0  0  0  0
  5  2  1  0  0  0  0
  5 21  1  1  0  0  0
  6  2  1  6  0  0  0
  7 15  2  0  0  0  0
  7 13  1  0  0  0  0
  8 11  1  0  0  0  0
  9 14  1  1  0  0  0
  9 12  1  0  0  0  0
  9  6  1  0  0  0  0
 10 13  1  0  0  0  0
 11 10  2  0  0  0  0
 12  8  1  6  0  0  0
 12  7  1  0  0  0  0
 14 18  2  0  0  0  0
 16  8  2  0  0  0  0
 17 19  1  0  0  0  0
 17 14  1  0  0  0  0
 18 15  1  0  0  0  0
 20 19  1  0  0  0  0
 22 21  1  0  0  0  0
 23 25  2  0  0  0  0
 24 22  1  6  0  0  0
 24 28  1  0  0  0  0
 25 24  1  0  0  0  0
 26 27  1  0  0  0  0
 27 28  2  0  0  0  0
 29 25  1  0  0  0  0
 29 26  2  0  0  0  0
 30  1  1  0  0  0  0
 31 34  1  1  0  0  0
 32 31  1  0  0  0  0
 32 30  1  1  0  0  0
 33 32  1  0  0  0  0
 33 31  1  0  0  0  0
M  END
>  <MODEL>
3

>  <REMARK>
 VINA RESULT:      -7.4      2.386      8.321
  Name = 
  7 active torsions:
  status: ('A' for Active; 'I' for Inactive)
    1  A    between atoms: C_3  and  C_13
    2  A    between atoms: C_3  and  C_17
    3  A    between atoms: C_4  and  C_31
    4  A    between atoms: C_5  and  C_27
    5  A    between atoms: C_8  and  C_27
    6  A    between atoms: C_12  and  N_28
    7  A    between atoms: C_17  and  C_29
                            x       y       z     vdW  Elec       q    Type
                         _______ _______ _______ _____ _____    ______ ____

>  <TORSDO>
F 7

$$$$
=
 OpenBabel11052418403D

 34 38  0  0  1  0  0  0  0  0999 V2000
  190.9210  174.9010  142.6170 C   0  0  1  0  0  0  0  0  0  0  0  0
  190.6810  177.0520  144.3350 S   0  0  0  0  0  0  0  0  0  0  0  0
  189.7470  175.7300  142.1240 C   0  0  0  0  0  2  0  0  0  0  0  0
  191.6810  174.4740  141.5280 O   0  0  0  0  0  1  0  0  0  0  0  0
  189.2650  176.5900  143.2820 C   0  0  2  0  0  3  0  0  0  0  0  0
  191.7530  175.8520  143.4720 C   0  0  1  0  0  3  0  0  0  0  0  0
  195.0750  176.5250  144.3040 C   0  0  0  0  0  0  0  0  0  0  0  0
  195.0430  174.2620  143.3520 C   0  0  0  0  0  0  0  0  0  0  0  0
  192.8740  175.2120  144.3090 C   0  0  1  0  0  3  0  0  0  0  0  0
  197.1330  175.5550  143.3810 C   0  0  0  0  0  3  0  0  0  0  0  0
  196.5100  174.3790  143.2210 C   0  0  0  0  0  3  0  0  0  0  0  0
  194.2200  175.4930  143.6230 C   0  0  1  0  0  3  0  0  0  0  0  0
  196.3850  176.8380  143.6610 C   0  0  0  0  0  2  0  0  0  0  0  0
  192.8360  175.5860  145.7770 C   0  0  0  0  0  0  0  0  0  0  0  0
  194.8440  176.8980  145.5600 C   0  0  0  0  0  3  0  0  0  0  0  0
  194.4890  173.1450  143.1670 O   0  0  0  0  0  0  0  0  0  0  0  0
  191.7740  175.0850  146.5900 N   0  0  0  0  0  2  0  0  0  0  0  0
  193.7200  176.3930  146.2900 N   0  0  0  0  0  0  0  0  0  0  0  0
  191.6410  175.4140  148.0000 C   0  0  0  0  0  2  0  0  0  0  0  0
  190.9270  176.6030  148.1310 O   0  0  0  0  0  1  0  0  0  0  0  0
  188.4900  177.8100  142.7970 C   0  0  0  0  0  2  0  0  0  0  0  0
  186.9920  177.6940  143.0780 C   0  0  0  0  0  2  0  0  0  0  0  0
  187.0040  176.5000  145.7830 O   0  0  0  0  0  0  0  0  0  0  0  0
  186.5880  178.3990  144.3700 C   0  0  2  0  0  3  0  0  0  0  0  0
  186.2140  177.4270  145.4660 C   0  0  0  0  0  0  0  0  0  0  0  0
  184.0970  178.5570  145.8850 C   0  0  0  0  0  3  0  0  0  0  0  0
  184.4010  179.5200  144.8130 C   0  0  0  0  0  3  0  0  0  0  0  0
  185.5350  179.4480  144.1110 C   0  0  0  0  0  3  0  0  0  0  0  0
  184.9440  177.5740  146.1930 C   0  0  0  0  0  3  0  0  0  0  0  0
  190.4300  173.6910  143.4170 C   0  0  0  0  0  2  0  0  0  0  0  0
  189.6640  171.6390  142.1310 C   0  0  1  0  0  3  0  0  0  0  0  0
  190.8100  172.3630  142.7590 C   0  0  2  0  0  3  0  0  0  0  0  0
  190.1400  171.3130  143.4140 O   0  0  0  0  0  0  0  0  0  0  0  0
  188.4520  172.3270  142.2490 O   0  0  0  0  0  1  0  0  0  0  0  0
  1  4  1  6  0  0  0
  1 30  1  0  0  0  0
  1  6  1  0  0  0  0
  3  1  1  0  0  0  0
  3  5  1  0  0  0  0
  5 21  1  6  0  0  0
  5  2  1  0  0  0  0
  6  9  1  0  0  0  0
  6  2  1  1  0  0  0
  7 15  2  0  0  0  0
  9 14  1  1  0  0  0
 10 13  1  0  0  0  0
 11  8  1  0  0  0  0
 11 10  2  0  0  0  0
 12  8  1  1  0  0  0
 12  7  1  0  0  0  0
 12  9  1  0  0  0  0
 13  7  1  0  0  0  0
 14 18  2  0  0  0  0
 14 17  1  0  0  0  0
 15 18  1  0  0  0  0
 16  8  2  0  0  0  0
 17 19  1  0  0  0  0
 19 20  1  0  0  0  0
 21 22  1  0  0  0  0
 24 22  1  6  0  0  0
 24 25  1  0  0  0  0
 25 23  2  0  0  0  0
 25 29  1  0  0  0  0
 26 29  2  0  0  0  0
 27 26  1  0  0  0  0
 28 24  1  0  0  0  0
 28 27  2  0  0  0  0
 31 34  1  1  0  0  0
 31 32  1  0  0  0  0
 31 33  1  0  0  0  0
 32 33  1  0  0  0  0
 32 30  1  1  0  0  0
M  END
>  <MODEL>
4

>  <REMARK>
 VINA RESULT:      -7.3      2.341      8.262
  Name = 
  7 active torsions:
  status: ('A' for Active; 'I' for Inactive)
    1  A    between atoms: C_3  and  C_13
    2  A    between atoms: C_3  and  C_17
    3  A    between atoms: C_4  and  C_31
    4  A    between atoms: C_5  and  C_27
    5  A    between atoms: C_8  and  C_27
    6  A    between atoms: C_12  and  N_28
    7  A    between atoms: C_17  and  C_29
                            x       y       z     vdW  Elec       q    Type
                         _______ _______ _______ _____ _____    ______ ____

>  <TORSDO>
F 7

$$$$
=
 OpenBabel11052418403D

 34 38  0  0  1  0  0  0  0  0999 V2000
  194.1830  175.5460  145.3180 C   0  0  1  0  0  0  0  0  0  0  0  0
  191.7990  174.1830  145.0240 S   0  0  0  0  0  0  0  0  0  0  0  0
  193.0990  176.4180  145.9270 C   0  0  0  0  0  2  0  0  0  0  0  0
  195.3150  175.5710  146.1350 O   0  0  0  0  0  1  0  0  0  0  0  0
  191.7650  175.9780  145.3450 C   0  0  2  0  0  3  0  0  0  0  0  0
  193.6030  174.1350  145.3020 C   0  0  1  0  0  3  0  0  0  0  0  0
  194.3840  170.7430  145.5490 C   0  0  0  0  0  0  0  0  0  0  0  0
  196.5200  171.9320  145.3190 C   0  0  0  0  0  0  0  0  0  0  0  0
  194.3910  173.0830  144.5040 C   0  0  1  0  0  3  0  0  0  0  0  0
  196.4640  169.6800  146.3040 C   0  0  0  0  0  3  0  0  0  0  0  0
  197.1740  170.6880  145.7750 C   0  0  0  0  0  3  0  0  0  0  0  0
  195.0330  172.0970  145.4920 C   0  0  1  0  0  3  0  0  0  0  0  0
  194.9690  169.7600  146.5080 C   0  0  0  0  0  2  0  0  0  0  0  0
  193.5900  172.4220  143.4010 C   0  0  0  0  0  0  0  0  0  0  0  0
  193.5600  170.3280  144.5910 C   0  0  0  0  0  3  0  0  0  0  0  0
  197.2220  172.8690  144.8520 O   0  0  0  0  0  0  0  0  0  0  0  0
  193.2210  173.1940  142.2560 N   0  0  0  0  0  2  0  0  0  0  0  0
  193.1920  171.1860  143.5050 N   0  0  0  0  0  0  0  0  0  0  0  0
  192.4300  172.6510  141.1650 C   0  0  0  0  0  2  0  0  0  0  0  0
  191.0890  172.9740  141.3600 O   0  0  0  0  0  1  0  0  0  0  0  0
  190.5970  176.3770  146.2390 C   0  0  0  0  0  2  0  0  0  0  0  0
  189.6360  177.3390  145.5410 C   0  0  0  0  0  2  0  0  0  0  0  0
  187.6200  178.0580  143.5020 O   0  0  0  0  0  0  0  0  0  0  0  0
  188.2210  176.7770  145.4440 C   0  0  2  0  0  3  0  0  0  0  0  0
  187.2950  177.6760  144.6560 C   0  0  0  0  0  0  0  0  0  0  0  0
  185.6230  177.6770  146.4270 C   0  0  0  0  0  3  0  0  0  0  0  0
  186.4940  176.8190  147.2480 C   0  0  0  0  0  3  0  0  0  0  0  0
  187.6870  176.4090  146.8070 C   0  0  0  0  0  3  0  0  0  0  0  0
  185.9960  178.0820  145.2130 C   0  0  0  0  0  3  0  0  0  0  0  0
  194.5440  176.0340  143.9120 C   0  0  0  0  0  2  0  0  0  0  0  0
  196.4420  176.7900  142.4040 C   0  0  1  0  0  3  0  0  0  0  0  0
  196.0200  176.4160  143.7880 C   0  0  2  0  0  3  0  0  0  0  0  0
  196.6640  175.5040  142.9310 O   0  0  0  0  0  0  0  0  0  0  0  0
  195.3950  176.7360  141.4780 O   0  0  0  0  0  1  0  0  0  0  0  0
  1  3  1  0  0  0  0
  1  4  1  1  0  0  0
  2  5  1  0  0  0  0
  5  3  1  0  0  0  0
  5 21  1  1  0  0  0
  6  2  1  6  0  0  0
  6  1  1  0  0  0  0
  7 13  1  0  0  0  0
  8 11  1  0  0  0  0
  9 14  1  6  0  0  0
  9  6  1  0  0  0  0
  9 12  1  0  0  0  0
 10 13  1  0  0  0  0
 11 10  2  0  0  0  0
 12  8  1  6  0  0  0
 12  7  1  0  0  0  0
 14 18  2  0  0  0  0
 15  7  2  0  0  0  0
 16  8  2  0  0  0  0
 17 14  1  0  0  0  0
 18 15  1  0  0  0  0
 19 20  1  0  0  0  0
 19 17  1  0  0  0  0
 22 21  1  0  0  0  0
 23 25  2  0  0  0  0
 24 22  1  1  0  0  0
 24 28  1  0  0  0  0
 25 29  1  0  0  0  0
 25 24  1  0  0  0  0
 26 27  1  0  0  0  0
 28 27  2  0  0  0  0
 29 26  2  0  0  0  0
 30  1  1  0  0  0  0
 31 34  1  6  0  0  0
 31 33  1  0  0  0  0
 31 32  1  0  0  0  0
 32 30  1  6  0  0  0
 33 32  1  0  0  0  0
M  END
>  <MODEL>
5

>  <REMARK>
 VINA RESULT:      -7.2      2.967      8.815
  Name = 
  7 active torsions:
  status: ('A' for Active; 'I' for Inactive)
    1  A    between atoms: C_3  and  C_13
    2  A    between atoms: C_3  and  C_17
    3  A    between atoms: C_4  and  C_31
    4  A    between atoms: C_5  and  C_27
    5  A    between atoms: C_8  and  C_27
    6  A    between atoms: C_12  and  N_28
    7  A    between atoms: C_17  and  C_29
                            x       y       z     vdW  Elec       q    Type
                         _______ _______ _______ _____ _____    ______ ____

>  <TORSDO>
F 7

$$$$
=
 OpenBabel11052418403D

 34 38  0  0  1  0  0  0  0  0999 V2000
  191.2970  175.4720  145.1680 C   0  0  1  0  0  0  0  0  0  0  0  0
  190.6280  175.4450  142.4880 S   0  0  0  0  0  0  0  0  0  0  0  0
  190.0050  176.2580  145.0290 C   0  0  0  0  0  2  0  0  0  0  0  0
  191.2310  174.6610  146.3020 O   0  0  0  0  0  1  0  0  0  0  0  0
  189.8840  176.7020  143.5800 C   0  0  2  0  0  3  0  0  0  0  0  0
  191.3700  174.5930  143.9230 C   0  0  1  0  0  3  0  0  0  0  0  0
  192.4680  171.5430  142.6310 C   0  0  0  0  0  0  0  0  0  0  0  0
  193.4540  171.7430  144.8700 C   0  0  0  0  0  0  0  0  0  0  0  0
  192.7050  173.8720  143.6740 C   0  0  1  0  0  3  0  0  0  0  0  0
  193.2160  169.5320  143.8230 C   0  0  0  0  0  3  0  0  0  0  0  0
  193.7510  170.2980  144.7850 C   0  0  0  0  0  3  0  0  0  0  0  0
  192.4960  172.3650  143.8890 C   0  0  1  0  0  3  0  0  0  0  0  0
  192.2510  170.0760  142.7950 C   0  0  0  0  0  2  0  0  0  0  0  0
  193.3580  174.2250  142.3530 C   0  0  0  0  0  0  0  0  0  0  0  0
  192.9260  172.0240  141.4780 C   0  0  0  0  0  3  0  0  0  0  0  0
  193.9520  172.4270  145.8050 O   0  0  0  0  0  0  0  0  0  0  0  0
  193.8940  175.5380  142.1770 N   0  0  0  0  0  2  0  0  0  0  0  0
  193.3920  173.3730  141.3690 N   0  0  0  0  0  0  0  0  0  0  0  0
  194.5110  175.9740  140.9350 C   0  0  0  0  0  2  0  0  0  0  0  0
  195.5760  176.8250  141.2220 O   0  0  0  0  0  1  0  0  0  0  0  0
  188.4390  177.0080  143.2000 C   0  0  0  0  0  2  0  0  0  0  0  0
  187.7380  177.8760  144.2440 C   0  0  0  0  0  2  0  0  0  0  0  0
  185.3530  179.3350  143.2830 O   0  0  0  0  0  0  0  0  0  0  0  0
  186.2860  177.4610  144.4630 C   0  0  2  0  0  3  0  0  0  0  0  0
  185.3250  178.6190  144.3190 C   0  0  0  0  0  0  0  0  0  0  0  0
  184.2730  178.1470  146.4640 C   0  0  0  0  0  3  0  0  0  0  0  0
  185.1970  177.0190  146.6670 C   0  0  0  0  0  3  0  0  0  0  0  0
  186.1260  176.7040  145.7590 C   0  0  0  0  0  3  0  0  0  0  0  0
  184.3320  178.9000  145.3660 C   0  0  0  0  0  3  0  0  0  0  0  0
  192.4980  176.4180  145.2740 C   0  0  0  0  0  2  0  0  0  0  0  0
  194.4350  177.1400  146.7470 C   0  0  1  0  0  3  0  0  0  0  0  0
  193.1560  176.3740  146.6540 C   0  0  2  0  0  3  0  0  0  0  0  0
  194.4120  175.7470  146.5480 O   0  0  0  0  0  0  0  0  0  0  0  0
  194.7830  177.7730  145.5500 O   0  0  0  0  0  1  0  0  0  0  0  0
  1 30  1  0  0  0  0
  1  4  1  1  0  0  0
  2  5  1  0  0  0  0
  3  1  1  0  0  0  0
  5 21  1  6  0  0  0
  5  3  1  0  0  0  0
  6  2  1  6  0  0  0
  6  1  1  0  0  0  0
  7 13  1  0  0  0  0
  8 16  2  0  0  0  0
  9 14  1  6  0  0  0
  9 12  1  0  0  0  0
  9  6  1  0  0  0  0
 10 11  2  0  0  0  0
 11  8  1  0  0  0  0
 12  7  1  6  0  0  0
 12  8  1  0  0  0  0
 13 10  1  0  0  0  0
 15  7  2  0  0  0  0
 17 14  1  0  0  0  0
 18 15  1  0  0  0  0
 18 14  2  0  0  0  0
 19 20  1  0  0  0  0
 19 17  1  0  0  0  0
 21 22  1  0  0  0  0
 23 25  2  0  0  0  0
 24 22  1  1  0  0  0
 24 28  1  0  0  0  0
 25 24  1  0  0  0  0
 25 29  1  0  0  0  0
 26 27  1  0  0  0  0
 28 27  2  0  0  0  0
 29 26  2  0  0  0  0
 31 34  1  6  0  0  0
 32 30  1  6  0  0  0
 32 31  1  0  0  0  0
 33 32  1  0  0  0  0
 33 31  1  0  0  0  0
M  END
>  <MODEL>
6

>  <REMARK>
 VINA RESULT:      -7.2      3.002      8.314
  Name = 
  7 active torsions:
  status: ('A' for Active; 'I' for Inactive)
    1  A    between atoms: C_3  and  C_13
    2  A    between atoms: C_3  and  C_17
    3  A    between atoms: C_4  and  C_31
    4  A    between atoms: C_5  and  C_27
    5  A    between atoms: C_8  and  C_27
    6  A    between atoms: C_12  and  N_28
    7  A    between atoms: C_17  and  C_29
                            x       y       z     vdW  Elec       q    Type
                         _______ _______ _______ _____ _____    ______ ____

>  <TORSDO>
F 7

$$$$
=
 OpenBabel11052418403D

 34 38  0  0  1  0  0  0  0  0999 V2000
  190.8080  175.5580  145.3760 C   0  0  1  0  0  0  0  0  0  0  0  0
  189.8240  176.2600  142.8920 S   0  0  0  0  0  0  0  0  0  0  0  0
  189.6700  176.5350  145.6130 C   0  0  0  0  0  2  0  0  0  0  0  0
  190.7360  174.5210  146.3080 O   0  0  0  0  0  1  0  0  0  0  0  0
  189.4550  177.3210  144.3290 C   0  0  2  0  0  3  0  0  0  0  0  0
  190.5700  174.9960  143.9770 C   0  0  1  0  0  3  0  0  0  0  0  0
  190.9940  172.5970  141.4780 C   0  0  0  0  0  0  0  0  0  0  0  0
  191.9140  171.6250  143.5370 C   0  0  0  0  0  0  0  0  0  0  0  0
  191.7150  174.1650  143.3720 C   0  0  1  0  0  3  0  0  0  0  0  0
  191.2190  170.1610  141.6880 C   0  0  0  0  0  3  0  0  0  0  0  0
  191.8770  170.3190  142.8450 C   0  0  0  0  0  3  0  0  0  0  0  0
  191.1610  172.7930  142.9590 C   0  0  1  0  0  3  0  0  0  0  0  0
  190.4430  171.2820  141.0360 C   0  0  0  0  0  2  0  0  0  0  0  0
  192.4810  174.8800  142.2770 C   0  0  0  0  0  0  0  0  0  0  0  0
  191.5930  173.3970  140.6010 C   0  0  0  0  0  3  0  0  0  0  0  0
  192.5180  171.7290  144.6380 O   0  0  0  0  0  0  0  0  0  0  0  0
  193.3070  175.9920  142.6250 N   0  0  0  0  0  2  0  0  0  0  0  0
  192.3570  174.5290  141.0300 N   0  0  0  0  0  0  0  0  0  0  0  0
  194.0550  176.7540  141.6390 C   0  0  0  0  0  2  0  0  0  0  0  0
  195.4130  176.4800  141.7740 O   0  0  0  0  0  1  0  0  0  0  0  0
  188.0530  177.9150  144.2570 C   0  0  0  0  0  2  0  0  0  0  0  0
  187.0100  176.8860  143.8260 C   0  0  0  0  0  2  0  0  0  0  0  0
  184.3960  178.1660  143.3040 O   0  0  0  0  0  0  0  0  0  0  0  0
  185.7990  176.8620  144.7550 C   0  0  2  0  0  3  0  0  0  0  0  0
  184.8310  177.9880  144.4710 C   0  0  0  0  0  0  0  0  0  0  0  0
  184.7960  178.6820  146.8060 C   0  0  0  0  0  3  0  0  0  0  0  0
  185.7560  177.6140  147.1360 C   0  0  0  0  0  3  0  0  0  0  0  0
  186.2240  176.7830  146.2010 C   0  0  0  0  0  3  0  0  0  0  0  0
  184.3620  178.8610  145.5580 C   0  0  0  0  0  3  0  0  0  0  0  0
  192.1620  176.2660  145.4870 C   0  0  0  0  0  2  0  0  0  0  0  0
  194.4830  176.1280  146.5070 C   0  0  1  0  0  3  0  0  0  0  0  0
  193.0830  175.6060  146.5140 C   0  0  2  0  0  3  0  0  0  0  0  0
  194.1260  174.9410  145.8420 O   0  0  0  0  0  0  0  0  0  0  0  0
  194.6840  177.1430  145.5660 O   0  0  0  0  0  1  0  0  0  0  0  0
  1 30  1  0  0  0  0
  1  3  1  0  0  0  0
  1  4  1  1  0  0  0
  2  5  1  0  0  0  0
  5 21  1  6  0  0  0
  5  3  1  0  0  0  0
  6  2  1  6  0  0  0
  6  1  1  0  0  0  0
  8 16  2  0  0  0  0
  9 14  1  6  0  0  0
  9  6  1  0  0  0  0
 10 11  2  0  0  0  0
 11  8  1  0  0  0  0
 12  7  1  6  0  0  0
 12  9  1  0  0  0  0
 12  8  1  0  0  0  0
 13  7  1  0  0  0  0
 13 10  1  0  0  0  0
 14 17  1  0  0  0  0
 15 18  1  0  0  0  0
 15  7  2  0  0  0  0
 18 14  2  0  0  0  0
 19 20  1  0  0  0  0
 19 17  1  0  0  0  0
 22 21  1  0  0  0  0
 23 25  2  0  0  0  0
 24 22  1  6  0  0  0
 24 28  1  0  0  0  0
 25 24  1  0  0  0  0
 25 29  1  0  0  0  0
 26 27  1  0  0  0  0
 28 27  2  0  0  0  0
 29 26  2  0  0  0  0
 31 34  1  6  0  0  0
 31 32  1  0  0  0  0
 32 30  1  6  0  0  0
 33 31  1  0  0  0  0
 33 32  1  0  0  0  0
M  END
>  <MODEL>
7

>  <REMARK>
 VINA RESULT:      -7.1      2.661      7.829
  Name = 
  7 active torsions:
  status: ('A' for Active; 'I' for Inactive)
    1  A    between atoms: C_3  and  C_13
    2  A    between atoms: C_3  and  C_17
    3  A    between atoms: C_4  and  C_31
    4  A    between atoms: C_5  and  C_27
    5  A    between atoms: C_8  and  C_27
    6  A    between atoms: C_12  and  N_28
    7  A    between atoms: C_17  and  C_29
                            x       y       z     vdW  Elec       q    Type
                         _______ _______ _______ _____ _____    ______ ____

>  <TORSDO>
F 7

$$$$
=
 OpenBabel11052418403D

 34 38  0  0  1  0  0  0  0  0999 V2000
  190.3490  174.3770  144.8930 C   0  0  1  0  0  0  0  0  0  0  0  0
  191.2600  176.2660  143.0950 S   0  0  0  0  0  0  0  0  0  0  0  0
  189.2730  175.4440  144.7920 C   0  0  0  0  0  2  0  0  0  0  0  0
  189.7540  173.1150  144.9190 O   0  0  0  0  0  1  0  0  0  0  0  0
  189.9200  176.7090  144.2510 C   0  0  2  0  0  3  0  0  0  0  0  0
  191.1770  174.5190  143.6190 C   0  0  1  0  0  3  0  0  0  0  0  0
  193.1730  172.9520  141.2250 C   0  0  0  0  0  0  0  0  0  0  0  0
  192.6880  171.2610  142.9380 C   0  0  0  0  0  0  0  0  0  0  0  0
  192.4950  173.7270  143.5710 C   0  0  1  0  0  3  0  0  0  0  0  0
  193.3540  170.5660  140.6760 C   0  0  0  0  0  3  0  0  0  0  0  0
  193.1540  170.2520  141.9640 C   0  0  0  0  0  3  0  0  0  0  0  0
  192.3850  172.6600  142.4710 C   0  0  1  0  0  3  0  0  0  0  0  0
  193.0820  171.9460  140.1250 C   0  0  0  0  0  2  0  0  0  0  0  0
  193.7310  174.5970  143.4710 C   0  0  0  0  0  0  0  0  0  0  0  0
  194.1410  173.8650  141.2130 C   0  0  0  0  0  3  0  0  0  0  0  0
  192.4830  170.9230  144.1340 O   0  0  0  0  0  0  0  0  0  0  0  0
  194.1080  175.3940  144.5950 N   0  0  0  0  0  2  0  0  0  0  0  0
  194.4180  174.6670  142.3670 N   0  0  0  0  0  0  0  0  0  0  0  0
  195.2610  176.2800  144.5780 C   0  0  0  0  0  2  0  0  0  0  0  0
  194.9800  177.4200  145.3270 O   0  0  0  0  0  1  0  0  0  0  0  0
  188.8960  177.6400  143.6100 C   0  0  0  0  0  2  0  0  0  0  0  0
  187.4610  177.2480  143.9590 C   0  0  0  0  0  2  0  0  0  0  0  0
  186.8890  176.7310  146.8130 O   0  0  0  0  0  0  0  0  0  0  0  0
  186.8120  178.2270  144.9340 C   0  0  2  0  0  3  0  0  0  0  0  0
  186.2000  177.5320  146.1290 C   0  0  0  0  0  0  0  0  0  0  0  0
  184.0660  178.6660  145.8230 C   0  0  0  0  0  3  0  0  0  0  0  0
  184.6040  179.3550  144.6380 C   0  0  0  0  0  3  0  0  0  0  0  0
  185.8570  179.1530  144.2210 C   0  0  0  0  0  3  0  0  0  0  0  0
  184.8100  177.8090  146.5220 C   0  0  0  0  0  3  0  0  0  0  0  0
  191.1960  174.5810  146.1540 C   0  0  0  0  0  2  0  0  0  0  0  0
  191.1030  176.5150  147.7960 C   0  0  1  0  0  3  0  0  0  0  0  0
  190.4250  175.2940  147.2660 C   0  0  2  0  0  3  0  0  0  0  0  0
  191.1900  175.2720  148.4470 O   0  0  0  0  0  0  0  0  0  0  0  0
  192.3160  176.7890  147.1570 O   0  0  0  0  0  1  0  0  0  0  0  0
  1  4  1  1  0  0  0
  1 30  1  0  0  0  0
  2  5  1  0  0  0  0
  3  1  1  0  0  0  0
  5 21  1  6  0  0  0
  5  3  1  0  0  0  0
  6  2  1  1  0  0  0
  6  1  1  0  0  0  0
  8 16  2  0  0  0  0
  9 14  1  6  0  0  0
  9  6  1  0  0  0  0
 10 11  2  0  0  0  0
 11  8  1  0  0  0  0
 12  7  1  6  0  0  0
 12  8  1  0  0  0  0
 12  9  1  0  0  0  0
 13 10  1  0  0  0  0
 13  7  1  0  0  0  0
 14 17  1  0  0  0  0
 15  7  2  0  0  0  0
 15 18  1  0  0  0  0
 18 14  2  0  0  0  0
 19 17  1  0  0  0  0
 19 20  1  0  0  0  0
 21 22  1  0  0  0  0
 24 22  1  6  0  0  0
 24 25  1  0  0  0  0
 25 29  1  0  0  0  0
 25 23  2  0  0  0  0
 26 29  2  0  0  0  0
 27 26  1  0  0  0  0
 28 27  2  0  0  0  0
 28 24  1  0  0  0  0
 31 34  1  6  0  0  0
 31 33  1  0  0  0  0
 32 30  1  6  0  0  0
 32 31  1  0  0  0  0
 32 33  1  0  0  0  0
M  END
>  <MODEL>
8

>  <REMARK>
 VINA RESULT:      -7.0      2.806      8.275
  Name = 
  7 active torsions:
  status: ('A' for Active; 'I' for Inactive)
    1  A    between atoms: C_3  and  C_13
    2  A    between atoms: C_3  and  C_17
    3  A    between atoms: C_4  and  C_31
    4  A    between atoms: C_5  and  C_27
    5  A    between atoms: C_8  and  C_27
    6  A    between atoms: C_12  and  N_28
    7  A    between atoms: C_17  and  C_29
                            x       y       z     vdW  Elec       q    Type
                         _______ _______ _______ _____ _____    ______ ____

>  <TORSDO>
F 7

$$$$
=
 OpenBabel11052418403D

 34 38  0  0  1  0  0  0  0  0999 V2000
  191.0310  176.7790  144.4760 C   0  0  1  0  0  0  0  0  0  0  0  0
  191.2430  175.2570  142.1800 S   0  0  0  0  0  0  0  0  0  0  0  0
  192.4900  176.8170  144.0550 C   0  0  0  0  0  2  0  0  0  0  0  0
  190.6310  178.0500  144.8920 O   0  0  0  0  0  1  0  0  0  0  0  0
  192.7450  175.6240  143.1480 C   0  0  2  0  0  3  0  0  0  0  0  0
  190.2600  176.3930  143.2180 C   0  0  1  0  0  3  0  0  0  0  0  0
  187.1380  177.7820  142.5070 C   0  0  0  0  0  0  0  0  0  0  0  0
  187.1530  177.3050  144.9150 C   0  0  0  0  0  0  0  0  0  0  0  0
  188.7770  176.0310  143.4110 C   0  0  1  0  0  3  0  0  0  0  0  0
  185.5910  178.9680  143.9990 C   0  0  0  0  0  3  0  0  0  0  0  0
  185.9680  178.1820  145.0180 C   0  0  0  0  0  3  0  0  0  0  0  0
  187.9850  177.3250  143.6610 C   0  0  1  0  0  3  0  0  0  0  0  0
  186.3640  179.0430  142.7030 C   0  0  0  0  0  2  0  0  0  0  0  0
  188.2080  175.1590  142.3110 C   0  0  0  0  0  0  0  0  0  0  0  0
  186.8340  176.9640  141.5030 C   0  0  0  0  0  3  0  0  0  0  0  0
  187.4940  176.6020  145.9040 O   0  0  0  0  0  0  0  0  0  0  0  0
  188.6510  173.8050  142.2040 N   0  0  0  0  0  2  0  0  0  0  0  0
  187.3680  175.6370  141.4380 N   0  0  0  0  0  0  0  0  0  0  0  0
  188.1830  172.9050  141.1640 C   0  0  0  0  0  2  0  0  0  0  0  0
  189.0960  172.8970  140.1120 O   0  0  0  0  0  1  0  0  0  0  0  0
  193.9620  175.8410  142.2550 C   0  0  0  0  0  2  0  0  0  0  0  0
  195.2620  175.4140  142.9360 C   0  0  0  0  0  2  0  0  0  0  0  0
  195.2950  175.8380  145.8620 O   0  0  0  0  0  0  0  0  0  0  0  0
  195.0360  174.3430  143.9990 C   0  0  2  0  0  3  0  0  0  0  0  0
  195.6040  174.7330  145.3440 C   0  0  0  0  0  0  0  0  0  0  0  0
  196.8230  172.6350  145.5520 C   0  0  0  0  0  3  0  0  0  0  0  0
  196.3150  172.2110  144.2360 C   0  0  0  0  0  3  0  0  0  0  0  0
  195.5030  172.9910  143.5170 C   0  0  0  0  0  3  0  0  0  0  0  0
  196.4930  173.8170  146.0730 C   0  0  0  0  0  3  0  0  0  0  0  0
  190.8220  175.7700  145.6100 C   0  0  0  0  0  2  0  0  0  0  0  0
  191.1870  175.5450  148.1130 C   0  0  1  0  0  3  0  0  0  0  0  0
  191.7250  176.0480  146.8120 C   0  0  2  0  0  3  0  0  0  0  0  0
  191.0460  176.8880  147.7160 O   0  0  0  0  0  0  0  0  0  0  0  0
  189.9570  174.8930  147.9800 O   0  0  0  0  0  1  0  0  0  0  0  0
  1  4  1  1  0  0  0
  1 30  1  0  0  0  0
  2  5  1  0  0  0  0
  3  1  1  0  0  0  0
  5 21  1  6  0  0  0
  5  3  1  0  0  0  0
  6  2  1  1  0  0  0
  6  9  1  0  0  0  0
  6  1  1  0  0  0  0
  7 13  1  0  0  0  0
  8 11  1  0  0  0  0
  8 16  2  0  0  0  0
  9 14  1  6  0  0  0
  9 12  1  0  0  0  0
 10 11  2  0  0  0  0
 12  7  1  6  0  0  0
 12  8  1  0  0  0  0
 13 10  1  0  0  0  0
 15  7  2  0  0  0  0
 17 14  1  0  0  0  0
 18 15  1  0  0  0  0
 18 14  2  0  0  0  0
 19 17  1  0  0  0  0
 20 19  1  0  0  0  0
 21 22  1  0  0  0  0
 24 22  1  6  0  0  0
 24 25  1  0  0  0  0
 25 23  2  0  0  0  0
 25 29  1  0  0  0  0
 26 29  2  0  0  0  0
 27 26  1  0  0  0  0
 28 24  1  0  0  0  0
 28 27  2  0  0  0  0
 31 34  1  6  0  0  0
 32 30  1  6  0  0  0
 32 33  1  0  0  0  0
 32 31  1  0  0  0  0
 33 31  1  0  0  0  0
M  END
>  <MODEL>
9

>  <REMARK>
 VINA RESULT:      -6.8      1.904      2.663
  Name = 
  7 active torsions:
  status: ('A' for Active; 'I' for Inactive)
    1  A    between atoms: C_3  and  C_13
    2  A    between atoms: C_3  and  C_17
    3  A    between atoms: C_4  and  C_31
    4  A    between atoms: C_5  and  C_27
    5  A    between atoms: C_8  and  C_27
    6  A    between atoms: C_12  and  N_28
    7  A    between atoms: C_17  and  C_29
                            x       y       z     vdW  Elec       q    Type
                         _______ _______ _______ _____ _____    ______ ____

>  <TORSDO>
F 7

$$$$
