=
 OpenBabel11052420163D

 34 38  0  0  1  0  0  0  0  0999 V2000
  187.7550  177.1110  144.6350 C   0  0  0  0  0  0  0  0  0  0  0  0
  184.8060  177.6050  143.3660 N   0  0  0  0  0  1  0  0  0  0  0  0
  187.6520  177.7420  147.4390 C   0  0  0  0  0  3  0  0  0  0  0  0
  188.8730  177.3050  145.3600 C   0  0  0  0  0  3  0  0  0  0  0  0
  186.4370  177.7040  146.6350 C   0  0  1  0  0  3  0  0  0  0  0  0
  185.4840  178.6170  146.7220 C   0  0  0  0  0  2  0  0  0  0  0  0
  188.8280  177.5450  146.8260 C   0  0  0  0  0  0  0  0  0  0  0  0
  185.3230  177.8450  144.6740 C   0  0  0  0  0  0  0  0  0  0  0  0
  186.3980  177.0180  145.3150 C   0  0  1  0  0  3  0  0  0  0  0  0
  184.7540  178.6670  145.4990 N   0  0  0  0  0  0  0  0  0  0  0  0
  187.7480  177.9870  140.9970 C   0  0  0  0  0  3  0  0  0  0  0  0
  186.9880  176.8860  140.3200 C   0  0  0  0  0  2  0  0  0  0  0  0
  187.7420  175.5820  140.3360 C   0  0  0  0  0  0  0  0  0  0  0  0
  188.1010  174.9910  141.4780 C   0  0  0  0  0  3  0  0  0  0  0  0
  188.0970  177.9620  142.2830 C   0  0  0  0  0  3  0  0  0  0  0  0
  187.9310  175.5400  142.8400 C   0  0  0  0  0  3  0  0  0  0  0  0
  187.8770  176.8240  143.2050 C   0  0  0  0  0  0  0  0  0  0  0  0
  188.0120  174.8990  139.1440 O   0  0  0  0  0  0  0  0  0  0  0  0
  189.8980  173.4980  138.5260 C   0  0  0  0  0  1  0  0  0  0  0  0
  188.4970  173.5600  139.1130 C   0  0  0  0  0  2  0  0  0  0  0  0
  190.0490  177.4820  147.5880 N   0  0  0  0  0  2  0  0  0  0  0  0
  192.8670  175.2530  146.4610 C   0  0  0  0  0  2  0  0  0  0  0  0
  190.1290  175.0290  147.2870 C   0  0  0  0  0  2  0  0  0  0  0  0
  191.5080  172.6480  144.0760 N   0  0  0  0  0  0  0  0  0  0  0  0
  191.9290  171.8600  142.9530 C   0  0  0  0  0  0  0  0  0  0  0  0
  192.5010  173.2890  144.9360 C   0  0  0  0  0  2  0  0  0  0  0  0
  191.3720  172.0140  141.8320 O   0  0  0  0  0  0  0  0  0  0  0  0
  191.9210  174.5890  145.4760 C   0  0  1  0  0  3  0  0  0  0  0  0
  192.9900  170.8240  143.1130 C   0  0  0  0  0  1  0  0  0  0  0  0
  189.6850  173.4800  145.4060 C   0  0  0  0  0  3  0  0  0  0  0  0
  190.6020  174.3470  146.0790 N   0  0  0  0  0  0  0  0  0  0  0  0
  190.1140  172.6840  144.4300 C   0  0  0  0  0  3  0  0  0  0  0  0
  190.9180  176.3020  147.6560 C   0  0  1  0  0  3  0  0  0  0  0  0
  192.2240  176.5540  146.8960 C   0  0  0  0  0  2  0  0  0  0  0  0
  1  4  2  0  0  0  0
  2  8  1  0  0  0  0
  4  7  1  0  0  0  0
  5  6  1  6  0  0  0
  5  3  1  0  0  0  0
  7  3  2  0  0  0  0
  7 21  1  0  0  0  0
  8  9  1  0  0  0  0
  8 10  2  0  0  0  0
  9  1  1  6  0  0  0
  9  5  1  0  0  0  0
 10  6  1  0  0  0  0
 11 15  2  0  0  0  0
 12 13  1  0  0  0  0
 12 11  1  0  0  0  0
 13 14  2  0  0  0  0
 14 16  1  0  0  0  0
 15 17  1  0  0  0  0
 16 17  2  0  0  0  0
 17  1  1  0  0  0  0
 18 13  1  0  0  0  0
 19 20  1  0  0  0  0
 20 18  1  0  0  0  0
 22 34  1  0  0  0  0
 23 33  1  0  0  0  0
 24 32  1  0  0  0  0
 24 26  1  0  0  0  0
 25 29  1  0  0  0  0
 25 24  1  0  0  0  0
 27 25  2  0  0  0  0
 28 26  1  1  0  0  0
 28 31  1  0  0  0  0
 28 22  1  0  0  0  0
 30 31  1  0  0  0  0
 31 23  1  0  0  0  0
 32 30  2  0  0  0  0
 33 21  1  6  0  0  0
 34 33  1  0  0  0  0
M  END
>  <MODEL>
1

>  <REMARK>
 VINA RESULT:      -7.9      0.000      0.000
  Name = 
  5 active torsions:
  status: ('A' for Active; 'I' for Inactive)
    1  A    between atoms: C_1  and  C_34
    2  A    between atoms: O_3  and  C_24
    3  A    between atoms: O_3  and  C_25
    4  A    between atoms: C_17  and  N_18
    5  A    between atoms: N_18  and  C_30
                            x       y       z     vdW  Elec       q    Type
                         _______ _______ _______ _____ _____    ______ ____

>  <TORSDO>
F 5

$$$$
=
 OpenBabel11052420163D

 34 38  0  0  1  0  0  0  0  0999 V2000
  191.4130  174.0250  144.1190 C   0  0  0  0  0  0  0  0  0  0  0  0
  193.7400  172.4930  142.4480 N   0  0  0  0  0  1  0  0  0  0  0  0
  192.6050  175.2130  146.4510 C   0  0  0  0  0  3  0  0  0  0  0  0
  190.6680  174.4530  145.1550 C   0  0  0  0  0  3  0  0  0  0  0  0
  193.4310  174.6010  145.4170 C   0  0  1  0  0  3  0  0  0  0  0  0
  194.4600  173.8160  145.6850 C   0  0  0  0  0  2  0  0  0  0  0  0
  191.2720  175.1470  146.3230 C   0  0  0  0  0  0  0  0  0  0  0  0
  193.7670  173.1620  143.7080 C   0  0  0  0  0  0  0  0  0  0  0  0
  192.9000  174.3370  144.0520 C   0  0  1  0  0  3  0  0  0  0  0  0
  194.6970  172.9430  144.5840 N   0  0  0  0  0  0  0  0  0  0  0  0
  190.1410  171.1350  142.1100 C   0  0  0  0  0  3  0  0  0  0  0  0
  190.5020  171.4450  140.6880 C   0  0  0  0  0  2  0  0  0  0  0  0
  189.7020  172.5960  140.1370 C   0  0  0  0  0  0  0  0  0  0  0  0
  189.7460  173.8110  140.6890 C   0  0  0  0  0  3  0  0  0  0  0  0
  190.2940  171.9960  143.1150 C   0  0  0  0  0  3  0  0  0  0  0  0
  190.4540  174.1820  141.9320 C   0  0  0  0  0  3  0  0  0  0  0  0
  190.7450  173.3990  142.9750 C   0  0  0  0  0  0  0  0  0  0  0  0
  188.9550  172.4480  138.9630 O   0  0  0  0  0  0  0  0  0  0  0  0
  189.0350  173.9090  137.0220 C   0  0  0  0  0  1  0  0  0  0  0  0
  188.3160  173.5420  138.3100 C   0  0  0  0  0  2  0  0  0  0  0  0
  190.4120  175.8140  147.2680 N   0  0  0  0  0  2  0  0  0  0  0  0
  187.0410  176.7670  145.8870 C   0  0  0  0  0  2  0  0  0  0  0  0
  189.7780  177.6040  145.6850 C   0  0  0  0  0  2  0  0  0  0  0  0
  187.3860  177.5370  142.1990 N   0  0  0  0  0  0  0  0  0  0  0  0
  186.6180  177.4810  140.9870 C   0  0  0  0  0  0  0  0  0  0  0  0
  186.7170  177.4690  143.4960 C   0  0  0  0  0  2  0  0  0  0  0  0
  186.9840  176.7290  140.0440 O   0  0  0  0  0  0  0  0  0  0  0  0
  187.6380  176.7780  144.4910 C   0  0  1  0  0  3  0  0  0  0  0  0
  185.4120  178.3440  140.8180 C   0  0  0  0  0  1  0  0  0  0  0  0
  189.5490  177.7650  143.2230 C   0  0  0  0  0  3  0  0  0  0  0  0
  188.9650  177.4100  144.4800 N   0  0  0  0  0  0  0  0  0  0  0  0
  188.7980  177.8030  142.1270 C   0  0  0  0  0  3  0  0  0  0  0  0
  189.3460  176.7500  146.8940 C   0  0  1  0  0  3  0  0  0  0  0  0
  188.0050  176.0170  146.7840 C   0  0  0  0  0  2  0  0  0  0  0  0
  1  4  2  0  0  0  0
  2  8  1  0  0  0  0
  4  7  1  0  0  0  0
  5  6  1  1  0  0  0
  5  3  1  0  0  0  0
  7  3  2  0  0  0  0
  7 21  1  0  0  0  0
  8 10  2  0  0  0  0
  9  8  1  1  0  0  0
  9  1  1  0  0  0  0
  9  5  1  0  0  0  0
 10  6  1  0  0  0  0
 11 15  2  0  0  0  0
 12 11  1  0  0  0  0
 13 12  1  0  0  0  0
 13 14  2  0  0  0  0
 14 16  1  0  0  0  0
 16 17  2  0  0  0  0
 17 15  1  0  0  0  0
 17  1  1  0  0  0  0
 18 13  1  0  0  0  0
 19 20  1  0  0  0  0
 20 18  1  0  0  0  0
 22 34  1  0  0  0  0
 23 33  1  0  0  0  0
 24 26  1  0  0  0  0
 25 24  1  0  0  0  0
 27 25  2  0  0  0  0
 28 26  1  6  0  0  0
 28 22  1  0  0  0  0
 29 25  1  0  0  0  0
 30 31  1  0  0  0  0
 31 28  1  0  0  0  0
 31 23  1  0  0  0  0
 32 24  1  0  0  0  0
 32 30  2  0  0  0  0
 33 21  1  6  0  0  0
 34 33  1  0  0  0  0
M  END
>  <MODEL>
2

>  <REMARK>
 VINA RESULT:      -7.4      1.925      6.213
  Name = 
  5 active torsions:
  status: ('A' for Active; 'I' for Inactive)
    1  A    between atoms: C_1  and  C_34
    2  A    between atoms: O_3  and  C_24
    3  A    between atoms: O_3  and  C_25
    4  A    between atoms: C_17  and  N_18
    5  A    between atoms: N_18  and  C_30
                            x       y       z     vdW  Elec       q    Type
                         _______ _______ _______ _____ _____    ______ ____

>  <TORSDO>
F 5

$$$$
=
 OpenBabel11052420163D

 34 38  0  0  1  0  0  0  0  0999 V2000
  188.1450  177.3600  144.1200 C   0  0  0  0  0  0  0  0  0  0  0  0
  185.5830  176.6030  145.9680 N   0  0  0  0  0  1  0  0  0  0  0  0
  190.5250  176.4460  145.4520 C   0  0  0  0  0  3  0  0  0  0  0  0
  189.3690  177.7960  143.7650 C   0  0  0  0  0  3  0  0  0  0  0  0
  189.2020  176.0980  145.9580 C   0  0  1  0  0  3  0  0  0  0  0  0
  188.8860  176.1390  147.2410 C   0  0  0  0  0  2  0  0  0  0  0  0
  190.6060  177.2610  144.3910 C   0  0  0  0  0  0  0  0  0  0  0  0
  186.9850  176.4600  146.1930 C   0  0  0  0  0  0  0  0  0  0  0  0
  187.9880  176.2130  145.1060 C   0  0  1  0  0  3  0  0  0  0  0  0
  187.4800  176.3200  147.3830 N   0  0  0  0  0  0  0  0  0  0  0  0
  185.0590  179.4520  143.7980 C   0  0  0  0  0  3  0  0  0  0  0  0
  184.0470  178.5740  143.1260 C   0  0  0  0  0  2  0  0  0  0  0  0
  184.4000  178.2980  141.6880 C   0  0  0  0  0  0  0  0  0  0  0  0
  185.5400  177.6930  141.3480 C   0  0  0  0  0  3  0  0  0  0  0  0
  186.3390  179.1170  143.9570 C   0  0  0  0  0  3  0  0  0  0  0  0
  186.6390  177.3170  142.2620 C   0  0  0  0  0  3  0  0  0  0  0  0
  186.9720  177.8900  143.4220 C   0  0  0  0  0  0  0  0  0  0  0  0
  183.4920  178.5880  140.6620 O   0  0  0  0  0  0  0  0  0  0  0  0
  181.0850  178.8280  140.8880 C   0  0  0  0  0  1  0  0  0  0  0  0
  182.2440  177.9150  140.5220 C   0  0  0  0  0  2  0  0  0  0  0  0
  191.8840  177.5630  143.7960 N   0  0  0  0  0  2  0  0  0  0  0  0
  192.6060  174.2210  142.2180 C   0  0  0  0  0  2  0  0  0  0  0  0
  193.9580  176.2170  143.7730 C   0  0  0  0  0  2  0  0  0  0  0  0
  194.6530  172.1340  144.6210 N   0  0  0  0  0  0  0  0  0  0  0  0
  194.8760  170.7590  144.9670 C   0  0  0  0  0  0  0  0  0  0  0  0
  194.0170  172.4760  143.3500 C   0  0  0  0  0  2  0  0  0  0  0  0
  194.5800  170.3440  146.1210 O   0  0  0  0  0  0  0  0  0  0  0  0
  193.2100  173.7540  143.5310 C   0  0  1  0  0  3  0  0  0  0  0  0
  195.5020  169.8250  143.9860 C   0  0  0  0  0  1  0  0  0  0  0  0
  194.9140  174.4480  145.2190 C   0  0  0  0  0  3  0  0  0  0  0  0
  194.0440  174.8000  144.1400 N   0  0  0  0  0  0  0  0  0  0  0  0
  195.1870  173.1690  145.4640 C   0  0  0  0  0  3  0  0  0  0  0  0
  192.6740  176.6060  143.0130 C   0  0  1  0  0  3  0  0  0  0  0  0
  191.7870  175.4610  142.5150 C   0  0  0  0  0  2  0  0  0  0  0  0
  2  8  1  0  0  0  0
  4  1  2  0  0  0  0
  4  7  1  0  0  0  0
  5  3  1  6  0  0  0
  5  6  1  0  0  0  0
  6 10  1  0  0  0  0
  7  3  2  0  0  0  0
  8 10  2  0  0  0  0
  9  1  1  6  0  0  0
  9  5  1  0  0  0  0
  9  8  1  0  0  0  0
 11 15  2  0  0  0  0
 12 11  1  0  0  0  0
 13 12  1  0  0  0  0
 14 13  2  0  0  0  0
 14 16  1  0  0  0  0
 16 17  2  0  0  0  0
 17 15  1  0  0  0  0
 17  1  1  0  0  0  0
 18 13  1  0  0  0  0
 20 18  1  0  0  0  0
 20 19  1  0  0  0  0
 21  7  1  0  0  0  0
 22 34  1  0  0  0  0
 23 31  1  0  0  0  0
 24 25  1  0  0  0  0
 24 32  1  0  0  0  0
 25 27  2  0  0  0  0
 26 28  1  0  0  0  0
 26 24  1  0  0  0  0
 28 22  1  6  0  0  0
 28 31  1  0  0  0  0
 29 25  1  0  0  0  0
 30 32  2  0  0  0  0
 31 30  1  0  0  0  0
 33 23  1  0  0  0  0
 33 21  1  1  0  0  0
 34 33  1  0  0  0  0
M  END
>  <MODEL>
3

>  <REMARK>
 VINA RESULT:      -7.4      2.947      4.342
  Name = 
  5 active torsions:
  status: ('A' for Active; 'I' for Inactive)
    1  A    between atoms: C_1  and  C_34
    2  A    between atoms: O_3  and  C_24
    3  A    between atoms: O_3  and  C_25
    4  A    between atoms: C_17  and  N_18
    5  A    between atoms: N_18  and  C_30
                            x       y       z     vdW  Elec       q    Type
                         _______ _______ _______ _____ _____    ______ ____

>  <TORSDO>
F 5

$$$$
=
 OpenBabel11052420163D

 34 38  0  0  1  0  0  0  0  0999 V2000
  187.7080  175.9610  142.4660 C   0  0  0  0  0  0  0  0  0  0  0  0
  186.2730  178.8640  142.2090 N   0  0  0  0  0  1  0  0  0  0  0  0
  188.0430  174.8790  139.8210 C   0  0  0  0  0  3  0  0  0  0  0  0
  187.9810  174.6580  142.2620 C   0  0  0  0  0  3  0  0  0  0  0  0
  187.5800  176.2480  140.0180 C   0  0  1  0  0  3  0  0  0  0  0  0
  186.5880  176.7810  139.3260 C   0  0  0  0  0  2  0  0  0  0  0  0
  188.2410  174.1130  140.9030 C   0  0  0  0  0  0  0  0  0  0  0  0
  186.5860  177.8760  141.2290 C   0  0  0  0  0  0  0  0  0  0  0  0
  187.7660  176.9530  141.3150 C   0  0  1  0  0  3  0  0  0  0  0  0
  185.9950  177.8390  140.0760 N   0  0  0  0  0  0  0  0  0  0  0  0
  188.8480  177.2870  145.7740 C   0  0  0  0  0  3  0  0  0  0  0  0
  188.0690  176.5240  146.8030 C   0  0  0  0  0  2  0  0  0  0  0  0
  186.6080  176.8900  146.7960 C   0  0  0  0  0  0  0  0  0  0  0  0
  185.8460  176.7230  145.7110 C   0  0  0  0  0  3  0  0  0  0  0  0
  188.6190  177.2070  144.4640 C   0  0  0  0  0  3  0  0  0  0  0  0
  186.3070  176.2850  144.3770 C   0  0  0  0  0  3  0  0  0  0  0  0
  187.5180  176.4410  143.8360 C   0  0  0  0  0  0  0  0  0  0  0  0
  185.9770  177.3340  147.9640 O   0  0  0  0  0  0  0  0  0  0  0  0
  186.2720  179.7440  147.8660 C   0  0  0  0  0  1  0  0  0  0  0  0
  185.3040  178.5870  148.0500 C   0  0  0  0  0  2  0  0  0  0  0  0
  188.7850  172.7850  140.7700 N   0  0  0  0  0  2  0  0  0  0  0  0
  191.2240  172.0110  143.5320 C   0  0  0  0  0  2  0  0  0  0  0  0
  191.1570  173.4290  141.0390 C   0  0  0  0  0  2  0  0  0  0  0  0
  193.2440  175.1160  144.3060 N   0  0  0  0  0  0  0  0  0  0  0  0
  193.9220  175.7410  145.4060 C   0  0  0  0  0  0  0  0  0  0  0  0
  192.8820  173.7020  144.3740 C   0  0  0  0  0  2  0  0  0  0  0  0
  193.5340  176.8630  145.8290 O   0  0  0  0  0  0  0  0  0  0  0  0
  191.5990  173.4810  143.5860 C   0  0  1  0  0  3  0  0  0  0  0  0
  195.1150  175.0910  146.0250 C   0  0  0  0  0  1  0  0  0  0  0  0
  192.3470  175.3330  142.0850 C   0  0  0  0  0  3  0  0  0  0  0  0
  191.7270  174.0520  142.2370 N   0  0  0  0  0  0  0  0  0  0  0  0
  193.0540  175.8520  143.0850 C   0  0  0  0  0  3  0  0  0  0  0  0
  190.0770  172.3640  141.3210 C   0  0  1  0  0  3  0  0  0  0  0  0
  189.9160  171.9070  142.7750 C   0  0  0  0  0  2  0  0  0  0  0  0
  1 17  1  0  0  0  0
  3  5  1  0  0  0  0
  3  7  2  0  0  0  0
  4  1  2  0  0  0  0
  5  6  1  1  0  0  0
  5  9  1  0  0  0  0
  6 10  1  0  0  0  0
  7  4  1  0  0  0  0
  8  2  1  0  0  0  0
  9  8  1  1  0  0  0
  9  1  1  0  0  0  0
 10  8  2  0  0  0  0
 11 12  1  0  0  0  0
 13 12  1  0  0  0  0
 13 18  1  0  0  0  0
 14 13  2  0  0  0  0
 15 11  2  0  0  0  0
 16 14  1  0  0  0  0
 17 16  2  0  0  0  0
 17 15  1  0  0  0  0
 18 20  1  0  0  0  0
 19 20  1  0  0  0  0
 21  7  1  0  0  0  0
 23 33  1  0  0  0  0
 23 31  1  0  0  0  0
 24 26  1  0  0  0  0
 24 25  1  0  0  0  0
 25 27  2  0  0  0  0
 25 29  1  0  0  0  0
 28 22  1  6  0  0  0
 28 26  1  0  0  0  0
 30 31  1  0  0  0  0
 30 32  2  0  0  0  0
 31 28  1  0  0  0  0
 32 24  1  0  0  0  0
 33 21  1  1  0  0  0
 33 34  1  0  0  0  0
 34 22  1  0  0  0  0
M  END
>  <MODEL>
4

>  <REMARK>
 VINA RESULT:      -7.3      2.724      5.972
  Name = 
  5 active torsions:
  status: ('A' for Active; 'I' for Inactive)
    1  A    between atoms: C_1  and  C_34
    2  A    between atoms: O_3  and  C_24
    3  A    between atoms: O_3  and  C_25
    4  A    between atoms: C_17  and  N_18
    5  A    between atoms: N_18  and  C_30
                            x       y       z     vdW  Elec       q    Type
                         _______ _______ _______ _____ _____    ______ ____

>  <TORSDO>
F 5

$$$$
=
 OpenBabel11052420163D

 34 38  0  0  1  0  0  0  0  0999 V2000
  187.7540  176.9010  142.7210 C   0  0  0  0  0  0  0  0  0  0  0  0
  186.0290  179.1980  144.2390 N   0  0  0  0  0  1  0  0  0  0  0  0
  186.8490  176.7410  139.9950 C   0  0  0  0  0  3  0  0  0  0  0  0
  188.0500  175.8480  141.9360 C   0  0  0  0  0  3  0  0  0  0  0  0
  186.3780  177.8000  140.8800 C   0  0  1  0  0  3  0  0  0  0  0  0
  185.1140  178.1830  140.9400 C   0  0  0  0  0  2  0  0  0  0  0  0
  187.6600  175.8020  140.5020 C   0  0  0  0  0  0  0  0  0  0  0  0
  185.9290  178.6580  142.9210 C   0  0  0  0  0  0  0  0  0  0  0  0
  187.0990  178.1430  142.1360 C   0  0  1  0  0  3  0  0  0  0  0  0
  184.8500  178.7660  142.2130 N   0  0  0  0  0  0  0  0  0  0  0  0
  187.3920  176.3910  146.4100 C   0  0  0  0  0  3  0  0  0  0  0  0
  188.0460  177.5810  147.0460 C   0  0  0  0  0  2  0  0  0  0  0  0
  189.5410  177.5720  146.8650 C   0  0  0  0  0  0  0  0  0  0  0  0
  190.1030  177.5790  145.6540 C   0  0  0  0  0  3  0  0  0  0  0  0
  187.4440  176.1290  145.1050 C   0  0  0  0  0  3  0  0  0  0  0  0
  189.3950  177.4860  144.3600 C   0  0  0  0  0  3  0  0  0  0  0  0
  188.2190  176.9050  144.1090 C   0  0  0  0  0  0  0  0  0  0  0  0
  190.3940  177.6490  147.9720 O   0  0  0  0  0  0  0  0  0  0  0  0
  191.2390  175.3720  148.0580 C   0  0  0  0  0  1  0  0  0  0  0  0
  191.5710  176.8550  148.0990 C   0  0  0  0  0  2  0  0  0  0  0  0
  188.2260  174.7860  139.6500 N   0  0  0  0  0  2  0  0  0  0  0  0
  189.3140  172.3080  142.2690 C   0  0  0  0  0  2  0  0  0  0  0  0
  190.4540  173.8190  140.1130 C   0  0  0  0  0  2  0  0  0  0  0  0
  192.6340  173.4100  143.7120 N   0  0  0  0  0  0  0  0  0  0  0  0
  193.3810  173.3320  144.9360 C   0  0  0  0  0  0  0  0  0  0  0  0
  191.5050  172.5100  143.4830 C   0  0  0  0  0  2  0  0  0  0  0  0
  193.6700  174.3860  145.5660 O   0  0  0  0  0  0  0  0  0  0  0  0
  190.4680  173.2260  142.6300 C   0  0  1  0  0  3  0  0  0  0  0  0
  193.8600  172.0140  145.4450 C   0  0  0  0  0  1  0  0  0  0  0  0
  192.3680  174.4420  141.5570 C   0  0  0  0  0  3  0  0  0  0  0  0
  191.1010  173.7910  141.4280 N   0  0  0  0  0  0  0  0  0  0  0  0
  193.0920  174.2780  142.6610 C   0  0  0  0  0  3  0  0  0  0  0  0
  188.9290  173.5960  140.1430 C   0  0  1  0  0  3  0  0  0  0  0  0
  188.3210  173.1260  141.4680 C   0  0  0  0  0  2  0  0  0  0  0  0
  1 17  1  0  0  0  0
  3  7  2  0  0  0  0
  4  1  2  0  0  0  0
  5  3  1  1  0  0  0
  5  6  1  0  0  0  0
  5  9  1  0  0  0  0
  6 10  1  0  0  0  0
  7  4  1  0  0  0  0
  8  2  1  0  0  0  0
  9  1  1  1  0  0  0
  9  8  1  0  0  0  0
 10  8  2  0  0  0  0
 11 12  1  0  0  0  0
 13 12  1  0  0  0  0
 13 18  1  0  0  0  0
 14 13  2  0  0  0  0
 15 11  2  0  0  0  0
 16 14  1  0  0  0  0
 17 16  2  0  0  0  0
 17 15  1  0  0  0  0
 18 20  1  0  0  0  0
 19 20  1  0  0  0  0
 21  7  1  0  0  0  0
 23 33  1  0  0  0  0
 23 31  1  0  0  0  0
 24 25  1  0  0  0  0
 25 29  1  0  0  0  0
 25 27  2  0  0  0  0
 26 24  1  0  0  0  0
 28 22  1  6  0  0  0
 28 26  1  0  0  0  0
 30 32  2  0  0  0  0
 31 30  1  0  0  0  0
 31 28  1  0  0  0  0
 32 24  1  0  0  0  0
 33 21  1  1  0  0  0
 33 34  1  0  0  0  0
 34 22  1  0  0  0  0
M  END
>  <MODEL>
5

>  <REMARK>
 VINA RESULT:      -7.2      2.471      5.667
  Name = 
  5 active torsions:
  status: ('A' for Active; 'I' for Inactive)
    1  A    between atoms: C_1  and  C_34
    2  A    between atoms: O_3  and  C_24
    3  A    between atoms: O_3  and  C_25
    4  A    between atoms: C_17  and  N_18
    5  A    between atoms: N_18  and  C_30
                            x       y       z     vdW  Elec       q    Type
                         _______ _______ _______ _____ _____    ______ ____

>  <TORSDO>
F 5

$$$$
=
 OpenBabel11052420163D

 34 38  0  0  1  0  0  0  0  0999 V2000
  192.0420  174.5300  144.2840 C   0  0  0  0  0  0  0  0  0  0  0  0
  194.7820  173.6630  142.7700 N   0  0  0  0  0  1  0  0  0  0  0  0
  192.7390  176.1010  146.5910 C   0  0  0  0  0  3  0  0  0  0  0  0
  191.1590  174.7680  145.2730 C   0  0  0  0  0  3  0  0  0  0  0  0
  193.7510  175.7100  145.6170 C   0  0  1  0  0  3  0  0  0  0  0  0
  194.9470  175.2640  145.9580 C   0  0  0  0  0  2  0  0  0  0  0  0
  191.4870  175.6510  146.4230 C   0  0  0  0  0  0  0  0  0  0  0  0
  194.5600  174.3610  143.9950 C   0  0  0  0  0  0  0  0  0  0  0  0
  193.3800  175.2510  144.2510 C   0  0  1  0  0  3  0  0  0  0  0  0
  195.4730  174.4520  144.9110 N   0  0  0  0  0  0  0  0  0  0  0  0
  191.6680  171.3070  142.4190 C   0  0  0  0  0  3  0  0  0  0  0  0
  192.0430  171.6180  141.0010 C   0  0  0  0  0  2  0  0  0  0  0  0
  191.0260  172.5010  140.3250 C   0  0  0  0  0  0  0  0  0  0  0  0
  190.7300  173.7170  140.7920 C   0  0  0  0  0  3  0  0  0  0  0  0
  191.5310  172.2340  143.3680 C   0  0  0  0  0  3  0  0  0  0  0  0
  191.2340  174.3220  142.0420 C   0  0  0  0  0  3  0  0  0  0  0  0
  191.6330  173.6950  143.1530 C   0  0  0  0  0  0  0  0  0  0  0  0
  190.4240  172.1060  139.1250 O   0  0  0  0  0  0  0  0  0  0  0  0
  189.7590  170.0580  138.0010 C   0  0  0  0  0  1  0  0  0  0  0  0
  190.8940  171.0070  138.3490 C   0  0  0  0  0  2  0  0  0  0  0  0
  190.4310  176.0800  147.3050 N   0  0  0  0  0  2  0  0  0  0  0  0
  187.0400  176.8530  145.8610 C   0  0  0  0  0  2  0  0  0  0  0  0
  189.7370  177.8160  145.6860 C   0  0  0  0  0  2  0  0  0  0  0  0
  187.4050  177.5860  142.1670 N   0  0  0  0  0  0  0  0  0  0  0  0
  186.6580  177.4770  140.9450 C   0  0  0  0  0  0  0  0  0  0  0  0
  186.7190  177.5050  143.4550 C   0  0  0  0  0  2  0  0  0  0  0  0
  187.0740  176.7300  140.0180 O   0  0  0  0  0  0  0  0  0  0  0  0
  187.6570  176.8720  144.4740 C   0  0  1  0  0  3  0  0  0  0  0  0
  185.4160  178.2790  140.7450 C   0  0  0  0  0  1  0  0  0  0  0  0
  189.5390  177.9310  143.2190 C   0  0  0  0  0  3  0  0  0  0  0  0
  188.9530  177.5660  144.4720 N   0  0  0  0  0  0  0  0  0  0  0  0
  188.8030  177.9180  142.1110 C   0  0  0  0  0  3  0  0  0  0  0  0
  189.3280  176.9590  146.9010 C   0  0  1  0  0  3  0  0  0  0  0  0
  188.0240  176.1620  146.7820 C   0  0  0  0  0  2  0  0  0  0  0  0
  1  4  2  0  0  0  0
  2  8  1  0  0  0  0
  4  7  1  0  0  0  0
  5  6  1  1  0  0  0
  5  3  1  0  0  0  0
  7  3  2  0  0  0  0
  7 21  1  0  0  0  0
  8 10  2  0  0  0  0
  9  8  1  1  0  0  0
  9  1  1  0  0  0  0
  9  5  1  0  0  0  0
 10  6  1  0  0  0  0
 11 15  2  0  0  0  0
 12 11  1  0  0  0  0
 13 14  2  0  0  0  0
 13 12  1  0  0  0  0
 14 16  1  0  0  0  0
 16 17  2  0  0  0  0
 17 15  1  0  0  0  0
 17  1  1  0  0  0  0
 18 13  1  0  0  0  0
 19 20  1  0  0  0  0
 20 18  1  0  0  0  0
 22 34  1  0  0  0  0
 23 33  1  0  0  0  0
 24 26  1  0  0  0  0
 25 24  1  0  0  0  0
 27 25  2  0  0  0  0
 28 26  1  6  0  0  0
 28 22  1  0  0  0  0
 29 25  1  0  0  0  0
 30 31  1  0  0  0  0
 31 28  1  0  0  0  0
 31 23  1  0  0  0  0
 32 24  1  0  0  0  0
 32 30  2  0  0  0  0
 33 21  1  6  0  0  0
 34 33  1  0  0  0  0
M  END
>  <MODEL>
6

>  <REMARK>
 VINA RESULT:      -7.2      2.108      6.409
  Name = 
  5 active torsions:
  status: ('A' for Active; 'I' for Inactive)
    1  A    between atoms: C_1  and  C_34
    2  A    between atoms: O_3  and  C_24
    3  A    between atoms: O_3  and  C_25
    4  A    between atoms: C_17  and  N_18
    5  A    between atoms: N_18  and  C_30
                            x       y       z     vdW  Elec       q    Type
                         _______ _______ _______ _____ _____    ______ ____

>  <TORSDO>
F 5

$$$$
=
 OpenBabel11052420163D

 34 38  0  0  1  0  0  0  0  0999 V2000
  192.2430  174.4720  144.5740 C   0  0  0  0  0  0  0  0  0  0  0  0
  192.9080  172.0540  142.5090 N   0  0  0  0  0  1  0  0  0  0  0  0
  189.7100  173.9250  145.8230 C   0  0  0  0  0  3  0  0  0  0  0  0
  191.5570  175.4250  145.2330 C   0  0  0  0  0  3  0  0  0  0  0  0
  190.3550  172.9330  144.9720 C   0  0  1  0  0  3  0  0  0  0  0  0
  189.7010  172.2200  144.0710 C   0  0  0  0  0  2  0  0  0  0  0  0
  190.2920  175.1270  145.9540 C   0  0  0  0  0  0  0  0  0  0  0  0
  191.7570  172.3240  143.3080 C   0  0  0  0  0  0  0  0  0  0  0  0
  191.8020  173.0180  144.6370 C   0  0  1  0  0  3  0  0  0  0  0  0
  190.6010  171.7990  143.0490 N   0  0  0  0  0  0  0  0  0  0  0  0
  195.9620  174.8590  144.4180 C   0  0  0  0  0  3  0  0  0  0  0  0
  196.2000  176.1860  143.7620 C   0  0  0  0  0  2  0  0  0  0  0  0
  195.8160  176.1760  142.3050 C   0  0  0  0  0  0  0  0  0  0  0  0
  194.5700  175.9070  141.9090 C   0  0  0  0  0  3  0  0  0  0  0  0
  194.7600  174.2910  144.5220 C   0  0  0  0  0  3  0  0  0  0  0  0
  193.4480  175.4830  142.7720 C   0  0  0  0  0  3  0  0  0  0  0  0
  193.5110  174.8250  143.9330 C   0  0  0  0  0  0  0  0  0  0  0  0
  196.7410  176.5430  141.3210 O   0  0  0  0  0  0  0  0  0  0  0  0
  197.8290  174.4270  140.8280 C   0  0  0  0  0  1  0  0  0  0  0  0
  197.1450  175.6660  140.2730 C   0  0  0  0  0  2  0  0  0  0  0  0
  189.7450  176.1100  146.8540 N   0  0  0  0  0  2  0  0  0  0  0  0
  186.3800  177.2120  145.5720 C   0  0  0  0  0  2  0  0  0  0  0  0
  189.1510  177.8570  145.2080 C   0  0  0  0  0  2  0  0  0  0  0  0
  186.6010  177.7730  141.8360 N   0  0  0  0  0  0  0  0  0  0  0  0
  185.7750  177.7070  140.6640 C   0  0  0  0  0  0  0  0  0  0  0  0
  185.9900  177.8130  143.1630 C   0  0  0  0  0  2  0  0  0  0  0  0
  186.0490  176.8870  139.7460 O   0  0  0  0  0  0  0  0  0  0  0  0
  186.9110  177.1140  144.1530 C   0  0  1  0  0  3  0  0  0  0  0  0
  184.6200  178.6370  140.5020 C   0  0  0  0  0  1  0  0  0  0  0  0
  188.8200  177.9100  142.7530 C   0  0  0  0  0  3  0  0  0  0  0  0
  188.2730  177.6570  144.0510 N   0  0  0  0  0  0  0  0  0  0  0  0
  188.0220  177.9420  141.6890 C   0  0  0  0  0  3  0  0  0  0  0  0
  188.7240  177.0940  146.4780 C   0  0  1  0  0  3  0  0  0  0  0  0
  187.3360  176.4460  146.4640 C   0  0  0  0  0  2  0  0  0  0  0  0
  1  9  1  0  0  0  0
  1  4  2  0  0  0  0
  2  8  1  0  0  0  0
  3  7  2  0  0  0  0
  4  7  1  0  0  0  0
  5  6  1  6  0  0  0
  5  3  1  0  0  0  0
  7 21  1  0  0  0  0
  9  8  1  6  0  0  0
  9  5  1  0  0  0  0
 10  8  2  0  0  0  0
 10  6  1  0  0  0  0
 11 15  2  0  0  0  0
 12 11  1  0  0  0  0
 13 12  1  0  0  0  0
 14 13  2  0  0  0  0
 14 16  1  0  0  0  0
 16 17  2  0  0  0  0
 17 15  1  0  0  0  0
 17  1  1  0  0  0  0
 18 13  1  0  0  0  0
 20 19  1  0  0  0  0
 20 18  1  0  0  0  0
 22 34  1  0  0  0  0
 23 33  1  0  0  0  0
 24 26  1  0  0  0  0
 25 24  1  0  0  0  0
 27 25  2  0  0  0  0
 28 26  1  6  0  0  0
 28 22  1  0  0  0  0
 29 25  1  0  0  0  0
 30 31  1  0  0  0  0
 31 28  1  0  0  0  0
 31 23  1  0  0  0  0
 32 24  1  0  0  0  0
 32 30  2  0  0  0  0
 33 21  1  6  0  0  0
 34 33  1  0  0  0  0
M  END
>  <MODEL>
7

>  <REMARK>
 VINA RESULT:      -7.2      2.980      7.168
  Name = 
  5 active torsions:
  status: ('A' for Active; 'I' for Inactive)
    1  A    between atoms: C_1  and  C_34
    2  A    between atoms: O_3  and  C_24
    3  A    between atoms: O_3  and  C_25
    4  A    between atoms: C_17  and  N_18
    5  A    between atoms: N_18  and  C_30
                            x       y       z     vdW  Elec       q    Type
                         _______ _______ _______ _____ _____    ______ ____

>  <TORSDO>
F 5

$$$$
=
 OpenBabel11052420163D

 34 38  0  0  1  0  0  0  0  0999 V2000
  191.9470  174.1330  145.4510 C   0  0  0  0  0  0  0  0  0  0  0  0
  192.8710  176.9130  146.8560 N   0  0  0  0  0  1  0  0  0  0  0  0
  194.2950  172.5520  144.9410 C   0  0  0  0  0  3  0  0  0  0  0  0
  191.9260  173.0830  144.6080 C   0  0  0  0  0  3  0  0  0  0  0  0
  194.3750  173.7820  145.7200 C   0  0  1  0  0  3  0  0  0  0  0  0
  195.3350  174.6770  145.5590 C   0  0  0  0  0  2  0  0  0  0  0  0
  193.1130  172.2110  144.4080 C   0  0  0  0  0  0  0  0  0  0  0  0
  193.6280  175.8270  146.3220 C   0  0  0  0  0  0  0  0  0  0  0  0
  193.1640  174.4010  146.3230 C   0  0  1  0  0  3  0  0  0  0  0  0
  194.8730  175.9560  145.9860 N   0  0  0  0  0  0  0  0  0  0  0  0
  189.6080  176.9730  144.7670 C   0  0  0  0  0  3  0  0  0  0  0  0
  189.1460  177.4460  146.1130 C   0  0  0  0  0  2  0  0  0  0  0  0
  188.2470  176.4440  146.7890 C   0  0  0  0  0  0  0  0  0  0  0  0
  188.6610  175.2070  147.0730 C   0  0  0  0  0  3  0  0  0  0  0  0
  190.3400  175.8750  144.5800 C   0  0  0  0  0  3  0  0  0  0  0  0
  189.9570  174.6070  146.6900 C   0  0  0  0  0  3  0  0  0  0  0  0
  190.7250  174.9160  145.6420 C   0  0  0  0  0  0  0  0  0  0  0  0
  186.9700  176.8130  147.2270 O   0  0  0  0  0  0  0  0  0  0  0  0
  184.7930  177.4050  146.3220 C   0  0  0  0  0  1  0  0  0  0  0  0
  186.2150  177.8560  146.6170 C   0  0  0  0  0  2  0  0  0  0  0  0
  192.9580  170.9610  143.7080 N   0  0  0  0  0  2  0  0  0  0  0  0
  192.3070  172.1780  140.2050 C   0  0  0  0  0  2  0  0  0  0  0  0
  190.9240  170.8040  142.3100 C   0  0  0  0  0  2  0  0  0  0  0  0
  188.8530  173.7160  140.0500 N   0  0  0  0  0  0  0  0  0  0  0  0
  188.1330  174.7310  139.3350 C   0  0  0  0  0  0  0  0  0  0  0  0
  190.1160  173.2030  139.5230 C   0  0  0  0  0  2  0  0  0  0  0  0
  187.6730  175.7300  139.9520 O   0  0  0  0  0  0  0  0  0  0  0  0
  191.0160  172.8150  140.6870 C   0  0  1  0  0  3  0  0  0  0  0  0
  187.8820  174.5890  137.8710 C   0  0  0  0  0  1  0  0  0  0  0  0
  188.9370  172.2370  141.9440 C   0  0  0  0  0  3  0  0  0  0  0  0
  190.2950  171.9320  141.6150 N   0  0  0  0  0  0  0  0  0  0  0  0
  188.2540  173.1100  141.2080 C   0  0  0  0  0  3  0  0  0  0  0  0
  192.4660  170.8440  142.3310 C   0  0  1  0  0  3  0  0  0  0  0  0
  193.1470  171.8780  141.4290 C   0  0  0  0  0  2  0  0  0  0  0  0
  1 17  1  0  0  0  0
  4  1  2  0  0  0  0
  5  3  1  6  0  0  0
  5  9  1  0  0  0  0
  6  5  1  0  0  0  0
  6 10  1  0  0  0  0
  7  4  1  0  0  0  0
  7  3  2  0  0  0  0
  8  9  1  0  0  0  0
  8  2  1  0  0  0  0
  9  1  1  6  0  0  0
 10  8  2  0  0  0  0
 11 12  1  0  0  0  0
 12 13  1  0  0  0  0
 13 14  2  0  0  0  0
 13 18  1  0  0  0  0
 15 11  2  0  0  0  0
 15 17  1  0  0  0  0
 16 14  1  0  0  0  0
 17 16  2  0  0  0  0
 19 20  1  0  0  0  0
 20 18  1  0  0  0  0
 21  7  1  0  0  0  0
 22 28  1  0  0  0  0
 22 34  1  0  0  0  0
 23 33  1  0  0  0  0
 24 32  1  0  0  0  0
 25 27  2  0  0  0  0
 25 24  1  0  0  0  0
 26 24  1  0  0  0  0
 28 26  1  6  0  0  0
 28 31  1  0  0  0  0
 29 25  1  0  0  0  0
 31 30  1  0  0  0  0
 31 23  1  0  0  0  0
 32 30  2  0  0  0  0
 33 21  1  1  0  0  0
 34 33  1  0  0  0  0
M  END
>  <MODEL>
8

>  <REMARK>
 VINA RESULT:      -7.1      2.749      7.023
  Name = 
  5 active torsions:
  status: ('A' for Active; 'I' for Inactive)
    1  A    between atoms: C_1  and  C_34
    2  A    between atoms: O_3  and  C_24
    3  A    between atoms: O_3  and  C_25
    4  A    between atoms: C_17  and  N_18
    5  A    between atoms: N_18  and  C_30
                            x       y       z     vdW  Elec       q    Type
                         _______ _______ _______ _____ _____    ______ ____

>  <TORSDO>
F 5

$$$$
=
 OpenBabel11052420163D

 34 38  0  0  1  0  0  0  0  0999 V2000
  190.7520  176.1150  144.4270 C   0  0  0  0  0  0  0  0  0  0  0  0
  188.4160  177.0770  146.4700 N   0  0  0  0  0  1  0  0  0  0  0  0
  193.1360  175.6030  145.9530 C   0  0  0  0  0  3  0  0  0  0  0  0
  191.9600  176.0070  143.8410 C   0  0  0  0  0  3  0  0  0  0  0  0
  191.8690  175.8870  146.6150 C   0  0  1  0  0  3  0  0  0  0  0  0
  191.7630  176.6970  147.6550 C   0  0  0  0  0  2  0  0  0  0  0  0
  193.1800  175.6560  144.6140 C   0  0  0  0  0  0  0  0  0  0  0  0
  189.7970  176.7860  146.6840 C   0  0  0  0  0  0  0  0  0  0  0  0
  190.5710  175.7700  145.8970 C   0  0  1  0  0  3  0  0  0  0  0  0
  190.4400  177.2230  147.7200 N   0  0  0  0  0  0  0  0  0  0  0  0
  187.7360  175.2280  142.3970 C   0  0  0  0  0  3  0  0  0  0  0  0
  187.8020  176.0980  141.1780 C   0  0  0  0  0  2  0  0  0  0  0  0
  187.5560  177.5480  141.5010 C   0  0  0  0  0  0  0  0  0  0  0  0
  188.3390  178.2220  142.3480 C   0  0  0  0  0  3  0  0  0  0  0  0
  188.5570  175.3520  143.4390 C   0  0  0  0  0  3  0  0  0  0  0  0
  189.4440  177.6620  143.1540 C   0  0  0  0  0  3  0  0  0  0  0  0
  189.5830  176.4080  143.5960 C   0  0  0  0  0  0  0  0  0  0  0  0
  186.5470  178.2640  140.8480 O   0  0  0  0  0  0  0  0  0  0  0  0
  184.7610  177.9180  142.4590 C   0  0  0  0  0  1  0  0  0  0  0  0
  185.1630  177.9580  140.9930 C   0  0  0  0  0  2  0  0  0  0  0  0
  194.3820  175.2960  143.9060 N   0  0  0  0  0  2  0  0  0  0  0  0
  193.7570  174.2340  140.3480 C   0  0  0  0  0  2  0  0  0  0  0  0
  193.4600  173.1870  143.0020 C   0  0  0  0  0  2  0  0  0  0  0  0
  190.4210  172.4570  140.1540 N   0  0  0  0  0  0  0  0  0  0  0  0
  189.3490  172.2300  139.2270 C   0  0  0  0  0  0  0  0  0  0  0  0
  191.7200  172.9250  139.6730 C   0  0  0  0  0  2  0  0  0  0  0  0
  188.1930  172.6660  139.4820 O   0  0  0  0  0  0  0  0  0  0  0  0
  192.3570  173.7980  140.7440 C   0  0  1  0  0  3  0  0  0  0  0  0
  189.5810  171.4390  137.9830 C   0  0  0  0  0  1  0  0  0  0  0  0
  191.1920  172.3710  142.4300 C   0  0  0  0  0  3  0  0  0  0  0  0
  192.3600  173.0980  142.0370 N   0  0  0  0  0  0  0  0  0  0  0  0
  190.2520  172.0840  141.5330 C   0  0  0  0  0  3  0  0  0  0  0  0
  194.4230  174.3690  142.7700 C   0  0  1  0  0  3  0  0  0  0  0  0
  194.2780  175.1340  141.4500 C   0  0  0  0  0  2  0  0  0  0  0  0
  2  8  1  0  0  0  0
  4  1  2  0  0  0  0
  4  7  1  0  0  0  0
  5  3  1  6  0  0  0
  5  6  1  0  0  0  0
  6 10  1  0  0  0  0
  7  3  2  0  0  0  0
  8 10  2  0  0  0  0
  9  1  1  6  0  0  0
  9  5  1  0  0  0  0
  9  8  1  0  0  0  0
 11 15  2  0  0  0  0
 12 13  1  0  0  0  0
 12 11  1  0  0  0  0
 13 14  2  0  0  0  0
 14 16  1  0  0  0  0
 15 17  1  0  0  0  0
 16 17  2  0  0  0  0
 17  1  1  0  0  0  0
 18 20  1  0  0  0  0
 18 13  1  0  0  0  0
 20 19  1  0  0  0  0
 21  7  1  0  0  0  0
 22 28  1  0  0  0  0
 22 34  1  0  0  0  0
 24 32  1  0  0  0  0
 25 27  2  0  0  0  0
 25 24  1  0  0  0  0
 26 24  1  0  0  0  0
 28 26  1  6  0  0  0
 28 31  1  0  0  0  0
 29 25  1  0  0  0  0
 31 30  1  0  0  0  0
 31 23  1  0  0  0  0
 32 30  2  0  0  0  0
 33 23  1  0  0  0  0
 33 21  1  1  0  0  0
 34 33  1  0  0  0  0
M  END
>  <MODEL>
9

>  <REMARK>
 VINA RESULT:      -6.9      2.322      4.851
  Name = 
  5 active torsions:
  status: ('A' for Active; 'I' for Inactive)
    1  A    between atoms: C_1  and  C_34
    2  A    between atoms: O_3  and  C_24
    3  A    between atoms: O_3  and  C_25
    4  A    between atoms: C_17  and  N_18
    5  A    between atoms: N_18  and  C_30
                            x       y       z     vdW  Elec       q    Type
                         _______ _______ _______ _____ _____    ______ ____

>  <TORSDO>
F 5

$$$$
