=
 OpenBabel11052417263D

 25 27  0  0  1  0  0  0  0  0999 V2000
  188.1590  176.0230  146.1420 C   0  0  1  0  0  3  0  0  0  0  0  0
  188.9510  176.5330  144.9600 C   0  0  0  0  0  0  0  0  0  0  0  0
  190.3210  176.0070  147.4330 C   0  0  0  0  0  2  0  0  0  0  0  0
  191.1420  176.0360  146.1500 C   0  0  0  0  0  2  0  0  0  0  0  0
  191.0560  177.1180  143.8830 C   0  0  0  0  0  0  0  0  0  0  0  0
  192.4450  177.1820  143.8820 O   0  0  0  0  0  1  0  0  0  0  0  0
  188.2620  176.9900  143.8310 C   0  0  0  0  0  3  0  0  0  0  0  0
  189.0070  175.2830  147.1820 C   0  0  0  0  0  2  0  0  0  0  0  0
  190.3520  177.5740  142.7650 C   0  0  0  0  0  3  0  0  0  0  0  0
  188.9570  177.5050  142.7350 C   0  0  0  0  0  0  0  0  0  0  0  0
  190.3640  176.6020  144.9910 C   0  0  0  0  0  0  0  0  0  0  0  0
  187.2890  177.0780  146.7720 C   0  0  0  0  0  0  0  0  0  0  0  0
  185.7150  179.2710  147.7560 C   0  0  0  0  0  3  0  0  0  0  0  0
  185.8400  177.2030  146.4840 C   0  0  0  0  0  0  0  0  0  0  0  0
  185.1160  178.3910  146.9530 C   0  0  0  0  0  3  0  0  0  0  0  0
  187.1120  179.0640  148.2820 C   0  0  0  0  0  2  0  0  0  0  0  0
  185.2290  176.3290  145.8190 O   0  0  0  0  0  0  0  0  0  0  0  0
  187.8770  177.9800  147.5640 C   0  0  0  0  0  3  0  0  0  0  0  0
  188.2120  178.0100  141.5500 C   0  0  0  0  0  2  0  0  0  0  0  0
  186.9330  177.2130  141.3590 C   0  0  0  0  0  2  0  0  0  0  0  0
  185.7540  178.1250  141.3940 C   0  0  0  0  0  0  0  0  0  0  0  0
  185.3010  178.5870  140.3140 O   0  0  0  0  0  0  0  0  0  0  0  0
  185.1410  178.5100  142.6730 C   0  0  0  0  0  0  0  0  0  0  0  0
  185.7160  179.5480  143.4590 N   0  0  0  0  0  1  0  0  0  0  0  0
  184.1020  177.9250  143.0820 O   0  0  0  0  0  0  0  0  0  0  0  0
  1 12  1  1  0  0  0
  1  8  1  0  0  0  0
  2 11  1  0  0  0  0
  2  1  1  0  0  0  0
  4  3  1  0  0  0  0
  5 11  2  0  0  0  0
  6  5  1  0  0  0  0
  7  2  2  0  0  0  0
  8  3  1  0  0  0  0
  9  5  1  0  0  0  0
 10  9  2  0  0  0  0
 10  7  1  0  0  0  0
 11  4  1  0  0  0  0
 12 18  2  0  0  0  0
 13 16  1  0  0  0  0
 14 12  1  0  0  0  0
 14 15  1  0  0  0  0
 15 13  2  0  0  0  0
 17 14  2  0  0  0  0
 18 16  1  0  0  0  0
 19 10  1  0  0  0  0
 20 21  1  0  0  0  0
 20 19  1  0  0  0  0
 21 23  1  0  0  0  0
 22 21  2  0  0  0  0
 23 25  2  0  0  0  0
 23 24  1  0  0  0  0
M  END
>  <MODEL>
1

>  <REMARK>
 VINA RESULT:      -7.4      0.000      0.000
  Name = 
  5 active torsions:
  status: ('A' for Active; 'I' for Inactive)
    1  A    between atoms: C_1  and  C_5
    2  A    between atoms: C_2  and  C_21
    3  A    between atoms: C_6  and  C_15
    4  A    between atoms: C_6  and  C_23
    5  A    between atoms: C_15  and  C_21
                            x       y       z     vdW  Elec       q    Type
                         _______ _______ _______ _____ _____    ______ ____

>  <TORSDO>
F 5

$$$$
=
 OpenBabel11052417263D

 25 27  0  0  1  0  0  0  0  0999 V2000
  187.6310  178.0410  143.5870 C   0  0  1  0  0  3  0  0  0  0  0  0
  188.7580  177.0890  143.9140 C   0  0  0  0  0  0  0  0  0  0  0  0
  187.0070  176.4750  141.7170 C   0  0  0  0  0  2  0  0  0  0  0  0
  188.3830  175.8210  141.7430 C   0  0  0  0  0  2  0  0  0  0  0  0
  190.1020  175.1140  143.4360 C   0  0  0  0  0  0  0  0  0  0  0  0
  190.4380  174.0420  142.6180 O   0  0  0  0  0  1  0  0  0  0  0  0
  189.4740  177.2710  145.1030 C   0  0  0  0  0  3  0  0  0  0  0  0
  187.1250  177.9300  142.1450 C   0  0  0  0  0  2  0  0  0  0  0  0
  190.8040  175.3090  144.6280 C   0  0  0  0  0  3  0  0  0  0  0  0
  190.4960  176.3890  145.4580 C   0  0  0  0  0  0  0  0  0  0  0  0
  189.0710  175.9950  143.0720 C   0  0  0  0  0  0  0  0  0  0  0  0
  186.5050  177.9910  144.5850 C   0  0  0  0  0  0  0  0  0  0  0  0
  184.5540  177.9670  146.6950 C   0  0  0  0  0  3  0  0  0  0  0  0
  185.6170  179.1480  144.8550 C   0  0  0  0  0  0  0  0  0  0  0  0
  184.6990  179.0950  145.9990 C   0  0  0  0  0  3  0  0  0  0  0  0
  185.2490  176.6860  146.3100 C   0  0  0  0  0  2  0  0  0  0  0  0
  185.6590  180.1840  144.1420 O   0  0  0  0  0  0  0  0  0  0  0  0
  186.3580  176.8750  145.3040 C   0  0  0  0  0  3  0  0  0  0  0  0
  191.2330  176.5790  146.7370 C   0  0  0  0  0  2  0  0  0  0  0  0
  192.3660  175.5720  146.8400 C   0  0  0  0  0  2  0  0  0  0  0  0
  193.6620  176.2270  146.5000 C   0  0  0  0  0  0  0  0  0  0  0  0
  193.9930  177.2850  147.0990 O   0  0  0  0  0  0  0  0  0  0  0  0
  194.5350  175.6690  145.4580 C   0  0  0  0  0  0  0  0  0  0  0  0
  195.6340  174.8390  145.8160 N   0  0  0  0  0  1  0  0  0  0  0  0
  194.3170  175.9180  144.2430 O   0  0  0  0  0  0  0  0  0  0  0  0
  1  2  1  0  0  0  0
  1 12  1  1  0  0  0
  2  7  1  0  0  0  0
  3  4  1  0  0  0  0
  3  8  1  0  0  0  0
  4 11  1  0  0  0  0
  5  9  2  0  0  0  0
  6  5  1  0  0  0  0
  7 10  2  0  0  0  0
  8  1  1  0  0  0  0
  9 10  1  0  0  0  0
 10 19  1  0  0  0  0
 11  5  1  0  0  0  0
 11  2  2  0  0  0  0
 12 14  1  0  0  0  0
 12 18  2  0  0  0  0
 14 15  1  0  0  0  0
 15 13  2  0  0  0  0
 16 13  1  0  0  0  0
 17 14  2  0  0  0  0
 18 16  1  0  0  0  0
 19 20  1  0  0  0  0
 21 20  1  0  0  0  0
 21 22  2  0  0  0  0
 23 24  1  0  0  0  0
 23 21  1  0  0  0  0
 25 23  2  0  0  0  0
M  END
>  <MODEL>
2

>  <REMARK>
 VINA RESULT:      -7.2      3.067      5.940
  Name = 
  5 active torsions:
  status: ('A' for Active; 'I' for Inactive)
    1  A    between atoms: C_1  and  C_5
    2  A    between atoms: C_2  and  C_21
    3  A    between atoms: C_6  and  C_15
    4  A    between atoms: C_6  and  C_23
    5  A    between atoms: C_15  and  C_21
                            x       y       z     vdW  Elec       q    Type
                         _______ _______ _______ _____ _____    ______ ____

>  <TORSDO>
F 5

$$$$
=
 OpenBabel11052417263D

 25 27  0  0  1  0  0  0  0  0999 V2000
  187.5280  178.2900  143.2620 C   0  0  1  0  0  3  0  0  0  0  0  0
  188.7230  177.3650  143.2090 C   0  0  0  0  0  0  0  0  0  0  0  0
  186.4610  176.8190  141.5190 C   0  0  0  0  0  2  0  0  0  0  0  0
  187.8070  176.2210  141.1320 C   0  0  0  0  0  2  0  0  0  0  0  0
  189.9330  175.4800  142.2510 C   0  0  0  0  0  0  0  0  0  0  0  0
  190.0610  174.4750  141.2990 O   0  0  0  0  0  1  0  0  0  0  0  0
  189.7270  177.5020  144.1740 C   0  0  0  0  0  3  0  0  0  0  0  0
  186.6570  178.2480  142.0030 C   0  0  0  0  0  2  0  0  0  0  0  0
  190.9240  175.6280  143.2240 C   0  0  0  0  0  3  0  0  0  0  0  0
  190.8260  176.6410  144.1820 C   0  0  0  0  0  0  0  0  0  0  0  0
  188.8220  176.3400  142.2380 C   0  0  0  0  0  0  0  0  0  0  0  0
  186.7120  178.1320  144.5170 C   0  0  0  0  0  0  0  0  0  0  0  0
  185.3930  177.9200  147.0620 C   0  0  0  0  0  3  0  0  0  0  0  0
  185.8260  179.1990  145.0400 C   0  0  0  0  0  0  0  0  0  0  0  0
  185.2480  179.0580  146.3820 C   0  0  0  0  0  3  0  0  0  0  0  0
  186.0750  176.7110  146.4750 C   0  0  0  0  0  2  0  0  0  0  0  0
  185.5860  180.2360  144.3690 O   0  0  0  0  0  0  0  0  0  0  0  0
  186.8600  177.0050  145.2200 C   0  0  0  0  0  3  0  0  0  0  0  0
  191.8750  176.7810  145.2280 C   0  0  0  0  0  2  0  0  0  0  0  0
  191.9410  175.5190  146.0720 C   0  0  0  0  0  2  0  0  0  0  0  0
  190.8260  175.5100  147.0630 C   0  0  0  0  0  0  0  0  0  0  0  0
  190.8830  176.2780  148.0590 O   0  0  0  0  0  0  0  0  0  0  0  0
  189.6850  174.5980  146.9010 C   0  0  0  0  0  0  0  0  0  0  0  0
  189.6410  173.6960  145.8010 N   0  0  0  0  0  1  0  0  0  0  0  0
  188.7400  174.6080  147.7340 O   0  0  0  0  0  0  0  0  0  0  0  0
  1 12  1  1  0  0  0
  2  1  1  0  0  0  0
  2  7  1  0  0  0  0
  3  8  1  0  0  0  0
  4  3  1  0  0  0  0
  4 11  1  0  0  0  0
  5  9  2  0  0  0  0
  6  5  1  0  0  0  0
  7 10  2  0  0  0  0
  8  1  1  0  0  0  0
  9 10  1  0  0  0  0
 10 19  1  0  0  0  0
 11  5  1  0  0  0  0
 11  2  2  0  0  0  0
 12 14  1  0  0  0  0
 12 18  2  0  0  0  0
 14 15  1  0  0  0  0
 15 13  2  0  0  0  0
 16 13  1  0  0  0  0
 17 14  2  0  0  0  0
 18 16  1  0  0  0  0
 19 20  1  0  0  0  0
 20 21  1  0  0  0  0
 21 22  2  0  0  0  0
 23 21  1  0  0  0  0
 23 25  2  0  0  0  0
 24 23  1  0  0  0  0
M  END
>  <MODEL>
3

>  <REMARK>
 VINA RESULT:      -7.0      2.520      5.094
  Name = 
  5 active torsions:
  status: ('A' for Active; 'I' for Inactive)
    1  A    between atoms: C_1  and  C_5
    2  A    between atoms: C_2  and  C_21
    3  A    between atoms: C_6  and  C_15
    4  A    between atoms: C_6  and  C_23
    5  A    between atoms: C_15  and  C_21
                            x       y       z     vdW  Elec       q    Type
                         _______ _______ _______ _____ _____    ______ ____

>  <TORSDO>
F 5

$$$$
=
 OpenBabel11052417263D

 25 27  0  0  1  0  0  0  0  0999 V2000
  187.3650  176.5010  145.6430 C   0  0  1  0  0  3  0  0  0  0  0  0
  188.3520  176.2120  144.5360 C   0  0  0  0  0  0  0  0  0  0  0  0
  189.2650  177.5770  146.8970 C   0  0  0  0  0  2  0  0  0  0  0  0
  190.2990  176.8640  146.0360 C   0  0  0  0  0  2  0  0  0  0  0  0
  190.6140  176.2010  143.6320 C   0  0  0  0  0  0  0  0  0  0  0  0
  191.9810  176.4110  143.7730 O   0  0  0  0  0  1  0  0  0  0  0  0
  187.8730  175.7450  143.3070 C   0  0  0  0  0  3  0  0  0  0  0  0
  188.0160  176.7150  147.0130 C   0  0  0  0  0  2  0  0  0  0  0  0
  190.1180  175.7380  142.4100 C   0  0  0  0  0  3  0  0  0  0  0  0
  188.7510  175.5040  142.2480 C   0  0  0  0  0  0  0  0  0  0  0  0
  189.7380  176.4480  144.7010 C   0  0  0  0  0  0  0  0  0  0  0  0
  186.3970  177.6020  145.3000 C   0  0  0  0  0  0  0  0  0  0  0  0
  184.4620  179.5360  144.4200 C   0  0  0  0  0  3  0  0  0  0  0  0
  185.0500  177.7070  145.9100 C   0  0  0  0  0  0  0  0  0  0  0  0
  184.0850  178.6660  145.3570 C   0  0  0  0  0  3  0  0  0  0  0  0
  185.8870  179.6380  143.9390 C   0  0  0  0  0  2  0  0  0  0  0  0
  184.7080  176.9700  146.8700 O   0  0  0  0  0  0  0  0  0  0  0  0
  186.7510  178.4710  144.3490 C   0  0  0  0  0  3  0  0  0  0  0  0
  188.2270  175.0310  140.9380 C   0  0  0  0  0  2  0  0  0  0  0  0
  188.7570  173.6400  140.6350 C   0  0  0  0  0  2  0  0  0  0  0  0
  188.3190  172.6860  141.6950 C   0  0  0  0  0  0  0  0  0  0  0  0
  187.0900  172.5560  141.9350 O   0  0  0  0  0  0  0  0  0  0  0  0
  189.3050  171.9250  142.4740 C   0  0  0  0  0  0  0  0  0  0  0  0
  189.3170  172.0160  143.8950 N   0  0  0  0  0  1  0  0  0  0  0  0
  190.1440  171.1880  141.8930 O   0  0  0  0  0  0  0  0  0  0  0  0
  1 12  1  6  0  0  0
  1  8  1  0  0  0  0
  2 11  1  0  0  0  0
  2  1  1  0  0  0  0
  3  8  1  0  0  0  0
  4  3  1  0  0  0  0
  5  6  1  0  0  0  0
  5 11  2  0  0  0  0
  7  2  2  0  0  0  0
  9  5  1  0  0  0  0
 10  9  2  0  0  0  0
 10  7  1  0  0  0  0
 11  4  1  0  0  0  0
 12 14  1  0  0  0  0
 13 15  2  0  0  0  0
 14 17  2  0  0  0  0
 15 14  1  0  0  0  0
 16 18  1  0  0  0  0
 16 13  1  0  0  0  0
 18 12  2  0  0  0  0
 19 10  1  0  0  0  0
 20 19  1  0  0  0  0
 20 21  1  0  0  0  0
 21 22  2  0  0  0  0
 21 23  1  0  0  0  0
 23 24  1  0  0  0  0
 25 23  2  0  0  0  0
M  END
>  <MODEL>
4

>  <REMARK>
 VINA RESULT:      -6.6      3.230      3.979
  Name = 
  5 active torsions:
  status: ('A' for Active; 'I' for Inactive)
    1  A    between atoms: C_1  and  C_5
    2  A    between atoms: C_2  and  C_21
    3  A    between atoms: C_6  and  C_15
    4  A    between atoms: C_6  and  C_23
    5  A    between atoms: C_15  and  C_21
                            x       y       z     vdW  Elec       q    Type
                         _______ _______ _______ _____ _____    ______ ____

>  <TORSDO>
F 5

$$$$
=
 OpenBabel11052417263D

 25 27  0  0  1  0  0  0  0  0999 V2000
  189.7020  173.9010  144.9220 C   0  0  1  0  0  3  0  0  0  0  0  0
  189.1010  174.6480  143.7540 C   0  0  0  0  0  0  0  0  0  0  0  0
  190.6930  172.3080  143.2430 C   0  0  0  0  0  2  0  0  0  0  0  0
  189.7130  172.7580  142.1680 C   0  0  0  0  0  2  0  0  0  0  0  0
  188.6290  174.8830  141.3750 C   0  0  0  0  0  0  0  0  0  0  0  0
  188.6670  174.3950  140.0750 O   0  0  0  0  0  1  0  0  0  0  0  0
  188.5110  175.8970  143.9800 C   0  0  0  0  0  3  0  0  0  0  0  0
  190.0440  172.4400  144.6130 C   0  0  0  0  0  2  0  0  0  0  0  0
  188.0470  176.1290  141.6190 C   0  0  0  0  0  3  0  0  0  0  0  0
  187.9810  176.6340  142.9200 C   0  0  0  0  0  0  0  0  0  0  0  0
  189.1670  174.1360  142.4360 C   0  0  0  0  0  0  0  0  0  0  0  0
  190.8550  174.6280  145.5600 C   0  0  0  0  0  0  0  0  0  0  0  0
  192.9580  176.2580  146.6460 C   0  0  0  0  0  3  0  0  0  0  0  0
  190.7950  175.1860  146.9330 C   0  0  0  0  0  0  0  0  0  0  0  0
  191.8680  176.0750  147.3930 C   0  0  0  0  0  3  0  0  0  0  0  0
  193.1830  175.5190  145.3520 C   0  0  0  0  0  2  0  0  0  0  0  0
  189.8270  174.9380  147.6960 O   0  0  0  0  0  0  0  0  0  0  0  0
  191.9480  174.8360  144.8190 C   0  0  0  0  0  3  0  0  0  0  0  0
  187.3780  177.9720  143.1700 C   0  0  0  0  0  2  0  0  0  0  0  0
  185.9410  177.8170  143.6360 C   0  0  0  0  0  2  0  0  0  0  0  0
  185.6160  178.8670  144.6430 C   0  0  0  0  0  0  0  0  0  0  0  0
  185.5620  180.0720  144.2810 O   0  0  0  0  0  0  0  0  0  0  0  0
  185.3880  178.5120  146.0510 C   0  0  0  0  0  0  0  0  0  0  0  0
  184.8240  177.2500  146.3880 N   0  0  0  0  0  1  0  0  0  0  0  0
  185.6910  179.3210  146.9690 O   0  0  0  0  0  0  0  0  0  0  0  0
  1 12  1  6  0  0  0
  2  7  1  0  0  0  0
  2  1  1  0  0  0  0
  3  8  1  0  0  0  0
  4 11  1  0  0  0  0
  4  3  1  0  0  0  0
  5  9  2  0  0  0  0
  5 11  1  0  0  0  0
  6  5  1  0  0  0  0
  8  1  1  0  0  0  0
  9 10  1  0  0  0  0
 10 19  1  0  0  0  0
 10  7  2  0  0  0  0
 11  2  2  0  0  0  0
 12 14  1  0  0  0  0
 13 15  2  0  0  0  0
 14 15  1  0  0  0  0
 14 17  2  0  0  0  0
 16 13  1  0  0  0  0
 18 16  1  0  0  0  0
 18 12  2  0  0  0  0
 19 20  1  0  0  0  0
 20 21  1  0  0  0  0
 21 23  1  0  0  0  0
 22 21  2  0  0  0  0
 23 24  1  0  0  0  0
 23 25  2  0  0  0  0
M  END
>  <MODEL>
5

>  <REMARK>
 VINA RESULT:      -6.5      2.917      4.626
  Name = 
  5 active torsions:
  status: ('A' for Active; 'I' for Inactive)
    1  A    between atoms: C_1  and  C_5
    2  A    between atoms: C_2  and  C_21
    3  A    between atoms: C_6  and  C_15
    4  A    between atoms: C_6  and  C_23
    5  A    between atoms: C_15  and  C_21
                            x       y       z     vdW  Elec       q    Type
                         _______ _______ _______ _____ _____    ______ ____

>  <TORSDO>
F 5

$$$$
=
 OpenBabel11052417263D

 25 27  0  0  1  0  0  0  0  0999 V2000
  187.3920  176.4630  145.6110 C   0  0  1  0  0  3  0  0  0  0  0  0
  188.3600  176.1990  144.4810 C   0  0  0  0  0  0  0  0  0  0  0  0
  189.3060  177.5390  146.8430 C   0  0  0  0  0  2  0  0  0  0  0  0
  190.3300  176.8490  145.9510 C   0  0  0  0  0  2  0  0  0  0  0  0
  190.6040  176.2220  143.5320 C   0  0  0  0  0  0  0  0  0  0  0  0
  191.9710  176.4430  143.6500 O   0  0  0  0  0  1  0  0  0  0  0  0
  187.8610  175.7440  143.2550 C   0  0  0  0  0  3  0  0  0  0  0  0
  188.0680  176.6650  146.9710 C   0  0  0  0  0  2  0  0  0  0  0  0
  190.0880  175.7720  142.3150 C   0  0  0  0  0  3  0  0  0  0  0  0
  188.7200  175.5270  142.1760 C   0  0  0  0  0  0  0  0  0  0  0  0
  189.7470  176.4470  144.6220 C   0  0  0  0  0  0  0  0  0  0  0  0
  186.4070  177.5590  145.3030 C   0  0  0  0  0  0  0  0  0  0  0  0
  184.4550  179.4980  144.4740 C   0  0  0  0  0  3  0  0  0  0  0  0
  185.0330  177.5860  145.8590 C   0  0  0  0  0  0  0  0  0  0  0  0
  184.0640  178.5540  145.3310 C   0  0  0  0  0  3  0  0  0  0  0  0
  185.8950  179.6720  144.0650 C   0  0  0  0  0  2  0  0  0  0  0  0
  184.6720  176.7730  146.7490 O   0  0  0  0  0  0  0  0  0  0  0  0
  186.7760  178.5020  144.4310 C   0  0  0  0  0  3  0  0  0  0  0  0
  188.1740  175.0670  140.8700 C   0  0  0  0  0  2  0  0  0  0  0  0
  189.1320  174.0820  140.2230 C   0  0  0  0  0  2  0  0  0  0  0  0
  188.4990  173.4750  139.0160 C   0  0  0  0  0  0  0  0  0  0  0  0
  187.9820  172.3300  139.1030 O   0  0  0  0  0  0  0  0  0  0  0  0
  188.5010  174.1850  137.7300 C   0  0  0  0  0  0  0  0  0  0  0  0
  189.5550  173.9730  136.7980 N   0  0  0  0  0  1  0  0  0  0  0  0
  187.5700  174.9840  137.4430 O   0  0  0  0  0  0  0  0  0  0  0  0
  1 12  1  6  0  0  0
  1  8  1  0  0  0  0
  2 11  1  0  0  0  0
  2  1  1  0  0  0  0
  3  8  1  0  0  0  0
  4  3  1  0  0  0  0
  5  6  1  0  0  0  0
  5 11  2  0  0  0  0
  7  2  2  0  0  0  0
  9  5  1  0  0  0  0
 10  9  2  0  0  0  0
 10  7  1  0  0  0  0
 11  4  1  0  0  0  0
 12 14  1  0  0  0  0
 13 15  2  0  0  0  0
 14 17  2  0  0  0  0
 15 14  1  0  0  0  0
 16 18  1  0  0  0  0
 16 13  1  0  0  0  0
 18 12  2  0  0  0  0
 19 10  1  0  0  0  0
 20 19  1  0  0  0  0
 21 22  2  0  0  0  0
 21 20  1  0  0  0  0
 23 21  1  0  0  0  0
 24 23  1  0  0  0  0
 25 23  2  0  0  0  0
M  END
>  <MODEL>
6

>  <REMARK>
 VINA RESULT:      -6.5      3.308      3.897
  Name = 
  5 active torsions:
  status: ('A' for Active; 'I' for Inactive)
    1  A    between atoms: C_1  and  C_5
    2  A    between atoms: C_2  and  C_21
    3  A    between atoms: C_6  and  C_15
    4  A    between atoms: C_6  and  C_23
    5  A    between atoms: C_15  and  C_21
                            x       y       z     vdW  Elec       q    Type
                         _______ _______ _______ _____ _____    ______ ____

>  <TORSDO>
F 5

$$$$
=
 OpenBabel11052417263D

 25 27  0  0  1  0  0  0  0  0999 V2000
  189.0100  174.5970  143.6440 C   0  0  1  0  0  3  0  0  0  0  0  0
  188.1180  175.6870  143.0970 C   0  0  0  0  0  0  0  0  0  0  0  0
  189.7270  174.1540  141.2710 C   0  0  0  0  0  2  0  0  0  0  0  0
  188.5070  174.8790  140.7180 C   0  0  0  0  0  2  0  0  0  0  0  0
  187.1250  176.9130  141.2400 C   0  0  0  0  0  0  0  0  0  0  0  0
  186.9160  177.0970  139.8780 O   0  0  0  0  0  1  0  0  0  0  0  0
  187.5020  176.5700  143.9910 C   0  0  0  0  0  3  0  0  0  0  0  0
  189.3830  173.5260  142.6140 C   0  0  0  0  0  2  0  0  0  0  0  0
  186.5210  177.7870  142.1470 C   0  0  0  0  0  3  0  0  0  0  0  0
  186.7030  177.6140  143.5220 C   0  0  0  0  0  0  0  0  0  0  0  0
  187.9330  175.8620  141.7040 C   0  0  0  0  0  0  0  0  0  0  0  0
  190.2190  175.1280  144.3670 C   0  0  0  0  0  0  0  0  0  0  0  0
  192.3850  176.3990  145.7640 C   0  0  0  0  0  3  0  0  0  0  0  0
  190.4070  174.9880  145.8310 C   0  0  0  0  0  0  0  0  0  0  0  0
  191.4890  175.7300  146.4900 C   0  0  0  0  0  3  0  0  0  0  0  0
  192.3870  176.3700  144.2570 C   0  0  0  0  0  2  0  0  0  0  0  0
  189.6370  174.2740  146.5230 O   0  0  0  0  0  0  0  0  0  0  0  0
  191.1180  175.8170  143.6580 C   0  0  0  0  0  3  0  0  0  0  0  0
  186.0730  178.5600  144.4810 C   0  0  0  0  0  2  0  0  0  0  0  0
  184.9080  177.8890  145.1880 C   0  0  0  0  0  2  0  0  0  0  0  0
  185.0170  178.0970  146.6610 C   0  0  0  0  0  0  0  0  0  0  0  0
  184.0400  178.5860  147.2870 O   0  0  0  0  0  0  0  0  0  0  0  0
  186.2580  177.7660  147.3760 C   0  0  0  0  0  0  0  0  0  0  0  0
  186.9410  178.7670  148.1230 N   0  0  0  0  0  1  0  0  0  0  0  0
  186.7240  176.5960  147.3340 O   0  0  0  0  0  0  0  0  0  0  0  0
  1 12  1  6  0  0  0
  2  1  1  0  0  0  0
  2  7  1  0  0  0  0
  3  8  1  0  0  0  0
  4  3  1  0  0  0  0
  4 11  1  0  0  0  0
  5 11  1  0  0  0  0
  5  9  2  0  0  0  0
  6  5  1  0  0  0  0
  8  1  1  0  0  0  0
  9 10  1  0  0  0  0
 10  7  2  0  0  0  0
 10 19  1  0  0  0  0
 11  2  2  0  0  0  0
 12 14  1  0  0  0  0
 13 15  2  0  0  0  0
 14 15  1  0  0  0  0
 14 17  2  0  0  0  0
 16 13  1  0  0  0  0
 18 16  1  0  0  0  0
 18 12  2  0  0  0  0
 19 20  1  0  0  0  0
 20 21  1  0  0  0  0
 21 22  2  0  0  0  0
 21 23  1  0  0  0  0
 23 24  1  0  0  0  0
 25 23  2  0  0  0  0
M  END
>  <MODEL>
7

>  <REMARK>
 VINA RESULT:      -6.5      2.345      5.161
  Name = 
  5 active torsions:
  status: ('A' for Active; 'I' for Inactive)
    1  A    between atoms: C_1  and  C_5
    2  A    between atoms: C_2  and  C_21
    3  A    between atoms: C_6  and  C_15
    4  A    between atoms: C_6  and  C_23
    5  A    between atoms: C_15  and  C_21
                            x       y       z     vdW  Elec       q    Type
                         _______ _______ _______ _____ _____    ______ ____

>  <TORSDO>
F 5

$$$$
=
 OpenBabel11052417263D

 25 27  0  0  1  0  0  0  0  0999 V2000
  189.7430  175.0610  146.5150 C   0  0  1  0  0  3  0  0  0  0  0  0
  190.4960  174.1510  145.5720 C   0  0  0  0  0  0  0  0  0  0  0  0
  191.9640  176.0920  147.1050 C   0  0  0  0  0  2  0  0  0  0  0  0
  192.7210  174.8890  146.5560 C   0  0  0  0  0  2  0  0  0  0  0  0
  192.5670  173.2860  144.6260 C   0  0  0  0  0  0  0  0  0  0  0  0
  193.9560  173.2260  144.5910 O   0  0  0  0  0  1  0  0  0  0  0  0
  189.7710  173.3590  144.6740 C   0  0  0  0  0  3  0  0  0  0  0  0
  190.6100  175.6440  147.6350 C   0  0  0  0  0  2  0  0  0  0  0  0
  191.8280  172.5050  143.7340 C   0  0  0  0  0  3  0  0  0  0  0  0
  190.4320  172.5350  143.7610 C   0  0  0  0  0  0  0  0  0  0  0  0
  191.9110  174.1200  145.5460 C   0  0  0  0  0  0  0  0  0  0  0  0
  188.9500  176.1250  145.8050 C   0  0  0  0  0  0  0  0  0  0  0  0
  187.3360  177.9420  144.2700 C   0  0  0  0  0  3  0  0  0  0  0  0
  187.6040  176.5580  146.2510 C   0  0  0  0  0  0  0  0  0  0  0  0
  186.8040  177.4260  145.3790 C   0  0  0  0  0  3  0  0  0  0  0  0
  188.7810  177.7340  143.8970 C   0  0  0  0  0  2  0  0  0  0  0  0
  187.1230  176.1690  147.3470 O   0  0  0  0  0  0  0  0  0  0  0  0
  189.4610  176.6390  144.6820 C   0  0  0  0  0  3  0  0  0  0  0  0
  189.6500  171.7170  142.7950 C   0  0  0  0  0  2  0  0  0  0  0  0
  188.3630  172.4340  142.4250 C   0  0  0  0  0  2  0  0  0  0  0  0
  188.5650  173.2330  141.1810 C   0  0  0  0  0  0  0  0  0  0  0  0
  188.4670  172.6640  140.0620 O   0  0  0  0  0  0  0  0  0  0  0  0
  188.9030  174.6610  141.2530 C   0  0  0  0  0  0  0  0  0  0  0  0
  187.9190  175.6440  140.9550 N   0  0  0  0  0  1  0  0  0  0  0  0
  190.0640  175.0240  141.5800 O   0  0  0  0  0  0  0  0  0  0  0  0
  1 12  1  6  0  0  0
  1  8  1  0  0  0  0
  2  1  1  0  0  0  0
  3  8  1  0  0  0  0
  4  3  1  0  0  0  0
  5 11  2  0  0  0  0
  6  5  1  0  0  0  0
  7  2  2  0  0  0  0
  9 10  2  0  0  0  0
  9  5  1  0  0  0  0
 10  7  1  0  0  0  0
 11  2  1  0  0  0  0
 11  4  1  0  0  0  0
 12 14  1  0  0  0  0
 13 15  2  0  0  0  0
 14 17  2  0  0  0  0
 15 14  1  0  0  0  0
 16 13  1  0  0  0  0
 16 18  1  0  0  0  0
 18 12  2  0  0  0  0
 19 10  1  0  0  0  0
 20 19  1  0  0  0  0
 21 23  1  0  0  0  0
 21 20  1  0  0  0  0
 22 21  2  0  0  0  0
 23 25  2  0  0  0  0
 24 23  1  0  0  0  0
M  END
>  <MODEL>
8

>  <REMARK>
 VINA RESULT:      -6.4      3.306      4.302
  Name = 
  5 active torsions:
  status: ('A' for Active; 'I' for Inactive)
    1  A    between atoms: C_1  and  C_5
    2  A    between atoms: C_2  and  C_21
    3  A    between atoms: C_6  and  C_15
    4  A    between atoms: C_6  and  C_23
    5  A    between atoms: C_15  and  C_21
                            x       y       z     vdW  Elec       q    Type
                         _______ _______ _______ _____ _____    ______ ____

>  <TORSDO>
F 5

$$$$
=
 OpenBabel11052417263D

 25 27  0  0  1  0  0  0  0  0999 V2000
  187.6460  175.8520  142.3710 C   0  0  1  0  0  3  0  0  0  0  0  0
  186.4670  176.7430  142.6860 C   0  0  0  0  0  0  0  0  0  0  0  0
  187.5080  176.7040  140.0050 C   0  0  0  0  0  2  0  0  0  0  0  0
  186.0780  177.1870  140.2130 C   0  0  0  0  0  2  0  0  0  0  0  0
  184.7000  178.2780  142.0100 C   0  0  0  0  0  0  0  0  0  0  0  0
  183.9860  178.9520  141.0260 O   0  0  0  0  0  1  0  0  0  0  0  0
  186.0960  176.9270  144.0230 C   0  0  0  0  0  3  0  0  0  0  0  0
  187.7700  175.4920  140.8870 C   0  0  0  0  0  2  0  0  0  0  0  0
  184.3460  178.4520  143.3500 C   0  0  0  0  0  3  0  0  0  0  0  0
  185.0370  177.7730  144.3560 C   0  0  0  0  0  0  0  0  0  0  0  0
  185.7650  177.4300  141.6660 C   0  0  0  0  0  0  0  0  0  0  0  0
  188.9430  176.3620  142.9380 C   0  0  0  0  0  0  0  0  0  0  0  0
  191.2650  177.4280  144.2540 C   0  0  0  0  0  3  0  0  0  0  0  0
  189.8730  175.5090  143.7160 C   0  0  0  0  0  0  0  0  0  0  0  0
  190.9940  176.1340  144.4280 C   0  0  0  0  0  3  0  0  0  0  0  0
  190.5020  178.2890  143.2800 C   0  0  0  0  0  2  0  0  0  0  0  0
  189.6990  174.2660  143.8050 O   0  0  0  0  0  0  0  0  0  0  0  0
  189.2210  177.6610  142.7890 C   0  0  0  0  0  3  0  0  0  0  0  0
  184.6680  177.9800  145.7830 C   0  0  0  0  0  2  0  0  0  0  0  0
  185.3750  176.9570  146.6570 C   0  0  0  0  0  2  0  0  0  0  0  0
  186.5950  177.5630  147.2640 C   0  0  0  0  0  0  0  0  0  0  0  0
  186.4700  178.5290  148.0640 O   0  0  0  0  0  0  0  0  0  0  0  0
  187.9330  177.0650  146.9170 C   0  0  0  0  0  0  0  0  0  0  0  0
  188.1890  175.6660  146.8870 N   0  0  0  0  0  1  0  0  0  0  0  0
  188.8610  177.8720  146.6420 O   0  0  0  0  0  0  0  0  0  0  0  0
  1  2  1  0  0  0  0
  1 12  1  6  0  0  0
  2  7  1  0  0  0  0
  3  4  1  0  0  0  0
  3  8  1  0  0  0  0
  4 11  1  0  0  0  0
  5  9  2  0  0  0  0
  6  5  1  0  0  0  0
  7 10  2  0  0  0  0
  8  1  1  0  0  0  0
  9 10  1  0  0  0  0
 10 19  1  0  0  0  0
 11  5  1  0  0  0  0
 11  2  2  0  0  0  0
 12 14  1  0  0  0  0
 13 15  2  0  0  0  0
 14 17  2  0  0  0  0
 14 15  1  0  0  0  0
 16 13  1  0  0  0  0
 18 12  2  0  0  0  0
 18 16  1  0  0  0  0
 19 20  1  0  0  0  0
 20 21  1  0  0  0  0
 21 22  2  0  0  0  0
 23 21  1  0  0  0  0
 24 23  1  0  0  0  0
 25 23  2  0  0  0  0
M  END
>  <MODEL>
9

>  <REMARK>
 VINA RESULT:      -6.3      2.130      5.984
  Name = 
  5 active torsions:
  status: ('A' for Active; 'I' for Inactive)
    1  A    between atoms: C_1  and  C_5
    2  A    between atoms: C_2  and  C_21
    3  A    between atoms: C_6  and  C_15
    4  A    between atoms: C_6  and  C_23
    5  A    between atoms: C_15  and  C_21
                            x       y       z     vdW  Elec       q    Type
                         _______ _______ _______ _____ _____    ______ ____

>  <TORSDO>
F 5

$$$$
