=
 OpenBabel11052421073D

 43 49  0  0  1  0  0  0  0  0999 V2000
  188.2250  175.7980  144.5720 C   0  0  0  0  0  2  0  0  0  0  0  0
  191.4020  171.5960  139.2430 C   0  0  0  0  0  0  0  0  0  0  0  0
  189.2060  174.4290  142.7590 C   0  0  0  0  0  0  0  0  0  0  0  0
  189.9120  172.4410  140.9560 C   0  0  0  0  0  0  0  0  0  0  0  0
  192.1850  172.7520  139.3440 C   0  0  0  0  0  3  0  0  0  0  0  0
  191.7430  170.6240  138.3630 F   0  0  0  0  0  0  0  0  0  0  0  0
  190.7090  173.6110  141.0560 C   0  0  0  0  0  0  0  0  0  0  0  0
  190.2680  171.4410  140.0480 C   0  0  0  0  0  3  0  0  0  0  0  0
  191.8420  173.7600  140.2490 C   0  0  0  0  0  3  0  0  0  0  0  0
  190.9760  175.8260  142.2460 N   0  0  0  0  0  0  0  0  0  0  0  0
  190.3240  174.5900  141.9730 C   0  0  0  0  0  0  0  0  0  0  0  0
  188.4080  173.2870  142.6890 C   0  0  0  0  0  3  0  0  0  0  0  0
  189.1170  175.6150  143.5940 C   0  0  0  0  0  0  0  0  0  0  0  0
  190.2020  176.4790  143.2200 N   0  0  0  0  0  0  0  0  0  0  0  0
  188.7720  172.2860  141.7700 C   0  0  0  0  0  3  0  0  0  0  0  0
  191.6990  177.4580  144.9570 C   0  0  1  0  0  3  0  0  0  0  0  0
  192.0260  177.8930  143.6600 O   0  0  0  0  0  0  0  0  0  0  0  0
  190.6540  177.6930  143.9040 C   0  0  1  0  0  3  0  0  0  0  0  0
  194.8820  177.3720  146.1170 O   0  0  0  0  0  1  0  0  0  0  0  0
  194.3260  176.0890  146.1320 C   0  0  2  0  0  0  0  0  0  0  0  0
  192.1500  175.9960  145.1460 C   0  0  1  0  0  3  0  0  0  0  0  0
  190.9950  176.1030  147.4320 C   0  0  0  0  0  1  0  0  0  0  0  0
  193.6080  175.8150  144.8190 C   0  0  1  0  0  3  0  0  0  0  0  0
  193.3910  176.0000  147.1850 O   0  0  0  0  0  0  0  0  0  0  0  0
  194.0540  176.6120  143.7740 F   0  0  0  0  0  0  0  0  0  0  0  0
  192.1720  175.5950  146.6130 C   0  0  2  0  0  3  0  0  0  0  0  0
  195.3560  175.1160  146.3060 O   0  0  0  0  0  0  0  0  0  0  0  0
  196.0160  174.4700  145.2530 C   0  0  0  0  0  0  0  0  0  0  0  0
  196.6730  175.1600  144.4300 O   0  0  0  0  0  0  0  0  0  0  0  0
  195.9570  172.9820  145.0860 C   0  0  2  0  0  3  0  0  0  0  0  0
  196.9130  170.8970  145.6670 C   0  0  0  0  0  2  0  0  0  0  0  0
  194.6660  170.9180  145.4960 C   0  0  0  0  0  2  0  0  0  0  0  0
  195.7310  170.4540  146.2890 O   0  0  0  0  0  0  0  0  0  0  0  0
  194.6030  172.4420  145.5410 C   0  0  0  0  0  2  0  0  0  0  0  0
  197.0450  172.3440  145.8280 N   0  0  0  0  0  2  0  0  0  0  0  0
  188.2260  176.9550  145.4040 N   0  0  0  0  0  2  0  0  0  0  0  0
  185.2690  179.0250  146.5920 C   0  0  0  0  0  2  0  0  0  0  0  0
  185.5690  178.9000  143.6560 C   0  0  0  0  0  2  0  0  0  0  0  0
  184.1780  179.0080  144.2880 C   0  0  0  0  0  2  0  0  0  0  0  0
  186.3340  177.9360  146.5850 C   0  0  0  0  0  2  0  0  0  0  0  0
  187.1690  177.9470  145.3050 C   0  0  0  0  0  3  0  0  0  0  0  0
  184.0800  178.5780  145.7550 C   0  0  0  0  0  2  0  0  0  0  0  0
  186.3200  177.6450  144.0750 C   0  0  0  0  0  2  0  0  0  0  0  0
  1 36  1  0  0  0  0
  2  5  2  0  0  0  0
  2  8  1  0  0  0  0
  3 13  2  0  0  0  0
  4  7  1  0  0  0  0
  4 15  1  0  0  0  0
  5  9  1  0  0  0  0
  6  2  1  0  0  0  0
  7 11  1  0  0  0  0
  8  4  2  0  0  0  0
  9  7  2  0  0  0  0
 10 14  1  0  0  0  0
 11 10  2  0  0  0  0
 11  3  1  0  0  0  0
 12  3  1  0  0  0  0
 13  1  1  0  0  0  0
 14 13  1  0  0  0  0
 15 12  2  0  0  0  0
 16 17  1  6  0  0  0
 17 18  1  0  0  0  0
 18 14  1  6  0  0  0
 18 16  1  0  0  0  0
 20 19  1  6  0  0  0
 20 27  1  0  0  0  0
 20 24  1  0  0  0  0
 21 16  1  1  0  0  0
 21 26  1  0  0  0  0
 23 25  1  6  0  0  0
 23 21  1  0  0  0  0
 23 20  1  0  0  0  0
 26 24  1  0  0  0  0
 26 22  1  1  0  0  0
 28 27  1  0  0  0  0
 29 28  2  0  0  0  0
 30 28  1  1  0  0  0
 30 34  1  0  0  0  0
 30 35  1  0  0  0  0
 31 35  1  0  0  0  0
 31 33  1  0  0  0  0
 32 34  1  0  0  0  0
 32 33  1  0  0  0  0
 38 43  1  0  0  0  0
 38 39  1  0  0  0  0
 39 42  1  0  0  0  0
 40 37  1  0  0  0  0
 41 36  1  0  0  0  0
 41 40  1  0  0  0  0
 42 37  1  0  0  0  0
 43 41  1  0  0  0  0
M  END
>  <MODEL>
1

>  <REMARK>
 VINA RESULT:      -8.5      0.000      0.000
  Name = 
  7 active torsions:
  status: ('A' for Active; 'I' for Inactive)
    1  A    between atoms: C_1  and  N_28
    2  A    between atoms: C_2  and  C_6
    3  A    between atoms: C_4  and  O_22
    4  A    between atoms: C_11  and  C_14
    5  A    between atoms: C_13  and  N_38
    6  A    between atoms: C_14  and  O_22
    7  A    between atoms: N_28  and  C_35
                            x       y       z     vdW  Elec       q    Type
                         _______ _______ _______ _____ _____    ______ ____

>  <TORSDO>
F 7

$$$$
=
 OpenBabel11052421073D

 43 49  0  0  1  0  0  0  0  0999 V2000
  188.4540  176.6130  143.4670 C   0  0  0  0  0  2  0  0  0  0  0  0
  189.7140  171.1200  138.5290 C   0  0  0  0  0  0  0  0  0  0  0  0
  188.9200  174.8550  141.7890 C   0  0  0  0  0  0  0  0  0  0  0  0
  188.9520  173.1580  139.5930 C   0  0  0  0  0  0  0  0  0  0  0  0
  190.4440  170.7850  139.6760 C   0  0  0  0  0  3  0  0  0  0  0  0
  189.7290  170.2940  137.4550 F   0  0  0  0  0  0  0  0  0  0  0  0
  189.6930  172.8150  140.7550 C   0  0  0  0  0  0  0  0  0  0  0  0
  188.9700  172.3030  138.4890 C   0  0  0  0  0  3  0  0  0  0  0  0
  190.4350  171.6300  140.7900 C   0  0  0  0  0  3  0  0  0  0  0  0
  190.3050  173.5440  143.0970 N   0  0  0  0  0  0  0  0  0  0  0  0
  189.6540  173.6920  141.8390 C   0  0  0  0  0  0  0  0  0  0  0  0
  188.1760  175.2150  140.6650 C   0  0  0  0  0  3  0  0  0  0  0  0
  189.0910  175.5060  143.0760 C   0  0  0  0  0  0  0  0  0  0  0  0
  189.9900  174.6900  143.8470 N   0  0  0  0  0  0  0  0  0  0  0  0
  188.2000  174.3500  139.5560 C   0  0  0  0  0  3  0  0  0  0  0  0
  191.7820  174.9330  145.5630 C   0  0  1  0  0  3  0  0  0  0  0  0
  190.9380  176.0570  145.5070 O   0  0  0  0  0  0  0  0  0  0  0  0
  190.3140  174.8170  145.2690 C   0  0  1  0  0  3  0  0  0  0  0  0
  194.8440  176.0960  146.4370 O   0  0  0  0  0  1  0  0  0  0  0  0
  194.8720  175.5880  145.1340 C   0  0  2  0  0  0  0  0  0  0  0  0
  192.7180  174.9220  144.3370 C   0  0  1  0  0  3  0  0  0  0  0  0
  193.1570  172.4590  144.8940 C   0  0  0  0  0  1  0  0  0  0  0  0
  193.6680  176.0900  144.3500 C   0  0  1  0  0  3  0  0  0  0  0  0
  194.8220  174.1780  145.1840 O   0  0  0  0  0  0  0  0  0  0  0  0
  193.1220  177.2540  144.8720 F   0  0  0  0  0  0  0  0  0  0  0  0
  193.7240  173.7830  144.4010 C   0  0  2  0  0  3  0  0  0  0  0  0
  196.0630  176.0150  144.4730 O   0  0  0  0  0  0  0  0  0  0  0  0
  196.9950  175.1470  143.8910 C   0  0  0  0  0  0  0  0  0  0  0  0
  197.8100  174.5400  144.6330 O   0  0  0  0  0  0  0  0  0  0  0  0
  197.0400  174.9250  142.4090 C   0  0  2  0  0  3  0  0  0  0  0  0
  196.5140  173.4670  140.6200 C   0  0  0  0  0  2  0  0  0  0  0  0
  196.2370  175.6640  140.1950 C   0  0  0  0  0  2  0  0  0  0  0  0
  195.6400  174.4000  140.0320 O   0  0  0  0  0  0  0  0  0  0  0  0
  196.2880  176.0320  141.6740 C   0  0  0  0  0  2  0  0  0  0  0  0
  196.4870  173.6120  142.0750 N   0  0  0  0  0  2  0  0  0  0  0  0
  188.6130  177.1720  144.7680 N   0  0  0  0  0  2  0  0  0  0  0  0
  185.8150  177.5470  147.3110 C   0  0  0  0  0  2  0  0  0  0  0  0
  185.5830  179.3330  144.9710 C   0  0  0  0  0  2  0  0  0  0  0  0
  184.3260  178.8020  145.6660 C   0  0  0  0  0  2  0  0  0  0  0  0
  186.9170  176.8860  146.4940 C   0  0  0  0  0  2  0  0  0  0  0  0
  187.5040  177.8250  145.4410 C   0  0  0  0  0  3  0  0  0  0  0  0
  184.5190  177.5400  146.5140 C   0  0  0  0  0  2  0  0  0  0  0  0
  186.4640  178.2300  144.4030 C   0  0  0  0  0  2  0  0  0  0  0  0
  1 36  1  0  0  0  0
  2  5  1  0  0  0  0
  3 11  1  0  0  0  0
  3 13  2  0  0  0  0
  4  7  2  0  0  0  0
  5  9  2  0  0  0  0
  6  2  1  0  0  0  0
  7  9  1  0  0  0  0
  7 11  1  0  0  0  0
  8  2  2  0  0  0  0
  8  4  1  0  0  0  0
 10 14  1  0  0  0  0
 11 10  2  0  0  0  0
 12  3  1  0  0  0  0
 13  1  1  0  0  0  0
 13 14  1  0  0  0  0
 15  4  1  0  0  0  0
 15 12  2  0  0  0  0
 16 17  1  6  0  0  0
 18 14  1  6  0  0  0
 18 17  1  0  0  0  0
 18 16  1  0  0  0  0
 20 24  1  0  0  0  0
 20 19  1  1  0  0  0
 21 23  1  0  0  0  0
 21 26  1  0  0  0  0
 21 16  1  1  0  0  0
 23 25  1  1  0  0  0
 23 20  1  0  0  0  0
 26 22  1  1  0  0  0
 26 24  1  0  0  0  0
 27 20  1  0  0  0  0
 28 27  1  0  0  0  0
 28 29  2  0  0  0  0
 30 28  1  1  0  0  0
 31 35  1  0  0  0  0
 32 34  1  0  0  0  0
 33 32  1  0  0  0  0
 33 31  1  0  0  0  0
 34 30  1  0  0  0  0
 35 30  1  0  0  0  0
 36 41  1  0  0  0  0
 38 39  1  0  0  0  0
 39 42  1  0  0  0  0
 40 37  1  0  0  0  0
 41 40  1  0  0  0  0
 42 37  1  0  0  0  0
 43 38  1  0  0  0  0
 43 41  1  0  0  0  0
M  END
>  <MODEL>
2

>  <REMARK>
 VINA RESULT:      -8.4      2.131      2.901
  Name = 
  7 active torsions:
  status: ('A' for Active; 'I' for Inactive)
    1  A    between atoms: C_1  and  N_28
    2  A    between atoms: C_2  and  C_6
    3  A    between atoms: C_4  and  O_22
    4  A    between atoms: C_11  and  C_14
    5  A    between atoms: C_13  and  N_38
    6  A    between atoms: C_14  and  O_22
    7  A    between atoms: N_28  and  C_35
                            x       y       z     vdW  Elec       q    Type
                         _______ _______ _______ _____ _____    ______ ____

>  <TORSDO>
F 7

$$$$
=
 OpenBabel11052421073D

 43 49  0  0  1  0  0  0  0  0999 V2000
  188.6110  174.0470  139.5710 C   0  0  0  0  0  3  0  0  0  0  0  0
  185.9410  179.0550  144.4640 C   0  0  0  0  0  0  0  0  0  0  0  0
  187.6470  175.6860  141.1560 C   0  0  0  0  0  0  0  0  0  0  0  0
  186.6140  177.9240  142.4300 C   0  0  0  0  0  0  0  0  0  0  0  0
  186.3110  177.9350  145.2180 C   0  0  0  0  0  3  0  0  0  0  0  0
  185.4350  180.1480  145.0830 F   0  0  0  0  0  0  0  0  0  0  0  0
  186.9880  176.7900  143.1990 C   0  0  0  0  0  0  0  0  0  0  0  0
  186.0920  179.0490  143.0730 C   0  0  0  0  0  3  0  0  0  0  0  0
  186.8350  176.8020  144.5890 C   0  0  0  0  0  3  0  0  0  0  0  0
  187.9520  174.4550  143.0890 N   0  0  0  0  0  0  0  0  0  0  0  0
  187.5040  175.6830  142.5240 C   0  0  0  0  0  0  0  0  0  0  0  0
  187.2950  176.7870  140.3750 C   0  0  0  0  0  3  0  0  0  0  0  0
  188.2200  174.3990  140.7990 C   0  0  0  0  0  0  0  0  0  0  0  0
  188.3540  173.6440  142.0150 N   0  0  0  0  0  0  0  0  0  0  0  0
  186.7700  177.9160  141.0290 C   0  0  0  0  0  3  0  0  0  0  0  0
  190.4260  172.5110  142.8150 C   0  0  1  0  0  3  0  0  0  0  0  0
  189.2960  172.1630  143.5770 O   0  0  0  0  0  0  0  0  0  0  0  0
  189.0600  172.3750  142.2050 C   0  0  1  0  0  3  0  0  0  0  0  0
  193.0400  172.4200  144.9710 O   0  0  0  0  0  1  0  0  0  0  0  0
  192.8160  173.7300  144.5350 C   0  0  2  0  0  0  0  0  0  0  0  0
  190.8690  173.9460  143.1640 C   0  0  1  0  0  3  0  0  0  0  0  0
  192.2500  173.8740  141.0070 C   0  0  0  0  0  1  0  0  0  0  0  0
  191.3310  174.0550  144.5930 C   0  0  1  0  0  3  0  0  0  0  0  0
  193.2540  173.8560  143.1980 O   0  0  0  0  0  0  0  0  0  0  0  0
  190.6290  173.2470  145.4760 F   0  0  0  0  0  0  0  0  0  0  0  0
  192.1590  174.3300  142.4560 C   0  0  2  0  0  3  0  0  0  0  0  0
  193.5220  174.6470  145.3710 O   0  0  0  0  0  0  0  0  0  0  0  0
  194.2080  175.7730  144.9020 C   0  0  0  0  0  0  0  0  0  0  0  0
  193.5610  176.8270  144.6630 O   0  0  0  0  0  0  0  0  0  0  0  0
  195.6910  175.7530  144.6790 C   0  0  2  0  0  3  0  0  0  0  0  0
  197.6560  174.4360  144.6360 C   0  0  0  0  0  2  0  0  0  0  0  0
  197.5290  176.0410  143.0570 C   0  0  0  0  0  2  0  0  0  0  0  0
  197.8760  174.6940  143.2700 O   0  0  0  0  0  0  0  0  0  0  0  0
  196.0310  176.2360  143.2710 C   0  0  0  0  0  2  0  0  0  0  0  0
  196.2200  174.4090  144.9090 N   0  0  0  0  0  2  0  0  0  0  0  0
  189.2270  172.7930  139.2910 N   0  0  0  0  0  0  0  0  0  0  0  0
  189.9410  173.2700  135.5900 C   0  0  0  0  0  2  0  0  0  0  0  0
  190.9150  170.7130  136.7000 C   0  0  0  0  0  2  0  0  0  0  0  0
  190.4430  170.7940  135.2450 C   0  0  0  0  0  2  0  0  0  0  0  0
  189.2280  173.3940  136.9300 C   0  0  0  0  0  2  0  0  0  0  0  0
  189.8900  172.5530  138.0220 C   0  0  0  0  0  3  0  0  0  0  0  0
  189.5240  171.9740  134.9120 C   0  0  0  0  0  2  0  0  0  0  0  0
  189.8270  171.0640  137.7030 C   0  0  0  0  0  2  0  0  0  0  0  0
  1 13  1  0  0  0  0
  2  6  1  0  0  0  0
  2  5  1  0  0  0  0
  3 11  1  0  0  0  0
  4  8  1  0  0  0  0
  4  7  2  0  0  0  0
  7  9  1  0  0  0  0
  8  2  2  0  0  0  0
  9  5  2  0  0  0  0
 11 10  2  0  0  0  0
 11  7  1  0  0  0  0
 12 15  2  0  0  0  0
 12  3  1  0  0  0  0
 13  3  2  0  0  0  0
 13 14  1  0  0  0  0
 14 10  1  0  0  0  0
 15  4  1  0  0  0  0
 16 17  1  1  0  0  0
 18 14  1  1  0  0  0
 18 16  1  0  0  0  0
 18 17  1  0  0  0  0
 20 23  1  0  0  0  0
 20 19  1  1  0  0  0
 20 27  1  0  0  0  0
 21 16  1  6  0  0  0
 21 23  1  0  0  0  0
 23 25  1  1  0  0  0
 24 20  1  0  0  0  0
 26 22  1  6  0  0  0
 26 21  1  0  0  0  0
 26 24  1  0  0  0  0
 28 27  1  0  0  0  0
 29 28  2  0  0  0  0
 30 28  1  6  0  0  0
 30 35  1  0  0  0  0
 31 35  1  0  0  0  0
 32 33  1  0  0  0  0
 32 34  1  0  0  0  0
 33 31  1  0  0  0  0
 34 30  1  0  0  0  0
 36  1  2  0  0  0  0
 37 40  1  0  0  0  0
 38 43  1  0  0  0  0
 39 38  1  0  0  0  0
 40 41  1  0  0  0  0
 41 36  1  0  0  0  0
 42 39  1  0  0  0  0
 42 37  1  0  0  0  0
 43 41  1  0  0  0  0
M  END
>  <MODEL>
3

>  <REMARK>
 VINA RESULT:      -8.0      3.151      7.169
  Name = 
  7 active torsions:
  status: ('A' for Active; 'I' for Inactive)
    1  A    between atoms: C_1  and  N_28
    2  A    between atoms: C_2  and  C_6
    3  A    between atoms: C_4  and  O_22
    4  A    between atoms: C_11  and  C_14
    5  A    between atoms: C_13  and  N_38
    6  A    between atoms: C_14  and  O_22
    7  A    between atoms: N_28  and  C_35
                            x       y       z     vdW  Elec       q    Type
                         _______ _______ _______ _____ _____    ______ ____

>  <TORSDO>
F 7

$$$$
=
 OpenBabel11052421073D

 43 49  0  0  1  0  0  0  0  0999 V2000
  188.5720  174.0750  139.2720 C   0  0  0  0  0  3  0  0  0  0  0  0
  186.0560  178.9240  144.4000 C   0  0  0  0  0  0  0  0  0  0  0  0
  187.6590  175.6660  140.9330 C   0  0  0  0  0  0  0  0  0  0  0  0
  186.6990  177.8730  142.3150 C   0  0  0  0  0  0  0  0  0  0  0  0
  186.3810  177.7550  145.0990 C   0  0  0  0  0  3  0  0  0  0  0  0
  185.5860  180.0020  145.0710 F   0  0  0  0  0  0  0  0  0  0  0  0
  187.0280  176.6890  143.0270 C   0  0  0  0  0  0  0  0  0  0  0  0
  186.2150  178.9820  143.0120 C   0  0  0  0  0  3  0  0  0  0  0  0
  186.8680  176.6370  144.4150 C   0  0  0  0  0  3  0  0  0  0  0  0
  187.9080  174.3290  142.8040 N   0  0  0  0  0  0  0  0  0  0  0  0
  187.5080  175.5990  142.2990 C   0  0  0  0  0  0  0  0  0  0  0  0
  187.3510  176.8170  140.2070 C   0  0  0  0  0  3  0  0  0  0  0  0
  188.1870  174.3780  140.5140 C   0  0  0  0  0  0  0  0  0  0  0  0
  188.2870  173.5590  141.6910 N   0  0  0  0  0  0  0  0  0  0  0  0
  186.8630  177.9290  140.9160 C   0  0  0  0  0  3  0  0  0  0  0  0
  190.2640  172.2980  142.5410 C   0  0  1  0  0  3  0  0  0  0  0  0
  189.0700  171.9200  143.1820 O   0  0  0  0  0  0  0  0  0  0  0  0
  188.9460  172.2570  141.8200 C   0  0  1  0  0  3  0  0  0  0  0  0
  192.9040  171.9600  144.6380 O   0  0  0  0  0  1  0  0  0  0  0  0
  192.6760  173.3110  144.3600 C   0  0  2  0  0  0  0  0  0  0  0  0
  190.7120  173.6840  143.0490 C   0  0  1  0  0  3  0  0  0  0  0  0
  192.0650  173.8640  140.8800 C   0  0  0  0  0  1  0  0  0  0  0  0
  191.1920  173.6260  144.4750 C   0  0  1  0  0  3  0  0  0  0  0  0
  193.0970  173.5920  143.0420 O   0  0  0  0  0  0  0  0  0  0  0  0
  190.5000  172.7200  145.2660 F   0  0  0  0  0  0  0  0  0  0  0  0
  191.9930  174.1480  142.3730 C   0  0  2  0  0  3  0  0  0  0  0  0
  193.3930  174.1250  145.2880 O   0  0  0  0  0  0  0  0  0  0  0  0
  193.4900  175.5190  145.2030 C   0  0  0  0  0  0  0  0  0  0  0  0
  194.4470  176.0260  144.5610 O   0  0  0  0  0  0  0  0  0  0  0  0
  192.4810  176.4170  145.8540 C   0  0  2  0  0  3  0  0  0  0  0  0
  190.4300  177.5720  145.6140 C   0  0  0  0  0  2  0  0  0  0  0  0
  190.7970  176.6570  147.6420 C   0  0  0  0  0  2  0  0  0  0  0  0
  189.8200  176.8340  146.6460 O   0  0  0  0  0  0  0  0  0  0  0  0
  191.9240  175.7710  147.1200 C   0  0  0  0  0  2  0  0  0  0  0  0
  191.4040  176.7340  144.9160 N   0  0  0  0  0  2  0  0  0  0  0  0
  189.1440  172.8150  138.9320 N   0  0  0  0  0  0  0  0  0  0  0  0
  190.2290  173.6220  135.3810 C   0  0  0  0  0  2  0  0  0  0  0  0
  190.7800  170.8450  136.2230 C   0  0  0  0  0  2  0  0  0  0  0  0
  190.4490  171.1580  134.7600 C   0  0  0  0  0  2  0  0  0  0  0  0
  189.4240  173.6820  136.6720 C   0  0  0  0  0  2  0  0  0  0  0  0
  189.8790  172.6380  137.6920 C   0  0  0  0  0  3  0  0  0  0  0  0
  189.7140  172.4810  134.5150 C   0  0  0  0  0  2  0  0  0  0  0  0
  189.6600  171.2190  137.1830 C   0  0  0  0  0  2  0  0  0  0  0  0
  1 13  1  0  0  0  0
  2  6  1  0  0  0  0
  2  5  1  0  0  0  0
  3 11  1  0  0  0  0
  4  8  1  0  0  0  0
  4  7  2  0  0  0  0
  7  9  1  0  0  0  0
  8  2  2  0  0  0  0
  9  5  2  0  0  0  0
 11 10  2  0  0  0  0
 11  7  1  0  0  0  0
 12 15  2  0  0  0  0
 12  3  1  0  0  0  0
 13  3  2  0  0  0  0
 13 14  1  0  0  0  0
 14 10  1  0  0  0  0
 15  4  1  0  0  0  0
 16 17  1  1  0  0  0
 18 14  1  1  0  0  0
 18 16  1  0  0  0  0
 18 17  1  0  0  0  0
 20 23  1  0  0  0  0
 20 19  1  1  0  0  0
 20 27  1  0  0  0  0
 21 16  1  6  0  0  0
 21 23  1  0  0  0  0
 23 25  1  1  0  0  0
 24 20  1  0  0  0  0
 26 22  1  6  0  0  0
 26 24  1  0  0  0  0
 26 21  1  0  0  0  0
 28 27  1  0  0  0  0
 29 28  2  0  0  0  0
 30 28  1  6  0  0  0
 30 34  1  0  0  0  0
 31 33  1  0  0  0  0
 33 32  1  0  0  0  0
 34 32  1  0  0  0  0
 35 31  1  0  0  0  0
 35 30  1  0  0  0  0
 36  1  2  0  0  0  0
 37 40  1  0  0  0  0
 38 43  1  0  0  0  0
 39 38  1  0  0  0  0
 40 41  1  0  0  0  0
 41 36  1  0  0  0  0
 42 39  1  0  0  0  0
 42 37  1  0  0  0  0
 43 41  1  0  0  0  0
M  END
>  <MODEL>
4

>  <REMARK>
 VINA RESULT:      -7.9      3.253      7.546
  Name = 
  7 active torsions:
  status: ('A' for Active; 'I' for Inactive)
    1  A    between atoms: C_1  and  N_28
    2  A    between atoms: C_2  and  C_6
    3  A    between atoms: C_4  and  O_22
    4  A    between atoms: C_11  and  C_14
    5  A    between atoms: C_13  and  N_38
    6  A    between atoms: C_14  and  O_22
    7  A    between atoms: N_28  and  C_35
                            x       y       z     vdW  Elec       q    Type
                         _______ _______ _______ _____ _____    ______ ____

>  <TORSDO>
F 7

$$$$
=
 OpenBabel11052421073D

 43 49  0  0  1  0  0  0  0  0999 V2000
  189.6950  176.1630  145.7090 C   0  0  0  0  0  3  0  0  0  0  0  0
  196.6050  173.2840  145.3780 C   0  0  0  0  0  0  0  0  0  0  0  0
  191.9790  175.2100  145.6880 C   0  0  0  0  0  0  0  0  0  0  0  0
  194.7160  174.7550  145.7430 C   0  0  0  0  0  0  0  0  0  0  0  0
  195.7410  172.2680  144.9520 C   0  0  0  0  0  3  0  0  0  0  0  0
  197.9410  173.0650  145.4070 F   0  0  0  0  0  0  0  0  0  0  0  0
  193.8430  173.7230  145.3110 C   0  0  0  0  0  0  0  0  0  0  0  0
  196.0930  174.5240  145.7720 C   0  0  0  0  0  3  0  0  0  0  0  0
  194.3600  172.4840  144.9180 C   0  0  0  0  0  3  0  0  0  0  0  0
  191.4250  173.1100  144.8920 N   0  0  0  0  0  0  0  0  0  0  0  0
  192.4730  173.9870  145.2960 C   0  0  0  0  0  0  0  0  0  0  0  0
  192.8120  176.2460  146.1100 C   0  0  0  0  0  3  0  0  0  0  0  0
  190.5360  175.1400  145.5320 C   0  0  0  0  0  0  0  0  0  0  0  0
  190.2230  173.8120  145.0800 N   0  0  0  0  0  0  0  0  0  0  0  0
  194.1980  176.0060  146.1380 C   0  0  0  0  0  3  0  0  0  0  0  0
  188.8320  173.2260  143.0960 C   0  0  1  0  0  3  0  0  0  0  0  0
  189.1250  172.1060  143.8960 O   0  0  0  0  0  0  0  0  0  0  0  0
  188.9340  173.3150  144.5920 C   0  0  1  0  0  3  0  0  0  0  0  0
  188.5030  172.3380  139.8420 O   0  0  0  0  0  1  0  0  0  0  0  0
  189.6440  173.1270  140.0160 C   0  0  2  0  0  0  0  0  0  0  0  0
  190.0880  173.6460  142.3070 C   0  0  1  0  0  3  0  0  0  0  0  0
  188.9940  175.9550  142.1060 C   0  0  0  0  0  1  0  0  0  0  0  0
  190.4290  172.6510  141.2290 C   0  0  1  0  0  3  0  0  0  0  0  0
  189.2540  174.4670  140.2270 O   0  0  0  0  0  0  0  0  0  0  0  0
  190.1600  171.3340  141.5730 F   0  0  0  0  0  0  0  0  0  0  0  0
  189.8320  174.8710  141.4430 C   0  0  2  0  0  3  0  0  0  0  0  0
  190.4790  173.0340  138.8610 O   0  0  0  0  0  0  0  0  0  0  0  0
  190.1530  172.3060  137.7100 C   0  0  0  0  0  0  0  0  0  0  0  0
  189.3600  172.8110  136.8730 O   0  0  0  0  0  0  0  0  0  0  0  0
  190.7260  170.9440  137.4550 C   0  0  2  0  0  3  0  0  0  0  0  0
  192.4920  169.4350  137.9080 C   0  0  0  0  0  2  0  0  0  0  0  0
  190.4430  168.5090  137.7440 C   0  0  0  0  0  2  0  0  0  0  0  0
  191.6260  168.5000  138.5050 O   0  0  0  0  0  0  0  0  0  0  0  0
  189.7410  169.8570  137.8800 C   0  0  0  0  0  2  0  0  0  0  0  0
  192.0010  170.7910  138.1550 N   0  0  0  0  0  2  0  0  0  0  0  0
  188.2930  176.0520  145.4780 N   0  0  0  0  0  0  0  0  0  0  0  0
  185.6680  177.9900  147.4260 C   0  0  0  0  0  2  0  0  0  0  0  0
  185.9820  178.8470  144.6170 C   0  0  0  0  0  2  0  0  0  0  0  0
  184.6150  178.9310  145.3040 C   0  0  0  0  0  2  0  0  0  0  0  0
  186.5570  176.8280  147.0010 C   0  0  0  0  0  2  0  0  0  0  0  0
  187.3990  177.1590  145.7700 C   0  0  0  0  0  3  0  0  0  0  0  0
  184.4350  178.0380  146.5360 C   0  0  0  0  0  2  0  0  0  0  0  0
  186.5300  177.4300  144.5470 C   0  0  0  0  0  2  0  0  0  0  0  0
  2  6  1  0  0  0  0
  2  8  1  0  0  0  0
  3 12  1  0  0  0  0
  4  8  2  0  0  0  0
  4 15  1  0  0  0  0
  5  2  2  0  0  0  0
  7  4  1  0  0  0  0
  9  5  1  0  0  0  0
  9  7  2  0  0  0  0
 10 14  1  0  0  0  0
 10 11  2  0  0  0  0
 11  7  1  0  0  0  0
 11  3  1  0  0  0  0
 12 15  2  0  0  0  0
 13  3  2  0  0  0  0
 13  1  1  0  0  0  0
 14 13  1  0  0  0  0
 16 17  1  1  0  0  0
 16 18  1  0  0  0  0
 17 18  1  0  0  0  0
 18 14  1  6  0  0  0
 20 19  1  6  0  0  0
 20 24  1  0  0  0  0
 20 23  1  0  0  0  0
 21 16  1  6  0  0  0
 23 25  1  1  0  0  0
 23 21  1  0  0  0  0
 24 26  1  0  0  0  0
 26 22  1  1  0  0  0
 26 21  1  0  0  0  0
 27 20  1  0  0  0  0
 28 27  1  0  0  0  0
 29 28  2  0  0  0  0
 30 28  1  1  0  0  0
 30 34  1  0  0  0  0
 30 35  1  0  0  0  0
 31 35  1  0  0  0  0
 31 33  1  0  0  0  0
 32 34  1  0  0  0  0
 32 33  1  0  0  0  0
 36  1  2  0  0  0  0
 36 41  1  0  0  0  0
 38 39  1  0  0  0  0
 39 42  1  0  0  0  0
 40 37  1  0  0  0  0
 41 40  1  0  0  0  0
 42 37  1  0  0  0  0
 43 38  1  0  0  0  0
 43 41  1  0  0  0  0
M  END
>  <MODEL>
5

>  <REMARK>
 VINA RESULT:      -7.7      3.496      6.607
  Name = 
  7 active torsions:
  status: ('A' for Active; 'I' for Inactive)
    1  A    between atoms: C_1  and  N_28
    2  A    between atoms: C_2  and  C_6
    3  A    between atoms: C_4  and  O_22
    4  A    between atoms: C_11  and  C_14
    5  A    between atoms: C_13  and  N_38
    6  A    between atoms: C_14  and  O_22
    7  A    between atoms: N_28  and  C_35
                            x       y       z     vdW  Elec       q    Type
                         _______ _______ _______ _____ _____    ______ ____

>  <TORSDO>
F 7

$$$$
=
 OpenBabel11052421073D

 43 49  0  0  1  0  0  0  0  0999 V2000
  189.6740  176.1420  145.5670 C   0  0  0  0  0  3  0  0  0  0  0  0
  196.6050  173.2970  145.5160 C   0  0  0  0  0  0  0  0  0  0  0  0
  191.9620  175.2030  145.6390 C   0  0  0  0  0  0  0  0  0  0  0  0
  194.6980  174.7660  145.7880 C   0  0  0  0  0  0  0  0  0  0  0  0
  195.7600  172.2660  145.0910 C   0  0  0  0  0  3  0  0  0  0  0  0
  197.9410  173.0870  145.5910 F   0  0  0  0  0  0  0  0  0  0  0  0
  193.8440  173.7180  145.3560 C   0  0  0  0  0  0  0  0  0  0  0  0
  196.0750  174.5440  145.8630 C   0  0  0  0  0  3  0  0  0  0  0  0
  194.3800  172.4730  145.0100 C   0  0  0  0  0  3  0  0  0  0  0  0
  191.4440  173.0800  144.8810 N   0  0  0  0  0  0  0  0  0  0  0  0
  192.4740  173.9730  145.2940 C   0  0  0  0  0  0  0  0  0  0  0  0
  192.7770  176.2540  146.0590 C   0  0  0  0  0  3  0  0  0  0  0  0
  190.5250  175.1200  145.4420 C   0  0  0  0  0  0  0  0  0  0  0  0
  190.2320  173.7790  145.0150 N   0  0  0  0  0  0  0  0  0  0  0  0
  194.1620  176.0230  146.1340 C   0  0  0  0  0  3  0  0  0  0  0  0
  188.8520  173.2670  143.0030 C   0  0  1  0  0  3  0  0  0  0  0  0
  189.1960  172.1100  143.7260 O   0  0  0  0  0  0  0  0  0  0  0  0
  188.9620  173.2620  144.5020 C   0  0  1  0  0  3  0  0  0  0  0  0
  188.6910  172.2980  139.7600 O   0  0  0  0  0  1  0  0  0  0  0  0
  189.7500  173.1930  139.9460 C   0  0  2  0  0  0  0  0  0  0  0  0
  190.0840  173.7900  142.2380 C   0  0  1  0  0  3  0  0  0  0  0  0
  188.7850  175.9830  141.9660 C   0  0  0  0  0  1  0  0  0  0  0  0
  190.5430  172.8130  141.1880 C   0  0  1  0  0  3  0  0  0  0  0  0
  189.2310  174.4950  140.1220 O   0  0  0  0  0  0  0  0  0  0  0  0
  190.3890  171.4830  141.5500 F   0  0  0  0  0  0  0  0  0  0  0  0
  189.7370  174.9710  141.3440 C   0  0  2  0  0  3  0  0  0  0  0  0
  190.6190  173.1590  138.8150 O   0  0  0  0  0  0  0  0  0  0  0  0
  191.7200  172.3020  138.6920 C   0  0  0  0  0  0  0  0  0  0  0  0
  191.5190  171.0670  138.5550 O   0  0  0  0  0  0  0  0  0  0  0  0
  193.1250  172.8220  138.7200 C   0  0  2  0  0  3  0  0  0  0  0  0
  194.5280  174.6840  139.1300 C   0  0  0  0  0  2  0  0  0  0  0  0
  195.3440  172.6900  139.7950 C   0  0  0  0  0  2  0  0  0  0  0  0
  195.1920  174.0330  140.1860 O   0  0  0  0  0  0  0  0  0  0  0  0
  193.9790  172.0150  139.6960 C   0  0  0  0  0  2  0  0  0  0  0  0
  193.1350  174.2420  139.0740 N   0  0  0  0  0  2  0  0  0  0  0  0
  188.2800  176.0180  145.2980 N   0  0  0  0  0  0  0  0  0  0  0  0
  185.7210  177.9280  147.3570 C   0  0  0  0  0  2  0  0  0  0  0  0
  185.7830  178.6670  144.4980 C   0  0  0  0  0  2  0  0  0  0  0  0
  184.4690  178.7240  145.2830 C   0  0  0  0  0  2  0  0  0  0  0  0
  186.6280  176.7870  146.9150 C   0  0  0  0  0  2  0  0  0  0  0  0
  187.3590  177.0970  145.6090 C   0  0  0  0  0  3  0  0  0  0  0  0
  184.4240  177.8820  146.5620 C   0  0  0  0  0  2  0  0  0  0  0  0
  186.3900  177.2730  144.4470 C   0  0  0  0  0  2  0  0  0  0  0  0
  2  6  1  0  0  0  0
  2  8  1  0  0  0  0
  3 12  1  0  0  0  0
  4  8  2  0  0  0  0
  4 15  1  0  0  0  0
  5  2  2  0  0  0  0
  7  4  1  0  0  0  0
  9  5  1  0  0  0  0
  9  7  2  0  0  0  0
 10 14  1  0  0  0  0
 10 11  2  0  0  0  0
 11  7  1  0  0  0  0
 11  3  1  0  0  0  0
 12 15  2  0  0  0  0
 13  1  1  0  0  0  0
 13  3  2  0  0  0  0
 14 13  1  0  0  0  0
 16 17  1  6  0  0  0
 16 18  1  0  0  0  0
 17 18  1  0  0  0  0
 18 14  1  6  0  0  0
 20 19  1  6  0  0  0
 20 24  1  0  0  0  0
 20 23  1  0  0  0  0
 21 16  1  6  0  0  0
 23 25  1  1  0  0  0
 23 21  1  0  0  0  0
 24 26  1  0  0  0  0
 26 22  1  1  0  0  0
 26 21  1  0  0  0  0
 27 20  1  0  0  0  0
 28 27  1  0  0  0  0
 29 28  2  0  0  0  0
 30 28  1  1  0  0  0
 30 35  1  0  0  0  0
 30 34  1  0  0  0  0
 31 33  1  0  0  0  0
 32 33  1  0  0  0  0
 34 32  1  0  0  0  0
 35 31  1  0  0  0  0
 36  1  2  0  0  0  0
 36 41  1  0  0  0  0
 38 39  1  0  0  0  0
 39 42  1  0  0  0  0
 40 37  1  0  0  0  0
 41 40  1  0  0  0  0
 42 37  1  0  0  0  0
 43 38  1  0  0  0  0
 43 41  1  0  0  0  0
M  END
>  <MODEL>
6

>  <REMARK>
 VINA RESULT:      -7.7      3.131      6.096
  Name = 
  7 active torsions:
  status: ('A' for Active; 'I' for Inactive)
    1  A    between atoms: C_1  and  N_28
    2  A    between atoms: C_2  and  C_6
    3  A    between atoms: C_4  and  O_22
    4  A    between atoms: C_11  and  C_14
    5  A    between atoms: C_13  and  N_38
    6  A    between atoms: C_14  and  O_22
    7  A    between atoms: N_28  and  C_35
                            x       y       z     vdW  Elec       q    Type
                         _______ _______ _______ _____ _____    ______ ____

>  <TORSDO>
F 7

$$$$
=
 OpenBabel11052421073D

 43 49  0  0  1  0  0  0  0  0999 V2000
  192.7250  171.6440  144.1230 C   0  0  0  0  0  2  0  0  0  0  0  0
  189.5580  172.0650  137.3450 C   0  0  0  0  0  0  0  0  0  0  0  0
  191.6030  171.7530  141.9190 C   0  0  0  0  0  0  0  0  0  0  0  0
  190.5040  171.2510  139.4220 C   0  0  0  0  0  0  0  0  0  0  0  0
  189.7210  173.3860  137.7800 C   0  0  0  0  0  3  0  0  0  0  0  0
  189.0200  171.8170  136.1270 F   0  0  0  0  0  0  0  0  0  0  0  0
  190.6680  172.5920  139.8590 C   0  0  0  0  0  0  0  0  0  0  0  0
  189.9490  171.0010  138.1640 C   0  0  0  0  0  3  0  0  0  0  0  0
  190.2760  173.6520  139.0350 C   0  0  0  0  0  3  0  0  0  0  0  0
  191.4890  174.0560  141.7500 N   0  0  0  0  0  0  0  0  0  0  0  0
  191.2240  172.8060  141.1200 C   0  0  0  0  0  0  0  0  0  0  0  0
  191.4620  170.4250  141.5150 C   0  0  0  0  0  3  0  0  0  0  0  0
  192.1490  172.3330  143.1350 C   0  0  0  0  0  0  0  0  0  0  0  0
  192.0220  173.7600  143.0160 N   0  0  0  0  0  0  0  0  0  0  0  0
  190.9010  170.1810  140.2480 C   0  0  0  0  0  3  0  0  0  0  0  0
  191.5980  175.6990  144.5250 C   0  0  1  0  0  3  0  0  0  0  0  0
  192.1500  174.5990  145.2070 O   0  0  0  0  0  0  0  0  0  0  0  0
  192.6040  174.7840  143.8860 C   0  0  1  0  0  3  0  0  0  0  0  0
  189.6020  176.9430  146.9650 O   0  0  0  0  0  1  0  0  0  0  0  0
  188.8300  176.4970  145.8880 C   0  0  2  0  0  0  0  0  0  0  0  0
  190.1200  175.4150  144.1900 C   0  0  1  0  0  3  0  0  0  0  0  0
  190.2040  177.5370  142.7540 C   0  0  0  0  0  1  0  0  0  0  0  0
  189.3120  175.1300  145.4280 C   0  0  1  0  0  3  0  0  0  0  0  0
  188.9610  177.4070  144.8150 O   0  0  0  0  0  0  0  0  0  0  0  0
  190.0090  174.4380  146.4080 F   0  0  0  0  0  0  0  0  0  0  0  0
  189.3980  176.6640  143.7050 C   0  0  2  0  0  3  0  0  0  0  0  0
  187.4610  176.3960  146.2810 O   0  0  0  0  0  0  0  0  0  0  0  0
  186.6250  177.4940  146.5130 C   0  0  0  0  0  0  0  0  0  0  0  0
  186.6910  178.0880  147.6210 O   0  0  0  0  0  0  0  0  0  0  0  0
  185.6570  177.9770  145.4740 C   0  0  2  0  0  3  0  0  0  0  0  0
  185.0080  179.7680  144.0710 C   0  0  0  0  0  2  0  0  0  0  0  0
  184.8160  177.7110  143.1690 C   0  0  0  0  0  2  0  0  0  0  0  0
  185.2460  179.0230  142.9010 O   0  0  0  0  0  0  0  0  0  0  0  0
  185.6990  177.0780  144.2400 C   0  0  0  0  0  2  0  0  0  0  0  0
  185.9490  179.3650  145.1150 N   0  0  0  0  0  2  0  0  0  0  0  0
  193.3020  172.2730  145.2640 N   0  0  0  0  0  2  0  0  0  0  0  0
  197.0780  172.5560  145.5770 C   0  0  0  0  0  2  0  0  0  0  0  0
  195.9880  169.9120  146.3130 C   0  0  0  0  0  2  0  0  0  0  0  0
  197.3790  170.0260  145.6820 C   0  0  0  0  0  2  0  0  0  0  0  0
  195.6690  172.8120  145.0590 C   0  0  0  0  0  2  0  0  0  0  0  0
  194.6300  171.9110  145.7250 C   0  0  0  0  0  3  0  0  0  0  0  0
  197.6490  171.3170  144.9020 C   0  0  0  0  0  2  0  0  0  0  0  0
  194.8780  170.4390  145.4160 C   0  0  0  0  0  2  0  0  0  0  0  0
  1 36  1  0  0  0  0
  2  5  2  0  0  0  0
  2  8  1  0  0  0  0
  3 13  2  0  0  0  0
  4  7  1  0  0  0  0
  4 15  1  0  0  0  0
  5  9  1  0  0  0  0
  6  2  1  0  0  0  0
  7 11  1  0  0  0  0
  8  4  2  0  0  0  0
  9  7  2  0  0  0  0
 10 14  1  0  0  0  0
 11 10  2  0  0  0  0
 11  3  1  0  0  0  0
 12  3  1  0  0  0  0
 13  1  1  0  0  0  0
 14 13  1  0  0  0  0
 15 12  2  0  0  0  0
 16 17  1  1  0  0  0
 18 14  1  6  0  0  0
 18 16  1  0  0  0  0
 18 17  1  0  0  0  0
 20 27  1  0  0  0  0
 20 19  1  1  0  0  0
 21 16  1  1  0  0  0
 21 23  1  0  0  0  0
 23 20  1  0  0  0  0
 23 25  1  1  0  0  0
 24 20  1  0  0  0  0
 26 22  1  1  0  0  0
 26 21  1  0  0  0  0
 26 24  1  0  0  0  0
 27 28  1  0  0  0  0
 28 29  2  0  0  0  0
 30 28  1  1  0  0  0
 31 35  1  0  0  0  0
 32 34  1  0  0  0  0
 33 32  1  0  0  0  0
 33 31  1  0  0  0  0
 34 30  1  0  0  0  0
 35 30  1  0  0  0  0
 36 41  1  0  0  0  0
 39 38  1  0  0  0  0
 40 37  1  0  0  0  0
 40 41  1  0  0  0  0
 42 37  1  0  0  0  0
 42 39  1  0  0  0  0
 43 41  1  0  0  0  0
 43 38  1  0  0  0  0
M  END
>  <MODEL>
7

>  <REMARK>
 VINA RESULT:      -7.6      2.682      8.191
  Name = 
  7 active torsions:
  status: ('A' for Active; 'I' for Inactive)
    1  A    between atoms: C_1  and  N_28
    2  A    between atoms: C_2  and  C_6
    3  A    between atoms: C_4  and  O_22
    4  A    between atoms: C_11  and  C_14
    5  A    between atoms: C_13  and  N_38
    6  A    between atoms: C_14  and  O_22
    7  A    between atoms: N_28  and  C_35
                            x       y       z     vdW  Elec       q    Type
                         _______ _______ _______ _____ _____    ______ ____

>  <TORSDO>
F 7

$$$$
=
 OpenBabel11052421073D

 43 49  0  0  1  0  0  0  0  0999 V2000
  189.1200  175.9040  143.3560 C   0  0  0  0  0  2  0  0  0  0  0  0
  195.9950  174.1460  145.7610 C   0  0  0  0  0  0  0  0  0  0  0  0
  191.3680  175.3520  144.2310 C   0  0  0  0  0  0  0  0  0  0  0  0
  194.0040  175.3550  145.0970 C   0  0  0  0  0  0  0  0  0  0  0  0
  195.3350  172.9290  145.5510 C   0  0  0  0  0  3  0  0  0  0  0  0
  197.2810  174.1510  146.1850 F   0  0  0  0  0  0  0  0  0  0  0  0
  193.3380  174.1200  144.8850 C   0  0  0  0  0  0  0  0  0  0  0  0
  195.3310  175.3550  145.5340 C   0  0  0  0  0  3  0  0  0  0  0  0
  194.0070  172.9130  145.1130 C   0  0  0  0  0  3  0  0  0  0  0  0
  191.1640  173.0490  144.1640 N   0  0  0  0  0  0  0  0  0  0  0  0
  192.0130  174.1560  144.4490 C   0  0  0  0  0  0  0  0  0  0  0  0
  191.9980  176.5810  144.4230 C   0  0  0  0  0  3  0  0  0  0  0  0
  190.0290  175.0200  143.7750 C   0  0  0  0  0  0  0  0  0  0  0  0
  189.9210  173.5860  143.7880 N   0  0  0  0  0  0  0  0  0  0  0  0
  193.3340  176.5740  144.8650 C   0  0  0  0  0  3  0  0  0  0  0  0
  188.9990  172.4520  141.7680 C   0  0  1  0  0  3  0  0  0  0  0  0
  189.3660  171.5400  142.7750 O   0  0  0  0  0  0  0  0  0  0  0  0
  188.8430  172.7670  143.2290 C   0  0  1  0  0  3  0  0  0  0  0  0
  190.0800  170.3000  139.3830 O   0  0  0  0  0  1  0  0  0  0  0  0
  190.8030  171.4960  139.3210 C   0  0  2  0  0  0  0  0  0  0  0  0
  190.2630  173.0140  141.0880 C   0  0  1  0  0  3  0  0  0  0  0  0
  188.6680  174.3520  139.5920 C   0  0  0  0  0  1  0  0  0  0  0  0
  191.2310  171.9220  140.7180 C   0  0  1  0  0  3  0  0  0  0  0  0
  189.9840  172.5060  138.7720 O   0  0  0  0  0  0  0  0  0  0  0  0
  191.2660  170.8710  141.6240 F   0  0  0  0  0  0  0  0  0  0  0  0
  189.9640  173.5620  139.7000 C   0  0  2  0  0  3  0  0  0  0  0  0
  191.9690  171.3160  138.5170 O   0  0  0  0  0  0  0  0  0  0  0  0
  192.6710  172.3610  137.9030 C   0  0  0  0  0  0  0  0  0  0  0  0
  192.3480  172.7100  136.7370 O   0  0  0  0  0  0  0  0  0  0  0  0
  193.7910  173.0710  138.6020 C   0  0  2  0  0  3  0  0  0  0  0  0
  196.0720  173.6980  138.5300 C   0  0  0  0  0  2  0  0  0  0  0  0
  194.6710  175.2350  139.4010 C   0  0  0  0  0  2  0  0  0  0  0  0
  195.7610  175.0700  138.5270 O   0  0  0  0  0  0  0  0  0  0  0  0
  193.4370  174.5380  138.8350 C   0  0  0  0  0  2  0  0  0  0  0  0
  195.0270  172.9520  137.8290 N   0  0  0  0  0  2  0  0  0  0  0  0
  187.8430  175.5140  142.8580 N   0  0  0  0  0  2  0  0  0  0  0  0
  184.9380  177.9370  142.4990 C   0  0  0  0  0  2  0  0  0  0  0  0
  185.5460  177.1670  145.2850 C   0  0  0  0  0  2  0  0  0  0  0  0
  184.9980  178.5620  144.9700 C   0  0  0  0  0  2  0  0  0  0  0  0
  186.2530  177.2360  142.1890 C   0  0  0  0  0  2  0  0  0  0  0  0
  186.6370  176.2170  143.2620 C   0  0  0  0  0  3  0  0  0  0  0  0
  185.1780  179.0360  143.5240 C   0  0  0  0  0  2  0  0  0  0  0  0
  186.8800  176.8830  144.6110 C   0  0  0  0  0  2  0  0  0  0  0  0
  1 13  1  0  0  0  0
  2  6  1  0  0  0  0
  3 12  1  0  0  0  0
  3 11  1  0  0  0  0
  4  8  1  0  0  0  0
  5  2  1  0  0  0  0
  7  4  2  0  0  0  0
  7  9  1  0  0  0  0
  8  2  2  0  0  0  0
  9  5  2  0  0  0  0
 10 11  2  0  0  0  0
 11  7  1  0  0  0  0
 12 15  2  0  0  0  0
 13 14  1  0  0  0  0
 13  3  2  0  0  0  0
 14 10  1  0  0  0  0
 15  4  1  0  0  0  0
 16 17  1  1  0  0  0
 16 18  1  0  0  0  0
 17 18  1  0  0  0  0
 18 14  1  1  0  0  0
 20 19  1  1  0  0  0
 20 23  1  0  0  0  0
 21 16  1  6  0  0  0
 23 21  1  0  0  0  0
 23 25  1  1  0  0  0
 24 20  1  0  0  0  0
 24 26  1  0  0  0  0
 26 22  1  1  0  0  0
 26 21  1  0  0  0  0
 27 20  1  0  0  0  0
 28 27  1  0  0  0  0
 29 28  2  0  0  0  0
 30 28  1  6  0  0  0
 30 34  1  0  0  0  0
 33 31  1  0  0  0  0
 33 32  1  0  0  0  0
 34 32  1  0  0  0  0
 35 31  1  0  0  0  0
 35 30  1  0  0  0  0
 36 41  1  0  0  0  0
 36  1  1  0  0  0  0
 37 42  1  0  0  0  0
 39 38  1  0  0  0  0
 40 37  1  0  0  0  0
 40 41  1  0  0  0  0
 41 43  1  0  0  0  0
 42 39  1  0  0  0  0
 43 38  1  0  0  0  0
M  END
>  <MODEL>
8

>  <REMARK>
 VINA RESULT:      -7.5      3.574      6.515
  Name = 
  7 active torsions:
  status: ('A' for Active; 'I' for Inactive)
    1  A    between atoms: C_1  and  N_28
    2  A    between atoms: C_2  and  C_6
    3  A    between atoms: C_4  and  O_22
    4  A    between atoms: C_11  and  C_14
    5  A    between atoms: C_13  and  N_38
    6  A    between atoms: C_14  and  O_22
    7  A    between atoms: N_28  and  C_35
                            x       y       z     vdW  Elec       q    Type
                         _______ _______ _______ _____ _____    ______ ____

>  <TORSDO>
F 7

$$$$
=
 OpenBabel11052421073D

 43 49  0  0  1  0  0  0  0  0999 V2000
  188.6610  173.9290  139.7600 C   0  0  0  0  0  3  0  0  0  0  0  0
  188.0930  177.4180  146.3660 C   0  0  0  0  0  0  0  0  0  0  0  0
  188.3860  175.0670  141.9400 C   0  0  0  0  0  0  0  0  0  0  0  0
  187.9350  176.8520  144.0160 C   0  0  0  0  0  0  0  0  0  0  0  0
  188.7070  176.1880  146.6290 C   0  0  0  0  0  3  0  0  0  0  0  0
  187.8700  178.2910  147.3780 F   0  0  0  0  0  0  0  0  0  0  0  0
  188.5590  175.6050  144.2860 C   0  0  0  0  0  0  0  0  0  0  0  0
  187.7080  177.7490  145.0630 C   0  0  0  0  0  3  0  0  0  0  0  0
  188.9420  175.2800  145.5920 C   0  0  0  0  0  3  0  0  0  0  0  0
  189.3830  173.4480  143.2560 N   0  0  0  0  0  0  0  0  0  0  0  0
  188.7690  174.7330  143.2180 C   0  0  0  0  0  0  0  0  0  0  0  0
  187.7770  176.2870  141.6420 C   0  0  0  0  0  3  0  0  0  0  0  0
  188.7660  173.9510  141.0910 C   0  0  0  0  0  0  0  0  0  0  0  0
  189.3410  172.9470  141.9440 N   0  0  0  0  0  0  0  0  0  0  0  0
  187.5510  177.1840  142.7010 C   0  0  0  0  0  3  0  0  0  0  0  0
  191.5370  171.7830  141.7560 C   0  0  1  0  0  3  0  0  0  0  0  0
  190.6700  171.1480  142.6640 O   0  0  0  0  0  0  0  0  0  0  0  0
  190.0510  171.7310  141.5410 C   0  0  1  0  0  3  0  0  0  0  0  0
  194.7530  171.3320  142.7270 O   0  0  0  0  0  1  0  0  0  0  0  0
  194.3950  172.6780  142.8480 C   0  0  2  0  0  0  0  0  0  0  0  0
  192.0840  173.0820  142.3800 C   0  0  1  0  0  3  0  0  0  0  0  0
  192.5920  173.8310  139.9820 C   0  0  0  0  0  1  0  0  0  0  0  0
  193.0330  172.8000  143.5150 C   0  0  1  0  0  3  0  0  0  0  0  0
  194.3200  173.2560  141.5610 O   0  0  0  0  0  0  0  0  0  0  0  0
  192.6920  171.6860  144.2700 F   0  0  0  0  0  0  0  0  0  0  0  0
  193.0330  173.8080  141.4380 C   0  0  2  0  0  3  0  0  0  0  0  0
  195.3600  173.3690  143.6410 O   0  0  0  0  0  0  0  0  0  0  0  0
  195.2790  173.5130  145.0310 C   0  0  0  0  0  0  0  0  0  0  0  0
  195.5080  172.5140  145.7630 O   0  0  0  0  0  0  0  0  0  0  0  0
  194.9290  174.8250  145.6650 C   0  0  2  0  0  3  0  0  0  0  0  0
  194.7690  177.1690  145.3780 C   0  0  0  0  0  2  0  0  0  0  0  0
  193.1400  176.2310  146.6240 C   0  0  0  0  0  2  0  0  0  0  0  0
  193.3790  177.1660  145.6000 O   0  0  0  0  0  0  0  0  0  0  0  0
  193.4760  174.8240  146.1380 C   0  0  0  0  0  2  0  0  0  0  0  0
  195.1680  175.9220  144.7270 N   0  0  0  0  0  2  0  0  0  0  0  0
  189.1110  172.8300  138.9720 N   0  0  0  0  0  0  0  0  0  0  0  0
  189.5800  171.5540  135.4240 C   0  0  0  0  0  2  0  0  0  0  0  0
  189.3170  174.4870  135.6400 C   0  0  0  0  0  2  0  0  0  0  0  0
  190.1890  173.8680  134.5440 C   0  0  0  0  0  2  0  0  0  0  0  0
  189.6910  171.6140  136.9410 C   0  0  0  0  0  2  0  0  0  0  0  0
  189.0630  172.8810  137.5210 C   0  0  0  0  0  3  0  0  0  0  0  0
  190.6560  172.4310  134.8010 C   0  0  0  0  0  2  0  0  0  0  0  0
  189.7820  174.1370  137.0450 C   0  0  0  0  0  2  0  0  0  0  0  0
  1 13  1  0  0  0  0
  2  5  1  0  0  0  0
  2  6  1  0  0  0  0
  3 11  1  0  0  0  0
  4  7  2  0  0  0  0
  4  8  1  0  0  0  0
  7  9  1  0  0  0  0
  8  2  2  0  0  0  0
  9  5  2  0  0  0  0
 11 10  2  0  0  0  0
 11  7  1  0  0  0  0
 12  3  1  0  0  0  0
 12 15  2  0  0  0  0
 13  3  2  0  0  0  0
 13 14  1  0  0  0  0
 14 10  1  0  0  0  0
 15  4  1  0  0  0  0
 16 17  1  1  0  0  0
 18 16  1  0  0  0  0
 18 14  1  1  0  0  0
 18 17  1  0  0  0  0
 20 19  1  6  0  0  0
 20 23  1  0  0  0  0
 20 27  1  0  0  0  0
 21 16  1  6  0  0  0
 21 23  1  0  0  0  0
 23 25  1  6  0  0  0
 24 20  1  0  0  0  0
 26 22  1  6  0  0  0
 26 24  1  0  0  0  0
 26 21  1  0  0  0  0
 27 28  1  0  0  0  0
 28 29  2  0  0  0  0
 30 28  1  6  0  0  0
 30 34  1  0  0  0  0
 31 33  1  0  0  0  0
 33 32  1  0  0  0  0
 34 32  1  0  0  0  0
 35 31  1  0  0  0  0
 35 30  1  0  0  0  0
 36  1  2  0  0  0  0
 37 40  1  0  0  0  0
 38 43  1  0  0  0  0
 39 42  1  0  0  0  0
 39 38  1  0  0  0  0
 40 41  1  0  0  0  0
 41 36  1  0  0  0  0
 42 37  1  0  0  0  0
 43 41  1  0  0  0  0
M  END
>  <MODEL>
9

>  <REMARK>
 VINA RESULT:      -7.5      3.100      7.126
  Name = 
  7 active torsions:
  status: ('A' for Active; 'I' for Inactive)
    1  A    between atoms: C_1  and  N_28
    2  A    between atoms: C_2  and  C_6
    3  A    between atoms: C_4  and  O_22
    4  A    between atoms: C_11  and  C_14
    5  A    between atoms: C_13  and  N_38
    6  A    between atoms: C_14  and  O_22
    7  A    between atoms: N_28  and  C_35
                            x       y       z     vdW  Elec       q    Type
                         _______ _______ _______ _____ _____    ______ ____

>  <TORSDO>
F 7

$$$$
