=
 OpenBabel11052418523D

 34 38  0  0  1  0  0  0  0  0999 V2000
  184.6350  178.2930  144.0260 C   0  0  0  0  0  0  0  0  0  0  0  0
  186.3070  178.0610  145.3620 C   0  0  0  0  0  0  0  0  0  0  0  0
  186.7100  177.7260  143.0490 C   0  0  0  0  0  0  0  0  0  0  0  0
  189.1830  177.0640  142.4710 C   0  0  2  0  0  3  0  0  0  0  0  0
  185.1720  178.3860  146.0890 C   0  0  0  0  0  0  0  0  0  0  0  0
  185.0960  178.5500  147.5650 C   0  0  0  0  0  1  0  0  0  0  0  0
  188.5390  177.4890  144.6890 C   0  0  0  0  0  0  0  0  0  0  0  0
  185.9260  178.0150  144.0940 N   0  0  0  0  0  0  0  0  0  0  0  0
  190.3960  176.8830  143.4260 C   0  0  0  0  0  2  0  0  0  0  0  0
  184.1020  178.5350  145.2480 N   0  0  0  0  0  0  0  0  0  0  0  0
  184.8180  177.9960  141.6610 C   0  0  0  0  0  3  0  0  0  0  0  0
  184.0020  178.2990  142.7840 C   0  0  0  0  0  3  0  0  0  0  0  0
  187.7170  177.7840  145.7260 C   0  0  0  0  0  3  0  0  0  0  0  0
  189.9130  177.1850  144.7750 N   0  0  0  0  0  0  0  0  0  0  0  0
  188.0820  177.4410  143.3440 N   0  0  0  0  0  0  0  0  0  0  0  0
  186.1570  177.7130  141.8050 N   0  0  0  0  0  0  0  0  0  0  0  0
  190.6380  176.8670  145.9980 C   0  0  0  0  0  2  0  0  0  0  0  0
  192.0430  176.4560  145.6880 C   0  0  0  0  0  3  0  0  0  0  0  0
  192.9280  176.2740  146.6640 C   0  0  0  0  0  3  0  0  0  0  0  0
  194.3260  175.8630  146.3430 C   0  0  0  0  0  2  0  0  0  0  0  0
  194.8740  176.7260  145.3530 O   0  0  0  0  0  0  0  0  0  0  0  0
  195.4210  176.2600  144.1530 C   0  0  0  0  0  0  0  0  0  0  0  0
  196.3930  176.8750  143.6420 O   0  0  0  0  0  0  0  0  0  0  0  0
  193.7560  175.3850  142.5620 C   0  0  0  0  0  1  0  0  0  0  0  0
  194.9060  175.0290  143.4820 C   0  0  0  0  0  2  0  0  0  0  0  0
  188.8720  175.7440  141.7880 C   0  0  0  0  0  2  0  0  0  0  0  0
  188.4760  174.7800  142.7550 O   0  0  0  0  0  0  0  0  0  0  0  0
  191.1910  171.2290  142.9340 C   0  0  0  0  0  3  0  0  0  0  0  0
  190.0920  171.4380  142.2100 C   0  0  0  0  0  3  0  0  0  0  0  0
  189.2520  173.6600  143.0660 C   0  0  0  0  0  0  0  0  0  0  0  0
  189.3550  172.7150  142.1220 C   0  0  0  0  0  3  0  0  0  0  0  0
  190.9820  172.9100  144.7240 C   0  0  0  0  0  3  0  0  0  0  0  0
  189.8430  173.5350  144.4230 C   0  0  0  0  0  3  0  0  0  0  0  0
  191.8800  172.3100  143.6970 C   0  0  0  0  0  2  0  0  0  0  0  0
  1  8  1  0  0  0  0
  1 10  2  0  0  0  0
  2 13  1  0  0  0  0
  2  5  2  0  0  0  0
  3 15  1  0  0  0  0
  3  8  1  0  0  0  0
  4 26  1  1  0  0  0
  4 15  1  0  0  0  0
  4  9  1  0  0  0  0
  5  6  1  0  0  0  0
  7 14  1  0  0  0  0
  7 13  2  0  0  0  0
  8  2  1  0  0  0  0
  9 14  1  0  0  0  0
 10  5  1  0  0  0  0
 11 16  1  0  0  0  0
 11 12  2  0  0  0  0
 12  1  1  0  0  0  0
 14 17  1  0  0  0  0
 15  7  1  0  0  0  0
 16  3  2  0  0  0  0
 18 17  1  0  0  0  0
 18 19  2  0  0  0  0
 20 19  1  0  0  0  0
 21 20  1  0  0  0  0
 22 21  1  0  0  0  0
 23 22  2  0  0  0  0
 24 25  1  0  0  0  0
 25 22  1  0  0  0  0
 26 27  1  0  0  0  0
 27 30  1  0  0  0  0
 28 34  1  0  0  0  0
 29 28  2  0  0  0  0
 30 33  1  0  0  0  0
 31 29  1  0  0  0  0
 31 30  2  0  0  0  0
 33 32  2  0  0  0  0
 34 32  1  0  0  0  0
M  END
>  <MODEL>
1

>  <REMARK>
 VINA RESULT:      -7.2      0.000      0.000
  Name = 
  9 active torsions:
  status: ('A' for Active; 'I' for Inactive)
    1  A    between atoms: C_3  and  C_17
    2  A    between atoms: C_5  and  C_26
    3  A    between atoms: C_12  and  O_28
    4  A    between atoms: C_13  and  C_33
    5  A    between atoms: C_14  and  C_20
    6  A    between atoms: C_17  and  N_29
    7  A    between atoms: C_20  and  O_34
    8  A    between atoms: C_26  and  O_28
    9  A    between atoms: C_33  and  O_34
                            x       y       z     vdW  Elec       q    Type
                         _______ _______ _______ _____ _____    ______ ____

>  <TORSDO>
F 9

$$$$
=
 OpenBabel11052418523D

 34 38  0  0  1  0  0  0  0  0999 V2000
  193.7360  173.6800  143.6080 C   0  0  0  0  0  0  0  0  0  0  0  0
  191.6320  173.5540  143.1710 C   0  0  0  0  0  0  0  0  0  0  0  0
  192.6090  175.7140  143.1900 C   0  0  0  0  0  0  0  0  0  0  0  0
  190.9210  177.6660  142.7080 C   0  0  2  0  0  3  0  0  0  0  0  0
  192.1380  172.2820  143.3950 C   0  0  0  0  0  0  0  0  0  0  0  0
  191.3640  171.0130  143.3500 C   0  0  0  0  0  1  0  0  0  0  0  0
  190.2060  175.4280  142.7060 C   0  0  0  0  0  0  0  0  0  0  0  0
  192.6550  174.3840  143.3130 N   0  0  0  0  0  0  0  0  0  0  0  0
  189.3990  177.5890  142.4020 C   0  0  0  0  0  2  0  0  0  0  0  0
  193.4760  172.3520  143.6750 N   0  0  0  0  0  0  0  0  0  0  0  0
  194.9190  175.7560  143.6840 C   0  0  0  0  0  3  0  0  0  0  0  0
  194.9460  174.3420  143.8120 C   0  0  0  0  0  3  0  0  0  0  0  0
  190.2870  174.0820  142.8400 C   0  0  0  0  0  3  0  0  0  0  0  0
  189.0460  176.1680  142.4000 N   0  0  0  0  0  0  0  0  0  0  0  0
  191.3310  176.2800  142.8780 N   0  0  0  0  0  0  0  0  0  0  0  0
  193.7560  176.4250  143.3770 N   0  0  0  0  0  0  0  0  0  0  0  0
  187.6800  175.6610  142.4380 C   0  0  0  0  0  2  0  0  0  0  0  0
  186.7160  176.7610  142.7500 C   0  0  0  0  0  3  0  0  0  0  0  0
  185.8820  177.2180  141.8200 C   0  0  0  0  0  3  0  0  0  0  0  0
  184.9250  178.3160  142.1430 C   0  0  0  0  0  2  0  0  0  0  0  0
  184.3580  178.1060  143.4300 O   0  0  0  0  0  0  0  0  0  0  0  0
  184.6370  178.9240  144.5300 C   0  0  0  0  0  0  0  0  0  0  0  0
  185.3360  179.9580  144.3640 O   0  0  0  0  0  0  0  0  0  0  0  0
  184.8140  177.4230  146.4750 C   0  0  0  0  0  1  0  0  0  0  0  0
  184.0970  178.6230  145.8900 C   0  0  0  0  0  2  0  0  0  0  0  0
  191.1420  178.4310  144.0010 C   0  0  0  0  0  2  0  0  0  0  0  0
  190.0040  178.2990  144.8430 O   0  0  0  0  0  0  0  0  0  0  0  0
  188.8790  174.7110  147.2670 C   0  0  0  0  0  3  0  0  0  0  0  0
  188.1840  175.8120  146.9830 C   0  0  0  0  0  3  0  0  0  0  0  0
  189.8570  177.2490  145.7540 C   0  0  0  0  0  0  0  0  0  0  0  0
  188.6050  176.8710  146.0440 C   0  0  0  0  0  3  0  0  0  0  0  0
  191.1990  175.4090  146.8100 C   0  0  0  0  0  3  0  0  0  0  0  0
  191.0620  176.6700  146.4010 C   0  0  0  0  0  3  0  0  0  0  0  0
  190.1610  174.3610  146.5880 C   0  0  0  0  0  2  0  0  0  0  0  0
  1 10  2  0  0  0  0
  1 12  1  0  0  0  0
  2  8  1  0  0  0  0
  2  5  2  0  0  0  0
  3  8  1  0  0  0  0
  3 16  2  0  0  0  0
  4 15  1  0  0  0  0
  4 26  1  1  0  0  0
  5 10  1  0  0  0  0
  6  5  1  0  0  0  0
  7 13  2  0  0  0  0
  7 15  1  0  0  0  0
  8  1  1  0  0  0  0
  9  4  1  0  0  0  0
 11 12  2  0  0  0  0
 13  2  1  0  0  0  0
 14  9  1  0  0  0  0
 14 17  1  0  0  0  0
 14  7  1  0  0  0  0
 15  3  1  0  0  0  0
 16 11  1  0  0  0  0
 17 18  1  0  0  0  0
 19 20  1  0  0  0  0
 19 18  2  0  0  0  0
 20 21  1  0  0  0  0
 21 22  1  0  0  0  0
 22 25  1  0  0  0  0
 23 22  2  0  0  0  0
 25 24  1  0  0  0  0
 26 27  1  0  0  0  0
 27 30  1  0  0  0  0
 29 28  2  0  0  0  0
 30 31  2  0  0  0  0
 30 33  1  0  0  0  0
 31 29  1  0  0  0  0
 33 32  2  0  0  0  0
 34 32  1  0  0  0  0
 34 28  1  0  0  0  0
M  END
>  <MODEL>
2

>  <REMARK>
 VINA RESULT:      -7.2      2.548      7.731
  Name = 
  9 active torsions:
  status: ('A' for Active; 'I' for Inactive)
    1  A    between atoms: C_3  and  C_17
    2  A    between atoms: C_5  and  C_26
    3  A    between atoms: C_12  and  O_28
    4  A    between atoms: C_13  and  C_33
    5  A    between atoms: C_14  and  C_20
    6  A    between atoms: C_17  and  N_29
    7  A    between atoms: C_20  and  O_34
    8  A    between atoms: C_26  and  O_28
    9  A    between atoms: C_33  and  O_34
                            x       y       z     vdW  Elec       q    Type
                         _______ _______ _______ _____ _____    ______ ____

>  <TORSDO>
F 9

$$$$
=
 OpenBabel11052418523D

 34 38  0  0  1  0  0  0  0  0999 V2000
  185.0630  178.5730  145.6300 C   0  0  0  0  0  0  0  0  0  0  0  0
  185.5530  177.4970  143.8310 C   0  0  0  0  0  0  0  0  0  0  0  0
  186.9820  177.1970  145.6990 C   0  0  0  0  0  0  0  0  0  0  0  0
  189.0140  175.5950  145.2550 C   0  0  2  0  0  3  0  0  0  0  0  0
  184.4110  178.2560  143.6240 C   0  0  0  0  0  0  0  0  0  0  0  0
  183.6310  178.3340  142.3590 C   0  0  0  0  0  1  0  0  0  0  0  0
  187.4310  176.0250  143.5740 C   0  0  0  0  0  0  0  0  0  0  0  0
  185.9190  177.7250  145.0840 N   0  0  0  0  0  0  0  0  0  0  0  0
  189.3850  174.8220  143.9600 C   0  0  0  0  0  2  0  0  0  0  0  0
  184.0920  178.9450  144.7620 N   0  0  0  0  0  0  0  0  0  0  0  0
  186.3710  178.4190  147.6260 C   0  0  0  0  0  3  0  0  0  0  0  0
  185.2470  178.9710  146.9540 C   0  0  0  0  0  3  0  0  0  0  0  0
  186.3470  176.5790  142.9790 C   0  0  0  0  0  3  0  0  0  0  0  0
  188.3420  175.1280  142.9790 N   0  0  0  0  0  0  0  0  0  0  0  0
  187.7910  176.3080  144.9200 N   0  0  0  0  0  0  0  0  0  0  0  0
  187.2240  177.5430  146.9940 N   0  0  0  0  0  0  0  0  0  0  0  0
  188.4460  174.8450  141.5530 C   0  0  0  0  0  2  0  0  0  0  0  0
  189.4640  173.7790  141.2980 C   0  0  0  0  0  3  0  0  0  0  0  0
  190.1690  173.7680  140.1700 C   0  0  0  0  0  3  0  0  0  0  0  0
  191.1820  172.7000  139.9270 C   0  0  0  0  0  2  0  0  0  0  0  0
  192.3280  172.9180  140.7410 O   0  0  0  0  0  0  0  0  0  0  0  0
  193.1450  174.0470  140.6200 C   0  0  0  0  0  0  0  0  0  0  0  0
  193.4580  174.4580  139.4720 O   0  0  0  0  0  0  0  0  0  0  0  0
  192.5270  175.7030  142.3350 C   0  0  0  0  0  1  0  0  0  0  0  0
  193.6270  174.8000  141.8170 C   0  0  0  0  0  2  0  0  0  0  0  0
  190.1140  176.5880  145.5880 C   0  0  0  0  0  2  0  0  0  0  0  0
  190.9360  176.0710  146.6270 O   0  0  0  0  0  0  0  0  0  0  0  0
  194.9900  174.6830  145.3400 C   0  0  0  0  0  3  0  0  0  0  0  0
  193.9100  173.9840  145.6880 C   0  0  0  0  0  3  0  0  0  0  0  0
  192.2870  175.7680  146.4390 C   0  0  0  0  0  0  0  0  0  0  0  0
  192.5730  174.5510  145.9540 C   0  0  0  0  0  3  0  0  0  0  0  0
  194.5190  176.9080  146.2910 C   0  0  0  0  0  3  0  0  0  0  0  0
  193.3210  176.7500  146.8540 C   0  0  0  0  0  3  0  0  0  0  0  0
  194.9600  176.1530  145.0840 C   0  0  0  0  0  2  0  0  0  0  0  0
  1 12  1  0  0  0  0
  2  8  1  0  0  0  0
  3 16  2  0  0  0  0
  4 26  1  6  0  0  0
  5  2  2  0  0  0  0
  5 10  1  0  0  0  0
  6  5  1  0  0  0  0
  7 15  1  0  0  0  0
  8  1  1  0  0  0  0
  8  3  1  0  0  0  0
  9  4  1  0  0  0  0
 10  1  2  0  0  0  0
 12 11  2  0  0  0  0
 13  7  2  0  0  0  0
 13  2  1  0  0  0  0
 14  7  1  0  0  0  0
 14  9  1  0  0  0  0
 15  4  1  0  0  0  0
 15  3  1  0  0  0  0
 16 11  1  0  0  0  0
 17 14  1  0  0  0  0
 18 17  1  0  0  0  0
 19 18  2  0  0  0  0
 20 19  1  0  0  0  0
 20 21  1  0  0  0  0
 22 21  1  0  0  0  0
 22 25  1  0  0  0  0
 23 22  2  0  0  0  0
 25 24  1  0  0  0  0
 26 27  1  0  0  0  0
 28 29  2  0  0  0  0
 29 31  1  0  0  0  0
 30 27  1  0  0  0  0
 30 33  1  0  0  0  0
 31 30  2  0  0  0  0
 32 33  2  0  0  0  0
 34 28  1  0  0  0  0
 34 32  1  0  0  0  0
M  END
>  <MODEL>
3

>  <REMARK>
 VINA RESULT:      -6.9      2.203      4.559
  Name = 
  9 active torsions:
  status: ('A' for Active; 'I' for Inactive)
    1  A    between atoms: C_3  and  C_17
    2  A    between atoms: C_5  and  C_26
    3  A    between atoms: C_12  and  O_28
    4  A    between atoms: C_13  and  C_33
    5  A    between atoms: C_14  and  C_20
    6  A    between atoms: C_17  and  N_29
    7  A    between atoms: C_20  and  O_34
    8  A    between atoms: C_26  and  O_28
    9  A    between atoms: C_33  and  O_34
                            x       y       z     vdW  Elec       q    Type
                         _______ _______ _______ _____ _____    ______ ____

>  <TORSDO>
F 9

$$$$
=
 OpenBabel11052418523D

 34 38  0  0  1  0  0  0  0  0999 V2000
  185.9490  178.7360  144.9250 C   0  0  0  0  0  0  0  0  0  0  0  0
  186.9470  177.3640  143.6000 C   0  0  0  0  0  0  0  0  0  0  0  0
  187.3490  177.1160  145.9240 C   0  0  0  0  0  0  0  0  0  0  0  0
  189.0250  175.1890  146.5280 C   0  0  2  0  0  3  0  0  0  0  0  0
  186.1740  178.2460  142.8600 C   0  0  0  0  0  0  0  0  0  0  0  0
  186.0430  178.2630  141.3790 C   0  0  0  0  0  1  0  0  0  0  0  0
  188.4320  175.6110  144.2950 C   0  0  0  0  0  0  0  0  0  0  0  0
  186.7760  177.7050  144.8690 N   0  0  0  0  0  0  0  0  0  0  0  0
  189.7600  174.1990  145.5820 C   0  0  0  0  0  2  0  0  0  0  0  0
  185.5350  179.1240  143.6940 N   0  0  0  0  0  0  0  0  0  0  0  0
  186.2160  178.6670  147.3000 C   0  0  0  0  0  3  0  0  0  0  0  0
  185.6190  179.2800  146.1660 C   0  0  0  0  0  3  0  0  0  0  0  0
  187.8370  176.2310  143.2470 C   0  0  0  0  0  3  0  0  0  0  0  0
  189.3200  174.5180  144.2220 N   0  0  0  0  0  0  0  0  0  0  0  0
  188.2260  176.0200  145.6410 N   0  0  0  0  0  0  0  0  0  0  0  0
  187.0720  177.5970  147.1670 N   0  0  0  0  0  0  0  0  0  0  0  0
  189.9690  174.0300  143.0120 C   0  0  0  0  0  2  0  0  0  0  0  0
  191.0530  173.0570  143.3500 C   0  0  0  0  0  3  0  0  0  0  0  0
  192.3090  173.2780  142.9680 C   0  0  0  0  0  3  0  0  0  0  0  0
  193.3820  172.3000  143.3100 C   0  0  0  0  0  2  0  0  0  0  0  0
  194.1510  172.7810  144.4050 O   0  0  0  0  0  0  0  0  0  0  0  0
  195.5440  172.6720  144.4650 C   0  0  0  0  0  0  0  0  0  0  0  0
  196.2220  172.8810  143.4250 O   0  0  0  0  0  0  0  0  0  0  0  0
  197.0880  173.5340  146.1800 C   0  0  0  0  0  1  0  0  0  0  0  0
  196.2510  172.3490  145.7410 C   0  0  0  0  0  2  0  0  0  0  0  0
  190.0440  176.0460  147.2590 C   0  0  0  0  0  2  0  0  0  0  0  0
  190.7540  176.8540  146.3290 O   0  0  0  0  0  0  0  0  0  0  0  0
  194.5760  176.3160  144.0670 C   0  0  0  0  0  3  0  0  0  0  0  0
  193.3220  176.4190  143.6280 C   0  0  0  0  0  3  0  0  0  0  0  0
  191.9680  176.4600  145.7590 C   0  0  0  0  0  0  0  0  0  0  0  0
  192.1480  176.7450  144.4620 C   0  0  0  0  0  3  0  0  0  0  0  0
  194.2670  175.7170  146.4380 C   0  0  0  0  0  3  0  0  0  0  0  0
  192.9420  175.6910  146.5750 C   0  0  0  0  0  3  0  0  0  0  0  0
  194.9710  176.6110  145.4760 C   0  0  0  0  0  2  0  0  0  0  0  0
  1 12  1  0  0  0  0
  2  8  1  0  0  0  0
  3 16  2  0  0  0  0
  4 26  1  6  0  0  0
  5  2  2  0  0  0  0
  5 10  1  0  0  0  0
  6  5  1  0  0  0  0
  7 15  1  0  0  0  0
  8  1  1  0  0  0  0
  8  3  1  0  0  0  0
  9  4  1  0  0  0  0
 10  1  2  0  0  0  0
 12 11  2  0  0  0  0
 13  2  1  0  0  0  0
 13  7  2  0  0  0  0
 14  7  1  0  0  0  0
 14  9  1  0  0  0  0
 15  3  1  0  0  0  0
 15  4  1  0  0  0  0
 16 11  1  0  0  0  0
 17 18  1  0  0  0  0
 17 14  1  0  0  0  0
 19 20  1  0  0  0  0
 19 18  2  0  0  0  0
 20 21  1  0  0  0  0
 21 22  1  0  0  0  0
 22 25  1  0  0  0  0
 23 22  2  0  0  0  0
 25 24  1  0  0  0  0
 27 26  1  0  0  0  0
 28 34  1  0  0  0  0
 29 28  2  0  0  0  0
 29 31  1  0  0  0  0
 30 27  1  0  0  0  0
 30 33  1  0  0  0  0
 31 30  2  0  0  0  0
 32 33  2  0  0  0  0
 34 32  1  0  0  0  0
M  END
>  <MODEL>
4

>  <REMARK>
 VINA RESULT:      -6.9      2.086      4.316
  Name = 
  9 active torsions:
  status: ('A' for Active; 'I' for Inactive)
    1  A    between atoms: C_3  and  C_17
    2  A    between atoms: C_5  and  C_26
    3  A    between atoms: C_12  and  O_28
    4  A    between atoms: C_13  and  C_33
    5  A    between atoms: C_14  and  C_20
    6  A    between atoms: C_17  and  N_29
    7  A    between atoms: C_20  and  O_34
    8  A    between atoms: C_26  and  O_28
    9  A    between atoms: C_33  and  O_34
                            x       y       z     vdW  Elec       q    Type
                         _______ _______ _______ _____ _____    ______ ____

>  <TORSDO>
F 9

$$$$
=
 OpenBabel11052418523D

 34 38  0  0  1  0  0  0  0  0999 V2000
  194.9250  175.5310  143.2290 C   0  0  0  0  0  0  0  0  0  0  0  0
  193.4850  175.6550  144.8240 C   0  0  0  0  0  0  0  0  0  0  0  0
  193.0250  174.1370  143.0620 C   0  0  0  0  0  0  0  0  0  0  0  0
  190.7530  172.8470  143.3170 C   0  0  2  0  0  3  0  0  0  0  0  0
  194.5290  176.5340  145.0700 C   0  0  0  0  0  0  0  0  0  0  0  0
  194.6540  177.4370  146.2450 C   0  0  0  0  0  1  0  0  0  0  0  0
  191.4560  174.3800  144.9520 C   0  0  0  0  0  0  0  0  0  0  0  0
  193.7730  175.0580  143.6770 N   0  0  0  0  0  0  0  0  0  0  0  0
  189.7000  172.9350  144.4560 C   0  0  0  0  0  2  0  0  0  0  0  0
  195.4500  176.4630  144.0600 N   0  0  0  0  0  0  0  0  0  0  0  0
  194.6560  174.0710  141.3550 C   0  0  0  0  0  3  0  0  0  0  0  0
  195.4360  175.0520  142.0230 C   0  0  0  0  0  3  0  0  0  0  0  0
  192.2370  175.3130  145.5480 C   0  0  0  0  0  3  0  0  0  0  0  0
  190.2250  173.8900  145.4350 N   0  0  0  0  0  0  0  0  0  0  0  0
  191.8020  173.7730  143.7130 N   0  0  0  0  0  0  0  0  0  0  0  0
  193.4630  173.6260  141.8780 N   0  0  0  0  0  0  0  0  0  0  0  0
  189.4380  174.4820  146.5090 C   0  0  0  0  0  2  0  0  0  0  0  0
  188.5860  175.5960  145.9890 C   0  0  0  0  0  3  0  0  0  0  0  0
  188.7240  176.8330  146.4570 C   0  0  0  0  0  3  0  0  0  0  0  0
  187.8680  177.9360  145.9300 C   0  0  0  0  0  2  0  0  0  0  0  0
  186.6280  177.9660  146.6260 O   0  0  0  0  0  0  0  0  0  0  0  0
  185.4110  178.2680  146.0040 C   0  0  0  0  0  0  0  0  0  0  0  0
  184.3560  177.7240  146.4230 O   0  0  0  0  0  0  0  0  0  0  0  0
  184.1030  178.9590  144.0350 C   0  0  0  0  0  1  0  0  0  0  0  0
  185.3270  179.2480  144.8800 C   0  0  0  0  0  2  0  0  0  0  0  0
  190.1280  173.3040  142.0110 C   0  0  0  0  0  2  0  0  0  0  0  0
  188.8030  173.7660  142.2420 O   0  0  0  0  0  0  0  0  0  0  0  0
  188.4290  178.2210  142.0620 C   0  0  0  0  0  3  0  0  0  0  0  0
  189.4450  177.4560  142.4630 C   0  0  0  0  0  3  0  0  0  0  0  0
  188.4870  175.1220  142.3570 C   0  0  0  0  0  0  0  0  0  0  0  0
  189.5110  175.9870  142.3390 C   0  0  0  0  0  3  0  0  0  0  0  0
  186.5180  176.6680  142.1610 C   0  0  0  0  0  3  0  0  0  0  0  0
  187.0740  175.5270  142.5690 C   0  0  0  0  0  3  0  0  0  0  0  0
  187.2410  177.6800  141.3400 C   0  0  0  0  0  2  0  0  0  0  0  0
  1  8  1  0  0  0  0
  1 10  2  0  0  0  0
  2  5  2  0  0  0  0
  2 13  1  0  0  0  0
  3  8  1  0  0  0  0
  3 15  1  0  0  0  0
  4 26  1  6  0  0  0
  4 15  1  0  0  0  0
  4  9  1  0  0  0  0
  5  6  1  0  0  0  0
  7 14  1  0  0  0  0
  7 13  2  0  0  0  0
  8  2  1  0  0  0  0
  9 14  1  0  0  0  0
 10  5  1  0  0  0  0
 11 16  1  0  0  0  0
 11 12  2  0  0  0  0
 12  1  1  0  0  0  0
 14 17  1  0  0  0  0
 15  7  1  0  0  0  0
 16  3  2  0  0  0  0
 18 19  2  0  0  0  0
 18 17  1  0  0  0  0
 20 19  1  0  0  0  0
 20 21  1  0  0  0  0
 22 23  2  0  0  0  0
 22 21  1  0  0  0  0
 24 25  1  0  0  0  0
 25 22  1  0  0  0  0
 26 27  1  0  0  0  0
 27 30  1  0  0  0  0
 28 29  2  0  0  0  0
 30 33  1  0  0  0  0
 31 30  2  0  0  0  0
 31 29  1  0  0  0  0
 32 33  2  0  0  0  0
 34 28  1  0  0  0  0
 34 32  1  0  0  0  0
M  END
>  <MODEL>
5

>  <REMARK>
 VINA RESULT:      -6.9      3.188      7.528
  Name = 
  9 active torsions:
  status: ('A' for Active; 'I' for Inactive)
    1  A    between atoms: C_3  and  C_17
    2  A    between atoms: C_5  and  C_26
    3  A    between atoms: C_12  and  O_28
    4  A    between atoms: C_13  and  C_33
    5  A    between atoms: C_14  and  C_20
    6  A    between atoms: C_17  and  N_29
    7  A    between atoms: C_20  and  O_34
    8  A    between atoms: C_26  and  O_28
    9  A    between atoms: C_33  and  O_34
                            x       y       z     vdW  Elec       q    Type
                         _______ _______ _______ _____ _____    ______ ____

>  <TORSDO>
F 9

$$$$
=
 OpenBabel11052418523D

 34 38  0  0  1  0  0  0  0  0999 V2000
  195.6900  172.0550  145.5640 C   0  0  0  0  0  0  0  0  0  0  0  0
  193.8060  171.8570  144.5430 C   0  0  0  0  0  0  0  0  0  0  0  0
  194.7990  174.0100  144.5810 C   0  0  0  0  0  0  0  0  0  0  0  0
  193.3880  175.8700  143.3810 C   0  0  2  0  0  3  0  0  0  0  0  0
  194.1840  170.6290  145.0630 C   0  0  0  0  0  0  0  0  0  0  0  0
  193.4190  169.3580  144.9500 C   0  0  0  0  0  1  0  0  0  0  0  0
  192.6380  173.6450  143.4470 C   0  0  0  0  0  0  0  0  0  0  0  0
  194.7660  172.7060  144.8770 N   0  0  0  0  0  0  0  0  0  0  0  0
  192.0220  175.7430  142.6500 C   0  0  0  0  0  2  0  0  0  0  0  0
  195.3820  170.7440  145.7160 N   0  0  0  0  0  0  0  0  0  0  0  0
  196.8620  174.1330  145.7270 C   0  0  0  0  0  3  0  0  0  0  0  0
  196.8070  172.7460  146.0320 C   0  0  0  0  0  3  0  0  0  0  0  0
  192.6340  172.3270  143.7650 C   0  0  0  0  0  3  0  0  0  0  0  0
  191.6420  174.3300  142.7210 N   0  0  0  0  0  0  0  0  0  0  0  0
  193.6870  174.5210  143.8370 N   0  0  0  0  0  0  0  0  0  0  0  0
  195.8610  174.7470  145.0080 N   0  0  0  0  0  0  0  0  0  0  0  0
  190.3110  173.8210  142.4170 C   0  0  0  0  0  2  0  0  0  0  0  0
  189.3740  174.9450  142.1030 C   0  0  0  0  0  3  0  0  0  0  0  0
  188.2220  175.0710  142.7560 C   0  0  0  0  0  3  0  0  0  0  0  0
  187.2950  176.1950  142.4340 C   0  0  0  0  0  2  0  0  0  0  0  0
  186.4220  176.4370  143.5310 O   0  0  0  0  0  0  0  0  0  0  0  0
  185.5380  177.5200  143.5770 C   0  0  0  0  0  0  0  0  0  0  0  0
  184.6810  177.6530  142.6650 O   0  0  0  0  0  0  0  0  0  0  0  0
  184.8080  177.9430  145.8920 C   0  0  0  0  0  1  0  0  0  0  0  0
  185.5600  178.5030  144.7020 C   0  0  0  0  0  2  0  0  0  0  0  0
  193.2420  176.7960  144.5750 C   0  0  0  0  0  2  0  0  0  0  0  0
  191.9320  177.3490  144.6030 O   0  0  0  0  0  0  0  0  0  0  0  0
  188.3230  176.0210  146.8900 C   0  0  0  0  0  3  0  0  0  0  0  0
  188.5220  177.1130  146.1510 C   0  0  0  0  0  3  0  0  0  0  0  0
  190.9640  176.9490  145.5290 C   0  0  0  0  0  0  0  0  0  0  0  0
  189.7110  177.3750  145.3160 C   0  0  0  0  0  3  0  0  0  0  0  0
  190.6220  175.2630  147.3570 C   0  0  0  0  0  3  0  0  0  0  0  0
  191.3730  176.1600  146.7180 C   0  0  0  0  0  3  0  0  0  0  0  0
  189.2620  174.8620  146.8960 C   0  0  0  0  0  2  0  0  0  0  0  0
  1 10  2  0  0  0  0
  1 12  1  0  0  0  0
  2  8  1  0  0  0  0
  2  5  2  0  0  0  0
  3  8  1  0  0  0  0
  3 16  2  0  0  0  0
  4 15  1  0  0  0  0
  4 26  1  1  0  0  0
  5 10  1  0  0  0  0
  6  5  1  0  0  0  0
  7 13  2  0  0  0  0
  7 15  1  0  0  0  0
  8  1  1  0  0  0  0
  9 14  1  0  0  0  0
  9  4  1  0  0  0  0
 11 12  2  0  0  0  0
 13  2  1  0  0  0  0
 14  7  1  0  0  0  0
 15  3  1  0  0  0  0
 16 11  1  0  0  0  0
 17 14  1  0  0  0  0
 18 17  1  0  0  0  0
 18 19  2  0  0  0  0
 20 19  1  0  0  0  0
 20 21  1  0  0  0  0
 21 22  1  0  0  0  0
 22 25  1  0  0  0  0
 23 22  2  0  0  0  0
 25 24  1  0  0  0  0
 26 27  1  0  0  0  0
 27 30  1  0  0  0  0
 28 34  1  0  0  0  0
 29 28  2  0  0  0  0
 30 33  1  0  0  0  0
 31 30  2  0  0  0  0
 31 29  1  0  0  0  0
 33 32  2  0  0  0  0
 34 32  1  0  0  0  0
M  END
>  <MODEL>
6

>  <REMARK>
 VINA RESULT:      -6.8      3.179      8.599
  Name = 
  9 active torsions:
  status: ('A' for Active; 'I' for Inactive)
    1  A    between atoms: C_3  and  C_17
    2  A    between atoms: C_5  and  C_26
    3  A    between atoms: C_12  and  O_28
    4  A    between atoms: C_13  and  C_33
    5  A    between atoms: C_14  and  C_20
    6  A    between atoms: C_17  and  N_29
    7  A    between atoms: C_20  and  O_34
    8  A    between atoms: C_26  and  O_28
    9  A    between atoms: C_33  and  O_34
                            x       y       z     vdW  Elec       q    Type
                         _______ _______ _______ _____ _____    ______ ____

>  <TORSDO>
F 9

$$$$
=
 OpenBabel11052418523D

 34 38  0  0  1  0  0  0  0  0999 V2000
  184.9380  178.5890  145.8750 C   0  0  0  0  0  0  0  0  0  0  0  0
  185.3570  177.7230  143.9490 C   0  0  0  0  0  0  0  0  0  0  0  0
  186.8850  177.2620  145.7030 C   0  0  0  0  0  0  0  0  0  0  0  0
  188.9230  175.7680  144.9920 C   0  0  2  0  0  3  0  0  0  0  0  0
  184.1920  178.4700  143.8800 C   0  0  0  0  0  0  0  0  0  0  0  0
  183.3470  178.6620  142.6700 C   0  0  0  0  0  1  0  0  0  0  0  0
  187.2480  176.3330  143.4460 C   0  0  0  0  0  0  0  0  0  0  0  0
  185.7820  177.8260  145.2000 N   0  0  0  0  0  0  0  0  0  0  0  0
  189.2430  175.1460  143.6050 C   0  0  0  0  0  2  0  0  0  0  0  0
  183.9170  179.0270  145.1000 N   0  0  0  0  0  0  0  0  0  0  0  0
  186.3480  178.2570  147.7770 C   0  0  0  0  0  3  0  0  0  0  0  0
  185.1810  178.8490  147.2230 C   0  0  0  0  0  3  0  0  0  0  0  0
  186.1250  176.9200  142.9670 C   0  0  0  0  0  3  0  0  0  0  0  0
  188.1460  175.5290  142.7140 N   0  0  0  0  0  0  0  0  0  0  0  0
  187.6710  176.4810  144.7950 N   0  0  0  0  0  0  0  0  0  0  0  0
  187.1850  177.4750  147.0140 N   0  0  0  0  0  0  0  0  0  0  0  0
  188.1830  175.4010  141.2630 C   0  0  0  0  0  2  0  0  0  0  0  0
  189.1160  174.3060  140.8520 C   0  0  0  0  0  3  0  0  0  0  0  0
  188.6460  173.1480  140.3950 C   0  0  0  0  0  3  0  0  0  0  0  0
  189.5860  172.0640  139.9880 C   0  0  0  0  0  2  0  0  0  0  0  0
  190.6330  171.9410  140.9430 O   0  0  0  0  0  0  0  0  0  0  0  0
  190.5490  171.1080  142.0640 C   0  0  0  0  0  0  0  0  0  0  0  0
  190.4430  169.8650  141.8970 O   0  0  0  0  0  0  0  0  0  0  0  0
  191.8310  172.5510  143.5940 C   0  0  0  0  0  1  0  0  0  0  0  0
  190.6200  171.6520  143.4530 C   0  0  0  0  0  2  0  0  0  0  0  0
  190.0190  176.7470  145.3760 C   0  0  0  0  0  2  0  0  0  0  0  0
  191.0620  176.7100  144.4100 O   0  0  0  0  0  0  0  0  0  0  0  0
  194.9560  175.3410  146.1360 C   0  0  0  0  0  3  0  0  0  0  0  0
  194.0210  176.1420  146.6460 C   0  0  0  0  0  3  0  0  0  0  0  0
  192.3860  176.4060  144.7410 C   0  0  0  0  0  0  0  0  0  0  0  0
  192.7000  176.4070  146.0430 C   0  0  0  0  0  3  0  0  0  0  0  0
  194.4420  175.3860  143.7250 C   0  0  0  0  0  3  0  0  0  0  0  0
  193.3760  176.1820  143.6560 C   0  0  0  0  0  3  0  0  0  0  0  0
  194.7440  174.5260  144.9050 C   0  0  0  0  0  2  0  0  0  0  0  0
  1 12  1  0  0  0  0
  2  8  1  0  0  0  0
  3 16  2  0  0  0  0
  4 26  1  6  0  0  0
  5  2  2  0  0  0  0
  5 10  1  0  0  0  0
  6  5  1  0  0  0  0
  7 15  1  0  0  0  0
  8  3  1  0  0  0  0
  8  1  1  0  0  0  0
  9  4  1  0  0  0  0
 10  1  2  0  0  0  0
 12 11  2  0  0  0  0
 13  7  2  0  0  0  0
 13  2  1  0  0  0  0
 14  7  1  0  0  0  0
 14  9  1  0  0  0  0
 15  4  1  0  0  0  0
 15  3  1  0  0  0  0
 16 11  1  0  0  0  0
 17 14  1  0  0  0  0
 18 17  1  0  0  0  0
 19 18  2  0  0  0  0
 20 19  1  0  0  0  0
 20 21  1  0  0  0  0
 21 22  1  0  0  0  0
 22 25  1  0  0  0  0
 23 22  2  0  0  0  0
 25 24  1  0  0  0  0
 27 30  1  0  0  0  0
 27 26  1  0  0  0  0
 28 29  2  0  0  0  0
 30 31  2  0  0  0  0
 31 29  1  0  0  0  0
 32 34  1  0  0  0  0
 33 32  2  0  0  0  0
 33 30  1  0  0  0  0
 34 28  1  0  0  0  0
M  END
>  <MODEL>
7

>  <REMARK>
 VINA RESULT:      -6.8      1.860      5.079
  Name = 
  9 active torsions:
  status: ('A' for Active; 'I' for Inactive)
    1  A    between atoms: C_3  and  C_17
    2  A    between atoms: C_5  and  C_26
    3  A    between atoms: C_12  and  O_28
    4  A    between atoms: C_13  and  C_33
    5  A    between atoms: C_14  and  C_20
    6  A    between atoms: C_17  and  N_29
    7  A    between atoms: C_20  and  O_34
    8  A    between atoms: C_26  and  O_28
    9  A    between atoms: C_33  and  O_34
                            x       y       z     vdW  Elec       q    Type
                         _______ _______ _______ _____ _____    ______ ____

>  <TORSDO>
F 9

$$$$
=
 OpenBabel11052418523D

 34 38  0  0  1  0  0  0  0  0999 V2000
  184.6180  178.4910  144.1270 C   0  0  0  0  0  0  0  0  0  0  0  0
  186.3040  177.9890  145.3680 C   0  0  0  0  0  0  0  0  0  0  0  0
  186.5180  177.6030  143.0390 C   0  0  0  0  0  0  0  0  0  0  0  0
  188.8170  176.5550  142.3260 C   0  0  2  0  0  3  0  0  0  0  0  0
  185.2790  178.4890  146.1560 C   0  0  0  0  0  0  0  0  0  0  0  0
  185.3140  178.6570  147.6340 C   0  0  0  0  0  1  0  0  0  0  0  0
  188.3740  177.0690  144.5750 C   0  0  0  0  0  0  0  0  0  0  0  0
  185.8510  178.0090  144.1240 N   0  0  0  0  0  0  0  0  0  0  0  0
  190.0360  176.1780  143.2120 C   0  0  0  0  0  2  0  0  0  0  0  0
  184.2010  178.8110  145.3760 N   0  0  0  0  0  0  0  0  0  0  0  0
  184.6180  178.1790  141.7570 C   0  0  0  0  0  3  0  0  0  0  0  0
  183.9260  178.6040  142.9220 C   0  0  0  0  0  3  0  0  0  0  0  0
  187.6700  177.4870  145.6550 C   0  0  0  0  0  3  0  0  0  0  0  0
  189.6840  176.5480  144.5840 N   0  0  0  0  0  0  0  0  0  0  0  0
  187.8410  177.1000  143.2570 N   0  0  0  0  0  0  0  0  0  0  0  0
  185.9010  177.6840  141.8270 N   0  0  0  0  0  0  0  0  0  0  0  0
  190.4170  176.1130  145.7660 C   0  0  0  0  0  2  0  0  0  0  0  0
  191.8760  176.4120  145.6250 C   0  0  0  0  0  3  0  0  0  0  0  0
  192.6970  176.2960  146.6650 C   0  0  0  0  0  3  0  0  0  0  0  0
  194.1500  176.5970  146.5110 C   0  0  0  0  0  2  0  0  0  0  0  0
  194.8530  175.4250  146.1150 O   0  0  0  0  0  0  0  0  0  0  0  0
  195.6890  175.3790  144.9940 C   0  0  0  0  0  0  0  0  0  0  0  0
  195.5800  176.2690  144.1100 O   0  0  0  0  0  0  0  0  0  0  0  0
  196.8950  173.5600  146.1370 C   0  0  0  0  0  1  0  0  0  0  0  0
  196.7350  174.3240  144.8380 C   0  0  0  0  0  2  0  0  0  0  0  0
  188.2590  175.3050  141.6680 C   0  0  0  0  0  2  0  0  0  0  0  0
  189.3060  174.3700  141.4380 O   0  0  0  0  0  0  0  0  0  0  0  0
  189.6330  173.2370  137.1230 C   0  0  0  0  0  3  0  0  0  0  0  0
  188.5660  173.2990  137.9190 C   0  0  0  0  0  3  0  0  0  0  0  0
  189.5640  173.8210  140.1790 C   0  0  0  0  0  0  0  0  0  0  0  0
  188.5560  173.8320  139.2960 C   0  0  0  0  0  3  0  0  0  0  0  0
  191.4980  173.1390  138.7310 C   0  0  0  0  0  3  0  0  0  0  0  0
  190.8840  173.1940  139.9130 C   0  0  0  0  0  3  0  0  0  0  0  0
  190.9640  173.7920  137.5020 C   0  0  0  0  0  2  0  0  0  0  0  0
  1 10  2  0  0  0  0
  2 13  1  0  0  0  0
  2  5  2  0  0  0  0
  3 15  1  0  0  0  0
  3  8  1  0  0  0  0
  4 26  1  1  0  0  0
  4  9  1  0  0  0  0
  4 15  1  0  0  0  0
  5  6  1  0  0  0  0
  7 14  1  0  0  0  0
  7 13  2  0  0  0  0
  8  1  1  0  0  0  0
  8  2  1  0  0  0  0
  9 14  1  0  0  0  0
 10  5  1  0  0  0  0
 11 16  1  0  0  0  0
 11 12  2  0  0  0  0
 12  1  1  0  0  0  0
 14 17  1  0  0  0  0
 15  7  1  0  0  0  0
 16  3  2  0  0  0  0
 18 17  1  0  0  0  0
 18 19  2  0  0  0  0
 20 19  1  0  0  0  0
 21 20  1  0  0  0  0
 22 21  1  0  0  0  0
 23 22  2  0  0  0  0
 25 22  1  0  0  0  0
 25 24  1  0  0  0  0
 27 26  1  0  0  0  0
 28 34  1  0  0  0  0
 28 29  2  0  0  0  0
 29 31  1  0  0  0  0
 30 27  1  0  0  0  0
 31 30  2  0  0  0  0
 32 33  2  0  0  0  0
 33 30  1  0  0  0  0
 34 32  1  0  0  0  0
M  END
>  <MODEL>
8

>  <REMARK>
 VINA RESULT:      -6.6      2.011      2.577
  Name = 
  9 active torsions:
  status: ('A' for Active; 'I' for Inactive)
    1  A    between atoms: C_3  and  C_17
    2  A    between atoms: C_5  and  C_26
    3  A    between atoms: C_12  and  O_28
    4  A    between atoms: C_13  and  C_33
    5  A    between atoms: C_14  and  C_20
    6  A    between atoms: C_17  and  N_29
    7  A    between atoms: C_20  and  O_34
    8  A    between atoms: C_26  and  O_28
    9  A    between atoms: C_33  and  O_34
                            x       y       z     vdW  Elec       q    Type
                         _______ _______ _______ _____ _____    ______ ____

>  <TORSDO>
F 9

$$$$
=
 OpenBabel11052418523D

 34 38  0  0  1  0  0  0  0  0999 V2000
  184.7120  178.4910  144.1630 C   0  0  0  0  0  0  0  0  0  0  0  0
  186.4240  178.0310  145.3850 C   0  0  0  0  0  0  0  0  0  0  0  0
  186.5420  177.4510  143.0890 C   0  0  0  0  0  0  0  0  0  0  0  0
  188.7780  176.2680  142.3900 C   0  0  2  0  0  3  0  0  0  0  0  0
  185.4440  178.6290  146.1630 C   0  0  0  0  0  0  0  0  0  0  0  0
  185.5370  178.9140  147.6200 C   0  0  0  0  0  1  0  0  0  0  0  0
  188.4330  176.9770  144.6020 C   0  0  0  0  0  0  0  0  0  0  0  0
  185.9270  177.9670  144.1590 N   0  0  0  0  0  0  0  0  0  0  0  0
  190.0160  175.9200  143.2630 C   0  0  0  0  0  2  0  0  0  0  0  0
  184.3500  178.9250  145.3940 N   0  0  0  0  0  0  0  0  0  0  0  0
  184.6180  177.9890  141.8280 C   0  0  0  0  0  3  0  0  0  0  0  0
  183.9820  178.5300  142.9760 C   0  0  0  0  0  3  0  0  0  0  0  0
  187.7810  177.5050  145.6670 C   0  0  0  0  0  3  0  0  0  0  0  0
  189.7250  176.4120  144.6120 N   0  0  0  0  0  0  0  0  0  0  0  0
  187.8550  176.9200  143.3050 N   0  0  0  0  0  0  0  0  0  0  0  0
  185.8850  177.4550  141.8960 N   0  0  0  0  0  0  0  0  0  0  0  0
  190.4840  176.0470  145.8010 C   0  0  0  0  0  2  0  0  0  0  0  0
  191.9270  176.4060  145.6370 C   0  0  0  0  0  3  0  0  0  0  0  0
  192.7460  176.4250  146.6860 C   0  0  0  0  0  3  0  0  0  0  0  0
  194.1830  176.7850  146.5110 C   0  0  0  0  0  2  0  0  0  0  0  0
  194.9470  175.6180  146.2290 O   0  0  0  0  0  0  0  0  0  0  0  0
  195.3270  175.2490  144.9350 C   0  0  0  0  0  0  0  0  0  0  0  0
  195.7250  176.1370  144.1360 O   0  0  0  0  0  0  0  0  0  0  0  0
  194.3360  173.0300  145.3380 C   0  0  0  0  0  1  0  0  0  0  0  0
  195.3060  173.8240  144.4870 C   0  0  0  0  0  2  0  0  0  0  0  0
  188.1570  174.9890  141.8550 C   0  0  0  0  0  2  0  0  0  0  0  0
  188.9840  174.4360  140.8390 O   0  0  0  0  0  0  0  0  0  0  0  0
  190.8030  170.3930  140.2370 C   0  0  0  0  0  3  0  0  0  0  0  0
  190.1760  171.1940  139.3750 C   0  0  0  0  0  3  0  0  0  0  0  0
  189.3750  173.0940  140.8320 C   0  0  0  0  0  0  0  0  0  0  0  0
  189.7450  172.5780  139.6510 C   0  0  0  0  0  3  0  0  0  0  0  0
  190.0740  171.2790  142.4190 C   0  0  0  0  0  3  0  0  0  0  0  0
  189.2860  172.3010  142.0840 C   0  0  0  0  0  3  0  0  0  0  0  0
  191.2350  170.8390  141.5930 C   0  0  0  0  0  2  0  0  0  0  0  0
  1 10  2  0  0  0  0
  2 13  1  0  0  0  0
  2  5  2  0  0  0  0
  3 15  1  0  0  0  0
  3  8  1  0  0  0  0
  4 26  1  1  0  0  0
  4  9  1  0  0  0  0
  4 15  1  0  0  0  0
  5  6  1  0  0  0  0
  7 14  1  0  0  0  0
  7 13  2  0  0  0  0
  8  1  1  0  0  0  0
  8  2  1  0  0  0  0
  9 14  1  0  0  0  0
 10  5  1  0  0  0  0
 11 16  1  0  0  0  0
 11 12  2  0  0  0  0
 12  1  1  0  0  0  0
 14 17  1  0  0  0  0
 15  7  1  0  0  0  0
 16  3  2  0  0  0  0
 18 17  1  0  0  0  0
 18 19  2  0  0  0  0
 20 19  1  0  0  0  0
 21 20  1  0  0  0  0
 22 21  1  0  0  0  0
 23 22  2  0  0  0  0
 25 22  1  0  0  0  0
 25 24  1  0  0  0  0
 27 26  1  0  0  0  0
 28 34  1  0  0  0  0
 29 31  1  0  0  0  0
 29 28  2  0  0  0  0
 30 27  1  0  0  0  0
 30 33  1  0  0  0  0
 31 30  2  0  0  0  0
 33 32  2  0  0  0  0
 34 32  1  0  0  0  0
M  END
>  <MODEL>
9

>  <REMARK>
 VINA RESULT:      -6.6      1.244      1.565
  Name = 
  9 active torsions:
  status: ('A' for Active; 'I' for Inactive)
    1  A    between atoms: C_3  and  C_17
    2  A    between atoms: C_5  and  C_26
    3  A    between atoms: C_12  and  O_28
    4  A    between atoms: C_13  and  C_33
    5  A    between atoms: C_14  and  C_20
    6  A    between atoms: C_17  and  N_29
    7  A    between atoms: C_20  and  O_34
    8  A    between atoms: C_26  and  O_28
    9  A    between atoms: C_33  and  O_34
                            x       y       z     vdW  Elec       q    Type
                         _______ _______ _______ _____ _____    ______ ____

>  <TORSDO>
F 9

$$$$
