=
 OpenBabel11052417063D

 30 35  0  0  1  0  0  0  0  0999 V2000
  187.7100  176.4410  142.8650 C   0  0  1  0  0  3  0  0  0  0  0  0
  188.9220  176.4670  143.7760 C   0  0  1  0  0  0  0  0  0  0  0  0
  187.2510  175.0010  142.6460 C   0  0  0  0  0  2  0  0  0  0  0  0
  190.6080  173.3790  142.0660 C   0  0  0  0  0  2  0  0  0  0  0  0
  191.1680  176.5630  145.5250 C   0  0  1  0  0  3  0  0  0  0  0  0
  189.6490  174.2780  142.8210 C   0  0  2  0  0  3  0  0  0  0  0  0
  188.2400  172.9780  141.3630 C   0  0  0  0  0  2  0  0  0  0  0  0
  189.8040  176.4930  146.1930 C   0  0  2  0  0  3  0  0  0  0  0  0
  188.4280  174.3720  141.9150 C   0  0  1  0  0  3  0  0  0  0  0  0
  190.1710  175.6530  143.3220 C   0  0  2  0  0  3  0  0  0  0  0  0
  189.9470  175.5200  147.3360 C   0  0  0  0  0  2  0  0  0  0  0  0
  192.1610  176.3260  146.6560 C   0  0  0  0  0  2  0  0  0  0  0  0
  189.9960  171.4810  140.7550 O   0  0  0  0  0  0  0  0  0  0  0  0
  189.6530  172.5000  141.3310 C   0  0  0  0  0  0  0  0  0  0  0  0
  186.9840  177.4060  143.8110 C   0  0  1  0  0  0  0  0  0  0  0  0
  188.2710  177.5140  144.6720 C   0  0  1  0  0  3  0  0  0  0  0  0
  188.6320  176.1820  145.2610 C   0  0  1  0  0  3  0  0  0  0  0  0
  191.3800  175.6970  147.8080 C   0  0  0  0  0  2  0  0  0  0  0  0
  191.5350  174.1090  144.9120 C   0  0  0  0  0  1  0  0  0  0  0  0
  191.3080  175.5330  144.3860 C   0  0  2  0  0  3  0  0  0  0  0  0
  186.6280  178.7260  143.0810 C   0  0  2  0  0  3  0  0  0  0  0  0
  185.4130  179.4120  143.6400 C   0  0  0  0  0  3  0  0  0  0  0  0
  185.5110  180.4960  144.1920 O   0  0  0  0  0  0  0  0  0  0  0  0
  186.4520  178.5370  141.5810 C   0  0  0  0  0  2  0  0  0  0  0  0
  185.1080  178.3060  141.2920 O   0  0  0  0  0  1  0  0  0  0  0  0
  185.7350  176.7590  144.4690 C   0  0  0  0  0  2  0  0  0  0  0  0
  185.7500  176.6700  145.9960 C   0  0  0  0  0  2  0  0  0  0  0  0
  185.1790  177.8870  146.6360 C   0  0  0  0  0  0  0  0  0  0  0  0
  185.9390  178.6500  147.4050 C   0  0  0  0  0  2  0  0  0  0  0  0
  183.8440  178.2140  146.4410 O   0  0  0  0  0  1  0  0  0  0  0  0
  1  3  1  1  0  0  0
  1  2  1  0  0  0  0
  1 15  1  0  0  0  0
  2 16  1  0  0  0  0
  2 17  1  0  0  0  0
  4  6  1  0  0  0  0
  5  8  1  0  0  0  0
  5 12  1  0  0  0  0
  6 10  1  0  0  0  0
  7  9  1  0  0  0  0
  8 11  1  0  0  0  0
  9  3  1  0  0  0  0
  9  6  1  0  0  0  0
 10  2  1  0  0  0  0
 10 20  1  0  0  0  0
 11 18  1  0  0  0  0
 12 18  1  0  0  0  0
 13 14  2  0  0  0  0
 14  7  1  0  0  0  0
 14  4  1  0  0  0  0
 15 26  1  0  0  0  0
 15 16  1  0  0  0  0
 16 17  1  0  0  0  0
 17  8  1  0  0  0  0
 20 19  1  0  0  0  0
 20  5  1  0  0  0  0
 21 22  1  0  0  0  0
 21 15  1  0  0  0  0
 22 23  2  0  0  0  0
 24 21  1  0  0  0  0
 25 24  1  0  0  0  0
 26 27  1  0  0  0  0
 27 28  1  0  0  0  0
 28 29  2  0  0  0  0
 30 28  1  0  0  0  0
M  END
>  <MODEL>
1

>  <REMARK>
 VINA RESULT:      -7.9      0.000      0.000
  Name = 
  6 active torsions:
  status: ('A' for Active; 'I' for Inactive)
    1  A    between atoms: C_2  and  C_14
    2  A    between atoms: C_3  and  C_19
    3  A    between atoms: C_14  and  C_20
    4  A    between atoms: C_14  and  C_22
    5  A    between atoms: C_19  and  C_29
    6  A    between atoms: C_22  and  C_29
                            x       y       z     vdW  Elec       q    Type
                         _______ _______ _______ _____ _____    ______ ____

>  <TORSDO>
F 6

$$$$
=
 OpenBabel11052417063D

 30 35  0  0  1  0  0  0  0  0999 V2000
  188.2030  175.8360  142.9170 C   0  0  1  0  0  3  0  0  0  0  0  0
  187.4940  176.1810  144.2130 C   0  0  1  0  0  0  0  0  0  0  0  0
  188.0770  176.9930  141.9280 C   0  0  0  0  0  2  0  0  0  0  0  0
  184.4250  177.8080  142.4140 C   0  0  0  0  0  2  0  0  0  0  0  0
  186.2180  176.8100  146.6800 C   0  0  1  0  0  3  0  0  0  0  0  0
  185.8240  177.5050  142.9120 C   0  0  2  0  0  3  0  0  0  0  0  0
  186.1060  177.9860  140.5680 C   0  0  0  0  0  2  0  0  0  0  0  0
  187.6400  177.3240  146.5130 C   0  0  2  0  0  3  0  0  0  0  0  0
  186.5800  177.0600  141.6650 C   0  0  1  0  0  3  0  0  0  0  0  0
  185.9810  176.5420  144.1210 C   0  0  2  0  0  3  0  0  0  0  0  0
  187.6440  178.7290  147.0590 C   0  0  0  0  0  2  0  0  0  0  0  0
  185.7020  177.5100  147.9310 C   0  0  0  0  0  2  0  0  0  0  0  0
  183.8810  178.8100  140.3170 O   0  0  0  0  0  0  0  0  0  0  0  0
  184.7120  178.2620  141.0220 C   0  0  0  0  0  0  0  0  0  0  0  0
  189.4910  175.5550  143.7020 C   0  0  1  0  0  0  0  0  0  0  0  0
  188.7230  175.7980  145.0280 C   0  0  1  0  0  3  0  0  0  0  0  0
  188.2180  177.2090  145.1020 C   0  0  1  0  0  3  0  0  0  0  0  0
  186.6230  178.7020  148.1850 C   0  0  0  0  0  2  0  0  0  0  0  0
  184.9100  178.5640  145.3600 C   0  0  0  0  0  1  0  0  0  0  0  0
  185.3500  177.0960  145.4390 C   0  0  2  0  0  3  0  0  0  0  0  0
  189.9350  174.0820  143.5170 C   0  0  2  0  0  3  0  0  0  0  0  0
  190.2940  173.3970  144.8060 C   0  0  0  0  0  3  0  0  0  0  0  0
  189.6780  172.4110  145.1760 O   0  0  0  0  0  0  0  0  0  0  0  0
  191.0870  173.9360  142.5330 C   0  0  0  0  0  2  0  0  0  0  0  0
  192.1440  173.2640  143.1460 O   0  0  0  0  0  1  0  0  0  0  0  0
  190.6290  176.5480  143.3430 C   0  0  0  0  0  2  0  0  0  0  0  0
  191.4280  177.1090  144.5200 C   0  0  0  0  0  2  0  0  0  0  0  0
  192.7050  176.3750  144.7340 C   0  0  0  0  0  0  0  0  0  0  0  0
  192.9630  175.8220  145.9090 C   0  0  0  0  0  2  0  0  0  0  0  0
  193.6360  176.2840  143.7080 O   0  0  0  0  0  1  0  0  0  0  0  0
  1  3  1  6  0  0  0
  1 15  1  0  0  0  0
  1  2  1  0  0  0  0
  2 16  1  0  0  0  0
  2 17  1  0  0  0  0
  4  6  1  0  0  0  0
  5 12  1  0  0  0  0
  6 10  1  0  0  0  0
  7 14  1  0  0  0  0
  7  9  1  0  0  0  0
  8  5  1  0  0  0  0
  8 11  1  0  0  0  0
  9  3  1  0  0  0  0
  9  6  1  0  0  0  0
 10  2  1  0  0  0  0
 10 20  1  0  0  0  0
 11 18  1  0  0  0  0
 12 18  1  0  0  0  0
 13 14  2  0  0  0  0
 14  4  1  0  0  0  0
 15 16  1  0  0  0  0
 16 17  1  0  0  0  0
 17  8  1  0  0  0  0
 19 20  1  0  0  0  0
 20  5  1  0  0  0  0
 21 15  1  0  0  0  0
 21 22  1  0  0  0  0
 22 23  2  0  0  0  0
 24 25  1  0  0  0  0
 24 21  1  0  0  0  0
 26 15  1  0  0  0  0
 26 27  1  0  0  0  0
 27 28  1  0  0  0  0
 28 29  2  0  0  0  0
 30 28  1  0  0  0  0
M  END
>  <MODEL>
2

>  <REMARK>
 VINA RESULT:      -7.8      2.120      6.136
  Name = 
  6 active torsions:
  status: ('A' for Active; 'I' for Inactive)
    1  A    between atoms: C_2  and  C_14
    2  A    between atoms: C_3  and  C_19
    3  A    between atoms: C_14  and  C_20
    4  A    between atoms: C_14  and  C_22
    5  A    between atoms: C_19  and  C_29
    6  A    between atoms: C_22  and  C_29
                            x       y       z     vdW  Elec       q    Type
                         _______ _______ _______ _____ _____    ______ ____

>  <TORSDO>
F 6

$$$$
=
 OpenBabel11052417063D

 30 35  0  0  1  0  0  0  0  0999 V2000
  189.4490  176.9780  145.8100 C   0  0  1  0  0  3  0  0  0  0  0  0
  188.9550  177.2420  144.4000 C   0  0  1  0  0  0  0  0  0  0  0  0
  188.3310  176.3630  146.6490 C   0  0  0  0  0  2  0  0  0  0  0  0
  185.4800  178.5930  145.5840 C   0  0  0  0  0  2  0  0  0  0  0  0
  188.0830  177.7060  141.7290 C   0  0  1  0  0  3  0  0  0  0  0  0
  186.6800  177.7060  145.3170 C   0  0  2  0  0  3  0  0  0  0  0  0
  186.1050  177.2720  147.6160 C   0  0  0  0  0  2  0  0  0  0  0  0
  188.5690  176.2980  142.0380 C   0  0  2  0  0  3  0  0  0  0  0  0
  187.2870  177.4690  146.6950 C   0  0  1  0  0  3  0  0  0  0  0  0
  187.7070  178.1620  144.2450 C   0  0  2  0  0  3  0  0  0  0  0  0
  187.6020  175.3630  141.3580 C   0  0  0  0  0  2  0  0  0  0  0  0
  187.4350  177.5950  140.3550 C   0  0  0  0  0  2  0  0  0  0  0  0
  184.0290  178.4410  147.4730 O   0  0  0  0  0  0  0  0  0  0  0  0
  185.0870  178.1360  146.9490 C   0  0  0  0  0  0  0  0  0  0  0  0
  190.6090  176.1500  145.2430 C   0  0  1  0  0  0  0  0  0  0  0  0
  190.1600  176.5230  143.8060 C   0  0  1  0  0  3  0  0  0  0  0  0
  188.7870  175.9900  143.5200 C   0  0  1  0  0  3  0  0  0  0  0  0
  187.1620  176.1120  140.1110 C   0  0  0  0  0  2  0  0  0  0  0  0
  185.7080  177.6160  142.6710 C   0  0  0  0  0  1  0  0  0  0  0  0
  187.1090  178.2300  142.8040 C   0  0  2  0  0  3  0  0  0  0  0  0
  191.9720  176.7740  145.6370 C   0  0  2  0  0  3  0  0  0  0  0  0
  193.0010  176.7050  144.5440 C   0  0  0  0  0  3  0  0  0  0  0  0
  193.9810  175.9860  144.6590 O   0  0  0  0  0  0  0  0  0  0  0  0
  192.5490  176.1680  146.9080 C   0  0  0  0  0  2  0  0  0  0  0  0
  192.0630  176.8570  148.0180 O   0  0  0  0  0  1  0  0  0  0  0  0
  190.5230  174.6550  145.6540 C   0  0  0  0  0  2  0  0  0  0  0  0
  191.1320  173.6520  144.6730 C   0  0  0  0  0  2  0  0  0  0  0  0
  190.1440  172.6330  144.2250 C   0  0  0  0  0  0  0  0  0  0  0  0
  189.9240  172.4450  142.9330 C   0  0  0  0  0  2  0  0  0  0  0  0
  189.4380  171.8890  145.1610 O   0  0  0  0  0  1  0  0  0  0  0  0
  1  3  1  1  0  0  0
  2  1  1  0  0  0  0
  3  9  1  0  0  0  0
  4 14  1  0  0  0  0
  5  8  1  0  0  0  0
  5 20  1  0  0  0  0
  6  4  1  0  0  0  0
  6  9  1  0  0  0  0
  8 17  1  0  0  0  0
  9  7  1  0  0  0  0
 10  2  1  0  0  0  0
 10  6  1  0  0  0  0
 11  8  1  0  0  0  0
 12  5  1  0  0  0  0
 14 13  2  0  0  0  0
 14  7  1  0  0  0  0
 15 21  1  0  0  0  0
 15 26  1  0  0  0  0
 15  1  1  0  0  0  0
 16  2  1  0  0  0  0
 16 15  1  0  0  0  0
 17 16  1  0  0  0  0
 17  2  1  0  0  0  0
 18 12  1  0  0  0  0
 18 11  1  0  0  0  0
 19 20  1  0  0  0  0
 20 10  1  0  0  0  0
 21 24  1  0  0  0  0
 22 23  2  0  0  0  0
 22 21  1  0  0  0  0
 24 25  1  0  0  0  0
 27 26  1  0  0  0  0
 28 27  1  0  0  0  0
 28 30  1  0  0  0  0
 29 28  2  0  0  0  0
M  END
>  <MODEL>
3

>  <REMARK>
 VINA RESULT:      -7.7      2.539      6.867
  Name = 
  6 active torsions:
  status: ('A' for Active; 'I' for Inactive)
    1  A    between atoms: C_2  and  C_14
    2  A    between atoms: C_3  and  C_19
    3  A    between atoms: C_14  and  C_20
    4  A    between atoms: C_14  and  C_22
    5  A    between atoms: C_19  and  C_29
    6  A    between atoms: C_22  and  C_29
                            x       y       z     vdW  Elec       q    Type
                         _______ _______ _______ _____ _____    ______ ____

>  <TORSDO>
F 6

$$$$
=
 OpenBabel11052417063D

 30 35  0  0  1  0  0  0  0  0999 V2000
  189.5620  176.2570  145.8740 C   0  0  1  0  0  3  0  0  0  0  0  0
  189.5480  174.9780  145.0570 C   0  0  1  0  0  0  0  0  0  0  0  0
  190.8540  177.0280  145.6140 C   0  0  0  0  0  2  0  0  0  0  0  0
  193.3090  174.1660  145.7650 C   0  0  0  0  0  2  0  0  0  0  0  0
  189.4580  172.5950  143.5010 C   0  0  1  0  0  3  0  0  0  0  0  0
  192.0290  174.8310  145.3000 C   0  0  2  0  0  3  0  0  0  0  0  0
  193.3400  176.6260  146.2280 C   0  0  0  0  0  2  0  0  0  0  0  0
  189.0070  173.8670  142.8010 C   0  0  2  0  0  3  0  0  0  0  0  0
  191.9280  176.0920  146.1490 C   0  0  1  0  0  3  0  0  0  0  0  0
  190.7270  173.9830  145.2730 C   0  0  2  0  0  3  0  0  0  0  0  0
  189.6000  173.8150  141.4150 C   0  0  0  0  0  2  0  0  0  0  0  0
  189.5710  171.5630  142.3870 C   0  0  0  0  0  2  0  0  0  0  0  0
  195.3150  175.2960  146.3930 O   0  0  0  0  0  0  0  0  0  0  0  0
  194.1200  175.3560  146.1550 C   0  0  0  0  0  0  0  0  0  0  0  0
  188.2180  176.6620  145.2550 C   0  0  1  0  0  0  0  0  0  0  0  0
  188.1610  175.2990  144.5150 C   0  0  1  0  0  3  0  0  0  0  0  0
  189.3010  175.1680  143.5490 C   0  0  1  0  0  3  0  0  0  0  0  0
  189.6280  172.3350  141.0700 C   0  0  0  0  0  2  0  0  0  0  0  0
  191.9980  172.8180  143.3240 C   0  0  0  0  0  1  0  0  0  0  0  0
  190.7840  172.7930  144.2630 C   0  0  2  0  0  3  0  0  0  0  0  0
  187.1310  176.8050  146.3510 C   0  0  2  0  0  3  0  0  0  0  0  0
  185.7290  176.7900  145.8110 C   0  0  0  0  0  3  0  0  0  0  0  0
  184.8000  176.4160  146.5090 O   0  0  0  0  0  0  0  0  0  0  0  0
  187.3250  178.0480  147.2090 C   0  0  0  0  0  2  0  0  0  0  0  0
  186.3470  178.0880  148.2010 O   0  0  0  0  0  1  0  0  0  0  0  0
  188.3310  177.9440  144.3870 C   0  0  0  0  0  2  0  0  0  0  0  0
  187.1850  178.1930  143.4050 C   0  0  0  0  0  2  0  0  0  0  0  0
  187.6170  178.0520  141.9880 C   0  0  0  0  0  0  0  0  0  0  0  0
  186.7460  177.6840  141.0620 C   0  0  0  0  0  2  0  0  0  0  0  0
  188.9400  178.2890  141.6370 O   0  0  0  0  0  1  0  0  0  0  0  0
  1  3  1  6  0  0  0
  2 10  1  0  0  0  0
  2  1  1  0  0  0  0
  3  9  1  0  0  0  0
  4 14  1  0  0  0  0
  5 20  1  0  0  0  0
  6  4  1  0  0  0  0
  6  9  1  0  0  0  0
  8  5  1  0  0  0  0
  8 17  1  0  0  0  0
  9  7  1  0  0  0  0
 10  6  1  0  0  0  0
 11  8  1  0  0  0  0
 12  5  1  0  0  0  0
 14  7  1  0  0  0  0
 14 13  2  0  0  0  0
 15  1  1  0  0  0  0
 15 21  1  0  0  0  0
 16  2  1  0  0  0  0
 16 15  1  0  0  0  0
 17 16  1  0  0  0  0
 17  2  1  0  0  0  0
 18 11  1  0  0  0  0
 18 12  1  0  0  0  0
 19 20  1  0  0  0  0
 20 10  1  0  0  0  0
 21 24  1  0  0  0  0
 22 21  1  0  0  0  0
 22 23  2  0  0  0  0
 24 25  1  0  0  0  0
 26 15  1  0  0  0  0
 27 26  1  0  0  0  0
 28 27  1  0  0  0  0
 29 28  2  0  0  0  0
 30 28  1  0  0  0  0
M  END
>  <MODEL>
4

>  <REMARK>
 VINA RESULT:      -7.2      2.190      5.122
  Name = 
  6 active torsions:
  status: ('A' for Active; 'I' for Inactive)
    1  A    between atoms: C_2  and  C_14
    2  A    between atoms: C_3  and  C_19
    3  A    between atoms: C_14  and  C_20
    4  A    between atoms: C_14  and  C_22
    5  A    between atoms: C_19  and  C_29
    6  A    between atoms: C_22  and  C_29
                            x       y       z     vdW  Elec       q    Type
                         _______ _______ _______ _____ _____    ______ ____

>  <TORSDO>
F 6

$$$$
=
 OpenBabel11052417063D

 30 35  0  0  1  0  0  0  0  0999 V2000
  188.6880  176.0160  142.7580 C   0  0  1  0  0  3  0  0  0  0  0  0
  190.0880  176.2680  143.2870 C   0  0  1  0  0  0  0  0  0  0  0  0
  188.2900  174.5630  143.0040 C   0  0  0  0  0  2  0  0  0  0  0  0
  191.4950  172.8730  141.9470 C   0  0  0  0  0  2  0  0  0  0  0  0
  192.6910  176.7960  144.3120 C   0  0  1  0  0  3  0  0  0  0  0  0
  190.6990  173.9190  142.7020 C   0  0  2  0  0  3  0  0  0  0  0  0
  189.0590  172.2980  142.0050 C   0  0  0  0  0  2  0  0  0  0  0  0
  191.5500  176.8780  145.3140 C   0  0  2  0  0  3  0  0  0  0  0  0
  189.2840  173.7850  142.1530 C   0  0  1  0  0  3  0  0  0  0  0  0
  191.2330  175.3780  142.7190 C   0  0  2  0  0  3  0  0  0  0  0  0
  192.0470  176.2080  146.5700 C   0  0  0  0  0  2  0  0  0  0  0  0
  193.9540  176.8440  145.1640 C   0  0  0  0  0  2  0  0  0  0  0  0
  190.7040  170.7120  141.3140 O   0  0  0  0  0  0  0  0  0  0  0  0
  190.4480  171.8370  141.7110 C   0  0  0  0  0  0  0  0  0  0  0  0
  188.1610  177.1740  143.6160 C   0  0  1  0  0  0  0  0  0  0  0  0
  189.6140  177.4940  144.0580 C   0  0  1  0  0  3  0  0  0  0  0  0
  190.2050  176.3450  144.8200 C   0  0  1  0  0  3  0  0  0  0  0  0
  193.5370  176.5030  146.5930 C   0  0  0  0  0  2  0  0  0  0  0  0
  193.0610  174.2700  144.2030 C   0  0  0  0  0  1  0  0  0  0  0  0
  192.6090  175.5250  143.4430 C   0  0  2  0  0  3  0  0  0  0  0  0
  187.5390  178.2790  142.7230 C   0  0  2  0  0  3  0  0  0  0  0  0
  186.1010  178.5710  143.0450 C   0  0  0  0  0  3  0  0  0  0  0  0
  185.7730  179.6640  143.4790 O   0  0  0  0  0  0  0  0  0  0  0  0
  187.6690  177.9740  141.2380 C   0  0  0  0  0  2  0  0  0  0  0  0
  186.4020  177.7890  140.6850 O   0  0  0  0  0  1  0  0  0  0  0  0
  187.1690  176.6950  144.7100 C   0  0  0  0  0  2  0  0  0  0  0  0
  187.2270  177.4410  146.0430 C   0  0  0  0  0  2  0  0  0  0  0  0
  185.8720  177.7690  146.5630 C   0  0  0  0  0  0  0  0  0  0  0  0
  185.6500  178.9370  147.1460 C   0  0  0  0  0  2  0  0  0  0  0  0
  184.8420  176.8440  146.4540 O   0  0  0  0  0  1  0  0  0  0  0  0
  1  3  1  1  0  0  0
  1  2  1  0  0  0  0
  1 15  1  0  0  0  0
  2 16  1  0  0  0  0
  2 17  1  0  0  0  0
  4  6  1  0  0  0  0
  5 12  1  0  0  0  0
  5  8  1  0  0  0  0
  6 10  1  0  0  0  0
  7  9  1  0  0  0  0
  8 11  1  0  0  0  0
  9  6  1  0  0  0  0
  9  3  1  0  0  0  0
 10  2  1  0  0  0  0
 10 20  1  0  0  0  0
 11 18  1  0  0  0  0
 12 18  1  0  0  0  0
 13 14  2  0  0  0  0
 14  4  1  0  0  0  0
 14  7  1  0  0  0  0
 15 16  1  0  0  0  0
 15 26  1  0  0  0  0
 16 17  1  0  0  0  0
 17  8  1  0  0  0  0
 20 19  1  0  0  0  0
 20  5  1  0  0  0  0
 21 22  1  0  0  0  0
 21 15  1  0  0  0  0
 22 23  2  0  0  0  0
 24 21  1  0  0  0  0
 25 24  1  0  0  0  0
 26 27  1  0  0  0  0
 27 28  1  0  0  0  0
 28 29  2  0  0  0  0
 30 28  1  0  0  0  0
M  END
>  <MODEL>
5

>  <REMARK>
 VINA RESULT:      -7.2      1.241      1.501
  Name = 
  6 active torsions:
  status: ('A' for Active; 'I' for Inactive)
    1  A    between atoms: C_2  and  C_14
    2  A    between atoms: C_3  and  C_19
    3  A    between atoms: C_14  and  C_20
    4  A    between atoms: C_14  and  C_22
    5  A    between atoms: C_19  and  C_29
    6  A    between atoms: C_22  and  C_29
                            x       y       z     vdW  Elec       q    Type
                         _______ _______ _______ _____ _____    ______ ____

>  <TORSDO>
F 6

$$$$
=
 OpenBabel11052417063D

 30 35  0  0  1  0  0  0  0  0999 V2000
  188.6060  174.8420  142.6380 C   0  0  1  0  0  3  0  0  0  0  0  0
  189.0960  174.9570  144.0690 C   0  0  1  0  0  0  0  0  0  0  0  0
  188.4570  176.2310  142.0230 C   0  0  0  0  0  2  0  0  0  0  0  0
  186.7700  177.9900  144.9040 C   0  0  0  0  0  2  0  0  0  0  0  0
  190.0630  175.1280  146.7420 C   0  0  1  0  0  3  0  0  0  0  0  0
  187.8360  177.1010  144.2950 C   0  0  2  0  0  3  0  0  0  0  0  0
  186.8150  178.1990  142.4090 C   0  0  0  0  0  2  0  0  0  0  0  0
  191.1170  175.1730  145.6470 C   0  0  2  0  0  3  0  0  0  0  0  0
  187.3610  176.8660  142.8660 C   0  0  1  0  0  3  0  0  0  0  0  0
  188.2290  175.8020  145.0510 C   0  0  2  0  0  3  0  0  0  0  0  0
  192.1000  176.2410  146.0560 C   0  0  0  0  0  2  0  0  0  0  0  0
  190.8130  175.5100  148.0120 C   0  0  0  0  0  2  0  0  0  0  0  0
  185.6050  179.7390  143.7730 O   0  0  0  0  0  0  0  0  0  0  0  0
  186.3180  178.7520  143.7030 C   0  0  0  0  0  0  0  0  0  0  0  0
  189.7860  173.9160  142.3140 C   0  0  1  0  0  0  0  0  0  0  0  0
  190.2090  173.9500  143.8070 C   0  0  1  0  0  3  0  0  0  0  0  0
  190.5780  175.3430  144.2250 C   0  0  1  0  0  3  0  0  0  0  0  0
  192.1120  176.1840  147.5740 C   0  0  0  0  0  2  0  0  0  0  0  0
  189.2240  177.5420  146.7100 C   0  0  0  0  0  1  0  0  0  0  0  0
  188.8790  176.0700  146.4460 C   0  0  2  0  0  3  0  0  0  0  0  0
  189.2810  172.5240  141.8560 C   0  0  2  0  0  3  0  0  0  0  0  0
  190.0640  171.3810  142.4370 C   0  0  0  0  0  3  0  0  0  0  0  0
  190.5900  170.5550  141.7080 O   0  0  0  0  0  0  0  0  0  0  0  0
  189.2390  172.3850  140.3410 C   0  0  0  0  0  2  0  0  0  0  0  0
  187.9540  172.6670  139.8800 O   0  0  0  0  0  1  0  0  0  0  0  0
  190.7610  174.5410  141.2800 C   0  0  0  0  0  2  0  0  0  0  0  0
  192.1320  173.8760  141.1610 C   0  0  0  0  0  2  0  0  0  0  0  0
  193.1800  174.6070  141.9250 C   0  0  0  0  0  0  0  0  0  0  0  0
  193.8530  173.9910  142.8840 C   0  0  0  0  0  2  0  0  0  0  0  0
  193.4420  175.9410  141.6450 O   0  0  0  0  0  1  0  0  0  0  0  0
  1  3  1  6  0  0  0
  1  2  1  0  0  0  0
  2 17  1  0  0  0  0
  2 10  1  0  0  0  0
  3  9  1  0  0  0  0
  5 12  1  0  0  0  0
  6  4  1  0  0  0  0
  6 10  1  0  0  0  0
  7  9  1  0  0  0  0
  7 14  1  0  0  0  0
  8 11  1  0  0  0  0
  8  5  1  0  0  0  0
  9  6  1  0  0  0  0
 10 20  1  0  0  0  0
 11 18  1  0  0  0  0
 14 13  2  0  0  0  0
 14  4  1  0  0  0  0
 15  1  1  0  0  0  0
 15 16  1  0  0  0  0
 16  2  1  0  0  0  0
 16 17  1  0  0  0  0
 17  8  1  0  0  0  0
 18 12  1  0  0  0  0
 20 19  1  0  0  0  0
 20  5  1  0  0  0  0
 21 15  1  0  0  0  0
 21 22  1  0  0  0  0
 23 22  2  0  0  0  0
 24 21  1  0  0  0  0
 25 24  1  0  0  0  0
 26 15  1  0  0  0  0
 27 26  1  0  0  0  0
 27 28  1  0  0  0  0
 28 29  2  0  0  0  0
 30 28  1  0  0  0  0
M  END
>  <MODEL>
6

>  <REMARK>
 VINA RESULT:      -7.1      1.697      6.190
  Name = 
  6 active torsions:
  status: ('A' for Active; 'I' for Inactive)
    1  A    between atoms: C_2  and  C_14
    2  A    between atoms: C_3  and  C_19
    3  A    between atoms: C_14  and  C_20
    4  A    between atoms: C_14  and  C_22
    5  A    between atoms: C_19  and  C_29
    6  A    between atoms: C_22  and  C_29
                            x       y       z     vdW  Elec       q    Type
                         _______ _______ _______ _____ _____    ______ ____

>  <TORSDO>
F 6

$$$$
=
 OpenBabel11052417063D

 30 35  0  0  1  0  0  0  0  0999 V2000
  191.0470  176.5810  145.2520 C   0  0  1  0  0  3  0  0  0  0  0  0
  190.3700  176.1470  143.9650 C   0  0  1  0  0  0  0  0  0  0  0  0
  190.1040  176.3710  146.4350 C   0  0  0  0  0  2  0  0  0  0  0  0
  186.9270  177.7380  144.9250 C   0  0  0  0  0  2  0  0  0  0  0  0
  189.1550  175.2960  141.5350 C   0  0  1  0  0  3  0  0  0  0  0  0
  188.1770  176.8800  144.9070 C   0  0  2  0  0  3  0  0  0  0  0  0
  187.9180  177.5250  147.2140 C   0  0  0  0  0  2  0  0  0  0  0  0
  189.8220  174.2100  142.3640 C   0  0  2  0  0  3  0  0  0  0  0  0
  188.9590  177.3280  146.1360 C   0  0  1  0  0  3  0  0  0  0  0  0
  189.0210  176.8380  143.6030 C   0  0  2  0  0  3  0  0  0  0  0  0
  188.8890  173.0250  142.3290 C   0  0  0  0  0  2  0  0  0  0  0  0
  188.3710  174.5390  140.4700 C   0  0  0  0  0  2  0  0  0  0  0  0
  185.7250  178.4060  146.8760 O   0  0  0  0  0  0  0  0  0  0  0  0
  186.7440  177.9410  146.3910 C   0  0  0  0  0  0  0  0  0  0  0  0
  192.2170  175.6360  144.9490 C   0  0  1  0  0  0  0  0  0  0  0  0
  191.5700  175.2890  143.5830 C   0  0  1  0  0  3  0  0  0  0  0  0
  190.2380  174.6250  143.7750 C   0  0  1  0  0  3  0  0  0  0  0  0
  188.2330  173.1000  140.9600 C   0  0  0  0  0  2  0  0  0  0  0  0
  186.9270  175.5450  142.7610 C   0  0  0  0  0  1  0  0  0  0  0  0
  188.2590  176.2120  142.3920 C   0  0  2  0  0  3  0  0  0  0  0  0
  193.5410  176.4300  144.8120 C   0  0  2  0  0  3  0  0  0  0  0  0
  194.3640  176.0230  143.6220 C   0  0  0  0  0  3  0  0  0  0  0  0
  195.5040  175.6130  143.7680 O   0  0  0  0  0  0  0  0  0  0  0  0
  194.4010  176.3570  146.0650 C   0  0  0  0  0  2  0  0  0  0  0  0
  194.2690  177.5390  146.7930 O   0  0  0  0  0  1  0  0  0  0  0  0
  192.3390  174.4940  145.9940 C   0  0  0  0  0  2  0  0  0  0  0  0
  193.4420  173.4660  145.7400 C   0  0  0  0  0  2  0  0  0  0  0  0
  193.0980  172.5350  144.6310 C   0  0  0  0  0  0  0  0  0  0  0  0
  193.9440  172.3560  143.6290 C   0  0  0  0  0  2  0  0  0  0  0  0
  191.8820  171.8640  144.6370 O   0  0  0  0  0  1  0  0  0  0  0  0
  1  3  1  1  0  0  0
  2  1  1  0  0  0  0
  4 14  1  0  0  0  0
  5  8  1  0  0  0  0
  5 20  1  0  0  0  0
  6  4  1  0  0  0  0
  6  9  1  0  0  0  0
  8 17  1  0  0  0  0
  9  3  1  0  0  0  0
  9  7  1  0  0  0  0
 10  2  1  0  0  0  0
 10  6  1  0  0  0  0
 11  8  1  0  0  0  0
 12 18  1  0  0  0  0
 12  5  1  0  0  0  0
 14 13  2  0  0  0  0
 14  7  1  0  0  0  0
 15  1  1  0  0  0  0
 15 26  1  0  0  0  0
 16 17  1  0  0  0  0
 16  2  1  0  0  0  0
 16 15  1  0  0  0  0
 17  2  1  0  0  0  0
 18 11  1  0  0  0  0
 20 19  1  0  0  0  0
 20 10  1  0  0  0  0
 21 15  1  0  0  0  0
 21 24  1  0  0  0  0
 22 23  2  0  0  0  0
 22 21  1  0  0  0  0
 24 25  1  0  0  0  0
 27 26  1  0  0  0  0
 28 30  1  0  0  0  0
 28 27  1  0  0  0  0
 29 28  2  0  0  0  0
M  END
>  <MODEL>
7

>  <REMARK>
 VINA RESULT:      -6.9      2.798      7.204
  Name = 
  6 active torsions:
  status: ('A' for Active; 'I' for Inactive)
    1  A    between atoms: C_2  and  C_14
    2  A    between atoms: C_3  and  C_19
    3  A    between atoms: C_14  and  C_20
    4  A    between atoms: C_14  and  C_22
    5  A    between atoms: C_19  and  C_29
    6  A    between atoms: C_22  and  C_29
                            x       y       z     vdW  Elec       q    Type
                         _______ _______ _______ _____ _____    ______ ____

>  <TORSDO>
F 6

$$$$
=
 OpenBabel11052417063D

 30 35  0  0  1  0  0  0  0  0999 V2000
  188.3430  174.8040  141.9650 C   0  0  1  0  0  3  0  0  0  0  0  0
  188.0220  175.3190  143.3560 C   0  0  1  0  0  0  0  0  0  0  0  0
  188.3620  175.9630  140.9700 C   0  0  0  0  0  2  0  0  0  0  0  0
  185.2520  177.7780  142.0980 C   0  0  0  0  0  2  0  0  0  0  0  0
  187.4740  176.2510  145.9900 C   0  0  1  0  0  3  0  0  0  0  0  0
  186.5770  177.0810  142.3370 C   0  0  2  0  0  3  0  0  0  0  0  0
  186.5300  177.4950  139.9640 C   0  0  0  0  0  2  0  0  0  0  0  0
  188.9230  176.3400  145.5390 C   0  0  2  0  0  3  0  0  0  0  0  0
  186.9230  176.4570  140.9900 C   0  0  1  0  0  3  0  0  0  0  0  0
  186.6850  176.0970  143.5350 C   0  0  2  0  0  3  0  0  0  0  0  0
  189.4280  177.6790  146.0150 C   0  0  0  0  0  2  0  0  0  0  0  0
  187.4260  177.0510  147.2850 C   0  0  0  0  0  2  0  0  0  0  0  0
  184.6220  178.9220  140.1000 O   0  0  0  0  0  0  0  0  0  0  0  0
  185.3830  178.1500  140.6590 C   0  0  0  0  0  0  0  0  0  0  0  0
  189.6250  174.1570  142.5060 C   0  0  1  0  0  0  0  0  0  0  0  0
  189.2260  174.5900  143.9410 C   0  0  1  0  0  3  0  0  0  0  0  0
  189.1630  176.0850  144.0500 C   0  0  1  0  0  3  0  0  0  0  0  0
  188.6760  177.9270  147.3120 C   0  0  0  0  0  2  0  0  0  0  0  0
  186.4860  178.3230  144.8670 C   0  0  0  0  0  1  0  0  0  0  0  0
  186.5000  176.7890  144.9230 C   0  0  2  0  0  3  0  0  0  0  0  0
  189.5920  172.6210  142.3020 C   0  0  2  0  0  3  0  0  0  0  0  0
  190.0840  171.8470  143.4920 C   0  0  0  0  0  3  0  0  0  0  0  0
  191.1970  171.3460  143.4890 O   0  0  0  0  0  0  0  0  0  0  0  0
  190.3580  172.1770  141.0640 C   0  0  0  0  0  2  0  0  0  0  0  0
  189.4820  172.0740  139.9830 O   0  0  0  0  0  1  0  0  0  0  0  0
  190.9070  174.7890  141.8980 C   0  0  0  0  0  2  0  0  0  0  0  0
  192.2060  174.5430  142.6660 C   0  0  0  0  0  2  0  0  0  0  0  0
  192.9760  175.7980  142.8850 C   0  0  0  0  0  0  0  0  0  0  0  0
  192.4160  176.8190  143.5150 C   0  0  0  0  0  2  0  0  0  0  0  0
  194.2770  175.9080  142.4120 O   0  0  0  0  0  1  0  0  0  0  0  0
  1  3  1  6  0  0  0
  1 15  1  0  0  0  0
  1  2  1  0  0  0  0
  2 10  1  0  0  0  0
  2 16  1  0  0  0  0
  2 17  1  0  0  0  0
  3  9  1  0  0  0  0
  4  6  1  0  0  0  0
  5 12  1  0  0  0  0
  6 10  1  0  0  0  0
  7 14  1  0  0  0  0
  7  9  1  0  0  0  0
  8  5  1  0  0  0  0
  8 11  1  0  0  0  0
  9  6  1  0  0  0  0
 10 20  1  0  0  0  0
 11 18  1  0  0  0  0
 12 18  1  0  0  0  0
 13 14  2  0  0  0  0
 14  4  1  0  0  0  0
 15 16  1  0  0  0  0
 16 17  1  0  0  0  0
 17  8  1  0  0  0  0
 19 20  1  0  0  0  0
 20  5  1  0  0  0  0
 21 15  1  0  0  0  0
 21 22  1  0  0  0  0
 23 22  2  0  0  0  0
 24 21  1  0  0  0  0
 25 24  1  0  0  0  0
 26 15  1  0  0  0  0
 26 27  1  0  0  0  0
 27 28  1  0  0  0  0
 28 29  2  0  0  0  0
 30 28  1  0  0  0  0
M  END
>  <MODEL>
8

>  <REMARK>
 VINA RESULT:      -6.6      2.173      6.155
  Name = 
  6 active torsions:
  status: ('A' for Active; 'I' for Inactive)
    1  A    between atoms: C_2  and  C_14
    2  A    between atoms: C_3  and  C_19
    3  A    between atoms: C_14  and  C_20
    4  A    between atoms: C_14  and  C_22
    5  A    between atoms: C_19  and  C_29
    6  A    between atoms: C_22  and  C_29
                            x       y       z     vdW  Elec       q    Type
                         _______ _______ _______ _____ _____    ______ ____

>  <TORSDO>
F 6

$$$$
=
 OpenBabel11052417063D

 30 35  0  0  1  0  0  0  0  0999 V2000
  189.6680  175.4180  143.5290 C   0  0  1  0  0  3  0  0  0  0  0  0
  191.1220  175.6520  143.1660 C   0  0  1  0  0  0  0  0  0  0  0  0
  189.4880  174.0030  144.0760 C   0  0  0  0  0  2  0  0  0  0  0  0
  191.5700  172.1130  141.5590 C   0  0  0  0  0  2  0  0  0  0  0  0
  193.8500  176.1510  142.5180 C   0  0  1  0  0  3  0  0  0  0  0  0
  191.3220  173.2440  142.5390 C   0  0  2  0  0  3  0  0  0  0  0  0
  189.5870  171.6420  143.0120 C   0  0  0  0  0  2  0  0  0  0  0  0
  193.4620  176.3520  143.9740 C   0  0  2  0  0  3  0  0  0  0  0  0
  189.8430  173.1260  142.8840 C   0  0  1  0  0  3  0  0  0  0  0  0
  191.7630  174.6780  142.1320 C   0  0  2  0  0  3  0  0  0  0  0  0
  194.5810  175.7580  144.7920 C   0  0  0  0  0  2  0  0  0  0  0  0
  195.3730  176.2110  142.5150 C   0  0  0  0  0  2  0  0  0  0  0  0
  190.5790  169.9450  141.6580 O   0  0  0  0  0  0  0  0  0  0  0  0
  190.5790  171.1050  142.0350 C   0  0  0  0  0  0  0  0  0  0  0  0
  189.7000  176.6560  144.4340 C   0  0  1  0  0  0  0  0  0  0  0  0
  191.1490  176.9490  143.9640 C   0  0  1  0  0  3  0  0  0  0  0  0
  192.0750  175.8380  144.3610 C   0  0  1  0  0  3  0  0  0  0  0  0
  195.8280  175.9940  143.9560 C   0  0  0  0  0  2  0  0  0  0  0  0
  194.1170  173.6100  142.4340 C   0  0  0  0  0  1  0  0  0  0  0  0
  193.3080  174.8230  141.9530 C   0  0  2  0  0  3  0  0  0  0  0  0
  188.6770  177.7150  143.9500 C   0  0  2  0  0  3  0  0  0  0  0  0
  187.4590  177.8150  144.8250 C   0  0  0  0  0  3  0  0  0  0  0  0
  186.3870  177.3670  144.4490 O   0  0  0  0  0  0  0  0  0  0  0  0
  188.2420  177.4940  142.5090 C   0  0  0  0  0  2  0  0  0  0  0  0
  188.8820  178.4160  141.6810 O   0  0  0  0  0  1  0  0  0  0  0  0
  189.4920  176.2990  145.9310 C   0  0  0  0  0  2  0  0  0  0  0  0
  190.0160  177.3180  146.9440 C   0  0  0  0  0  2  0  0  0  0  0  0
  190.9760  176.7110  147.9060 C   0  0  0  0  0  0  0  0  0  0  0  0
  191.2590  175.4190  147.8350 C   0  0  0  0  0  2  0  0  0  0  0  0
  191.5640  177.4940  148.8900 O   0  0  0  0  0  1  0  0  0  0  0  0
  1  3  1  1  0  0  0
  1 15  1  0  0  0  0
  2  1  1  0  0  0  0
  2 16  1  0  0  0  0
  2 17  1  0  0  0  0
  4 14  1  0  0  0  0
  4  6  1  0  0  0  0
  5  8  1  0  0  0  0
  6  9  1  0  0  0  0
  8 17  1  0  0  0  0
  8 11  1  0  0  0  0
  9  7  1  0  0  0  0
  9  3  1  0  0  0  0
 10  6  1  0  0  0  0
 10  2  1  0  0  0  0
 12  5  1  0  0  0  0
 12 18  1  0  0  0  0
 13 14  2  0  0  0  0
 14  7  1  0  0  0  0
 15 26  1  0  0  0  0
 16 17  1  0  0  0  0
 16 15  1  0  0  0  0
 18 11  1  0  0  0  0
 20 10  1  0  0  0  0
 20 19  1  0  0  0  0
 20  5  1  0  0  0  0
 21 15  1  0  0  0  0
 21 22  1  0  0  0  0
 23 22  2  0  0  0  0
 24 21  1  0  0  0  0
 25 24  1  0  0  0  0
 26 27  1  0  0  0  0
 27 28  1  0  0  0  0
 28 30  1  0  0  0  0
 29 28  2  0  0  0  0
M  END
>  <MODEL>
9

>  <REMARK>
 VINA RESULT:      -6.6      2.651      3.869
  Name = 
  6 active torsions:
  status: ('A' for Active; 'I' for Inactive)
    1  A    between atoms: C_2  and  C_14
    2  A    between atoms: C_3  and  C_19
    3  A    between atoms: C_14  and  C_20
    4  A    between atoms: C_14  and  C_22
    5  A    between atoms: C_19  and  C_29
    6  A    between atoms: C_22  and  C_29
                            x       y       z     vdW  Elec       q    Type
                         _______ _______ _______ _____ _____    ______ ____

>  <TORSDO>
F 6

$$$$
