=
 OpenBabel11052420423D

 43 48  0  0  1  0  0  0  0  0999 V2000
  184.3850  178.8710  143.8820 C   0  0  0  0  0  0  0  0  0  0  0  0
  188.1960  176.6270  146.4930 C   0  0  0  0  0  0  0  0  0  0  0  0
  190.4740  177.1680  144.8970 C   0  0  0  0  0  0  0  0  0  0  0  0
  185.7230  177.6290  145.6210 C   0  0  0  0  0  0  0  0  0  0  0  0
  185.6190  179.0170  143.0990 C   0  0  0  0  0  3  0  0  0  0  0  0
  183.3130  179.3510  143.4340 O   0  0  0  0  0  0  0  0  0  0  0  0
  186.8700  177.7970  144.8180 C   0  0  0  0  0  0  0  0  0  0  0  0
  184.3750  178.1500  145.2010 C   0  0  0  0  0  2  0  0  0  0  0  0
  186.7730  178.5160  143.5340 C   0  0  0  0  0  3  0  0  0  0  0  0
  189.2910  177.4880  144.4640 N   0  0  0  0  0  0  0  0  0  0  0  0
  188.1100  177.2970  145.2570 C   0  0  0  0  0  0  0  0  0  0  0  0
  187.0520  176.4690  147.2830 C   0  0  0  0  0  3  0  0  0  0  0  0
  189.5000  176.0270  146.9400 C   0  0  2  0  0  3  0  0  0  0  0  0
  190.6260  176.6010  146.2050 N   0  0  0  0  0  2  0  0  0  0  0  0
  185.8250  176.9700  146.8490 C   0  0  0  0  0  3  0  0  0  0  0  0
  191.6570  177.4260  144.0610 C   0  0  0  0  0  0  0  0  0  0  0  0
  191.5180  177.8400  142.8800 O   0  0  0  0  0  0  0  0  0  0  0  0
  193.0320  177.1790  144.5850 C   0  0  0  0  0  2  0  0  0  0  0  0
  193.7390  176.1230  143.7510 C   0  0  2  0  0  3  0  0  0  0  0  0
  193.2780  174.8560  144.1070 O   0  0  0  0  0  1  0  0  0  0  0  0
  195.2380  176.1910  143.9870 C   0  0  0  0  0  2  0  0  0  0  0  0
  195.9580  175.8790  142.7610 N   0  0  0  0  0  0  0  0  0  0  0  0
  197.3490  174.9000  141.3160 N   0  0  0  0  0  0  0  0  0  0  0  0
  195.8020  176.4880  141.5750 C   0  0  0  0  0  3  0  0  0  0  0  0
  196.8890  174.9260  142.5810 C   0  0  0  0  0  0  0  0  0  0  0  0
  196.6660  175.8780  140.6820 C   0  0  0  0  0  3  0  0  0  0  0  0
  197.3690  174.0060  143.6680 C   0  0  1  0  0  3  0  0  0  0  0  0
  197.7290  174.7390  144.7850 F   0  0  0  0  0  0  0  0  0  0  0  0
  196.3510  173.0250  144.0210 N   0  0  0  0  0  0  0  0  0  0  0  0
  193.9080  170.6890  142.6420 C   0  0  0  0  0  1  0  0  0  0  0  0
  194.5620  171.5550  145.2990 S   0  0  0  0  0  0  0  0  0  0  0  0
  194.7470  171.5410  143.5220 C   0  0  0  0  0  0  0  0  0  0  0  0
  195.9060  172.7920  145.3870 C   0  0  0  0  0  2  0  0  0  0  0  0
  195.6590  172.3120  143.0450 N   0  0  0  0  0  0  0  0  0  0  0  0
  189.4680  174.5210  146.7320 C   0  0  0  0  0  2  0  0  0  0  0  0
  190.4630  174.1440  145.8260 O   0  0  0  0  0  0  0  0  0  0  0  0
  189.4180  174.0200  143.6980 C   0  0  0  0  0  2  0  0  0  0  0  0
  189.6230  173.0210  142.5870 C   0  0  2  0  0  3  0  0  0  0  0  0
  190.8040  172.2260  144.4530 C   0  0  0  0  0  2  0  0  0  0  0  0
  189.8260  173.2750  144.9380 C   0  0  1  0  0  3  0  0  0  0  0  0
  190.6600  172.0860  143.0080 N   0  0  0  0  0  2  0  0  0  0  0  0
  191.0870  174.6330  141.6090 O   0  0  0  0  0  1  0  0  0  0  0  0
  190.0500  173.7440  141.3230 C   0  0  0  0  0  2  0  0  0  0  0  0
  1  8  1  0  0  0  0
  2 13  1  0  0  0  0
  2 12  1  0  0  0  0
  3 14  1  0  0  0  0
  4 15  1  0  0  0  0
  5  9  2  0  0  0  0
  5  1  1  0  0  0  0
  6  1  2  0  0  0  0
  7 11  1  0  0  0  0
  7  4  2  0  0  0  0
  8  4  1  0  0  0  0
  9  7  1  0  0  0  0
 10  3  2  0  0  0  0
 10 11  1  0  0  0  0
 11  2  2  0  0  0  0
 13 35  1  6  0  0  0
 14 13  1  0  0  0  0
 15 12  2  0  0  0  0
 16 18  1  0  0  0  0
 16  3  1  0  0  0  0
 17 16  2  0  0  0  0
 19 21  1  0  0  0  0
 19 20  1  1  0  0  0
 19 18  1  0  0  0  0
 22 21  1  0  0  0  0
 23 25  2  0  0  0  0
 24 22  1  0  0  0  0
 25 22  1  0  0  0  0
 25 27  1  0  0  0  0
 26 23  1  0  0  0  0
 26 24  2  0  0  0  0
 27 29  1  0  0  0  0
 27 28  1  1  0  0  0
 29 33  1  0  0  0  0
 30 32  1  0  0  0  0
 31 33  1  0  0  0  0
 32 31  1  0  0  0  0
 34 32  2  0  0  0  0
 34 29  1  0  0  0  0
 36 35  1  0  0  0  0
 37 40  1  0  0  0  0
 38 43  1  6  0  0  0
 38 41  1  0  0  0  0
 38 37  1  0  0  0  0
 39 40  1  0  0  0  0
 40 36  1  1  0  0  0
 41 39  1  0  0  0  0
 43 42  1  0  0  0  0
M  END
>  <MODEL>
1

>  <REMARK>
 VINA RESULT:      -7.4      0.000      0.000
  Name = 
  11 active torsions:
  status: ('A' for Active; 'I' for Inactive)
    1  A    between atoms: C_1  and  O_32
    2  A    between atoms: C_1  and  C_34
    3  A    between atoms: C_2  and  C_6
    4  A    between atoms: C_2  and  C_13
    5  A    between atoms: C_3  and  N_4
    6  A    between atoms: C_3  and  C_12
    7  A    between atoms: C_6  and  C_12
    8  A    between atoms: N_11  and  C_14
    9  A    between atoms: C_14  and  C_22
   10  A    between atoms: C_19  and  C_37
   11  A    between atoms: O_32  and  C_35
                            x       y       z     vdW  Elec       q    Type
                         _______ _______ _______ _____ _____    ______ ____

>  <TORSDO>
F 11

$$$$
=
 OpenBabel11052420423D

 43 48  0  0  1  0  0  0  0  0999 V2000
  189.6890  174.8730  146.9830 C   0  0  0  0  0  0  0  0  0  0  0  0
  194.4770  175.2840  145.1740 C   0  0  0  0  0  0  0  0  0  0  0  0
  194.4160  173.6950  142.8270 C   0  0  0  0  0  0  0  0  0  0  0  0
  192.1060  175.5120  146.6590 C   0  0  0  0  0  0  0  0  0  0  0  0
  189.8000  174.0150  145.7970 C   0  0  0  0  0  3  0  0  0  0  0  0
  188.5930  174.9340  147.5960 O   0  0  0  0  0  0  0  0  0  0  0  0
  192.1490  174.6640  145.5320 C   0  0  0  0  0  0  0  0  0  0  0  0
  190.8590  175.6720  147.4860 C   0  0  0  0  0  2  0  0  0  0  0  0
  190.9450  173.9160  145.1240 C   0  0  0  0  0  3  0  0  0  0  0  0
  193.3860  173.7170  143.6200 N   0  0  0  0  0  0  0  0  0  0  0  0
  193.3380  174.5520  144.7860 C   0  0  0  0  0  0  0  0  0  0  0  0
  194.4220  176.1240  146.2900 C   0  0  0  0  0  3  0  0  0  0  0  0
  195.7720  175.1190  144.4280 C   0  0  2  0  0  3  0  0  0  0  0  0
  195.5520  174.5240  143.1100 N   0  0  0  0  0  2  0  0  0  0  0  0
  193.2420  176.2380  147.0250 C   0  0  0  0  0  3  0  0  0  0  0  0
  194.3970  172.8540  141.6200 C   0  0  0  0  0  0  0  0  0  0  0  0
  194.8090  171.6660  141.6720 O   0  0  0  0  0  0  0  0  0  0  0  0
  193.9160  173.3980  140.3170 C   0  0  0  0  0  2  0  0  0  0  0  0
  192.5320  172.8590  139.9920 C   0  0  2  0  0  3  0  0  0  0  0  0
  192.3970  172.7080  138.6130 O   0  0  0  0  0  1  0  0  0  0  0  0
  191.4680  173.8210  140.4930 C   0  0  0  0  0  2  0  0  0  0  0  0
  190.5330  173.1320  141.3690 N   0  0  0  0  0  0  0  0  0  0  0  0
  188.7150  172.6710  142.5790 N   0  0  0  0  0  0  0  0  0  0  0  0
  190.7070  171.9160  141.9120 C   0  0  0  0  0  3  0  0  0  0  0  0
  189.3280  173.5640  141.7800 C   0  0  0  0  0  0  0  0  0  0  0  0
  189.5780  171.6350  142.6620 C   0  0  0  0  0  3  0  0  0  0  0  0
  188.7410  174.8940  141.4000 C   0  0  1  0  0  3  0  0  0  0  0  0
  187.3830  174.7660  141.1720 F   0  0  0  0  0  0  0  0  0  0  0  0
  188.9820  175.8950  142.4320 N   0  0  0  0  0  0  0  0  0  0  0  0
  191.5450  178.0100  143.9430 C   0  0  0  0  0  1  0  0  0  0  0  0
  188.7890  177.4790  144.5410 S   0  0  0  0  0  0  0  0  0  0  0  0
  190.2970  177.2820  143.6030 C   0  0  0  0  0  0  0  0  0  0  0  0
  187.9820  176.2830  143.4160 C   0  0  0  0  0  2  0  0  0  0  0  0
  190.2370  176.4750  142.6040 N   0  0  0  0  0  0  0  0  0  0  0  0
  196.7190  174.2430  145.2330 C   0  0  0  0  0  2  0  0  0  0  0  0
  197.6120  173.5930  144.3760 O   0  0  0  0  0  0  0  0  0  0  0  0
  196.6640  172.0530  145.9140 C   0  0  0  0  0  2  0  0  0  0  0  0
  196.3370  170.5920  145.7280 C   0  0  2  0  0  3  0  0  0  0  0  0
  197.5430  171.2740  143.8320 C   0  0  0  0  0  2  0  0  0  0  0  0
  197.7550  172.3120  144.9130 C   0  0  1  0  0  3  0  0  0  0  0  0
  196.6710  170.2270  144.3550 N   0  0  0  0  0  2  0  0  0  0  0  0
  194.1110  170.8000  144.8960 O   0  0  0  0  0  1  0  0  0  0  0  0
  194.8610  170.3620  145.9880 C   0  0  0  0  0  2  0  0  0  0  0  0
  1  8  1  0  0  0  0
  1  6  2  0  0  0  0
  2 12  1  0  0  0  0
  3 14  1  0  0  0  0
  3 10  2  0  0  0  0
  4 15  1  0  0  0  0
  4  8  1  0  0  0  0
  5  1  1  0  0  0  0
  7  4  2  0  0  0  0
  9  7  1  0  0  0  0
  9  5  2  0  0  0  0
 10 11  1  0  0  0  0
 11  2  2  0  0  0  0
 11  7  1  0  0  0  0
 12 15  2  0  0  0  0
 13  2  1  0  0  0  0
 13 35  1  1  0  0  0
 14 13  1  0  0  0  0
 16 17  2  0  0  0  0
 16  3  1  0  0  0  0
 18 16  1  0  0  0  0
 19 20  1  6  0  0  0
 19 18  1  0  0  0  0
 19 21  1  0  0  0  0
 21 22  1  0  0  0  0
 22 25  1  0  0  0  0
 22 24  1  0  0  0  0
 23 26  1  0  0  0  0
 24 26  2  0  0  0  0
 25 23  2  0  0  0  0
 27 28  1  1  0  0  0
 27 25  1  0  0  0  0
 27 29  1  0  0  0  0
 29 34  1  0  0  0  0
 29 33  1  0  0  0  0
 32 30  1  0  0  0  0
 32 31  1  0  0  0  0
 33 31  1  0  0  0  0
 34 32  2  0  0  0  0
 36 35  1  0  0  0  0
 38 37  1  0  0  0  0
 38 43  1  6  0  0  0
 39 41  1  0  0  0  0
 39 40  1  0  0  0  0
 40 36  1  6  0  0  0
 40 37  1  0  0  0  0
 41 38  1  0  0  0  0
 42 43  1  0  0  0  0
M  END
>  <MODEL>
2

>  <REMARK>
 VINA RESULT:      -7.4      3.581      7.222
  Name = 
  11 active torsions:
  status: ('A' for Active; 'I' for Inactive)
    1  A    between atoms: C_1  and  O_32
    2  A    between atoms: C_1  and  C_34
    3  A    between atoms: C_2  and  C_6
    4  A    between atoms: C_2  and  C_13
    5  A    between atoms: C_3  and  N_4
    6  A    between atoms: C_3  and  C_12
    7  A    between atoms: C_6  and  C_12
    8  A    between atoms: N_11  and  C_14
    9  A    between atoms: C_14  and  C_22
   10  A    between atoms: C_19  and  C_37
   11  A    between atoms: O_32  and  C_35
                            x       y       z     vdW  Elec       q    Type
                         _______ _______ _______ _____ _____    ______ ____

>  <TORSDO>
F 11

$$$$
=
 OpenBabel11052420423D

 43 48  0  0  1  0  0  0  0  0999 V2000
  194.9440  175.6800  144.9520 C   0  0  0  0  0  0  0  0  0  0  0  0
  189.9220  175.8620  146.0130 C   0  0  0  0  0  0  0  0  0  0  0  0
  188.7490  176.3740  143.4840 C   0  0  0  0  0  0  0  0  0  0  0  0
  192.7160  175.6110  146.1300 C   0  0  0  0  0  0  0  0  0  0  0  0
  194.2310  176.0260  143.7140 C   0  0  0  0  0  3  0  0  0  0  0  0
  196.1960  175.5770  144.9290 O   0  0  0  0  0  0  0  0  0  0  0  0
  192.0930  175.9510  144.9100 C   0  0  0  0  0  0  0  0  0  0  0  0
  194.2090  175.4610  146.2440 C   0  0  0  0  0  2  0  0  0  0  0  0
  192.9060  176.1530  143.6970 C   0  0  0  0  0  3  0  0  0  0  0  0
  190.0430  176.3900  143.6120 N   0  0  0  0  0  0  0  0  0  0  0  0
  190.6920  176.0740  144.8520 C   0  0  0  0  0  0  0  0  0  0  0  0
  190.5510  175.5210  147.2150 C   0  0  0  0  0  3  0  0  0  0  0  0
  188.4320  176.0590  145.9800 C   0  0  2  0  0  3  0  0  0  0  0  0
  187.9250  176.0350  144.6090 N   0  0  0  0  0  2  0  0  0  0  0  0
  191.9380  175.3950  147.2700 C   0  0  0  0  0  3  0  0  0  0  0  0
  188.1360  176.6620  142.1780 C   0  0  0  0  0  0  0  0  0  0  0  0
  188.1430  177.8350  141.7220 O   0  0  0  0  0  0  0  0  0  0  0  0
  187.4750  175.5810  141.3890 C   0  0  0  0  0  2  0  0  0  0  0  0
  188.5150  174.6500  140.7860 C   0  0  2  0  0  3  0  0  0  0  0  0
  188.3330  174.5710  139.4060 O   0  0  0  0  0  1  0  0  0  0  0  0
  188.3790  173.2610  141.3860 C   0  0  0  0  0  2  0  0  0  0  0  0
  189.4560  173.0100  142.3320 N   0  0  0  0  0  0  0  0  0  0  0  0
  191.5000  172.7600  143.1920 N   0  0  0  0  0  0  0  0  0  0  0  0
  189.3130  172.7360  143.6380 C   0  0  0  0  0  3  0  0  0  0  0  0
  190.7780  173.0240  142.0880 C   0  0  0  0  0  0  0  0  0  0  0  0
  190.5830  172.5810  144.1680 C   0  0  0  0  0  3  0  0  0  0  0  0
  191.3770  173.2900  140.7360 C   0  0  1  0  0  3  0  0  0  0  0  0
  192.6950  173.6900  140.8710 F   0  0  0  0  0  0  0  0  0  0  0  0
  191.2980  172.1150  139.8780 N   0  0  0  0  0  0  0  0  0  0  0  0
  189.9210  170.8430  136.7460 C   0  0  0  0  0  1  0  0  0  0  0  0
  191.3850  169.6550  138.9090 S   0  0  0  0  0  0  0  0  0  0  0  0
  190.5840  171.0100  138.0630 C   0  0  0  0  0  0  0  0  0  0  0  0
  191.8120  170.8090  140.2630 C   0  0  0  0  0  2  0  0  0  0  0  0
  190.6220  172.1480  138.6600 N   0  0  0  0  0  0  0  0  0  0  0  0
  188.0770  177.3860  146.6330 C   0  0  0  0  0  2  0  0  0  0  0  0
  186.8120  177.3050  147.2210 O   0  0  0  0  0  0  0  0  0  0  0  0
  186.4320  178.7560  145.3820 C   0  0  0  0  0  2  0  0  0  0  0  0
  185.1370  179.3410  144.8740 C   0  0  2  0  0  3  0  0  0  0  0  0
  184.6620  178.2870  146.9180 C   0  0  0  0  0  2  0  0  0  0  0  0
  186.1620  178.4770  146.8340 C   0  0  1  0  0  3  0  0  0  0  0  0
  184.0550  178.8250  145.7050 N   0  0  0  0  0  2  0  0  0  0  0  0
  184.9000  177.5450  143.3210 O   0  0  0  0  0  1  0  0  0  0  0  0
  184.9270  178.9360  143.4280 C   0  0  0  0  0  2  0  0  0  0  0  0
  1  8  1  0  0  0  0
  2 12  1  0  0  0  0
  3 10  2  0  0  0  0
  3 14  1  0  0  0  0
  4  8  1  0  0  0  0
  4 15  1  0  0  0  0
  5  1  1  0  0  0  0
  6  1  2  0  0  0  0
  7  4  2  0  0  0  0
  9  5  2  0  0  0  0
  9  7  1  0  0  0  0
 10 11  1  0  0  0  0
 11  7  1  0  0  0  0
 11  2  2  0  0  0  0
 12 15  2  0  0  0  0
 13  2  1  0  0  0  0
 13 35  1  6  0  0  0
 14 13  1  0  0  0  0
 16  3  1  0  0  0  0
 17 16  2  0  0  0  0
 18 16  1  0  0  0  0
 19 20  1  6  0  0  0
 19 21  1  0  0  0  0
 19 18  1  0  0  0  0
 21 22  1  0  0  0  0
 22 24  1  0  0  0  0
 23 26  1  0  0  0  0
 24 26  2  0  0  0  0
 25 22  1  0  0  0  0
 25 23  2  0  0  0  0
 27 28  1  1  0  0  0
 27 25  1  0  0  0  0
 29 33  1  0  0  0  0
 29 27  1  0  0  0  0
 30 32  1  0  0  0  0
 31 33  1  0  0  0  0
 32 34  2  0  0  0  0
 32 31  1  0  0  0  0
 34 29  1  0  0  0  0
 35 36  1  0  0  0  0
 37 40  1  0  0  0  0
 38 43  1  6  0  0  0
 38 37  1  0  0  0  0
 38 41  1  0  0  0  0
 40 39  1  0  0  0  0
 40 36  1  6  0  0  0
 41 39  1  0  0  0  0
 42 43  1  0  0  0  0
M  END
>  <MODEL>
3

>  <REMARK>
 VINA RESULT:      -7.4      3.059      6.852
  Name = 
  11 active torsions:
  status: ('A' for Active; 'I' for Inactive)
    1  A    between atoms: C_1  and  O_32
    2  A    between atoms: C_1  and  C_34
    3  A    between atoms: C_2  and  C_6
    4  A    between atoms: C_2  and  C_13
    5  A    between atoms: C_3  and  N_4
    6  A    between atoms: C_3  and  C_12
    7  A    between atoms: C_6  and  C_12
    8  A    between atoms: N_11  and  C_14
    9  A    between atoms: C_14  and  C_22
   10  A    between atoms: C_19  and  C_37
   11  A    between atoms: O_32  and  C_35
                            x       y       z     vdW  Elec       q    Type
                         _______ _______ _______ _____ _____    ______ ____

>  <TORSDO>
F 11

$$$$
=
 OpenBabel11052420423D

 43 48  0  0  1  0  0  0  0  0999 V2000
  195.6930  175.8230  143.9630 C   0  0  0  0  0  0  0  0  0  0  0  0
  190.8000  175.3560  145.4510 C   0  0  0  0  0  0  0  0  0  0  0  0
  189.3500  176.1980  143.1660 C   0  0  0  0  0  0  0  0  0  0  0  0
  193.6030  175.3440  145.2880 C   0  0  0  0  0  0  0  0  0  0  0  0
  194.8390  176.3150  142.8740 C   0  0  0  0  0  3  0  0  0  0  0  0
  196.9420  175.8390  143.8180 O   0  0  0  0  0  0  0  0  0  0  0  0
  192.8400  175.8360  144.2080 C   0  0  0  0  0  0  0  0  0  0  0  0
  195.1070  175.3120  145.2490 C   0  0  0  0  0  2  0  0  0  0  0  0
  193.5130  176.3220  142.9890 C   0  0  0  0  0  3  0  0  0  0  0  0
  190.6450  176.3080  143.1860 N   0  0  0  0  0  0  0  0  0  0  0  0
  191.4350  175.8400  144.2900 C   0  0  0  0  0  0  0  0  0  0  0  0
  191.5670  174.8670  146.5140 C   0  0  0  0  0  3  0  0  0  0  0  0
  189.3040  175.4200  145.5780 C   0  0  2  0  0  3  0  0  0  0  0  0
  188.6680  175.5920  144.2730 N   0  0  0  0  0  2  0  0  0  0  0  0
  192.9590  174.8600  146.4300 C   0  0  0  0  0  3  0  0  0  0  0  0
  188.5930  176.6550  141.9910 C   0  0  0  0  0  0  0  0  0  0  0  0
  188.6750  177.8530  141.6130 O   0  0  0  0  0  0  0  0  0  0  0  0
  187.6990  175.7200  141.2460 C   0  0  0  0  0  2  0  0  0  0  0  0
  188.5190  174.7030  140.4690 C   0  0  2  0  0  3  0  0  0  0  0  0
  188.1750  174.7530  139.1190 O   0  0  0  0  0  1  0  0  0  0  0  0
  188.2500  173.3040  140.9990 C   0  0  0  0  0  2  0  0  0  0  0  0
  189.3470  172.4130  140.6530 N   0  0  0  0  0  0  0  0  0  0  0  0
  191.2400  171.2390  140.7850 N   0  0  0  0  0  0  0  0  0  0  0  0
  189.4680  171.7140  139.5130 C   0  0  0  0  0  3  0  0  0  0  0  0
  190.4200  172.1080  141.4030 C   0  0  0  0  0  0  0  0  0  0  0  0
  190.6440  170.9870  139.5990 C   0  0  0  0  0  3  0  0  0  0  0  0
  190.6790  172.6830  142.7670 C   0  0  1  0  0  3  0  0  0  0  0  0
  189.7830  172.1580  143.6810 F   0  0  0  0  0  0  0  0  0  0  0  0
  192.0460  172.4250  143.2020 N   0  0  0  0  0  0  0  0  0  0  0  0
  195.5510  172.7160  142.2270 C   0  0  0  0  0  1  0  0  0  0  0  0
  194.1950  171.5460  144.4690 S   0  0  0  0  0  0  0  0  0  0  0  0
  194.2680  172.4170  142.9100 C   0  0  0  0  0  0  0  0  0  0  0  0
  192.3730  171.6930  144.4170 C   0  0  0  0  0  2  0  0  0  0  0  0
  193.1390  172.7810  142.4150 N   0  0  0  0  0  0  0  0  0  0  0  0
  188.9160  176.5730  146.4920 C   0  0  0  0  0  2  0  0  0  0  0  0
  187.5840  176.4380  146.8910 O   0  0  0  0  0  0  0  0  0  0  0  0
  186.4520  178.1160  145.6530 C   0  0  0  0  0  2  0  0  0  0  0  0
  185.2820  178.9790  146.0560 C   0  0  2  0  0  3  0  0  0  0  0  0
  185.9800  177.8250  147.9780 C   0  0  0  0  0  2  0  0  0  0  0  0
  187.0970  177.7430  146.9580 C   0  0  1  0  0  3  0  0  0  0  0  0
  184.8780  178.5890  147.4020 N   0  0  0  0  0  2  0  0  0  0  0  0
  184.6350  178.5410  143.8010 O   0  0  0  0  0  1  0  0  0  0  0  0
  184.1360  178.7720  145.0830 C   0  0  0  0  0  2  0  0  0  0  0  0
  1  8  1  0  0  0  0
  2 13  1  0  0  0  0
  2 12  1  0  0  0  0
  3 10  2  0  0  0  0
  3 14  1  0  0  0  0
  4 15  1  0  0  0  0
  5  9  2  0  0  0  0
  5  1  1  0  0  0  0
  6  1  2  0  0  0  0
  7 11  1  0  0  0  0
  7  4  2  0  0  0  0
  8  4  1  0  0  0  0
  9  7  1  0  0  0  0
 10 11  1  0  0  0  0
 11  2  2  0  0  0  0
 13 35  1  1  0  0  0
 14 13  1  0  0  0  0
 15 12  2  0  0  0  0
 16  3  1  0  0  0  0
 17 16  2  0  0  0  0
 18 16  1  0  0  0  0
 19 20  1  6  0  0  0
 19 21  1  0  0  0  0
 19 18  1  0  0  0  0
 22 21  1  0  0  0  0
 22 25  1  0  0  0  0
 23 25  2  0  0  0  0
 24 26  2  0  0  0  0
 24 22  1  0  0  0  0
 25 27  1  0  0  0  0
 26 23  1  0  0  0  0
 27 29  1  0  0  0  0
 27 28  1  1  0  0  0
 29 33  1  0  0  0  0
 30 32  1  0  0  0  0
 32 31  1  0  0  0  0
 33 31  1  0  0  0  0
 34 32  2  0  0  0  0
 34 29  1  0  0  0  0
 35 36  1  0  0  0  0
 37 38  1  0  0  0  0
 37 40  1  0  0  0  0
 38 43  1  6  0  0  0
 38 41  1  0  0  0  0
 40 36  1  6  0  0  0
 40 39  1  0  0  0  0
 41 39  1  0  0  0  0
 42 43  1  0  0  0  0
M  END
>  <MODEL>
4

>  <REMARK>
 VINA RESULT:      -7.3      2.591      6.750
  Name = 
  11 active torsions:
  status: ('A' for Active; 'I' for Inactive)
    1  A    between atoms: C_1  and  O_32
    2  A    between atoms: C_1  and  C_34
    3  A    between atoms: C_2  and  C_6
    4  A    between atoms: C_2  and  C_13
    5  A    between atoms: C_3  and  N_4
    6  A    between atoms: C_3  and  C_12
    7  A    between atoms: C_6  and  C_12
    8  A    between atoms: N_11  and  C_14
    9  A    between atoms: C_14  and  C_22
   10  A    between atoms: C_19  and  C_37
   11  A    between atoms: O_32  and  C_35
                            x       y       z     vdW  Elec       q    Type
                         _______ _______ _______ _____ _____    ______ ____

>  <TORSDO>
F 11

$$$$
=
 OpenBabel11052420423D

 43 48  0  0  1  0  0  0  0  0999 V2000
  195.7370  176.4620  143.6870 C   0  0  0  0  0  0  0  0  0  0  0  0
  191.0090  175.7340  145.5540 C   0  0  0  0  0  0  0  0  0  0  0  0
  189.4320  175.4490  143.2170 C   0  0  0  0  0  0  0  0  0  0  0  0
  193.7670  176.1390  145.2260 C   0  0  0  0  0  0  0  0  0  0  0  0
  194.8090  176.3820  142.5510 C   0  0  0  0  0  3  0  0  0  0  0  0
  196.9620  176.6370  143.4660 O   0  0  0  0  0  0  0  0  0  0  0  0
  192.9280  176.0780  144.0940 C   0  0  0  0  0  0  0  0  0  0  0  0
  195.2520  176.3510  145.1050 C   0  0  0  0  0  2  0  0  0  0  0  0
  193.5030  176.2050  142.7420 C   0  0  0  0  0  3  0  0  0  0  0  0
  190.6850  175.7770  143.1140 N   0  0  0  0  0  0  0  0  0  0  0  0
  191.5460  175.8720  144.2590 C   0  0  0  0  0  0  0  0  0  0  0  0
  191.8510  175.7920  146.6690 C   0  0  0  0  0  3  0  0  0  0  0  0
  189.5250  175.5840  145.7460 C   0  0  2  0  0  3  0  0  0  0  0  0
  188.8700  175.1710  144.5060 N   0  0  0  0  0  2  0  0  0  0  0  0
  193.2210  175.9910  146.5040 C   0  0  0  0  0  3  0  0  0  0  0  0
  188.6040  175.3230  142.0070 C   0  0  0  0  0  0  0  0  0  0  0  0
  188.1940  176.3530  141.4110 O   0  0  0  0  0  0  0  0  0  0  0  0
  188.2160  173.9810  141.4820 C   0  0  0  0  0  2  0  0  0  0  0  0
  189.4290  173.0670  141.4050 C   0  0  2  0  0  3  0  0  0  0  0  0
  189.5510  172.5530  140.1150 O   0  0  0  0  0  1  0  0  0  0  0  0
  189.2770  171.9170  142.3870 C   0  0  0  0  0  2  0  0  0  0  0  0
  190.4610  171.0720  142.3630 N   0  0  0  0  0  0  0  0  0  0  0  0
  192.5130  170.2950  142.7710 N   0  0  0  0  0  0  0  0  0  0  0  0
  190.5890  169.9070  141.7080 C   0  0  0  0  0  3  0  0  0  0  0  0
  191.6280  171.2820  142.9980 C   0  0  0  0  0  0  0  0  0  0  0  0
  191.8630  169.4280  141.9630 C   0  0  0  0  0  3  0  0  0  0  0  0
  191.9130  172.4860  143.8500 C   0  0  1  0  0  3  0  0  0  0  0  0
  191.1650  172.4330  145.0130 F   0  0  0  0  0  0  0  0  0  0  0  0
  193.3310  172.5870  144.1720 N   0  0  0  0  0  0  0  0  0  0  0  0
  196.6530  173.0420  142.7290 C   0  0  0  0  0  1  0  0  0  0  0  0
  195.6840  172.4950  145.3740 S   0  0  0  0  0  0  0  0  0  0  0  0
  195.4940  172.8040  143.6250 C   0  0  0  0  0  0  0  0  0  0  0  0
  193.8660  172.3520  145.5050 C   0  0  0  0  0  2  0  0  0  0  0  0
  194.2860  172.8160  143.1840 N   0  0  0  0  0  0  0  0  0  0  0  0
  188.9350  176.9030  146.2210 C   0  0  0  0  0  2  0  0  0  0  0  0
  187.7100  176.6770  146.8550 O   0  0  0  0  0  0  0  0  0  0  0  0
  186.7160  178.1710  145.3020 C   0  0  0  0  0  2  0  0  0  0  0  0
  185.3580  178.8280  145.3390 C   0  0  2  0  0  3  0  0  0  0  0  0
  185.6680  177.7710  147.4130 C   0  0  0  0  0  2  0  0  0  0  0  0
  187.0220  177.8860  146.7450 C   0  0  1  0  0  3  0  0  0  0  0  0
  184.6630  178.3560  146.5320 N   0  0  0  0  0  2  0  0  0  0  0  0
  185.1760  179.0160  142.9680 O   0  0  0  0  0  1  0  0  0  0  0  0
  184.5760  178.4540  144.0940 C   0  0  0  0  0  2  0  0  0  0  0  0
  1  8  1  0  0  0  0
  2 13  1  0  0  0  0
  2 12  1  0  0  0  0
  3 14  1  0  0  0  0
  4 15  1  0  0  0  0
  5  9  2  0  0  0  0
  5  1  1  0  0  0  0
  6  1  2  0  0  0  0
  7 11  1  0  0  0  0
  7  4  2  0  0  0  0
  8  4  1  0  0  0  0
  9  7  1  0  0  0  0
 10  3  2  0  0  0  0
 10 11  1  0  0  0  0
 11  2  2  0  0  0  0
 13 35  1  6  0  0  0
 14 13  1  0  0  0  0
 15 12  2  0  0  0  0
 16  3  1  0  0  0  0
 17 16  2  0  0  0  0
 18 16  1  0  0  0  0
 19 20  1  6  0  0  0
 19 18  1  0  0  0  0
 19 21  1  0  0  0  0
 22 21  1  0  0  0  0
 22 25  1  0  0  0  0
 23 25  2  0  0  0  0
 24 26  2  0  0  0  0
 24 22  1  0  0  0  0
 25 27  1  0  0  0  0
 26 23  1  0  0  0  0
 27 29  1  0  0  0  0
 27 28  1  1  0  0  0
 29 33  1  0  0  0  0
 30 32  1  0  0  0  0
 31 33  1  0  0  0  0
 32 31  1  0  0  0  0
 34 32  2  0  0  0  0
 34 29  1  0  0  0  0
 35 36  1  0  0  0  0
 37 38  1  0  0  0  0
 37 40  1  0  0  0  0
 38 43  1  6  0  0  0
 38 41  1  0  0  0  0
 40 36  1  6  0  0  0
 40 39  1  0  0  0  0
 41 39  1  0  0  0  0
 42 43  1  0  0  0  0
M  END
>  <MODEL>
5

>  <REMARK>
 VINA RESULT:      -7.3      2.356      6.524
  Name = 
  11 active torsions:
  status: ('A' for Active; 'I' for Inactive)
    1  A    between atoms: C_1  and  O_32
    2  A    between atoms: C_1  and  C_34
    3  A    between atoms: C_2  and  C_6
    4  A    between atoms: C_2  and  C_13
    5  A    between atoms: C_3  and  N_4
    6  A    between atoms: C_3  and  C_12
    7  A    between atoms: C_6  and  C_12
    8  A    between atoms: N_11  and  C_14
    9  A    between atoms: C_14  and  C_22
   10  A    between atoms: C_19  and  C_37
   11  A    between atoms: O_32  and  C_35
                            x       y       z     vdW  Elec       q    Type
                         _______ _______ _______ _____ _____    ______ ____

>  <TORSDO>
F 11

$$$$
=
 OpenBabel11052420423D

 43 48  0  0  1  0  0  0  0  0999 V2000
  184.3080  178.9040  144.1700 C   0  0  0  0  0  0  0  0  0  0  0  0
  188.2880  176.6540  146.5100 C   0  0  0  0  0  0  0  0  0  0  0  0
  190.4560  177.2190  144.7760 C   0  0  0  0  0  0  0  0  0  0  0  0
  185.7590  177.6520  145.8080 C   0  0  0  0  0  0  0  0  0  0  0  0
  185.4890  179.0630  143.3100 C   0  0  0  0  0  3  0  0  0  0  0  0
  183.2080  179.3840  143.7960 O   0  0  0  0  0  0  0  0  0  0  0  0
  186.8520  177.8330  144.9340 C   0  0  0  0  0  0  0  0  0  0  0  0
  184.3850  178.1710  145.4790 C   0  0  0  0  0  2  0  0  0  0  0  0
  186.6700  178.5630  143.6650 C   0  0  0  0  0  3  0  0  0  0  0  0
  189.2470  177.5380  144.4220 N   0  0  0  0  0  0  0  0  0  0  0  0
  188.1200  177.3340  145.2880 C   0  0  0  0  0  0  0  0  0  0  0  0
  187.1980  176.4840  147.3700 C   0  0  0  0  0  3  0  0  0  0  0  0
  189.6200  176.0560  146.8670 C   0  0  2  0  0  3  0  0  0  0  0  0
  190.6940  176.6420  146.0660 N   0  0  0  0  0  2  0  0  0  0  0  0
  185.9430  176.9830  147.0200 C   0  0  0  0  0  3  0  0  0  0  0  0
  191.5820  177.4900  143.8680 C   0  0  0  0  0  0  0  0  0  0  0  0
  191.8330  178.6700  143.5080 O   0  0  0  0  0  0  0  0  0  0  0  0
  192.4250  176.3770  143.3410 C   0  0  0  0  0  2  0  0  0  0  0  0
  193.5320  176.0340  144.3250 C   0  0  2  0  0  3  0  0  0  0  0  0
  193.8840  177.1700  145.0530 O   0  0  0  0  0  1  0  0  0  0  0  0
  194.7530  175.5250  143.5770 C   0  0  0  0  0  2  0  0  0  0  0  0
  194.5230  174.1720  143.0940 N   0  0  0  0  0  0  0  0  0  0  0  0
  194.2790  171.9540  143.0540 N   0  0  0  0  0  0  0  0  0  0  0  0
  194.2290  173.8210  141.8320 C   0  0  0  0  0  3  0  0  0  0  0  0
  194.5430  173.0340  143.8110 C   0  0  0  0  0  0  0  0  0  0  0  0
  194.0790  172.4450  141.8110 C   0  0  0  0  0  3  0  0  0  0  0  0
  194.8400  172.9760  145.2830 C   0  0  1  0  0  3  0  0  0  0  0  0
  193.6900  173.2320  146.0090 F   0  0  0  0  0  0  0  0  0  0  0  0
  195.3930  171.6830  145.6630 N   0  0  0  0  0  0  0  0  0  0  0  0
  194.5440  168.3960  147.0060 C   0  0  0  0  0  1  0  0  0  0  0  0
  197.0100  169.6970  146.3230 S   0  0  0  0  0  0  0  0  0  0  0  0
  195.2330  169.6060  146.4920 C   0  0  0  0  0  0  0  0  0  0  0  0
  196.8210  171.4020  145.6890 C   0  0  0  0  0  2  0  0  0  0  0  0
  194.5800  170.6530  146.1320 N   0  0  0  0  0  0  0  0  0  0  0  0
  189.5810  174.5520  146.6480 C   0  0  0  0  0  2  0  0  0  0  0  0
  190.5290  174.1850  145.6890 O   0  0  0  0  0  0  0  0  0  0  0  0
  189.1620  173.8450  143.7790 C   0  0  0  0  0  2  0  0  0  0  0  0
  189.3310  172.8700  142.6400 C   0  0  2  0  0  3  0  0  0  0  0  0
  190.9360  172.3190  144.2630 C   0  0  0  0  0  2  0  0  0  0  0  0
  189.8990  173.2050  144.9200 C   0  0  1  0  0  3  0  0  0  0  0  0
  190.5660  172.1270  142.8640 N   0  0  0  0  0  2  0  0  0  0  0  0
  189.9290  174.9010  141.5390 O   0  0  0  0  0  1  0  0  0  0  0  0
  189.4040  173.6250  141.3270 C   0  0  0  0  0  2  0  0  0  0  0  0
  1  8  1  0  0  0  0
  2 13  1  0  0  0  0
  2 12  1  0  0  0  0
  3 14  1  0  0  0  0
  4 15  1  0  0  0  0
  5  9  2  0  0  0  0
  5  1  1  0  0  0  0
  6  1  2  0  0  0  0
  7 11  1  0  0  0  0
  7  4  2  0  0  0  0
  8  4  1  0  0  0  0
  9  7  1  0  0  0  0
 10  3  2  0  0  0  0
 10 11  1  0  0  0  0
 11  2  2  0  0  0  0
 13 35  1  6  0  0  0
 14 13  1  0  0  0  0
 15 12  2  0  0  0  0
 16  3  1  0  0  0  0
 17 16  2  0  0  0  0
 18 16  1  0  0  0  0
 18 19  1  0  0  0  0
 19 20  1  6  0  0  0
 21 19  1  0  0  0  0
 22 21  1  0  0  0  0
 22 25  1  0  0  0  0
 23 25  2  0  0  0  0
 24 22  1  0  0  0  0
 25 27  1  0  0  0  0
 26 24  2  0  0  0  0
 26 23  1  0  0  0  0
 27 29  1  0  0  0  0
 27 28  1  1  0  0  0
 29 33  1  0  0  0  0
 29 34  1  0  0  0  0
 31 32  1  0  0  0  0
 32 30  1  0  0  0  0
 33 31  1  0  0  0  0
 34 32  2  0  0  0  0
 36 35  1  0  0  0  0
 37 40  1  0  0  0  0
 38 43  1  6  0  0  0
 38 41  1  0  0  0  0
 38 37  1  0  0  0  0
 39 40  1  0  0  0  0
 40 36  1  1  0  0  0
 41 39  1  0  0  0  0
 43 42  1  0  0  0  0
M  END
>  <MODEL>
6

>  <REMARK>
 VINA RESULT:      -7.2      1.686      2.049
  Name = 
  11 active torsions:
  status: ('A' for Active; 'I' for Inactive)
    1  A    between atoms: C_1  and  O_32
    2  A    between atoms: C_1  and  C_34
    3  A    between atoms: C_2  and  C_6
    4  A    between atoms: C_2  and  C_13
    5  A    between atoms: C_3  and  N_4
    6  A    between atoms: C_3  and  C_12
    7  A    between atoms: C_6  and  C_12
    8  A    between atoms: N_11  and  C_14
    9  A    between atoms: C_14  and  C_22
   10  A    between atoms: C_19  and  C_37
   11  A    between atoms: O_32  and  C_35
                            x       y       z     vdW  Elec       q    Type
                         _______ _______ _______ _____ _____    ______ ____

>  <TORSDO>
F 11

$$$$
=
 OpenBabel11052420423D

 43 48  0  0  1  0  0  0  0  0999 V2000
  184.7540  178.2890  142.1390 C   0  0  0  0  0  0  0  0  0  0  0  0
  188.0150  176.7360  145.7900 C   0  0  0  0  0  0  0  0  0  0  0  0
  190.5540  177.1230  144.5910 C   0  0  0  0  0  0  0  0  0  0  0  0
  185.7450  177.4360  144.2950 C   0  0  0  0  0  0  0  0  0  0  0  0
  186.1160  178.3680  141.5940 C   0  0  0  0  0  3  0  0  0  0  0  0
  183.7830  178.6260  141.4150 O   0  0  0  0  0  0  0  0  0  0  0  0
  187.0260  177.5290  143.7100 C   0  0  0  0  0  0  0  0  0  0  0  0
  184.4970  177.8020  143.5380 C   0  0  0  0  0  2  0  0  0  0  0  0
  187.1710  178.0130  142.3240 C   0  0  0  0  0  3  0  0  0  0  0  0
  189.4740  177.2990  143.8890 N   0  0  0  0  0  0  0  0  0  0  0  0
  188.1640  177.1800  144.4610 C   0  0  0  0  0  0  0  0  0  0  0  0
  186.7410  176.6510  146.3600 C   0  0  0  0  0  3  0  0  0  0  0  0
  189.2160  176.2940  146.5780 C   0  0  2  0  0  3  0  0  0  0  0  0
  190.4540  176.7960  145.9840 N   0  0  0  0  0  2  0  0  0  0  0  0
  185.6150  177.0020  145.6170 C   0  0  0  0  0  3  0  0  0  0  0  0
  191.8740  177.3000  143.9650 C   0  0  0  0  0  0  0  0  0  0  0  0
  191.9770  177.9110  142.8690 O   0  0  0  0  0  0  0  0  0  0  0  0
  193.1030  176.7420  144.6010 C   0  0  0  0  0  2  0  0  0  0  0  0
  193.4870  175.4220  143.9520 C   0  0  2  0  0  3  0  0  0  0  0  0
  192.4750  175.0110  143.0850 O   0  0  0  0  0  1  0  0  0  0  0  0
  193.6920  174.3580  145.0170 C   0  0  0  0  0  2  0  0  0  0  0  0
  195.0890  173.9540  145.0670 N   0  0  0  0  0  0  0  0  0  0  0  0
  196.9810  172.8320  144.6900 N   0  0  0  0  0  0  0  0  0  0  0  0
  196.0660  174.5690  145.7530 C   0  0  0  0  0  3  0  0  0  0  0  0
  195.6630  172.9160  144.4330 C   0  0  0  0  0  0  0  0  0  0  0  0
  197.2370  173.8700  145.5160 C   0  0  0  0  0  3  0  0  0  0  0  0
  194.9150  171.9570  143.5510 C   0  0  1  0  0  3  0  0  0  0  0  0
  195.7120  171.5700  142.4880 F   0  0  0  0  0  0  0  0  0  0  0  0
  194.4730  170.7850  144.2960 N   0  0  0  0  0  0  0  0  0  0  0  0
  195.0820  168.8020  147.3000 C   0  0  0  0  0  1  0  0  0  0  0  0
  193.3500  168.5060  145.0310 S   0  0  0  0  0  0  0  0  0  0  0  0
  194.5990  169.3370  146.0020 C   0  0  0  0  0  0  0  0  0  0  0  0
  193.4870  169.8420  143.7900 C   0  0  0  0  0  2  0  0  0  0  0  0
  195.0540  170.4350  145.5140 N   0  0  0  0  0  0  0  0  0  0  0  0
  189.2580  174.7750  146.6390 C   0  0  0  0  0  2  0  0  0  0  0  0
  190.2900  174.2930  145.8290 O   0  0  0  0  0  0  0  0  0  0  0  0
  189.1600  173.8410  143.7910 C   0  0  0  0  0  2  0  0  0  0  0  0
  189.4150  172.7560  142.7750 C   0  0  2  0  0  3  0  0  0  0  0  0
  190.7640  172.2840  144.6380 C   0  0  0  0  0  2  0  0  0  0  0  0
  189.7060  173.2760  145.0720 C   0  0  1  0  0  3  0  0  0  0  0  0
  190.5650  171.9790  143.2250 N   0  0  0  0  0  2  0  0  0  0  0  0
  189.3810  174.7370  141.4460 O   0  0  0  0  0  1  0  0  0  0  0  0
  189.7000  173.3800  141.4220 C   0  0  0  0  0  2  0  0  0  0  0  0
  1  8  1  0  0  0  0
  2 12  1  0  0  0  0
  2 13  1  0  0  0  0
  3 14  1  0  0  0  0
  4 15  1  0  0  0  0
  5  1  1  0  0  0  0
  5  9  2  0  0  0  0
  6  1  2  0  0  0  0
  7  4  2  0  0  0  0
  7 11  1  0  0  0  0
  8  4  1  0  0  0  0
  9  7  1  0  0  0  0
 10 11  1  0  0  0  0
 10  3  2  0  0  0  0
 11  2  2  0  0  0  0
 13 35  1  6  0  0  0
 14 13  1  0  0  0  0
 15 12  2  0  0  0  0
 16  3  1  0  0  0  0
 16 18  1  0  0  0  0
 17 16  2  0  0  0  0
 19 20  1  6  0  0  0
 19 18  1  0  0  0  0
 19 21  1  0  0  0  0
 21 22  1  0  0  0  0
 22 24  1  0  0  0  0
 23 26  1  0  0  0  0
 25 23  2  0  0  0  0
 25 22  1  0  0  0  0
 26 24  2  0  0  0  0
 27 28  1  6  0  0  0
 27 29  1  0  0  0  0
 27 25  1  0  0  0  0
 29 34  1  0  0  0  0
 31 32  1  0  0  0  0
 32 30  1  0  0  0  0
 33 29  1  0  0  0  0
 33 31  1  0  0  0  0
 34 32  2  0  0  0  0
 36 35  1  0  0  0  0
 37 40  1  0  0  0  0
 38 43  1  6  0  0  0
 38 41  1  0  0  0  0
 38 37  1  0  0  0  0
 39 40  1  0  0  0  0
 40 36  1  1  0  0  0
 41 39  1  0  0  0  0
 43 42  1  0  0  0  0
M  END
>  <MODEL>
7

>  <REMARK>
 VINA RESULT:      -7.0      1.797      2.335
  Name = 
  11 active torsions:
  status: ('A' for Active; 'I' for Inactive)
    1  A    between atoms: C_1  and  O_32
    2  A    between atoms: C_1  and  C_34
    3  A    between atoms: C_2  and  C_6
    4  A    between atoms: C_2  and  C_13
    5  A    between atoms: C_3  and  N_4
    6  A    between atoms: C_3  and  C_12
    7  A    between atoms: C_6  and  C_12
    8  A    between atoms: N_11  and  C_14
    9  A    between atoms: C_14  and  C_22
   10  A    between atoms: C_19  and  C_37
   11  A    between atoms: O_32  and  C_35
                            x       y       z     vdW  Elec       q    Type
                         _______ _______ _______ _____ _____    ______ ____

>  <TORSDO>
F 11

$$$$
=
 OpenBabel11052420423D

 43 48  0  0  1  0  0  0  0  0999 V2000
  195.7650  176.5990  143.5810 C   0  0  0  0  0  0  0  0  0  0  0  0
  191.3040  175.4870  145.8700 C   0  0  0  0  0  0  0  0  0  0  0  0
  189.7970  174.2870  143.7910 C   0  0  0  0  0  0  0  0  0  0  0  0
  193.9180  176.3200  145.2740 C   0  0  0  0  0  0  0  0  0  0  0  0
  194.8620  176.0400  142.5670 C   0  0  0  0  0  3  0  0  0  0  0  0
  196.9260  176.9450  143.2450 O   0  0  0  0  0  0  0  0  0  0  0  0
  193.0980  175.7970  144.2520 C   0  0  0  0  0  0  0  0  0  0  0  0
  195.3270  176.7780  145.0080 C   0  0  0  0  0  2  0  0  0  0  0  0
  193.6220  175.6690  142.8790 C   0  0  0  0  0  3  0  0  0  0  0  0
  190.9550  174.8140  143.5280 N   0  0  0  0  0  0  0  0  0  0  0  0
  191.7890  175.3770  144.5520 C   0  0  0  0  0  0  0  0  0  0  0  0
  192.1270  176.0040  146.8760 C   0  0  0  0  0  3  0  0  0  0  0  0
  189.8850  175.1070  146.1890 C   0  0  2  0  0  3  0  0  0  0  0  0
  189.3160  174.2590  145.1420 N   0  0  0  0  0  2  0  0  0  0  0  0
  193.4260  176.4150  146.5790 C   0  0  0  0  0  3  0  0  0  0  0  0
  189.0010  173.6840  142.7110 C   0  0  0  0  0  0  0  0  0  0  0  0
  188.0330  174.3150  142.2110 O   0  0  0  0  0  0  0  0  0  0  0  0
  189.3090  172.3130  142.2080 C   0  0  0  0  0  2  0  0  0  0  0  0
  190.1990  172.3830  140.9770 C   0  0  2  0  0  3  0  0  0  0  0  0
  189.6950  171.5460  139.9830 O   0  0  0  0  0  1  0  0  0  0  0  0
  191.6100  171.9440  141.3290 C   0  0  0  0  0  2  0  0  0  0  0  0
  192.5860  172.7710  140.6360 N   0  0  0  0  0  0  0  0  0  0  0  0
  194.5330  173.5830  139.9080 N   0  0  0  0  0  0  0  0  0  0  0  0
  192.3130  173.7900  139.8070 C   0  0  0  0  0  3  0  0  0  0  0  0
  193.9260  172.6620  140.6790 C   0  0  0  0  0  0  0  0  0  0  0  0
  193.5230  174.2920  139.3580 C   0  0  0  0  0  3  0  0  0  0  0  0
  194.6580  171.6390  141.5000 C   0  0  1  0  0  3  0  0  0  0  0  0
  195.8310  171.2720  140.8670 F   0  0  0  0  0  0  0  0  0  0  0  0
  194.9480  172.1410  142.8380 N   0  0  0  0  0  0  0  0  0  0  0  0
  197.5280  173.6850  144.9080 C   0  0  0  0  0  1  0  0  0  0  0  0
  194.8900  172.6800  145.4260 S   0  0  0  0  0  0  0  0  0  0  0  0
  196.2960  173.0430  144.3850 C   0  0  0  0  0  0  0  0  0  0  0  0
  194.0400  171.9840  143.9640 C   0  0  0  0  0  2  0  0  0  0  0  0
  196.1770  172.7200  143.1460 N   0  0  0  0  0  0  0  0  0  0  0  0
  189.0420  176.3630  146.3420 C   0  0  0  0  0  2  0  0  0  0  0  0
  187.7300  176.0190  146.6800 O   0  0  0  0  0  0  0  0  0  0  0  0
  187.4880  177.9160  145.2750 C   0  0  0  0  0  2  0  0  0  0  0  0
  186.2390  178.5050  144.6670 C   0  0  2  0  0  3  0  0  0  0  0  0
  185.5520  176.8460  146.1800 C   0  0  0  0  0  2  0  0  0  0  0  0
  186.9930  177.1890  146.4930 C   0  0  1  0  0  3  0  0  0  0  0  0
  185.1100  177.6670  145.0570 N   0  0  0  0  0  2  0  0  0  0  0  0
  187.2220  177.5160  142.7310 O   0  0  0  0  0  1  0  0  0  0  0  0
  186.3710  178.5370  143.1570 C   0  0  0  0  0  2  0  0  0  0  0  0
  1  8  1  0  0  0  0
  2 13  1  0  0  0  0
  2 12  1  0  0  0  0
  3 14  1  0  0  0  0
  4 15  1  0  0  0  0
  5  9  2  0  0  0  0
  5  1  1  0  0  0  0
  6  1  2  0  0  0  0
  7 11  1  0  0  0  0
  7  4  2  0  0  0  0
  8  4  1  0  0  0  0
  9  7  1  0  0  0  0
 10  3  2  0  0  0  0
 10 11  1  0  0  0  0
 11  2  2  0  0  0  0
 13 35  1  6  0  0  0
 14 13  1  0  0  0  0
 15 12  2  0  0  0  0
 16  3  1  0  0  0  0
 17 16  2  0  0  0  0
 18 16  1  0  0  0  0
 19 20  1  6  0  0  0
 19 21  1  0  0  0  0
 19 18  1  0  0  0  0
 22 25  1  0  0  0  0
 22 21  1  0  0  0  0
 23 25  2  0  0  0  0
 24 22  1  0  0  0  0
 25 27  1  0  0  0  0
 26 24  2  0  0  0  0
 26 23  1  0  0  0  0
 27 28  1  6  0  0  0
 27 29  1  0  0  0  0
 29 34  1  0  0  0  0
 29 33  1  0  0  0  0
 32 30  1  0  0  0  0
 32 31  1  0  0  0  0
 33 31  1  0  0  0  0
 34 32  2  0  0  0  0
 35 36  1  0  0  0  0
 37 40  1  0  0  0  0
 38 43  1  6  0  0  0
 38 41  1  0  0  0  0
 38 37  1  0  0  0  0
 39 40  1  0  0  0  0
 40 36  1  6  0  0  0
 41 39  1  0  0  0  0
 42 43  1  0  0  0  0
M  END
>  <MODEL>
8

>  <REMARK>
 VINA RESULT:      -7.0      2.363      5.973
  Name = 
  11 active torsions:
  status: ('A' for Active; 'I' for Inactive)
    1  A    between atoms: C_1  and  O_32
    2  A    between atoms: C_1  and  C_34
    3  A    between atoms: C_2  and  C_6
    4  A    between atoms: C_2  and  C_13
    5  A    between atoms: C_3  and  N_4
    6  A    between atoms: C_3  and  C_12
    7  A    between atoms: C_6  and  C_12
    8  A    between atoms: N_11  and  C_14
    9  A    between atoms: C_14  and  C_22
   10  A    between atoms: C_19  and  C_37
   11  A    between atoms: O_32  and  C_35
                            x       y       z     vdW  Elec       q    Type
                         _______ _______ _______ _____ _____    ______ ____

>  <TORSDO>
F 11

$$$$
=
 OpenBabel11052420423D

 43 48  0  0  1  0  0  0  0  0999 V2000
  187.0010  178.3310  143.6850 C   0  0  0  0  0  0  0  0  0  0  0  0
  190.4200  174.7000  144.9110 C   0  0  0  0  0  0  0  0  0  0  0  0
  192.2450  174.7780  142.7440 C   0  0  0  0  0  0  0  0  0  0  0  0
  188.2700  176.5050  144.8720 C   0  0  0  0  0  0  0  0  0  0  0  0
  187.9640  178.2230  142.5800 C   0  0  0  0  0  3  0  0  0  0  0  0
  186.0660  179.1680  143.6040 O   0  0  0  0  0  0  0  0  0  0  0  0
  189.1560  176.4460  143.7760 C   0  0  0  0  0  0  0  0  0  0  0  0
  187.1040  177.4560  144.9020 C   0  0  0  0  0  2  0  0  0  0  0  0
  188.9630  177.3450  142.6230 C   0  0  0  0  0  3  0  0  0  0  0  0
  191.1610  175.4940  142.7020 N   0  0  0  0  0  0  0  0  0  0  0  0
  190.2350  175.5430  143.7970 C   0  0  0  0  0  0  0  0  0  0  0  0
  189.5380  174.7700  145.9940 C   0  0  0  0  0  3  0  0  0  0  0  0
  191.5270  173.6830  144.9150 C   0  0  2  0  0  3  0  0  0  0  0  0
  192.5430  174.0030  143.9130 N   0  0  0  0  0  2  0  0  0  0  0  0
  188.4720  175.6690  145.9740 C   0  0  0  0  0  3  0  0  0  0  0  0
  193.1840  174.7990  141.6120 C   0  0  0  0  0  0  0  0  0  0  0  0
  192.7500  174.7680  140.4300 O   0  0  0  0  0  0  0  0  0  0  0  0
  194.6580  174.8300  141.8400 C   0  0  0  0  0  2  0  0  0  0  0  0
  195.1260  176.2510  142.1150 C   0  0  2  0  0  3  0  0  0  0  0  0
  195.7490  176.7690  140.9810 O   0  0  0  0  0  1  0  0  0  0  0  0
  196.1090  176.2610  143.2720 C   0  0  0  0  0  2  0  0  0  0  0  0
  195.4070  176.0970  144.5360 N   0  0  0  0  0  0  0  0  0  0  0  0
  194.8030  175.3030  146.5320 N   0  0  0  0  0  0  0  0  0  0  0  0
  194.4140  176.8750  144.9960 C   0  0  0  0  0  3  0  0  0  0  0  0
  195.6260  175.1620  145.4770 C   0  0  0  0  0  0  0  0  0  0  0  0
  194.0430  176.3790  146.2340 C   0  0  0  0  0  3  0  0  0  0  0  0
  196.6610  174.0800  145.3580 C   0  0  1  0  0  3  0  0  0  0  0  0
  197.1970  173.7960  146.6010 F   0  0  0  0  0  0  0  0  0  0  0  0
  196.1000  172.8710  144.7670 N   0  0  0  0  0  0  0  0  0  0  0  0
  196.1260  170.7640  141.7860 C   0  0  0  0  0  1  0  0  0  0  0  0
  194.6130  170.7520  144.2250 S   0  0  0  0  0  0  0  0  0  0  0  0
  195.8470  171.3930  143.1020 C   0  0  0  0  0  0  0  0  0  0  0  0
  195.0330  172.1000  145.3880 C   0  0  0  0  0  2  0  0  0  0  0  0
  196.4890  172.4310  143.5040 N   0  0  0  0  0  0  0  0  0  0  0  0
  190.9540  172.3020  144.6380 C   0  0  0  0  0  2  0  0  0  0  0  0
  189.5700  172.3870  144.4570 O   0  0  0  0  0  0  0  0  0  0  0  0
  188.6600  172.7910  142.3030 C   0  0  0  0  0  2  0  0  0  0  0  0
  189.2480  172.5000  140.9440 C   0  0  2  0  0  3  0  0  0  0  0  0
  190.6520  171.4910  142.5330 C   0  0  0  0  0  2  0  0  0  0  0  0
  189.3360  171.8030  143.2120 C   0  0  1  0  0  3  0  0  0  0  0  0
  190.5750  171.9260  141.1420 N   0  0  0  0  0  2  0  0  0  0  0  0
  189.2480  173.5070  138.7810 O   0  0  0  0  0  1  0  0  0  0  0  0
  189.3460  173.7850  140.1450 C   0  0  0  0  0  2  0  0  0  0  0  0
  1  8  1  0  0  0  0
  2 13  1  0  0  0  0
  2 12  1  0  0  0  0
  3 14  1  0  0  0  0
  4  8  1  0  0  0  0
  4 15  1  0  0  0  0
  5  9  2  0  0  0  0
  5  1  1  0  0  0  0
  6  1  2  0  0  0  0
  7 11  1  0  0  0  0
  7  4  2  0  0  0  0
  9  7  1  0  0  0  0
 10  3  2  0  0  0  0
 10 11  1  0  0  0  0
 11  2  2  0  0  0  0
 13 35  1  6  0  0  0
 14 13  1  0  0  0  0
 15 12  2  0  0  0  0
 16 18  1  0  0  0  0
 16  3  1  0  0  0  0
 17 16  2  0  0  0  0
 18 19  1  0  0  0  0
 19 20  1  6  0  0  0
 19 21  1  0  0  0  0
 21 22  1  0  0  0  0
 22 24  1  0  0  0  0
 22 25  1  0  0  0  0
 24 26  2  0  0  0  0
 25 23  2  0  0  0  0
 26 23  1  0  0  0  0
 27 25  1  0  0  0  0
 27 28  1  1  0  0  0
 29 27  1  0  0  0  0
 29 33  1  0  0  0  0
 30 32  1  0  0  0  0
 31 33  1  0  0  0  0
 32 34  2  0  0  0  0
 32 31  1  0  0  0  0
 34 29  1  0  0  0  0
 36 35  1  0  0  0  0
 37 40  1  0  0  0  0
 38 43  1  6  0  0  0
 38 41  1  0  0  0  0
 38 37  1  0  0  0  0
 39 40  1  0  0  0  0
 40 36  1  1  0  0  0
 41 39  1  0  0  0  0
 42 43  1  0  0  0  0
M  END
>  <MODEL>
9

>  <REMARK>
 VINA RESULT:      -7.0      2.028      3.016
  Name = 
  11 active torsions:
  status: ('A' for Active; 'I' for Inactive)
    1  A    between atoms: C_1  and  O_32
    2  A    between atoms: C_1  and  C_34
    3  A    between atoms: C_2  and  C_6
    4  A    between atoms: C_2  and  C_13
    5  A    between atoms: C_3  and  N_4
    6  A    between atoms: C_3  and  C_12
    7  A    between atoms: C_6  and  C_12
    8  A    between atoms: N_11  and  C_14
    9  A    between atoms: C_14  and  C_22
   10  A    between atoms: C_19  and  C_37
   11  A    between atoms: O_32  and  C_35
                            x       y       z     vdW  Elec       q    Type
                         _______ _______ _______ _____ _____    ______ ____

>  <TORSDO>
F 11

$$$$
