=
 OpenBabel11052417313D

 25 28  0  0  1  0  0  0  0  0999 V2000
  187.0440  177.3790  143.4730 C   0  0  0  0  0  0  0  0  0  0  0  0
  187.7600  176.3590  142.8210 C   0  0  0  0  0  0  0  0  0  0  0  0
  186.2730  178.2930  141.3680 C   0  0  0  0  0  3  0  0  0  0  0  0
  186.8790  177.7020  144.9170 C   0  0  1  0  0  3  0  0  0  0  0  0
  184.8700  178.2940  146.8590 C   0  0  0  0  0  3  0  0  0  0  0  0
  186.9240  177.2470  140.6950 C   0  0  0  0  0  3  0  0  0  0  0  0
  185.9500  178.8770  144.8140 C   0  0  0  0  0  0  0  0  0  0  0  0
  185.1330  179.2560  145.9670 C   0  0  0  0  0  3  0  0  0  0  0  0
  188.5010  173.9760  141.4520 C   0  0  0  0  0  2  0  0  0  0  0  0
  188.2180  175.1900  140.7520 O   0  0  0  0  0  0  0  0  0  0  0  0
  188.6380  175.3640  143.5010 C   0  0  0  0  0  0  0  0  0  0  0  0
  185.3370  176.9420  146.6510 N   0  0  0  0  0  0  0  0  0  0  0  0
  186.3520  178.3320  142.7580 C   0  0  0  0  0  0  0  0  0  0  0  0
  185.6570  179.2340  143.6020 N   0  0  0  0  0  0  0  0  0  0  0  0
  189.0000  174.2590  142.8430 C   0  0  0  0  0  3  0  0  0  0  0  0
  186.2100  176.6280  145.7320 C   0  0  0  0  0  3  0  0  0  0  0  0
  187.6350  176.2720  141.4180 C   0  0  0  0  0  0  0  0  0  0  0  0
  189.1780  175.5660  144.7750 O   0  0  0  0  0  0  0  0  0  0  0  0
  189.6910  174.5070  145.5760 C   0  0  0  0  0  2  0  0  0  0  0  0
  189.5890  174.8430  147.0630 C   0  0  0  0  0  2  0  0  0  0  0  0
  190.8690  175.4460  147.6440 C   0  0  1  0  0  3  0  0  0  0  0  0
  192.0970  175.0980  146.8150 C   0  0  0  0  0  1  0  0  0  0  0  0
  190.7520  176.9150  147.9080 C   0  0  0  0  0  0  0  0  0  0  0  0
  189.9160  177.6210  147.2820 O   0  0  0  0  0  0  0  0  0  0  0  0
  191.5460  177.4990  148.8860 O   0  0  0  0  0  1  0  0  0  0  0  0
  1  4  1  0  0  0  0
  2  1  1  0  0  0  0
  2 11  1  0  0  0  0
  3 13  1  0  0  0  0
  4 16  1  1  0  0  0
  6  3  2  0  0  0  0
  6 17  1  0  0  0  0
  7  4  1  0  0  0  0
  7  8  1  0  0  0  0
  8  5  2  0  0  0  0
  9 15  1  0  0  0  0
 10 17  1  0  0  0  0
 10  9  1  0  0  0  0
 11 18  1  0  0  0  0
 12  5  1  0  0  0  0
 13  1  2  0  0  0  0
 13 14  1  0  0  0  0
 14  7  2  0  0  0  0
 15 11  2  0  0  0  0
 16 12  2  0  0  0  0
 17  2  2  0  0  0  0
 18 19  1  0  0  0  0
 19 20  1  0  0  0  0
 20 21  1  0  0  0  0
 21 22  1  6  0  0  0
 21 23  1  0  0  0  0
 23 25  1  0  0  0  0
 24 23  2  0  0  0  0
M  END
>  <MODEL>
1

>  <REMARK>
 VINA RESULT:      -7.5      0.000      0.000
  Name = 
  5 active torsions:
  status: ('A' for Active; 'I' for Inactive)
    1  A    between atoms: C_2  and  C_21
    2  A    between atoms: C_6  and  C_15
    3  A    between atoms: C_6  and  O_23
    4  A    between atoms: C_15  and  C_21
    5  A    between atoms: C_16  and  O_23
                            x       y       z     vdW  Elec       q    Type
                         _______ _______ _______ _____ _____    ______ ____

>  <TORSDO>
F 5

$$$$
=
 OpenBabel11052417313D

 25 28  0  0  1  0  0  0  0  0999 V2000
  186.1160  178.0680  144.0650 C   0  0  0  0  0  0  0  0  0  0  0  0
  186.8440  177.5610  142.9740 C   0  0  0  0  0  0  0  0  0  0  0  0
  184.1500  178.4130  142.6950 C   0  0  0  0  0  3  0  0  0  0  0  0
  186.4900  178.2790  145.4910 C   0  0  1  0  0  3  0  0  0  0  0  0
  185.5670  177.7670  148.1440 C   0  0  0  0  0  3  0  0  0  0  0  0
  184.8320  177.8500  141.6040 C   0  0  0  0  0  3  0  0  0  0  0  0
  185.1860  178.7960  146.0260 C   0  0  0  0  0  0  0  0  0  0  0  0
  184.9100  178.7110  147.4600 C   0  0  0  0  0  3  0  0  0  0  0  0
  187.9100  175.8940  140.9280 C   0  0  0  0  0  2  0  0  0  0  0  0
  186.8080  176.7710  140.6870 O   0  0  0  0  0  0  0  0  0  0  0  0
  188.2850  177.1800  143.0130 C   0  0  0  0  0  0  0  0  0  0  0  0
  186.4630  176.8530  147.4720 N   0  0  0  0  0  0  0  0  0  0  0  0
  184.8190  178.5090  143.9120 C   0  0  0  0  0  0  0  0  0  0  0  0
  184.2490  178.9290  145.1400 N   0  0  0  0  0  0  0  0  0  0  0  0
  188.7830  176.4160  142.0360 C   0  0  0  0  0  3  0  0  0  0  0  0
  186.8570  177.0270  146.2400 C   0  0  0  0  0  3  0  0  0  0  0  0
  186.1570  177.4000  141.7520 C   0  0  0  0  0  0  0  0  0  0  0  0
  189.1740  177.6530  143.9830 O   0  0  0  0  0  0  0  0  0  0  0  0
  190.5280  177.2210  144.0710 C   0  0  0  0  0  2  0  0  0  0  0  0
  190.8090  176.5650  145.4210 C   0  0  0  0  0  2  0  0  0  0  0  0
  189.8910  175.3810  145.7290 C   0  0  1  0  0  3  0  0  0  0  0  0
  190.1780  174.1820  144.8370 C   0  0  0  0  0  1  0  0  0  0  0  0
  189.8710  175.0230  147.1830 C   0  0  0  0  0  0  0  0  0  0  0  0
  188.8890  174.4140  147.6870 O   0  0  0  0  0  0  0  0  0  0  0  0
  190.9680  175.3270  147.9770 O   0  0  0  0  0  1  0  0  0  0  0  0
  1  4  1  0  0  0  0
  2 11  1  0  0  0  0
  2  1  2  0  0  0  0
  3 13  2  0  0  0  0
  4  7  1  0  0  0  0
  4 16  1  1  0  0  0
  6 17  2  0  0  0  0
  6  3  1  0  0  0  0
  7  8  1  0  0  0  0
  8  5  2  0  0  0  0
  9 15  1  0  0  0  0
 10  9  1  0  0  0  0
 10 17  1  0  0  0  0
 11 18  1  0  0  0  0
 12  5  1  0  0  0  0
 13  1  1  0  0  0  0
 13 14  1  0  0  0  0
 14  7  2  0  0  0  0
 15 11  2  0  0  0  0
 16 12  2  0  0  0  0
 17  2  1  0  0  0  0
 18 19  1  0  0  0  0
 19 20  1  0  0  0  0
 20 21  1  0  0  0  0
 21 22  1  6  0  0  0
 21 23  1  0  0  0  0
 23 24  2  0  0  0  0
 23 25  1  0  0  0  0
M  END
>  <MODEL>
2

>  <REMARK>
 VINA RESULT:      -7.3      1.627      2.134
  Name = 
  5 active torsions:
  status: ('A' for Active; 'I' for Inactive)
    1  A    between atoms: C_2  and  C_21
    2  A    between atoms: C_6  and  C_15
    3  A    between atoms: C_6  and  O_23
    4  A    between atoms: C_15  and  C_21
    5  A    between atoms: C_16  and  O_23
                            x       y       z     vdW  Elec       q    Type
                         _______ _______ _______ _____ _____    ______ ____

>  <TORSDO>
F 5

$$$$
=
 OpenBabel11052417313D

 25 28  0  0  1  0  0  0  0  0999 V2000
  187.8160  177.0030  145.3290 C   0  0  0  0  0  0  0  0  0  0  0  0
  189.0270  177.0710  144.6160 C   0  0  0  0  0  0  0  0  0  0  0  0
  188.9360  176.1680  147.3070 C   0  0  0  0  0  3  0  0  0  0  0  0
  186.4200  177.3370  144.9380 C   0  0  1  0  0  3  0  0  0  0  0  0
  184.1340  178.7950  145.8360 C   0  0  0  0  0  3  0  0  0  0  0  0
  190.1660  176.2880  146.6410 C   0  0  0  0  0  3  0  0  0  0  0  0
  185.7140  177.0520  146.2320 C   0  0  0  0  0  0  0  0  0  0  0  0
  184.4110  177.6620  146.4940 C   0  0  0  0  0  3  0  0  0  0  0  0
  191.5590  177.8620  143.5850 C   0  0  0  0  0  2  0  0  0  0  0  0
  191.4430  176.9550  144.6830 O   0  0  0  0  0  0  0  0  0  0  0  0
  189.1500  177.4430  143.1770 C   0  0  0  0  0  0  0  0  0  0  0  0
  185.1080  179.3960  144.9530 N   0  0  0  0  0  0  0  0  0  0  0  0
  187.7790  176.5330  146.6240 C   0  0  0  0  0  0  0  0  0  0  0  0
  186.4750  176.5970  147.1780 N   0  0  0  0  0  0  0  0  0  0  0  0
  190.3480  177.7910  142.6960 C   0  0  0  0  0  3  0  0  0  0  0  0
  186.1930  178.7790  144.5710 C   0  0  0  0  0  3  0  0  0  0  0  0
  190.2130  176.7640  145.3180 C   0  0  0  0  0  0  0  0  0  0  0  0
  188.0850  177.3660  142.2750 O   0  0  0  0  0  0  0  0  0  0  0  0
  187.9420  176.3060  141.3350 C   0  0  0  0  0  2  0  0  0  0  0  0
  187.7750  174.9630  142.0420 C   0  0  0  0  0  2  0  0  0  0  0  0
  189.0340  174.0950  142.0150 C   0  0  1  0  0  3  0  0  0  0  0  0
  189.4640  173.6610  143.4090 C   0  0  0  0  0  1  0  0  0  0  0  0
  188.9280  172.9450  141.0620 C   0  0  0  0  0  0  0  0  0  0  0  0
  188.1610  173.0000  140.0630 O   0  0  0  0  0  0  0  0  0  0  0  0
  189.7170  171.8190  141.2580 O   0  0  0  0  0  1  0  0  0  0  0  0
  1 13  1  0  0  0  0
  2 17  1  0  0  0  0
  2  1  2  0  0  0  0
  4 16  1  1  0  0  0
  4  1  1  0  0  0  0
  4  7  1  0  0  0  0
  5  8  2  0  0  0  0
  6  3  1  0  0  0  0
  7  8  1  0  0  0  0
  7 14  2  0  0  0  0
  9 10  1  0  0  0  0
 10 17  1  0  0  0  0
 11  2  1  0  0  0  0
 12  5  1  0  0  0  0
 13 14  1  0  0  0  0
 13  3  2  0  0  0  0
 15 11  2  0  0  0  0
 15  9  1  0  0  0  0
 16 12  2  0  0  0  0
 17  6  2  0  0  0  0
 18 11  1  0  0  0  0
 19 20  1  0  0  0  0
 19 18  1  0  0  0  0
 21 20  1  0  0  0  0
 21 22  1  1  0  0  0
 23 25  1  0  0  0  0
 23 21  1  0  0  0  0
 24 23  2  0  0  0  0
M  END
>  <MODEL>
3

>  <REMARK>
 VINA RESULT:      -7.1      1.907      5.004
  Name = 
  5 active torsions:
  status: ('A' for Active; 'I' for Inactive)
    1  A    between atoms: C_2  and  C_21
    2  A    between atoms: C_6  and  C_15
    3  A    between atoms: C_6  and  O_23
    4  A    between atoms: C_15  and  C_21
    5  A    between atoms: C_16  and  O_23
                            x       y       z     vdW  Elec       q    Type
                         _______ _______ _______ _____ _____    ______ ____

>  <TORSDO>
F 5

$$$$
=
 OpenBabel11052417313D

 25 28  0  0  1  0  0  0  0  0999 V2000
  187.4290  177.3330  144.1290 C   0  0  0  0  0  0  0  0  0  0  0  0
  188.3730  176.3210  143.8780 C   0  0  0  0  0  0  0  0  0  0  0  0
  187.3970  177.9900  141.7990 C   0  0  0  0  0  3  0  0  0  0  0  0
  186.7570  177.7680  145.3840 C   0  0  1  0  0  3  0  0  0  0  0  0
  184.1740  178.3640  146.4460 C   0  0  0  0  0  3  0  0  0  0  0  0
  188.2890  176.9460  141.5090 C   0  0  0  0  0  3  0  0  0  0  0  0
  185.8700  178.8500  144.8400 C   0  0  0  0  0  0  0  0  0  0  0  0
  184.6870  179.2610  145.5960 C   0  0  0  0  0  3  0  0  0  0  0  0
  189.6530  173.8940  143.1180 C   0  0  0  0  0  2  0  0  0  0  0  0
  189.5750  175.0140  142.2340 O   0  0  0  0  0  0  0  0  0  0  0  0
  189.0040  175.4640  144.9230 C   0  0  0  0  0  0  0  0  0  0  0  0
  184.7460  177.0420  146.5620 N   0  0  0  0  0  0  0  0  0  0  0  0
  186.9860  178.1590  143.1190 C   0  0  0  0  0  0  0  0  0  0  0  0
  186.0000  179.0720  143.5700 N   0  0  0  0  0  0  0  0  0  0  0  0
  189.6230  174.3380  144.5550 C   0  0  0  0  0  3  0  0  0  0  0  0
  185.8970  176.7200  146.0370 C   0  0  0  0  0  3  0  0  0  0  0  0
  188.7480  176.0990  142.5350 C   0  0  0  0  0  0  0  0  0  0  0  0
  189.0580  175.8220  146.2740 O   0  0  0  0  0  0  0  0  0  0  0  0
  190.1920  175.5730  147.0970 C   0  0  0  0  0  2  0  0  0  0  0  0
  191.2130  176.7040  146.9820 C   0  0  0  0  0  2  0  0  0  0  0  0
  192.5220  176.2810  146.3130 C   0  0  1  0  0  3  0  0  0  0  0  0
  192.7840  174.7880  146.4540 C   0  0  0  0  0  1  0  0  0  0  0  0
  192.6310  176.7520  144.8960 C   0  0  0  0  0  0  0  0  0  0  0  0
  191.7470  177.4960  144.3920 O   0  0  0  0  0  1  0  0  0  0  0  0
  193.7400  176.3980  144.1410 O   0  0  0  0  0  0  0  0  0  0  0  0
  1  4  1  0  0  0  0
  2  1  1  0  0  0  0
  2 11  1  0  0  0  0
  3 13  1  0  0  0  0
  4 16  1  6  0  0  0
  5 12  1  0  0  0  0
  6  3  2  0  0  0  0
  6 17  1  0  0  0  0
  7  4  1  0  0  0  0
  7  8  1  0  0  0  0
  8  5  2  0  0  0  0
  9 15  1  0  0  0  0
 10 17  1  0  0  0  0
 10  9  1  0  0  0  0
 11 18  1  0  0  0  0
 13 14  1  0  0  0  0
 13  1  2  0  0  0  0
 14  7  2  0  0  0  0
 15 11  2  0  0  0  0
 16 12  2  0  0  0  0
 17  2  2  0  0  0  0
 18 19  1  0  0  0  0
 20 19  1  0  0  0  0
 21 22  1  6  0  0  0
 21 20  1  0  0  0  0
 23 21  1  0  0  0  0
 24 23  1  0  0  0  0
 25 23  2  0  0  0  0
M  END
>  <MODEL>
4

>  <REMARK>
 VINA RESULT:      -7.1      1.565      1.958
  Name = 
  5 active torsions:
  status: ('A' for Active; 'I' for Inactive)
    1  A    between atoms: C_2  and  C_21
    2  A    between atoms: C_6  and  C_15
    3  A    between atoms: C_6  and  O_23
    4  A    between atoms: C_15  and  C_21
    5  A    between atoms: C_16  and  O_23
                            x       y       z     vdW  Elec       q    Type
                         _______ _______ _______ _____ _____    ______ ____

>  <TORSDO>
F 5

$$$$
=
 OpenBabel11052417313D

 25 28  0  0  1  0  0  0  0  0999 V2000
  185.7750  177.6330  144.4050 C   0  0  0  0  0  0  0  0  0  0  0  0
  186.7270  177.3760  145.4070 C   0  0  0  0  0  0  0  0  0  0  0  0
  184.4020  178.9200  145.9280 C   0  0  0  0  0  3  0  0  0  0  0  0
  185.7130  177.2270  142.9740 C   0  0  1  0  0  3  0  0  0  0  0  0
  185.2780  178.2990  140.3630 C   0  0  0  0  0  3  0  0  0  0  0  0
  185.3680  178.7350  146.9300 C   0  0  0  0  0  3  0  0  0  0  0  0
  184.4440  177.9170  142.5650 C   0  0  0  0  0  0  0  0  0  0  0  0
  184.2010  178.2020  141.1510 C   0  0  0  0  0  3  0  0  0  0  0  0
  188.8770  177.5790  147.2620 C   0  0  0  0  0  2  0  0  0  0  0  0
  187.5300  177.8750  147.6360 O   0  0  0  0  0  0  0  0  0  0  0  0
  187.9240  176.5010  145.2440 C   0  0  0  0  0  0  0  0  0  0  0  0
  186.6100  178.1730  140.9100 N   0  0  0  0  0  0  0  0  0  0  0  0
  184.6340  178.3570  144.6760 C   0  0  0  0  0  0  0  0  0  0  0  0
  183.8360  178.5480  143.5200 N   0  0  0  0  0  0  0  0  0  0  0  0
  188.9180  176.5870  146.1330 C   0  0  0  0  0  3  0  0  0  0  0  0
  186.8400  177.7430  142.1210 C   0  0  0  0  0  3  0  0  0  0  0  0
  186.5350  177.9950  146.6620 C   0  0  0  0  0  0  0  0  0  0  0  0
  188.0260  175.5250  144.2480 O   0  0  0  0  0  0  0  0  0  0  0  0
  189.2650  174.9430  143.8580 C   0  0  0  0  0  2  0  0  0  0  0  0
  189.7850  175.5720  142.5670 C   0  0  0  0  0  2  0  0  0  0  0  0
  190.9770  176.5080  142.7800 C   0  0  1  0  0  3  0  0  0  0  0  0
  190.5430  177.9200  143.1430 C   0  0  0  0  0  1  0  0  0  0  0  0
  191.9880  175.9540  143.7360 C   0  0  0  0  0  0  0  0  0  0  0  0
  192.6820  174.9460  143.4320 O   0  0  0  0  0  0  0  0  0  0  0  0
  192.1940  176.5850  144.9550 O   0  0  0  0  0  1  0  0  0  0  0  0
  1 13  2  0  0  0  0
  1  2  1  0  0  0  0
  2 17  2  0  0  0  0
  3  6  2  0  0  0  0
  4 16  1  6  0  0  0
  4  1  1  0  0  0  0
  5 12  1  0  0  0  0
  5  8  2  0  0  0  0
  7  4  1  0  0  0  0
  7 14  2  0  0  0  0
  8  7  1  0  0  0  0
  9 10  1  0  0  0  0
 11  2  1  0  0  0  0
 11 15  2  0  0  0  0
 12 16  2  0  0  0  0
 13  3  1  0  0  0  0
 14 13  1  0  0  0  0
 15  9  1  0  0  0  0
 17  6  1  0  0  0  0
 17 10  1  0  0  0  0
 18 11  1  0  0  0  0
 19 18  1  0  0  0  0
 20 21  1  0  0  0  0
 20 19  1  0  0  0  0
 21 22  1  1  0  0  0
 21 23  1  0  0  0  0
 23 25  1  0  0  0  0
 24 23  2  0  0  0  0
M  END
>  <MODEL>
5

>  <REMARK>
 VINA RESULT:      -7.0      2.093      4.548
  Name = 
  5 active torsions:
  status: ('A' for Active; 'I' for Inactive)
    1  A    between atoms: C_2  and  C_21
    2  A    between atoms: C_6  and  C_15
    3  A    between atoms: C_6  and  O_23
    4  A    between atoms: C_15  and  C_21
    5  A    between atoms: C_16  and  O_23
                            x       y       z     vdW  Elec       q    Type
                         _______ _______ _______ _____ _____    ______ ____

>  <TORSDO>
F 5

$$$$
=
 OpenBabel11052417313D

 25 28  0  0  1  0  0  0  0  0999 V2000
  186.9770  177.7050  143.8420 C   0  0  0  0  0  0  0  0  0  0  0  0
  187.6940  176.8780  142.9590 C   0  0  0  0  0  0  0  0  0  0  0  0
  185.5840  178.5460  142.0490 C   0  0  0  0  0  3  0  0  0  0  0  0
  187.0960  177.9200  145.3100 C   0  0  1  0  0  3  0  0  0  0  0  0
  185.5220  178.0120  147.6910 C   0  0  0  0  0  3  0  0  0  0  0  0
  186.2390  177.6820  141.1570 C   0  0  0  0  0  3  0  0  0  0  0  0
  185.9710  178.8920  145.5200 C   0  0  0  0  0  0  0  0  0  0  0  0
  185.3910  179.0480  146.8540 C   0  0  0  0  0  3  0  0  0  0  0  0
  188.5160  174.7550  141.2490 C   0  0  0  0  0  2  0  0  0  0  0  0
  187.8630  175.9210  140.7420 O   0  0  0  0  0  0  0  0  0  0  0  0
  188.8720  176.0450  143.3360 C   0  0  0  0  0  0  0  0  0  0  0  0
  186.1650  176.7910  147.2640 N   0  0  0  0  0  0  0  0  0  0  0  0
  185.9760  178.5340  143.3850 C   0  0  0  0  0  0  0  0  0  0  0  0
  185.3440  179.2400  144.4400 N   0  0  0  0  0  0  0  0  0  0  0  0
  189.2650  175.0650  142.5160 C   0  0  0  0  0  3  0  0  0  0  0  0
  186.8420  176.6990  146.1510 C   0  0  0  0  0  3  0  0  0  0  0  0
  187.2640  176.8340  141.6150 C   0  0  0  0  0  0  0  0  0  0  0  0
  189.6470  176.2900  144.4740 O   0  0  0  0  0  0  0  0  0  0  0  0
  190.7200  177.2260  144.4930 C   0  0  0  0  0  2  0  0  0  0  0  0
  192.0660  176.5170  144.6290 C   0  0  0  0  0  2  0  0  0  0  0  0
  192.5910  176.4710  146.0650 C   0  0  1  0  0  3  0  0  0  0  0  0
  192.0540  175.2740  146.8370 C   0  0  0  0  0  1  0  0  0  0  0  0
  194.0820  176.5830  146.1430 C   0  0  0  0  0  0  0  0  0  0  0  0
  194.7860  175.6040  146.5130 O   0  0  0  0  0  1  0  0  0  0  0  0
  194.7000  177.7650  145.7620 O   0  0  0  0  0  0  0  0  0  0  0  0
  1  4  1  0  0  0  0
  2 11  1  0  0  0  0
  2  1  2  0  0  0  0
  3 13  2  0  0  0  0
  4  7  1  0  0  0  0
  4 16  1  1  0  0  0
  6 17  2  0  0  0  0
  6  3  1  0  0  0  0
  7  8  1  0  0  0  0
  8  5  2  0  0  0  0
  9 15  1  0  0  0  0
 10  9  1  0  0  0  0
 10 17  1  0  0  0  0
 11 18  1  0  0  0  0
 12  5  1  0  0  0  0
 13  1  1  0  0  0  0
 13 14  1  0  0  0  0
 14  7  2  0  0  0  0
 15 11  2  0  0  0  0
 16 12  2  0  0  0  0
 17  2  1  0  0  0  0
 18 19  1  0  0  0  0
 19 20  1  0  0  0  0
 20 21  1  0  0  0  0
 21 23  1  0  0  0  0
 21 22  1  6  0  0  0
 23 24  1  0  0  0  0
 25 23  2  0  0  0  0
M  END
>  <MODEL>
6

>  <REMARK>
 VINA RESULT:      -7.0      1.746      2.057
  Name = 
  5 active torsions:
  status: ('A' for Active; 'I' for Inactive)
    1  A    between atoms: C_2  and  C_21
    2  A    between atoms: C_6  and  C_15
    3  A    between atoms: C_6  and  O_23
    4  A    between atoms: C_15  and  C_21
    5  A    between atoms: C_16  and  O_23
                            x       y       z     vdW  Elec       q    Type
                         _______ _______ _______ _____ _____    ______ ____

>  <TORSDO>
F 5

$$$$
=
 OpenBabel11052417313D

 25 28  0  0  1  0  0  0  0  0999 V2000
  185.9610  177.6140  144.3980 C   0  0  0  0  0  0  0  0  0  0  0  0
  186.9210  177.3960  145.4020 C   0  0  0  0  0  0  0  0  0  0  0  0
  184.5200  178.8190  145.9260 C   0  0  0  0  0  3  0  0  0  0  0  0
  185.9240  177.2180  142.9630 C   0  0  1  0  0  3  0  0  0  0  0  0
  185.4450  178.2900  140.3600 C   0  0  0  0  0  3  0  0  0  0  0  0
  185.4910  178.6720  146.9300 C   0  0  0  0  0  3  0  0  0  0  0  0
  184.6230  177.8480  142.5550 C   0  0  0  0  0  0  0  0  0  0  0  0
  184.3710  178.1330  141.1430 C   0  0  0  0  0  3  0  0  0  0  0  0
  189.0510  177.6890  147.2660 C   0  0  0  0  0  2  0  0  0  0  0  0
  187.6900  177.9140  147.6370 O   0  0  0  0  0  0  0  0  0  0  0  0
  188.1600  176.5820  145.2360 C   0  0  0  0  0  0  0  0  0  0  0  0
  186.7800  178.2250  140.9110 N   0  0  0  0  0  0  0  0  0  0  0  0
  184.7840  178.2780  144.6710 C   0  0  0  0  0  0  0  0  0  0  0  0
  183.9810  178.4400  143.5130 N   0  0  0  0  0  0  0  0  0  0  0  0
  189.1460  176.7090  146.1290 C   0  0  0  0  0  3  0  0  0  0  0  0
  187.0270  177.7970  142.1190 C   0  0  0  0  0  3  0  0  0  0  0  0
  186.6930  177.9930  146.6600 C   0  0  0  0  0  0  0  0  0  0  0  0
  188.3130  175.6210  144.2320 O   0  0  0  0  0  0  0  0  0  0  0  0
  189.5840  175.1490  143.7980 C   0  0  0  0  0  2  0  0  0  0  0  0
  189.6330  175.0210  142.2770 C   0  0  0  0  0  2  0  0  0  0  0  0
  188.3770  174.3880  141.6750 C   0  0  1  0  0  3  0  0  0  0  0  0
  188.1890  174.7610  140.2120 C   0  0  0  0  0  1  0  0  0  0  0  0
  188.3050  172.9100  141.9040 C   0  0  0  0  0  0  0  0  0  0  0  0
  189.3530  172.2230  142.0410 O   0  0  0  0  0  1  0  0  0  0  0  0
  187.0650  172.2940  142.0100 O   0  0  0  0  0  0  0  0  0  0  0  0
  1 13  2  0  0  0  0
  1  2  1  0  0  0  0
  2 17  2  0  0  0  0
  3  6  2  0  0  0  0
  4 16  1  6  0  0  0
  4  1  1  0  0  0  0
  5 12  1  0  0  0  0
  5  8  2  0  0  0  0
  7  4  1  0  0  0  0
  7 14  2  0  0  0  0
  8  7  1  0  0  0  0
  9 10  1  0  0  0  0
 11  2  1  0  0  0  0
 11 15  2  0  0  0  0
 12 16  2  0  0  0  0
 13  3  1  0  0  0  0
 14 13  1  0  0  0  0
 15  9  1  0  0  0  0
 17  6  1  0  0  0  0
 17 10  1  0  0  0  0
 18 11  1  0  0  0  0
 19 18  1  0  0  0  0
 20 19  1  0  0  0  0
 21 22  1  6  0  0  0
 21 23  1  0  0  0  0
 21 20  1  0  0  0  0
 23 25  2  0  0  0  0
 23 24  1  0  0  0  0
M  END
>  <MODEL>
7

>  <REMARK>
 VINA RESULT:      -6.8      2.018      5.346
  Name = 
  5 active torsions:
  status: ('A' for Active; 'I' for Inactive)
    1  A    between atoms: C_2  and  C_21
    2  A    between atoms: C_6  and  C_15
    3  A    between atoms: C_6  and  O_23
    4  A    between atoms: C_15  and  C_21
    5  A    between atoms: C_16  and  O_23
                            x       y       z     vdW  Elec       q    Type
                         _______ _______ _______ _____ _____    ______ ____

>  <TORSDO>
F 5

$$$$
=
 OpenBabel11052417313D

 25 28  0  0  1  0  0  0  0  0999 V2000
  189.2480  177.4530  144.1600 C   0  0  0  0  0  0  0  0  0  0  0  0
  189.6830  176.9520  145.4000 C   0  0  0  0  0  0  0  0  0  0  0  0
  191.5250  177.7610  143.3960 C   0  0  0  0  0  3  0  0  0  0  0  0
  187.8840  177.6780  143.6090 C   0  0  1  0  0  3  0  0  0  0  0  0
  186.2970  177.1660  141.2900 C   0  0  0  0  0  3  0  0  0  0  0  0
  191.9870  177.2030  144.5990 C   0  0  0  0  0  3  0  0  0  0  0  0
  188.2380  178.1770  142.2380 C   0  0  0  0  0  0  0  0  0  0  0  0
  187.2510  178.0960  141.1620 C   0  0  0  0  0  3  0  0  0  0  0  0
  190.6680  175.2900  147.4910 C   0  0  0  0  0  2  0  0  0  0  0  0
  191.5300  176.1490  146.7420 O   0  0  0  0  0  0  0  0  0  0  0  0
  188.7870  176.5930  146.5370 C   0  0  0  0  0  0  0  0  0  0  0  0
  186.2900  176.2630  142.4190 N   0  0  0  0  0  0  0  0  0  0  0  0
  190.1510  177.8730  143.2070 C   0  0  0  0  0  0  0  0  0  0  0  0
  189.5100  178.2910  142.0130 N   0  0  0  0  0  0  0  0  0  0  0  0
  189.2650  175.8310  147.5260 C   0  0  0  0  0  3  0  0  0  0  0  0
  187.0470  176.4350  143.4680 C   0  0  0  0  0  3  0  0  0  0  0  0
  191.0720  176.7740  145.5790 C   0  0  0  0  0  0  0  0  0  0  0  0
  187.4850  177.0850  146.6680 O   0  0  0  0  0  0  0  0  0  0  0  0
  187.1600  178.2100  147.4780 C   0  0  0  0  0  2  0  0  0  0  0  0
  186.2250  179.1660  146.7410 C   0  0  0  0  0  2  0  0  0  0  0  0
  185.2460  178.4620  145.7990 C   0  0  1  0  0  3  0  0  0  0  0  0
  184.0460  177.8890  146.5400 C   0  0  0  0  0  1  0  0  0  0  0  0
  184.8490  179.3110  144.6320 C   0  0  0  0  0  0  0  0  0  0  0  0
  185.5660  180.2790  144.2620 O   0  0  0  0  0  1  0  0  0  0  0  0
  183.6980  179.0010  143.9200 O   0  0  0  0  0  0  0  0  0  0  0  0
  1  2  1  0  0  0  0
  2 17  2  0  0  0  0
  2 11  1  0  0  0  0
  3  6  2  0  0  0  0
  4 16  1  6  0  0  0
  4  1  1  0  0  0  0
  5 12  1  0  0  0  0
  6 17  1  0  0  0  0
  7  4  1  0  0  0  0
  8  5  2  0  0  0  0
  8  7  1  0  0  0  0
  9 15  1  0  0  0  0
 10  9  1  0  0  0  0
 11 18  1  0  0  0  0
 11 15  2  0  0  0  0
 12 16  2  0  0  0  0
 13  3  1  0  0  0  0
 13  1  2  0  0  0  0
 14  7  2  0  0  0  0
 14 13  1  0  0  0  0
 17 10  1  0  0  0  0
 18 19  1  0  0  0  0
 20 19  1  0  0  0  0
 21 22  1  1  0  0  0
 21 20  1  0  0  0  0
 23 21  1  0  0  0  0
 24 23  1  0  0  0  0
 25 23  2  0  0  0  0
M  END
>  <MODEL>
8

>  <REMARK>
 VINA RESULT:      -6.8      2.752      5.422
  Name = 
  5 active torsions:
  status: ('A' for Active; 'I' for Inactive)
    1  A    between atoms: C_2  and  C_21
    2  A    between atoms: C_6  and  C_15
    3  A    between atoms: C_6  and  O_23
    4  A    between atoms: C_15  and  C_21
    5  A    between atoms: C_16  and  O_23
                            x       y       z     vdW  Elec       q    Type
                         _______ _______ _______ _____ _____    ______ ____

>  <TORSDO>
F 5

$$$$
=
 OpenBabel11052417313D

 25 28  0  0  1  0  0  0  0  0999 V2000
  185.9120  177.6150  144.4020 C   0  0  0  0  0  0  0  0  0  0  0  0
  186.9530  177.3510  145.3100 C   0  0  0  0  0  0  0  0  0  0  0  0
  184.6670  178.8550  146.0680 C   0  0  0  0  0  3  0  0  0  0  0  0
  185.7260  177.2360  142.9750 C   0  0  1  0  0  3  0  0  0  0  0  0
  185.0470  178.3520  140.4360 C   0  0  0  0  0  3  0  0  0  0  0  0
  185.7210  178.6620  146.9750 C   0  0  0  0  0  3  0  0  0  0  0  0
  184.4180  177.9170  142.6950 C   0  0  0  0  0  0  0  0  0  0  0  0
  184.0460  178.2270  141.3150 C   0  0  0  0  0  3  0  0  0  0  0  0
  189.2580  177.5450  146.9690 C   0  0  0  0  0  2  0  0  0  0  0  0
  187.9460  177.8160  147.4670 O   0  0  0  0  0  0  0  0  0  0  0  0
  188.1400  176.4940  145.0230 C   0  0  0  0  0  0  0  0  0  0  0  0
  186.4240  178.2330  140.8590 N   0  0  0  0  0  0  0  0  0  0  0  0
  184.7920  178.3180  144.7890 C   0  0  0  0  0  0  0  0  0  0  0  0
  183.8910  178.5220  143.7140 N   0  0  0  0  0  0  0  0  0  0  0  0
  189.2090  176.5750  145.8200 C   0  0  0  0  0  3  0  0  0  0  0  0
  186.7660  177.7830  142.0350 C   0  0  0  0  0  3  0  0  0  0  0  0
  186.8670  177.9420  146.5890 C   0  0  0  0  0  0  0  0  0  0  0  0
  188.1620  175.5390  144.0020 O   0  0  0  0  0  0  0  0  0  0  0  0
  189.2680  175.3730  143.1210 C   0  0  0  0  0  2  0  0  0  0  0  0
  189.7950  173.9400  143.1650 C   0  0  0  0  0  2  0  0  0  0  0  0
  190.3050  173.5180  144.5450 C   0  0  1  0  0  3  0  0  0  0  0  0
  189.6930  172.2030  145.0060 C   0  0  0  0  0  1  0  0  0  0  0  0
  191.7990  173.5200  144.6390 C   0  0  0  0  0  0  0  0  0  0  0  0
  192.4050  174.4090  145.2950 O   0  0  0  0  0  1  0  0  0  0  0  0
  192.5240  172.5040  144.0310 O   0  0  0  0  0  0  0  0  0  0  0  0
  1 13  2  0  0  0  0
  1  2  1  0  0  0  0
  2 17  2  0  0  0  0
  3  6  2  0  0  0  0
  4 16  1  6  0  0  0
  4  1  1  0  0  0  0
  5 12  1  0  0  0  0
  5  8  2  0  0  0  0
  7  4  1  0  0  0  0
  7 14  2  0  0  0  0
  8  7  1  0  0  0  0
  9 10  1  0  0  0  0
 11  2  1  0  0  0  0
 11 15  2  0  0  0  0
 12 16  2  0  0  0  0
 13  3  1  0  0  0  0
 14 13  1  0  0  0  0
 15  9  1  0  0  0  0
 17  6  1  0  0  0  0
 17 10  1  0  0  0  0
 18 11  1  0  0  0  0
 19 20  1  0  0  0  0
 19 18  1  0  0  0  0
 20 21  1  0  0  0  0
 21 23  1  0  0  0  0
 21 22  1  6  0  0  0
 23 24  1  0  0  0  0
 25 23  2  0  0  0  0
M  END
>  <MODEL>
9

>  <REMARK>
 VINA RESULT:      -6.7      1.995      4.522
  Name = 
  5 active torsions:
  status: ('A' for Active; 'I' for Inactive)
    1  A    between atoms: C_2  and  C_21
    2  A    between atoms: C_6  and  C_15
    3  A    between atoms: C_6  and  O_23
    4  A    between atoms: C_15  and  C_21
    5  A    between atoms: C_16  and  O_23
                            x       y       z     vdW  Elec       q    Type
                         _______ _______ _______ _____ _____    ______ ____

>  <TORSDO>
F 5

$$$$
