=
 OpenBabel11052417303D

 25 28  0  0  1  0  0  0  0  0999 V2000
  185.8520  177.3530  143.8040 C   0  0  0  0  0  0  0  0  0  0  0  0
  186.6870  176.8200  142.8180 C   0  0  0  0  0  0  0  0  0  0  0  0
  184.7070  178.6690  142.1570 C   0  0  0  0  0  3  0  0  0  0  0  0
  185.8620  177.0520  145.2580 C   0  0  2  0  0  3  0  0  0  0  0  0
  185.7830  177.9340  148.0150 C   0  0  0  0  0  2  0  0  0  0  0  0
  185.5200  178.1500  141.1940 N   0  0  0  0  0  0  0  0  0  0  0  0
  184.6300  177.8350  145.7930 C   0  0  1  0  0  3  0  0  0  0  0  0
  184.9400  178.7120  147.0080 C   0  0  0  0  0  2  0  0  0  0  0  0
  187.3890  176.7030  140.3900 C   0  0  2  0  0  3  0  0  0  0  0  0
  186.6560  176.5750  139.1420 N   0  0  0  0  0  1  0  0  0  0  0  0
  187.6990  175.8610  143.1400 N   0  0  0  0  0  2  0  0  0  0  0  0
  187.1090  177.4400  147.4170 C   0  0  0  0  0  2  0  0  0  0  0  0
  184.8740  178.2540  143.4760 C   0  0  0  0  0  0  0  0  0  0  0  0
  184.0830  178.6940  144.6450 C   0  0  0  0  0  2  0  0  0  0  0  0
  187.9970  175.3480  140.7570 C   0  0  0  0  0  2  0  0  0  0  0  0
  187.1690  177.5350  145.8900 C   0  0  0  0  0  2  0  0  0  0  0  0
  188.6590  175.4210  142.1320 C   0  0  2  0  0  3  0  0  0  0  0  0
  186.4850  177.2250  141.4820 C   0  0  0  0  0  0  0  0  0  0  0  0
  189.2850  174.0890  142.5260 C   0  0  0  0  0  2  0  0  0  0  0  0
  190.5010  174.2710  143.4250 C   0  0  0  0  0  2  0  0  0  0  0  0
  190.1780  175.1090  145.8090 N   0  0  0  0  0  0  0  0  0  0  0  0
  190.6450  176.4350  145.4360 C   0  0  0  0  0  1  0  0  0  0  0  0
  189.7780  174.8850  147.1890 C   0  0  0  0  0  1  0  0  0  0  0  0
  190.1180  174.0430  144.8490 C   0  0  0  0  0  0  0  0  0  0  0  0
  189.7150  172.9000  145.1950 O   0  0  0  0  0  0  0  0  0  0  0  0
  1  4  1  0  0  0  0
  2 11  1  0  0  0  0
  2  1  2  0  0  0  0
  3 13  2  0  0  0  0
  4  7  1  0  0  0  0
  4 16  1  1  0  0  0
  6 18  2  0  0  0  0
  6  3  1  0  0  0  0
  7 14  1  6  0  0  0
  7  8  1  0  0  0  0
  8  5  1  0  0  0  0
  9 10  1  6  0  0  0
  9 15  1  0  0  0  0
  9 18  1  0  0  0  0
 12  5  1  0  0  0  0
 13  1  1  0  0  0  0
 13 14  1  0  0  0  0
 15 17  1  0  0  0  0
 16 12  1  0  0  0  0
 17 19  1  1  0  0  0
 17 11  1  0  0  0  0
 18  2  1  0  0  0  0
 19 20  1  0  0  0  0
 20 24  1  0  0  0  0
 21 23  1  0  0  0  0
 22 21  1  0  0  0  0
 24 25  2  0  0  0  0
 24 21  1  0  0  0  0
M  END
>  <MODEL>
1

>  <REMARK>
 VINA RESULT:      -7.4      0.000      0.000
  Name = 
  3 active torsions:
  status: ('A' for Active; 'I' for Inactive)
    1  A    between atoms: C_6  and  C_15
    2  A    between atoms: C_6  and  C_23
    3  A    between atoms: C_15  and  C_21
                            x       y       z     vdW  Elec       q    Type
                         _______ _______ _______ _____ _____    ______ ____

>  <TORSDO>
F 3

$$$$
=
 OpenBabel11052417303D

 25 28  0  0  1  0  0  0  0  0999 V2000
  186.4240  176.8390  143.7880 C   0  0  0  0  0  0  0  0  0  0  0  0
  187.4370  176.0740  143.2040 C   0  0  0  0  0  0  0  0  0  0  0  0
  185.6950  177.5700  141.6220 C   0  0  0  0  0  3  0  0  0  0  0  0
  186.1130  176.9780  145.2320 C   0  0  2  0  0  3  0  0  0  0  0  0
  185.4670  178.6250  147.5250 C   0  0  0  0  0  2  0  0  0  0  0  0
  186.6820  176.8230  141.0500 N   0  0  0  0  0  0  0  0  0  0  0  0
  184.8160  177.8350  145.2380 C   0  0  1  0  0  3  0  0  0  0  0  0
  184.8800  179.0410  146.1780 C   0  0  0  0  0  2  0  0  0  0  0  0
  188.6420  175.2780  141.1260 C   0  0  2  0  0  3  0  0  0  0  0  0
  188.1920  174.7610  139.8440 N   0  0  0  0  0  1  0  0  0  0  0  0
  188.3310  175.2910  144.0010 N   0  0  0  0  0  2  0  0  0  0  0  0
  186.8770  178.0290  147.3960 C   0  0  0  0  0  2  0  0  0  0  0  0
  185.5630  177.5660  143.0090 C   0  0  0  0  0  0  0  0  0  0  0  0
  184.5520  178.2980  143.8000 C   0  0  0  0  0  2  0  0  0  0  0  0
  189.1210  174.1150  141.9960 C   0  0  0  0  0  2  0  0  0  0  0  0
  187.2670  177.6750  145.9580 C   0  0  0  0  0  2  0  0  0  0  0  0
  189.4730  174.6130  143.3970 C   0  0  2  0  0  3  0  0  0  0  0  0
  187.5390  176.0610  141.7970 C   0  0  0  0  0  0  0  0  0  0  0  0
  189.9650  173.4800  144.2900 C   0  0  0  0  0  2  0  0  0  0  0  0
  190.1990  173.9400  145.7230 C   0  0  0  0  0  2  0  0  0  0  0  0
  191.7110  175.8070  146.5720 N   0  0  0  0  0  0  0  0  0  0  0  0
  190.5830  176.4720  147.2030 C   0  0  0  0  0  1  0  0  0  0  0  0
  193.0250  176.4150  146.6980 C   0  0  0  0  0  1  0  0  0  0  0  0
  191.5390  174.5860  145.8360 C   0  0  0  0  0  0  0  0  0  0  0  0
  192.5310  174.0290  145.2930 O   0  0  0  0  0  0  0  0  0  0  0  0
  1  4  1  0  0  0  0
  2  1  1  0  0  0  0
  2 11  1  0  0  0  0
  3 13  1  0  0  0  0
  4  7  1  0  0  0  0
  4 16  1  1  0  0  0
  6  3  2  0  0  0  0
  6 18  1  0  0  0  0
  7 14  1  6  0  0  0
  7  8  1  0  0  0  0
  8  5  1  0  0  0  0
  9 10  1  6  0  0  0
  9 18  1  0  0  0  0
  9 15  1  0  0  0  0
 12  5  1  0  0  0  0
 13  1  2  0  0  0  0
 13 14  1  0  0  0  0
 15 17  1  0  0  0  0
 16 12  1  0  0  0  0
 17 11  1  0  0  0  0
 17 19  1  1  0  0  0
 18  2  2  0  0  0  0
 19 20  1  0  0  0  0
 20 24  1  0  0  0  0
 21 23  1  0  0  0  0
 21 22  1  0  0  0  0
 24 21  1  0  0  0  0
 25 24  2  0  0  0  0
M  END
>  <MODEL>
2

>  <REMARK>
 VINA RESULT:      -7.3      1.386      1.736
  Name = 
  3 active torsions:
  status: ('A' for Active; 'I' for Inactive)
    1  A    between atoms: C_6  and  C_15
    2  A    between atoms: C_6  and  C_23
    3  A    between atoms: C_15  and  C_21
                            x       y       z     vdW  Elec       q    Type
                         _______ _______ _______ _____ _____    ______ ____

>  <TORSDO>
F 3

$$$$
=
 OpenBabel11052417303D

 25 28  0  0  1  0  0  0  0  0999 V2000
  185.8180  177.4250  143.7970 C   0  0  0  0  0  0  0  0  0  0  0  0
  186.6210  176.9680  142.7490 C   0  0  0  0  0  0  0  0  0  0  0  0
  184.4970  178.7070  142.2570 C   0  0  0  0  0  3  0  0  0  0  0  0
  185.9350  177.0920  145.2380 C   0  0  2  0  0  3  0  0  0  0  0  0
  185.9750  177.9040  148.0180 C   0  0  0  0  0  2  0  0  0  0  0  0
  185.2780  178.2610  141.2330 N   0  0  0  0  0  0  0  0  0  0  0  0
  184.6950  177.7860  145.8680 C   0  0  1  0  0  3  0  0  0  0  0  0
  185.0250  178.6520  147.0850 C   0  0  0  0  0  2  0  0  0  0  0  0
  187.1770  176.9500  140.2800 C   0  0  2  0  0  3  0  0  0  0  0  0
  186.3780  176.8060  139.0750 N   0  0  0  0  0  1  0  0  0  0  0  0
  187.7060  176.0660  142.9830 N   0  0  0  0  0  2  0  0  0  0  0  0
  187.2890  177.5060  147.3280 C   0  0  0  0  0  2  0  0  0  0  0  0
  184.7690  178.2720  143.5520 C   0  0  0  0  0  0  0  0  0  0  0  0
  184.0280  178.6360  144.7790 C   0  0  0  0  0  2  0  0  0  0  0  0
  187.8870  175.6270  140.5730 C   0  0  0  0  0  2  0  0  0  0  0  0
  187.2480  177.6400  145.8030 C   0  0  0  0  0  2  0  0  0  0  0  0
  188.6270  175.7090  141.9080 C   0  0  2  0  0  3  0  0  0  0  0  0
  186.3130  177.3900  141.4380 C   0  0  0  0  0  0  0  0  0  0  0  0
  189.3550  174.4080  142.2280 C   0  0  0  0  0  2  0  0  0  0  0  0
  189.9640  174.4220  143.6230 C   0  0  0  0  0  2  0  0  0  0  0  0
  191.5920  176.0660  144.6920 N   0  0  0  0  0  0  0  0  0  0  0  0
  190.6940  176.2650  145.8180 C   0  0  0  0  0  1  0  0  0  0  0  0
  192.8530  176.7880  144.6820 C   0  0  0  0  0  1  0  0  0  0  0  0
  191.2450  175.1880  143.6100 C   0  0  0  0  0  0  0  0  0  0  0  0
  192.0360  175.0340  142.6410 O   0  0  0  0  0  0  0  0  0  0  0  0
  1  4  1  0  0  0  0
  2 11  1  0  0  0  0
  2  1  2  0  0  0  0
  3 13  2  0  0  0  0
  4 16  1  1  0  0  0
  4  7  1  0  0  0  0
  6 18  2  0  0  0  0
  6  3  1  0  0  0  0
  7 14  1  6  0  0  0
  7  8  1  0  0  0  0
  8  5  1  0  0  0  0
  9 10  1  6  0  0  0
  9 15  1  0  0  0  0
  9 18  1  0  0  0  0
 12  5  1  0  0  0  0
 13  1  1  0  0  0  0
 13 14  1  0  0  0  0
 15 17  1  0  0  0  0
 16 12  1  0  0  0  0
 17 19  1  1  0  0  0
 17 11  1  0  0  0  0
 18  2  1  0  0  0  0
 19 20  1  0  0  0  0
 21 22  1  0  0  0  0
 23 21  1  0  0  0  0
 24 20  1  0  0  0  0
 24 21  1  0  0  0  0
 25 24  2  0  0  0  0
M  END
>  <MODEL>
3

>  <REMARK>
 VINA RESULT:      -7.2      1.083      1.354
  Name = 
  3 active torsions:
  status: ('A' for Active; 'I' for Inactive)
    1  A    between atoms: C_6  and  C_15
    2  A    between atoms: C_6  and  C_23
    3  A    between atoms: C_15  and  C_21
                            x       y       z     vdW  Elec       q    Type
                         _______ _______ _______ _____ _____    ______ ____

>  <TORSDO>
F 3

$$$$
=
 OpenBabel11052417303D

 25 28  0  0  1  0  0  0  0  0999 V2000
  187.6340  177.8530  144.1990 C   0  0  0  0  0  0  0  0  0  0  0  0
  188.8670  177.3290  144.5970 C   0  0  0  0  0  0  0  0  0  0  0  0
  186.8230  177.7230  146.4540 C   0  0  0  0  0  3  0  0  0  0  0  0
  187.2260  178.2660  142.8330 C   0  0  2  0  0  3  0  0  0  0  0  0
  185.2910  178.2860  140.6790 C   0  0  0  0  0  2  0  0  0  0  0  0
  188.0260  177.2130  146.8440 N   0  0  0  0  0  0  0  0  0  0  0  0
  185.8170  178.8850  143.0540 C   0  0  1  0  0  3  0  0  0  0  0  0
  184.7490  178.3360  142.1050 C   0  0  0  0  0  2  0  0  0  0  0  0
  190.3580  176.4260  146.4310 C   0  0  2  0  0  3  0  0  0  0  0  0
  190.6710  176.8720  147.7780 N   0  0  0  0  0  1  0  0  0  0  0  0
  189.9300  177.1330  143.6600 N   0  0  0  0  0  2  0  0  0  0  0  0
  186.5500  177.4130  140.5560 C   0  0  0  0  0  2  0  0  0  0  0  0
  186.6350  178.0550  145.1140 C   0  0  0  0  0  0  0  0  0  0  0  0
  185.4130  178.6280  144.5110 C   0  0  0  0  0  2  0  0  0  0  0  0
  191.5170  176.7880  145.5010 C   0  0  0  0  0  2  0  0  0  0  0  0
  187.1810  177.0510  141.9030 C   0  0  0  0  0  2  0  0  0  0  0  0
  191.1580  176.4520  144.0540 C   0  0  2  0  0  3  0  0  0  0  0  0
  189.0550  177.0280  145.9630 C   0  0  0  0  0  0  0  0  0  0  0  0
  192.2970  176.7920  143.0990 C   0  0  0  0  0  2  0  0  0  0  0  0
  193.2690  175.6310  142.9300 C   0  0  0  0  0  2  0  0  0  0  0  0
  195.6750  176.4020  142.6000 N   0  0  0  0  0  0  0  0  0  0  0  0
  195.5020  176.4170  141.1560 C   0  0  0  0  0  1  0  0  0  0  0  0
  196.9670  176.7920  143.1410 C   0  0  0  0  0  1  0  0  0  0  0  0
  194.6070  176.0080  143.4740 C   0  0  0  0  0  0  0  0  0  0  0  0
  194.7800  175.9980  144.7230 O   0  0  0  0  0  0  0  0  0  0  0  0
  1  2  2  0  0  0  0
  1 13  1  0  0  0  0
  2 18  1  0  0  0  0
  3  6  1  0  0  0  0
  4 16  1  6  0  0  0
  4  7  1  0  0  0  0
  4  1  1  0  0  0  0
  5  8  1  0  0  0  0
  7  8  1  6  0  0  0
  7 14  1  0  0  0  0
  9 10  1  1  0  0  0
 11 17  1  0  0  0  0
 11  2  1  0  0  0  0
 12  5  1  0  0  0  0
 12 16  1  0  0  0  0
 13  3  2  0  0  0  0
 14 13  1  0  0  0  0
 15  9  1  0  0  0  0
 17 19  1  6  0  0  0
 17 15  1  0  0  0  0
 18  9  1  0  0  0  0
 18  6  2  0  0  0  0
 20 19  1  0  0  0  0
 20 24  1  0  0  0  0
 21 23  1  0  0  0  0
 21 24  1  0  0  0  0
 22 21  1  0  0  0  0
 24 25  2  0  0  0  0
M  END
>  <MODEL>
4

>  <REMARK>
 VINA RESULT:      -7.2      3.138      5.310
  Name = 
  3 active torsions:
  status: ('A' for Active; 'I' for Inactive)
    1  A    between atoms: C_6  and  C_15
    2  A    between atoms: C_6  and  C_23
    3  A    between atoms: C_15  and  C_21
                            x       y       z     vdW  Elec       q    Type
                         _______ _______ _______ _____ _____    ______ ____

>  <TORSDO>
F 3

$$$$
=
 OpenBabel11052417303D

 25 28  0  0  1  0  0  0  0  0999 V2000
  187.0060  176.6600  144.2530 C   0  0  0  0  0  0  0  0  0  0  0  0
  188.2770  176.1150  144.0550 C   0  0  0  0  0  0  0  0  0  0  0  0
  186.6760  176.8140  141.8820 C   0  0  0  0  0  3  0  0  0  0  0  0
  186.3320  176.9350  145.5460 C   0  0  2  0  0  3  0  0  0  0  0  0
  184.7920  178.6870  147.2630 C   0  0  0  0  0  2  0  0  0  0  0  0
  187.9160  176.2820  141.6860 N   0  0  0  0  0  0  0  0  0  0  0  0
  184.9120  177.3990  145.1170 C   0  0  1  0  0  3  0  0  0  0  0  0
  184.4690  178.7110  145.7710 C   0  0  0  0  0  2  0  0  0  0  0  0
  190.0980  175.3560  142.4690 C   0  0  2  0  0  3  0  0  0  0  0  0
  190.1010  174.5410  141.2660 N   0  0  0  0  0  1  0  0  0  0  0  0
  189.1060  175.7390  145.1590 N   0  0  0  0  0  2  0  0  0  0  0  0
  186.2890  178.4820  147.5400 C   0  0  0  0  0  2  0  0  0  0  0  0
  186.2170  176.9940  143.1850 C   0  0  0  0  0  0  0  0  0  0  0  0
  184.9040  177.5410  143.5900 C   0  0  0  0  0  2  0  0  0  0  0  0
  190.6050  174.5180  143.6440 C   0  0  0  0  0  2  0  0  0  0  0  0
  187.0850  178.0240  146.3150 C   0  0  0  0  0  2  0  0  0  0  0  0
  190.4840  175.3080  144.9470 C   0  0  2  0  0  3  0  0  0  0  0  0
  188.7160  175.9080  142.7300 C   0  0  0  0  0  0  0  0  0  0  0  0
  190.9900  174.5060  146.1400 C   0  0  0  0  0  2  0  0  0  0  0  0
  192.2020  175.1560  146.7950 C   0  0  0  0  0  2  0  0  0  0  0  0
  194.5360  175.6170  145.8800 N   0  0  0  0  0  0  0  0  0  0  0  0
  194.4440  177.0140  146.2710 C   0  0  0  0  0  1  0  0  0  0  0  0
  195.7570  175.1630  145.2360 C   0  0  0  0  0  1  0  0  0  0  0  0
  193.4510  174.7060  146.1110 C   0  0  0  0  0  0  0  0  0  0  0  0
  193.5500  173.5000  145.7590 O   0  0  0  0  0  0  0  0  0  0  0  0
  1  4  1  0  0  0  0
  2  1  1  0  0  0  0
  2 11  1  0  0  0  0
  3 13  1  0  0  0  0
  4 16  1  6  0  0  0
  5 12  1  0  0  0  0
  6  3  2  0  0  0  0
  6 18  1  0  0  0  0
  7 14  1  6  0  0  0
  7  4  1  0  0  0  0
  7  8  1  0  0  0  0
  8  5  1  0  0  0  0
  9 10  1  6  0  0  0
  9 18  1  0  0  0  0
  9 15  1  0  0  0  0
 13 14  1  0  0  0  0
 13  1  2  0  0  0  0
 15 17  1  0  0  0  0
 16 12  1  0  0  0  0
 17 11  1  0  0  0  0
 17 19  1  1  0  0  0
 18  2  2  0  0  0  0
 19 20  1  0  0  0  0
 21 24  1  0  0  0  0
 21 22  1  0  0  0  0
 23 21  1  0  0  0  0
 24 20  1  0  0  0  0
 25 24  2  0  0  0  0
M  END
>  <MODEL>
5

>  <REMARK>
 VINA RESULT:      -7.2      2.265      3.141
  Name = 
  3 active torsions:
  status: ('A' for Active; 'I' for Inactive)
    1  A    between atoms: C_6  and  C_15
    2  A    between atoms: C_6  and  C_23
    3  A    between atoms: C_15  and  C_21
                            x       y       z     vdW  Elec       q    Type
                         _______ _______ _______ _____ _____    ______ ____

>  <TORSDO>
F 3

$$$$
=
 OpenBabel11052417303D

 25 28  0  0  1  0  0  0  0  0999 V2000
  187.5750  177.8980  144.1360 C   0  0  0  0  0  0  0  0  0  0  0  0
  188.7980  177.3630  144.5510 C   0  0  0  0  0  0  0  0  0  0  0  0
  186.7680  177.8720  146.3950 C   0  0  0  0  0  3  0  0  0  0  0  0
  187.1720  178.2680  142.7560 C   0  0  2  0  0  3  0  0  0  0  0  0
  185.2320  178.2470  140.6060 C   0  0  0  0  0  2  0  0  0  0  0  0
  187.9600  177.3510  146.8030 N   0  0  0  0  0  0  0  0  0  0  0  0
  185.7770  178.9250  142.9550 C   0  0  1  0  0  3  0  0  0  0  0  0
  184.6950  178.3630  142.0300 C   0  0  0  0  0  2  0  0  0  0  0  0
  190.2740  176.4980  146.4150 C   0  0  2  0  0  3  0  0  0  0  0  0
  190.5990  176.9890  147.7440 N   0  0  0  0  0  1  0  0  0  0  0  0
  189.8530  177.1090  143.6200 N   0  0  0  0  0  2  0  0  0  0  0  0
  186.4720  177.3440  140.5150 C   0  0  0  0  0  2  0  0  0  0  0  0
  186.5830  178.1560  145.0440 C   0  0  0  0  0  0  0  0  0  0  0  0
  185.3720  178.7330  144.4220 C   0  0  0  0  0  2  0  0  0  0  0  0
  191.4380  176.8000  145.4700 C   0  0  0  0  0  2  0  0  0  0  0  0
  187.0990  177.0200  141.8730 C   0  0  0  0  0  2  0  0  0  0  0  0
  191.0680  176.4160  144.0380 C   0  0  2  0  0  3  0  0  0  0  0  0
  188.9830  177.1110  145.9270 C   0  0  0  0  0  0  0  0  0  0  0  0
  192.2110  176.6950  143.0680 C   0  0  0  0  0  2  0  0  0  0  0  0
  193.0340  175.4470  142.7790 C   0  0  0  0  0  2  0  0  0  0  0  0
  194.5660  174.6900  144.6710 N   0  0  0  0  0  0  0  0  0  0  0  0
  193.5410  173.7930  145.1790 C   0  0  0  0  0  1  0  0  0  0  0  0
  195.8410  174.7420  145.3670 C   0  0  0  0  0  1  0  0  0  0  0  0
  194.3300  175.5120  143.5170 C   0  0  0  0  0  0  0  0  0  0  0  0
  195.2310  176.2860  143.0960 O   0  0  0  0  0  0  0  0  0  0  0  0
  1  2  2  0  0  0  0
  1 13  1  0  0  0  0
  2 18  1  0  0  0  0
  3  6  1  0  0  0  0
  4 16  1  6  0  0  0
  4  7  1  0  0  0  0
  4  1  1  0  0  0  0
  5  8  1  0  0  0  0
  7  8  1  6  0  0  0
  7 14  1  0  0  0  0
  9 10  1  1  0  0  0
 11 17  1  0  0  0  0
 11  2  1  0  0  0  0
 12  5  1  0  0  0  0
 12 16  1  0  0  0  0
 13  3  2  0  0  0  0
 14 13  1  0  0  0  0
 15  9  1  0  0  0  0
 17 19  1  6  0  0  0
 17 15  1  0  0  0  0
 18  9  1  0  0  0  0
 18  6  2  0  0  0  0
 20 19  1  0  0  0  0
 20 24  1  0  0  0  0
 21 22  1  0  0  0  0
 21 23  1  0  0  0  0
 24 21  1  0  0  0  0
 25 24  2  0  0  0  0
M  END
>  <MODEL>
6

>  <REMARK>
 VINA RESULT:      -7.0      2.780      5.001
  Name = 
  3 active torsions:
  status: ('A' for Active; 'I' for Inactive)
    1  A    between atoms: C_6  and  C_15
    2  A    between atoms: C_6  and  C_23
    3  A    between atoms: C_15  and  C_21
                            x       y       z     vdW  Elec       q    Type
                         _______ _______ _______ _____ _____    ______ ____

>  <TORSDO>
F 3

$$$$
=
 OpenBabel11052417303D

 25 28  0  0  1  0  0  0  0  0999 V2000
  185.7880  177.4410  143.8490 C   0  0  0  0  0  0  0  0  0  0  0  0
  186.5900  177.0010  142.7930 C   0  0  0  0  0  0  0  0  0  0  0  0
  184.4520  178.7310  142.3300 C   0  0  0  0  0  3  0  0  0  0  0  0
  185.9140  177.0930  145.2870 C   0  0  2  0  0  3  0  0  0  0  0  0
  185.9590  177.8720  148.0750 C   0  0  0  0  0  2  0  0  0  0  0  0
  185.2330  178.3020  141.2980 N   0  0  0  0  0  0  0  0  0  0  0  0
  184.6710  177.7700  145.9290 C   0  0  1  0  0  3  0  0  0  0  0  0
  185.0010  178.6250  147.1550 C   0  0  0  0  0  2  0  0  0  0  0  0
  187.1370  177.0160  140.3220 C   0  0  2  0  0  3  0  0  0  0  0  0
  186.3340  176.8800  139.1190 N   0  0  0  0  0  1  0  0  0  0  0  0
  187.6830  176.1040  143.0120 N   0  0  0  0  0  2  0  0  0  0  0  0
  187.2730  177.4910  147.3760 C   0  0  0  0  0  2  0  0  0  0  0  0
  184.7330  178.2840  143.6190 C   0  0  0  0  0  0  0  0  0  0  0  0
  183.9940  178.6280  144.8520 C   0  0  0  0  0  2  0  0  0  0  0  0
  187.8570  175.6950  140.5970 C   0  0  0  0  0  2  0  0  0  0  0  0
  187.2250  177.6420  145.8530 C   0  0  0  0  0  2  0  0  0  0  0  0
  188.6020  175.7660  141.9300 C   0  0  2  0  0  3  0  0  0  0  0  0
  186.2750  177.4370  141.4880 C   0  0  0  0  0  0  0  0  0  0  0  0
  189.3390  174.4670  142.2320 C   0  0  0  0  0  2  0  0  0  0  0  0
  188.5760  173.2460  141.7360 C   0  0  0  0  0  2  0  0  0  0  0  0
  189.5460  171.9340  139.7780 N   0  0  0  0  0  0  0  0  0  0  0  0
  188.6130  172.5630  138.8570 C   0  0  0  0  0  1  0  0  0  0  0  0
  190.4960  170.9730  139.2430 C   0  0  0  0  0  1  0  0  0  0  0  0
  189.5300  172.2420  141.1810 C   0  0  0  0  0  0  0  0  0  0  0  0
  190.3450  171.6810  141.9620 O   0  0  0  0  0  0  0  0  0  0  0  0
  1  4  1  0  0  0  0
  2 11  1  0  0  0  0
  2  1  2  0  0  0  0
  3 13  2  0  0  0  0
  4 16  1  1  0  0  0
  4  7  1  0  0  0  0
  6 18  2  0  0  0  0
  6  3  1  0  0  0  0
  7 14  1  6  0  0  0
  7  8  1  0  0  0  0
  8  5  1  0  0  0  0
  9 10  1  6  0  0  0
  9 15  1  0  0  0  0
  9 18  1  0  0  0  0
 12  5  1  0  0  0  0
 13  1  1  0  0  0  0
 13 14  1  0  0  0  0
 15 17  1  0  0  0  0
 16 12  1  0  0  0  0
 17 19  1  1  0  0  0
 17 11  1  0  0  0  0
 18  2  1  0  0  0  0
 20 19  1  0  0  0  0
 21 24  1  0  0  0  0
 22 21  1  0  0  0  0
 23 21  1  0  0  0  0
 24 20  1  0  0  0  0
 24 25  2  0  0  0  0
M  END
>  <MODEL>
7

>  <REMARK>
 VINA RESULT:      -6.9      1.843      3.012
  Name = 
  3 active torsions:
  status: ('A' for Active; 'I' for Inactive)
    1  A    between atoms: C_6  and  C_15
    2  A    between atoms: C_6  and  C_23
    3  A    between atoms: C_15  and  C_21
                            x       y       z     vdW  Elec       q    Type
                         _______ _______ _______ _____ _____    ______ ____

>  <TORSDO>
F 3

$$$$
=
 OpenBabel11052417303D

 25 28  0  0  1  0  0  0  0  0999 V2000
  187.6250  177.1120  144.4000 C   0  0  0  0  0  0  0  0  0  0  0  0
  188.7940  176.4230  144.7360 C   0  0  0  0  0  0  0  0  0  0  0  0
  186.7300  176.7120  146.5900 C   0  0  0  0  0  3  0  0  0  0  0  0
  187.3010  177.7650  143.1070 C   0  0  2  0  0  3  0  0  0  0  0  0
  185.4490  178.2910  140.9430 C   0  0  0  0  0  2  0  0  0  0  0  0
  187.8700  176.0410  146.9200 N   0  0  0  0  0  0  0  0  0  0  0  0
  185.9440  178.4680  143.3930 C   0  0  1  0  0  3  0  0  0  0  0  0
  184.8650  178.1710  142.3490 C   0  0  0  0  0  2  0  0  0  0  0  0
  190.1380  175.1170  146.4360 C   0  0  2  0  0  3  0  0  0  0  0  0
  190.4410  175.3220  147.8430 N   0  0  0  0  0  1  0  0  0  0  0  0
  189.8660  176.2780  143.8010 N   0  0  0  0  0  2  0  0  0  0  0  0
  186.6310  177.3370  140.7120 C   0  0  0  0  0  2  0  0  0  0  0  0
  186.6160  177.2610  145.3140 C   0  0  0  0  0  0  0  0  0  0  0  0
  185.4700  178.0290  144.7840 C   0  0  0  0  0  2  0  0  0  0  0  0
  191.3550  175.5120  145.5980 C   0  0  0  0  0  2  0  0  0  0  0  0
  187.1830  176.7170  141.9990 C   0  0  0  0  0  2  0  0  0  0  0  0
  191.0180  175.4350  144.1090 C   0  0  2  0  0  3  0  0  0  0  0  0
  188.9080  175.9010  146.0420 C   0  0  0  0  0  0  0  0  0  0  0  0
  192.2130  175.8130  143.2420 C   0  0  0  0  0  2  0  0  0  0  0  0
  193.2950  176.5290  144.0400 C   0  0  0  0  0  2  0  0  0  0  0  0
  195.4730  175.3670  144.6750 N   0  0  0  0  0  0  0  0  0  0  0  0
  195.0580  175.2910  146.0670 C   0  0  0  0  0  1  0  0  0  0  0  0
  196.7660  174.8130  144.3110 C   0  0  0  0  0  1  0  0  0  0  0  0
  194.6360  175.9800  143.6810 C   0  0  0  0  0  0  0  0  0  0  0  0
  195.0170  176.0400  142.4820 O   0  0  0  0  0  0  0  0  0  0  0  0
  1  2  2  0  0  0  0
  1 13  1  0  0  0  0
  2 18  1  0  0  0  0
  3  6  1  0  0  0  0
  4 16  1  6  0  0  0
  4  7  1  0  0  0  0
  4  1  1  0  0  0  0
  5  8  1  0  0  0  0
  7  8  1  6  0  0  0
  7 14  1  0  0  0  0
  9 10  1  1  0  0  0
 11 17  1  0  0  0  0
 11  2  1  0  0  0  0
 12  5  1  0  0  0  0
 12 16  1  0  0  0  0
 13  3  2  0  0  0  0
 14 13  1  0  0  0  0
 15  9  1  0  0  0  0
 17 19  1  6  0  0  0
 17 15  1  0  0  0  0
 18  9  1  0  0  0  0
 18  6  2  0  0  0  0
 19 20  1  0  0  0  0
 21 22  1  0  0  0  0
 23 21  1  0  0  0  0
 24 20  1  0  0  0  0
 24 21  1  0  0  0  0
 25 24  2  0  0  0  0
M  END
>  <MODEL>
8

>  <REMARK>
 VINA RESULT:      -6.9      2.902      5.139
  Name = 
  3 active torsions:
  status: ('A' for Active; 'I' for Inactive)
    1  A    between atoms: C_6  and  C_15
    2  A    between atoms: C_6  and  C_23
    3  A    between atoms: C_15  and  C_21
                            x       y       z     vdW  Elec       q    Type
                         _______ _______ _______ _____ _____    ______ ____

>  <TORSDO>
F 3

$$$$
=
 OpenBabel11052417303D

 25 28  0  0  1  0  0  0  0  0999 V2000
  186.5210  176.7570  143.9410 C   0  0  0  0  0  0  0  0  0  0  0  0
  187.5850  176.0010  143.4430 C   0  0  0  0  0  0  0  0  0  0  0  0
  185.8840  177.3730  141.7100 C   0  0  0  0  0  3  0  0  0  0  0  0
  186.1310  176.9470  145.3600 C   0  0  2  0  0  3  0  0  0  0  0  0
  185.3180  178.6670  147.5430 C   0  0  0  0  0  2  0  0  0  0  0  0
  186.9210  176.6340  141.2230 N   0  0  0  0  0  0  0  0  0  0  0  0
  184.8110  177.7610  145.2630 C   0  0  1  0  0  3  0  0  0  0  0  0
  184.7900  179.0070  146.1510 C   0  0  0  0  0  2  0  0  0  0  0  0
  188.9190  175.1570  141.4650 C   0  0  2  0  0  3  0  0  0  0  0  0
  188.5520  174.5730  140.1860 N   0  0  0  0  0  1  0  0  0  0  0  0
  188.4590  175.2810  144.3180 N   0  0  0  0  0  2  0  0  0  0  0  0
  186.7500  178.1120  147.5110 C   0  0  0  0  0  2  0  0  0  0  0  0
  185.6800  177.4230  143.0880 C   0  0  0  0  0  0  0  0  0  0  0  0
  184.6080  178.1550  143.7940 C   0  0  0  0  0  2  0  0  0  0  0  0
  189.3870  174.0480  142.4080 C   0  0  0  0  0  2  0  0  0  0  0  0
  187.2240  177.7100  146.1120 C   0  0  0  0  0  2  0  0  0  0  0  0
  189.6510  174.6160  143.8020 C   0  0  2  0  0  3  0  0  0  0  0  0
  187.7600  175.9330  142.0440 C   0  0  0  0  0  0  0  0  0  0  0  0
  190.1290  173.5370  144.7670 C   0  0  0  0  0  2  0  0  0  0  0  0
  191.6490  173.4510  144.8230 C   0  0  0  0  0  2  0  0  0  0  0  0
  193.3960  171.5970  144.7680 N   0  0  0  0  0  0  0  0  0  0  0  0
  194.3350  172.4210  145.5130 C   0  0  0  0  0  1  0  0  0  0  0  0
  193.8120  170.2580  144.3850 C   0  0  0  0  0  1  0  0  0  0  0  0
  192.0950  172.0870  144.4110 C   0  0  0  0  0  0  0  0  0  0  0  0
  191.2990  171.3580  143.7610 O   0  0  0  0  0  0  0  0  0  0  0  0
  1  4  1  0  0  0  0
  2  1  1  0  0  0  0
  2 11  1  0  0  0  0
  3 13  1  0  0  0  0
  4 16  1  1  0  0  0
  6  3  2  0  0  0  0
  6 18  1  0  0  0  0
  7 14  1  6  0  0  0
  7  4  1  0  0  0  0
  7  8  1  0  0  0  0
  8  5  1  0  0  0  0
  9 10  1  6  0  0  0
  9 18  1  0  0  0  0
  9 15  1  0  0  0  0
 12  5  1  0  0  0  0
 13 14  1  0  0  0  0
 13  1  2  0  0  0  0
 15 17  1  0  0  0  0
 16 12  1  0  0  0  0
 17 11  1  0  0  0  0
 17 19  1  1  0  0  0
 18  2  2  0  0  0  0
 19 20  1  0  0  0  0
 21 22  1  0  0  0  0
 23 21  1  0  0  0  0
 24 21  1  0  0  0  0
 24 20  1  0  0  0  0
 25 24  2  0  0  0  0
M  END
>  <MODEL>
9

>  <REMARK>
 VINA RESULT:      -6.8      2.141      2.616
  Name = 
  3 active torsions:
  status: ('A' for Active; 'I' for Inactive)
    1  A    between atoms: C_6  and  C_15
    2  A    between atoms: C_6  and  C_23
    3  A    between atoms: C_15  and  C_21
                            x       y       z     vdW  Elec       q    Type
                         _______ _______ _______ _____ _____    ______ ____

>  <TORSDO>
F 3

$$$$
