=
 OpenBabel11052417443D

 31 35  0  0  1  0  0  0  0  0999 V2000
  188.1450  177.6260  144.3680 C   0  0  0  0  0  0  0  0  0  0  0  0
  186.7500  177.8020  144.6340 C   0  0  0  0  0  0  0  0  0  0  0  0
  184.3600  178.1840  143.6700 C   0  0  0  0  0  2  0  0  0  0  0  0
  188.7040  177.8020  143.0230 C   0  0  0  0  0  0  0  0  0  0  0  0
  185.8630  178.3690  143.5370 C   0  0  0  0  0  2  0  0  0  0  0  0
  190.4470  177.0770  145.4120 C   0  0  0  0  0  0  0  0  0  0  0  0
  187.1440  177.2270  146.9720 C   0  0  0  0  0  3  0  0  0  0  0  0
  183.8630  179.0610  144.7000 N   0  0  0  0  0  0  0  0  0  0  0  0
  190.8770  177.2660  144.1460 C   0  0  0  0  0  0  0  0  0  0  0  0
  189.0200  177.2610  145.5200 C   0  0  0  0  0  0  0  0  0  0  0  0
  184.0810  178.8150  145.9410 C   0  0  0  0  0  3  0  0  0  0  0  0
  191.4320  177.4390  142.8720 C   0  0  0  0  0  2  0  0  0  0  0  0
  190.0490  177.6110  143.0090 C   0  0  0  0  0  0  0  0  0  0  0  0
  188.4670  177.0880  146.7430 N   0  0  0  0  0  0  0  0  0  0  0  0
  186.2660  177.5860  145.9590 C   0  0  0  0  0  0  0  0  0  0  0  0
  184.8200  177.5840  146.3640 C   0  0  0  0  0  2  0  0  0  0  0  0
  187.4620  177.1560  140.8720 C   0  0  0  0  0  0  0  0  0  0  0  0
  187.6830  175.9230  140.9940 O   0  0  0  0  0  0  0  0  0  0  0  0
  186.7190  177.6260  139.7540 N   0  0  0  0  0  1  0  0  0  0  0  0
  187.9430  178.0970  141.8410 N   0  0  0  0  0  2  0  0  0  0  0  0
  191.3550  176.7000  146.5480 C   0  0  0  0  0  2  0  0  0  0  0  0
  193.8600  176.6870  146.8750 C   0  0  0  0  0  1  0  0  0  0  0  0
  192.6950  176.1090  146.0920 C   0  0  1  0  0  3  0  0  0  0  0  0
  192.7200  174.5860  146.1540 C   0  0  0  0  0  2  0  0  0  0  0  0
  190.6280  172.7870  143.5700 C   0  0  0  0  0  0  0  0  0  0  0  0
  192.6140  173.5550  142.5180 C   0  0  0  0  0  3  0  0  0  0  0  0
  189.3230  172.0830  143.4740 C   0  0  0  0  0  1  0  0  0  0  0  0
  191.0410  173.3260  144.7900 C   0  0  0  0  0  3  0  0  0  0  0  0
  193.0620  174.1070  143.7200 C   0  0  0  0  0  3  0  0  0  0  0  0
  192.2690  173.9890  144.8640 C   0  0  0  0  0  0  0  0  0  0  0  0
  191.4170  172.9110  142.4680 N   0  0  0  0  0  0  0  0  0  0  0  0
  1  2  2  0  0  0  0
  1 10  1  0  0  0  0
  2 15  1  0  0  0  0
  3  8  1  0  0  0  0
  4  1  1  0  0  0  0
  5  3  1  0  0  0  0
  5  2  1  0  0  0  0
  6 10  1  0  0  0  0
  6 21  1  0  0  0  0
  8 11  2  0  0  0  0
  9  6  2  0  0  0  0
 10 14  2  0  0  0  0
 11 16  1  0  0  0  0
 12 13  1  0  0  0  0
 12  9  1  0  0  0  0
 13  4  2  0  0  0  0
 13  9  1  0  0  0  0
 14  7  1  0  0  0  0
 15 16  1  0  0  0  0
 15  7  2  0  0  0  0
 17 18  2  0  0  0  0
 17 20  1  0  0  0  0
 19 17  1  0  0  0  0
 20  4  1  0  0  0  0
 23 24  1  0  0  0  0
 23 21  1  0  0  0  0
 23 22  1  1  0  0  0
 25 28  1  0  0  0  0
 26 29  2  0  0  0  0
 27 25  1  0  0  0  0
 28 30  2  0  0  0  0
 29 30  1  0  0  0  0
 30 24  1  0  0  0  0
 31 26  1  0  0  0  0
 31 25  2  0  0  0  0
M  END
>  <MODEL>
1

>  <REMARK>
 VINA RESULT:      -8.7      0.000      0.000
  Name = 
  5 active torsions:
  status: ('A' for Active; 'I' for Inactive)
    1  A    between atoms: C_3  and  C_9
    2  A    between atoms: C_3  and  C_22
    3  A    between atoms: C_9  and  C_23
    4  A    between atoms: C_12  and  N_25
    5  A    between atoms: C_15  and  C_23
                            x       y       z     vdW  Elec       q    Type
                         _______ _______ _______ _____ _____    ______ ____

>  <TORSDO>
F 5

$$$$
=
 OpenBabel11052417443D

 31 35  0  0  1  0  0  0  0  0999 V2000
  188.2900  177.4450  144.4440 C   0  0  0  0  0  0  0  0  0  0  0  0
  186.9020  177.6220  144.7430 C   0  0  0  0  0  0  0  0  0  0  0  0
  184.5000  178.0760  143.8410 C   0  0  0  0  0  2  0  0  0  0  0  0
  188.8280  177.6830  143.1000 C   0  0  0  0  0  0  0  0  0  0  0  0
  186.0030  178.2530  143.6910 C   0  0  0  0  0  2  0  0  0  0  0  0
  190.6030  176.8190  145.4190 C   0  0  0  0  0  0  0  0  0  0  0  0
  187.3290  176.9240  147.0420 C   0  0  0  0  0  3  0  0  0  0  0  0
  184.0310  178.9050  144.9230 N   0  0  0  0  0  0  0  0  0  0  0  0
  191.0140  177.0690  144.1570 C   0  0  0  0  0  0  0  0  0  0  0  0
  189.1800  177.0130  145.5610 C   0  0  0  0  0  0  0  0  0  0  0  0
  184.2660  178.5940  146.1460 C   0  0  0  0  0  3  0  0  0  0  0  0
  191.5490  177.3000  142.8840 C   0  0  0  0  0  2  0  0  0  0  0  0
  190.1710  177.4790  143.0540 C   0  0  0  0  0  0  0  0  0  0  0  0
  188.6450  176.7830  146.7820 N   0  0  0  0  0  0  0  0  0  0  0  0
  186.4380  177.3440  146.0640 C   0  0  0  0  0  0  0  0  0  0  0  0
  184.9980  177.3360  146.4920 C   0  0  0  0  0  2  0  0  0  0  0  0
  187.5270  177.1580  140.9520 C   0  0  0  0  0  0  0  0  0  0  0  0
  187.7200  175.9160  141.0180 O   0  0  0  0  0  0  0  0  0  0  0  0
  186.7730  177.6920  139.8700 N   0  0  0  0  0  1  0  0  0  0  0  0
  188.0510  178.0450  141.9480 N   0  0  0  0  0  2  0  0  0  0  0  0
  191.5250  176.3760  146.5180 C   0  0  0  0  0  2  0  0  0  0  0  0
  193.8640  177.1580  147.0700 C   0  0  0  0  0  1  0  0  0  0  0  0
  193.0040  176.3580  146.1080 C   0  0  1  0  0  3  0  0  0  0  0  0
  193.5560  174.9450  145.9550 C   0  0  0  0  0  2  0  0  0  0  0  0
  196.2610  175.7250  143.4320 C   0  0  0  0  0  0  0  0  0  0  0  0
  197.1660  174.2560  145.0640 C   0  0  0  0  0  3  0  0  0  0  0  0
  196.4470  176.5330  142.1990 C   0  0  0  0  0  1  0  0  0  0  0  0
  195.0230  175.7160  144.0790 C   0  0  0  0  0  3  0  0  0  0  0  0
  195.9440  174.2200  145.7400 C   0  0  0  0  0  3  0  0  0  0  0  0
  194.8650  174.9550  145.2400 C   0  0  0  0  0  0  0  0  0  0  0  0
  197.2980  175.0010  143.9340 N   0  0  0  0  0  0  0  0  0  0  0  0
  1  2  2  0  0  0  0
  1 10  1  0  0  0  0
  2 15  1  0  0  0  0
  3  8  1  0  0  0  0
  4  1  1  0  0  0  0
  5  3  1  0  0  0  0
  5  2  1  0  0  0  0
  6 10  1  0  0  0  0
  6 21  1  0  0  0  0
  8 11  2  0  0  0  0
  9  6  2  0  0  0  0
 10 14  2  0  0  0  0
 11 16  1  0  0  0  0
 12 13  1  0  0  0  0
 12  9  1  0  0  0  0
 13  4  2  0  0  0  0
 13  9  1  0  0  0  0
 14  7  1  0  0  0  0
 15 16  1  0  0  0  0
 15  7  2  0  0  0  0
 17 18  2  0  0  0  0
 17 20  1  0  0  0  0
 19 17  1  0  0  0  0
 20  4  1  0  0  0  0
 23 21  1  0  0  0  0
 23 22  1  1  0  0  0
 24 23  1  0  0  0  0
 25 31  2  0  0  0  0
 25 28  1  0  0  0  0
 26 29  2  0  0  0  0
 27 25  1  0  0  0  0
 28 30  2  0  0  0  0
 30 29  1  0  0  0  0
 30 24  1  0  0  0  0
 31 26  1  0  0  0  0
M  END
>  <MODEL>
2

>  <REMARK>
 VINA RESULT:      -8.5      1.970      2.703
  Name = 
  5 active torsions:
  status: ('A' for Active; 'I' for Inactive)
    1  A    between atoms: C_3  and  C_9
    2  A    between atoms: C_3  and  C_22
    3  A    between atoms: C_9  and  C_23
    4  A    between atoms: C_12  and  N_25
    5  A    between atoms: C_15  and  C_23
                            x       y       z     vdW  Elec       q    Type
                         _______ _______ _______ _____ _____    ______ ____

>  <TORSDO>
F 5

$$$$
=
 OpenBabel11052417443D

 31 35  0  0  1  0  0  0  0  0999 V2000
  188.2180  176.1700  144.3430 C   0  0  0  0  0  0  0  0  0  0  0  0
  187.5530  176.9270  143.3280 C   0  0  0  0  0  0  0  0  0  0  0  0
  186.2310  179.0850  142.7060 C   0  0  0  0  0  2  0  0  0  0  0  0
  188.1640  176.5570  145.7570 C   0  0  0  0  0  0  0  0  0  0  0  0
  186.6140  178.0470  143.7490 C   0  0  0  0  0  2  0  0  0  0  0  0
  189.6680  174.0810  144.8190 C   0  0  0  0  0  0  0  0  0  0  0  0
  188.4080  175.3830  141.6440 C   0  0  0  0  0  3  0  0  0  0  0  0
  185.3130  178.4960  141.7650 N   0  0  0  0  0  0  0  0  0  0  0  0
  189.5590  174.5050  146.0970 C   0  0  0  0  0  0  0  0  0  0  0  0
  188.9710  174.9570  143.9090 C   0  0  0  0  0  0  0  0  0  0  0  0
  185.7150  177.6500  140.8870 C   0  0  0  0  0  3  0  0  0  0  0  0
  189.5110  174.8520  147.4530 C   0  0  0  0  0  2  0  0  0  0  0  0
  188.8440  175.6820  146.5440 C   0  0  0  0  0  0  0  0  0  0  0  0
  189.0150  174.6410  142.5940 N   0  0  0  0  0  0  0  0  0  0  0  0
  187.6700  176.5130  141.9670 C   0  0  0  0  0  0  0  0  0  0  0  0
  187.1610  177.2800  140.7810 C   0  0  0  0  0  2  0  0  0  0  0  0
  186.4210  177.7760  147.1920 C   0  0  0  0  0  0  0  0  0  0  0  0
  185.9100  176.7200  147.6490 O   0  0  0  0  0  0  0  0  0  0  0  0
  185.9010  179.0360  147.5970 N   0  0  0  0  0  1  0  0  0  0  0  0
  187.5180  177.7330  146.2710 N   0  0  0  0  0  2  0  0  0  0  0  0
  190.4410  172.8580  144.4150 C   0  0  0  0  0  2  0  0  0  0  0  0
  192.6940  171.7150  144.4170 C   0  0  0  0  0  1  0  0  0  0  0  0
  191.9630  173.0430  144.4900 C   0  0  1  0  0  3  0  0  0  0  0  0
  192.4940  173.9980  143.4260 C   0  0  0  0  0  2  0  0  0  0  0  0
  195.3920  176.3600  143.9910 C   0  0  0  0  0  0  0  0  0  0  0  0
  193.8180  176.6790  145.7410 C   0  0  0  0  0  3  0  0  0  0  0  0
  196.6800  176.7290  143.3500 C   0  0  0  0  0  1  0  0  0  0  0  0
  194.5860  175.3720  143.4190 C   0  0  0  0  0  3  0  0  0  0  0  0
  192.9850  175.6970  145.2000 C   0  0  0  0  0  3  0  0  0  0  0  0
  193.3750  175.0380  144.0310 C   0  0  0  0  0  0  0  0  0  0  0  0
  194.9940  176.9870  145.1310 N   0  0  0  0  0  0  0  0  0  0  0  0
  1  4  1  0  0  0  0
  2  5  1  0  0  0  0
  2  1  1  0  0  0  0
  3  5  1  0  0  0  0
  4 20  1  0  0  0  0
  4 13  2  0  0  0  0
  6  9  2  0  0  0  0
  7 15  1  0  0  0  0
  7 14  2  0  0  0  0
  8  3  1  0  0  0  0
  9 13  1  0  0  0  0
  9 12  1  0  0  0  0
 10  1  2  0  0  0  0
 10  6  1  0  0  0  0
 11  8  2  0  0  0  0
 13 12  1  0  0  0  0
 14 10  1  0  0  0  0
 15  2  2  0  0  0  0
 16 11  1  0  0  0  0
 16 15  1  0  0  0  0
 17 19  1  0  0  0  0
 17 18  2  0  0  0  0
 20 17  1  0  0  0  0
 21 23  1  0  0  0  0
 21  6  1  0  0  0  0
 23 22  1  6  0  0  0
 24 30  1  0  0  0  0
 24 23  1  0  0  0  0
 25 31  1  0  0  0  0
 27 25  1  0  0  0  0
 28 25  2  0  0  0  0
 28 30  1  0  0  0  0
 29 26  1  0  0  0  0
 30 29  2  0  0  0  0
 31 26  2  0  0  0  0
M  END
>  <MODEL>
3

>  <REMARK>
 VINA RESULT:      -7.8      2.559      4.738
  Name = 
  5 active torsions:
  status: ('A' for Active; 'I' for Inactive)
    1  A    between atoms: C_3  and  C_9
    2  A    between atoms: C_3  and  C_22
    3  A    between atoms: C_9  and  C_23
    4  A    between atoms: C_12  and  N_25
    5  A    between atoms: C_15  and  C_23
                            x       y       z     vdW  Elec       q    Type
                         _______ _______ _______ _____ _____    ______ ____

>  <TORSDO>
F 5

$$$$
=
 OpenBabel11052417443D

 31 35  0  0  1  0  0  0  0  0999 V2000
  187.2690  176.2820  143.8650 C   0  0  0  0  0  0  0  0  0  0  0  0
  186.5960  176.9230  144.9530 C   0  0  0  0  0  0  0  0  0  0  0  0
  184.5230  178.2800  145.7610 C   0  0  0  0  0  2  0  0  0  0  0  0
  186.8010  176.4130  142.4810 C   0  0  0  0  0  0  0  0  0  0  0  0
  185.4850  177.9140  144.6420 C   0  0  0  0  0  2  0  0  0  0  0  0
  189.2770  174.7930  143.2000 C   0  0  0  0  0  0  0  0  0  0  0  0
  188.2070  175.9440  146.5010 C   0  0  0  0  0  3  0  0  0  0  0  0
  185.1970  179.1360  146.7050 N   0  0  0  0  0  0  0  0  0  0  0  0
  188.7820  174.9740  141.9570 C   0  0  0  0  0  0  0  0  0  0  0  0
  188.4800  175.4740  144.1910 C   0  0  0  0  0  0  0  0  0  0  0  0
  186.0790  178.6680  147.5110 C   0  0  0  0  0  3  0  0  0  0  0  0
  188.3580  175.0940  140.6270 C   0  0  0  0  0  2  0  0  0  0  0  0
  187.6050  175.7440  141.6140 C   0  0  0  0  0  0  0  0  0  0  0  0
  188.8710  175.3590  145.4820 N   0  0  0  0  0  0  0  0  0  0  0  0
  187.0850  176.7300  146.2800 C   0  0  0  0  0  0  0  0  0  0  0  0
  186.4060  177.2080  147.5310 C   0  0  0  0  0  2  0  0  0  0  0  0
  185.4420  177.8580  140.8530 C   0  0  0  0  0  0  0  0  0  0  0  0
  186.3660  177.9490  140.0030 O   0  0  0  0  0  0  0  0  0  0  0  0
  184.1970  178.4990  140.6040 N   0  0  0  0  0  1  0  0  0  0  0  0
  185.6200  177.1180  142.0680 N   0  0  0  0  0  2  0  0  0  0  0  0
  190.4940  173.9640  143.4950 C   0  0  0  0  0  2  0  0  0  0  0  0
  191.9810  174.3040  141.4810 C   0  0  0  0  0  1  0  0  0  0  0  0
  191.7970  174.5770  142.9630 C   0  0  1  0  0  3  0  0  0  0  0  0
  191.9030  176.0720  143.2430 C   0  0  0  0  0  2  0  0  0  0  0  0
  192.4870  176.6460  146.9340 C   0  0  0  0  0  0  0  0  0  0  0  0
  194.5910  176.6720  145.8330 C   0  0  0  0  0  3  0  0  0  0  0  0
  191.7030  176.7470  148.1920 C   0  0  0  0  0  1  0  0  0  0  0  0
  191.8320  176.4230  145.7210 C   0  0  0  0  0  3  0  0  0  0  0  0
  193.9730  176.4490  144.6010 C   0  0  0  0  0  3  0  0  0  0  0  0
  192.5820  176.3270  144.5460 C   0  0  0  0  0  0  0  0  0  0  0  0
  193.8420  176.7650  146.9650 N   0  0  0  0  0  0  0  0  0  0  0  0
  1 10  1  0  0  0  0
  1  2  2  0  0  0  0
  2 15  1  0  0  0  0
  3  8  1  0  0  0  0
  4  1  1  0  0  0  0
  5  2  1  0  0  0  0
  5  3  1  0  0  0  0
  6 21  1  0  0  0  0
  6 10  1  0  0  0  0
  8 11  2  0  0  0  0
  9  6  2  0  0  0  0
 10 14  2  0  0  0  0
 11 16  1  0  0  0  0
 12 13  1  0  0  0  0
 12  9  1  0  0  0  0
 13  9  1  0  0  0  0
 13  4  2  0  0  0  0
 14  7  1  0  0  0  0
 15  7  2  0  0  0  0
 15 16  1  0  0  0  0
 17 20  1  0  0  0  0
 18 17  2  0  0  0  0
 19 17  1  0  0  0  0
 20  4  1  0  0  0  0
 23 22  1  6  0  0  0
 23 24  1  0  0  0  0
 23 21  1  0  0  0  0
 24 30  1  0  0  0  0
 25 31  1  0  0  0  0
 25 27  1  0  0  0  0
 26 31  2  0  0  0  0
 28 25  2  0  0  0  0
 29 26  1  0  0  0  0
 30 29  2  0  0  0  0
 30 28  1  0  0  0  0
M  END
>  <MODEL>
4

>  <REMARK>
 VINA RESULT:      -7.5      2.042      3.493
  Name = 
  5 active torsions:
  status: ('A' for Active; 'I' for Inactive)
    1  A    between atoms: C_3  and  C_9
    2  A    between atoms: C_3  and  C_22
    3  A    between atoms: C_9  and  C_23
    4  A    between atoms: C_12  and  N_25
    5  A    between atoms: C_15  and  C_23
                            x       y       z     vdW  Elec       q    Type
                         _______ _______ _______ _____ _____    ______ ____

>  <TORSDO>
F 5

$$$$
=
 OpenBabel11052417443D

 31 35  0  0  1  0  0  0  0  0999 V2000
  187.6100  176.5290  144.4060 C   0  0  0  0  0  0  0  0  0  0  0  0
  186.7520  177.2450  143.5130 C   0  0  0  0  0  0  0  0  0  0  0  0
  184.6840  178.8040  143.2320 C   0  0  0  0  0  2  0  0  0  0  0  0
  187.3110  176.4070  145.8370 C   0  0  0  0  0  0  0  0  0  0  0  0
  185.4040  177.7260  144.0260 C   0  0  0  0  0  2  0  0  0  0  0  0
  189.7750  175.1230  144.5900 C   0  0  0  0  0  0  0  0  0  0  0  0
  188.2820  176.7520  141.6770 C   0  0  0  0  0  3  0  0  0  0  0  0
  184.1600  178.2300  142.0180 N   0  0  0  0  0  0  0  0  0  0  0  0
  189.4180  175.0540  145.8910 C   0  0  0  0  0  0  0  0  0  0  0  0
  188.8300  175.8980  143.8220 C   0  0  0  0  0  0  0  0  0  0  0  0
  184.9350  177.9200  141.0430 C   0  0  0  0  0  3  0  0  0  0  0  0
  189.1450  174.9180  147.2580 C   0  0  0  0  0  2  0  0  0  0  0  0
  188.2460  175.6650  146.4840 C   0  0  0  0  0  0  0  0  0  0  0  0
  189.0850  176.0470  142.5010 N   0  0  0  0  0  0  0  0  0  0  0  0
  187.1170  177.3510  142.1370 C   0  0  0  0  0  0  0  0  0  0  0  0
  186.4060  178.1890  141.1140 C   0  0  0  0  0  2  0  0  0  0  0  0
  186.2480  178.1170  147.4280 C   0  0  0  0  0  0  0  0  0  0  0  0
  187.3410  178.6590  147.7390 O   0  0  0  0  0  0  0  0  0  0  0  0
  185.0400  178.6020  148.0000 N   0  0  0  0  0  1  0  0  0  0  0  0
  186.1980  177.0210  146.5060 N   0  0  0  0  0  2  0  0  0  0  0  0
  191.0160  174.4830  144.0370 C   0  0  0  0  0  2  0  0  0  0  0  0
  190.9150  171.9590  144.0010 C   0  0  0  0  0  1  0  0  0  0  0  0
  191.4070  173.1830  144.7520 C   0  0  1  0  0  3  0  0  0  0  0  0
  192.9060  173.0800  145.0090 C   0  0  0  0  0  2  0  0  0  0  0  0
  194.9910  176.2180  144.7020 C   0  0  0  0  0  0  0  0  0  0  0  0
  193.6270  176.4170  146.6350 C   0  0  0  0  0  3  0  0  0  0  0  0
  196.0150  176.8020  143.7970 C   0  0  0  0  0  1  0  0  0  0  0  0
  194.4610  174.9540  144.4320 C   0  0  0  0  0  3  0  0  0  0  0  0
  193.0730  175.1560  146.4000 C   0  0  0  0  0  3  0  0  0  0  0  0
  193.4970  174.4200  145.2900 C   0  0  0  0  0  0  0  0  0  0  0  0
  194.5670  176.9170  145.7890 N   0  0  0  0  0  0  0  0  0  0  0  0
  1  4  1  0  0  0  0
  2  5  1  0  0  0  0
  2  1  1  0  0  0  0
  3  5  1  0  0  0  0
  4 13  2  0  0  0  0
  4 20  1  0  0  0  0
  6  9  2  0  0  0  0
  7 15  1  0  0  0  0
  7 14  2  0  0  0  0
  8  3  1  0  0  0  0
  9 13  1  0  0  0  0
  9 12  1  0  0  0  0
 10  1  2  0  0  0  0
 10  6  1  0  0  0  0
 11 16  1  0  0  0  0
 11  8  2  0  0  0  0
 13 12  1  0  0  0  0
 14 10  1  0  0  0  0
 15  2  2  0  0  0  0
 16 15  1  0  0  0  0
 17 18  2  0  0  0  0
 17 19  1  0  0  0  0
 20 17  1  0  0  0  0
 21  6  1  0  0  0  0
 21 23  1  0  0  0  0
 23 22  1  6  0  0  0
 23 24  1  0  0  0  0
 24 30  1  0  0  0  0
 25 31  1  0  0  0  0
 27 25  1  0  0  0  0
 28 25  2  0  0  0  0
 28 30  1  0  0  0  0
 29 26  1  0  0  0  0
 30 29  2  0  0  0  0
 31 26  2  0  0  0  0
M  END
>  <MODEL>
5

>  <REMARK>
 VINA RESULT:      -7.5      2.532      4.628
  Name = 
  5 active torsions:
  status: ('A' for Active; 'I' for Inactive)
    1  A    between atoms: C_3  and  C_9
    2  A    between atoms: C_3  and  C_22
    3  A    between atoms: C_9  and  C_23
    4  A    between atoms: C_12  and  N_25
    5  A    between atoms: C_15  and  C_23
                            x       y       z     vdW  Elec       q    Type
                         _______ _______ _______ _____ _____    ______ ____

>  <TORSDO>
F 5

$$$$
=
 OpenBabel11052417443D

 31 35  0  0  1  0  0  0  0  0999 V2000
  191.1610  175.5450  144.1490 C   0  0  0  0  0  0  0  0  0  0  0  0
  192.5520  175.6290  144.4760 C   0  0  0  0  0  0  0  0  0  0  0  0
  195.0170  175.4180  143.6590 C   0  0  0  0  0  2  0  0  0  0  0  0
  190.6990  175.0340  142.8540 C   0  0  0  0  0  0  0  0  0  0  0  0
  193.5620  174.9950  143.5330 C   0  0  0  0  0  2  0  0  0  0  0  0
  188.7560  175.9470  145.0130 C   0  0  0  0  0  0  0  0  0  0  0  0
  191.9660  176.5820  146.6440 C   0  0  0  0  0  3  0  0  0  0  0  0
  195.5780  174.8390  144.8530 N   0  0  0  0  0  0  0  0  0  0  0  0
  188.4200  175.4560  143.8010 C   0  0  0  0  0  0  0  0  0  0  0  0
  190.1870  175.9960  145.1870 C   0  0  0  0  0  0  0  0  0  0  0  0
  195.2660  175.2860  146.0160 C   0  0  0  0  0  3  0  0  0  0  0  0
  187.9580  174.9610  142.5750 C   0  0  0  0  0  2  0  0  0  0  0  0
  189.3430  175.0210  142.7740 C   0  0  0  0  0  0  0  0  0  0  0  0
  190.6500  176.4810  146.3620 N   0  0  0  0  0  0  0  0  0  0  0  0
  192.9350  176.1650  145.7420 C   0  0  0  0  0  0  0  0  0  0  0  0
  194.3450  176.4550  146.1690 C   0  0  0  0  0  2  0  0  0  0  0  0
  191.5830  173.3450  141.1370 C   0  0  0  0  0  0  0  0  0  0  0  0
  190.8160  172.4160  141.5040 O   0  0  0  0  0  0  0  0  0  0  0  0
  192.4970  173.1160  140.0710 N   0  0  0  0  0  1  0  0  0  0  0  0
  191.5520  174.6290  141.7710 N   0  0  0  0  0  2  0  0  0  0  0  0
  187.7490  176.4010  146.0320 C   0  0  0  0  0  2  0  0  0  0  0  0
  185.2870  176.8060  146.4300 C   0  0  0  0  0  1  0  0  0  0  0  0
  186.4180  176.8560  145.4180 C   0  0  1  0  0  3  0  0  0  0  0  0
  186.5030  178.2410  144.7870 C   0  0  0  0  0  2  0  0  0  0  0  0
  183.9370  178.2850  142.0110 C   0  0  0  0  0  0  0  0  0  0  0  0
  186.0990  178.2990  141.0280 C   0  0  0  0  0  3  0  0  0  0  0  0
  182.4610  178.2980  141.8470 C   0  0  0  0  0  1  0  0  0  0  0  0
  184.4960  178.2590  143.2910 C   0  0  0  0  0  3  0  0  0  0  0  0
  186.6960  178.2740  142.2910 C   0  0  0  0  0  3  0  0  0  0  0  0
  185.8870  178.2510  143.4290 C   0  0  0  0  0  0  0  0  0  0  0  0
  184.7440  178.3040  140.9150 N   0  0  0  0  0  0  0  0  0  0  0  0
  1  2  2  0  0  0  0
  1 10  1  0  0  0  0
  2 15  1  0  0  0  0
  3  8  1  0  0  0  0
  4  1  1  0  0  0  0
  5  3  1  0  0  0  0
  5  2  1  0  0  0  0
  6 10  1  0  0  0  0
  6 21  1  0  0  0  0
  8 11  2  0  0  0  0
  9  6  2  0  0  0  0
 10 14  2  0  0  0  0
 11 16  1  0  0  0  0
 12 13  1  0  0  0  0
 12  9  1  0  0  0  0
 13  4  2  0  0  0  0
 13  9  1  0  0  0  0
 14  7  1  0  0  0  0
 15 16  1  0  0  0  0
 15  7  2  0  0  0  0
 17 18  2  0  0  0  0
 17 20  1  0  0  0  0
 19 17  1  0  0  0  0
 20  4  1  0  0  0  0
 23 21  1  0  0  0  0
 23 22  1  1  0  0  0
 24 23  1  0  0  0  0
 25 28  1  0  0  0  0
 26 29  2  0  0  0  0
 27 25  1  0  0  0  0
 28 30  2  0  0  0  0
 29 30  1  0  0  0  0
 30 24  1  0  0  0  0
 31 26  1  0  0  0  0
 31 25  2  0  0  0  0
M  END
>  <MODEL>
6

>  <REMARK>
 VINA RESULT:      -7.5      2.131      7.120
  Name = 
  5 active torsions:
  status: ('A' for Active; 'I' for Inactive)
    1  A    between atoms: C_3  and  C_9
    2  A    between atoms: C_3  and  C_22
    3  A    between atoms: C_9  and  C_23
    4  A    between atoms: C_12  and  N_25
    5  A    between atoms: C_15  and  C_23
                            x       y       z     vdW  Elec       q    Type
                         _______ _______ _______ _____ _____    ______ ____

>  <TORSDO>
F 5

$$$$
=
 OpenBabel11052417443D

 31 35  0  0  1  0  0  0  0  0999 V2000
  187.5700  176.5850  144.4370 C   0  0  0  0  0  0  0  0  0  0  0  0
  186.6640  177.2660  143.5640 C   0  0  0  0  0  0  0  0  0  0  0  0
  184.4910  178.6850  143.3250 C   0  0  0  0  0  2  0  0  0  0  0  0
  187.2790  176.3990  145.8620 C   0  0  0  0  0  0  0  0  0  0  0  0
  185.2850  177.6360  144.0880 C   0  0  0  0  0  2  0  0  0  0  0  0
  189.8270  175.3300  144.5840 C   0  0  0  0  0  0  0  0  0  0  0  0
  188.2260  176.9400  141.7180 C   0  0  0  0  0  3  0  0  0  0  0  0
  184.0100  178.1130  142.0930 N   0  0  0  0  0  0  0  0  0  0  0  0
  189.4750  175.1960  145.8810 C   0  0  0  0  0  0  0  0  0  0  0  0
  188.8320  176.0600  143.8370 C   0  0  0  0  0  0  0  0  0  0  0  0
  184.8060  177.8890  141.1100 C   0  0  0  0  0  3  0  0  0  0  0  0
  189.2110  174.9990  147.2420 C   0  0  0  0  0  2  0  0  0  0  0  0
  188.2630  175.7040  146.4890 C   0  0  0  0  0  0  0  0  0  0  0  0
  189.0760  176.2680  142.5230 N   0  0  0  0  0  0  0  0  0  0  0  0
  187.0220  177.4400  142.1930 C   0  0  0  0  0  0  0  0  0  0  0  0
  186.2540  178.2570  141.1940 C   0  0  0  0  0  2  0  0  0  0  0  0
  186.0940  177.9930  147.4870 C   0  0  0  0  0  0  0  0  0  0  0  0
  187.1430  178.6130  147.8030 O   0  0  0  0  0  0  0  0  0  0  0  0
  184.8550  178.3720  148.0730 N   0  0  0  0  0  1  0  0  0  0  0  0
  186.1250  176.9120  146.5470 N   0  0  0  0  0  2  0  0  0  0  0  0
  191.1110  174.7960  144.0150 C   0  0  0  0  0  2  0  0  0  0  0  0
  192.1260  177.0850  144.3560 C   0  0  0  0  0  1  0  0  0  0  0  0
  192.3510  175.5860  144.4520 C   0  0  1  0  0  3  0  0  0  0  0  0
  192.8250  175.2120  145.8520 C   0  0  0  0  0  2  0  0  0  0  0  0
  195.0240  172.1500  145.5620 C   0  0  0  0  0  0  0  0  0  0  0  0
  196.4240  174.0530  145.8090 C   0  0  0  0  0  3  0  0  0  0  0  0
  194.8860  170.6820  145.3840 C   0  0  0  0  0  1  0  0  0  0  0  0
  193.8840  172.9540  145.6310 C   0  0  0  0  0  3  0  0  0  0  0  0
  195.3090  174.8900  145.8820 C   0  0  0  0  0  3  0  0  0  0  0  0
  194.0300  174.3350  145.7940 C   0  0  0  0  0  0  0  0  0  0  0  0
  196.2610  172.7120  145.6520 N   0  0  0  0  0  0  0  0  0  0  0  0
  1  4  1  0  0  0  0
  2  5  1  0  0  0  0
  2  1  1  0  0  0  0
  3  5  1  0  0  0  0
  4 13  2  0  0  0  0
  4 20  1  0  0  0  0
  6  9  2  0  0  0  0
  7 15  1  0  0  0  0
  7 14  2  0  0  0  0
  8  3  1  0  0  0  0
  9 13  1  0  0  0  0
  9 12  1  0  0  0  0
 10  1  2  0  0  0  0
 10  6  1  0  0  0  0
 11 16  1  0  0  0  0
 11  8  2  0  0  0  0
 13 12  1  0  0  0  0
 14 10  1  0  0  0  0
 15  2  2  0  0  0  0
 16 15  1  0  0  0  0
 17 18  2  0  0  0  0
 17 19  1  0  0  0  0
 20 17  1  0  0  0  0
 21 23  1  0  0  0  0
 21  6  1  0  0  0  0
 23 22  1  1  0  0  0
 23 24  1  0  0  0  0
 25 28  2  0  0  0  0
 25 31  1  0  0  0  0
 26 29  1  0  0  0  0
 27 25  1  0  0  0  0
 28 30  1  0  0  0  0
 30 24  1  0  0  0  0
 30 29  2  0  0  0  0
 31 26  2  0  0  0  0
M  END
>  <MODEL>
7

>  <REMARK>
 VINA RESULT:      -7.4      2.705      4.302
  Name = 
  5 active torsions:
  status: ('A' for Active; 'I' for Inactive)
    1  A    between atoms: C_3  and  C_9
    2  A    between atoms: C_3  and  C_22
    3  A    between atoms: C_9  and  C_23
    4  A    between atoms: C_12  and  N_25
    5  A    between atoms: C_15  and  C_23
                            x       y       z     vdW  Elec       q    Type
                         _______ _______ _______ _____ _____    ______ ____

>  <TORSDO>
F 5

$$$$
=
 OpenBabel11052417443D

 31 35  0  0  1  0  0  0  0  0999 V2000
  190.5120  174.6430  143.4680 C   0  0  0  0  0  0  0  0  0  0  0  0
  191.6730  175.0880  144.1770 C   0  0  0  0  0  0  0  0  0  0  0  0
  193.8400  174.4390  145.4700 C   0  0  0  0  0  2  0  0  0  0  0  0
  190.1340  173.2270  143.4130 C   0  0  0  0  0  0  0  0  0  0  0  0
  192.4200  174.0920  145.0500 C   0  0  0  0  0  2  0  0  0  0  0  0
  188.4780  175.3910  142.0550 C   0  0  0  0  0  0  0  0  0  0  0  0
  191.1930  177.3780  143.4870 C   0  0  0  0  0  3  0  0  0  0  0  0
  193.7980  175.4780  146.4690 N   0  0  0  0  0  0  0  0  0  0  0  0
  188.2000  174.0700  142.0640 C   0  0  0  0  0  0  0  0  0  0  0  0
  189.6880  175.6830  142.7850 C   0  0  0  0  0  0  0  0  0  0  0  0
  193.5130  176.6890  146.1540 C   0  0  0  0  0  3  0  0  0  0  0  0
  187.8170  172.7240  142.0080 C   0  0  0  0  0  2  0  0  0  0  0  0
  188.9870  173.0400  142.7100 C   0  0  0  0  0  0  0  0  0  0  0  0
  190.0790  176.9780  142.8400 N   0  0  0  0  0  0  0  0  0  0  0  0
  192.0010  176.4760  144.1660 C   0  0  0  0  0  0  0  0  0  0  0  0
  193.2580  177.0740  144.7300 C   0  0  0  0  0  2  0  0  0  0  0  0
  191.6850  171.1870  143.2830 C   0  0  0  0  0  0  0  0  0  0  0  0
  191.7960  171.2240  142.0290 O   0  0  0  0  0  0  0  0  0  0  0  0
  192.3660  170.1760  144.0140 N   0  0  0  0  0  1  0  0  0  0  0  0
  190.8860  172.1450  143.9870 N   0  0  0  0  0  2  0  0  0  0  0  0
  187.6320  176.4120  141.3490 C   0  0  0  0  0  2  0  0  0  0  0  0
  185.9540  178.2910  141.5440 C   0  0  0  0  0  1  0  0  0  0  0  0
  186.8230  177.3020  142.3010 C   0  0  1  0  0  3  0  0  0  0  0  0
  185.9780  176.5000  143.2840 C   0  0  0  0  0  2  0  0  0  0  0  0
  187.8980  177.3420  146.4300 C   0  0  0  0  0  0  0  0  0  0  0  0
  185.5780  177.5120  146.9050 C   0  0  0  0  0  3  0  0  0  0  0  0
  189.3070  177.4560  146.8890 C   0  0  0  0  0  1  0  0  0  0  0  0
  187.6220  176.9740  145.1110 C   0  0  0  0  0  3  0  0  0  0  0  0
  185.2610  177.1470  145.5950 C   0  0  0  0  0  3  0  0  0  0  0  0
  186.2930  176.8740  144.6930 C   0  0  0  0  0  0  0  0  0  0  0  0
  186.8790  177.6010  147.2930 N   0  0  0  0  0  0  0  0  0  0  0  0
  1  2  2  0  0  0  0
  2  5  1  0  0  0  0
  3  8  1  0  0  0  0
  4  1  1  0  0  0  0
  4 20  1  0  0  0  0
  5  3  1  0  0  0  0
  6  9  2  0  0  0  0
  6 10  1  0  0  0  0
  7 15  2  0  0  0  0
  9 13  1  0  0  0  0
 10 14  2  0  0  0  0
 10  1  1  0  0  0  0
 11  8  2  0  0  0  0
 12  9  1  0  0  0  0
 12 13  1  0  0  0  0
 13  4  2  0  0  0  0
 14  7  1  0  0  0  0
 15  2  1  0  0  0  0
 15 16  1  0  0  0  0
 16 11  1  0  0  0  0
 17 20  1  0  0  0  0
 17 19  1  0  0  0  0
 18 17  2  0  0  0  0
 21  6  1  0  0  0  0
 21 23  1  0  0  0  0
 23 22  1  6  0  0  0
 23 24  1  0  0  0  0
 24 30  1  0  0  0  0
 25 27  1  0  0  0  0
 25 31  1  0  0  0  0
 26 31  2  0  0  0  0
 28 25  2  0  0  0  0
 29 26  1  0  0  0  0
 30 28  1  0  0  0  0
 30 29  2  0  0  0  0
M  END
>  <MODEL>
8

>  <REMARK>
 VINA RESULT:      -7.2      2.205      7.141
  Name = 
  5 active torsions:
  status: ('A' for Active; 'I' for Inactive)
    1  A    between atoms: C_3  and  C_9
    2  A    between atoms: C_3  and  C_22
    3  A    between atoms: C_9  and  C_23
    4  A    between atoms: C_12  and  N_25
    5  A    between atoms: C_15  and  C_23
                            x       y       z     vdW  Elec       q    Type
                         _______ _______ _______ _____ _____    ______ ____

>  <TORSDO>
F 5

$$$$
=
 OpenBabel11052417443D

 31 35  0  0  1  0  0  0  0  0999 V2000
  187.5380  176.1070  144.1500 C   0  0  0  0  0  0  0  0  0  0  0  0
  186.7620  176.8250  145.1150 C   0  0  0  0  0  0  0  0  0  0  0  0
  184.6250  178.2320  145.6070 C   0  0  0  0  0  2  0  0  0  0  0  0
  187.2110  176.1310  142.7210 C   0  0  0  0  0  0  0  0  0  0  0  0
  185.6930  177.7870  144.6200 C   0  0  0  0  0  2  0  0  0  0  0  0
  189.5960  174.5780  143.8040 C   0  0  0  0  0  0  0  0  0  0  0  0
  188.2070  175.9710  146.8850 C   0  0  0  0  0  3  0  0  0  0  0  0
  185.2050  179.1590  146.5470 N   0  0  0  0  0  0  0  0  0  0  0  0
  189.2290  174.6630  142.5070 C   0  0  0  0  0  0  0  0  0  0  0  0
  188.7070  175.3290  144.6560 C   0  0  0  0  0  0  0  0  0  0  0  0
  186.0000  178.7560  147.4700 C   0  0  0  0  0  3  0  0  0  0  0  0
  188.9400  174.6820  141.1370 C   0  0  0  0  0  2  0  0  0  0  0  0
  188.0950  175.4020  141.9910 C   0  0  0  0  0  0  0  0  0  0  0  0
  188.9660  175.3130  145.9850 N   0  0  0  0  0  0  0  0  0  0  0  0
  187.1150  176.7340  146.4940 C   0  0  0  0  0  0  0  0  0  0  0  0
  186.3170  177.3020  147.6320 C   0  0  0  0  0  2  0  0  0  0  0  0
  186.0840  177.6450  140.9830 C   0  0  0  0  0  0  0  0  0  0  0  0
  187.1460  177.8790  140.3480 O   0  0  0  0  0  0  0  0  0  0  0  0
  184.8640  178.2290  140.5430 N   0  0  0  0  0  1  0  0  0  0  0  0
  186.0800  176.8000  142.1400 N   0  0  0  0  0  2  0  0  0  0  0  0
  190.7740  173.7770  144.2810 C   0  0  0  0  0  2  0  0  0  0  0  0
  191.8940  175.9900  143.7960 C   0  0  0  0  0  1  0  0  0  0  0  0
  192.0830  174.5770  144.3190 C   0  0  1  0  0  3  0  0  0  0  0  0
  192.7150  174.6070  145.7070 C   0  0  0  0  0  2  0  0  0  0  0  0
  195.4790  172.0300  145.5970 C   0  0  0  0  0  0  0  0  0  0  0  0
  196.4730  174.1850  145.6960 C   0  0  0  0  0  3  0  0  0  0  0  0
  195.6350  170.5550  145.5210 C   0  0  0  0  0  1  0  0  0  0  0  0
  194.2010  172.5950  145.6250 C   0  0  0  0  0  3  0  0  0  0  0  0
  195.2130  174.7880  145.7260 C   0  0  0  0  0  3  0  0  0  0  0  0
  194.0700  173.9840  145.6930 C   0  0  0  0  0  0  0  0  0  0  0  0
  196.5790  172.8300  145.6330 N   0  0  0  0  0  0  0  0  0  0  0  0
  1 10  1  0  0  0  0
  1  2  2  0  0  0  0
  2 15  1  0  0  0  0
  3  8  1  0  0  0  0
  4  1  1  0  0  0  0
  5  2  1  0  0  0  0
  5  3  1  0  0  0  0
  6 21  1  0  0  0  0
  6 10  1  0  0  0  0
  8 11  2  0  0  0  0
  9  6  2  0  0  0  0
 10 14  2  0  0  0  0
 11 16  1  0  0  0  0
 12 13  1  0  0  0  0
 12  9  1  0  0  0  0
 13  9  1  0  0  0  0
 13  4  2  0  0  0  0
 14  7  1  0  0  0  0
 15  7  2  0  0  0  0
 15 16  1  0  0  0  0
 17 20  1  0  0  0  0
 18 17  2  0  0  0  0
 19 17  1  0  0  0  0
 20  4  1  0  0  0  0
 21 23  1  0  0  0  0
 23 22  1  1  0  0  0
 23 24  1  0  0  0  0
 25 28  2  0  0  0  0
 25 31  1  0  0  0  0
 26 29  1  0  0  0  0
 27 25  1  0  0  0  0
 28 30  1  0  0  0  0
 30 24  1  0  0  0  0
 30 29  2  0  0  0  0
 31 26  2  0  0  0  0
M  END
>  <MODEL>
9

>  <REMARK>
 VINA RESULT:      -7.2      2.403      3.121
  Name = 
  5 active torsions:
  status: ('A' for Active; 'I' for Inactive)
    1  A    between atoms: C_3  and  C_9
    2  A    between atoms: C_3  and  C_22
    3  A    between atoms: C_9  and  C_23
    4  A    between atoms: C_12  and  N_25
    5  A    between atoms: C_15  and  C_23
                            x       y       z     vdW  Elec       q    Type
                         _______ _______ _______ _____ _____    ______ ____

>  <TORSDO>
F 5

$$$$
