=
 OpenBabel11052418213D

 27 31  0  0  1  0  0  0  0  0999 V2000
  187.6230  177.8170  144.3710 N   0  0  2  0  0  0  0  0  0  0  0  0
  188.2160  175.9200  143.2110 C   0  0  0  0  0  0  0  0  0  0  0  0
  186.9140  177.8380  143.0480 C   0  0  1  0  0  3  0  0  0  0  0  0
  188.0750  174.7850  139.1960 C   0  0  0  0  0  3  0  0  0  0  0  0
  187.3180  175.1850  136.9410 O   0  0  0  0  0  1  0  0  0  0  0  0
  188.8960  174.7620  142.8190 C   0  0  0  0  0  3  0  0  0  0  0  0
  186.7610  177.1210  140.0350 C   0  0  0  0  0  3  0  0  0  0  0  0
  183.2000  178.3670  142.9070 O   0  0  0  0  0  1  0  0  0  0  0  0
  186.7140  176.7300  138.6940 C   0  0  0  0  0  3  0  0  0  0  0  0
  184.5460  179.3950  144.5900 C   0  0  0  0  0  2  0  0  0  0  0  0
  187.5370  176.6950  142.3160 C   0  0  0  0  0  0  0  0  0  0  0  0
  188.2040  176.5320  144.4910 N   0  0  0  0  0  0  0  0  0  0  0  0
  187.3690  175.5660  138.2750 C   0  0  0  0  0  0  0  0  0  0  0  0
  188.1280  175.1640  140.5400 C   0  0  0  0  0  0  0  0  0  0  0  0
  186.9190  178.2350  145.5990 C   0  0  0  0  0  2  0  0  0  0  0  0
  187.4640  176.3440  140.9630 C   0  0  0  0  0  0  0  0  0  0  0  0
  184.5100  178.7370  143.2100 C   0  0  1  0  0  3  0  0  0  0  0  0
  188.8400  174.3820  141.4680 C   0  0  0  0  0  3  0  0  0  0  0  0
  184.4220  178.4070  145.7610 C   0  0  0  0  0  2  0  0  0  0  0  0
  185.6300  177.4730  145.8830 C   0  0  0  0  0  2  0  0  0  0  0  0
  185.4140  177.5140  143.0990 C   0  0  0  0  0  2  0  0  0  0  0  0
  190.8260  175.4240  147.6450 C   0  0  0  0  0  3  0  0  0  0  0  0
  189.0900  176.1620  145.5650 C   0  0  0  0  0  0  0  0  0  0  0  0
  190.3600  176.7470  145.6740 C   0  0  0  0  0  3  0  0  0  0  0  0
  191.2240  176.3820  146.7100 C   0  0  0  0  0  3  0  0  0  0  0  0
  189.5650  174.8320  147.5440 C   0  0  0  0  0  3  0  0  0  0  0  0
  188.7020  175.1980  146.5090 C   0  0  0  0  0  3  0  0  0  0  0  0
  1 12  1  0  0  0  0
  1 15  1  1  0  0  0
  2 12  1  0  0  0  0
  3 21  1  1  0  0  0
  3  1  1  0  0  0  0
  4 14  1  0  0  0  0
  5 13  1  0  0  0  0
  6  2  1  0  0  0  0
  7 16  1  0  0  0  0
  9  7  2  0  0  0  0
 10 19  1  0  0  0  0
 11  3  1  0  0  0  0
 11  2  2  0  0  0  0
 12 23  1  0  0  0  0
 13  9  1  0  0  0  0
 13  4  2  0  0  0  0
 14 16  2  0  0  0  0
 14 18  1  0  0  0  0
 15 20  1  0  0  0  0
 16 11  1  0  0  0  0
 17  8  1  1  0  0  0
 17 10  1  0  0  0  0
 18  6  2  0  0  0  0
 19 20  1  0  0  0  0
 21 17  1  0  0  0  0
 23 24  2  0  0  0  0
 23 27  1  0  0  0  0
 24 25  1  0  0  0  0
 25 22  2  0  0  0  0
 26 22  1  0  0  0  0
 27 26  2  0  0  0  0
M  END
>  <MODEL>
1

>  <REMARK>
 VINA RESULT:      -8.5      0.000      0.000
  Name = 
  1 active torsions:
  status: ('A' for Active; 'I' for Inactive)
    1  A    between atoms: C_9  and  N_15
                            x       y       z     vdW  Elec       q    Type
                         _______ _______ _______ _____ _____    ______ ____

>  <TORSDO>
F 1

$$$$
=
 OpenBabel11052418213D

 27 31  0  0  1  0  0  0  0  0999 V2000
  188.4020  175.6660  145.9290 N   0  0  2  0  0  0  0  0  0  0  0  0
  188.0210  176.0510  143.6920 C   0  0  0  0  0  0  0  0  0  0  0  0
  189.4190  174.8920  145.1420 C   0  0  1  0  0  3  0  0  0  0  0  0
  189.1030  174.0990  140.1640 C   0  0  0  0  0  3  0  0  0  0  0  0
  190.4200  172.4300  139.0240 O   0  0  0  0  0  1  0  0  0  0  0  0
  187.4020  176.4350  142.4980 C   0  0  0  0  0  3  0  0  0  0  0  0
  190.2840  173.3440  142.5980 C   0  0  0  0  0  3  0  0  0  0  0  0
  193.0730  175.2290  145.9380 O   0  0  0  0  0  1  0  0  0  0  0  0
  190.6450  172.7000  141.4110 C   0  0  0  0  0  3  0  0  0  0  0  0
  191.4040  175.3890  147.6380 C   0  0  0  0  0  2  0  0  0  0  0  0
  188.9410  175.0440  143.7350 C   0  0  0  0  0  0  0  0  0  0  0  0
  187.7440  176.5130  145.0050 N   0  0  0  0  0  0  0  0  0  0  0  0
  190.0570  173.0750  140.1980 C   0  0  0  0  0  0  0  0  0  0  0  0
  188.7350  174.7510  141.3440 C   0  0  0  0  0  0  0  0  0  0  0  0
  188.7960  176.3750  147.1610 C   0  0  0  0  0  2  0  0  0  0  0  0
  189.3320  174.3690  142.5730 C   0  0  0  0  0  0  0  0  0  0  0  0
  191.7500  174.9000  146.2300 C   0  0  1  0  0  3  0  0  0  0  0  0
  187.7740  175.7790  141.3140 C   0  0  0  0  0  3  0  0  0  0  0  0
  191.1790  176.9060  147.7390 C   0  0  0  0  0  2  0  0  0  0  0  0
  189.9330  177.3760  146.9820 C   0  0  0  0  0  2  0  0  0  0  0  0
  190.8400  175.4740  145.1490 C   0  0  0  0  0  2  0  0  0  0  0  0
  184.3580  178.8810  145.9940 C   0  0  0  0  0  3  0  0  0  0  0  0
  186.5990  177.3180  145.3460 C   0  0  0  0  0  0  0  0  0  0  0  0
  185.5680  176.7910  146.1380 C   0  0  0  0  0  3  0  0  0  0  0  0
  184.4530  177.5690  146.4610 C   0  0  0  0  0  3  0  0  0  0  0  0
  185.3780  179.4160  145.2010 C   0  0  0  0  0  3  0  0  0  0  0  0
  186.4920  178.6370  144.8790 C   0  0  0  0  0  3  0  0  0  0  0  0
  1 15  1  1  0  0  0
  2 11  1  0  0  0  0
  2 12  1  0  0  0  0
  3 21  1  6  0  0  0
  3  1  1  0  0  0  0
  4 13  2  0  0  0  0
  4 14  1  0  0  0  0
  5 13  1  0  0  0  0
  6  2  2  0  0  0  0
  9  7  2  0  0  0  0
 10 19  1  0  0  0  0
 11  3  1  0  0  0  0
 12 23  1  0  0  0  0
 12  1  1  0  0  0  0
 13  9  1  0  0  0  0
 14 16  1  0  0  0  0
 16  7  1  0  0  0  0
 16 11  2  0  0  0  0
 17  8  1  6  0  0  0
 17 10  1  0  0  0  0
 18 14  2  0  0  0  0
 18  6  1  0  0  0  0
 20 15  1  0  0  0  0
 20 19  1  0  0  0  0
 21 17  1  0  0  0  0
 22 25  1  0  0  0  0
 23 24  1  0  0  0  0
 24 25  2  0  0  0  0
 26 22  2  0  0  0  0
 27 26  1  0  0  0  0
 27 23  2  0  0  0  0
M  END
>  <MODEL>
2

>  <REMARK>
 VINA RESULT:      -8.4      2.584      5.268
  Name = 
  1 active torsions:
  status: ('A' for Active; 'I' for Inactive)
    1  A    between atoms: C_9  and  N_15
                            x       y       z     vdW  Elec       q    Type
                         _______ _______ _______ _____ _____    ______ ____

>  <TORSDO>
F 1

$$$$
=
 OpenBabel11052418213D

 27 31  0  0  1  0  0  0  0  0999 V2000
  186.8960  176.7550  144.3300 N   0  0  2  0  0  0  0  0  0  0  0  0
  188.9900  177.2720  143.5310 C   0  0  0  0  0  0  0  0  0  0  0  0
  187.8420  176.8020  145.4950 C   0  0  1  0  0  3  0  0  0  0  0  0
  192.8700  176.8770  145.0240 C   0  0  0  0  0  3  0  0  0  0  0  0
  194.3580  176.4100  146.8640 O   0  0  0  0  0  1  0  0  0  0  0  0
  190.0670  177.4740  142.6600 C   0  0  0  0  0  3  0  0  0  0  0  0
  190.6690  176.4460  146.7160 C   0  0  0  0  0  3  0  0  0  0  0  0
  187.0210  178.8900  148.5050 O   0  0  0  0  0  1  0  0  0  0  0  0
  191.9720  176.3210  147.2090 C   0  0  0  0  0  3  0  0  0  0  0  0
  185.3140  177.8220  147.2220 C   0  0  0  0  0  2  0  0  0  0  0  0
  189.1770  176.9260  144.8380 C   0  0  0  0  0  0  0  0  0  0  0  0
  187.6060  177.2680  143.2190 N   0  0  0  0  0  0  0  0  0  0  0  0
  193.0680  176.5360  146.3660 C   0  0  0  0  0  0  0  0  0  0  0  0
  191.5730  177.0060  144.5200 C   0  0  0  0  0  0  0  0  0  0  0  0
  185.5420  177.3280  144.4470 C   0  0  0  0  0  2  0  0  0  0  0  0
  190.4620  176.7880  145.3750 C   0  0  0  0  0  0  0  0  0  0  0  0
  186.7970  177.8590  147.5940 C   0  0  1  0  0  3  0  0  0  0  0  0
  191.3690  177.3450  143.1690 C   0  0  0  0  0  3  0  0  0  0  0  0
  184.8810  178.9360  146.2560 C   0  0  0  0  0  2  0  0  0  0  0  0
  185.5060  178.7940  144.8640 C   0  0  0  0  0  2  0  0  0  0  0  0
  187.7190  178.0410  146.3930 C   0  0  0  0  0  2  0  0  0  0  0  0
  186.0930  177.2550  139.2490 C   0  0  0  0  0  3  0  0  0  0  0  0
  187.0880  177.2600  141.8750 C   0  0  0  0  0  0  0  0  0  0  0  0
  187.5630  176.3320  140.9350 C   0  0  0  0  0  3  0  0  0  0  0  0
  187.0670  176.3290  139.6280 C   0  0  0  0  0  3  0  0  0  0  0  0
  185.6160  178.1860  140.1760 C   0  0  0  0  0  3  0  0  0  0  0  0
  186.1120  178.1890  141.4820 C   0  0  0  0  0  3  0  0  0  0  0  0
  1 15  1  1  0  0  0
  1  3  1  0  0  0  0
  2 11  1  0  0  0  0
  3 21  1  1  0  0  0
  4 13  2  0  0  0  0
  6 18  1  0  0  0  0
  6  2  2  0  0  0  0
  7  9  2  0  0  0  0
 10 17  1  0  0  0  0
 11 16  2  0  0  0  0
 11  3  1  0  0  0  0
 12  2  1  0  0  0  0
 12  1  1  0  0  0  0
 13  5  1  0  0  0  0
 13  9  1  0  0  0  0
 14  4  1  0  0  0  0
 14 16  1  0  0  0  0
 15 20  1  0  0  0  0
 16  7  1  0  0  0  0
 17  8  1  1  0  0  0
 18 14  2  0  0  0  0
 19 10  1  0  0  0  0
 20 19  1  0  0  0  0
 21 17  1  0  0  0  0
 22 25  2  0  0  0  0
 22 26  1  0  0  0  0
 23 12  1  0  0  0  0
 24 23  2  0  0  0  0
 25 24  1  0  0  0  0
 26 27  2  0  0  0  0
 27 23  1  0  0  0  0
M  END
>  <MODEL>
3

>  <REMARK>
 VINA RESULT:      -7.8      3.029      6.150
  Name = 
  1 active torsions:
  status: ('A' for Active; 'I' for Inactive)
    1  A    between atoms: C_9  and  N_15
                            x       y       z     vdW  Elec       q    Type
                         _______ _______ _______ _____ _____    ______ ____

>  <TORSDO>
F 1

$$$$
=
 OpenBabel11052418213D

 27 31  0  0  1  0  0  0  0  0999 V2000
  188.2310  177.4260  144.0800 N   0  0  2  0  0  0  0  0  0  0  0  0
  188.8080  175.3370  143.3070 C   0  0  0  0  0  0  0  0  0  0  0  0
  187.5890  177.2310  142.7370 C   0  0  1  0  0  3  0  0  0  0  0  0
  188.8220  173.5090  139.5540 C   0  0  0  0  0  3  0  0  0  0  0  0
  188.1910  173.5220  137.2260 O   0  0  0  0  0  1  0  0  0  0  0  0
  189.4630  174.1090  143.1640 C   0  0  0  0  0  3  0  0  0  0  0  0
  187.5570  175.9930  139.8940 C   0  0  0  0  0  3  0  0  0  0  0  0
  183.9090  177.8310  142.3020 O   0  0  0  0  0  1  0  0  0  0  0  0
  187.5610  175.3710  138.6420 C   0  0  0  0  0  3  0  0  0  0  0  0
  185.2080  179.1040  143.8490 C   0  0  0  0  0  2  0  0  0  0  0  0
  188.2030  175.9580  142.2530 C   0  0  0  0  0  0  0  0  0  0  0  0
  188.7560  176.1670  144.4570 N   0  0  0  0  0  0  0  0  0  0  0  0
  188.1910  174.1330  138.4720 C   0  0  0  0  0  0  0  0  0  0  0  0
  188.8230  174.1200  140.8100 C   0  0  0  0  0  0  0  0  0  0  0  0
  187.4840  178.0750  145.1750 C   0  0  0  0  0  2  0  0  0  0  0  0
  188.1840  175.3750  140.9810 C   0  0  0  0  0  0  0  0  0  0  0  0
  185.2150  178.2110  142.6070 C   0  0  1  0  0  3  0  0  0  0  0  0
  189.4590  173.4960  141.9000 C   0  0  0  0  0  3  0  0  0  0  0  0
  184.9900  178.3440  145.1670 C   0  0  0  0  0  2  0  0  0  0  0  0
  186.1550  177.4120  145.5180 C   0  0  0  0  0  2  0  0  0  0  0  0
  186.0770  176.9630  142.7620 C   0  0  0  0  0  2  0  0  0  0  0  0
  191.1800  175.5660  147.8950 C   0  0  0  0  0  3  0  0  0  0  0  0
  189.5750  175.9690  145.6260 C   0  0  0  0  0  0  0  0  0  0  0  0
  190.8150  176.6140  145.7440 C   0  0  0  0  0  3  0  0  0  0  0  0
  191.6130  176.4150  146.8740 C   0  0  0  0  0  3  0  0  0  0  0  0
  189.9480  174.9150  147.7850 C   0  0  0  0  0  3  0  0  0  0  0  0
  189.1500  175.1150  146.6560 C   0  0  0  0  0  3  0  0  0  0  0  0
  1 12  1  0  0  0  0
  1 15  1  1  0  0  0
  2 12  1  0  0  0  0
  3 21  1  1  0  0  0
  3  1  1  0  0  0  0
  4 14  1  0  0  0  0
  5 13  1  0  0  0  0
  6  2  1  0  0  0  0
  7 16  1  0  0  0  0
  9  7  2  0  0  0  0
 10 19  1  0  0  0  0
 11  3  1  0  0  0  0
 11  2  2  0  0  0  0
 12 23  1  0  0  0  0
 13  9  1  0  0  0  0
 13  4  2  0  0  0  0
 14 16  2  0  0  0  0
 14 18  1  0  0  0  0
 15 20  1  0  0  0  0
 16 11  1  0  0  0  0
 17  8  1  1  0  0  0
 17 21  1  0  0  0  0
 17 10  1  0  0  0  0
 18  6  2  0  0  0  0
 19 20  1  0  0  0  0
 23 24  2  0  0  0  0
 23 27  1  0  0  0  0
 24 25  1  0  0  0  0
 25 22  2  0  0  0  0
 26 22  1  0  0  0  0
 27 26  2  0  0  0  0
M  END
>  <MODEL>
4

>  <REMARK>
 VINA RESULT:      -7.8      0.901      1.042
  Name = 
  1 active torsions:
  status: ('A' for Active; 'I' for Inactive)
    1  A    between atoms: C_9  and  N_15
                            x       y       z     vdW  Elec       q    Type
                         _______ _______ _______ _____ _____    ______ ____

>  <TORSDO>
F 1

$$$$
=
 OpenBabel11052418213D

 27 31  0  0  1  0  0  0  0  0999 V2000
  188.5230  176.5450  143.0370 N   0  0  2  0  0  0  0  0  0  0  0  0
  189.3620  176.3840  145.1740 C   0  0  0  0  0  0  0  0  0  0  0  0
  189.8810  175.9090  142.9590 C   0  0  1  0  0  3  0  0  0  0  0  0
  193.1790  175.8600  146.7840 C   0  0  0  0  0  3  0  0  0  0  0  0
  195.5130  175.3320  146.4850 O   0  0  0  0  0  1  0  0  0  0  0  0
  189.5410  176.5770  146.5480 C   0  0  0  0  0  3  0  0  0  0  0  0
  192.7660  175.5230  144.0260 C   0  0  0  0  0  3  0  0  0  0  0  0
  190.3440  172.6750  141.1100 O   0  0  0  0  0  1  0  0  0  0  0  0
  194.0390  175.3440  144.5740 C   0  0  0  0  0  3  0  0  0  0  0  0
  188.7350  174.2940  140.4110 C   0  0  0  0  0  2  0  0  0  0  0  0
  190.4010  176.0580  144.3510 C   0  0  0  0  0  0  0  0  0  0  0  0
  188.1840  176.5930  144.4110 N   0  0  0  0  0  0  0  0  0  0  0  0
  194.2460  175.5120  145.9480 C   0  0  0  0  0  0  0  0  0  0  0  0
  191.9010  176.0410  146.2480 C   0  0  0  0  0  0  0  0  0  0  0  0
  187.4160  176.0410  142.2020 C   0  0  0  0  0  2  0  0  0  0  0  0
  191.6930  175.8710  144.8550 C   0  0  0  0  0  0  0  0  0  0  0  0
  190.0080  174.0240  141.2140 C   0  0  1  0  0  3  0  0  0  0  0  0
  190.8260  176.3940  147.0840 C   0  0  0  0  0  3  0  0  0  0  0  0
  187.4480  173.7940  141.0860 C   0  0  0  0  0  2  0  0  0  0  0  0
  187.1150  174.5560  142.3730 C   0  0  0  0  0  2  0  0  0  0  0  0
  189.8860  174.3980  142.6870 C   0  0  0  0  0  2  0  0  0  0  0  0
  184.7160  178.5600  145.8790 C   0  0  0  0  0  3  0  0  0  0  0  0
  187.0120  177.2630  144.9140 C   0  0  0  0  0  0  0  0  0  0  0  0
  186.1070  176.5850  145.7440 C   0  0  0  0  0  3  0  0  0  0  0  0
  184.9650  177.2310  146.2260 C   0  0  0  0  0  3  0  0  0  0  0  0
  185.6090  179.2440  145.0500 C   0  0  0  0  0  3  0  0  0  0  0  0
  186.7510  178.5980  144.5690 C   0  0  0  0  0  3  0  0  0  0  0  0
  1 15  1  6  0  0  0
  1 12  1  0  0  0  0
  2  6  1  0  0  0  0
  3 21  1  1  0  0  0
  3  1  1  0  0  0  0
  3 11  1  0  0  0  0
  6 18  2  0  0  0  0
  7  9  2  0  0  0  0
  7 16  1  0  0  0  0
  9 13  1  0  0  0  0
 10 19  1  0  0  0  0
 10 17  1  0  0  0  0
 11 16  1  0  0  0  0
 11  2  2  0  0  0  0
 12 23  1  0  0  0  0
 12  2  1  0  0  0  0
 13  5  1  0  0  0  0
 13  4  2  0  0  0  0
 14  4  1  0  0  0  0
 14 18  1  0  0  0  0
 15 20  1  0  0  0  0
 16 14  2  0  0  0  0
 17  8  1  1  0  0  0
 17 21  1  0  0  0  0
 19 20  1  0  0  0  0
 22 25  1  0  0  0  0
 23 24  1  0  0  0  0
 24 25  2  0  0  0  0
 26 22  2  0  0  0  0
 27 23  2  0  0  0  0
 27 26  1  0  0  0  0
M  END
>  <MODEL>
5

>  <REMARK>
 VINA RESULT:      -7.4      3.090      6.576
  Name = 
  1 active torsions:
  status: ('A' for Active; 'I' for Inactive)
    1  A    between atoms: C_9  and  N_15
                            x       y       z     vdW  Elec       q    Type
                         _______ _______ _______ _____ _____    ______ ____

>  <TORSDO>
F 1

$$$$
=
 OpenBabel11052418213D

 27 31  0  0  1  0  0  0  0  0999 V2000
  190.5950  173.8160  143.0370 N   0  0  2  0  0  0  0  0  0  0  0  0
  190.2910  175.9380  143.8710 C   0  0  0  0  0  0  0  0  0  0  0  0
  189.2310  174.2890  142.6240 C   0  0  1  0  0  3  0  0  0  0  0  0
  186.9580  178.3500  144.5870 C   0  0  0  0  0  3  0  0  0  0  0  0
  184.5990  178.7790  144.3200 O   0  0  0  0  0  1  0  0  0  0  0  0
  190.4580  177.1050  144.6240 C   0  0  0  0  0  3  0  0  0  0  0  0
  186.6750  175.9750  143.1140 C   0  0  0  0  0  3  0  0  0  0  0  0
  188.1910  174.1220  139.0200 O   0  0  0  0  0  1  0  0  0  0  0  0
  185.5660  176.7910  143.3530 C   0  0  0  0  0  3  0  0  0  0  0  0
  189.6540  172.4950  139.9750 C   0  0  0  0  0  2  0  0  0  0  0  0
  189.0700  175.5590  143.3920 C   0  0  0  0  0  0  0  0  0  0  0  0
  191.2570  174.9390  143.5860 N   0  0  0  0  0  0  0  0  0  0  0  0
  185.7060  177.9740  144.0870 C   0  0  0  0  0  0  0  0  0  0  0  0
  188.0740  177.5430  144.3530 C   0  0  0  0  0  0  0  0  0  0  0  0
  191.4430  173.0700  142.0880 C   0  0  0  0  0  2  0  0  0  0  0  0
  187.9310  176.3430  143.6090 C   0  0  0  0  0  0  0  0  0  0  0  0
  188.6020  173.5740  140.2340 C   0  0  1  0  0  3  0  0  0  0  0  0
  189.3350  177.9150  144.8570 C   0  0  0  0  0  3  0  0  0  0  0  0
  191.0420  173.0450  139.6120 C   0  0  0  0  0  2  0  0  0  0  0  0
  191.7100  173.7900  140.7720 C   0  0  0  0  0  2  0  0  0  0  0  0
  189.0930  174.6920  141.1480 C   0  0  0  0  0  2  0  0  0  0  0  0
  195.0500  174.7330  145.4900 C   0  0  0  0  0  3  0  0  0  0  0  0
  192.5450  174.8640  144.2270 C   0  0  0  0  0  0  0  0  0  0  0  0
  192.7110  174.1170  145.4030 C   0  0  0  0  0  3  0  0  0  0  0  0
  193.9580  174.0500  146.0310 C   0  0  0  0  0  3  0  0  0  0  0  0
  194.8940  175.4840  144.3210 C   0  0  0  0  0  3  0  0  0  0  0  0
  193.6470  175.5490  143.6940 C   0  0  0  0  0  3  0  0  0  0  0  0
  1 15  1  6  0  0  0
  1 12  1  0  0  0  0
  2  6  1  0  0  0  0
  3 21  1  6  0  0  0
  3  1  1  0  0  0  0
  3 11  1  0  0  0  0
  6 18  2  0  0  0  0
  7  9  2  0  0  0  0
  7 16  1  0  0  0  0
  9 13  1  0  0  0  0
 10 17  1  0  0  0  0
 11 16  1  0  0  0  0
 11  2  2  0  0  0  0
 12  2  1  0  0  0  0
 12 23  1  0  0  0  0
 13  5  1  0  0  0  0
 13  4  2  0  0  0  0
 14  4  1  0  0  0  0
 14 18  1  0  0  0  0
 16 14  2  0  0  0  0
 17  8  1  6  0  0  0
 17 21  1  0  0  0  0
 19 10  1  0  0  0  0
 19 20  1  0  0  0  0
 20 15  1  0  0  0  0
 22 25  1  0  0  0  0
 23 24  1  0  0  0  0
 24 25  2  0  0  0  0
 26 22  2  0  0  0  0
 27 23  2  0  0  0  0
 27 26  1  0  0  0  0
M  END
>  <MODEL>
6

>  <REMARK>
 VINA RESULT:      -7.3      2.583      5.891
  Name = 
  1 active torsions:
  status: ('A' for Active; 'I' for Inactive)
    1  A    between atoms: C_9  and  N_15
                            x       y       z     vdW  Elec       q    Type
                         _______ _______ _______ _____ _____    ______ ____

>  <TORSDO>
F 1

$$$$
=
 OpenBabel11052418213D

 27 31  0  0  1  0  0  0  0  0999 V2000
  190.1850  177.0080  143.5170 N   0  0  2  0  0  0  0  0  0  0  0  0
  190.9200  174.8410  143.2780 C   0  0  0  0  0  0  0  0  0  0  0  0
  189.2990  176.3230  142.5180 C   0  0  1  0  0  3  0  0  0  0  0  0
  190.3950  171.8790  140.3820 C   0  0  0  0  0  3  0  0  0  0  0  0
  189.2610  171.0640  138.4150 O   0  0  0  0  0  1  0  0  0  0  0  0
  191.7240  173.6970  143.3360 C   0  0  0  0  0  3  0  0  0  0  0  0
  188.8360  174.2140  140.2920 C   0  0  0  0  0  3  0  0  0  0  0  0
  185.5690  176.4170  142.9300 O   0  0  0  0  0  1  0  0  0  0  0  0
  188.6630  173.2150  139.3300 C   0  0  0  0  0  3  0  0  0  0  0  0
  186.9480  178.2400  143.6180 C   0  0  0  0  0  2  0  0  0  0  0  0
  189.9960  175.0210  142.2900 C   0  0  0  0  0  0  0  0  0  0  0  0
  190.9880  175.9970  144.0970 N   0  0  0  0  0  0  0  0  0  0  0  0
  189.4390  172.0510  139.3740 C   0  0  0  0  0  0  0  0  0  0  0  0
  190.5760  172.8700  141.3500 C   0  0  0  0  0  0  0  0  0  0  0  0
  189.6060  177.9150  144.5270 C   0  0  0  0  0  2  0  0  0  0  0  0
  189.7890  174.0490  141.3040 C   0  0  0  0  0  0  0  0  0  0  0  0
  186.8260  176.9910  142.7440 C   0  0  1  0  0  3  0  0  0  0  0  0
  191.5390  172.7020  142.3630 C   0  0  0  0  0  3  0  0  0  0  0  0
  187.1660  177.9450  145.1100 C   0  0  0  0  0  2  0  0  0  0  0  0
  188.5210  177.2890  145.3960 C   0  0  0  0  0  2  0  0  0  0  0  0
  187.9000  175.9460  143.0270 C   0  0  0  0  0  2  0  0  0  0  0  0
  194.1900  176.7860  146.7770 C   0  0  0  0  0  3  0  0  0  0  0  0
  192.0710  176.2710  145.0070 C   0  0  0  0  0  0  0  0  0  0  0  0
  193.2870  176.7860  144.5320 C   0  0  0  0  0  3  0  0  0  0  0  0
  194.3410  177.0430  145.4130 C   0  0  0  0  0  3  0  0  0  0  0  0
  192.9840  176.2700  147.2600 C   0  0  0  0  0  3  0  0  0  0  0  0
  191.9310  176.0130  146.3790 C   0  0  0  0  0  3  0  0  0  0  0  0
  1 12  1  0  0  0  0
  1 15  1  1  0  0  0
  2  6  1  0  0  0  0
  2 12  1  0  0  0  0
  3 21  1  1  0  0  0
  3  1  1  0  0  0  0
  4 14  1  0  0  0  0
  5 13  1  0  0  0  0
  7 16  1  0  0  0  0
  9 13  1  0  0  0  0
  9  7  2  0  0  0  0
 10 19  1  0  0  0  0
 11  3  1  0  0  0  0
 11  2  2  0  0  0  0
 12 23  1  0  0  0  0
 13  4  2  0  0  0  0
 14 18  1  0  0  0  0
 15 20  1  0  0  0  0
 16 14  2  0  0  0  0
 16 11  1  0  0  0  0
 17  8  1  1  0  0  0
 17 21  1  0  0  0  0
 17 10  1  0  0  0  0
 18  6  2  0  0  0  0
 19 20  1  0  0  0  0
 22 26  1  0  0  0  0
 23 27  1  0  0  0  0
 24 23  2  0  0  0  0
 24 25  1  0  0  0  0
 25 22  2  0  0  0  0
 27 26  2  0  0  0  0
M  END
>  <MODEL>
7

>  <REMARK>
 VINA RESULT:      -7.2      2.340      3.333
  Name = 
  1 active torsions:
  status: ('A' for Active; 'I' for Inactive)
    1  A    between atoms: C_9  and  N_15
                            x       y       z     vdW  Elec       q    Type
                         _______ _______ _______ _____ _____    ______ ____

>  <TORSDO>
F 1

$$$$
=
 OpenBabel11052418213D

 27 31  0  0  1  0  0  0  0  0999 V2000
  189.9200  175.7100  142.7760 N   0  0  2  0  0  0  0  0  0  0  0  0
  191.5200  176.0200  144.4010 C   0  0  0  0  0  0  0  0  0  0  0  0
  191.2620  175.4210  142.1710 C   0  0  1  0  0  3  0  0  0  0  0  0
  195.6480  176.6400  144.3570 C   0  0  0  0  0  3  0  0  0  0  0  0
  197.7400  176.6650  143.1570 O   0  0  0  0  0  1  0  0  0  0  0  0
  192.1490  176.4160  145.5860 C   0  0  0  0  0  3  0  0  0  0  0  0
  194.3240  175.8820  142.0000 C   0  0  0  0  0  3  0  0  0  0  0  0
  191.8450  172.1970  140.3360 O   0  0  0  0  0  1  0  0  0  0  0  0
  195.7070  176.0860  141.9960 C   0  0  0  0  0  3  0  0  0  0  0  0
  189.7170  173.2790  140.3170 C   0  0  0  0  0  2  0  0  0  0  0  0
  192.2130  175.8590  143.2360 C   0  0  0  0  0  0  0  0  0  0  0  0
  190.1310  175.8410  144.1700 N   0  0  0  0  0  0  0  0  0  0  0  0
  196.3670  176.4640  143.1700 C   0  0  0  0  0  0  0  0  0  0  0  0
  194.2660  176.4380  144.3740 C   0  0  0  0  0  0  0  0  0  0  0  0
  188.7600  174.8550  142.4610 C   0  0  0  0  0  2  0  0  0  0  0  0
  193.5970  176.0550  143.1830 C   0  0  0  0  0  0  0  0  0  0  0  0
  191.2210  173.4260  140.5470 C   0  0  1  0  0  3  0  0  0  0  0  0
  193.5390  176.6170  145.5660 C   0  0  0  0  0  3  0  0  0  0  0  0
  188.9730  172.5660  141.4570 C   0  0  0  0  0  2  0  0  0  0  0  0
  188.9630  173.3740  142.7590 C   0  0  0  0  0  2  0  0  0  0  0  0
  191.5740  173.9340  141.9410 C   0  0  0  0  0  2  0  0  0  0  0  0
  187.0930  177.0670  146.8750 C   0  0  0  0  0  3  0  0  0  0  0  0
  189.1060  176.2610  145.0900 C   0  0  0  0  0  0  0  0  0  0  0  0
  188.8070  175.4890  146.2230 C   0  0  0  0  0  3  0  0  0  0  0  0
  187.8060  175.8910  147.1120 C   0  0  0  0  0  3  0  0  0  0  0  0
  187.3790  177.8420  145.7470 C   0  0  0  0  0  3  0  0  0  0  0  0
  188.3800  177.4390  144.8590 C   0  0  0  0  0  3  0  0  0  0  0  0
  1 15  1  1  0  0  0
  1 12  1  0  0  0  0
  2  6  1  0  0  0  0
  3 21  1  1  0  0  0
  3  1  1  0  0  0  0
  3 11  1  0  0  0  0
  4 14  1  0  0  0  0
  5 13  1  0  0  0  0
  7 16  1  0  0  0  0
  9  7  2  0  0  0  0
  9 13  1  0  0  0  0
 10 17  1  0  0  0  0
 10 19  1  0  0  0  0
 11  2  2  0  0  0  0
 12  2  1  0  0  0  0
 12 23  1  0  0  0  0
 13  4  2  0  0  0  0
 14 18  1  0  0  0  0
 15 20  1  0  0  0  0
 16 11  1  0  0  0  0
 16 14  2  0  0  0  0
 17  8  1  1  0  0  0
 17 21  1  0  0  0  0
 18  6  2  0  0  0  0
 19 20  1  0  0  0  0
 22 25  1  0  0  0  0
 23 24  1  0  0  0  0
 24 25  2  0  0  0  0
 26 22  2  0  0  0  0
 27 23  2  0  0  0  0
 27 26  1  0  0  0  0
M  END
>  <MODEL>
8

>  <REMARK>
 VINA RESULT:      -7.2      3.994      6.846
  Name = 
  1 active torsions:
  status: ('A' for Active; 'I' for Inactive)
    1  A    between atoms: C_9  and  N_15
                            x       y       z     vdW  Elec       q    Type
                         _______ _______ _______ _____ _____    ______ ____

>  <TORSDO>
F 1

$$$$
=
 OpenBabel11052418213D

 27 31  0  0  1  0  0  0  0  0999 V2000
  192.6760  175.8110  144.8090 N   0  0  2  0  0  0  0  0  0  0  0  0
  192.6090  173.9390  143.4730 C   0  0  0  0  0  0  0  0  0  0  0  0
  191.2710  175.6460  144.3080 C   0  0  1  0  0  3  0  0  0  0  0  0
  189.9830  172.5260  140.5510 C   0  0  0  0  0  3  0  0  0  0  0  0
  187.8620  172.6660  139.4100 O   0  0  0  0  0  1  0  0  0  0  0  0
  193.0110  172.8610  142.6770 C   0  0  0  0  0  3  0  0  0  0  0  0
  189.2470  174.7120  142.1530 C   0  0  0  0  0  3  0  0  0  0  0  0
  188.3960  175.6520  146.7220 O   0  0  0  0  0  1  0  0  0  0  0  0
  188.3710  174.2290  141.1760 C   0  0  0  0  0  3  0  0  0  0  0  0
  190.3530  176.9650  147.1060 C   0  0  0  0  0  2  0  0  0  0  0  0
  191.4010  174.5510  143.3000 C   0  0  0  0  0  0  0  0  0  0  0  0
  193.3680  174.6290  144.4540 N   0  0  0  0  0  0  0  0  0  0  0  0
  188.7370  173.1390  140.3770 C   0  0  0  0  0  0  0  0  0  0  0  0
  190.8660  172.9990  141.5250 C   0  0  0  0  0  0  0  0  0  0  0  0
  192.9260  176.2110  146.2070 C   0  0  0  0  0  2  0  0  0  0  0  0
  190.4940  174.1030  142.3330 C   0  0  0  0  0  0  0  0  0  0  0  0
  189.4980  176.2170  146.0820 C   0  0  1  0  0  3  0  0  0  0  0  0
  192.1210  172.3860  141.7000 C   0  0  0  0  0  3  0  0  0  0  0  0
  191.1910  176.0510  148.0130 C   0  0  0  0  0  2  0  0  0  0  0  0
  192.2890  175.3010  147.2520 C   0  0  0  0  0  2  0  0  0  0  0  0
  190.2610  175.1240  145.3400 C   0  0  0  0  0  2  0  0  0  0  0  0
  197.5520  174.1040  144.9770 C   0  0  0  0  0  3  0  0  0  0  0  0
  194.7860  174.4560  144.6360 C   0  0  0  0  0  0  0  0  0  0  0  0
  195.6980  175.1770  143.8500 C   0  0  0  0  0  3  0  0  0  0  0  0
  197.0750  175.0030  144.0210 C   0  0  0  0  0  3  0  0  0  0  0  0
  196.6530  173.3780  145.7630 C   0  0  0  0  0  3  0  0  0  0  0  0
  195.2770  173.5530  145.5920 C   0  0  0  0  0  3  0  0  0  0  0  0
  1 15  1  1  0  0  0
  2 12  1  0  0  0  0
  3  1  1  0  0  0  0
  3 21  1  1  0  0  0
  4 14  1  0  0  0  0
  5 13  1  0  0  0  0
  6  2  2  0  0  0  0
  7 16  1  0  0  0  0
  9  7  2  0  0  0  0
 10 19  1  0  0  0  0
 11  2  1  0  0  0  0
 11  3  1  0  0  0  0
 12 23  1  0  0  0  0
 12  1  1  0  0  0  0
 13  4  2  0  0  0  0
 13  9  1  0  0  0  0
 14 18  2  0  0  0  0
 14 16  1  0  0  0  0
 15 20  1  0  0  0  0
 16 11  2  0  0  0  0
 17  8  1  1  0  0  0
 17 10  1  0  0  0  0
 18  6  1  0  0  0  0
 20 19  1  0  0  0  0
 21 17  1  0  0  0  0
 22 26  1  0  0  0  0
 23 27  1  0  0  0  0
 24 25  1  0  0  0  0
 24 23  2  0  0  0  0
 25 22  2  0  0  0  0
 27 26  2  0  0  0  0
M  END
>  <MODEL>
9

>  <REMARK>
 VINA RESULT:      -7.0      3.893      5.603
  Name = 
  1 active torsions:
  status: ('A' for Active; 'I' for Inactive)
    1  A    between atoms: C_9  and  N_15
                            x       y       z     vdW  Elec       q    Type
                         _______ _______ _______ _____ _____    ______ ____

>  <TORSDO>
F 1

$$$$
