=
 OpenBabel11052417123D

 30 33  0  0  1  0  0  0  0  0999 V2000
  187.8420  176.1050  142.2720 C   0  0  1  0  0  3  0  0  0  0  0  0
  188.3080  174.7330  141.8310 C   0  0  0  0  0  0  0  0  0  0  0  0
  188.9020  176.7590  143.1620 C   0  0  0  0  0  2  0  0  0  0  0  0
  189.8420  173.8040  145.3120 C   0  0  0  0  0  2  0  0  0  0  0  0
  190.0040  172.1150  141.0240 C   0  0  1  0  0  3  0  0  0  0  0  0
  189.4190  174.5080  144.0750 C   0  0  0  0  0  0  0  0  0  0  0  0
  189.6450  176.2320  145.6400 C   0  0  0  0  0  2  0  0  0  0  0  0
  189.6850  172.7030  139.7150 N   0  0  0  0  0  0  0  0  0  0  0  0
  189.3190  175.8180  144.2540 C   0  0  0  0  0  0  0  0  0  0  0  0
  189.0830  173.8200  142.7750 C   0  0  2  0  0  3  0  0  0  0  0  0
  190.4260  172.0950  138.6310 C   0  0  0  0  0  2  0  0  0  0  0  0
  191.1750  171.1830  140.7700 C   0  0  0  0  0  2  0  0  0  0  0  0
  189.0170  174.6880  147.4860 C   0  0  0  0  0  1  0  0  0  0  0  0
  189.9890  174.9200  146.3470 C   0  0  1  0  0  3  0  0  0  0  0  0
  188.3420  174.3670  140.5890 C   0  0  0  0  0  0  0  0  0  0  0  0
  188.6920  173.7260  139.5260 C   0  0  0  0  0  0  0  0  0  0  0  0
  191.2230  170.9650  139.2630 C   0  0  0  0  0  2  0  0  0  0  0  0
  191.3900  174.1700  141.6920 C   0  0  0  0  0  1  0  0  0  0  0  0
  190.3420  173.1510  142.1370 C   0  0  2  0  0  3  0  0  0  0  0  0
  188.2690  174.1960  138.1760 C   0  0  0  0  0  2  0  0  0  0  0  0
  187.4170  175.2910  138.3050 O   0  0  0  0  0  1  0  0  0  0  0  0
  187.5770  176.9430  141.1700 O   0  0  0  0  0  0  0  0  0  0  0  0
  186.2460  177.4120  141.2440 C   0  0  2  0  0  3  0  0  0  0  0  0
  185.6510  177.7590  139.8840 C   0  0  0  0  0  1  0  0  0  0  0  0
  186.0460  178.5240  142.2730 C   0  0  0  0  0  2  0  0  0  0  0  0
  184.6580  178.4380  142.8880 C   0  0  0  0  0  2  0  0  0  0  0  0
  184.7140  178.7950  144.2970 N   0  0  0  0  0  2  0  0  0  0  0  0
  186.1190  178.8430  144.6760 C   0  0  0  0  0  2  0  0  0  0  0  0
  186.0140  176.6750  145.8960 C   0  0  0  0  0  1  0  0  0  0  0  0
  186.3180  178.1570  146.0150 C   0  0  0  0  0  2  0  0  0  0  0  0
  1 22  1  6  0  0  0
  1  3  1  0  0  0  0
  2  1  1  0  0  0  0
  3  9  1  0  0  0  0
  4 14  1  0  0  0  0
  5 12  1  6  0  0  0
  5 19  1  0  0  0  0
  6  9  2  0  0  0  0
  6  4  1  0  0  0  0
  7 14  1  0  0  0  0
  8  5  1  0  0  0  0
  9  7  1  0  0  0  0
 10  2  1  6  0  0  0
 10  6  1  0  0  0  0
 11 17  1  0  0  0  0
 11  8  1  0  0  0  0
 14 13  1  1  0  0  0
 15  2  2  0  0  0  0
 16  8  1  0  0  0  0
 16 15  2  0  0  0  0
 17 12  1  0  0  0  0
 19 18  1  6  0  0  0
 19 10  1  0  0  0  0
 20 21  1  0  0  0  0
 20 16  1  0  0  0  0
 22 23  1  0  0  0  0
 23 24  1  6  0  0  0
 23 25  1  0  0  0  0
 25 26  1  0  0  0  0
 26 27  1  0  0  0  0
 27 28  1  0  0  0  0
 28 30  1  0  0  0  0
 29 30  1  0  0  0  0
M  END
>  <MODEL>
1

>  <REMARK>
 VINA RESULT:      -6.6      0.000      0.000
  Name = 
  8 active torsions:
  status: ('A' for Active; 'I' for Inactive)
    1  A    between atoms: C_1  and  O_22
    2  A    between atoms: C_2  and  C_14
    3  A    between atoms: C_2  and  O_22
    4  A    between atoms: C_11  and  C_25
    5  A    between atoms: C_14  and  C_20
    6  A    between atoms: C_19  and  C_29
    7  A    between atoms: C_20  and  N_28
    8  A    between atoms: N_28  and  C_29
                            x       y       z     vdW  Elec       q    Type
                         _______ _______ _______ _____ _____    ______ ____

>  <TORSDO>
F 8

$$$$
=
 OpenBabel11052417123D

 30 33  0  0  1  0  0  0  0  0999 V2000
  187.5480  176.7500  142.7440 C   0  0  1  0  0  3  0  0  0  0  0  0
  188.4020  176.0280  143.7660 C   0  0  0  0  0  0  0  0  0  0  0  0
  187.2860  178.1870  143.1990 C   0  0  0  0  0  2  0  0  0  0  0  0
  186.5510  177.5760  146.8500 C   0  0  0  0  0  2  0  0  0  0  0  0
  190.4440  175.2140  146.1220 C   0  0  1  0  0  3  0  0  0  0  0  0
  187.2110  177.3550  145.5380 C   0  0  0  0  0  0  0  0  0  0  0  0
  185.7540  179.1390  145.1280 C   0  0  0  0  0  2  0  0  0  0  0  0
  191.2390  174.9650  144.9110 N   0  0  0  0  0  0  0  0  0  0  0  0
  186.7830  178.2030  144.6140 C   0  0  0  0  0  0  0  0  0  0  0  0
  188.2110  176.2590  145.2610 C   0  0  2  0  0  3  0  0  0  0  0  0
  192.6380  174.7270  145.1970 C   0  0  0  0  0  2  0  0  0  0  0  0
  191.4540  175.3230  147.2500 C   0  0  0  0  0  2  0  0  0  0  0  0
  184.1660  178.2840  146.8400 C   0  0  0  0  0  1  0  0  0  0  0  0
  185.5910  178.7390  146.5950 C   0  0  1  0  0  3  0  0  0  0  0  0
  189.5020  175.4160  143.4580 C   0  0  0  0  0  0  0  0  0  0  0  0
  190.6740  174.8960  143.5900 C   0  0  0  0  0  0  0  0  0  0  0  0
  192.7520  174.7330  146.7130 C   0  0  0  0  0  2  0  0  0  0  0  0
  190.2990  177.7230  145.6000 C   0  0  0  0  0  1  0  0  0  0  0  0
  189.5380  176.4790  146.0550 C   0  0  2  0  0  3  0  0  0  0  0  0
  191.4670  174.4850  142.3960 C   0  0  0  0  0  2  0  0  0  0  0  0
  190.6120  174.2650  141.3180 O   0  0  0  0  0  1  0  0  0  0  0  0
  188.1600  176.7670  141.4750 O   0  0  0  0  0  0  0  0  0  0  0  0
  187.2310  176.3490  140.4960 C   0  0  2  0  0  3  0  0  0  0  0  0
  187.7530  175.2270  139.6070 C   0  0  0  0  0  1  0  0  0  0  0  0
  186.6270  177.5010  139.6950 C   0  0  0  0  0  2  0  0  0  0  0  0
  185.1260  177.5830  139.9250 C   0  0  0  0  0  2  0  0  0  0  0  0
  184.8240  178.6320  140.8850 N   0  0  0  0  0  2  0  0  0  0  0  0
  183.6270  178.2270  141.6070 C   0  0  0  0  0  2  0  0  0  0  0  0
  181.2000  178.5780  141.1780 C   0  0  0  0  0  1  0  0  0  0  0  0
  182.4880  177.9920  140.6310 C   0  0  0  0  0  2  0  0  0  0  0  0
  1 22  1  6  0  0  0
  1  3  1  0  0  0  0
  1  2  1  0  0  0  0
  3  9  1  0  0  0  0
  5 12  1  1  0  0  0
  6  4  1  0  0  0  0
  7 14  1  0  0  0  0
  8 11  1  0  0  0  0
  8  5  1  0  0  0  0
  9  7  1  0  0  0  0
  9  6  2  0  0  0  0
 10  2  1  6  0  0  0
 10  6  1  0  0  0  0
 10 19  1  0  0  0  0
 11 17  1  0  0  0  0
 14 13  1  6  0  0  0
 14  4  1  0  0  0  0
 15 16  2  0  0  0  0
 15  2  2  0  0  0  0
 16  8  1  0  0  0  0
 17 12  1  0  0  0  0
 19 18  1  6  0  0  0
 19  5  1  0  0  0  0
 20 16  1  0  0  0  0
 21 20  1  0  0  0  0
 23 24  1  6  0  0  0
 23 22  1  0  0  0  0
 25 26  1  0  0  0  0
 25 23  1  0  0  0  0
 26 27  1  0  0  0  0
 27 28  1  0  0  0  0
 30 29  1  0  0  0  0
 30 28  1  0  0  0  0
M  END
>  <MODEL>
2

>  <REMARK>
 VINA RESULT:      -6.5      2.354      4.896
  Name = 
  8 active torsions:
  status: ('A' for Active; 'I' for Inactive)
    1  A    between atoms: C_1  and  O_22
    2  A    between atoms: C_2  and  C_14
    3  A    between atoms: C_2  and  O_22
    4  A    between atoms: C_11  and  C_25
    5  A    between atoms: C_14  and  C_20
    6  A    between atoms: C_19  and  C_29
    7  A    between atoms: C_20  and  N_28
    8  A    between atoms: N_28  and  C_29
                            x       y       z     vdW  Elec       q    Type
                         _______ _______ _______ _____ _____    ______ ____

>  <TORSDO>
F 8

$$$$
=
 OpenBabel11052417123D

 30 33  0  0  1  0  0  0  0  0999 V2000
  187.9350  177.4510  145.8850 C   0  0  1  0  0  3  0  0  0  0  0  0
  189.4210  177.3510  145.6070 C   0  0  0  0  0  0  0  0  0  0  0  0
  187.1850  176.3460  145.1380 C   0  0  0  0  0  2  0  0  0  0  0  0
  188.9600  176.5060  141.8120 C   0  0  0  0  0  2  0  0  0  0  0  0
  192.4090  176.3920  144.8710 C   0  0  1  0  0  3  0  0  0  0  0  0
  188.8250  176.5840  143.2880 C   0  0  0  0  0  0  0  0  0  0  0  0
  186.6680  176.0400  142.5660 C   0  0  0  0  0  2  0  0  0  0  0  0
  192.4290  176.3960  146.3410 N   0  0  0  0  0  0  0  0  0  0  0  0
  187.5900  176.3270  143.6920 C   0  0  0  0  0  0  0  0  0  0  0  0
  189.9440  176.9670  144.2270 C   0  0  2  0  0  3  0  0  0  0  0  0
  193.6030  175.7520  146.8880 C   0  0  0  0  0  2  0  0  0  0  0  0
  193.5750  175.5140  144.4560 C   0  0  0  0  0  2  0  0  0  0  0  0
  187.0330  177.2650  140.4330 C   0  0  0  0  0  1  0  0  0  0  0  0
  187.5530  176.1560  141.3250 C   0  0  1  0  0  3  0  0  0  0  0  0
  190.3110  177.2940  146.5480 C   0  0  0  0  0  0  0  0  0  0  0  0
  191.4220  177.0340  147.1470 C   0  0  0  0  0  0  0  0  0  0  0  0
  194.4590  175.3760  145.6890 C   0  0  0  0  0  2  0  0  0  0  0  0
  190.6140  174.5570  144.8270 C   0  0  0  0  0  1  0  0  0  0  0  0
  191.0760  175.8900  144.2410 C   0  0  2  0  0  3  0  0  0  0  0  0
  191.5430  177.1670  148.6270 C   0  0  0  0  0  2  0  0  0  0  0  0
  190.8480  178.2970  149.0550 O   0  0  0  0  0  1  0  0  0  0  0  0
  187.6570  177.3540  147.2630 O   0  0  0  0  0  0  0  0  0  0  0  0
  186.7670  178.3850  147.6380 C   0  0  2  0  0  3  0  0  0  0  0  0
  187.3050  179.2710  148.7560 C   0  0  0  0  0  1  0  0  0  0  0  0
  185.3450  177.8970  147.9100 C   0  0  0  0  0  2  0  0  0  0  0  0
  184.3510  178.6310  147.0230 C   0  0  0  0  0  2  0  0  0  0  0  0
  184.2780  177.9910  145.7200 N   0  0  0  0  0  2  0  0  0  0  0  0
  184.0670  179.0410  144.7340 C   0  0  0  0  0  2  0  0  0  0  0  0
  185.9410  179.4160  143.1380 C   0  0  0  0  0  1  0  0  0  0  0  0
  185.3630  179.7910  144.4900 C   0  0  0  0  0  2  0  0  0  0  0  0
  1 22  1  1  0  0  0
  2  1  1  0  0  0  0
  2 15  2  0  0  0  0
  3  1  1  0  0  0  0
  4  6  1  0  0  0  0
  5 12  1  6  0  0  0
  5  8  1  0  0  0  0
  6  9  2  0  0  0  0
  7  9  1  0  0  0  0
  8 11  1  0  0  0  0
  8 16  1  0  0  0  0
  9  3  1  0  0  0  0
 10  6  1  6  0  0  0
 10 19  1  0  0  0  0
 10  2  1  0  0  0  0
 12 17  1  0  0  0  0
 14 13  1  6  0  0  0
 14  4  1  0  0  0  0
 14  7  1  0  0  0  0
 15 16  2  0  0  0  0
 16 20  1  0  0  0  0
 17 11  1  0  0  0  0
 19 18  1  1  0  0  0
 19  5  1  0  0  0  0
 20 21  1  0  0  0  0
 22 23  1  0  0  0  0
 23 25  1  0  0  0  0
 23 24  1  1  0  0  0
 26 25  1  0  0  0  0
 27 26  1  0  0  0  0
 28 27  1  0  0  0  0
 29 30  1  0  0  0  0
 30 28  1  0  0  0  0
M  END
>  <MODEL>
3

>  <REMARK>
 VINA RESULT:      -6.4      3.673      6.208
  Name = 
  8 active torsions:
  status: ('A' for Active; 'I' for Inactive)
    1  A    between atoms: C_1  and  O_22
    2  A    between atoms: C_2  and  C_14
    3  A    between atoms: C_2  and  O_22
    4  A    between atoms: C_11  and  C_25
    5  A    between atoms: C_14  and  C_20
    6  A    between atoms: C_19  and  C_29
    7  A    between atoms: C_20  and  N_28
    8  A    between atoms: N_28  and  C_29
                            x       y       z     vdW  Elec       q    Type
                         _______ _______ _______ _____ _____    ______ ____

>  <TORSDO>
F 8

$$$$
=
 OpenBabel11052417123D

 30 33  0  0  1  0  0  0  0  0999 V2000
  188.6880  175.8090  142.9040 C   0  0  1  0  0  3  0  0  0  0  0  0
  189.1060  174.3620  142.7420 C   0  0  0  0  0  0  0  0  0  0  0  0
  189.9010  176.6690  143.2660 C   0  0  0  0  0  2  0  0  0  0  0  0
  191.5520  174.4130  145.7990 C   0  0  0  0  0  2  0  0  0  0  0  0
  190.6910  171.6000  142.2470 C   0  0  1  0  0  3  0  0  0  0  0  0
  190.7770  174.7520  144.5790 C   0  0  0  0  0  0  0  0  0  0  0  0
  191.2970  176.8390  145.5000 C   0  0  0  0  0  2  0  0  0  0  0  0
  190.0050  171.8070  140.9640 N   0  0  0  0  0  0  0  0  0  0  0  0
  190.6460  176.0610  144.4180 C   0  0  0  0  0  0  0  0  0  0  0  0
  190.1560  173.7350  143.6530 C   0  0  2  0  0  3  0  0  0  0  0  0
  190.4720  170.9130  139.9270 C   0  0  0  0  0  2  0  0  0  0  0  0
  191.8100  170.6190  141.9500 C   0  0  0  0  0  2  0  0  0  0  0  0
  191.2710  175.8750  147.7920 C   0  0  0  0  0  1  0  0  0  0  0  0
  191.8950  175.7690  146.4160 C   0  0  1  0  0  3  0  0  0  0  0  0
  188.8370  173.6660  141.6820 C   0  0  0  0  0  0  0  0  0  0  0  0
  188.9350  172.7510  140.7790 C   0  0  0  0  0  0  0  0  0  0  0  0
  191.4750  169.9920  140.6020 C   0  0  0  0  0  2  0  0  0  0  0  0
  192.0730  173.7410  141.9380 C   0  0  0  0  0  1  0  0  0  0  0  0
  191.2440  172.8990  142.9060 C   0  0  2  0  0  3  0  0  0  0  0  0
  188.1450  172.8340  139.5170 C   0  0  0  0  0  2  0  0  0  0  0  0
  188.4190  174.0390  138.8710 O   0  0  0  0  0  1  0  0  0  0  0  0
  188.0920  176.3120  141.7300 O   0  0  0  0  0  0  0  0  0  0  0  0
  186.8570  176.9190  142.0500 C   0  0  2  0  0  3  0  0  0  0  0  0
  186.9430  178.4360  142.1740 C   0  0  0  0  0  1  0  0  0  0  0  0
  186.1480  176.2720  143.2390 C   0  0  0  0  0  2  0  0  0  0  0  0
  185.5030  177.3330  144.1170 C   0  0  0  0  0  2  0  0  0  0  0  0
  185.5070  176.9010  145.5060 N   0  0  0  0  0  2  0  0  0  0  0  0
  186.2620  177.8880  146.2630 C   0  0  0  0  0  2  0  0  0  0  0  0
  187.8300  176.0230  146.7740 C   0  0  0  0  0  1  0  0  0  0  0  0
  187.7200  177.4750  146.3450 C   0  0  0  0  0  2  0  0  0  0  0  0
  1 22  1  6  0  0  0
  1  3  1  0  0  0  0
  2  1  1  0  0  0  0
  3  9  1  0  0  0  0
  4 14  1  0  0  0  0
  5 12  1  6  0  0  0
  5 19  1  0  0  0  0
  6  4  1  0  0  0  0
  7 14  1  0  0  0  0
  8  5  1  0  0  0  0
  9  6  2  0  0  0  0
  9  7  1  0  0  0  0
 10  2  1  6  0  0  0
 10  6  1  0  0  0  0
 11 17  1  0  0  0  0
 11  8  1  0  0  0  0
 14 13  1  1  0  0  0
 15  2  2  0  0  0  0
 16  8  1  0  0  0  0
 16 15  2  0  0  0  0
 17 12  1  0  0  0  0
 19 18  1  6  0  0  0
 19 10  1  0  0  0  0
 20 16  1  0  0  0  0
 21 20  1  0  0  0  0
 22 23  1  0  0  0  0
 23 24  1  1  0  0  0
 23 25  1  0  0  0  0
 25 26  1  0  0  0  0
 26 27  1  0  0  0  0
 27 28  1  0  0  0  0
 28 30  1  0  0  0  0
 30 29  1  0  0  0  0
M  END
>  <MODEL>
4

>  <REMARK>
 VINA RESULT:      -6.3      1.457      1.718
  Name = 
  8 active torsions:
  status: ('A' for Active; 'I' for Inactive)
    1  A    between atoms: C_1  and  O_22
    2  A    between atoms: C_2  and  C_14
    3  A    between atoms: C_2  and  O_22
    4  A    between atoms: C_11  and  C_25
    5  A    between atoms: C_14  and  C_20
    6  A    between atoms: C_19  and  C_29
    7  A    between atoms: C_20  and  N_28
    8  A    between atoms: N_28  and  C_29
                            x       y       z     vdW  Elec       q    Type
                         _______ _______ _______ _____ _____    ______ ____

>  <TORSDO>
F 8

$$$$
=
 OpenBabel11052417123D

 30 33  0  0  1  0  0  0  0  0999 V2000
  189.9240  175.7810  143.3800 C   0  0  1  0  0  3  0  0  0  0  0  0
  188.9140  176.8950  143.5660 C   0  0  0  0  0  0  0  0  0  0  0  0
  189.9510  174.8830  144.6190 C   0  0  0  0  0  2  0  0  0  0  0  0
  189.8450  177.5170  147.3190 C   0  0  0  0  0  2  0  0  0  0  0  0
  186.4450  178.7610  144.4630 C   0  0  1  0  0  3  0  0  0  0  0  0
  189.5370  176.9030  146.0030 C   0  0  0  0  0  0  0  0  0  0  0  0
  190.8980  175.3130  147.0460 C   0  0  0  0  0  2  0  0  0  0  0  0
  185.9830  178.2180  143.1770 N   0  0  0  0  0  0  0  0  0  0  0  0
  190.1010  175.7120  145.8610 C   0  0  0  0  0  0  0  0  0  0  0  0
  188.7250  177.5710  144.9200 C   0  0  2  0  0  3  0  0  0  0  0  0
  184.5810  178.4770  142.9300 C   0  0  0  0  0  2  0  0  0  0  0  0
  185.1900  179.2430  145.1680 C   0  0  0  0  0  2  0  0  0  0  0  0
  192.0980  177.1010  148.2890 C   0  0  0  0  0  1  0  0  0  0  0  0
  190.7400  176.4880  148.0120 C   0  0  1  0  0  3  0  0  0  0  0  0
  187.9730  177.1420  142.7110 C   0  0  0  0  0  0  0  0  0  0  0  0
  186.8500  177.5600  142.2360 C   0  0  0  0  0  0  0  0  0  0  0  0
  184.1100  179.3290  144.0970 C   0  0  0  0  0  2  0  0  0  0  0  0
  186.5030  176.4200  145.5150 C   0  0  0  0  0  1  0  0  0  0  0  0
  187.2330  177.7510  145.3490 C   0  0  2  0  0  3  0  0  0  0  0  0
  186.3990  177.1600  140.8720 C   0  0  0  0  0  2  0  0  0  0  0  0
  187.3960  176.4090  140.2510 O   0  0  0  0  0  1  0  0  0  0  0  0
  189.6310  175.0000  142.2440 O   0  0  0  0  0  0  0  0  0  0  0  0
  190.8360  174.5510  141.6570 C   0  0  2  0  0  3  0  0  0  0  0  0
  190.9910  173.0350  141.6770 C   0  0  0  0  0  1  0  0  0  0  0  0
  192.0760  175.2750  142.1770 C   0  0  0  0  0  2  0  0  0  0  0  0
  193.1170  174.2750  142.6540 C   0  0  0  0  0  2  0  0  0  0  0  0
  194.1010  174.9400  143.4940 N   0  0  0  0  0  2  0  0  0  0  0  0
  193.5510  176.2380  143.8580 C   0  0  0  0  0  2  0  0  0  0  0  0
  194.5170  175.3890  145.9900 C   0  0  0  0  0  1  0  0  0  0  0  0
  193.9930  176.6120  145.2610 C   0  0  0  0  0  2  0  0  0  0  0  0
  1 22  1  6  0  0  0
  1  2  1  0  0  0  0
  1  3  1  0  0  0  0
  3  9  1  0  0  0  0
  4 14  1  0  0  0  0
  5 12  1  1  0  0  0
  5 19  1  0  0  0  0
  6  4  1  0  0  0  0
  7 14  1  0  0  0  0
  8  5  1  0  0  0  0
  9  6  2  0  0  0  0
  9  7  1  0  0  0  0
 10  2  1  6  0  0  0
 10 19  1  0  0  0  0
 10  6  1  0  0  0  0
 11  8  1  0  0  0  0
 11 17  1  0  0  0  0
 14 13  1  6  0  0  0
 15  2  2  0  0  0  0
 16 15  2  0  0  0  0
 16  8  1  0  0  0  0
 17 12  1  0  0  0  0
 19 18  1  6  0  0  0
 20 16  1  0  0  0  0
 21 20  1  0  0  0  0
 23 24  1  1  0  0  0
 23 25  1  0  0  0  0
 23 22  1  0  0  0  0
 25 26  1  0  0  0  0
 26 27  1  0  0  0  0
 27 28  1  0  0  0  0
 28 30  1  0  0  0  0
 30 29  1  0  0  0  0
M  END
>  <MODEL>
5

>  <REMARK>
 VINA RESULT:      -6.3      2.256      6.470
  Name = 
  8 active torsions:
  status: ('A' for Active; 'I' for Inactive)
    1  A    between atoms: C_1  and  O_22
    2  A    between atoms: C_2  and  C_14
    3  A    between atoms: C_2  and  O_22
    4  A    between atoms: C_11  and  C_25
    5  A    between atoms: C_14  and  C_20
    6  A    between atoms: C_19  and  C_29
    7  A    between atoms: C_20  and  N_28
    8  A    between atoms: N_28  and  C_29
                            x       y       z     vdW  Elec       q    Type
                         _______ _______ _______ _____ _____    ______ ____

>  <TORSDO>
F 8

$$$$
=
 OpenBabel11052417123D

 30 33  0  0  1  0  0  0  0  0999 V2000
  188.0730  175.7660  141.9710 C   0  0  1  0  0  3  0  0  0  0  0  0
  189.1870  175.9100  142.9880 C   0  0  0  0  0  0  0  0  0  0  0  0
  188.0100  174.3250  141.4600 C   0  0  0  0  0  2  0  0  0  0  0  0
  191.6940  173.6470  141.0060 C   0  0  0  0  0  2  0  0  0  0  0  0
  191.4430  175.4500  145.2430 C   0  0  1  0  0  3  0  0  0  0  0  0
  190.4860  174.2300  141.6400 C   0  0  0  0  0  0  0  0  0  0  0  0
  189.6250  172.9860  139.8560 C   0  0  0  0  0  2  0  0  0  0  0  0
  190.3230  175.9990  146.0200 N   0  0  0  0  0  0  0  0  0  0  0  0
  189.3710  173.8670  141.0220 C   0  0  0  0  0  0  0  0  0  0  0  0
  190.5120  175.1730  142.8180 C   0  0  2  0  0  3  0  0  0  0  0  0
  190.5230  175.8850  147.4490 C   0  0  0  0  0  2  0  0  0  0  0  0
  192.3410  174.7690  146.2590 C   0  0  0  0  0  2  0  0  0  0  0  0
  191.6900  173.3880  138.5310 C   0  0  0  0  0  1  0  0  0  0  0  0
  191.1460  172.8330  139.8320 C   0  0  1  0  0  3  0  0  0  0  0  0
  189.0020  176.4060  144.1700 C   0  0  0  0  0  0  0  0  0  0  0  0
  189.1830  176.6440  145.4240 C   0  0  0  0  0  0  0  0  0  0  0  0
  191.9140  175.2990  147.6220 C   0  0  0  0  0  2  0  0  0  0  0  0
  190.0770  173.3730  144.6030 C   0  0  0  0  0  1  0  0  0  0  0  0
  191.0270  174.4640  144.1110 C   0  0  2  0  0  3  0  0  0  0  0  0
  188.1370  177.3350  146.2310 C   0  0  0  0  0  2  0  0  0  0  0  0
  187.1620  176.4180  146.6190 O   0  0  0  0  0  1  0  0  0  0  0  0
  186.8240  176.1230  142.5160 O   0  0  0  0  0  0  0  0  0  0  0  0
  186.2350  177.1350  141.7250 C   0  0  2  0  0  3  0  0  0  0  0  0
  187.0640  177.5040  140.5010 C   0  0  0  0  0  1  0  0  0  0  0  0
  185.7940  178.3580  142.5260 C   0  0  0  0  0  2  0  0  0  0  0  0
  184.2970  178.3120  142.7910 C   0  0  0  0  0  2  0  0  0  0  0  0
  183.9900  178.9830  144.0430 N   0  0  0  0  0  2  0  0  0  0  0  0
  185.2530  179.4260  144.6170 C   0  0  0  0  0  2  0  0  0  0  0  0
  184.1910  178.2900  146.5610 C   0  0  0  0  0  1  0  0  0  0  0  0
  185.1910  179.3470  146.1310 C   0  0  0  0  0  2  0  0  0  0  0  0
  1 22  1  1  0  0  0
  1  2  1  0  0  0  0
  2 15  2  0  0  0  0
  3  1  1  0  0  0  0
  4  6  1  0  0  0  0
  5  8  1  0  0  0  0
  5 12  1  1  0  0  0
  7  9  1  0  0  0  0
  8 11  1  0  0  0  0
  9  3  1  0  0  0  0
  9  6  2  0  0  0  0
 10  6  1  6  0  0  0
 10  2  1  0  0  0  0
 10 19  1  0  0  0  0
 11 17  1  0  0  0  0
 12 17  1  0  0  0  0
 14 13  1  6  0  0  0
 14  7  1  0  0  0  0
 14  4  1  0  0  0  0
 15 16  2  0  0  0  0
 16  8  1  0  0  0  0
 16 20  1  0  0  0  0
 19 18  1  1  0  0  0
 19  5  1  0  0  0  0
 20 21  1  0  0  0  0
 23 24  1  6  0  0  0
 23 22  1  0  0  0  0
 23 25  1  0  0  0  0
 25 26  1  0  0  0  0
 26 27  1  0  0  0  0
 27 28  1  0  0  0  0
 28 30  1  0  0  0  0
 30 29  1  0  0  0  0
M  END
>  <MODEL>
6

>  <REMARK>
 VINA RESULT:      -6.2      2.055      5.130
  Name = 
  8 active torsions:
  status: ('A' for Active; 'I' for Inactive)
    1  A    between atoms: C_1  and  O_22
    2  A    between atoms: C_2  and  C_14
    3  A    between atoms: C_2  and  O_22
    4  A    between atoms: C_11  and  C_25
    5  A    between atoms: C_14  and  C_20
    6  A    between atoms: C_19  and  C_29
    7  A    between atoms: C_20  and  N_28
    8  A    between atoms: N_28  and  C_29
                            x       y       z     vdW  Elec       q    Type
                         _______ _______ _______ _____ _____    ______ ____

>  <TORSDO>
F 8

$$$$
=
 OpenBabel11052417123D

 30 33  0  0  1  0  0  0  0  0999 V2000
  188.2330  175.5400  142.1980 C   0  0  1  0  0  3  0  0  0  0  0  0
  188.7180  175.5160  143.6340 C   0  0  0  0  0  0  0  0  0  0  0  0
  188.0250  176.9850  141.7380 C   0  0  0  0  0  2  0  0  0  0  0  0
  186.3330  178.3940  144.8030 C   0  0  0  0  0  2  0  0  0  0  0  0
  189.9990  176.1800  146.5140 C   0  0  1  0  0  3  0  0  0  0  0  0
  187.2730  177.5330  144.0410 C   0  0  0  0  0  0  0  0  0  0  0  0
  186.1720  178.7540  142.3770 C   0  0  0  0  0  2  0  0  0  0  0  0
  191.0410  175.3560  145.8850 N   0  0  0  0  0  0  0  0  0  0  0  0
  187.1870  177.7340  142.7340 C   0  0  0  0  0  0  0  0  0  0  0  0
  188.1840  176.5040  144.6650 C   0  0  2  0  0  3  0  0  0  0  0  0
  192.2880  175.3700  146.6200 C   0  0  0  0  0  2  0  0  0  0  0  0
  190.6990  176.9200  147.6400 C   0  0  0  0  0  2  0  0  0  0  0  0
  184.1200  178.8810  143.7770 C   0  0  0  0  0  1  0  0  0  0  0  0
  185.6020  179.1960  143.7260 C   0  0  1  0  0  3  0  0  0  0  0  0
  189.7850  174.8830  144.0050 C   0  0  0  0  0  0  0  0  0  0  0  0
  190.8220  174.5660  144.7030 C   0  0  0  0  0  0  0  0  0  0  0  0
  192.0170  176.1920  147.8700 C   0  0  0  0  0  2  0  0  0  0  0  0
  190.2680  178.0100  144.7340 C   0  0  0  0  0  1  0  0  0  0  0  0
  189.2840  177.1720  145.5500 C   0  0  2  0  0  3  0  0  0  0  0  0
  191.8400  173.6140  144.1720 C   0  0  0  0  0  2  0  0  0  0  0  0
  191.4490  172.3060  144.4510 O   0  0  0  0  0  1  0  0  0  0  0  0
  189.1430  174.9010  141.3320 O   0  0  0  0  0  0  0  0  0  0  0  0
  188.4730  173.8920  140.6050 C   0  0  2  0  0  3  0  0  0  0  0  0
  187.8660  172.8100  141.4920 C   0  0  0  0  0  1  0  0  0  0  0  0
  189.3000  173.3140  139.4570 C   0  0  0  0  0  2  0  0  0  0  0  0
  188.6060  173.5560  138.1260 C   0  0  0  0  0  2  0  0  0  0  0  0
  187.7680  174.7410  138.2080 N   0  0  0  0  0  2  0  0  0  0  0  0
  187.6550  175.2850  136.8620 C   0  0  0  0  0  2  0  0  0  0  0  0
  186.0190  176.2650  135.2620 C   0  0  0  0  0  1  0  0  0  0  0  0
  186.3630  176.0690  136.7270 C   0  0  0  0  0  2  0  0  0  0  0  0
  1 22  1  6  0  0  0
  1  2  1  0  0  0  0
  2 15  2  0  0  0  0
  3  1  1  0  0  0  0
  3  9  1  0  0  0  0
  5 12  1  1  0  0  0
  6 10  1  0  0  0  0
  6  4  1  0  0  0  0
  7  9  1  0  0  0  0
  7 14  1  0  0  0  0
  8  5  1  0  0  0  0
  8 11  1  0  0  0  0
  9  6  2  0  0  0  0
 10  2  1  6  0  0  0
 10 19  1  0  0  0  0
 11 17  1  0  0  0  0
 12 17  1  0  0  0  0
 14 13  1  6  0  0  0
 14  4  1  0  0  0  0
 15 16  2  0  0  0  0
 16  8  1  0  0  0  0
 19 18  1  6  0  0  0
 19  5  1  0  0  0  0
 20 21  1  0  0  0  0
 20 16  1  0  0  0  0
 23 22  1  0  0  0  0
 23 24  1  1  0  0  0
 25 23  1  0  0  0  0
 26 27  1  0  0  0  0
 26 25  1  0  0  0  0
 28 27  1  0  0  0  0
 29 30  1  0  0  0  0
 30 28  1  0  0  0  0
M  END
>  <MODEL>
7

>  <REMARK>
 VINA RESULT:      -6.2      2.529      6.529
  Name = 
  8 active torsions:
  status: ('A' for Active; 'I' for Inactive)
    1  A    between atoms: C_1  and  O_22
    2  A    between atoms: C_2  and  C_14
    3  A    between atoms: C_2  and  O_22
    4  A    between atoms: C_11  and  C_25
    5  A    between atoms: C_14  and  C_20
    6  A    between atoms: C_19  and  C_29
    7  A    between atoms: C_20  and  N_28
    8  A    between atoms: N_28  and  C_29
                            x       y       z     vdW  Elec       q    Type
                         _______ _______ _______ _____ _____    ______ ____

>  <TORSDO>
F 8

$$$$
=
 OpenBabel11052417123D

 30 33  0  0  1  0  0  0  0  0999 V2000
  189.9550  176.5650  143.0550 C   0  0  1  0  0  3  0  0  0  0  0  0
  189.0580  177.3060  144.0260 C   0  0  0  0  0  0  0  0  0  0  0  0
  190.6020  175.3640  143.7490 C   0  0  0  0  0  2  0  0  0  0  0  0
  191.5300  176.9530  147.0430 C   0  0  0  0  0  2  0  0  0  0  0  0
  187.1270  178.1900  146.4500 C   0  0  1  0  0  3  0  0  0  0  0  0
  190.7080  176.7160  145.8300 C   0  0  0  0  0  0  0  0  0  0  0  0
  192.5050  175.2400  145.5750 C   0  0  0  0  0  2  0  0  0  0  0  0
  186.1780  177.9740  145.3490 N   0  0  0  0  0  0  0  0  0  0  0  0
  191.2340  175.7870  145.0430 C   0  0  0  0  0  0  0  0  0  0  0  0
  189.4490  177.4760  145.4910 C   0  0  2  0  0  3  0  0  0  0  0  0
  184.7990  177.9660  145.7900 C   0  0  0  0  0  2  0  0  0  0  0  0
  186.2930  178.1340  147.7160 C   0  0  0  0  0  2  0  0  0  0  0  0
  194.0020  176.7910  146.8150 C   0  0  0  0  0  1  0  0  0  0  0  0
  192.7130  175.9970  146.8880 C   0  0  1  0  0  3  0  0  0  0  0  0
  187.8180  177.5780  143.7710 C   0  0  0  0  0  0  0  0  0  0  0  0
  186.5730  177.8510  143.9710 C   0  0  0  0  0  0  0  0  0  0  0  0
  184.8430  178.2900  147.2740 C   0  0  0  0  0  2  0  0  0  0  0  0
  187.8230  175.7200  146.4340 C   0  0  0  0  0  1  0  0  0  0  0  0
  188.3020  177.1690  146.5050 C   0  0  2  0  0  3  0  0  0  0  0  0
  185.5880  177.7920  142.8540 C   0  0  0  0  0  2  0  0  0  0  0  0
  186.0060  178.6240  141.8160 O   0  0  0  0  0  1  0  0  0  0  0  0
  189.2400  176.1210  141.9240 O   0  0  0  0  0  0  0  0  0  0  0  0
  189.3140  174.7120  141.8430 C   0  0  2  0  0  3  0  0  0  0  0  0
  189.7840  174.2100  140.4820 C   0  0  0  0  0  1  0  0  0  0  0  0
  188.0500  174.0040  142.3250 C   0  0  0  0  0  2  0  0  0  0  0  0
  188.1700  172.5010  142.1270 C   0  0  0  0  0  2  0  0  0  0  0  0
  189.1010  171.9430  143.0940 N   0  0  0  0  0  2  0  0  0  0  0  0
  190.0660  171.1430  142.3540 C   0  0  0  0  0  2  0  0  0  0  0  0
  191.4660  171.9160  144.2630 C   0  0  0  0  0  1  0  0  0  0  0  0
  191.4740  171.4780  142.8100 C   0  0  0  0  0  2  0  0  0  0  0  0
  1 22  1  6  0  0  0
  1  3  1  0  0  0  0
  1  2  1  0  0  0  0
  3  9  1  0  0  0  0
  5 19  1  0  0  0  0
  5 12  1  1  0  0  0
  6  4  1  0  0  0  0
  7 14  1  0  0  0  0
  8 11  1  0  0  0  0
  8  5  1  0  0  0  0
  9  7  1  0  0  0  0
  9  6  2  0  0  0  0
 10  2  1  6  0  0  0
 10  6  1  0  0  0  0
 10 19  1  0  0  0  0
 11 17  1  0  0  0  0
 14 13  1  6  0  0  0
 14  4  1  0  0  0  0
 15 16  2  0  0  0  0
 15  2  2  0  0  0  0
 16  8  1  0  0  0  0
 17 12  1  0  0  0  0
 19 18  1  6  0  0  0
 20 16  1  0  0  0  0
 21 20  1  0  0  0  0
 23 24  1  6  0  0  0
 23 22  1  0  0  0  0
 23 25  1  0  0  0  0
 26 25  1  0  0  0  0
 26 27  1  0  0  0  0
 28 30  1  0  0  0  0
 28 27  1  0  0  0  0
 30 29  1  0  0  0  0
M  END
>  <MODEL>
8

>  <REMARK>
 VINA RESULT:      -6.2      2.075      6.527
  Name = 
  8 active torsions:
  status: ('A' for Active; 'I' for Inactive)
    1  A    between atoms: C_1  and  O_22
    2  A    between atoms: C_2  and  C_14
    3  A    between atoms: C_2  and  O_22
    4  A    between atoms: C_11  and  C_25
    5  A    between atoms: C_14  and  C_20
    6  A    between atoms: C_19  and  C_29
    7  A    between atoms: C_20  and  N_28
    8  A    between atoms: N_28  and  C_29
                            x       y       z     vdW  Elec       q    Type
                         _______ _______ _______ _____ _____    ______ ____

>  <TORSDO>
F 8

$$$$
=
 OpenBabel11052417123D

 30 33  0  0  1  0  0  0  0  0999 V2000
  188.0690  175.5860  142.2760 C   0  0  1  0  0  3  0  0  0  0  0  0
  188.5970  175.5470  143.6950 C   0  0  0  0  0  0  0  0  0  0  0  0
  187.8880  177.0360  141.8220 C   0  0  0  0  0  2  0  0  0  0  0  0
  186.3340  178.4920  144.9370 C   0  0  0  0  0  2  0  0  0  0  0  0
  189.9860  176.1730  146.5350 C   0  0  1  0  0  3  0  0  0  0  0  0
  187.2240  177.6050  144.1470 C   0  0  0  0  0  0  0  0  0  0  0  0
  186.1080  178.8580  142.5170 C   0  0  0  0  0  2  0  0  0  0  0  0
  190.9830  175.3190  145.8740 N   0  0  0  0  0  0  0  0  0  0  0  0
  187.1040  177.8090  142.8420 C   0  0  0  0  0  0  0  0  0  0  0  0
  188.1240  176.5500  144.7430 C   0  0  2  0  0  3  0  0  0  0  0  0
  192.2520  175.2970  146.5700 C   0  0  0  0  0  2  0  0  0  0  0  0
  190.7410  176.8920  147.6370 C   0  0  0  0  0  2  0  0  0  0  0  0
  184.1050  179.0450  143.9790 C   0  0  0  0  0  1  0  0  0  0  0  0
  185.5930  179.3160  143.8830 C   0  0  1  0  0  3  0  0  0  0  0  0
  189.6560  174.8830  144.0340 C   0  0  0  0  0  0  0  0  0  0  0  0
  190.7050  174.5360  144.6990 C   0  0  0  0  0  0  0  0  0  0  0  0
  192.0440  176.1250  147.8260 C   0  0  0  0  0  2  0  0  0  0  0  0
  190.2520  177.9950  144.7460 C   0  0  0  0  0  1  0  0  0  0  0  0
  189.2700  177.1860  145.5920 C   0  0  2  0  0  3  0  0  0  0  0  0
  191.6770  173.5560  144.1380 C   0  0  0  0  0  2  0  0  0  0  0  0
  191.1200  172.9250  143.0270 O   0  0  0  0  0  1  0  0  0  0  0  0
  188.9320  174.9210  141.3820 O   0  0  0  0  0  0  0  0  0  0  0  0
  188.2360  173.8680  140.7480 C   0  0  2  0  0  3  0  0  0  0  0  0
  187.7300  172.8070  141.7180 C   0  0  0  0  0  1  0  0  0  0  0  0
  188.9850  173.2680  139.5600 C   0  0  0  0  0  2  0  0  0  0  0  0
  188.3270  173.6780  138.2510 C   0  0  0  0  0  2  0  0  0  0  0  0
  189.1210  173.2120  137.1260 N   0  0  0  0  0  2  0  0  0  0  0  0
  189.9490  172.1150  137.6050 C   0  0  0  0  0  2  0  0  0  0  0  0
  189.8370  169.6280  137.5900 C   0  0  0  0  0  1  0  0  0  0  0  0
  189.7270  170.8840  136.7460 C   0  0  0  0  0  2  0  0  0  0  0  0
  1 22  1  6  0  0  0
  1  2  1  0  0  0  0
  2 15  2  0  0  0  0
  3  1  1  0  0  0  0
  3  9  1  0  0  0  0
  5 12  1  1  0  0  0
  6 10  1  0  0  0  0
  6  4  1  0  0  0  0
  7  9  1  0  0  0  0
  7 14  1  0  0  0  0
  8  5  1  0  0  0  0
  8 11  1  0  0  0  0
  9  6  2  0  0  0  0
 10  2  1  6  0  0  0
 10 19  1  0  0  0  0
 11 17  1  0  0  0  0
 12 17  1  0  0  0  0
 14 13  1  6  0  0  0
 14  4  1  0  0  0  0
 15 16  2  0  0  0  0
 16  8  1  0  0  0  0
 19 18  1  6  0  0  0
 19  5  1  0  0  0  0
 20 16  1  0  0  0  0
 21 20  1  0  0  0  0
 23 22  1  0  0  0  0
 23 24  1  1  0  0  0
 25 23  1  0  0  0  0
 26 25  1  0  0  0  0
 27 28  1  0  0  0  0
 27 26  1  0  0  0  0
 30 29  1  0  0  0  0
 30 28  1  0  0  0  0
M  END
>  <MODEL>
9

>  <REMARK>
 VINA RESULT:      -6.2      2.270      6.831
  Name = 
  8 active torsions:
  status: ('A' for Active; 'I' for Inactive)
    1  A    between atoms: C_1  and  O_22
    2  A    between atoms: C_2  and  C_14
    3  A    between atoms: C_2  and  O_22
    4  A    between atoms: C_11  and  C_25
    5  A    between atoms: C_14  and  C_20
    6  A    between atoms: C_19  and  C_29
    7  A    between atoms: C_20  and  N_28
    8  A    between atoms: N_28  and  C_29
                            x       y       z     vdW  Elec       q    Type
                         _______ _______ _______ _____ _____    ______ ____

>  <TORSDO>
F 8

$$$$
