=
 OpenBabel11052417153D

 30 33  0  0  0  0  0  0  0  0999 V2000
  189.8200  174.5490  144.6460 N   0  0  0  0  0  0  0  0  0  0  0  0
  190.0800  172.5390  143.3410 C   0  0  0  0  0  0  0  0  0  0  0  0
  187.4180  176.3570  141.9020 N   0  0  0  0  0  0  0  0  0  0  0  0
  189.3120  175.8030  144.8330 C   0  0  0  0  0  0  0  0  0  0  0  0
  190.8520  176.3490  148.0120 O   0  0  0  0  0  0  0  0  0  0  0  0
  190.8370  176.3450  146.7510 C   0  0  0  0  0  0  0  0  0  0  0  0
  187.2410  177.5210  142.5660 C   0  0  0  0  0  0  0  0  0  0  0  0
  189.5870  176.5170  146.0530 N   0  0  0  0  0  0  0  0  0  0  0  0
  189.7820  171.8170  142.1800 C   0  0  0  0  0  3  0  0  0  0  0  0
  190.9650  171.9210  144.3690 C   0  0  0  0  0  1  0  0  0  0  0  0
  188.2120  175.6580  142.7360 C   0  0  0  0  0  0  0  0  0  0  0  0
  188.9570  172.3670  141.1930 C   0  0  0  0  0  3  0  0  0  0  0  0
  189.5450  173.8270  143.5180 C   0  0  0  0  0  0  0  0  0  0  0  0
  188.5150  176.3270  143.8600 N   0  0  0  0  0  0  0  0  0  0  0  0
  186.4230  178.6470  142.0460 C   0  0  0  0  0  1  0  0  0  0  0  0
  187.9150  177.5260  143.7760 C   0  0  0  0  0  3  0  0  0  0  0  0
  188.4200  173.6470  141.3580 C   0  0  0  0  0  3  0  0  0  0  0  0
  188.7110  174.3770  142.5140 C   0  0  0  0  0  0  0  0  0  0  0  0
  193.0580  175.2120  146.2330 C   0  0  0  0  0  3  0  0  0  0  0  0
  192.5000  177.0070  145.0750 O   0  0  0  0  0  0  0  0  0  0  0  0
  192.1150  176.2010  146.0320 C   0  0  0  0  0  0  0  0  0  0  0  0
  194.0630  175.4850  145.3230 C   0  0  0  0  0  3  0  0  0  0  0  0
  193.6660  176.6130  144.6250 C   0  0  0  0  0  3  0  0  0  0  0  0
  188.5060  177.2460  146.7170 C   0  0  0  0  0  2  0  0  0  0  0  0
  187.3670  176.3090  147.1140 C   0  0  0  0  0  2  0  0  0  0  0  0
  186.1070  177.0790  147.4770 C   0  0  0  0  0  2  0  0  0  0  0  0
  185.2610  177.2390  146.3040 N   0  0  0  0  0  2  0  0  0  0  0  0
  185.8060  179.4760  145.5830 O   0  0  0  0  0  0  0  0  0  0  0  0
  184.8680  178.5080  145.8600 N   0  0  0  0  0  0  0  0  0  0  0  0
  183.6550  178.7780  145.7590 O   0  0  0  0  0  0  0  0  0  0  0  0
  1  4  2  0  0  0  0
  2 13  1  0  0  0  0
  2 10  1  0  0  0  0
  3  7  1  0  0  0  0
  3 11  2  0  0  0  0
  4  8  1  0  0  0  0
  6  5  2  0  0  0  0
  7 16  2  0  0  0  0
  8 24  1  0  0  0  0
  8  6  1  0  0  0  0
  9  2  2  0  0  0  0
 11 14  1  0  0  0  0
 12 17  2  0  0  0  0
 12  9  1  0  0  0  0
 13  1  1  0  0  0  0
 14  4  1  0  0  0  0
 15  7  1  0  0  0  0
 16 14  1  0  0  0  0
 17 18  1  0  0  0  0
 18 11  1  0  0  0  0
 18 13  2  0  0  0  0
 20 21  1  0  0  0  0
 21 19  2  0  0  0  0
 21  6  1  0  0  0  0
 22 19  1  0  0  0  0
 23 20  1  0  0  0  0
 23 22  2  0  0  0  0
 24 25  1  0  0  0  0
 25 26  1  0  0  0  0
 27 26  1  0  0  0  0
 28 29  2  0  0  0  0
 29 27  1  0  0  0  0
 30 29  2  0  0  0  0
M  END
>  <MODEL>
1

>  <REMARK>
 VINA RESULT:      -7.1      0.000      0.000
  Name = 
  6 active torsions:
  status: ('A' for Active; 'I' for Inactive)
    1  A    between atoms: N_7  and  N_15
    2  A    between atoms: N_7  and  C_16
    3  A    between atoms: C_8  and  C_12
    4  A    between atoms: N_13  and  C_27
    5  A    between atoms: C_16  and  C_30
    6  A    between atoms: C_27  and  C_30
                            x       y       z     vdW  Elec       q    Type
                         _______ _______ _______ _____ _____    ______ ____

>  <TORSDO>
F 6

$$$$
=
 OpenBabel11052417153D

 30 33  0  0  0  0  0  0  0  0999 V2000
  190.1850  176.2790  143.3460 N   0  0  0  0  0  0  0  0  0  0  0  0
  192.4520  175.9410  144.0920 C   0  0  0  0  0  0  0  0  0  0  0  0
  188.8220  177.3010  147.0430 N   0  0  0  0  0  0  0  0  0  0  0  0
  188.8790  176.6030  143.5800 C   0  0  0  0  0  0  0  0  0  0  0  0
  187.7800  176.1310  140.2120 O   0  0  0  0  0  0  0  0  0  0  0  0
  188.0650  175.7290  141.3720 C   0  0  0  0  0  0  0  0  0  0  0  0
  187.5270  177.4910  146.7040 C   0  0  0  0  0  0  0  0  0  0  0  0
  187.9380  176.6310  142.4900 N   0  0  0  0  0  0  0  0  0  0  0  0
  193.3860  175.9550  145.1350 C   0  0  0  0  0  3  0  0  0  0  0  0
  192.9040  175.5620  142.7230 C   0  0  0  0  0  1  0  0  0  0  0  0
  189.3880  176.9560  145.8700 C   0  0  0  0  0  0  0  0  0  0  0  0
  192.9960  176.3040  146.4320 C   0  0  0  0  0  3  0  0  0  0  0  0
  191.1130  176.2820  144.3500 C   0  0  0  0  0  0  0  0  0  0  0  0
  188.5140  176.9330  144.8500 N   0  0  0  0  0  0  0  0  0  0  0  0
  186.4750  177.8910  147.6740 C   0  0  0  0  0  1  0  0  0  0  0  0
  187.3130  177.2630  145.3550 C   0  0  0  0  0  3  0  0  0  0  0  0
  191.6670  176.6430  146.7010 C   0  0  0  0  0  3  0  0  0  0  0  0
  190.7270  176.6330  145.6670 C   0  0  0  0  0  0  0  0  0  0  0  0
  189.5820  173.7250  140.9600 C   0  0  0  0  0  3  0  0  0  0  0  0
  187.8650  173.4790  142.3250 O   0  0  0  0  0  0  0  0  0  0  0  0
  188.4880  174.3280  141.5480 C   0  0  0  0  0  0  0  0  0  0  0  0
  189.5740  172.4260  141.4360 C   0  0  0  0  0  3  0  0  0  0  0  0
  188.4840  172.3250  142.2830 C   0  0  0  0  0  3  0  0  0  0  0  0
  186.9800  177.7330  142.3980 C   0  0  0  0  0  2  0  0  0  0  0  0
  185.5430  177.2190  142.3620 C   0  0  0  0  0  2  0  0  0  0  0  0
  184.5470  178.3470  142.1440 C   0  0  0  0  0  2  0  0  0  0  0  0
  183.7760  178.5760  143.3560 N   0  0  0  0  0  2  0  0  0  0  0  0
  185.3270  180.1900  144.2580 O   0  0  0  0  0  0  0  0  0  0  0  0
  184.3240  179.2660  144.4460 N   0  0  0  0  0  0  0  0  0  0  0  0
  183.9310  179.0090  145.6000 O   0  0  0  0  0  0  0  0  0  0  0  0
  1  4  2  0  0  0  0
  1 13  1  0  0  0  0
  2 13  2  0  0  0  0
  2  9  1  0  0  0  0
  4 14  1  0  0  0  0
  5  6  2  0  0  0  0
  6 21  1  0  0  0  0
  6  8  1  0  0  0  0
  7  3  1  0  0  0  0
  7 15  1  0  0  0  0
  8  4  1  0  0  0  0
  9 12  2  0  0  0  0
 10  2  1  0  0  0  0
 11  3  2  0  0  0  0
 12 17  1  0  0  0  0
 13 18  1  0  0  0  0
 14 16  1  0  0  0  0
 14 11  1  0  0  0  0
 16  7  2  0  0  0  0
 18 11  1  0  0  0  0
 18 17  2  0  0  0  0
 19 22  1  0  0  0  0
 19 21  2  0  0  0  0
 21 20  1  0  0  0  0
 22 23  2  0  0  0  0
 23 20  1  0  0  0  0
 24  8  1  0  0  0  0
 25 24  1  0  0  0  0
 26 25  1  0  0  0  0
 26 27  1  0  0  0  0
 27 29  1  0  0  0  0
 28 29  2  0  0  0  0
 29 30  2  0  0  0  0
M  END
>  <MODEL>
2

>  <REMARK>
 VINA RESULT:      -7.0      2.247      5.007
  Name = 
  6 active torsions:
  status: ('A' for Active; 'I' for Inactive)
    1  A    between atoms: N_7  and  N_15
    2  A    between atoms: N_7  and  C_16
    3  A    between atoms: C_8  and  C_12
    4  A    between atoms: N_13  and  C_27
    5  A    between atoms: C_16  and  C_30
    6  A    between atoms: C_27  and  C_30
                            x       y       z     vdW  Elec       q    Type
                         _______ _______ _______ _____ _____    ______ ____

>  <TORSDO>
F 6

$$$$
=
 OpenBabel11052417153D

 30 33  0  0  0  0  0  0  0  0999 V2000
  187.9610  177.9050  145.3610 N   0  0  0  0  0  0  0  0  0  0  0  0
  186.0160  178.4800  146.6630 C   0  0  0  0  0  0  0  0  0  0  0  0
  185.9270  177.8310  141.8360 N   0  0  0  0  0  0  0  0  0  0  0  0
  188.5700  177.6160  144.1720 C   0  0  0  0  0  0  0  0  0  0  0  0
  191.8290  177.1040  145.5460 O   0  0  0  0  0  0  0  0  0  0  0  0
  190.6640  176.7340  145.2360 C   0  0  0  0  0  0  0  0  0  0  0  0
  186.9680  177.4900  141.0420 C   0  0  0  0  0  0  0  0  0  0  0  0
  189.9870  177.3650  144.1310 N   0  0  0  0  0  0  0  0  0  0  0  0
  184.6480  178.7710  146.7100 C   0  0  0  0  0  3  0  0  0  0  0  0
  186.7990  178.4840  147.9320 C   0  0  0  0  0  1  0  0  0  0  0  0
  186.4940  177.8930  143.0560 C   0  0  0  0  0  0  0  0  0  0  0  0
  183.8820  178.7740  145.5390 C   0  0  0  0  0  3  0  0  0  0  0  0
  186.6260  178.1890  145.4300 C   0  0  0  0  0  0  0  0  0  0  0  0
  187.8080  177.6160  143.0420 N   0  0  0  0  0  0  0  0  0  0  0  0
  186.8510  177.2950  139.5730 C   0  0  0  0  0  1  0  0  0  0  0  0
  188.1390  177.3470  141.7680 C   0  0  0  0  0  3  0  0  0  0  0  0
  184.4770  178.4850  144.3080 C   0  0  0  0  0  3  0  0  0  0  0  0
  185.8430  178.1930  144.2500 C   0  0  0  0  0  0  0  0  0  0  0  0
  189.5710  175.7060  147.2940 C   0  0  0  0  0  3  0  0  0  0  0  0
  189.8570  174.4350  145.5120 O   0  0  0  0  0  0  0  0  0  0  0  0
  190.0480  175.6340  146.0000 C   0  0  0  0  0  0  0  0  0  0  0  0
  189.0770  174.4420  147.5640 C   0  0  0  0  0  3  0  0  0  0  0  0
  189.2800  173.6880  146.4210 C   0  0  0  0  0  3  0  0  0  0  0  0
  190.7900  177.9590  143.0620 C   0  0  0  0  0  2  0  0  0  0  0  0
  191.9280  177.0330  142.6410 C   0  0  0  0  0  2  0  0  0  0  0  0
  191.4240  175.6360  142.3130 C   0  0  0  0  0  2  0  0  0  0  0  0
  192.5300  174.6910  142.3130 N   0  0  0  0  0  2  0  0  0  0  0  0
  193.0060  174.1030  144.6050 O   0  0  0  0  0  0  0  0  0  0  0  0
  193.4180  174.6120  143.3940 N   0  0  0  0  0  0  0  0  0  0  0  0
  194.5790  175.0510  143.2730 O   0  0  0  0  0  0  0  0  0  0  0  0
  1 13  1  0  0  0  0
  2  9  1  0  0  0  0
  2 10  1  0  0  0  0
  3 11  2  0  0  0  0
  4  1  2  0  0  0  0
  6  5  2  0  0  0  0
  6 21  1  0  0  0  0
  7 16  2  0  0  0  0
  7  3  1  0  0  0  0
  8  4  1  0  0  0  0
  8  6  1  0  0  0  0
 11 18  1  0  0  0  0
 12  9  2  0  0  0  0
 13  2  2  0  0  0  0
 14 11  1  0  0  0  0
 14  4  1  0  0  0  0
 15  7  1  0  0  0  0
 16 14  1  0  0  0  0
 17 12  1  0  0  0  0
 18 17  2  0  0  0  0
 18 13  1  0  0  0  0
 19 22  1  0  0  0  0
 20 21  1  0  0  0  0
 20 23  1  0  0  0  0
 21 19  2  0  0  0  0
 23 22  2  0  0  0  0
 24  8  1  0  0  0  0
 25 24  1  0  0  0  0
 26 25  1  0  0  0  0
 27 26  1  0  0  0  0
 27 29  1  0  0  0  0
 29 28  2  0  0  0  0
 30 29  2  0  0  0  0
M  END
>  <MODEL>
3

>  <REMARK>
 VINA RESULT:      -6.5      3.096      6.021
  Name = 
  6 active torsions:
  status: ('A' for Active; 'I' for Inactive)
    1  A    between atoms: N_7  and  N_15
    2  A    between atoms: N_7  and  C_16
    3  A    between atoms: C_8  and  C_12
    4  A    between atoms: N_13  and  C_27
    5  A    between atoms: C_16  and  C_30
    6  A    between atoms: C_27  and  C_30
                            x       y       z     vdW  Elec       q    Type
                         _______ _______ _______ _____ _____    ______ ____

>  <TORSDO>
F 6

$$$$
=
 OpenBabel11052417153D

 30 33  0  0  0  0  0  0  0  0999 V2000
  190.7420  175.5980  143.2180 N   0  0  0  0  0  0  0  0  0  0  0  0
  193.0060  175.8220  144.0140 C   0  0  0  0  0  0  0  0  0  0  0  0
  189.0860  176.6020  146.7990 N   0  0  0  0  0  0  0  0  0  0  0  0
  189.3900  175.6500  143.4090 C   0  0  0  0  0  0  0  0  0  0  0  0
  188.5160  174.6760  140.0840 O   0  0  0  0  0  0  0  0  0  0  0  0
  188.8470  174.4420  141.2770 C   0  0  0  0  0  0  0  0  0  0  0  0
  187.7900  176.4780  146.4310 C   0  0  0  0  0  0  0  0  0  0  0  0
  188.4970  175.3840  142.3110 N   0  0  0  0  0  0  0  0  0  0  0  0
  193.8840  176.1230  145.0610 C   0  0  0  0  0  3  0  0  0  0  0  0
  193.5680  175.4380  142.6880 C   0  0  0  0  0  1  0  0  0  0  0  0
  189.7450  176.2920  145.6650 C   0  0  0  0  0  0  0  0  0  0  0  0
  193.3920  176.4850  146.3190 C   0  0  0  0  0  3  0  0  0  0  0  0
  191.6180  175.8850  144.2280 C   0  0  0  0  0  0  0  0  0  0  0  0
  188.9270  175.9970  144.6430 N   0  0  0  0  0  0  0  0  0  0  0  0
  186.6490  176.7200  147.3520 C   0  0  0  0  0  1  0  0  0  0  0  0
  187.6690  176.1000  145.1050 C   0  0  0  0  0  3  0  0  0  0  0  0
  192.0140  176.5500  146.5440 C   0  0  0  0  0  3  0  0  0  0  0  0
  191.1280  176.2510  145.5050 C   0  0  0  0  0  0  0  0  0  0  0  0
  190.7820  172.7980  141.0750 C   0  0  0  0  0  3  0  0  0  0  0  0
  189.0960  172.2770  142.4020 O   0  0  0  0  0  0  0  0  0  0  0  0
  189.5560  173.1850  141.5780 C   0  0  0  0  0  0  0  0  0  0  0  0
  191.0340  171.5670  141.6530 C   0  0  0  0  0  3  0  0  0  0  0  0
  189.9530  171.2880  142.4720 C   0  0  0  0  0  3  0  0  0  0  0  0
  187.3280  176.2410  142.1140 C   0  0  0  0  0  2  0  0  0  0  0  0
  187.7390  177.6700  141.7680 C   0  0  0  0  0  2  0  0  0  0  0  0
  186.7060  178.6820  142.2410 C   0  0  0  0  0  2  0  0  0  0  0  0
  185.6870  178.0210  143.0420 N   0  0  0  0  0  2  0  0  0  0  0  0
  183.6770  179.0020  143.9480 O   0  0  0  0  0  0  0  0  0  0  0  0
  184.3330  178.3630  142.9210 N   0  0  0  0  0  0  0  0  0  0  0  0
  183.7060  178.0450  141.8920 O   0  0  0  0  0  0  0  0  0  0  0  0
  1  4  2  0  0  0  0
  1 13  1  0  0  0  0
  2 13  2  0  0  0  0
  2  9  1  0  0  0  0
  4 14  1  0  0  0  0
  5  6  2  0  0  0  0
  6 21  1  0  0  0  0
  6  8  1  0  0  0  0
  7  3  1  0  0  0  0
  7 15  1  0  0  0  0
  8  4  1  0  0  0  0
  9 12  2  0  0  0  0
 10  2  1  0  0  0  0
 11  3  2  0  0  0  0
 12 17  1  0  0  0  0
 13 18  1  0  0  0  0
 14 16  1  0  0  0  0
 14 11  1  0  0  0  0
 16  7  2  0  0  0  0
 18 11  1  0  0  0  0
 18 17  2  0  0  0  0
 19 21  2  0  0  0  0
 19 22  1  0  0  0  0
 20 23  1  0  0  0  0
 21 20  1  0  0  0  0
 22 23  2  0  0  0  0
 24  8  1  0  0  0  0
 25 24  1  0  0  0  0
 25 26  1  0  0  0  0
 26 27  1  0  0  0  0
 29 27  1  0  0  0  0
 29 28  2  0  0  0  0
 30 29  2  0  0  0  0
M  END
>  <MODEL>
4

>  <REMARK>
 VINA RESULT:      -6.4      2.318      5.076
  Name = 
  6 active torsions:
  status: ('A' for Active; 'I' for Inactive)
    1  A    between atoms: N_7  and  N_15
    2  A    between atoms: N_7  and  C_16
    3  A    between atoms: C_8  and  C_12
    4  A    between atoms: N_13  and  C_27
    5  A    between atoms: C_16  and  C_30
    6  A    between atoms: C_27  and  C_30
                            x       y       z     vdW  Elec       q    Type
                         _______ _______ _______ _____ _____    ______ ____

>  <TORSDO>
F 6

$$$$
=
 OpenBabel11052417153D

 30 33  0  0  0  0  0  0  0  0999 V2000
  187.9100  177.8660  145.4450 N   0  0  0  0  0  0  0  0  0  0  0  0
  185.9350  178.3880  146.7240 C   0  0  0  0  0  0  0  0  0  0  0  0
  185.9440  177.8660  141.8800 N   0  0  0  0  0  0  0  0  0  0  0  0
  188.5430  177.6140  144.2610 C   0  0  0  0  0  0  0  0  0  0  0  0
  191.7810  177.0960  145.6830 O   0  0  0  0  0  0  0  0  0  0  0  0
  190.6260  176.7240  145.3410 C   0  0  0  0  0  0  0  0  0  0  0  0
  187.0030  177.5560  141.0980 C   0  0  0  0  0  0  0  0  0  0  0  0
  189.9640  177.3770  144.2400 N   0  0  0  0  0  0  0  0  0  0  0  0
  184.5630  178.6650  146.7520 C   0  0  0  0  0  3  0  0  0  0  0  0
  186.6940  178.3660  148.0070 C   0  0  0  0  0  1  0  0  0  0  0  0
  186.4870  177.9010  143.1130 C   0  0  0  0  0  0  0  0  0  0  0  0
  183.8200  178.6920  145.5680 C   0  0  0  0  0  3  0  0  0  0  0  0
  186.5700  178.1350  145.4960 C   0  0  0  0  0  0  0  0  0  0  0  0
  187.8040  177.6370  143.1170 N   0  0  0  0  0  0  0  0  0  0  0  0
  186.9160  177.3990  139.6230 C   0  0  0  0  0  1  0  0  0  0  0  0
  188.1610  177.4040  141.8430 C   0  0  0  0  0  3  0  0  0  0  0  0
  184.4410  178.4410  144.3410 C   0  0  0  0  0  3  0  0  0  0  0  0
  185.8100  178.1630  144.3020 C   0  0  0  0  0  0  0  0  0  0  0  0
  189.9100  174.2950  145.6190 C   0  0  0  0  0  3  0  0  0  0  0  0
  189.4820  175.7100  147.2590 O   0  0  0  0  0  0  0  0  0  0  0  0
  190.0060  175.5990  146.0640 C   0  0  0  0  0  0  0  0  0  0  0  0
  189.2710  173.6140  146.6390 C   0  0  0  0  0  3  0  0  0  0  0  0
  189.0270  174.5410  147.6380 C   0  0  0  0  0  3  0  0  0  0  0  0
  190.7810  178.0070  143.2030 C   0  0  0  0  0  2  0  0  0  0  0  0
  191.8830  177.0690  142.7180 C   0  0  0  0  0  2  0  0  0  0  0  0
  191.3410  175.6870  142.3880 C   0  0  0  0  0  2  0  0  0  0  0  0
  192.3400  174.9170  141.6630 N   0  0  0  0  0  2  0  0  0  0  0  0
  192.9610  172.9850  140.3570 O   0  0  0  0  0  0  0  0  0  0  0  0
  192.0360  173.6610  141.1200 N   0  0  0  0  0  0  0  0  0  0  0  0
  190.9030  173.1730  141.2910 O   0  0  0  0  0  0  0  0  0  0  0  0
  1 13  1  0  0  0  0
  2  9  1  0  0  0  0
  2 10  1  0  0  0  0
  3 11  2  0  0  0  0
  4  1  2  0  0  0  0
  6  5  2  0  0  0  0
  6 21  1  0  0  0  0
  7 16  2  0  0  0  0
  7  3  1  0  0  0  0
  8  4  1  0  0  0  0
  8  6  1  0  0  0  0
 11 14  1  0  0  0  0
 11 18  1  0  0  0  0
 12  9  2  0  0  0  0
 13  2  2  0  0  0  0
 14  4  1  0  0  0  0
 15  7  1  0  0  0  0
 16 14  1  0  0  0  0
 17 12  1  0  0  0  0
 18 17  2  0  0  0  0
 18 13  1  0  0  0  0
 19 21  2  0  0  0  0
 19 22  1  0  0  0  0
 20 23  1  0  0  0  0
 21 20  1  0  0  0  0
 22 23  2  0  0  0  0
 24  8  1  0  0  0  0
 25 24  1  0  0  0  0
 26 25  1  0  0  0  0
 27 26  1  0  0  0  0
 28 29  2  0  0  0  0
 29 30  2  0  0  0  0
 29 27  1  0  0  0  0
M  END
>  <MODEL>
5

>  <REMARK>
 VINA RESULT:      -6.2      2.899      6.029
  Name = 
  6 active torsions:
  status: ('A' for Active; 'I' for Inactive)
    1  A    between atoms: N_7  and  N_15
    2  A    between atoms: N_7  and  C_16
    3  A    between atoms: C_8  and  C_12
    4  A    between atoms: N_13  and  C_27
    5  A    between atoms: C_16  and  C_30
    6  A    between atoms: C_27  and  C_30
                            x       y       z     vdW  Elec       q    Type
                         _______ _______ _______ _____ _____    ______ ____

>  <TORSDO>
F 6

$$$$
=
 OpenBabel11052417153D

 30 33  0  0  0  0  0  0  0  0999 V2000
  190.0730  175.0510  144.3560 N   0  0  0  0  0  0  0  0  0  0  0  0
  190.1020  175.6730  146.6850 C   0  0  0  0  0  0  0  0  0  0  0  0
  193.9620  176.0840  143.7420 N   0  0  0  0  0  0  0  0  0  0  0  0
  190.6800  174.9200  143.1400 C   0  0  0  0  0  0  0  0  0  0  0  0
  187.8120  173.6350  141.4380 O   0  0  0  0  0  0  0  0  0  0  0  0
  188.5340  174.5650  141.8890 C   0  0  0  0  0  0  0  0  0  0  0  0
  194.0170  175.7770  142.4260 C   0  0  0  0  0  0  0  0  0  0  0  0
  189.9540  174.3610  142.0290 N   0  0  0  0  0  0  0  0  0  0  0  0
  190.8110  176.1720  147.7840 C   0  0  0  0  0  3  0  0  0  0  0  0
  188.6710  175.2920  146.8610 C   0  0  0  0  0  1  0  0  0  0  0  0
  192.6920  175.7710  144.0650 C   0  0  0  0  0  0  0  0  0  0  0  0
  192.1540  176.5400  147.6550 C   0  0  0  0  0  3  0  0  0  0  0  0
  190.7450  175.5400  145.4420 C   0  0  0  0  0  0  0  0  0  0  0  0
  191.9870  175.2900  143.0290 N   0  0  0  0  0  0  0  0  0  0  0  0
  195.2360  175.9490  141.5930 C   0  0  0  0  0  1  0  0  0  0  0  0
  192.8060  175.2890  141.9640 C   0  0  0  0  0  3  0  0  0  0  0  0
  192.8030  176.4140  146.4240 C   0  0  0  0  0  3  0  0  0  0  0  0
  192.1040  175.9170  145.3190 C   0  0  0  0  0  0  0  0  0  0  0  0
  186.8450  176.0370  143.1000 C   0  0  0  0  0  3  0  0  0  0  0  0
  188.2860  176.9990  141.7320 O   0  0  0  0  0  0  0  0  0  0  0  0
  187.8960  175.8510  142.2250 C   0  0  0  0  0  0  0  0  0  0  0  0
  186.6130  177.4000  143.0960 C   0  0  0  0  0  3  0  0  0  0  0  0
  187.5380  177.9540  142.2280 C   0  0  0  0  0  3  0  0  0  0  0  0
  190.6130  173.3870  141.1590 C   0  0  0  0  0  2  0  0  0  0  0  0
  190.6860  172.0120  141.8190 C   0  0  0  0  0  2  0  0  0  0  0  0
  192.1150  171.6400  142.1850 C   0  0  0  0  0  2  0  0  0  0  0  0
  192.2980  171.7120  143.6260 N   0  0  0  0  0  2  0  0  0  0  0  0
  194.5810  172.4680  143.4280 O   0  0  0  0  0  0  0  0  0  0  0  0
  193.4450  172.2930  144.1850 N   0  0  0  0  0  0  0  0  0  0  0  0
  193.4510  172.6120  145.3890 O   0  0  0  0  0  0  0  0  0  0  0  0
  1 13  1  0  0  0  0
  2 10  1  0  0  0  0
  2  9  1  0  0  0  0
  3 11  2  0  0  0  0
  4  1  2  0  0  0  0
  5  6  2  0  0  0  0
  6  8  1  0  0  0  0
  6 21  1  0  0  0  0
  7  3  1  0  0  0  0
  8  4  1  0  0  0  0
 11 18  1  0  0  0  0
 12  9  2  0  0  0  0
 13  2  2  0  0  0  0
 14  4  1  0  0  0  0
 14 11  1  0  0  0  0
 15  7  1  0  0  0  0
 16  7  2  0  0  0  0
 16 14  1  0  0  0  0
 17 12  1  0  0  0  0
 18 13  1  0  0  0  0
 18 17  2  0  0  0  0
 20 21  1  0  0  0  0
 20 23  1  0  0  0  0
 21 19  2  0  0  0  0
 22 19  1  0  0  0  0
 23 22  2  0  0  0  0
 24 25  1  0  0  0  0
 24  8  1  0  0  0  0
 25 26  1  0  0  0  0
 26 27  1  0  0  0  0
 27 29  1  0  0  0  0
 28 29  2  0  0  0  0
 29 30  2  0  0  0  0
M  END
>  <MODEL>
6

>  <REMARK>
 VINA RESULT:      -6.1      2.943      7.077
  Name = 
  6 active torsions:
  status: ('A' for Active; 'I' for Inactive)
    1  A    between atoms: N_7  and  N_15
    2  A    between atoms: N_7  and  C_16
    3  A    between atoms: C_8  and  C_12
    4  A    between atoms: N_13  and  C_27
    5  A    between atoms: C_16  and  C_30
    6  A    between atoms: C_27  and  C_30
                            x       y       z     vdW  Elec       q    Type
                         _______ _______ _______ _____ _____    ______ ____

>  <TORSDO>
F 6

$$$$
=
 OpenBabel11052417153D

 30 33  0  0  0  0  0  0  0  0999 V2000
  192.0140  176.0320  142.9510 N   0  0  0  0  0  0  0  0  0  0  0  0
  194.2560  175.4330  142.2970 C   0  0  0  0  0  0  0  0  0  0  0  0
  192.9690  176.4320  146.8880 N   0  0  0  0  0  0  0  0  0  0  0  0
  191.0910  176.3820  143.8950 C   0  0  0  0  0  0  0  0  0  0  0  0
  188.3290  176.6040  141.6380 O   0  0  0  0  0  0  0  0  0  0  0  0
  189.1190  175.9800  142.3960 C   0  0  0  0  0  0  0  0  0  0  0  0
  191.7340  176.7550  147.3340 C   0  0  0  0  0  0  0  0  0  0  0  0
  189.7340  176.6660  143.5050 N   0  0  0  0  0  0  0  0  0  0  0  0
  195.5870  175.2000  142.6560 C   0  0  0  0  0  3  0  0  0  0  0  0
  193.8570  175.2870  140.8670 C   0  0  0  0  0  1  0  0  0  0  0  0
  192.7740  176.2780  145.5640 C   0  0  0  0  0  0  0  0  0  0  0  0
  195.9960  175.3260  143.9880 C   0  0  0  0  0  3  0  0  0  0  0  0
  193.3200  175.7960  143.2810 C   0  0  0  0  0  0  0  0  0  0  0  0
  191.5030  176.4940  145.1890 N   0  0  0  0  0  0  0  0  0  0  0  0
  191.4230  177.0300  148.7610 C   0  0  0  0  0  1  0  0  0  0  0  0
  190.8120  176.7940  146.3020 C   0  0  0  0  0  3  0  0  0  0  0  0
  195.0740  175.6860  144.9760 C   0  0  0  0  0  3  0  0  0  0  0  0
  193.7410  175.9210  144.6270 C   0  0  0  0  0  0  0  0  0  0  0  0
  188.9920  173.4990  142.9570 C   0  0  0  0  0  3  0  0  0  0  0  0
  189.9430  174.0980  141.0570 O   0  0  0  0  0  0  0  0  0  0  0  0
  189.3580  174.5480  142.1380 C   0  0  0  0  0  0  0  0  0  0  0  0
  189.4100  172.3610  142.2910 C   0  0  0  0  0  3  0  0  0  0  0  0
  189.9970  172.7890  141.1120 C   0  0  0  0  0  3  0  0  0  0  0  0
  189.0470  177.8190  144.0860 C   0  0  0  0  0  2  0  0  0  0  0  0
  187.7580  177.4010  144.7900 C   0  0  0  0  0  2  0  0  0  0  0  0
  186.5470  178.1220  144.2200 C   0  0  0  0  0  2  0  0  0  0  0  0
  186.0020  179.0430  145.2050 N   0  0  0  0  0  2  0  0  0  0  0  0
  184.4420  177.6130  146.3630 O   0  0  0  0  0  0  0  0  0  0  0  0
  185.4220  178.5780  146.3930 N   0  0  0  0  0  0  0  0  0  0  0  0
  185.7640  179.0760  147.4830 O   0  0  0  0  0  0  0  0  0  0  0  0
  1 13  1  0  0  0  0
  1  4  2  0  0  0  0
  2  9  2  0  0  0  0
  2 13  1  0  0  0  0
  3  7  1  0  0  0  0
  4 14  1  0  0  0  0
  5  6  2  0  0  0  0
  6  8  1  0  0  0  0
  7 15  1  0  0  0  0
  8  4  1  0  0  0  0
  8 24  1  0  0  0  0
  9 12  1  0  0  0  0
 10  2  1  0  0  0  0
 11  3  2  0  0  0  0
 12 17  2  0  0  0  0
 13 18  2  0  0  0  0
 14 11  1  0  0  0  0
 14 16  1  0  0  0  0
 16  7  2  0  0  0  0
 18 17  1  0  0  0  0
 18 11  1  0  0  0  0
 20 23  1  0  0  0  0
 20 21  1  0  0  0  0
 21  6  1  0  0  0  0
 21 19  2  0  0  0  0
 22 19  1  0  0  0  0
 23 22  2  0  0  0  0
 24 25  1  0  0  0  0
 26 25  1  0  0  0  0
 26 27  1  0  0  0  0
 27 29  1  0  0  0  0
 28 29  2  0  0  0  0
 29 30  2  0  0  0  0
M  END
>  <MODEL>
7

>  <REMARK>
 VINA RESULT:      -6.0      2.313      5.204
  Name = 
  6 active torsions:
  status: ('A' for Active; 'I' for Inactive)
    1  A    between atoms: N_7  and  N_15
    2  A    between atoms: N_7  and  C_16
    3  A    between atoms: C_8  and  C_12
    4  A    between atoms: N_13  and  C_27
    5  A    between atoms: C_16  and  C_30
    6  A    between atoms: C_27  and  C_30
                            x       y       z     vdW  Elec       q    Type
                         _______ _______ _______ _____ _____    ______ ____

>  <TORSDO>
F 6

$$$$
=
 OpenBabel11052417153D

 30 33  0  0  0  0  0  0  0  0999 V2000
  191.6340  175.1900  142.2790 N   0  0  0  0  0  0  0  0  0  0  0  0
  194.0040  175.6120  142.4070 C   0  0  0  0  0  0  0  0  0  0  0  0
  191.1420  175.1200  146.3190 N   0  0  0  0  0  0  0  0  0  0  0  0
  190.4180  174.9750  142.8630 C   0  0  0  0  0  0  0  0  0  0  0  0
  188.6060  174.6000  139.8060 O   0  0  0  0  0  0  0  0  0  0  0  0
  189.3260  174.1760  140.7490 C   0  0  0  0  0  0  0  0  0  0  0  0
  189.8140  174.8640  146.3270 C   0  0  0  0  0  0  0  0  0  0  0  0
  189.2450  174.8050  142.0440 N   0  0  0  0  0  0  0  0  0  0  0  0
  195.1420  175.8250  143.1920 C   0  0  0  0  0  3  0  0  0  0  0  0
  194.1390  175.6180  140.9220 C   0  0  0  0  0  1  0  0  0  0  0  0
  191.4240  175.1730  145.0020 C   0  0  0  0  0  0  0  0  0  0  0  0
  195.0530  175.8240  144.5880 C   0  0  0  0  0  3  0  0  0  0  0  0
  192.7600  175.3970  143.0260 C   0  0  0  0  0  0  0  0  0  0  0  0
  190.3490  174.9700  144.2240 N   0  0  0  0  0  0  0  0  0  0  0  0
  189.0150  174.7110  147.5710 C   0  0  0  0  0  1  0  0  0  0  0  0
  189.3050  174.7620  145.0430 C   0  0  0  0  0  3  0  0  0  0  0  0
  193.8220  175.6100  145.2140 C   0  0  0  0  0  3  0  0  0  0  0  0
  192.6780  175.3960  144.4400 C   0  0  0  0  0  0  0  0  0  0  0  0
  191.2330  172.9580  139.5810 C   0  0  0  0  0  3  0  0  0  0  0  0
  190.1190  171.8930  141.1620 O   0  0  0  0  0  0  0  0  0  0  0  0
  190.2050  173.0200  140.5000 C   0  0  0  0  0  0  0  0  0  0  0  0
  191.7690  171.6910  139.7260 C   0  0  0  0  0  3  0  0  0  0  0  0
  191.0390  171.0680  140.7240 C   0  0  0  0  0  3  0  0  0  0  0  0
  188.0030  175.4780  142.4230 C   0  0  0  0  0  2  0  0  0  0  0  0
  188.1070  176.9880  142.2250 C   0  0  0  0  0  2  0  0  0  0  0  0
  187.1330  177.7410  143.1170 C   0  0  0  0  0  2  0  0  0  0  0  0
  187.6860  177.8840  144.4550 N   0  0  0  0  0  2  0  0  0  0  0  0
  187.3950  177.7960  146.8490 O   0  0  0  0  0  0  0  0  0  0  0  0
  186.9820  177.4430  145.5840 N   0  0  0  0  0  0  0  0  0  0  0  0
  186.0020  176.6870  145.4440 O   0  0  0  0  0  0  0  0  0  0  0  0
  1  4  2  0  0  0  0
  1 13  1  0  0  0  0
  2 13  2  0  0  0  0
  2  9  1  0  0  0  0
  3  7  1  0  0  0  0
  4 14  1  0  0  0  0
  5  6  2  0  0  0  0
  6  8  1  0  0  0  0
  7 15  1  0  0  0  0
  8 24  1  0  0  0  0
  8  4  1  0  0  0  0
  9 12  2  0  0  0  0
 10  2  1  0  0  0  0
 11  3  2  0  0  0  0
 12 17  1  0  0  0  0
 13 18  1  0  0  0  0
 14 11  1  0  0  0  0
 14 16  1  0  0  0  0
 16  7  2  0  0  0  0
 18 11  1  0  0  0  0
 18 17  2  0  0  0  0
 19 22  1  0  0  0  0
 19 21  2  0  0  0  0
 21  6  1  0  0  0  0
 21 20  1  0  0  0  0
 22 23  2  0  0  0  0
 23 20  1  0  0  0  0
 25 24  1  0  0  0  0
 25 26  1  0  0  0  0
 26 27  1  0  0  0  0
 27 29  1  0  0  0  0
 29 28  2  0  0  0  0
 30 29  2  0  0  0  0
M  END
>  <MODEL>
8

>  <REMARK>
 VINA RESULT:      -6.0      2.682      5.469
  Name = 
  6 active torsions:
  status: ('A' for Active; 'I' for Inactive)
    1  A    between atoms: N_7  and  N_15
    2  A    between atoms: N_7  and  C_16
    3  A    between atoms: C_8  and  C_12
    4  A    between atoms: N_13  and  C_27
    5  A    between atoms: C_16  and  C_30
    6  A    between atoms: C_27  and  C_30
                            x       y       z     vdW  Elec       q    Type
                         _______ _______ _______ _____ _____    ______ ____

>  <TORSDO>
F 6

$$$$
=
 OpenBabel11052417153D

 30 33  0  0  0  0  0  0  0  0999 V2000
  192.4420  175.5950  142.2300 N   0  0  0  0  0  0  0  0  0  0  0  0
  194.7740  175.8490  141.6710 C   0  0  0  0  0  0  0  0  0  0  0  0
  193.0010  176.4630  146.1670 N   0  0  0  0  0  0  0  0  0  0  0  0
  191.4130  175.6110  143.1280 C   0  0  0  0  0  0  0  0  0  0  0  0
  188.8710  174.7080  140.7830 O   0  0  0  0  0  0  0  0  0  0  0  0
  189.8010  174.4500  141.5950 C   0  0  0  0  0  0  0  0  0  0  0  0
  191.7150  176.3200  146.5610 C   0  0  0  0  0  0  0  0  0  0  0  0
  190.0670  175.3550  142.6850 N   0  0  0  0  0  0  0  0  0  0  0  0
  196.0790  176.1410  142.0810 C   0  0  0  0  0  3  0  0  0  0  0  0
  194.5230  175.5140  140.2400 C   0  0  0  0  0  1  0  0  0  0  0  0
  192.9380  176.2000  144.8470 C   0  0  0  0  0  0  0  0  0  0  0  0
  196.3510  176.4570  143.4160 C   0  0  0  0  0  3  0  0  0  0  0  0
  193.7260  175.8740  142.6080 C   0  0  0  0  0  0  0  0  0  0  0  0
  191.6950  175.9140  144.4260 N   0  0  0  0  0  0  0  0  0  0  0  0
  191.2590  176.5110  147.9620 C   0  0  0  0  0  1  0  0  0  0  0  0
  190.8920  175.9750  145.5010 C   0  0  0  0  0  3  0  0  0  0  0  0
  195.3180  176.4840  144.3570 C   0  0  0  0  0  3  0  0  0  0  0  0
  194.0090  176.1940  143.9590 C   0  0  0  0  0  0  0  0  0  0  0  0
  190.5110  172.0880  142.2310 C   0  0  0  0  0  3  0  0  0  0  0  0
  191.3870  172.9950  140.4190 O   0  0  0  0  0  0  0  0  0  0  0  0
  190.5640  173.2010  141.4170 C   0  0  0  0  0  0  0  0  0  0  0  0
  191.3800  171.1800  141.6550 C   0  0  0  0  0  3  0  0  0  0  0  0
  191.9000  171.7940  140.5280 C   0  0  0  0  0  3  0  0  0  0  0  0
  188.9760  176.1900  143.1870 C   0  0  0  0  0  2  0  0  0  0  0  0
  189.0980  177.6250  142.6820 C   0  0  0  0  0  2  0  0  0  0  0  0
  187.9920  177.9710  141.6960 C   0  0  0  0  0  2  0  0  0  0  0  0
  186.7340  177.3820  142.1280 N   0  0  0  0  0  2  0  0  0  0  0  0
  184.3770  177.7680  142.4720 O   0  0  0  0  0  0  0  0  0  0  0  0
  185.6840  178.1800  142.6030 N   0  0  0  0  0  0  0  0  0  0  0  0
  185.9320  179.2920  143.1050 O   0  0  0  0  0  0  0  0  0  0  0  0
  1 13  1  0  0  0  0
  1  4  2  0  0  0  0
  2  9  2  0  0  0  0
  2 13  1  0  0  0  0
  3  7  1  0  0  0  0
  4 14  1  0  0  0  0
  5  6  2  0  0  0  0
  6  8  1  0  0  0  0
  7 15  1  0  0  0  0
  8  4  1  0  0  0  0
  8 24  1  0  0  0  0
  9 12  1  0  0  0  0
 10  2  1  0  0  0  0
 11  3  2  0  0  0  0
 12 17  2  0  0  0  0
 13 18  2  0  0  0  0
 14 11  1  0  0  0  0
 14 16  1  0  0  0  0
 16  7  2  0  0  0  0
 18 17  1  0  0  0  0
 18 11  1  0  0  0  0
 20 23  1  0  0  0  0
 20 21  1  0  0  0  0
 21  6  1  0  0  0  0
 21 19  2  0  0  0  0
 22 19  1  0  0  0  0
 23 22  2  0  0  0  0
 25 24  1  0  0  0  0
 26 27  1  0  0  0  0
 26 25  1  0  0  0  0
 27 29  1  0  0  0  0
 28 29  2  0  0  0  0
 29 30  2  0  0  0  0
M  END
>  <MODEL>
9

>  <REMARK>
 VINA RESULT:      -5.9      2.858      5.715
  Name = 
  6 active torsions:
  status: ('A' for Active; 'I' for Inactive)
    1  A    between atoms: N_7  and  N_15
    2  A    between atoms: N_7  and  C_16
    3  A    between atoms: C_8  and  C_12
    4  A    between atoms: N_13  and  C_27
    5  A    between atoms: C_16  and  C_30
    6  A    between atoms: C_27  and  C_30
                            x       y       z     vdW  Elec       q    Type
                         _______ _______ _______ _____ _____    ______ ____

>  <TORSDO>
F 6

$$$$
