=
 OpenBabel11052419323D

 55 61  0  0  1  0  0  0  0  0999 V2000
  190.0160  175.0820  144.0000 C   0  0  0  0  0  2  0  0  0  0  0  0
  193.6770  172.1240  143.0540 C   0  0  0  0  0  2  0  0  0  0  0  0
  192.3810  172.1010  140.3500 O   0  0  0  0  0  0  0  0  0  0  0  0
  189.9860  172.3240  138.5260 C   0  0  0  0  0  3  0  0  0  0  0  0
  189.7950  172.4680  137.1820 C   0  0  0  0  0  3  0  0  0  0  0  0
  188.6170  174.2770  138.8870 C   0  0  0  0  0  0  0  0  0  0  0  0
  188.1850  174.2070  137.5580 C   0  0  0  0  0  3  0  0  0  0  0  0
  190.1880  171.9550  141.3540 C   0  0  0  0  0  2  0  0  0  0  0  0
  188.8190  173.3280  136.6940 C   0  0  0  0  0  3  0  0  0  0  0  0
  190.7800  176.1910  146.0840 C   0  0  0  0  0  3  0  0  0  0  0  0
  189.3900  173.2150  139.4200 C   0  0  0  0  0  0  0  0  0  0  0  0
  193.4070  175.4350  145.8040 C   0  0  0  0  0  0  0  0  0  0  0  0
  190.4490  174.8490  142.5580 C   0  0  0  0  0  2  0  0  0  0  0  0
  192.4660  175.0400  144.8310 C   0  0  0  0  0  3  0  0  0  0  0  0
  188.3590  175.2910  141.1200 C   0  0  2  0  0  3  0  0  0  0  0  0
  193.9130  172.1730  144.5950 C   0  0  0  0  0  2  0  0  0  0  0  0
  187.8900  175.0280  139.7550 O   0  0  0  0  0  0  0  0  0  0  0  0
  192.3080  171.8320  142.7070 N   0  0  0  0  0  2  0  0  0  0  0  0
  191.7140  172.0030  141.4100 C   0  0  0  0  0  0  0  0  0  0  0  0
  191.7020  176.5100  147.0830 C   0  0  0  0  0  3  0  0  0  0  0  0
  195.2100  172.7440  144.9930 C   0  0  1  0  0  3  0  0  0  0  0  0
  191.1320  175.4100  144.9930 C   0  0  0  0  0  0  0  0  0  0  0  0
  189.6650  173.1820  140.8130 N   0  0  0  0  0  0  0  0  0  0  0  0
  189.2560  174.2310  141.7740 C   0  0  1  0  0  3  0  0  0  0  0  0
  195.0140  173.7070  146.1610 C   0  0  0  0  0  2  0  0  0  0  0  0
  194.8200  175.1030  145.6350 C   0  0  0  0  0  2  0  0  0  0  0  0
  193.0430  176.2410  146.8700 C   0  0  0  0  0  3  0  0  0  0  0  0
  187.6710  177.5620  141.7440 C   0  0  0  0  0  3  0  0  0  0  0  0
  186.2150  177.9910  143.6350 C   0  0  0  0  0  0  0  0  0  0  0  0
  186.6460  175.6820  142.9450 C   0  0  0  0  0  3  0  0  0  0  0  0
  186.0730  176.5750  143.8170 C   0  0  0  0  0  3  0  0  0  0  0  0
  187.0520  178.4410  142.5740 C   0  0  0  0  0  3  0  0  0  0  0  0
  187.5230  176.1660  141.9340 C   0  0  0  0  0  0  0  0  0  0  0  0
  185.3790  178.8950  144.3470 C   0  0  0  0  0  0  0  0  0  0  0  0
  185.4630  180.2980  144.1730 O   0  0  0  0  0  0  0  0  0  0  0  0
  184.4940  178.4320  145.1930 O   0  0  0  0  0  1  0  0  0  0  0  0
  195.8880  170.7810  145.8600 O   0  0  0  0  0  0  0  0  0  0  0  0
  196.2300  171.7980  145.2590 C   0  0  0  0  0  0  0  0  0  0  0  0
  197.8880  172.1720  144.6500 S   0  0  0  0  0  0  0  0  0  0  0  0
  197.3070  172.6760  142.9710 C   0  0  2  0  0  3  0  0  0  0  0  0
  197.0010  171.5830  142.0920 F   0  0  0  0  0  0  0  0  0  0  0  0
  197.9000  173.9990  142.4280 C   0  0  2  0  0  3  0  0  0  0  0  0
  197.8980  174.9850  143.4260 O   0  0  0  0  0  1  0  0  0  0  0  0
  196.8370  174.5160  141.2960 C   0  0  2  0  0  3  0  0  0  0  0  0
  196.3490  175.3390  139.0900 O   0  0  0  0  0  0  0  0  0  0  0  0
  195.1380  173.4210  138.5570 O   0  0  0  0  0  1  0  0  0  0  0  0
  196.4290  173.9780  138.6880 C   0  0  1  0  0  0  0  0  0  0  0  0
  197.8120  173.4700  138.7400 C   0  0  1  0  0  0  0  0  0  0  0  0
  197.3080  174.5920  139.7640 C   0  0  2  0  0  0  0  0  0  0  0  0
  197.7370  172.1810  139.1840 O   0  0  0  0  0  1  0  0  0  0  0  0
  197.9410  173.8170  137.3360 C   0  0  0  0  0  2  0  0  0  0  0  0
  197.5040  172.7990  136.5200 O   0  0  0  0  0  1  0  0  0  0  0  0
  196.0290  175.6570  141.8240 C   0  0  0  0  0  0  0  0  0  0  0  0
  194.7460  175.4530  142.1110 C   0  0  0  0  0  2  0  0  0  0  0  0
  196.4890  176.9280  141.8370 O   0  0  0  0  0  1  0  0  0  0  0  0
  1 22  1  0  0  0  0
  2 16  1  0  0  0  0
  3 19  2  0  0  0  0
  4 11  1  0  0  0  0
  5  4  2  0  0  0  0
  6 11  2  0  0  0  0
  6 17  1  0  0  0  0
  7  6  1  0  0  0  0
  8 19  1  0  0  0  0
  9  5  1  0  0  0  0
  9  7  2  0  0  0  0
 10 20  1  0  0  0  0
 11 23  1  0  0  0  0
 12 27  1  0  0  0  0
 13  1  1  0  0  0  0
 14 22  1  0  0  0  0
 14 12  2  0  0  0  0
 15 24  1  0  0  0  0
 15 33  1  1  0  0  0
 16 21  1  0  0  0  0
 17 15  1  0  0  0  0
 18  2  1  0  0  0  0
 19 18  1  0  0  0  0
 21 38  1  1  0  0  0
 21 25  1  0  0  0  0
 22 10  2  0  0  0  0
 23  8  1  0  0  0  0
 23 24  1  0  0  0  0
 24 13  1  6  0  0  0
 26 12  1  0  0  0  0
 26 25  1  0  0  0  0
 27 20  2  0  0  0  0
 28 33  2  0  0  0  0
 28 32  1  0  0  0  0
 29 31  1  0  0  0  0
 29 34  1  0  0  0  0
 30 31  2  0  0  0  0
 32 29  2  0  0  0  0
 33 30  1  0  0  0  0
 34 36  1  0  0  0  0
 35 34  2  0  0  0  0
 38 37  2  0  0  0  0
 39 38  1  0  0  0  0
 40 41  1  6  0  0  0
 40 39  1  0  0  0  0
 42 40  1  0  0  0  0
 42 43  1  1  0  0  0
 44 53  1  1  0  0  0
 44 42  1  0  0  0  0
 45 49  1  0  0  0  0
 47 46  1  1  0  0  0
 47 48  1  0  0  0  0
 47 45  1  0  0  0  0
 47 49  1  0  0  0  0
 48 50  1  1  0  0  0
 48 49  1  0  0  0  0
 49 44  1  1  0  0  0
 51 48  1  0  0  0  0
 52 51  1  0  0  0  0
 53 55  1  0  0  0  0
 53 54  2  0  0  0  0
M  END
>  <MODEL>
1

>  <REMARK>
 VINA RESULT:      -7.8      0.000      0.000
  Name = 
  10 active torsions:
  status: ('A' for Active; 'I' for Inactive)
    1  A    between atoms: C_1  and  C_53
    2  A    between atoms: C_6  and  C_20
    3  A    between atoms: C_6  and  C_53
    4  A    between atoms: C_8  and  S_22
    5  A    between atoms: C_8  and  C_43
    6  A    between atoms: C_10  and  C_32
    7  A    between atoms: C_11  and  C_29
    8  A    between atoms: C_20  and  S_22
    9  A    between atoms: C_33  and  C_52
   10  A    between atoms: C_38  and  C_53
                            x       y       z     vdW  Elec       q    Type
                         _______ _______ _______ _____ _____    ______ ____

>  <TORSDO>
F 10

$$$$
=
 OpenBabel11052419323D

 55 61  0  0  1  0  0  0  0  0999 V2000
  189.4400  174.9740  143.9430 C   0  0  0  0  0  2  0  0  0  0  0  0
  192.6860  171.7290  142.5360 C   0  0  0  0  0  2  0  0  0  0  0  0
  191.4350  172.2870  139.8680 O   0  0  0  0  0  0  0  0  0  0  0  0
  189.1160  173.1000  138.1150 C   0  0  0  0  0  3  0  0  0  0  0  0
  188.9640  173.4700  136.8100 C   0  0  0  0  0  3  0  0  0  0  0  0
  188.0150  175.1430  138.7770 C   0  0  0  0  0  0  0  0  0  0  0  0
  187.5960  175.3320  137.4550 C   0  0  0  0  0  3  0  0  0  0  0  0
  189.2290  172.2870  140.8540 C   0  0  0  0  0  2  0  0  0  0  0  0
  188.1190  174.5160  136.4640 C   0  0  0  0  0  3  0  0  0  0  0  0
  190.3170  175.6440  146.1650 C   0  0  0  0  0  3  0  0  0  0  0  0
  188.6330  173.9180  139.1380 C   0  0  0  0  0  0  0  0  0  0  0  0
  192.8230  174.5950  145.7560 C   0  0  0  0  0  0  0  0  0  0  0  0
  189.8580  174.9050  142.4790 C   0  0  0  0  0  2  0  0  0  0  0  0
  191.8510  174.4800  144.7410 C   0  0  0  0  0  3  0  0  0  0  0  0
  187.8650  175.8350  141.1390 C   0  0  2  0  0  3  0  0  0  0  0  0
  192.9050  171.5130  144.0650 C   0  0  0  0  0  2  0  0  0  0  0  0
  187.3830  175.8450  139.7530 O   0  0  0  0  0  0  0  0  0  0  0  0
  191.2950  171.6780  142.1580 N   0  0  0  0  0  2  0  0  0  0  0  0
  190.7470  172.1210  140.9060 C   0  0  0  0  0  0  0  0  0  0  0  0
  191.2600  175.6830  147.1950 C   0  0  0  0  0  3  0  0  0  0  0  0
  194.2610  171.8380  144.5360 C   0  0  1  0  0  3  0  0  0  0  0  0
  190.5760  174.9960  144.9660 C   0  0  0  0  0  0  0  0  0  0  0  0
  188.8820  173.6400  140.5080 N   0  0  0  0  0  0  0  0  0  0  0  0
  188.6030  174.5780  141.6190 C   0  0  1  0  0  3  0  0  0  0  0  0
  194.1800  172.6330  145.8370 C   0  0  0  0  0  2  0  0  0  0  0  0
  194.1820  174.1050  145.5300 C   0  0  0  0  0  2  0  0  0  0  0  0
  192.5560  175.2720  146.9330 C   0  0  0  0  0  3  0  0  0  0  0  0
  186.3900  176.0320  143.0900 C   0  0  0  0  0  3  0  0  0  0  0  0
  185.4480  178.1570  143.7800 C   0  0  0  0  0  0  0  0  0  0  0  0
  187.1000  178.1010  141.9740 C   0  0  0  0  0  3  0  0  0  0  0  0
  186.2150  178.8040  142.7550 C   0  0  0  0  0  3  0  0  0  0  0  0
  185.5620  176.7420  143.8990 C   0  0  0  0  0  3  0  0  0  0  0  0
  187.1420  176.6820  142.0810 C   0  0  0  0  0  0  0  0  0  0  0  0
  184.7790  178.9270  144.7720 C   0  0  0  0  0  0  0  0  0  0  0  0
  184.4190  178.3880  146.0310 O   0  0  0  0  0  1  0  0  0  0  0  0
  184.4810  180.1780  144.5300 O   0  0  0  0  0  0  0  0  0  0  0  0
  194.6850  169.6370  144.3380 O   0  0  0  0  0  0  0  0  0  0  0  0
  195.1420  170.7360  144.6500 C   0  0  0  0  0  0  0  0  0  0  0  0
  196.8320  171.0740  145.1880 S   0  0  0  0  0  0  0  0  0  0  0  0
  197.2830  171.9950  143.6520 C   0  0  2  0  0  3  0  0  0  0  0  0
  197.9290  171.1990  142.6470 F   0  0  0  0  0  0  0  0  0  0  0  0
  197.6490  173.4860  143.8500 C   0  0  2  0  0  3  0  0  0  0  0  0
  197.5300  173.8470  145.2000 O   0  0  0  0  0  1  0  0  0  0  0  0
  196.4820  174.3240  143.0660 C   0  0  2  0  0  3  0  0  0  0  0  0
  197.0790  173.8720  140.7800 O   0  0  0  0  0  0  0  0  0  0  0  0
  196.5160  176.0360  140.1230 O   0  0  0  0  0  1  0  0  0  0  0  0
  196.0160  174.7570  140.4480 C   0  0  1  0  0  0  0  0  0  0  0  0
  194.6990  174.1680  140.7490 C   0  0  1  0  0  0  0  0  0  0  0  0
  195.9830  173.8060  141.6320 C   0  0  2  0  0  0  0  0  0  0  0  0
  193.9170  175.1830  141.2200 O   0  0  0  0  0  1  0  0  0  0  0  0
  194.6460  173.7030  139.3740 C   0  0  0  0  0  2  0  0  0  0  0  0
  194.3060  174.7170  138.5080 O   0  0  0  0  0  1  0  0  0  0  0  0
  196.7010  175.7950  143.2270 C   0  0  0  0  0  0  0  0  0  0  0  0
  197.9390  176.2710  143.1240 C   0  0  0  0  0  2  0  0  0  0  0  0
  195.7320  176.6290  143.6630 O   0  0  0  0  0  1  0  0  0  0  0  0
  1 22  1  0  0  0  0
  2 16  1  0  0  0  0
  3 19  2  0  0  0  0
  4 11  1  0  0  0  0
  5  4  2  0  0  0  0
  6 11  2  0  0  0  0
  6 17  1  0  0  0  0
  7  6  1  0  0  0  0
  8 19  1  0  0  0  0
  9  5  1  0  0  0  0
  9  7  2  0  0  0  0
 10 20  1  0  0  0  0
 11 23  1  0  0  0  0
 12 27  1  0  0  0  0
 13  1  1  0  0  0  0
 14 22  1  0  0  0  0
 14 12  2  0  0  0  0
 15 24  1  0  0  0  0
 15 33  1  1  0  0  0
 16 21  1  0  0  0  0
 17 15  1  0  0  0  0
 18  2  1  0  0  0  0
 19 18  1  0  0  0  0
 21 38  1  1  0  0  0
 21 25  1  0  0  0  0
 22 10  2  0  0  0  0
 23  8  1  0  0  0  0
 23 24  1  0  0  0  0
 24 13  1  6  0  0  0
 26 12  1  0  0  0  0
 26 25  1  0  0  0  0
 27 20  2  0  0  0  0
 28 32  1  0  0  0  0
 29 32  2  0  0  0  0
 29 34  1  0  0  0  0
 30 33  1  0  0  0  0
 30 31  2  0  0  0  0
 31 29  1  0  0  0  0
 33 28  2  0  0  0  0
 34 35  1  0  0  0  0
 36 34  2  0  0  0  0
 37 38  2  0  0  0  0
 38 39  1  0  0  0  0
 40 41  1  1  0  0  0
 40 42  1  0  0  0  0
 40 39  1  0  0  0  0
 42 43  1  1  0  0  0
 44 53  1  6  0  0  0
 44 42  1  0  0  0  0
 45 49  1  0  0  0  0
 47 46  1  1  0  0  0
 47 48  1  0  0  0  0
 47 45  1  0  0  0  0
 47 49  1  0  0  0  0
 48 50  1  1  0  0  0
 48 49  1  0  0  0  0
 49 44  1  1  0  0  0
 51 48  1  0  0  0  0
 52 51  1  0  0  0  0
 53 55  1  0  0  0  0
 54 53  2  0  0  0  0
M  END
>  <MODEL>
2

>  <REMARK>
 VINA RESULT:      -7.1      1.452      1.966
  Name = 
  10 active torsions:
  status: ('A' for Active; 'I' for Inactive)
    1  A    between atoms: C_1  and  C_53
    2  A    between atoms: C_6  and  C_20
    3  A    between atoms: C_6  and  C_53
    4  A    between atoms: C_8  and  S_22
    5  A    between atoms: C_8  and  C_43
    6  A    between atoms: C_10  and  C_32
    7  A    between atoms: C_11  and  C_29
    8  A    between atoms: C_20  and  S_22
    9  A    between atoms: C_33  and  C_52
   10  A    between atoms: C_38  and  C_53
                            x       y       z     vdW  Elec       q    Type
                         _______ _______ _______ _____ _____    ______ ____

>  <TORSDO>
F 10

$$$$
=
 OpenBabel11052419323D

 55 61  0  0  1  0  0  0  0  0999 V2000
  189.4260  175.1190  141.4530 C   0  0  0  0  0  2  0  0  0  0  0  0
  193.5310  172.7030  142.0530 C   0  0  0  0  0  2  0  0  0  0  0  0
  193.4190  174.0530  144.7290 O   0  0  0  0  0  0  0  0  0  0  0  0
  192.6090  176.3160  146.5550 C   0  0  0  0  0  3  0  0  0  0  0  0
  192.5600  176.5080  147.9050 C   0  0  0  0  0  3  0  0  0  0  0  0
  190.2800  176.9360  146.4250 C   0  0  0  0  0  0  0  0  0  0  0  0
  190.3500  177.4260  147.7340 C   0  0  0  0  0  3  0  0  0  0  0  0
  192.7040  176.1210  143.7030 C   0  0  0  0  0  2  0  0  0  0  0  0
  191.4820  177.1610  148.4890 C   0  0  0  0  0  3  0  0  0  0  0  0
  188.4140  173.9360  139.5230 C   0  0  0  0  0  3  0  0  0  0  0  0
  191.4750  176.5390  145.7720 C   0  0  0  0  0  0  0  0  0  0  0  0
  190.0360  171.7270  139.7220 C   0  0  0  0  0  0  0  0  0  0  0  0
  189.9520  174.8540  142.8590 C   0  0  0  0  0  2  0  0  0  0  0  0
  190.1980  172.7890  140.6350 C   0  0  0  0  0  3  0  0  0  0  0  0
  188.9950  176.7400  144.3300 C   0  0  2  0  0  3  0  0  0  0  0  0
  193.3930  172.3950  140.5310 C   0  0  0  0  0  2  0  0  0  0  0  0
  189.2360  177.3300  145.6510 O   0  0  0  0  0  0  0  0  0  0  0  0
  193.3820  174.1050  142.3560 N   0  0  0  0  0  2  0  0  0  0  0  0
  193.1670  174.6650  143.6610 C   0  0  0  0  0  0  0  0  0  0  0  0
  188.3140  172.9160  138.5740 C   0  0  0  0  0  3  0  0  0  0  0  0
  193.2510  170.9650  140.2100 C   0  0  1  0  0  3  0  0  0  0  0  0
  189.3850  173.9140  140.5130 C   0  0  0  0  0  0  0  0  0  0  0  0
  191.4420  176.2280  144.3860 N   0  0  0  0  0  0  0  0  0  0  0  0
  190.2150  176.2190  143.5570 C   0  0  1  0  0  3  0  0  0  0  0  0
  192.1540  170.7750  139.1660 C   0  0  0  0  0  2  0  0  0  0  0  0
  190.8420  170.5150  139.8560 C   0  0  0  0  0  2  0  0  0  0  0  0
  189.0420  171.7520  138.7600 C   0  0  0  0  0  3  0  0  0  0  0  0
  186.5580  176.6800  144.0550 C   0  0  0  0  0  3  0  0  0  0  0  0
  185.4500  177.7370  142.1740 C   0  0  0  0  0  0  0  0  0  0  0  0
  187.8560  178.0600  142.4930 C   0  0  0  0  0  3  0  0  0  0  0  0
  186.7180  178.2560  141.7490 C   0  0  0  0  0  3  0  0  0  0  0  0
  185.4260  176.9280  143.3460 C   0  0  0  0  0  3  0  0  0  0  0  0
  187.8040  177.1970  143.6240 C   0  0  0  0  0  0  0  0  0  0  0  0
  184.2460  178.1980  141.5740 C   0  0  0  0  0  0  0  0  0  0  0  0
  184.1750  178.5640  140.2070 O   0  0  0  0  0  0  0  0  0  0  0  0
  183.1560  178.2920  142.2930 O   0  0  0  0  0  1  0  0  0  0  0  0
  194.4220  169.0800  139.8390 O   0  0  0  0  0  0  0  0  0  0  0  0
  194.4490  170.3090  139.8370 C   0  0  0  0  0  0  0  0  0  0  0  0
  195.8490  171.3440  139.3570 S   0  0  0  0  0  0  0  0  0  0  0  0
  195.3490  171.4370  137.5820 C   0  0  2  0  0  3  0  0  0  0  0  0
  195.0640  170.1680  136.9740 F   0  0  0  0  0  0  0  0  0  0  0  0
  195.9850  172.5900  136.7670 C   0  0  2  0  0  3  0  0  0  0  0  0
  197.3210  172.7840  137.1510 O   0  0  0  0  0  1  0  0  0  0  0  0
  195.1910  173.9410  137.2380 C   0  0  2  0  0  3  0  0  0  0  0  0
  193.4630  175.5930  136.9780 O   0  0  0  0  0  0  0  0  0  0  0  0
  191.8460  174.1500  137.8320 O   0  0  0  0  0  1  0  0  0  0  0  0
  192.6100  174.4910  136.6960 C   0  0  1  0  0  0  0  0  0  0  0  0
  192.9200  173.8780  135.3920 C   0  0  1  0  0  0  0  0  0  0  0  0
  194.0680  174.5590  136.2740 C   0  0  2  0  0  0  0  0  0  0  0  0
  192.7670  172.5310  135.5480 O   0  0  0  0  0  1  0  0  0  0  0  0
  191.8980  174.7270  134.8050 C   0  0  0  0  0  2  0  0  0  0  0  0
  190.7040  174.0570  134.6590 O   0  0  0  0  0  1  0  0  0  0  0  0
  196.1350  174.8970  137.8950 C   0  0  0  0  0  0  0  0  0  0  0  0
  196.0720  175.0510  139.2150 C   0  0  0  0  0  2  0  0  0  0  0  0
  196.9090  175.7520  137.1910 O   0  0  0  0  0  1  0  0  0  0  0  0
  1 13  1  0  0  0  0
  2 18  1  0  0  0  0
  4  5  1  0  0  0  0
  5  9  2  0  0  0  0
  6  7  2  0  0  0  0
  7  9  1  0  0  0  0
  8 23  1  0  0  0  0
 10 22  1  0  0  0  0
 11  6  1  0  0  0  0
 11  4  2  0  0  0  0
 12 26  1  0  0  0  0
 12 14  1  0  0  0  0
 15 33  1  6  0  0  0
 15 17  1  0  0  0  0
 16  2  1  0  0  0  0
 17  6  1  0  0  0  0
 18 19  1  0  0  0  0
 19  8  1  0  0  0  0
 19  3  2  0  0  0  0
 20 27  1  0  0  0  0
 20 10  2  0  0  0  0
 21 38  1  6  0  0  0
 21 16  1  0  0  0  0
 22 14  2  0  0  0  0
 22  1  1  0  0  0  0
 23 11  1  0  0  0  0
 24 13  1  1  0  0  0
 24 15  1  0  0  0  0
 24 23  1  0  0  0  0
 25 26  1  0  0  0  0
 25 21  1  0  0  0  0
 27 12  2  0  0  0  0
 29 32  1  0  0  0  0
 30 33  2  0  0  0  0
 31 29  2  0  0  0  0
 31 30  1  0  0  0  0
 32 28  2  0  0  0  0
 33 28  1  0  0  0  0
 34 29  1  0  0  0  0
 34 36  1  0  0  0  0
 35 34  2  0  0  0  0
 38 37  2  0  0  0  0
 39 38  1  0  0  0  0
 40 41  1  6  0  0  0
 40 39  1  0  0  0  0
 42 43  1  1  0  0  0
 42 44  1  0  0  0  0
 42 40  1  0  0  0  0
 44 53  1  6  0  0  0
 47 45  1  0  0  0  0
 47 46  1  1  0  0  0
 48 50  1  6  0  0  0
 48 49  1  0  0  0  0
 48 47  1  0  0  0  0
 49 47  1  0  0  0  0
 49 45  1  0  0  0  0
 49 44  1  1  0  0  0
 51 48  1  0  0  0  0
 52 51  1  0  0  0  0
 53 54  2  0  0  0  0
 55 53  1  0  0  0  0
M  END
>  <MODEL>
3

>  <REMARK>
 VINA RESULT:      -6.9      2.733      6.007
  Name = 
  10 active torsions:
  status: ('A' for Active; 'I' for Inactive)
    1  A    between atoms: C_1  and  C_53
    2  A    between atoms: C_6  and  C_20
    3  A    between atoms: C_6  and  C_53
    4  A    between atoms: C_8  and  S_22
    5  A    between atoms: C_8  and  C_43
    6  A    between atoms: C_10  and  C_32
    7  A    between atoms: C_11  and  C_29
    8  A    between atoms: C_20  and  S_22
    9  A    between atoms: C_33  and  C_52
   10  A    between atoms: C_38  and  C_53
                            x       y       z     vdW  Elec       q    Type
                         _______ _______ _______ _____ _____    ______ ____

>  <TORSDO>
F 10

$$$$
=
 OpenBabel11052419323D

 55 61  0  0  1  0  0  0  0  0999 V2000
  189.8340  175.7030  144.2230 C   0  0  0  0  0  2  0  0  0  0  0  0
  192.8940  173.1110  141.5850 C   0  0  0  0  0  2  0  0  0  0  0  0
  190.9480  173.8340  139.4200 O   0  0  0  0  0  0  0  0  0  0  0  0
  188.1890  174.5540  138.4310 C   0  0  0  0  0  3  0  0  0  0  0  0
  187.6710  175.0630  137.2750 C   0  0  0  0  0  3  0  0  0  0  0  0
  187.1110  176.3370  139.6480 C   0  0  0  0  0  0  0  0  0  0  0  0
  186.3480  176.6350  138.5140 C   0  0  0  0  0  3  0  0  0  0  0  0
  189.0830  173.4230  140.9000 C   0  0  0  0  0  2  0  0  0  0  0  0
  186.6700  176.0260  137.3110 C   0  0  0  0  0  3  0  0  0  0  0  0
  191.1900  176.1960  146.2420 C   0  0  0  0  0  3  0  0  0  0  0  0
  187.9120  175.1670  139.6540 C   0  0  0  0  0  0  0  0  0  0  0  0
  193.5910  175.5400  145.0790 C   0  0  0  0  0  0  0  0  0  0  0  0
  189.8630  175.8740  142.7090 C   0  0  0  0  0  2  0  0  0  0  0  0
  192.4050  175.4290  144.3250 C   0  0  0  0  0  3  0  0  0  0  0  0
  187.5130  176.7000  142.0540 C   0  0  2  0  0  3  0  0  0  0  0  0
  193.5210  172.7340  142.9620 C   0  0  0  0  0  2  0  0  0  0  0  0
  186.6900  176.8220  140.8460 O   0  0  0  0  0  0  0  0  0  0  0  0
  191.4640  172.9280  141.5520 N   0  0  0  0  0  2  0  0  0  0  0  0
  190.5710  173.4500  140.5560 C   0  0  0  0  0  0  0  0  0  0  0  0
  192.3590  176.2260  147.0050 C   0  0  0  0  0  3  0  0  0  0  0  0
  194.9160  173.1700  143.1340 C   0  0  1  0  0  3  0  0  0  0  0  0
  191.1890  175.7440  144.9310 C   0  0  0  0  0  0  0  0  0  0  0  0
  188.5330  174.7520  140.8630 N   0  0  0  0  0  0  0  0  0  0  0  0
  188.4650  175.4980  142.1400 C   0  0  1  0  0  3  0  0  0  0  0  0
  195.1010  173.7760  144.5230 C   0  0  0  0  0  2  0  0  0  0  0  0
  194.8850  175.2640  144.4560 C   0  0  0  0  0  2  0  0  0  0  0  0
  193.5760  176.0230  146.3760 C   0  0  0  0  0  3  0  0  0  0  0  0
  186.7010  176.4660  144.3570 C   0  0  0  0  0  3  0  0  0  0  0  0
  185.6700  178.3090  145.5500 C   0  0  0  0  0  0  0  0  0  0  0  0
  186.6690  178.7060  143.3500 C   0  0  0  0  0  3  0  0  0  0  0  0
  185.9620  179.1640  144.4350 C   0  0  0  0  0  3  0  0  0  0  0  0
  186.0540  176.9410  145.4530 C   0  0  0  0  0  3  0  0  0  0  0  0
  186.9830  177.3200  143.2630 C   0  0  0  0  0  0  0  0  0  0  0  0
  185.2190  178.8620  146.7810 C   0  0  0  0  0  0  0  0  0  0  0  0
  184.0080  178.4540  147.3920 O   0  0  0  0  0  1  0  0  0  0  0  0
  185.9350  179.7760  147.3830 O   0  0  0  0  0  0  0  0  0  0  0  0
  196.6850  171.9320  143.7650 O   0  0  0  0  0  0  0  0  0  0  0  0
  195.8950  172.1860  142.8580 C   0  0  0  0  0  0  0  0  0  0  0  0
  195.8410  171.3910  141.2370 S   0  0  0  0  0  0  0  0  0  0  0  0
  197.1300  172.4900  140.5020 C   0  0  2  0  0  3  0  0  0  0  0  0
  197.5170  173.5950  141.3330 F   0  0  0  0  0  0  0  0  0  0  0  0
  197.0950  172.6220  138.9600 C   0  0  2  0  0  3  0  0  0  0  0  0
  197.9240  173.6730  138.5380 O   0  0  0  0  0  1  0  0  0  0  0  0
  195.5690  173.0940  138.6010 C   0  0  2  0  0  3  0  0  0  0  0  0
  193.4510  172.7650  137.5120 O   0  0  0  0  0  0  0  0  0  0  0  0
  192.8650  171.0650  138.9940 O   0  0  0  0  0  1  0  0  0  0  0  0
  193.6200  171.3930  137.8480 C   0  0  1  0  0  0  0  0  0  0  0  0
  194.6940  170.7640  137.0580 C   0  0  1  0  0  0  0  0  0  0  0  0
  194.7640  172.3120  137.4540 C   0  0  2  0  0  0  0  0  0  0  0  0
  195.3420  169.9030  137.8980 O   0  0  0  0  0  1  0  0  0  0  0  0
  193.6800  170.3320  136.1130 C   0  0  0  0  0  2  0  0  0  0  0  0
  193.4030  168.9910  136.2430 O   0  0  0  0  0  1  0  0  0  0  0  0
  195.4680  174.5850  138.6170 C   0  0  0  0  0  0  0  0  0  0  0  0
  194.8840  175.1740  139.6580 C   0  0  0  0  0  2  0  0  0  0  0  0
  195.7640  175.3450  137.5400 O   0  0  0  0  0  1  0  0  0  0  0  0
  1 22  1  0  0  0  0
  2 16  1  0  0  0  0
  3 19  2  0  0  0  0
  4 11  1  0  0  0  0
  5  9  1  0  0  0  0
  5  4  2  0  0  0  0
  6 11  2  0  0  0  0
  6 17  1  0  0  0  0
  7  6  1  0  0  0  0
  9  7  2  0  0  0  0
 10 20  1  0  0  0  0
 11 23  1  0  0  0  0
 12 27  1  0  0  0  0
 13  1  1  0  0  0  0
 14 22  1  0  0  0  0
 14 12  2  0  0  0  0
 15 24  1  0  0  0  0
 15 33  1  1  0  0  0
 16 21  1  0  0  0  0
 17 15  1  0  0  0  0
 18  2  1  0  0  0  0
 19  8  1  0  0  0  0
 19 18  1  0  0  0  0
 21 38  1  1  0  0  0
 21 25  1  0  0  0  0
 22 10  2  0  0  0  0
 23  8  1  0  0  0  0
 23 24  1  0  0  0  0
 24 13  1  6  0  0  0
 26 25  1  0  0  0  0
 26 12  1  0  0  0  0
 27 20  2  0  0  0  0
 28 32  1  0  0  0  0
 29 34  1  0  0  0  0
 30 31  2  0  0  0  0
 31 29  1  0  0  0  0
 32 29  2  0  0  0  0
 33 30  1  0  0  0  0
 33 28  2  0  0  0  0
 34 36  2  0  0  0  0
 34 35  1  0  0  0  0
 38 37  2  0  0  0  0
 39 38  1  0  0  0  0
 40 39  1  0  0  0  0
 40 41  1  1  0  0  0
 42 43  1  1  0  0  0
 42 40  1  0  0  0  0
 44 53  1  6  0  0  0
 44 42  1  0  0  0  0
 45 47  1  0  0  0  0
 47 46  1  1  0  0  0
 48 49  1  0  0  0  0
 48 47  1  0  0  0  0
 48 50  1  1  0  0  0
 49 45  1  0  0  0  0
 49 47  1  0  0  0  0
 49 44  1  1  0  0  0
 51 52  1  0  0  0  0
 51 48  1  0  0  0  0
 53 54  2  0  0  0  0
 55 53  1  0  0  0  0
M  END
>  <MODEL>
4

>  <REMARK>
 VINA RESULT:      -6.7      2.104      2.917
  Name = 
  10 active torsions:
  status: ('A' for Active; 'I' for Inactive)
    1  A    between atoms: C_1  and  C_53
    2  A    between atoms: C_6  and  C_20
    3  A    between atoms: C_6  and  C_53
    4  A    between atoms: C_8  and  S_22
    5  A    between atoms: C_8  and  C_43
    6  A    between atoms: C_10  and  C_32
    7  A    between atoms: C_11  and  C_29
    8  A    between atoms: C_20  and  S_22
    9  A    between atoms: C_33  and  C_52
   10  A    between atoms: C_38  and  C_53
                            x       y       z     vdW  Elec       q    Type
                         _______ _______ _______ _____ _____    ______ ____

>  <TORSDO>
F 10

$$$$
=
 OpenBabel11052419323D

 55 61  0  0  1  0  0  0  0  0999 V2000
  189.7360  175.3580  144.0660 C   0  0  0  0  0  2  0  0  0  0  0  0
  192.6780  172.7350  141.3250 C   0  0  0  0  0  2  0  0  0  0  0  0
  190.7850  173.6530  139.1880 O   0  0  0  0  0  0  0  0  0  0  0  0
  188.0720  174.5570  138.2210 C   0  0  0  0  0  3  0  0  0  0  0  0
  187.5880  175.1430  137.0870 C   0  0  0  0  0  3  0  0  0  0  0  0
  187.0780  176.3350  139.5130 C   0  0  0  0  0  0  0  0  0  0  0  0
  186.3380  176.7230  138.3910 C   0  0  0  0  0  3  0  0  0  0  0  0
  188.8920  173.2720  140.6400 C   0  0  0  0  0  2  0  0  0  0  0  0
  186.6370  176.1530  137.1630 C   0  0  0  0  0  3  0  0  0  0  0  0
  191.1020  175.6900  146.1110 C   0  0  0  0  0  3  0  0  0  0  0  0
  187.8190  175.1270  139.4700 C   0  0  0  0  0  0  0  0  0  0  0  0
  193.4740  174.9660  144.9290 C   0  0  0  0  0  0  0  0  0  0  0  0
  189.7840  175.5960  142.5610 C   0  0  0  0  0  2  0  0  0  0  0  0
  192.2890  174.9490  144.1670 C   0  0  0  0  0  3  0  0  0  0  0  0
  187.4820  176.5680  141.9350 C   0  0  2  0  0  3  0  0  0  0  0  0
  193.2760  172.2650  142.6870 C   0  0  0  0  0  2  0  0  0  0  0  0
  186.6750  176.7870  140.7300 O   0  0  0  0  0  0  0  0  0  0  0  0
  191.2400  172.6270  141.2790 N   0  0  0  0  0  2  0  0  0  0  0  0
  190.3820  173.2380  140.3030 C   0  0  0  0  0  0  0  0  0  0  0  0
  192.2670  175.6260  146.8790 C   0  0  0  0  0  3  0  0  0  0  0  0
  194.6900  172.6220  142.8840 C   0  0  1  0  0  3  0  0  0  0  0  0
  191.0870  175.2980  144.7800 C   0  0  0  0  0  0  0  0  0  0  0  0
  188.4100  174.6270  140.6610 N   0  0  0  0  0  0  0  0  0  0  0  0
  188.3720  175.3170  141.9700 C   0  0  1  0  0  3  0  0  0  0  0  0
  194.8960  173.1550  144.3000 C   0  0  0  0  0  2  0  0  0  0  0  0
  194.7560  174.6520  144.3000 C   0  0  0  0  0  2  0  0  0  0  0  0
  193.4760  175.3900  146.2470 C   0  0  0  0  0  3  0  0  0  0  0  0
  186.3890  176.2820  144.1120 C   0  0  0  0  0  3  0  0  0  0  0  0
  185.6780  178.1750  145.4520 C   0  0  0  0  0  0  0  0  0  0  0  0
  186.9780  178.5620  143.4140 C   0  0  0  0  0  3  0  0  0  0  0  0
  186.2780  179.0520  144.4890 C   0  0  0  0  0  3  0  0  0  0  0  0
  185.7490  176.7740  145.2050 C   0  0  0  0  0  3  0  0  0  0  0  0
  186.9770  177.1590  143.1680 C   0  0  0  0  0  0  0  0  0  0  0  0
  185.2310  178.6790  146.7050 C   0  0  0  0  0  0  0  0  0  0  0  0
  186.0200  179.5530  147.4920 O   0  0  0  0  0  1  0  0  0  0  0  0
  184.0520  178.3370  147.1590 O   0  0  0  0  0  0  0  0  0  0  0  0
  196.6240  171.5400  143.2750 O   0  0  0  0  0  0  0  0  0  0  0  0
  195.6200  171.6020  142.5680 C   0  0  0  0  0  0  0  0  0  0  0  0
  195.2040  170.4920  141.2050 S   0  0  0  0  0  0  0  0  0  0  0  0
  196.0420  171.5270  139.9250 C   0  0  2  0  0  3  0  0  0  0  0  0
  197.2340  172.1870  140.3770 F   0  0  0  0  0  0  0  0  0  0  0  0
  195.1070  172.1870  138.8830 C   0  0  2  0  0  3  0  0  0  0  0  0
  194.1510  171.2670  138.4270 O   0  0  0  0  0  1  0  0  0  0  0  0
  196.0600  172.5090  137.5910 C   0  0  2  0  0  3  0  0  0  0  0  0
  196.6900  173.9130  135.7440 O   0  0  0  0  0  0  0  0  0  0  0  0
  197.3060  175.6480  137.1720 O   0  0  0  0  0  1  0  0  0  0  0  0
  196.2250  174.9880  136.5510 C   0  0  1  0  0  0  0  0  0  0  0  0
  194.7570  174.9720  136.6930 C   0  0  1  0  0  0  0  0  0  0  0  0
  195.5820  173.6120  136.5280 C   0  0  2  0  0  0  0  0  0  0  0  0
  194.4860  175.3550  137.9750 O   0  0  0  0  0  1  0  0  0  0  0  0
  194.6870  175.8840  135.5650 C   0  0  0  0  0  2  0  0  0  0  0  0
  193.7320  176.8560  135.7570 O   0  0  0  0  0  1  0  0  0  0  0  0
  196.6490  171.2450  137.0520 C   0  0  0  0  0  0  0  0  0  0  0  0
  197.9320  170.9860  137.2920 C   0  0  0  0  0  2  0  0  0  0  0  0
  195.9940  170.4550  136.1730 O   0  0  0  0  0  1  0  0  0  0  0  0
  1 22  1  0  0  0  0
  2 16  1  0  0  0  0
  3 19  2  0  0  0  0
  4 11  1  0  0  0  0
  5  9  1  0  0  0  0
  5  4  2  0  0  0  0
  6 17  1  0  0  0  0
  7  6  1  0  0  0  0
  8 23  1  0  0  0  0
  9  7  2  0  0  0  0
 10 20  1  0  0  0  0
 11  6  2  0  0  0  0
 11 23  1  0  0  0  0
 12 27  1  0  0  0  0
 13  1  1  0  0  0  0
 14 22  1  0  0  0  0
 14 12  2  0  0  0  0
 15 24  1  0  0  0  0
 15 33  1  1  0  0  0
 16 21  1  0  0  0  0
 17 15  1  0  0  0  0
 18  2  1  0  0  0  0
 19  8  1  0  0  0  0
 19 18  1  0  0  0  0
 21 38  1  1  0  0  0
 21 25  1  0  0  0  0
 22 10  2  0  0  0  0
 23 24  1  0  0  0  0
 24 13  1  6  0  0  0
 26 25  1  0  0  0  0
 26 12  1  0  0  0  0
 27 20  2  0  0  0  0
 28 32  1  0  0  0  0
 29 34  1  0  0  0  0
 30 31  2  0  0  0  0
 31 29  1  0  0  0  0
 32 29  2  0  0  0  0
 33 30  1  0  0  0  0
 33 28  2  0  0  0  0
 34 36  2  0  0  0  0
 34 35  1  0  0  0  0
 38 37  2  0  0  0  0
 39 38  1  0  0  0  0
 40 41  1  1  0  0  0
 40 39  1  0  0  0  0
 42 43  1  6  0  0  0
 42 40  1  0  0  0  0
 44 53  1  6  0  0  0
 44 42  1  0  0  0  0
 45 49  1  0  0  0  0
 45 47  1  0  0  0  0
 47 48  1  0  0  0  0
 47 46  1  1  0  0  0
 48 50  1  1  0  0  0
 49 47  1  0  0  0  0
 49 48  1  0  0  0  0
 49 44  1  1  0  0  0
 51 52  1  0  0  0  0
 51 48  1  0  0  0  0
 53 54  2  0  0  0  0
 55 53  1  0  0  0  0
M  END
>  <MODEL>
5

>  <REMARK>
 VINA RESULT:      -6.3      2.105      3.380
  Name = 
  10 active torsions:
  status: ('A' for Active; 'I' for Inactive)
    1  A    between atoms: C_1  and  C_53
    2  A    between atoms: C_6  and  C_20
    3  A    between atoms: C_6  and  C_53
    4  A    between atoms: C_8  and  S_22
    5  A    between atoms: C_8  and  C_43
    6  A    between atoms: C_10  and  C_32
    7  A    between atoms: C_11  and  C_29
    8  A    between atoms: C_20  and  S_22
    9  A    between atoms: C_33  and  C_52
   10  A    between atoms: C_38  and  C_53
                            x       y       z     vdW  Elec       q    Type
                         _______ _______ _______ _____ _____    ______ ____

>  <TORSDO>
F 10

$$$$
=
 OpenBabel11052419323D

 55 61  0  0  1  0  0  0  0  0999 V2000
  189.4980  175.3550  144.2490 C   0  0  0  0  0  2  0  0  0  0  0  0
  192.6090  172.8340  141.5990 C   0  0  0  0  0  2  0  0  0  0  0  0
  190.7940  173.7520  139.3960 O   0  0  0  0  0  0  0  0  0  0  0  0
  188.1090  174.6210  138.3240 C   0  0  0  0  0  3  0  0  0  0  0  0
  187.6640  175.2160  137.1790 C   0  0  0  0  0  3  0  0  0  0  0  0
  187.0240  176.3580  139.5990 C   0  0  0  0  0  0  0  0  0  0  0  0
  186.3270  176.7500  138.4510 C   0  0  0  0  0  3  0  0  0  0  0  0
  188.8470  173.3100  140.7560 C   0  0  0  0  0  2  0  0  0  0  0  0
  186.6910  176.2060  137.2290 C   0  0  0  0  0  3  0  0  0  0  0  0
  190.7660  175.6770  146.3570 C   0  0  0  0  0  3  0  0  0  0  0  0
  187.7900  175.1650  139.5690 C   0  0  0  0  0  0  0  0  0  0  0  0
  193.2020  175.0190  145.2700 C   0  0  0  0  0  0  0  0  0  0  0  0
  189.6070  175.6180  142.7520 C   0  0  0  0  0  2  0  0  0  0  0  0
  192.0520  174.9920  144.4560 C   0  0  0  0  0  3  0  0  0  0  0  0
  187.3170  176.5570  142.0400 C   0  0  2  0  0  3  0  0  0  0  0  0
  193.1550  172.3530  142.9780 C   0  0  0  0  0  2  0  0  0  0  0  0
  186.5590  176.7810  140.8040 O   0  0  0  0  0  0  0  0  0  0  0  0
  191.1770  172.7000  141.4880 N   0  0  0  0  0  2  0  0  0  0  0  0
  190.3510  173.3110  140.4850 C   0  0  0  0  0  0  0  0  0  0  0  0
  191.8970  175.6220  147.1750 C   0  0  0  0  0  3  0  0  0  0  0  0
  194.5520  172.7330  143.2440 C   0  0  1  0  0  3  0  0  0  0  0  0
  190.8170  175.3070  145.0210 C   0  0  0  0  0  0  0  0  0  0  0  0
  188.3380  174.6560  140.7770 N   0  0  0  0  0  0  0  0  0  0  0  0
  188.2290  175.3230  142.0940 C   0  0  1  0  0  3  0  0  0  0  0  0
  194.6860  173.2450  144.6760 C   0  0  0  0  0  2  0  0  0  0  0  0
  194.5160  174.7400  144.6940 C   0  0  0  0  0  2  0  0  0  0  0  0
  193.1370  175.4200  146.5940 C   0  0  0  0  0  3  0  0  0  0  0  0
  186.3790  178.4850  143.2320 C   0  0  0  0  0  3  0  0  0  0  0  0
  185.9230  178.4270  145.6130 C   0  0  0  0  0  0  0  0  0  0  0  0
  186.6250  176.3790  144.4700 C   0  0  0  0  0  3  0  0  0  0  0  0
  186.2960  177.0420  145.6270 C   0  0  0  0  0  3  0  0  0  0  0  0
  185.9970  179.1200  144.3700 C   0  0  0  0  0  3  0  0  0  0  0  0
  186.7460  177.1180  143.2590 C   0  0  0  0  0  0  0  0  0  0  0  0
  185.2950  179.0150  146.7460 C   0  0  0  0  0  0  0  0  0  0  0  0
  186.0370  179.5930  147.8050 O   0  0  0  0  0  1  0  0  0  0  0  0
  183.9890  179.0330  146.8280 O   0  0  0  0  0  0  0  0  0  0  0  0
  195.5250  170.7540  143.6920 O   0  0  0  0  0  0  0  0  0  0  0  0
  195.5150  171.7370  142.9530 C   0  0  0  0  0  0  0  0  0  0  0  0
  196.5750  172.0000  141.5150 S   0  0  0  0  0  0  0  0  0  0  0  0
  197.6830  173.1990  142.3790 C   0  0  2  0  0  3  0  0  0  0  0  0
  197.7140  173.0600  143.8080 F   0  0  0  0  0  0  0  0  0  0  0  0
  197.8220  174.5860  141.7060 C   0  0  2  0  0  3  0  0  0  0  0  0
  197.4240  175.6020  142.5870 O   0  0  0  0  0  1  0  0  0  0  0  0
  196.7170  174.5920  140.4980 C   0  0  2  0  0  3  0  0  0  0  0  0
  196.3000  175.2550  138.2250 O   0  0  0  0  0  0  0  0  0  0  0  0
  195.0650  173.3240  137.8060 O   0  0  0  0  0  1  0  0  0  0  0  0
  196.3620  173.8660  137.9290 C   0  0  1  0  0  0  0  0  0  0  0  0
  197.7340  173.3400  138.0550 C   0  0  1  0  0  0  0  0  0  0  0  0
  197.2270  174.5440  138.9770 C   0  0  2  0  0  0  0  0  0  0  0  0
  197.6230  172.0890  138.5910 O   0  0  0  0  0  1  0  0  0  0  0  0
  197.9040  173.5770  136.6320 C   0  0  0  0  0  2  0  0  0  0  0  0
  197.8320  172.4080  135.9100 O   0  0  0  0  0  1  0  0  0  0  0  0
  195.6010  175.5340  140.8190 C   0  0  0  0  0  0  0  0  0  0  0  0
  195.9010  176.7420  141.2890 C   0  0  0  0  0  2  0  0  0  0  0  0
  194.3070  175.1460  140.8400 O   0  0  0  0  0  1  0  0  0  0  0  0
  1 22  1  0  0  0  0
  2 16  1  0  0  0  0
  3 19  2  0  0  0  0
  4 11  1  0  0  0  0
  5  9  1  0  0  0  0
  5  4  2  0  0  0  0
  6 17  1  0  0  0  0
  7  6  1  0  0  0  0
  8 23  1  0  0  0  0
  9  7  2  0  0  0  0
 10 20  1  0  0  0  0
 11  6  2  0  0  0  0
 11 23  1  0  0  0  0
 12 27  1  0  0  0  0
 13  1  1  0  0  0  0
 14 22  1  0  0  0  0
 14 12  2  0  0  0  0
 15 24  1  0  0  0  0
 15 33  1  1  0  0  0
 16 21  1  0  0  0  0
 17 15  1  0  0  0  0
 18  2  1  0  0  0  0
 19  8  1  0  0  0  0
 19 18  1  0  0  0  0
 21 38  1  1  0  0  0
 21 25  1  0  0  0  0
 22 10  2  0  0  0  0
 23 24  1  0  0  0  0
 24 13  1  6  0  0  0
 25 26  1  0  0  0  0
 26 12  1  0  0  0  0
 27 20  2  0  0  0  0
 28 33  2  0  0  0  0
 28 32  1  0  0  0  0
 29 31  1  0  0  0  0
 29 34  1  0  0  0  0
 30 31  2  0  0  0  0
 32 29  2  0  0  0  0
 33 30  1  0  0  0  0
 34 36  2  0  0  0  0
 34 35  1  0  0  0  0
 38 37  2  0  0  0  0
 39 40  1  0  0  0  0
 39 38  1  0  0  0  0
 40 41  1  1  0  0  0
 42 40  1  0  0  0  0
 42 43  1  1  0  0  0
 44 53  1  6  0  0  0
 44 42  1  0  0  0  0
 45 49  1  0  0  0  0
 47 46  1  1  0  0  0
 47 48  1  0  0  0  0
 47 45  1  0  0  0  0
 47 49  1  0  0  0  0
 48 50  1  1  0  0  0
 48 49  1  0  0  0  0
 49 44  1  1  0  0  0
 51 48  1  0  0  0  0
 52 51  1  0  0  0  0
 53 55  1  0  0  0  0
 53 54  2  0  0  0  0
M  END
>  <MODEL>
6

>  <REMARK>
 VINA RESULT:      -6.2      1.547      1.942
  Name = 
  10 active torsions:
  status: ('A' for Active; 'I' for Inactive)
    1  A    between atoms: C_1  and  C_53
    2  A    between atoms: C_6  and  C_20
    3  A    between atoms: C_6  and  C_53
    4  A    between atoms: C_8  and  S_22
    5  A    between atoms: C_8  and  C_43
    6  A    between atoms: C_10  and  C_32
    7  A    between atoms: C_11  and  C_29
    8  A    between atoms: C_20  and  S_22
    9  A    between atoms: C_33  and  C_52
   10  A    between atoms: C_38  and  C_53
                            x       y       z     vdW  Elec       q    Type
                         _______ _______ _______ _____ _____    ______ ____

>  <TORSDO>
F 10

$$$$
=
 OpenBabel11052419323D

 55 61  0  0  1  0  0  0  0  0999 V2000
  188.4110  174.9890  140.5920 C   0  0  0  0  0  2  0  0  0  0  0  0
  190.5310  173.4340  144.6090 C   0  0  0  0  0  2  0  0  0  0  0  0
  192.0410  171.7560  142.6350 O   0  0  0  0  0  0  0  0  0  0  0  0
  192.2930  170.2800  140.0140 C   0  0  0  0  0  3  0  0  0  0  0  0
  193.3190  169.7350  139.2980 C   0  0  0  0  0  3  0  0  0  0  0  0
  191.6710  171.5620  138.0670 C   0  0  0  0  0  0  0  0  0  0  0  0
  192.5110  170.7610  137.2850 C   0  0  0  0  0  3  0  0  0  0  0  0
  190.0120  171.3030  141.4030 C   0  0  0  0  0  2  0  0  0  0  0  0
  193.3740  169.8800  137.9180 C   0  0  0  0  0  3  0  0  0  0  0  0
  187.3500  177.0970  141.3560 C   0  0  0  0  0  3  0  0  0  0  0  0
  191.4280  171.1980  139.4160 C   0  0  0  0  0  0  0  0  0  0  0  0
  188.8300  177.2830  143.6630 C   0  0  0  0  0  0  0  0  0  0  0  0
  189.7740  174.3110  140.5170 C   0  0  0  0  0  2  0  0  0  0  0  0
  189.0380  176.1930  142.7950 C   0  0  0  0  0  3  0  0  0  0  0  0
  189.9190  173.2960  138.1540 C   0  0  2  0  0  3  0  0  0  0  0  0
  189.4080  174.2420  145.3300 C   0  0  0  0  0  2  0  0  0  0  0  0
  190.7280  172.3070  137.4330 O   0  0  0  0  0  0  0  0  0  0  0  0
  190.0190  172.5540  143.5880 N   0  0  0  0  0  2  0  0  0  0  0  0
  190.7950  171.9090  142.5660 C   0  0  0  0  0  0  0  0  0  0  0  0
  187.0950  178.1300  142.2610 C   0  0  0  0  0  3  0  0  0  0  0  0
  189.8980  175.3480  146.1680 C   0  0  1  0  0  3  0  0  0  0  0  0
  188.2670  176.0960  141.6380 C   0  0  0  0  0  0  0  0  0  0  0  0
  190.4300  171.8870  140.1560 N   0  0  0  0  0  0  0  0  0  0  0  0
  189.6450  173.0320  139.6420 C   0  0  1  0  0  3  0  0  0  0  0  0
  189.0400  176.5900  145.9380 C   0  0  0  0  0  2  0  0  0  0  0  0
  189.6580  177.4370  144.8590 C   0  0  0  0  0  2  0  0  0  0  0  0
  187.9330  178.2900  143.3520 C   0  0  0  0  0  3  0  0  0  0  0  0
  189.4580  174.5620  136.1050 C   0  0  0  0  0  3  0  0  0  0  0  0
  187.4300  175.8630  135.8270 C   0  0  0  0  0  0  0  0  0  0  0  0
  187.6870  174.4390  137.8010 C   0  0  0  0  0  3  0  0  0  0  0  0
  186.9660  175.3670  137.0900 C   0  0  0  0  0  3  0  0  0  0  0  0
  188.7120  175.4350  135.3780 C   0  0  0  0  0  3  0  0  0  0  0  0
  188.9890  174.0800  137.3510 C   0  0  0  0  0  0  0  0  0  0  0  0
  186.5490  176.5740  134.9650 C   0  0  0  0  0  0  0  0  0  0  0  0
  185.3210  176.0250  134.5220 O   0  0  0  0  0  0  0  0  0  0  0  0
  186.8670  177.7770  134.5600 O   0  0  0  0  0  1  0  0  0  0  0  0
  189.0680  174.5010  148.0800 O   0  0  0  0  0  0  0  0  0  0  0  0
  190.0300  175.0510  147.5450 C   0  0  0  0  0  0  0  0  0  0  0  0
  191.5980  175.4650  148.3390 S   0  0  0  0  0  0  0  0  0  0  0  0
  192.6210  174.9890  146.8770 C   0  0  2  0  0  3  0  0  0  0  0  0
  192.7670  173.5730  146.6850 F   0  0  0  0  0  0  0  0  0  0  0  0
  193.7640  175.9680  146.5130 C   0  0  2  0  0  3  0  0  0  0  0  0
  193.2420  177.1550  145.9770 O   0  0  0  0  0  1  0  0  0  0  0  0
  194.5730  175.2490  145.2850 C   0  0  2  0  0  3  0  0  0  0  0  0
  196.8500  174.5390  144.9760 O   0  0  0  0  0  0  0  0  0  0  0  0
  196.2870  173.2910  143.0900 O   0  0  0  0  0  1  0  0  0  0  0  0
  196.2860  173.3230  144.5010 C   0  0  1  0  0  0  0  0  0  0  0  0
  195.6610  172.5470  145.5880 C   0  0  1  0  0  0  0  0  0  0  0  0
  195.6870  174.1460  145.6280 C   0  0  2  0  0  0  0  0  0  0  0  0
  194.5340  171.9820  145.0640 O   0  0  0  0  0  1  0  0  0  0  0  0
  196.9140  171.8270  145.7290 C   0  0  0  0  0  2  0  0  0  0  0  0
  196.7580  170.6780  146.4700 O   0  0  0  0  0  1  0  0  0  0  0  0
  194.9000  176.2480  144.2220 C   0  0  0  0  0  0  0  0  0  0  0  0
  194.3210  176.1250  143.0310 C   0  0  0  0  0  2  0  0  0  0  0  0
  195.9000  177.1480  144.3540 O   0  0  0  0  0  1  0  0  0  0  0  0
  1 22  1  0  0  0  0
  2 16  1  0  0  0  0
  5  4  2  0  0  0  0
  6 11  2  0  0  0  0
  7  9  2  0  0  0  0
  7  6  1  0  0  0  0
  8 19  1  0  0  0  0
  9  5  1  0  0  0  0
 10 22  2  0  0  0  0
 10 20  1  0  0  0  0
 11  4  1  0  0  0  0
 11 23  1  0  0  0  0
 12 26  1  0  0  0  0
 13  1  1  0  0  0  0
 14 12  2  0  0  0  0
 15 33  1  6  0  0  0
 15 24  1  0  0  0  0
 16 21  1  0  0  0  0
 17  6  1  0  0  0  0
 17 15  1  0  0  0  0
 18  2  1  0  0  0  0
 19  3  2  0  0  0  0
 19 18  1  0  0  0  0
 20 27  2  0  0  0  0
 21 38  1  1  0  0  0
 22 14  1  0  0  0  0
 23  8  1  0  0  0  0
 24 23  1  0  0  0  0
 24 13  1  1  0  0  0
 25 21  1  0  0  0  0
 26 25  1  0  0  0  0
 27 12  1  0  0  0  0
 28 33  1  0  0  0  0
 29 31  2  0  0  0  0
 31 30  1  0  0  0  0
 32 29  1  0  0  0  0
 32 28  2  0  0  0  0
 33 30  2  0  0  0  0
 34 29  1  0  0  0  0
 35 34  2  0  0  0  0
 36 34  1  0  0  0  0
 38 37  2  0  0  0  0
 38 39  1  0  0  0  0
 40 41  1  1  0  0  0
 40 39  1  0  0  0  0
 42 43  1  6  0  0  0
 42 40  1  0  0  0  0
 44 53  1  1  0  0  0
 44 42  1  0  0  0  0
 45 49  1  0  0  0  0
 47 46  1  6  0  0  0
 47 45  1  0  0  0  0
 47 48  1  0  0  0  0
 47 49  1  0  0  0  0
 48 50  1  6  0  0  0
 48 49  1  0  0  0  0
 48 51  1  0  0  0  0
 49 44  1  6  0  0  0
 51 52  1  0  0  0  0
 53 55  1  0  0  0  0
 54 53  2  0  0  0  0
M  END
>  <MODEL>
7

>  <REMARK>
 VINA RESULT:      -6.1      3.256      5.931
  Name = 
  10 active torsions:
  status: ('A' for Active; 'I' for Inactive)
    1  A    between atoms: C_1  and  C_53
    2  A    between atoms: C_6  and  C_20
    3  A    between atoms: C_6  and  C_53
    4  A    between atoms: C_8  and  S_22
    5  A    between atoms: C_8  and  C_43
    6  A    between atoms: C_10  and  C_32
    7  A    between atoms: C_11  and  C_29
    8  A    between atoms: C_20  and  S_22
    9  A    between atoms: C_33  and  C_52
   10  A    between atoms: C_38  and  C_53
                            x       y       z     vdW  Elec       q    Type
                         _______ _______ _______ _____ _____    ______ ____

>  <TORSDO>
F 10

$$$$
=
 OpenBabel11052419323D

 55 61  0  0  1  0  0  0  0  0999 V2000
  189.3460  175.2810  141.2590 C   0  0  0  0  0  2  0  0  0  0  0  0
  193.7490  173.3780  141.4460 C   0  0  0  0  0  2  0  0  0  0  0  0
  193.6340  174.4980  144.2260 O   0  0  0  0  0  0  0  0  0  0  0  0
  192.6610  176.4930  146.2710 C   0  0  0  0  0  3  0  0  0  0  0  0
  192.6720  176.5750  147.6340 C   0  0  0  0  0  3  0  0  0  0  0  0
  190.2700  176.8150  146.3140 C   0  0  0  0  0  0  0  0  0  0  0  0
  190.3580  177.2100  147.6530 C   0  0  0  0  0  3  0  0  0  0  0  0
  192.6050  176.5270  143.4130 C   0  0  0  0  0  2  0  0  0  0  0  0
  191.5590  177.0380  148.3240 C   0  0  0  0  0  3  0  0  0  0  0  0
  188.3720  174.1250  139.2920 C   0  0  0  0  0  3  0  0  0  0  0  0
  191.4620  176.6250  145.5690 C   0  0  0  0  0  0  0  0  0  0  0  0
  190.2670  172.1370  139.2260 C   0  0  0  0  0  0  0  0  0  0  0  0
  189.9860  174.9820  142.6100 C   0  0  0  0  0  2  0  0  0  0  0  0
  190.3510  173.1390  140.2140 C   0  0  0  0  0  3  0  0  0  0  0  0
  188.8930  176.6120  144.2780 C   0  0  2  0  0  3  0  0  0  0  0  0
  193.5570  173.1700  139.9130 C   0  0  0  0  0  2  0  0  0  0  0  0
  189.1390  177.1280  145.6290 O   0  0  0  0  0  0  0  0  0  0  0  0
  193.4450  174.7230  141.8710 N   0  0  0  0  0  2  0  0  0  0  0  0
  193.2420  175.1510  143.2270 C   0  0  0  0  0  0  0  0  0  0  0  0
  188.3430  173.1750  138.2690 C   0  0  0  0  0  3  0  0  0  0  0  0
  193.5760  171.7620  139.4840 C   0  0  1  0  0  3  0  0  0  0  0  0
  189.3970  174.1550  140.2260 C   0  0  0  0  0  0  0  0  0  0  0  0
  191.3840  176.4180  144.1660 N   0  0  0  0  0  0  0  0  0  0  0  0
  190.1190  176.3130  143.4030 C   0  0  1  0  0  3  0  0  0  0  0  0
  192.4480  171.5110  138.4850 C   0  0  0  0  0  2  0  0  0  0  0  0
  191.2250  171.0320  139.2180 C   0  0  0  0  0  2  0  0  0  0  0  0
  189.2200  172.1050  138.3210 C   0  0  0  0  0  3  0  0  0  0  0  0
  187.6220  177.9750  142.6830 C   0  0  0  0  0  3  0  0  0  0  0  0
  185.1970  177.9740  142.6380 C   0  0  0  0  0  0  0  0  0  0  0  0
  186.3760  176.3990  144.0950 C   0  0  0  0  0  3  0  0  0  0  0  0
  185.2020  176.9490  143.6410 C   0  0  0  0  0  3  0  0  0  0  0  0
  186.4560  178.4730  142.1950 C   0  0  0  0  0  3  0  0  0  0  0  0
  187.6130  176.9630  143.6740 C   0  0  0  0  0  0  0  0  0  0  0  0
  183.9920  178.3120  141.9610 C   0  0  0  0  0  0  0  0  0  0  0  0
  182.8110  178.6710  142.6560 O   0  0  0  0  0  1  0  0  0  0  0  0
  183.9570  178.3000  140.6530 O   0  0  0  0  0  0  0  0  0  0  0  0
  195.7670  172.0760  139.0820 O   0  0  0  0  0  0  0  0  0  0  0  0
  194.8200  171.2970  138.9960 C   0  0  0  0  0  0  0  0  0  0  0  0
  194.8830  169.6090  138.3540 S   0  0  0  0  0  0  0  0  0  0  0  0
  194.9880  168.8310  140.0260 C   0  0  2  0  0  3  0  0  0  0  0  0
  193.7300  168.3900  140.5600 F   0  0  0  0  0  0  0  0  0  0  0  0
  196.1020  169.3800  140.9500 C   0  0  2  0  0  3  0  0  0  0  0  0
  197.1990  168.5060  140.9720 O   0  0  0  0  0  1  0  0  0  0  0  0
  195.4710  169.3330  142.4600 C   0  0  2  0  0  3  0  0  0  0  0  0
  194.6010  171.0850  143.8590 O   0  0  0  0  0  0  0  0  0  0  0  0
  193.8160  169.5510  145.4270 O   0  0  0  0  0  1  0  0  0  0  0  0
  193.5690  170.1610  144.1780 C   0  0  1  0  0  0  0  0  0  0  0  0
  192.6640  169.9330  143.0370 C   0  0  1  0  0  0  0  0  0  0  0  0
  194.2120  170.2650  142.8060 C   0  0  2  0  0  0  0  0  0  0  0  0
  192.3350  168.6080  143.0600 O   0  0  0  0  0  1  0  0  0  0  0  0
  191.8020  170.9700  143.5750 C   0  0  0  0  0  2  0  0  0  0  0  0
  190.7950  171.2990  142.6970 O   0  0  0  0  0  1  0  0  0  0  0  0
  196.5640  169.2490  143.4780 C   0  0  0  0  0  0  0  0  0  0  0  0
  197.5230  170.1710  143.4620 C   0  0  0  0  0  2  0  0  0  0  0  0
  196.7260  168.1750  144.2810 O   0  0  0  0  0  1  0  0  0  0  0  0
  1 13  1  0  0  0  0
  2 18  1  0  0  0  0
  4  5  1  0  0  0  0
  5  9  2  0  0  0  0
  6  7  2  0  0  0  0
  7  9  1  0  0  0  0
  8 23  1  0  0  0  0
 10 22  1  0  0  0  0
 11  4  2  0  0  0  0
 11  6  1  0  0  0  0
 12 14  1  0  0  0  0
 14 22  2  0  0  0  0
 15 33  1  6  0  0  0
 15 17  1  0  0  0  0
 16  2  1  0  0  0  0
 17  6  1  0  0  0  0
 18 19  1  0  0  0  0
 19  8  1  0  0  0  0
 19  3  2  0  0  0  0
 20 27  1  0  0  0  0
 20 10  2  0  0  0  0
 21 38  1  6  0  0  0
 21 16  1  0  0  0  0
 22  1  1  0  0  0  0
 23 11  1  0  0  0  0
 24 13  1  1  0  0  0
 24 23  1  0  0  0  0
 24 15  1  0  0  0  0
 25 26  1  0  0  0  0
 25 21  1  0  0  0  0
 26 12  1  0  0  0  0
 27 12  2  0  0  0  0
 28 33  1  0  0  0  0
 29 31  2  0  0  0  0
 31 30  1  0  0  0  0
 32 29  1  0  0  0  0
 32 28  2  0  0  0  0
 33 30  2  0  0  0  0
 34 29  1  0  0  0  0
 34 35  1  0  0  0  0
 36 34  2  0  0  0  0
 38 37  2  0  0  0  0
 39 38  1  0  0  0  0
 39 40  1  0  0  0  0
 40 41  1  1  0  0  0
 40 42  1  0  0  0  0
 42 43  1  1  0  0  0
 42 44  1  0  0  0  0
 44 53  1  1  0  0  0
 45 47  1  0  0  0  0
 47 46  1  1  0  0  0
 48 50  1  6  0  0  0
 48 51  1  0  0  0  0
 48 47  1  0  0  0  0
 49 44  1  6  0  0  0
 49 48  1  0  0  0  0
 49 45  1  0  0  0  0
 49 47  1  0  0  0  0
 52 51  1  0  0  0  0
 53 55  1  0  0  0  0
 54 53  2  0  0  0  0
M  END
>  <MODEL>
8

>  <REMARK>
 VINA RESULT:      -5.7      2.796      6.558
  Name = 
  10 active torsions:
  status: ('A' for Active; 'I' for Inactive)
    1  A    between atoms: C_1  and  C_53
    2  A    between atoms: C_6  and  C_20
    3  A    between atoms: C_6  and  C_53
    4  A    between atoms: C_8  and  S_22
    5  A    between atoms: C_8  and  C_43
    6  A    between atoms: C_10  and  C_32
    7  A    between atoms: C_11  and  C_29
    8  A    between atoms: C_20  and  S_22
    9  A    between atoms: C_33  and  C_52
   10  A    between atoms: C_38  and  C_53
                            x       y       z     vdW  Elec       q    Type
                         _______ _______ _______ _____ _____    ______ ____

>  <TORSDO>
F 10

$$$$
=
 OpenBabel11052419323D

 55 61  0  0  1  0  0  0  0  0999 V2000
  190.7560  174.8470  141.6700 C   0  0  0  0  0  2  0  0  0  0  0  0
  194.0100  173.3380  138.4790 C   0  0  0  0  0  2  0  0  0  0  0  0
  195.7570  173.3540  140.9160 O   0  0  0  0  0  0  0  0  0  0  0  0
  196.5420  174.3860  143.6410 C   0  0  0  0  0  3  0  0  0  0  0  0
  197.3720  173.9660  144.6410 C   0  0  0  0  0  3  0  0  0  0  0  0
  194.7400  174.4920  145.2420 C   0  0  0  0  0  0  0  0  0  0  0  0
  195.6700  174.3770  146.2810 C   0  0  0  0  0  3  0  0  0  0  0  0
  194.8100  175.4570  141.6350 C   0  0  0  0  0  2  0  0  0  0  0  0
  196.9830  174.0610  145.9710 C   0  0  0  0  0  3  0  0  0  0  0  0
  188.6270  174.4200  140.4700 C   0  0  0  0  0  3  0  0  0  0  0  0
  195.2050  174.6770  143.9150 C   0  0  0  0  0  0  0  0  0  0  0  0
  189.7410  172.7390  138.6040 C   0  0  0  0  0  0  0  0  0  0  0  0
  192.0090  174.1230  142.1490 C   0  0  0  0  0  2  0  0  0  0  0  0
  190.5630  173.3150  139.5940 C   0  0  0  0  0  3  0  0  0  0  0  0
  192.4140  174.9460  144.5550 C   0  0  2  0  0  3  0  0  0  0  0  0
  192.9150  173.6910  137.4260 C   0  0  0  0  0  2  0  0  0  0  0  0
  193.4970  174.9500  145.5460 O   0  0  0  0  0  0  0  0  0  0  0  0
  194.2510  174.4080  139.4150 N   0  0  0  0  0  2  0  0  0  0  0  0
  194.9680  174.2960  140.6550 C   0  0  0  0  0  0  0  0  0  0  0  0
  187.8360  173.9100  139.4380 C   0  0  0  0  0  3  0  0  0  0  0  0
  192.4360  172.5430  136.6400 C   0  0  1  0  0  3  0  0  0  0  0  0
  189.9930  174.1830  140.5230 C   0  0  0  0  0  0  0  0  0  0  0  0
  194.2760  174.9910  142.8870 N   0  0  0  0  0  0  0  0  0  0  0  0
  192.8110  175.0790  143.0780 C   0  0  1  0  0  3  0  0  0  0  0  0
  190.9130  172.5900  136.5300 C   0  0  0  0  0  2  0  0  0  0  0  0
  190.3020  171.7880  137.6460 C   0  0  0  0  0  2  0  0  0  0  0  0
  188.3750  172.9630  138.5840 C   0  0  0  0  0  3  0  0  0  0  0  0
  190.8060  176.7720  144.8630 C   0  0  0  0  0  3  0  0  0  0  0  0
  188.7680  176.4870  146.1470 C   0  0  0  0  0  0  0  0  0  0  0  0
  190.1850  174.5440  145.6890 C   0  0  0  0  0  3  0  0  0  0  0  0
  189.0860  175.0960  146.2990 C   0  0  0  0  0  3  0  0  0  0  0  0
  189.6850  177.3000  145.4200 C   0  0  0  0  0  3  0  0  0  0  0  0
  191.1090  175.3970  145.0220 C   0  0  0  0  0  0  0  0  0  0  0  0
  187.4840  176.9760  146.5160 C   0  0  0  0  0  0  0  0  0  0  0  0
  186.7930  176.4970  147.6560 O   0  0  0  0  0  1  0  0  0  0  0  0
  186.9090  177.9020  145.7920 O   0  0  0  0  0  0  0  0  0  0  0  0
  193.2170  173.4040  134.7140 O   0  0  0  0  0  0  0  0  0  0  0  0
  193.0470  172.3810  135.3740 C   0  0  0  0  0  0  0  0  0  0  0  0
  193.5470  170.7110  134.9000 S   0  0  0  0  0  0  0  0  0  0  0  0
  194.8570  170.5870  136.1950 C   0  0  2  0  0  3  0  0  0  0  0  0
  195.7760  171.6910  136.2230 F   0  0  0  0  0  0  0  0  0  0  0  0
  195.3210  169.1520  136.5430 C   0  0  2  0  0  3  0  0  0  0  0  0
  194.2810  168.2340  136.3290 O   0  0  0  0  0  1  0  0  0  0  0  0
  195.5740  169.1600  138.1600 C   0  0  2  0  0  3  0  0  0  0  0  0
  195.2150  170.1550  140.3200 O   0  0  0  0  0  0  0  0  0  0  0  0
  194.2850  168.1900  141.1580 O   0  0  0  0  0  1  0  0  0  0  0  0
  194.0510  169.3410  140.3750 C   0  0  1  0  0  0  0  0  0  0  0  0
  193.0150  169.8000  139.4320 C   0  0  1  0  0  0  0  0  0  0  0  0
  194.5690  169.9850  139.1010 C   0  0  2  0  0  0  0  0  0  0  0  0
  192.4260  168.6770  138.9230 O   0  0  0  0  0  1  0  0  0  0  0  0
  192.4380  170.5730  140.5170 C   0  0  0  0  0  2  0  0  0  0  0  0
  191.3530  169.9340  141.0740 O   0  0  0  0  0  1  0  0  0  0  0  0
  197.0360  169.2650  138.4570 C   0  0  0  0  0  0  0  0  0  0  0  0
  197.6400  168.2450  139.0610 C   0  0  0  0  0  2  0  0  0  0  0  0
  197.7230  170.4200  138.3190 O   0  0  0  0  0  1  0  0  0  0  0  0
  1 13  1  0  0  0  0
  2 18  1  0  0  0  0
  4 11  2  0  0  0  0
  4  5  1  0  0  0  0
  5  9  2  0  0  0  0
  6 17  1  0  0  0  0
  6  7  2  0  0  0  0
  8 23  1  0  0  0  0
  9  7  1  0  0  0  0
 10 22  1  0  0  0  0
 11  6  1  0  0  0  0
 12 14  1  0  0  0  0
 14 22  2  0  0  0  0
 15 33  1  1  0  0  0
 15 17  1  0  0  0  0
 16  2  1  0  0  0  0
 18 19  1  0  0  0  0
 19  3  2  0  0  0  0
 19  8  1  0  0  0  0
 20 10  2  0  0  0  0
 21 38  1  6  0  0  0
 21 16  1  0  0  0  0
 22  1  1  0  0  0  0
 23 24  1  0  0  0  0
 23 11  1  0  0  0  0
 24 13  1  6  0  0  0
 24 15  1  0  0  0  0
 25 21  1  0  0  0  0
 25 26  1  0  0  0  0
 26 12  1  0  0  0  0
 27 12  2  0  0  0  0
 27 20  1  0  0  0  0
 28 33  2  0  0  0  0
 28 32  1  0  0  0  0
 29 31  1  0  0  0  0
 29 34  1  0  0  0  0
 30 31  2  0  0  0  0
 32 29  2  0  0  0  0
 33 30  1  0  0  0  0
 34 35  1  0  0  0  0
 36 34  2  0  0  0  0
 37 38  2  0  0  0  0
 39 38  1  0  0  0  0
 39 40  1  0  0  0  0
 40 41  1  6  0  0  0
 40 42  1  0  0  0  0
 42 43  1  1  0  0  0
 42 44  1  0  0  0  0
 44 53  1  6  0  0  0
 45 47  1  0  0  0  0
 47 46  1  1  0  0  0
 48 50  1  6  0  0  0
 48 47  1  0  0  0  0
 48 51  1  0  0  0  0
 49 44  1  6  0  0  0
 49 48  1  0  0  0  0
 49 45  1  0  0  0  0
 49 47  1  0  0  0  0
 51 52  1  0  0  0  0
 53 54  2  0  0  0  0
 55 53  1  0  0  0  0
M  END
>  <MODEL>
9

>  <REMARK>
 VINA RESULT:      -5.6      3.326      7.233
  Name = 
  10 active torsions:
  status: ('A' for Active; 'I' for Inactive)
    1  A    between atoms: C_1  and  C_53
    2  A    between atoms: C_6  and  C_20
    3  A    between atoms: C_6  and  C_53
    4  A    between atoms: C_8  and  S_22
    5  A    between atoms: C_8  and  C_43
    6  A    between atoms: C_10  and  C_32
    7  A    between atoms: C_11  and  C_29
    8  A    between atoms: C_20  and  S_22
    9  A    between atoms: C_33  and  C_52
   10  A    between atoms: C_38  and  C_53
                            x       y       z     vdW  Elec       q    Type
                         _______ _______ _______ _____ _____    ______ ____

>  <TORSDO>
F 10

$$$$
