=
 OpenBabel11052419363D

 55 59  0  0  1  0  0  0  0  0999 V2000
  188.6740  175.8460  146.8730 C   0  0  0  0  0  2  0  0  0  0  0  0
  191.3790  176.5120  146.3400 C   0  0  0  0  0  0  0  0  0  0  0  0
  191.1710  175.1420  146.9290 C   0  0  0  0  0  2  0  0  0  0  0  0
  189.2230  177.1970  147.3020 C   0  0  0  0  0  2  0  0  0  0  0  0
  189.6920  174.7260  147.1210 C   0  0  2  0  0  3  0  0  0  0  0  0
  190.4660  177.4750  146.5200 C   0  0  0  0  0  3  0  0  0  0  0  0
  192.5650  176.7570  145.6420 O   0  0  0  0  0  0  0  0  0  0  0  0
  193.8540  176.5210  146.1980 C   0  0  0  0  0  2  0  0  0  0  0  0
  194.9150  177.1000  145.2880 C   0  0  0  0  0  2  0  0  0  0  0  0
  195.0970  176.1950  144.0820 C   0  0  0  0  0  2  0  0  0  0  0  0
  196.4240  175.4480  144.1470 C   0  0  1  0  0  3  0  0  0  0  0  0
  196.2200  173.9370  144.0340 C   0  0  0  0  0  2  0  0  0  0  0  0
  196.6980  171.1010  145.3220 C   0  0  0  0  0  0  0  0  0  0  0  0
  193.5910  173.2700  144.0960 F   0  0  0  0  0  0  0  0  0  0  0  0
  195.6760  173.3370  145.3310 C   0  0  1  0  0  3  0  0  0  0  0  0
  194.2360  168.5010  144.7170 N   0  0  0  0  0  2  0  0  0  0  0  0
  193.5380  173.0380  146.3210 F   0  0  0  0  0  0  0  0  0  0  0  0
  194.2540  172.7190  145.1830 C   0  0  0  0  0  0  0  0  0  0  0  0
  197.7010  170.3810  145.5710 O   0  0  0  0  0  0  0  0  0  0  0  0
  193.2100  169.1680  143.9200 C   0  0  0  0  0  2  0  0  0  0  0  0
  193.0080  170.6080  144.3980 C   0  0  0  0  0  2  0  0  0  0  0  0
  195.5720  170.6100  144.4670 C   0  0  2  0  0  3  0  0  0  0  0  0
  194.2730  171.1790  145.0570 C   0  0  1  0  0  3  0  0  0  0  0  0
  195.5420  169.0710  144.3690 C   0  0  0  0  0  2  0  0  0  0  0  0
  196.6230  172.3950  145.8390 O   0  0  0  0  0  0  0  0  0  0  0  0
  197.4050  175.9770  143.0960 C   0  0  0  0  0  2  0  0  0  0  0  0
  197.3660  174.3990  141.1590 O   0  0  0  0  0  1  0  0  0  0  0  0
  197.0060  175.6280  141.6960 C   0  0  0  0  0  0  0  0  0  0  0  0
  196.3730  176.4560  140.9930 O   0  0  0  0  0  0  0  0  0  0  0  0
  189.3470  173.5500  146.2240 C   0  0  0  0  0  2  0  0  0  0  0  0
  190.3660  173.3880  145.1110 C   0  0  0  0  0  2  0  0  0  0  0  0
  189.7680  172.5360  144.0110 C   0  0  0  0  0  2  0  0  0  0  0  0
  190.5000  172.7850  142.7070 C   0  0  0  0  0  2  0  0  0  0  0  0
  190.1250  174.1680  142.1510 C   0  0  1  0  0  3  0  0  0  0  0  0
  192.3060  175.0930  141.8330 C   0  0  0  0  0  2  0  0  0  0  0  0
  192.9250  173.8100  139.8960 C   0  0  1  0  0  3  0  0  0  0  0  0
  191.0800  174.6740  141.1550 N   0  0  0  0  0  0  0  0  0  0  0  0
  191.4500  173.6450  140.1830 C   0  0  0  0  0  2  0  0  0  0  0  0
  193.4840  174.4180  141.1590 C   0  0  0  0  0  2  0  0  0  0  0  0
  193.5670  172.4920  139.5730 C   0  0  0  0  0  0  0  0  0  0  0  0
  194.9030  172.2580  139.8770 O   0  0  0  0  0  1  0  0  0  0  0  0
  192.9100  171.6080  138.9630 O   0  0  0  0  0  0  0  0  0  0  0  0
  188.7100  174.1780  141.5720 C   0  0  0  0  0  2  0  0  0  0  0  0
  186.6460  178.2080  142.3510 C   0  0  0  0  0  2  0  0  0  0  0  0
  186.3290  177.1310  141.3200 C   0  0  0  0  0  2  0  0  0  0  0  0
  188.7050  176.0470  143.1700 C   0  0  0  0  0  3  0  0  0  0  0  0
  187.9000  175.3400  142.1190 C   0  0  1  0  0  3  0  0  0  0  0  0
  187.5530  176.2910  140.9790 C   0  0  0  0  0  2  0  0  0  0  0  0
  188.2260  177.0650  143.8960 C   0  0  0  0  0  3  0  0  0  0  0  0
  186.8330  177.6050  143.7380 C   0  0  1  0  0  3  0  0  0  0  0  0
  186.5790  178.6850  144.7840 C   0  0  0  0  0  2  0  0  0  0  0  0
  184.1820  178.9240  145.3120 C   0  0  0  0  0  1  0  0  0  0  0  0
  185.7970  178.8910  147.1660 C   0  0  0  0  0  1  0  0  0  0  0  0
  185.3150  176.8210  145.8890 C   0  0  0  0  0  1  0  0  0  0  0  0
  185.4850  178.3260  145.7930 C   0  0  0  0  0  0  0  0  0  0  0  0
  1  5  1  0  0  0  0
  1  4  1  0  0  0  0
  2  6  2  0  0  0  0
  2  3  1  0  0  0  0
  3  5  1  0  0  0  0
  5 30  1  6  0  0  0
  6  4  1  0  0  0  0
  7  8  1  0  0  0  0
  7  2  1  0  0  0  0
  9  8  1  0  0  0  0
 10 11  1  0  0  0  0
 10  9  1  0  0  0  0
 11 26  1  6  0  0  0
 12 11  1  0  0  0  0
 13 19  2  0  0  0  0
 13 25  1  0  0  0  0
 14 18  1  0  0  0  0
 15 12  1  6  0  0  0
 15 25  1  0  0  0  0
 18 15  1  0  0  0  0
 18 17  1  0  0  0  0
 20 21  1  0  0  0  0
 20 16  1  0  0  0  0
 22 24  1  1  0  0  0
 22 23  1  0  0  0  0
 22 13  1  0  0  0  0
 23 21  1  6  0  0  0
 23 18  1  0  0  0  0
 24 16  1  0  0  0  0
 27 28  1  0  0  0  0
 28 26  1  0  0  0  0
 29 28  2  0  0  0  0
 31 30  1  0  0  0  0
 32 31  1  0  0  0  0
 33 32  1  0  0  0  0
 34 43  1  6  0  0  0
 34 33  1  0  0  0  0
 36 40  1  1  0  0  0
 36 38  1  0  0  0  0
 36 39  1  0  0  0  0
 37 35  1  0  0  0  0
 37 34  1  0  0  0  0
 38 37  1  0  0  0  0
 39 35  1  0  0  0  0
 40 41  1  0  0  0  0
 42 40  2  0  0  0  0
 44 50  1  0  0  0  0
 45 44  1  0  0  0  0
 46 49  2  0  0  0  0
 47 43  1  6  0  0  0
 47 46  1  0  0  0  0
 48 45  1  0  0  0  0
 48 47  1  0  0  0  0
 50 49  1  0  0  0  0
 50 51  1  1  0  0  0
 51 55  1  0  0  0  0
 52 55  1  0  0  0  0
 55 54  1  0  0  0  0
 55 53  1  0  0  0  0
M  END
>  <MODEL>
1

>  <REMARK>
 VINA RESULT:      -6.8      0.000      0.000
  Name = 
  20 active torsions:
  status: ('A' for Active; 'I' for Inactive)
    1  A    between atoms: C_2  and  C_28
    2  A    between atoms: C_2  and  C_44
    3  A    between atoms: C_6  and  C_46
    4  A    between atoms: C_8  and  C_20
    5  A    between atoms: C_8  and  C_22
    6  A    between atoms: C_10  and  C_32
    7  A    between atoms: C_17  and  C_36
    8  A    between atoms: C_19  and  C_40
    9  A    between atoms: C_19  and  C_45
   10  A    between atoms: C_22  and  C_35
   11  A    between atoms: C_22  and  C_46
   12  A    between atoms: C_27  and  O_54
   13  A    between atoms: C_28  and  C_49
   14  A    between atoms: C_33  and  C_49
   15  A    between atoms: C_33  and  C_52
   16  A    between atoms: N_34  and  C_52
   17  A    between atoms: C_35  and  C_43
   18  A    between atoms: C_36  and  C_52
   19  A    between atoms: C_43  and  C_51
   20  A    between atoms: C_51  and  O_54
                            x       y       z     vdW  Elec       q    Type
                         _______ _______ _______ _____ _____    ______ ____

>  <TORSDO>
F 20

$$$$
=
 OpenBabel11052419363D

 55 59  0  0  1  0  0  0  0  0999 V2000
  190.6540  171.7320  142.8210 C   0  0  0  0  0  2  0  0  0  0  0  0
  193.4260  172.0140  142.2880 C   0  0  0  0  0  0  0  0  0  0  0  0
  192.5360  172.9520  141.5160 C   0  0  0  0  0  2  0  0  0  0  0  0
  191.5080  170.5010  142.5600 C   0  0  0  0  0  2  0  0  0  0  0  0
  191.0330  172.8820  141.8800 C   0  0  2  0  0  3  0  0  0  0  0  0
  192.9420  170.8640  142.7730 C   0  0  0  0  0  3  0  0  0  0  0  0
  194.7710  172.3590  142.4430 O   0  0  0  0  0  0  0  0  0  0  0  0
  195.6260  172.6570  141.3460 C   0  0  0  0  0  2  0  0  0  0  0  0
  195.5060  171.5710  140.2990 C   0  0  0  0  0  2  0  0  0  0  0  0
  196.3750  171.9200  139.1030 C   0  0  0  0  0  2  0  0  0  0  0  0
  195.5280  172.2860  137.8900 C   0  0  1  0  0  3  0  0  0  0  0  0
  194.0610  172.4790  138.2720 C   0  0  0  0  0  2  0  0  0  0  0  0
  191.6080  173.7340  136.7410 C   0  0  0  0  0  0  0  0  0  0  0  0
  192.2740  170.6390  139.1580 F   0  0  0  0  0  0  0  0  0  0  0  0
  193.1180  171.8580  137.2400 C   0  0  1  0  0  3  0  0  0  0  0  0
  188.2780  173.1700  138.0730 N   0  0  0  0  0  2  0  0  0  0  0  0
  191.7590  169.9160  137.1050 F   0  0  0  0  0  0  0  0  0  0  0  0
  191.9480  171.0490  137.8730 C   0  0  0  0  0  0  0  0  0  0  0  0
  191.3960  174.7950  136.0950 O   0  0  0  0  0  0  0  0  0  0  0  0
  188.5050  172.3110  139.2320 C   0  0  0  0  0  2  0  0  0  0  0  0
  189.6220  171.3040  138.9460 C   0  0  0  0  0  2  0  0  0  0  0  0
  190.7760  173.3550  137.9260 C   0  0  2  0  0  3  0  0  0  0  0  0
  190.6140  171.8280  137.8960 C   0  0  1  0  0  3  0  0  0  0  0  0
  189.4170  174.0850  137.9400 C   0  0  0  0  0  2  0  0  0  0  0  0
  192.6490  172.8850  136.3630 O   0  0  0  0  0  0  0  0  0  0  0  0
  196.1010  173.5100  137.1680 C   0  0  0  0  0  2  0  0  0  0  0  0
  194.6710  175.5430  136.9130 O   0  0  0  0  0  0  0  0  0  0  0  0
  195.5560  174.8040  137.6870 C   0  0  0  0  0  0  0  0  0  0  0  0
  195.9200  175.2400  138.8090 O   0  0  0  0  0  1  0  0  0  0  0  0
  190.5730  174.1890  142.5020 C   0  0  0  0  0  2  0  0  0  0  0  0
  189.7360  174.9990  141.5280 C   0  0  0  0  0  2  0  0  0  0  0  0
  188.2970  175.0070  141.9990 C   0  0  0  0  0  2  0  0  0  0  0  0
  187.7020  176.3910  141.8250 C   0  0  0  0  0  2  0  0  0  0  0  0
  187.7670  177.1600  143.1530 C   0  0  1  0  0  3  0  0  0  0  0  0
  185.6400  178.0090  142.4660 C   0  0  0  0  0  2  0  0  0  0  0  0
  185.0270  179.0660  144.5380 C   0  0  1  0  0  3  0  0  0  0  0  0
  186.8680  178.3220  143.1980 N   0  0  0  0  0  0  0  0  0  0  0  0
  186.4830  178.6610  144.5680 C   0  0  0  0  0  2  0  0  0  0  0  0
  184.4560  178.3110  143.3630 C   0  0  0  0  0  2  0  0  0  0  0  0
  184.3380  178.7150  145.8240 C   0  0  0  0  0  0  0  0  0  0  0  0
  182.9950  179.0190  146.0170 O   0  0  0  0  0  0  0  0  0  0  0  0
  184.9940  178.1940  146.7640 O   0  0  0  0  0  1  0  0  0  0  0  0
  187.5000  176.2450  144.3480 C   0  0  0  0  0  2  0  0  0  0  0  0
  190.8950  175.5970  147.3750 C   0  0  0  0  0  2  0  0  0  0  0  0
  189.5640  174.8690  147.2290 C   0  0  0  0  0  2  0  0  0  0  0  0
  189.8030  176.9650  144.8220 C   0  0  0  0  0  3  0  0  0  0  0  0
  188.7890  175.8860  145.0650 C   0  0  1  0  0  3  0  0  0  0  0  0
  188.5090  175.7390  146.5560 C   0  0  0  0  0  2  0  0  0  0  0  0
  191.0670  176.8930  145.2570 C   0  0  0  0  0  3  0  0  0  0  0  0
  191.6050  175.7230  146.0310 C   0  0  1  0  0  3  0  0  0  0  0  0
  193.0980  175.9130  146.2780 C   0  0  0  0  0  2  0  0  0  0  0  0
  194.0180  175.3480  144.0610 C   0  0  0  0  0  1  0  0  0  0  0  0
  193.4270  173.5160  145.5910 C   0  0  0  0  0  1  0  0  0  0  0  0
  195.4020  174.9450  146.0520 C   0  0  0  0  0  1  0  0  0  0  0  0
  193.9830  174.9260  145.5130 C   0  0  0  0  0  0  0  0  0  0  0  0
  2  7  1  0  0  0  0
  2  6  2  0  0  0  0
  3  5  1  0  0  0  0
  3  2  1  0  0  0  0
  4  6  1  0  0  0  0
  4  1  1  0  0  0  0
  5 30  1  1  0  0  0
  5  1  1  0  0  0  0
  8  7  1  0  0  0  0
  9  8  1  0  0  0  0
 10  9  1  0  0  0  0
 11 26  1  1  0  0  0
 11 12  1  0  0  0  0
 11 10  1  0  0  0  0
 13 22  1  0  0  0  0
 15 18  1  0  0  0  0
 15 12  1  1  0  0  0
 16 20  1  0  0  0  0
 17 18  1  0  0  0  0
 18 23  1  0  0  0  0
 18 14  1  0  0  0  0
 19 13  2  0  0  0  0
 21 20  1  0  0  0  0
 22 24  1  6  0  0  0
 23 22  1  0  0  0  0
 23 21  1  1  0  0  0
 24 16  1  0  0  0  0
 25 13  1  0  0  0  0
 25 15  1  0  0  0  0
 26 28  1  0  0  0  0
 27 28  2  0  0  0  0
 28 29  1  0  0  0  0
 31 32  1  0  0  0  0
 31 30  1  0  0  0  0
 33 32  1  0  0  0  0
 34 33  1  6  0  0  0
 34 37  1  0  0  0  0
 34 43  1  0  0  0  0
 35 37  1  0  0  0  0
 35 39  1  0  0  0  0
 36 38  1  0  0  0  0
 36 40  1  1  0  0  0
 37 38  1  0  0  0  0
 39 36  1  0  0  0  0
 40 41  2  0  0  0  0
 40 42  1  0  0  0  0
 45 44  1  0  0  0  0
 46 47  1  0  0  0  0
 46 49  2  0  0  0  0
 47 43  1  6  0  0  0
 47 48  1  0  0  0  0
 48 45  1  0  0  0  0
 49 50  1  0  0  0  0
 50 51  1  1  0  0  0
 50 44  1  0  0  0  0
 52 55  1  0  0  0  0
 55 53  1  0  0  0  0
 55 54  1  0  0  0  0
 55 51  1  0  0  0  0
M  END
>  <MODEL>
2

>  <REMARK>
 VINA RESULT:      -5.7      3.154      7.820
  Name = 
  20 active torsions:
  status: ('A' for Active; 'I' for Inactive)
    1  A    between atoms: C_2  and  C_28
    2  A    between atoms: C_2  and  C_44
    3  A    between atoms: C_6  and  C_46
    4  A    between atoms: C_8  and  C_20
    5  A    between atoms: C_8  and  C_22
    6  A    between atoms: C_10  and  C_32
    7  A    between atoms: C_17  and  C_36
    8  A    between atoms: C_19  and  C_40
    9  A    between atoms: C_19  and  C_45
   10  A    between atoms: C_22  and  C_35
   11  A    between atoms: C_22  and  C_46
   12  A    between atoms: C_27  and  O_54
   13  A    between atoms: C_28  and  C_49
   14  A    between atoms: C_33  and  C_49
   15  A    between atoms: C_33  and  C_52
   16  A    between atoms: N_34  and  C_52
   17  A    between atoms: C_35  and  C_43
   18  A    between atoms: C_36  and  C_52
   19  A    between atoms: C_43  and  C_51
   20  A    between atoms: C_51  and  O_54
                            x       y       z     vdW  Elec       q    Type
                         _______ _______ _______ _____ _____    ______ ____

>  <TORSDO>
F 20

$$$$
=
 OpenBabel11052419363D

 55 59  0  0  1  0  0  0  0  0999 V2000
  190.7030  175.6920  147.6010 C   0  0  0  0  0  2  0  0  0  0  0  0
  190.9080  173.9190  145.3950 C   0  0  0  0  0  0  0  0  0  0  0  0
  189.5620  173.9330  146.0710 C   0  0  0  0  0  2  0  0  0  0  0  0
  191.9040  174.7680  147.4760 C   0  0  0  0  0  2  0  0  0  0  0  0
  189.4060  174.9760  147.2040 C   0  0  2  0  0  3  0  0  0  0  0  0
  192.0050  174.3070  146.0590 C   0  0  0  0  0  3  0  0  0  0  0  0
  190.9820  173.4510  144.0800 O   0  0  0  0  0  0  0  0  0  0  0  0
  189.9950  172.6040  143.5030 C   0  0  0  0  0  2  0  0  0  0  0  0
  190.3600  172.3040  142.0650 C   0  0  0  0  0  2  0  0  0  0  0  0
  191.5650  173.1360  141.6640 C   0  0  0  0  0  2  0  0  0  0  0  0
  191.4950  173.5420  140.1970 C   0  0  1  0  0  3  0  0  0  0  0  0
  192.8320  174.0960  139.7050 C   0  0  0  0  0  2  0  0  0  0  0  0
  195.8760  173.6430  139.0260 C   0  0  0  0  0  0  0  0  0  0  0  0
  192.5820  174.7630  137.0870 F   0  0  0  0  0  0  0  0  0  0  0  0
  193.4880  173.1730  138.6770 C   0  0  1  0  0  3  0  0  0  0  0  0
  197.3070  175.4750  136.2370 N   0  0  0  0  0  2  0  0  0  0  0  0
  193.2700  172.7660  136.3480 F   0  0  0  0  0  0  0  0  0  0  0  0
  193.5490  173.7800  137.2450 C   0  0  0  0  0  0  0  0  0  0  0  0
  196.9240  173.4250  139.6900 O   0  0  0  0  0  0  0  0  0  0  0  0
  196.1780  176.2260  135.6940 C   0  0  0  0  0  2  0  0  0  0  0  0
  194.8950  175.3910  135.7550 C   0  0  0  0  0  2  0  0  0  0  0  0
  195.7620  174.8130  138.1000 C   0  0  2  0  0  3  0  0  0  0  0  0
  194.9390  174.3520  136.8880 C   0  0  1  0  0  3  0  0  0  0  0  0
  197.1410  175.3690  137.6900 C   0  0  0  0  0  2  0  0  0  0  0  0
  194.7790  172.7900  139.1560 O   0  0  0  0  0  0  0  0  0  0  0  0
  190.9990  172.3810  139.3290 C   0  0  0  0  0  2  0  0  0  0  0  0
  189.0790  173.8570  138.7130 O   0  0  0  0  0  1  0  0  0  0  0  0
  189.8940  172.7770  138.3990 C   0  0  0  0  0  0  0  0  0  0  0  0
  189.6810  172.1160  137.3510 O   0  0  0  0  0  0  0  0  0  0  0  0
  188.3700  176.0210  146.8290 C   0  0  0  0  0  2  0  0  0  0  0  0
  188.9140  177.4260  147.0080 C   0  0  0  0  0  2  0  0  0  0  0  0
  189.4070  177.9410  145.6720 C   0  0  0  0  0  2  0  0  0  0  0  0
  188.8390  177.0950  144.5490 C   0  0  0  0  0  2  0  0  0  0  0  0
  189.9330  176.7990  143.5100 C   0  0  1  0  0  3  0  0  0  0  0  0
  188.7710  175.7110  141.7270 C   0  0  0  0  0  2  0  0  0  0  0  0
  187.4590  177.5900  140.9980 C   0  0  1  0  0  3  0  0  0  0  0  0
  189.4700  176.9340  142.1220 N   0  0  0  0  0  0  0  0  0  0  0  0
  188.5280  178.0420  141.9670 C   0  0  0  0  0  2  0  0  0  0  0  0
  187.4150  176.0910  141.1680 C   0  0  0  0  0  2  0  0  0  0  0  0
  186.1380  178.2320  141.3080 C   0  0  0  0  0  0  0  0  0  0  0  0
  185.1270  178.2750  140.3540 O   0  0  0  0  0  0  0  0  0  0  0  0
  185.9600  178.7930  142.4210 O   0  0  0  0  0  1  0  0  0  0  0  0
  191.1720  177.6640  143.7350 C   0  0  0  0  0  2  0  0  0  0  0  0
  195.3950  176.0410  144.5320 C   0  0  0  0  0  2  0  0  0  0  0  0
  194.3720  176.6200  145.5020 C   0  0  0  0  0  2  0  0  0  0  0  0
  193.0110  176.4840  142.6080 C   0  0  0  0  0  3  0  0  0  0  0  0
  192.4100  176.8100  143.9440 C   0  0  1  0  0  3  0  0  0  0  0  0
  193.4060  177.5730  144.8090 C   0  0  0  0  0  2  0  0  0  0  0  0
  194.0670  175.6740  142.4600 C   0  0  0  0  0  3  0  0  0  0  0  0
  194.7590  175.0040  143.6130 C   0  0  1  0  0  3  0  0  0  0  0  0
  195.8480  174.0750  143.0890 C   0  0  0  0  0  2  0  0  0  0  0  0
  196.1990  171.6800  142.6160 C   0  0  0  0  0  1  0  0  0  0  0  0
  194.4100  172.3210  144.1760 C   0  0  0  0  0  1  0  0  0  0  0  0
  196.7890  172.5430  144.8400 C   0  0  0  0  0  1  0  0  0  0  0  0
  195.8050  172.6680  143.6910 C   0  0  0  0  0  0  0  0  0  0  0  0
  2  6  2  0  0  0  0
  2  3  1  0  0  0  0
  3  5  1  0  0  0  0
  4  1  1  0  0  0  0
  5 30  1  6  0  0  0
  5  1  1  0  0  0  0
  6  4  1  0  0  0  0
  7  2  1  0  0  0  0
  8  7  1  0  0  0  0
  9  8  1  0  0  0  0
 10  9  1  0  0  0  0
 11 26  1  6  0  0  0
 11 10  1  0  0  0  0
 12 11  1  0  0  0  0
 13 25  1  0  0  0  0
 13 19  2  0  0  0  0
 14 18  1  0  0  0  0
 15 25  1  0  0  0  0
 15 12  1  1  0  0  0
 16 24  1  0  0  0  0
 17 18  1  0  0  0  0
 18 15  1  0  0  0  0
 20 21  1  0  0  0  0
 20 16  1  0  0  0  0
 22 24  1  6  0  0  0
 22 13  1  0  0  0  0
 23 21  1  6  0  0  0
 23 18  1  0  0  0  0
 23 22  1  0  0  0  0
 28 27  1  0  0  0  0
 28 26  1  0  0  0  0
 29 28  2  0  0  0  0
 30 31  1  0  0  0  0
 32 31  1  0  0  0  0
 33 32  1  0  0  0  0
 34 43  1  1  0  0  0
 34 33  1  0  0  0  0
 35 37  1  0  0  0  0
 36 39  1  0  0  0  0
 36 40  1  1  0  0  0
 36 38  1  0  0  0  0
 37 34  1  0  0  0  0
 38 37  1  0  0  0  0
 39 35  1  0  0  0  0
 40 42  1  0  0  0  0
 41 40  2  0  0  0  0
 44 45  1  0  0  0  0
 46 47  1  0  0  0  0
 47 43  1  6  0  0  0
 47 48  1  0  0  0  0
 48 45  1  0  0  0  0
 49 46  2  0  0  0  0
 49 50  1  0  0  0  0
 50 51  1  6  0  0  0
 50 44  1  0  0  0  0
 51 55  1  0  0  0  0
 52 55  1  0  0  0  0
 55 53  1  0  0  0  0
 55 54  1  0  0  0  0
M  END
>  <MODEL>
3

>  <REMARK>
 VINA RESULT:      -5.7      3.204      7.655
  Name = 
  20 active torsions:
  status: ('A' for Active; 'I' for Inactive)
    1  A    between atoms: C_2  and  C_28
    2  A    between atoms: C_2  and  C_44
    3  A    between atoms: C_6  and  C_46
    4  A    between atoms: C_8  and  C_20
    5  A    between atoms: C_8  and  C_22
    6  A    between atoms: C_10  and  C_32
    7  A    between atoms: C_17  and  C_36
    8  A    between atoms: C_19  and  C_40
    9  A    between atoms: C_19  and  C_45
   10  A    between atoms: C_22  and  C_35
   11  A    between atoms: C_22  and  C_46
   12  A    between atoms: C_27  and  O_54
   13  A    between atoms: C_28  and  C_49
   14  A    between atoms: C_33  and  C_49
   15  A    between atoms: C_33  and  C_52
   16  A    between atoms: N_34  and  C_52
   17  A    between atoms: C_35  and  C_43
   18  A    between atoms: C_36  and  C_52
   19  A    between atoms: C_43  and  C_51
   20  A    between atoms: C_51  and  O_54
                            x       y       z     vdW  Elec       q    Type
                         _______ _______ _______ _____ _____    ______ ____

>  <TORSDO>
F 20

$$$$
=
 OpenBabel11052419363D

 55 59  0  0  1  0  0  0  0  0999 V2000
  188.3010  173.7520  141.7370 C   0  0  0  0  0  2  0  0  0  0  0  0
  189.6010  172.1310  139.8050 C   0  0  0  0  0  0  0  0  0  0  0  0
  190.3860  172.3600  141.0690 C   0  0  0  0  0  2  0  0  0  0  0  0
  188.3390  174.1860  140.2800 C   0  0  0  0  0  2  0  0  0  0  0  0
  189.6420  173.1500  142.1730 C   0  0  2  0  0  3  0  0  0  0  0  0
  188.6440  172.9920  139.4360 C   0  0  0  0  0  3  0  0  0  0  0  0
  189.9290  171.0260  139.0140 O   0  0  0  0  0  0  0  0  0  0  0  0
  191.1810  170.8920  138.3520 C   0  0  0  0  0  2  0  0  0  0  0  0
  192.0210  169.8510  139.0580 C   0  0  0  0  0  2  0  0  0  0  0  0
  193.4810  170.2660  139.0200 C   0  0  0  0  0  2  0  0  0  0  0  0
  193.6560  171.7180  139.4490 C   0  0  1  0  0  3  0  0  0  0  0  0
  193.9340  171.8280  140.9480 C   0  0  0  0  0  2  0  0  0  0  0  0
  194.1640  170.4720  143.7840 C   0  0  0  0  0  0  0  0  0  0  0  0
  196.5560  172.4420  141.2820 F   0  0  0  0  0  0  0  0  0  0  0  0
  194.8620  170.7150  141.4380 C   0  0  1  0  0  3  0  0  0  0  0  0
  196.7010  171.6960  146.0750 N   0  0  0  0  0  2  0  0  0  0  0  0
  197.2000  170.3050  141.4420 F   0  0  0  0  0  0  0  0  0  0  0  0
  196.2650  171.2240  141.8800 C   0  0  0  0  0  0  0  0  0  0  0  0
  193.3550  169.9790  144.6140 O   0  0  0  0  0  0  0  0  0  0  0  0
  197.3970  172.7260  145.3090 C   0  0  0  0  0  2  0  0  0  0  0  0
  197.5300  172.3090  143.8410 C   0  0  0  0  0  2  0  0  0  0  0  0
  195.0890  171.5890  144.1550 C   0  0  2  0  0  3  0  0  0  0  0  0
  196.4110  171.3470  143.4130 C   0  0  1  0  0  3  0  0  0  0  0  0
  195.2880  171.6970  145.6810 C   0  0  0  0  0  2  0  0  0  0  0  0
  194.2020  169.9860  142.4760 O   0  0  0  0  0  0  0  0  0  0  0  0
  194.7340  172.4130  138.6110 C   0  0  0  0  0  2  0  0  0  0  0  0
  193.4930  174.5150  139.1460 O   0  0  0  0  0  1  0  0  0  0  0  0
  194.6470  173.9060  138.6700 C   0  0  0  0  0  0  0  0  0  0  0  0
  195.6030  174.6130  138.2600 O   0  0  0  0  0  0  0  0  0  0  0  0
  189.4070  172.2730  143.3910 C   0  0  0  0  0  2  0  0  0  0  0  0
  190.6820  172.0880  144.1910 C   0  0  0  0  0  2  0  0  0  0  0  0
  191.5260  173.3400  144.0760 C   0  0  0  0  0  2  0  0  0  0  0  0
  191.5190  174.0930  145.3930 C   0  0  0  0  0  2  0  0  0  0  0  0
  191.4500  175.6060  145.1310 C   0  0  1  0  0  3  0  0  0  0  0  0
  193.4770  175.5270  146.3950 C   0  0  0  0  0  2  0  0  0  0  0  0
  194.9740  176.2410  144.6530 C   0  0  1  0  0  3  0  0  0  0  0  0
  192.7080  176.3060  145.4250 N   0  0  0  0  0  0  0  0  0  0  0  0
  193.5380  176.4580  144.2300 C   0  0  0  0  0  2  0  0  0  0  0  0
  194.8760  175.3230  145.8460 C   0  0  0  0  0  2  0  0  0  0  0  0
  195.7820  175.6380  143.5420 C   0  0  0  0  0  0  0  0  0  0  0  0
  197.1470  175.8870  143.4390 O   0  0  0  0  0  1  0  0  0  0  0  0
  195.2130  174.9490  142.6550 O   0  0  0  0  0  0  0  0  0  0  0  0
  191.0010  175.9100  143.7020 C   0  0  0  0  0  2  0  0  0  0  0  0
  187.2840  178.4810  142.8790 C   0  0  0  0  0  2  0  0  0  0  0  0
  187.9190  177.3830  142.0340 C   0  0  0  0  0  2  0  0  0  0  0  0
  189.5330  177.5530  144.7930 C   0  0  0  0  0  3  0  0  0  0  0  0
  189.6250  176.5500  143.6810 C   0  0  1  0  0  3  0  0  0  0  0  0
  189.4050  177.2220  142.3310 C   0  0  0  0  0  2  0  0  0  0  0  0
  188.4110  178.2230  145.0830 C   0  0  0  0  0  3  0  0  0  0  0  0
  187.1240  178.0380  144.3290 C   0  0  1  0  0  3  0  0  0  0  0  0
  186.0240  178.8690  144.9800 C   0  0  0  0  0  2  0  0  0  0  0  0
  185.8530  176.7880  146.2920 C   0  0  0  0  0  1  0  0  0  0  0  0
  183.9310  178.3220  146.2640 C   0  0  0  0  0  1  0  0  0  0  0  0
  186.0010  178.9300  147.4880 C   0  0  0  0  0  1  0  0  0  0  0  0
  185.4460  178.2440  146.2520 C   0  0  0  0  0  0  0  0  0  0  0  0
  1  5  1  0  0  0  0
  2  3  1  0  0  0  0
  3  5  1  0  0  0  0
  4  1  1  0  0  0  0
  5 30  1  1  0  0  0
  6  2  2  0  0  0  0
  6  4  1  0  0  0  0
  7  2  1  0  0  0  0
  8  7  1  0  0  0  0
  8  9  1  0  0  0  0
 10  9  1  0  0  0  0
 10 11  1  0  0  0  0
 11 26  1  6  0  0  0
 11 12  1  0  0  0  0
 13 22  1  0  0  0  0
 13 19  2  0  0  0  0
 14 18  1  0  0  0  0
 15 12  1  1  0  0  0
 15 18  1  0  0  0  0
 15 25  1  0  0  0  0
 17 18  1  0  0  0  0
 18 23  1  0  0  0  0
 20 16  1  0  0  0  0
 21 20  1  0  0  0  0
 22 24  1  1  0  0  0
 23 21  1  6  0  0  0
 23 22  1  0  0  0  0
 24 16  1  0  0  0  0
 25 13  1  0  0  0  0
 26 28  1  0  0  0  0
 28 27  1  0  0  0  0
 29 28  2  0  0  0  0
 30 31  1  0  0  0  0
 32 31  1  0  0  0  0
 32 33  1  0  0  0  0
 34 43  1  6  0  0  0
 34 33  1  0  0  0  0
 34 37  1  0  0  0  0
 36 40  1  6  0  0  0
 36 39  1  0  0  0  0
 37 35  1  0  0  0  0
 38 36  1  0  0  0  0
 38 37  1  0  0  0  0
 39 35  1  0  0  0  0
 41 40  1  0  0  0  0
 42 40  2  0  0  0  0
 44 50  1  0  0  0  0
 45 48  1  0  0  0  0
 45 44  1  0  0  0  0
 46 49  2  0  0  0  0
 47 43  1  6  0  0  0
 47 46  1  0  0  0  0
 48 47  1  0  0  0  0
 50 51  1  1  0  0  0
 50 49  1  0  0  0  0
 51 55  1  0  0  0  0
 55 53  1  0  0  0  0
 55 52  1  0  0  0  0
 55 54  1  0  0  0  0
M  END
>  <MODEL>
4

>  <REMARK>
 VINA RESULT:      -5.7      2.313      4.980
  Name = 
  20 active torsions:
  status: ('A' for Active; 'I' for Inactive)
    1  A    between atoms: C_2  and  C_28
    2  A    between atoms: C_2  and  C_44
    3  A    between atoms: C_6  and  C_46
    4  A    between atoms: C_8  and  C_20
    5  A    between atoms: C_8  and  C_22
    6  A    between atoms: C_10  and  C_32
    7  A    between atoms: C_17  and  C_36
    8  A    between atoms: C_19  and  C_40
    9  A    between atoms: C_19  and  C_45
   10  A    between atoms: C_22  and  C_35
   11  A    between atoms: C_22  and  C_46
   12  A    between atoms: C_27  and  O_54
   13  A    between atoms: C_28  and  C_49
   14  A    between atoms: C_33  and  C_49
   15  A    between atoms: C_33  and  C_52
   16  A    between atoms: N_34  and  C_52
   17  A    between atoms: C_35  and  C_43
   18  A    between atoms: C_36  and  C_52
   19  A    between atoms: C_43  and  C_51
   20  A    between atoms: C_51  and  O_54
                            x       y       z     vdW  Elec       q    Type
                         _______ _______ _______ _____ _____    ______ ____

>  <TORSDO>
F 20

$$$$
=
 OpenBabel11052419363D

 55 59  0  0  1  0  0  0  0  0999 V2000
  189.3790  172.4220  136.8170 C   0  0  0  0  0  2  0  0  0  0  0  0
  191.4920  170.5290  136.7760 C   0  0  0  0  0  0  0  0  0  0  0  0
  191.8980  171.9200  137.1870 C   0  0  0  0  0  2  0  0  0  0  0  0
  189.5460  171.4930  135.6240 C   0  0  0  0  0  2  0  0  0  0  0  0
  190.7350  172.9330  137.3180 C   0  0  2  0  0  3  0  0  0  0  0  0
  190.3910  170.3330  136.0400 C   0  0  0  0  0  3  0  0  0  0  0  0
  192.3170  169.4640  137.1480 O   0  0  0  0  0  0  0  0  0  0  0  0
  192.2250  168.8180  138.4130 C   0  0  0  0  0  2  0  0  0  0  0  0
  193.4560  169.1320  139.2350 C   0  0  0  0  0  2  0  0  0  0  0  0
  193.2210  170.4000  140.0370 C   0  0  0  0  0  2  0  0  0  0  0  0
  193.6290  170.2170  141.4940 C   0  0  1  0  0  3  0  0  0  0  0  0
  194.1940  171.5090  142.0830 C   0  0  0  0  0  2  0  0  0  0  0  0
  196.6150  172.8650  143.5760 C   0  0  0  0  0  0  0  0  0  0  0  0
  194.5560  173.4460  140.2170 F   0  0  0  0  0  0  0  0  0  0  0  0
  195.6240  171.7730  141.6090 C   0  0  1  0  0  3  0  0  0  0  0  0
  197.2470  176.3910  142.9810 N   0  0  0  0  0  2  0  0  0  0  0  0
  196.6490  172.8170  139.7380 F   0  0  0  0  0  0  0  0  0  0  0  0
  195.7730  173.0790  140.7740 C   0  0  0  0  0  0  0  0  0  0  0  0
  197.1570  172.7460  144.7070 O   0  0  0  0  0  0  0  0  0  0  0  0
  196.2380  176.7660  141.9930 C   0  0  0  0  0  2  0  0  0  0  0  0
  196.0210  175.6320  140.9870 C   0  0  0  0  0  2  0  0  0  0  0  0
  196.0740  174.1760  143.0980 C   0  0  2  0  0  3  0  0  0  0  0  0
  196.3500  174.2570  141.5900 C   0  0  1  0  0  3  0  0  0  0  0  0
  196.6770  175.3700  143.8660 C   0  0  0  0  0  2  0  0  0  0  0  0
  196.4980  171.7540  142.7400 O   0  0  0  0  0  0  0  0  0  0  0  0
  192.4660  169.6650  142.3260 C   0  0  0  0  0  2  0  0  0  0  0  0
  193.3510  169.2390  144.6240 O   0  0  0  0  0  1  0  0  0  0  0  0
  192.5690  170.0150  143.7780 C   0  0  0  0  0  0  0  0  0  0  0  0
  191.9250  170.9910  144.2410 O   0  0  0  0  0  0  0  0  0  0  0  0
  190.5800  173.3840  138.7610 C   0  0  0  0  0  2  0  0  0  0  0  0
  189.5860  172.5130  139.5060 C   0  0  0  0  0  2  0  0  0  0  0  0
  190.1510  172.1720  140.8690 C   0  0  0  0  0  2  0  0  0  0  0  0
  189.1980  172.6330  141.9550 C   0  0  0  0  0  2  0  0  0  0  0  0
  189.6970  173.9530  142.5650 C   0  0  1  0  0  3  0  0  0  0  0  0
  191.8220  174.8610  141.9540 C   0  0  0  0  0  2  0  0  0  0  0  0
  192.6590  175.2550  144.1740 C   0  0  1  0  0  3  0  0  0  0  0  0
  191.1350  173.9480  142.8670 N   0  0  0  0  0  0  0  0  0  0  0  0
  191.4070  174.4080  144.2280 C   0  0  0  0  0  2  0  0  0  0  0  0
  192.6650  175.8180  142.7740 C   0  0  0  0  0  2  0  0  0  0  0  0
  192.6300  176.3350  145.2160 C   0  0  0  0  0  0  0  0  0  0  0  0
  191.4360  176.7030  145.8260 O   0  0  0  0  0  1  0  0  0  0  0  0
  193.6860  176.9600  145.4990 O   0  0  0  0  0  0  0  0  0  0  0  0
  189.3520  175.1500  141.6780 C   0  0  0  0  0  2  0  0  0  0  0  0
  186.2680  178.3900  142.7250 C   0  0  0  0  0  2  0  0  0  0  0  0
  186.1770  177.2400  141.7290 C   0  0  0  0  0  2  0  0  0  0  0  0
  188.9630  176.9730  143.2820 C   0  0  0  0  0  3  0  0  0  0  0  0
  188.2960  176.0280  142.3260 C   0  0  1  0  0  3  0  0  0  0  0  0
  187.5510  176.7980  141.2420 C   0  0  0  0  0  2  0  0  0  0  0  0
  188.2850  177.8190  144.0670 C   0  0  0  0  0  3  0  0  0  0  0  0
  186.7850  177.9090  144.0760 C   0  0  1  0  0  3  0  0  0  0  0  0
  186.3370  178.8910  145.1540 C   0  0  0  0  0  2  0  0  0  0  0  0
  185.6570  178.8200  147.5240 C   0  0  0  0  0  1  0  0  0  0  0  0
  185.3870  176.7910  146.1610 C   0  0  0  0  0  1  0  0  0  0  0  0
  183.9140  178.7530  145.7920 C   0  0  0  0  0  1  0  0  0  0  0  0
  185.3230  178.3070  146.1410 C   0  0  0  0  0  0  0  0  0  0  0  0
  1  5  1  0  0  0  0
  2  7  1  0  0  0  0
  2  3  1  0  0  0  0
  3  5  1  0  0  0  0
  4  6  1  0  0  0  0
  4  1  1  0  0  0  0
  5 30  1  1  0  0  0
  6  2  2  0  0  0  0
  7  8  1  0  0  0  0
  8  9  1  0  0  0  0
  9 10  1  0  0  0  0
 11 10  1  6  0  0  0
 11 12  1  0  0  0  0
 11 26  1  0  0  0  0
 13 19  2  0  0  0  0
 14 18  1  0  0  0  0
 15 12  1  1  0  0  0
 15 25  1  0  0  0  0
 16 24  1  0  0  0  0
 17 18  1  0  0  0  0
 18 23  1  0  0  0  0
 18 15  1  0  0  0  0
 20 16  1  0  0  0  0
 21 20  1  0  0  0  0
 22 13  1  0  0  0  0
 22 24  1  1  0  0  0
 23 21  1  6  0  0  0
 23 22  1  0  0  0  0
 25 13  1  0  0  0  0
 26 28  1  0  0  0  0
 28 29  2  0  0  0  0
 28 27  1  0  0  0  0
 30 31  1  0  0  0  0
 31 32  1  0  0  0  0
 32 33  1  0  0  0  0
 33 34  1  0  0  0  0
 34 43  1  6  0  0  0
 34 37  1  0  0  0  0
 35 39  1  0  0  0  0
 35 37  1  0  0  0  0
 36 38  1  0  0  0  0
 36 40  1  1  0  0  0
 37 38  1  0  0  0  0
 39 36  1  0  0  0  0
 40 42  2  0  0  0  0
 40 41  1  0  0  0  0
 44 50  1  0  0  0  0
 45 44  1  0  0  0  0
 46 49  2  0  0  0  0
 47 43  1  6  0  0  0
 47 46  1  0  0  0  0
 48 45  1  0  0  0  0
 48 47  1  0  0  0  0
 49 50  1  0  0  0  0
 50 51  1  1  0  0  0
 51 55  1  0  0  0  0
 54 55  1  0  0  0  0
 55 53  1  0  0  0  0
 55 52  1  0  0  0  0
M  END
>  <MODEL>
5

>  <REMARK>
 VINA RESULT:      -5.6      2.624      6.373
  Name = 
  20 active torsions:
  status: ('A' for Active; 'I' for Inactive)
    1  A    between atoms: C_2  and  C_28
    2  A    between atoms: C_2  and  C_44
    3  A    between atoms: C_6  and  C_46
    4  A    between atoms: C_8  and  C_20
    5  A    between atoms: C_8  and  C_22
    6  A    between atoms: C_10  and  C_32
    7  A    between atoms: C_17  and  C_36
    8  A    between atoms: C_19  and  C_40
    9  A    between atoms: C_19  and  C_45
   10  A    between atoms: C_22  and  C_35
   11  A    between atoms: C_22  and  C_46
   12  A    between atoms: C_27  and  O_54
   13  A    between atoms: C_28  and  C_49
   14  A    between atoms: C_33  and  C_49
   15  A    between atoms: C_33  and  C_52
   16  A    between atoms: N_34  and  C_52
   17  A    between atoms: C_35  and  C_43
   18  A    between atoms: C_36  and  C_52
   19  A    between atoms: C_43  and  C_51
   20  A    between atoms: C_51  and  O_54
                            x       y       z     vdW  Elec       q    Type
                         _______ _______ _______ _____ _____    ______ ____

>  <TORSDO>
F 20

$$$$
=
 OpenBabel11052419363D

 55 59  0  0  1  0  0  0  0  0999 V2000
  190.4020  176.1190  147.2800 C   0  0  0  0  0  2  0  0  0  0  0  0
  190.6060  173.7970  145.6630 C   0  0  0  0  0  0  0  0  0  0  0  0
  189.3140  173.9230  146.4260 C   0  0  0  0  0  2  0  0  0  0  0  0
  191.6670  175.2760  147.3160 C   0  0  0  0  0  2  0  0  0  0  0  0
  189.1470  175.2390  147.2250 C   0  0  2  0  0  3  0  0  0  0  0  0
  191.7080  174.4290  146.0850 C   0  0  0  0  0  3  0  0  0  0  0  0
  190.6290  172.9720  144.5350 O   0  0  0  0  0  0  0  0  0  0  0  0
  189.4630  172.6600  143.7800 C   0  0  0  0  0  2  0  0  0  0  0  0
  189.7770  171.5570  142.7930 C   0  0  0  0  0  2  0  0  0  0  0  0
  191.2110  171.6980  142.3140 C   0  0  0  0  0  2  0  0  0  0  0  0
  191.5510  170.6460  141.2650 C   0  0  1  0  0  3  0  0  0  0  0  0
  191.3820  171.1950  139.8480 C   0  0  0  0  0  2  0  0  0  0  0  0
  189.4210  173.2480  138.4790 C   0  0  0  0  0  0  0  0  0  0  0  0
  193.3070  172.3810  138.3470 F   0  0  0  0  0  0  0  0  0  0  0  0
  191.4130  172.7240  139.8220 C   0  0  1  0  0  3  0  0  0  0  0  0
  190.3100  174.5580  135.2110 N   0  0  0  0  0  2  0  0  0  0  0  0
  192.9980  174.4000  139.2600 F   0  0  0  0  0  0  0  0  0  0  0  0
  192.3450  173.3090  138.7200 C   0  0  0  0  0  0  0  0  0  0  0  0
  188.1730  173.4080  138.4340 O   0  0  0  0  0  0  0  0  0  0  0  0
  191.6100  173.9540  134.9330 C   0  0  0  0  0  2  0  0  0  0  0  0
  192.4510  173.8710  136.2100 C   0  0  0  0  0  2  0  0  0  0  0  0
  190.2380  173.0780  137.2360 C   0  0  2  0  0  3  0  0  0  0  0  0
  191.5750  173.7940  137.4710 C   0  0  1  0  0  3  0  0  0  0  0  0
  189.5070  173.6030  135.9830 C   0  0  0  0  0  2  0  0  0  0  0  0
  190.0750  173.2130  139.7120 O   0  0  0  0  0  0  0  0  0  0  0  0
  192.9510  170.0700  141.4960 C   0  0  0  0  0  2  0  0  0  0  0  0
  192.7120  168.6800  143.5590 O   0  0  0  0  0  0  0  0  0  0  0  0
  193.2420  169.8050  142.9410 C   0  0  0  0  0  0  0  0  0  0  0  0
  193.9390  170.6140  143.6050 O   0  0  0  0  0  1  0  0  0  0  0  0
  188.0020  176.0630  146.6630 C   0  0  0  0  0  2  0  0  0  0  0  0
  188.2520  177.5490  146.8410 C   0  0  0  0  0  2  0  0  0  0  0  0
  188.2300  178.2210  145.4850 C   0  0  0  0  0  2  0  0  0  0  0  0
  187.9230  177.2010  144.4050 C   0  0  0  0  0  2  0  0  0  0  0  0
  188.6930  177.5500  143.1210 C   0  0  1  0  0  3  0  0  0  0  0  0
  187.5740  177.4230  141.0130 C   0  0  0  0  0  2  0  0  0  0  0  0
  185.5640  178.5860  141.6400 C   0  0  1  0  0  3  0  0  0  0  0  0
  187.8880  178.2960  142.1440 N   0  0  0  0  0  0  0  0  0  0  0  0
  186.6180  178.7450  142.7130 C   0  0  0  0  0  2  0  0  0  0  0  0
  186.0760  177.4560  140.7820 C   0  0  0  0  0  2  0  0  0  0  0  0
  184.2220  178.2790  142.2370 C   0  0  0  0  0  0  0  0  0  0  0  0
  183.1160  178.0550  141.4240 O   0  0  0  0  0  0  0  0  0  0  0  0
  184.0760  178.2840  143.4880 O   0  0  0  0  0  1  0  0  0  0  0  0
  189.9830  178.3100  143.4260 C   0  0  0  0  0  2  0  0  0  0  0  0
  193.0310  174.9170  142.8800 C   0  0  0  0  0  2  0  0  0  0  0  0
  191.8150  175.2820  142.0380 C   0  0  0  0  0  2  0  0  0  0  0  0
  192.1200  177.4950  144.3300 C   0  0  0  0  0  3  0  0  0  0  0  0
  191.2060  177.4560  143.1410 C   0  0  1  0  0  3  0  0  0  0  0  0
  190.7630  176.0270  142.8500 C   0  0  0  0  0  2  0  0  0  0  0  0
  193.3210  176.9050  144.3490 C   0  0  0  0  0  3  0  0  0  0  0  0
  193.8830  176.1450  143.1800 C   0  0  1  0  0  3  0  0  0  0  0  0
  195.3050  175.6940  143.4970 C   0  0  0  0  0  2  0  0  0  0  0  0
  197.5670  176.4380  142.8540 C   0  0  0  0  0  1  0  0  0  0  0  0
  195.7210  176.7810  141.2670 C   0  0  0  0  0  1  0  0  0  0  0  0
  196.5890  174.4990  141.7030 C   0  0  0  0  0  1  0  0  0  0  0  0
  196.2780  175.8480  142.3260 C   0  0  0  0  0  0  0  0  0  0  0  0
  1  4  1  0  0  0  0
  2  6  2  0  0  0  0
  2  3  1  0  0  0  0
  3  5  1  0  0  0  0
  5 30  1  6  0  0  0
  5  1  1  0  0  0  0
  6  4  1  0  0  0  0
  7  2  1  0  0  0  0
  8  7  1  0  0  0  0
  9  8  1  0  0  0  0
 10  9  1  0  0  0  0
 11 12  1  6  0  0  0
 11 26  1  0  0  0  0
 11 10  1  0  0  0  0
 13 25  1  0  0  0  0
 14 18  1  0  0  0  0
 15 12  1  6  0  0  0
 16 24  1  0  0  0  0
 18 17  1  0  0  0  0
 18 15  1  0  0  0  0
 19 13  2  0  0  0  0
 20 16  1  0  0  0  0
 20 21  1  0  0  0  0
 22 24  1  6  0  0  0
 22 23  1  0  0  0  0
 22 13  1  0  0  0  0
 23 21  1  6  0  0  0
 23 18  1  0  0  0  0
 25 15  1  0  0  0  0
 26 28  1  0  0  0  0
 28 27  2  0  0  0  0
 28 29  1  0  0  0  0
 30 31  1  0  0  0  0
 32 31  1  0  0  0  0
 33 32  1  0  0  0  0
 34 43  1  1  0  0  0
 34 33  1  0  0  0  0
 35 37  1  0  0  0  0
 36 40  1  1  0  0  0
 36 38  1  0  0  0  0
 37 38  1  0  0  0  0
 37 34  1  0  0  0  0
 39 35  1  0  0  0  0
 39 36  1  0  0  0  0
 40 42  1  0  0  0  0
 41 40  2  0  0  0  0
 44 50  1  0  0  0  0
 45 48  1  0  0  0  0
 45 44  1  0  0  0  0
 46 49  2  0  0  0  0
 47 43  1  1  0  0  0
 47 46  1  0  0  0  0
 48 47  1  0  0  0  0
 50 51  1  1  0  0  0
 50 49  1  0  0  0  0
 53 55  1  0  0  0  0
 54 55  1  0  0  0  0
 55 52  1  0  0  0  0
 55 51  1  0  0  0  0
M  END
>  <MODEL>
6

>  <REMARK>
 VINA RESULT:      -5.6      3.255      7.852
  Name = 
  20 active torsions:
  status: ('A' for Active; 'I' for Inactive)
    1  A    between atoms: C_2  and  C_28
    2  A    between atoms: C_2  and  C_44
    3  A    between atoms: C_6  and  C_46
    4  A    between atoms: C_8  and  C_20
    5  A    between atoms: C_8  and  C_22
    6  A    between atoms: C_10  and  C_32
    7  A    between atoms: C_17  and  C_36
    8  A    between atoms: C_19  and  C_40
    9  A    between atoms: C_19  and  C_45
   10  A    between atoms: C_22  and  C_35
   11  A    between atoms: C_22  and  C_46
   12  A    between atoms: C_27  and  O_54
   13  A    between atoms: C_28  and  C_49
   14  A    between atoms: C_33  and  C_49
   15  A    between atoms: C_33  and  C_52
   16  A    between atoms: N_34  and  C_52
   17  A    between atoms: C_35  and  C_43
   18  A    between atoms: C_36  and  C_52
   19  A    between atoms: C_43  and  C_51
   20  A    between atoms: C_51  and  O_54
                            x       y       z     vdW  Elec       q    Type
                         _______ _______ _______ _____ _____    ______ ____

>  <TORSDO>
F 20

$$$$
=
 OpenBabel11052419363D

 55 59  0  0  1  0  0  0  0  0999 V2000
  185.8010  176.8150  142.6100 C   0  0  0  0  0  2  0  0  0  0  0  0
  186.6740  177.4400  139.9840 C   0  0  0  0  0  0  0  0  0  0  0  0
  187.7510  176.9260  140.9020 C   0  0  0  0  0  2  0  0  0  0  0  0
  185.3890  178.1280  141.9630 C   0  0  0  0  0  2  0  0  0  0  0  0
  187.2650  176.4780  142.3020 C   0  0  2  0  0  3  0  0  0  0  0  0
  185.5690  178.0070  140.4850 C   0  0  0  0  0  3  0  0  0  0  0  0
  186.8810  177.3470  138.6050 O   0  0  0  0  0  0  0  0  0  0  0  0
  186.3750  176.2770  137.8160 C   0  0  0  0  0  2  0  0  0  0  0  0
  187.5260  175.4990  137.2160 C   0  0  0  0  0  2  0  0  0  0  0  0
  187.7740  174.2460  138.0370 C   0  0  0  0  0  2  0  0  0  0  0  0
  189.2360  173.8200  137.9700 C   0  0  1  0  0  3  0  0  0  0  0  0
  189.5710  172.7990  139.0570 C   0  0  0  0  0  2  0  0  0  0  0  0
  190.6850  169.8970  139.5780 C   0  0  0  0  0  0  0  0  0  0  0  0
  191.4390  173.5930  140.8570 F   0  0  0  0  0  0  0  0  0  0  0  0
  190.9860  172.2410  138.8970 C   0  0  1  0  0  3  0  0  0  0  0  0
  192.2700  169.2110  142.7720 N   0  0  0  0  0  2  0  0  0  0  0  0
  193.1600  172.8300  139.6470 F   0  0  0  0  0  0  0  0  0  0  0  0
  191.9040  172.5090  140.1250 C   0  0  0  0  0  0  0  0  0  0  0  0
  190.3350  168.7280  139.2650 O   0  0  0  0  0  0  0  0  0  0  0  0
  192.2370  170.4970  143.4630 C   0  0  0  0  0  2  0  0  0  0  0  0
  192.4840  171.6450  142.4790 C   0  0  0  0  0  2  0  0  0  0  0  0
  190.8660  170.3080  141.0050 C   0  0  2  0  0  3  0  0  0  0  0  0
  192.0540  171.2800  141.0500 C   0  0  1  0  0  3  0  0  0  0  0  0
  191.0680  169.0970  141.9390 C   0  0  0  0  0  2  0  0  0  0  0  0
  190.9020  170.8490  138.5810 O   0  0  0  0  0  0  0  0  0  0  0  0
  189.5960  173.3110  136.5700 C   0  0  0  0  0  2  0  0  0  0  0  0
  191.0710  173.8500  134.6270 O   0  0  0  0  0  0  0  0  0  0  0  0
  190.7610  174.0330  135.9680 C   0  0  0  0  0  0  0  0  0  0  0  0
  191.4790  174.7820  136.6800 O   0  0  0  0  0  1  0  0  0  0  0  0
  187.4670  174.9840  142.4850 C   0  0  0  0  0  2  0  0  0  0  0  0
  188.9320  174.6070  142.3600 C   0  0  0  0  0  2  0  0  0  0  0  0
  189.2510  173.5200  143.3650 C   0  0  0  0  0  2  0  0  0  0  0  0
  190.2660  174.0260  144.3720 C   0  0  0  0  0  2  0  0  0  0  0  0
  190.0660  175.5320  144.6070 C   0  0  1  0  0  3  0  0  0  0  0  0
  189.9550  177.2720  146.2420 C   0  0  0  0  0  2  0  0  0  0  0  0
  187.7600  176.7780  147.0940 C   0  0  1  0  0  3  0  0  0  0  0  0
  189.6740  175.8600  145.9850 N   0  0  0  0  0  0  0  0  0  0  0  0
  188.2440  175.6520  146.2080 C   0  0  0  0  0  2  0  0  0  0  0  0
  188.6970  177.9200  146.7860 C   0  0  0  0  0  2  0  0  0  0  0  0
  186.3310  177.1260  146.8000 C   0  0  0  0  0  0  0  0  0  0  0  0
  185.7100  178.1890  147.4450 O   0  0  0  0  0  1  0  0  0  0  0  0
  185.6630  176.4120  146.0060 O   0  0  0  0  0  0  0  0  0  0  0  0
  191.3040  176.3340  144.2090 C   0  0  0  0  0  2  0  0  0  0  0  0
  195.5550  175.1020  145.4430 C   0  0  0  0  0  2  0  0  0  0  0  0
  194.4160  175.6630  146.2870 C   0  0  0  0  0  2  0  0  0  0  0  0
  193.3100  175.2290  143.3150 C   0  0  0  0  0  3  0  0  0  0  0  0
  192.5790  175.5950  144.5730 C   0  0  1  0  0  3  0  0  0  0  0  0
  193.4430  176.4890  145.4550 C   0  0  0  0  0  2  0  0  0  0  0  0
  194.4310  174.4960  143.3070 C   0  0  0  0  0  3  0  0  0  0  0  0
  195.0730  173.9600  144.5560 C   0  0  1  0  0  3  0  0  0  0  0  0
  196.2660  173.0860  144.1850 C   0  0  0  0  0  2  0  0  0  0  0  0
  194.9450  171.5370  145.5770 C   0  0  0  0  0  1  0  0  0  0  0  0
  197.3750  171.1970  145.4200 C   0  0  0  0  0  1  0  0  0  0  0  0
  195.9150  170.7050  143.4770 C   0  0  0  0  0  1  0  0  0  0  0  0
  196.1400  171.6350  144.6550 C   0  0  0  0  0  0  0  0  0  0  0  0
  2  6  2  0  0  0  0
  2  3  1  0  0  0  0
  3  5  1  0  0  0  0
  4  1  1  0  0  0  0
  5 30  1  6  0  0  0
  5  1  1  0  0  0  0
  6  4  1  0  0  0  0
  7  2  1  0  0  0  0
  8  7  1  0  0  0  0
  9  8  1  0  0  0  0
  9 10  1  0  0  0  0
 11 26  1  6  0  0  0
 11 10  1  0  0  0  0
 11 12  1  0  0  0  0
 13 22  1  0  0  0  0
 15 12  1  1  0  0  0
 15 18  1  0  0  0  0
 16 20  1  0  0  0  0
 17 18  1  0  0  0  0
 18 14  1  0  0  0  0
 18 23  1  0  0  0  0
 19 13  2  0  0  0  0
 21 20  1  0  0  0  0
 22 23  1  0  0  0  0
 22 24  1  1  0  0  0
 23 21  1  1  0  0  0
 24 16  1  0  0  0  0
 25 15  1  0  0  0  0
 25 13  1  0  0  0  0
 27 28  2  0  0  0  0
 28 26  1  0  0  0  0
 28 29  1  0  0  0  0
 31 30  1  0  0  0  0
 31 32  1  0  0  0  0
 32 33  1  0  0  0  0
 33 34  1  0  0  0  0
 34 43  1  1  0  0  0
 34 37  1  0  0  0  0
 35 39  1  0  0  0  0
 36 40  1  6  0  0  0
 37 38  1  0  0  0  0
 37 35  1  0  0  0  0
 38 36  1  0  0  0  0
 39 36  1  0  0  0  0
 40 41  1  0  0  0  0
 42 40  2  0  0  0  0
 44 45  1  0  0  0  0
 46 47  1  0  0  0  0
 47 43  1  6  0  0  0
 47 48  1  0  0  0  0
 48 45  1  0  0  0  0
 49 46  2  0  0  0  0
 49 50  1  0  0  0  0
 50 51  1  6  0  0  0
 50 44  1  0  0  0  0
 51 55  1  0  0  0  0
 54 55  1  0  0  0  0
 55 53  1  0  0  0  0
 55 52  1  0  0  0  0
M  END
>  <MODEL>
7

>  <REMARK>
 VINA RESULT:      -5.5      3.210      8.169
  Name = 
  20 active torsions:
  status: ('A' for Active; 'I' for Inactive)
    1  A    between atoms: C_2  and  C_28
    2  A    between atoms: C_2  and  C_44
    3  A    between atoms: C_6  and  C_46
    4  A    between atoms: C_8  and  C_20
    5  A    between atoms: C_8  and  C_22
    6  A    between atoms: C_10  and  C_32
    7  A    between atoms: C_17  and  C_36
    8  A    between atoms: C_19  and  C_40
    9  A    between atoms: C_19  and  C_45
   10  A    between atoms: C_22  and  C_35
   11  A    between atoms: C_22  and  C_46
   12  A    between atoms: C_27  and  O_54
   13  A    between atoms: C_28  and  C_49
   14  A    between atoms: C_33  and  C_49
   15  A    between atoms: C_33  and  C_52
   16  A    between atoms: N_34  and  C_52
   17  A    between atoms: C_35  and  C_43
   18  A    between atoms: C_36  and  C_52
   19  A    between atoms: C_43  and  C_51
   20  A    between atoms: C_51  and  O_54
                            x       y       z     vdW  Elec       q    Type
                         _______ _______ _______ _____ _____    ______ ____

>  <TORSDO>
F 20

$$$$
=
 OpenBabel11052419363D

 55 59  0  0  1  0  0  0  0  0999 V2000
  194.9420  176.3550  141.2730 C   0  0  0  0  0  2  0  0  0  0  0  0
  196.9840  174.4960  140.6220 C   0  0  0  0  0  0  0  0  0  0  0  0
  195.7390  173.8860  141.2100 C   0  0  0  0  0  2  0  0  0  0  0  0
  196.3790  176.6280  141.6870 C   0  0  0  0  0  2  0  0  0  0  0  0
  194.5780  174.8770  141.4660 C   0  0  2  0  0  3  0  0  0  0  0  0
  197.2830  175.7810  140.8510 C   0  0  0  0  0  3  0  0  0  0  0  0
  197.8310  173.6760  139.8720 O   0  0  0  0  0  0  0  0  0  0  0  0
  197.6760  172.2630  139.8000 C   0  0  0  0  0  2  0  0  0  0  0  0
  196.8150  171.9060  138.6080 C   0  0  0  0  0  2  0  0  0  0  0  0
  197.1120  172.8590  137.4640 C   0  0  0  0  0  2  0  0  0  0  0  0
  195.8600  173.6100  137.0280 C   0  0  1  0  0  3  0  0  0  0  0  0
  194.6220  173.1090  137.7710 C   0  0  0  0  0  2  0  0  0  0  0  0
  191.8500  173.8570  136.4710 C   0  0  0  0  0  0  0  0  0  0  0  0
  193.2780  171.0360  138.8920 F   0  0  0  0  0  0  0  0  0  0  0  0
  193.7040  172.2900  136.8620 C   0  0  1  0  0  3  0  0  0  0  0  0
  188.8150  172.7980  138.1600 N   0  0  0  0  0  2  0  0  0  0  0  0
  192.6970  170.1410  136.9260 F   0  0  0  0  0  0  0  0  0  0  0  0
  192.7610  171.3240  137.6370 C   0  0  0  0  0  0  0  0  0  0  0  0
  191.3940  174.8350  135.8210 O   0  0  0  0  0  0  0  0  0  0  0  0
  189.3010  172.0440  139.3130 C   0  0  0  0  0  2  0  0  0  0  0  0
  190.5430  171.2290  138.9410 C   0  0  0  0  0  2  0  0  0  0  0  0
  191.2170  173.3970  137.7460 C   0  0  2  0  0  3  0  0  0  0  0  0
  191.3210  171.8660  137.7780 C   0  0  1  0  0  3  0  0  0  0  0  0
  189.7600  173.8850  137.8820 C   0  0  0  0  0  2  0  0  0  0  0  0
  192.9810  173.1810  136.0100 O   0  0  0  0  0  0  0  0  0  0  0  0
  196.0470  175.1230  137.1740 C   0  0  0  0  0  2  0  0  0  0  0  0
  194.6950  175.9650  135.2490 O   0  0  0  0  0  0  0  0  0  0  0  0
  195.9300  175.8540  135.8730 C   0  0  0  0  0  0  0  0  0  0  0  0
  196.9530  176.3420  135.3260 O   0  0  0  0  0  1  0  0  0  0  0  0
  193.3900  174.5510  140.5780 C   0  0  0  0  0  2  0  0  0  0  0  0
  192.6240  173.3500  141.1010 C   0  0  0  0  0  2  0  0  0  0  0  0
  191.3860  173.8300  141.8270 C   0  0  0  0  0  2  0  0  0  0  0  0
  191.1590  172.9960  143.0730 C   0  0  0  0  0  2  0  0  0  0  0  0
  191.1610  173.8990  144.3170 C   0  0  1  0  0  3  0  0  0  0  0  0
  193.0860  172.5340  144.6950 C   0  0  0  0  0  2  0  0  0  0  0  0
  194.5400  174.2500  145.5460 C   0  0  1  0  0  3  0  0  0  0  0  0
  192.2540  173.6000  145.2520 N   0  0  0  0  0  0  0  0  0  0  0  0
  193.1190  174.7600  145.4680 C   0  0  0  0  0  2  0  0  0  0  0  0
  194.5300  172.9930  144.7110 C   0  0  0  0  0  2  0  0  0  0  0  0
  195.5120  175.2670  145.0230 C   0  0  0  0  0  0  0  0  0  0  0  0
  196.8340  174.9220  144.7680 O   0  0  0  0  0  0  0  0  0  0  0  0
  195.1460  176.4630  144.8700 O   0  0  0  0  0  1  0  0  0  0  0  0
  191.1860  175.3800  143.9380 C   0  0  0  0  0  2  0  0  0  0  0  0
  187.2350  176.8040  145.7990 C   0  0  0  0  0  2  0  0  0  0  0  0
  188.6720  177.1270  146.1900 C   0  0  0  0  0  2  0  0  0  0  0  0
  188.7590  175.3240  143.5470 C   0  0  0  0  0  3  0  0  0  0  0  0
  189.8630  176.0530  144.2560 C   0  0  1  0  0  3  0  0  0  0  0  0
  189.6390  176.0310  145.7640 C   0  0  0  0  0  2  0  0  0  0  0  0
  187.4840  175.7310  143.5670 C   0  0  0  0  0  3  0  0  0  0  0  0
  187.0240  176.9620  144.2970 C   0  0  1  0  0  3  0  0  0  0  0  0
  185.5400  177.1930  144.0290 C   0  0  0  0  0  2  0  0  0  0  0  0
  183.7850  178.3750  142.7620 C   0  0  0  0  0  1  0  0  0  0  0  0
  186.0600  178.3020  141.8320 C   0  0  0  0  0  1  0  0  0  0  0  0
  185.5660  179.6940  143.8250 C   0  0  0  0  0  1  0  0  0  0  0  0
  185.2560  178.3880  143.1160 C   0  0  0  0  0  0  0  0  0  0  0  0
  1  5  1  0  0  0  0
  1  4  1  0  0  0  0
  2  6  2  0  0  0  0
  2  3  1  0  0  0  0
  3  5  1  0  0  0  0
  5 30  1  6  0  0  0
  6  4  1  0  0  0  0
  7  2  1  0  0  0  0
  8  7  1  0  0  0  0
  9  8  1  0  0  0  0
 10  9  1  0  0  0  0
 11 26  1  1  0  0  0
 11 10  1  0  0  0  0
 11 12  1  0  0  0  0
 13 22  1  0  0  0  0
 15 18  1  0  0  0  0
 15 12  1  1  0  0  0
 16 20  1  0  0  0  0
 17 18  1  0  0  0  0
 18 23  1  0  0  0  0
 18 14  1  0  0  0  0
 19 13  2  0  0  0  0
 21 20  1  0  0  0  0
 22 23  1  0  0  0  0
 22 24  1  6  0  0  0
 23 21  1  1  0  0  0
 24 16  1  0  0  0  0
 25 13  1  0  0  0  0
 25 15  1  0  0  0  0
 27 28  2  0  0  0  0
 28 26  1  0  0  0  0
 29 28  1  0  0  0  0
 30 31  1  0  0  0  0
 31 32  1  0  0  0  0
 32 33  1  0  0  0  0
 34 33  1  6  0  0  0
 34 37  1  0  0  0  0
 35 39  1  0  0  0  0
 35 37  1  0  0  0  0
 36 40  1  6  0  0  0
 37 38  1  0  0  0  0
 38 36  1  0  0  0  0
 39 36  1  0  0  0  0
 41 40  2  0  0  0  0
 42 40  1  0  0  0  0
 43 34  1  0  0  0  0
 44 45  1  0  0  0  0
 46 49  2  0  0  0  0
 46 47  1  0  0  0  0
 47 43  1  1  0  0  0
 47 48  1  0  0  0  0
 48 45  1  0  0  0  0
 49 50  1  0  0  0  0
 50 51  1  1  0  0  0
 50 44  1  0  0  0  0
 52 55  1  0  0  0  0
 53 55  1  0  0  0  0
 55 54  1  0  0  0  0
 55 51  1  0  0  0  0
M  END
>  <MODEL>
8

>  <REMARK>
 VINA RESULT:      -5.4      2.989      6.722
  Name = 
  20 active torsions:
  status: ('A' for Active; 'I' for Inactive)
    1  A    between atoms: C_2  and  C_28
    2  A    between atoms: C_2  and  C_44
    3  A    between atoms: C_6  and  C_46
    4  A    between atoms: C_8  and  C_20
    5  A    between atoms: C_8  and  C_22
    6  A    between atoms: C_10  and  C_32
    7  A    between atoms: C_17  and  C_36
    8  A    between atoms: C_19  and  C_40
    9  A    between atoms: C_19  and  C_45
   10  A    between atoms: C_22  and  C_35
   11  A    between atoms: C_22  and  C_46
   12  A    between atoms: C_27  and  O_54
   13  A    between atoms: C_28  and  C_49
   14  A    between atoms: C_33  and  C_49
   15  A    between atoms: C_33  and  C_52
   16  A    between atoms: N_34  and  C_52
   17  A    between atoms: C_35  and  C_43
   18  A    between atoms: C_36  and  C_52
   19  A    between atoms: C_43  and  C_51
   20  A    between atoms: C_51  and  O_54
                            x       y       z     vdW  Elec       q    Type
                         _______ _______ _______ _____ _____    ______ ____

>  <TORSDO>
F 20

$$$$
=
 OpenBabel11052419363D

 55 59  0  0  1  0  0  0  0  0999 V2000
  191.7080  171.8340  144.0190 C   0  0  0  0  0  2  0  0  0  0  0  0
  189.7210  172.5560  142.1270 C   0  0  0  0  0  0  0  0  0  0  0  0
  189.2610  172.5660  143.5610 C   0  0  0  0  0  2  0  0  0  0  0  0
  191.5090  170.9950  142.7660 C   0  0  0  0  0  2  0  0  0  0  0  0
  190.3650  172.2820  144.6080 C   0  0  2  0  0  3  0  0  0  0  0  0
  190.7720  171.8150  141.7570 C   0  0  0  0  0  3  0  0  0  0  0  0
  188.9950  173.3030  141.1950 O   0  0  0  0  0  0  0  0  0  0  0  0
  188.6320  172.8020  139.9140 C   0  0  0  0  0  2  0  0  0  0  0  0
  189.4760  173.4690  138.8500 C   0  0  0  0  0  2  0  0  0  0  0  0
  190.1790  172.4080  138.0210 C   0  0  0  0  0  2  0  0  0  0  0  0
  191.3470  172.9980  137.2410 C   0  0  1  0  0  3  0  0  0  0  0  0
  192.6010  173.1060  138.1080 C   0  0  0  0  0  2  0  0  0  0  0  0
  193.9080  175.2470  136.2000 C   0  0  0  0  0  0  0  0  0  0  0  0
  194.7430  173.5600  139.7110 F   0  0  0  0  0  0  0  0  0  0  0  0
  192.9860  174.5620  138.3740 C   0  0  1  0  0  3  0  0  0  0  0  0
  197.5050  175.7210  136.3560 N   0  0  0  0  0  2  0  0  0  0  0  0
  194.2740  175.7300  139.9910 F   0  0  0  0  0  0  0  0  0  0  0  0
  194.3790  174.7250  139.0480 C   0  0  0  0  0  0  0  0  0  0  0  0
  193.6960  175.6600  135.0290 O   0  0  0  0  0  0  0  0  0  0  0  0
  197.9330  174.8130  137.4170 C   0  0  0  0  0  2  0  0  0  0  0  0
  196.9040  174.7860  138.5510 C   0  0  0  0  0  2  0  0  0  0  0  0
  195.2340  174.6840  136.6070 C   0  0  2  0  0  3  0  0  0  0  0  0
  195.4910  175.1280  138.0540 C   0  0  1  0  0  3  0  0  0  0  0  0
  196.3680  175.1170  135.6540 C   0  0  0  0  0  2  0  0  0  0  0  0
  192.8890  175.2970  137.1520 O   0  0  0  0  0  0  0  0  0  0  0  0
  191.6030  172.2080  135.9530 C   0  0  0  0  0  2  0  0  0  0  0  0
  193.9780  171.6340  135.4320 O   0  0  0  0  0  0  0  0  0  0  0  0
  192.7840  171.2940  136.0540 C   0  0  0  0  0  0  0  0  0  0  0  0
  192.6900  170.2030  136.6730 O   0  0  0  0  0  1  0  0  0  0  0  0
  190.6010  173.5020  145.4810 C   0  0  0  0  0  2  0  0  0  0  0  0
  189.2980  174.0380  146.0440 C   0  0  0  0  0  2  0  0  0  0  0  0
  189.5900  175.2550  146.8960 C   0  0  0  0  0  2  0  0  0  0  0  0
  188.9360  176.4820  146.2900 C   0  0  0  0  0  2  0  0  0  0  0  0
  188.5410  176.1990  144.8320 C   0  0  1  0  0  3  0  0  0  0  0  0
  186.8890  177.9260  144.8400 C   0  0  0  0  0  2  0  0  0  0  0  0
  185.8930  177.4340  142.7060 C   0  0  1  0  0  3  0  0  0  0  0  0
  187.1370  176.5170  144.5360 N   0  0  0  0  0  0  0  0  0  0  0  0
  186.8180  176.3130  143.1230 C   0  0  0  0  0  2  0  0  0  0  0  0
  186.2550  178.5750  143.6250 C   0  0  0  0  0  2  0  0  0  0  0  0
  186.0870  177.7900  141.2620 C   0  0  0  0  0  0  0  0  0  0  0  0
  187.3620  177.8810  140.7160 O   0  0  0  0  0  1  0  0  0  0  0  0
  185.0890  178.0700  140.5460 O   0  0  0  0  0  0  0  0  0  0  0  0
  189.4600  176.9220  143.8480 C   0  0  0  0  0  2  0  0  0  0  0  0
  194.0230  176.3880  143.8880 C   0  0  0  0  0  2  0  0  0  0  0  0
  193.1120  177.0820  144.8930 C   0  0  0  0  0  2  0  0  0  0  0  0
  191.2590  175.7530  142.6470 C   0  0  0  0  0  3  0  0  0  0  0  0
  190.8850  176.4060  143.9450 C   0  0  1  0  0  3  0  0  0  0  0  0
  191.8200  177.5710  144.2490 C   0  0  0  0  0  2  0  0  0  0  0  0
  192.4280  175.1280  142.4530 C   0  0  0  0  0  3  0  0  0  0  0  0
  193.4840  175.0120  143.5140 C   0  0  1  0  0  3  0  0  0  0  0  0
  194.6360  174.1550  142.9990 C   0  0  0  0  0  2  0  0  0  0  0  0
  196.0150  172.2060  143.6200 C   0  0  0  0  0  1  0  0  0  0  0  0
  194.6780  173.3050  145.3670 C   0  0  0  0  0  1  0  0  0  0  0  0
  196.6800  174.4290  144.4290 C   0  0  0  0  0  1  0  0  0  0  0  0
  195.4930  173.5390  144.1080 C   0  0  0  0  0  0  0  0  0  0  0  0
  1  5  1  0  0  0  0
  2  3  1  0  0  0  0
  3  5  1  0  0  0  0
  4  1  1  0  0  0  0
  5 30  1  6  0  0  0
  6  2  2  0  0  0  0
  6  4  1  0  0  0  0
  7  2  1  0  0  0  0
  8  7  1  0  0  0  0
  9  8  1  0  0  0  0
 10  9  1  0  0  0  0
 11 26  1  6  0  0  0
 11 10  1  0  0  0  0
 11 12  1  0  0  0  0
 13 22  1  0  0  0  0
 13 25  1  0  0  0  0
 15 12  1  6  0  0  0
 15 18  1  0  0  0  0
 16 20  1  0  0  0  0
 18 14  1  0  0  0  0
 18 17  1  0  0  0  0
 19 13  2  0  0  0  0
 20 21  1  0  0  0  0
 22 24  1  6  0  0  0
 22 23  1  0  0  0  0
 23 21  1  1  0  0  0
 23 18  1  0  0  0  0
 24 16  1  0  0  0  0
 25 15  1  0  0  0  0
 26 28  1  0  0  0  0
 27 28  2  0  0  0  0
 28 29  1  0  0  0  0
 30 31  1  0  0  0  0
 31 32  1  0  0  0  0
 33 32  1  0  0  0  0
 34 43  1  6  0  0  0
 34 33  1  0  0  0  0
 36 40  1  6  0  0  0
 36 38  1  0  0  0  0
 36 39  1  0  0  0  0
 37 34  1  0  0  0  0
 37 35  1  0  0  0  0
 38 37  1  0  0  0  0
 39 35  1  0  0  0  0
 41 40  1  0  0  0  0
 42 40  2  0  0  0  0
 44 45  1  0  0  0  0
 46 47  1  0  0  0  0
 47 43  1  6  0  0  0
 47 48  1  0  0  0  0
 48 45  1  0  0  0  0
 49 46  2  0  0  0  0
 49 50  1  0  0  0  0
 50 51  1  6  0  0  0
 50 44  1  0  0  0  0
 51 55  1  0  0  0  0
 52 55  1  0  0  0  0
 55 54  1  0  0  0  0
 55 53  1  0  0  0  0
M  END
>  <MODEL>
9

>  <REMARK>
 VINA RESULT:      -5.4      3.478      8.004
  Name = 
  20 active torsions:
  status: ('A' for Active; 'I' for Inactive)
    1  A    between atoms: C_2  and  C_28
    2  A    between atoms: C_2  and  C_44
    3  A    between atoms: C_6  and  C_46
    4  A    between atoms: C_8  and  C_20
    5  A    between atoms: C_8  and  C_22
    6  A    between atoms: C_10  and  C_32
    7  A    between atoms: C_17  and  C_36
    8  A    between atoms: C_19  and  C_40
    9  A    between atoms: C_19  and  C_45
   10  A    between atoms: C_22  and  C_35
   11  A    between atoms: C_22  and  C_46
   12  A    between atoms: C_27  and  O_54
   13  A    between atoms: C_28  and  C_49
   14  A    between atoms: C_33  and  C_49
   15  A    between atoms: C_33  and  C_52
   16  A    between atoms: N_34  and  C_52
   17  A    between atoms: C_35  and  C_43
   18  A    between atoms: C_36  and  C_52
   19  A    between atoms: C_43  and  C_51
   20  A    between atoms: C_51  and  O_54
                            x       y       z     vdW  Elec       q    Type
                         _______ _______ _______ _____ _____    ______ ____

>  <TORSDO>
F 20

$$$$
