=
 OpenBabel11052418473D

 34 39  0  0  1  0  0  0  0  0999 V2000
  186.7610  178.0130  143.0010 C   0  0  0  0  0  0  0  0  0  0  0  0
  186.5300  177.7330  145.4040 C   0  0  0  0  0  0  0  0  0  0  0  0
  187.9510  176.1500  144.0400 C   0  0  0  0  0  0  0  0  0  0  0  0
  189.3840  174.3910  144.9140 C   0  0  0  0  0  0  0  0  0  0  0  0
  185.5580  179.6610  144.3010 C   0  0  0  0  0  3  0  0  0  0  0  0
  185.7870  178.9160  145.4530 C   0  0  0  0  0  3  0  0  0  0  0  0
  188.8030  176.0000  146.4230 N   0  0  0  0  0  2  0  0  0  0  0  0
  187.1050  177.2950  144.1800 C   0  0  0  0  0  0  0  0  0  0  0  0
  190.0730  173.9820  146.1610 C   0  0  0  0  0  2  0  0  0  0  0  0
  186.0250  179.1980  143.0750 C   0  0  0  0  0  3  0  0  0  0  0  0
  188.2110  175.6400  142.7280 C   0  0  0  0  0  0  0  0  0  0  0  0
  187.1070  177.5430  141.7800 N   0  0  0  0  0  0  0  0  0  0  0  0
  186.5220  176.9690  146.5210 F   0  0  0  0  0  0  0  0  0  0  0  0
  189.5650  173.8370  143.6570 C   0  0  0  0  0  3  0  0  0  0  0  0
  188.9700  174.4450  142.5420 C   0  0  0  0  0  0  0  0  0  0  0  0
  189.6650  175.0810  147.1600 C   0  0  1  0  0  3  0  0  0  0  0  0
  188.6240  175.5100  145.1080 C   0  0  0  0  0  0  0  0  0  0  0  0
  187.7870  176.3840  141.6230 C   0  0  0  0  0  3  0  0  0  0  0  0
  190.6110  173.3930  139.2770 C   0  0  0  0  0  0  0  0  0  0  0  0
  189.5720  172.6890  138.6630 C   0  0  0  0  0  3  0  0  0  0  0  0
  189.1940  173.8200  141.2100 C   0  0  0  0  0  0  0  0  0  0  0  0
  188.3430  172.5550  139.3130 C   0  0  0  0  0  3  0  0  0  0  0  0
  190.4210  173.9590  140.5410 C   0  0  0  0  0  3  0  0  0  0  0  0
  188.1540  173.1200  140.5760 C   0  0  0  0  0  3  0  0  0  0  0  0
  191.8010  173.5300  138.6460 F   0  0  0  0  0  0  0  0  0  0  0  0
  190.8910  175.8270  147.6570 C   0  0  0  0  0  2  0  0  0  0  0  0
  191.4230  176.7500  146.5730 C   0  0  0  0  0  2  0  0  0  0  0  0
  191.6230  176.7810  143.7900 O   0  0  0  0  0  1  0  0  0  0  0  0
  192.5080  176.0940  145.8580 N   0  0  0  0  0  0  0  0  0  0  0  0
  192.7480  176.8440  144.6160 C   0  0  1  0  0  3  0  0  0  0  0  0
  195.1810  176.2750  144.7390 C   0  0  0  0  0  2  0  0  0  0  0  0
  194.8980  175.5660  146.0550 C   0  0  0  0  0  2  0  0  0  0  0  0
  193.6860  176.2120  146.7200 C   0  0  0  0  0  2  0  0  0  0  0  0
  193.9380  176.2510  143.8600 C   0  0  0  0  0  2  0  0  0  0  0  0
  1 10  2  0  0  0  0
  1  8  1  0  0  0  0
  2  6  1  0  0  0  0
  2 13  1  0  0  0  0
  3  8  1  0  0  0  0
  3 17  1  0  0  0  0
  4 17  2  0  0  0  0
  4  9  1  0  0  0  0
  5  6  2  0  0  0  0
  7 16  1  0  0  0  0
  8  2  2  0  0  0  0
  9 16  1  0  0  0  0
 10  5  1  0  0  0  0
 11  3  2  0  0  0  0
 12  1  1  0  0  0  0
 14  4  1  0  0  0  0
 15 11  1  0  0  0  0
 15 14  2  0  0  0  0
 16 26  1  6  0  0  0
 17  7  1  0  0  0  0
 18 12  2  0  0  0  0
 18 11  1  0  0  0  0
 19 23  1  0  0  0  0
 20 19  2  0  0  0  0
 20 22  1  0  0  0  0
 21 15  1  0  0  0  0
 22 24  2  0  0  0  0
 23 21  2  0  0  0  0
 24 21  1  0  0  0  0
 25 19  1  0  0  0  0
 27 26  1  0  0  0  0
 29 27  1  0  0  0  0
 29 33  1  0  0  0  0
 30 28  1  6  0  0  0
 30 29  1  0  0  0  0
 31 32  1  0  0  0  0
 32 33  1  0  0  0  0
 34 30  1  0  0  0  0
 34 31  1  0  0  0  0
M  END
>  <MODEL>
1

>  <REMARK>
 VINA RESULT:      -8.8      0.000      0.000
  Name = 
  4 active torsions:
  status: ('A' for Active; 'I' for Inactive)
    1  A    between atoms: C_3  and  N_13
    2  A    between atoms: C_3  and  C_17
    3  A    between atoms: C_12  and  C_28
    4  A    between atoms: C_17  and  C_29
                            x       y       z     vdW  Elec       q    Type
                         _______ _______ _______ _____ _____    ______ ____

>  <TORSDO>
F 4

$$$$
=
 OpenBabel11052418473D

 34 39  0  0  1  0  0  0  0  0999 V2000
  188.5670  174.3240  141.4000 C   0  0  0  0  0  0  0  0  0  0  0  0
  190.9900  174.4990  141.4010 C   0  0  0  0  0  0  0  0  0  0  0  0
  189.6090  175.5550  143.2350 C   0  0  0  0  0  0  0  0  0  0  0  0
  190.4660  176.6130  145.2490 C   0  0  0  0  0  0  0  0  0  0  0  0
  189.8650  173.1330  139.7430 C   0  0  0  0  0  3  0  0  0  0  0  0
  191.0340  173.6630  140.2820 C   0  0  0  0  0  3  0  0  0  0  0  0
  191.9320  175.2180  144.1950 N   0  0  0  0  0  2  0  0  0  0  0  0
  189.7520  174.7850  142.0370 C   0  0  0  0  0  0  0  0  0  0  0  0
  191.6800  176.6570  146.0980 C   0  0  0  0  0  2  0  0  0  0  0  0
  188.6340  173.4820  140.2880 C   0  0  0  0  0  3  0  0  0  0  0  0
  188.3090  176.0280  143.6000 C   0  0  0  0  0  0  0  0  0  0  0  0
  187.3490  174.7230  141.8360 N   0  0  0  0  0  0  0  0  0  0  0  0
  192.1410  175.1330  141.7250 F   0  0  0  0  0  0  0  0  0  0  0  0
  189.2280  177.1510  145.5590 C   0  0  0  0  0  3  0  0  0  0  0  0
  188.1290  176.8790  144.7320 C   0  0  0  0  0  0  0  0  0  0  0  0
  192.6500  175.7110  145.3660 C   0  0  1  0  0  3  0  0  0  0  0  0
  190.6580  175.8320  144.1440 C   0  0  0  0  0  0  0  0  0  0  0  0
  187.2010  175.5670  142.8820 C   0  0  0  0  0  3  0  0  0  0  0  0
  185.1370  179.2210  144.8820 C   0  0  0  0  0  0  0  0  0  0  0  0
  184.3650  178.6160  145.8760 C   0  0  0  0  0  3  0  0  0  0  0  0
  186.8160  177.4730  145.1050 C   0  0  0  0  0  0  0  0  0  0  0  0
  184.8160  177.4470  146.4930 C   0  0  0  0  0  3  0  0  0  0  0  0
  186.3570  178.6560  144.5030 C   0  0  0  0  0  3  0  0  0  0  0  0
  186.0360  176.8810  146.1130 C   0  0  0  0  0  3  0  0  0  0  0  0
  184.7030  180.3580  144.2870 F   0  0  0  0  0  0  0  0  0  0  0  0
  193.0240  174.5400  146.2580 C   0  0  0  0  0  2  0  0  0  0  0  0
  193.5040  173.3690  145.4160 C   0  0  0  0  0  2  0  0  0  0  0  0
  194.2760  170.7110  145.7710 O   0  0  0  0  0  1  0  0  0  0  0  0
  194.8500  172.9910  145.8210 N   0  0  0  0  0  0  0  0  0  0  0  0
  195.1420  171.6710  145.2410 C   0  0  1  0  0  3  0  0  0  0  0  0
  197.5540  172.2950  145.0250 C   0  0  0  0  0  2  0  0  0  0  0  0
  197.1960  173.6710  145.5670 C   0  0  0  0  0  2  0  0  0  0  0  0
  195.7440  173.9820  145.2170 C   0  0  0  0  0  2  0  0  0  0  0  0
  196.5780  171.2560  145.5620 C   0  0  0  0  0  2  0  0  0  0  0  0
  1 12  2  0  0  0  0
  1  8  1  0  0  0  0
  2 13  1  0  0  0  0
  2  8  1  0  0  0  0
  3 11  1  0  0  0  0
  3 17  1  0  0  0  0
  4 14  1  0  0  0  0
  4  9  1  0  0  0  0
  5  6  1  0  0  0  0
  5 10  2  0  0  0  0
  6  2  2  0  0  0  0
  7 16  1  0  0  0  0
  8  3  2  0  0  0  0
 10  1  1  0  0  0  0
 11 15  1  0  0  0  0
 12 18  1  0  0  0  0
 15 21  1  0  0  0  0
 15 14  2  0  0  0  0
 16  9  1  0  0  0  0
 16 26  1  1  0  0  0
 17  7  1  0  0  0  0
 17  4  2  0  0  0  0
 18 11  2  0  0  0  0
 19 20  1  0  0  0  0
 20 22  2  0  0  0  0
 21 24  2  0  0  0  0
 23 19  2  0  0  0  0
 23 21  1  0  0  0  0
 24 22  1  0  0  0  0
 25 19  1  0  0  0  0
 27 29  1  0  0  0  0
 27 26  1  0  0  0  0
 30 34  1  0  0  0  0
 30 28  1  1  0  0  0
 30 29  1  0  0  0  0
 31 34  1  0  0  0  0
 31 32  1  0  0  0  0
 33 32  1  0  0  0  0
 33 29  1  0  0  0  0
M  END
>  <MODEL>
2

>  <REMARK>
 VINA RESULT:      -8.7      2.536      5.954
  Name = 
  4 active torsions:
  status: ('A' for Active; 'I' for Inactive)
    1  A    between atoms: C_3  and  N_13
    2  A    between atoms: C_3  and  C_17
    3  A    between atoms: C_12  and  C_28
    4  A    between atoms: C_17  and  C_29
                            x       y       z     vdW  Elec       q    Type
                         _______ _______ _______ _____ _____    ______ ____

>  <TORSDO>
F 4

$$$$
=
 OpenBabel11052418473D

 34 39  0  0  1  0  0  0  0  0999 V2000
  191.3110  176.1440  145.7880 C   0  0  0  0  0  0  0  0  0  0  0  0
  191.8100  173.9380  144.9000 C   0  0  0  0  0  0  0  0  0  0  0  0
  189.7520  175.2040  144.1590 C   0  0  0  0  0  0  0  0  0  0  0  0
  188.2180  174.5430  142.3930 C   0  0  0  0  0  0  0  0  0  0  0  0
  193.3880  175.0490  146.3670 C   0  0  0  0  0  3  0  0  0  0  0  0
  193.0170  173.9460  145.6040 C   0  0  0  0  0  3  0  0  0  0  0  0
  190.2640  173.5350  142.3200 N   0  0  0  0  0  2  0  0  0  0  0  0
  190.9620  175.0790  144.9130 C   0  0  0  0  0  0  0  0  0  0  0  0
  188.1490  173.6720  141.1950 C   0  0  0  0  0  2  0  0  0  0  0  0
  192.5260  176.1350  146.4760 C   0  0  0  0  0  3  0  0  0  0  0  0
  188.8400  176.2560  144.4890 C   0  0  0  0  0  0  0  0  0  0  0  0
  190.4550  177.1700  146.0030 N   0  0  0  0  0  0  0  0  0  0  0  0
  191.4330  172.7550  144.3620 F   0  0  0  0  0  0  0  0  0  0  0  0
  187.2880  175.5000  142.7660 C   0  0  0  0  0  3  0  0  0  0  0  0
  187.5770  176.3660  143.8310 C   0  0  0  0  0  0  0  0  0  0  0  0
  189.5370  173.0050  141.1700 C   0  0  1  0  0  3  0  0  0  0  0  0
  189.4110  174.4020  143.0440 C   0  0  0  0  0  0  0  0  0  0  0  0
  189.2440  177.2320  145.4040 C   0  0  0  0  0  3  0  0  0  0  0  0
  184.6770  178.1080  145.5660 C   0  0  0  0  0  0  0  0  0  0  0  0
  184.5810  179.2870  144.8210 C   0  0  0  0  0  3  0  0  0  0  0  0
  186.5530  177.3820  144.1950 C   0  0  0  0  0  0  0  0  0  0  0  0
  185.4600  179.5140  143.7600 C   0  0  0  0  0  3  0  0  0  0  0  0
  185.6540  177.1600  145.2510 C   0  0  0  0  0  3  0  0  0  0  0  0
  186.4370  178.5660  143.4460 C   0  0  0  0  0  3  0  0  0  0  0  0
  183.8210  177.8840  146.5910 F   0  0  0  0  0  0  0  0  0  0  0  0
  190.2770  173.3680  139.8940 C   0  0  0  0  0  2  0  0  0  0  0  0
  191.4070  172.3840  139.6430 C   0  0  0  0  0  2  0  0  0  0  0  0
  190.5300  169.7600  139.2850 O   0  0  0  0  0  1  0  0  0  0  0  0
  191.2520  171.7820  138.3260 N   0  0  0  0  0  0  0  0  0  0  0  0
  190.1710  170.7890  138.4100 C   0  0  1  0  0  3  0  0  0  0  0  0
  189.5360  171.2750  136.0400 C   0  0  0  0  0  2  0  0  0  0  0  0
  190.6220  172.3400  136.0190 C   0  0  0  0  0  2  0  0  0  0  0  0
  190.8310  172.8670  137.4360 C   0  0  0  0  0  2  0  0  0  0  0  0
  189.9020  170.1800  137.0330 C   0  0  0  0  0  2  0  0  0  0  0  0
  1 12  1  0  0  0  0
  1 10  2  0  0  0  0
  2  8  2  0  0  0  0
  2  6  1  0  0  0  0
  3 11  1  0  0  0  0
  3  8  1  0  0  0  0
  4 14  2  0  0  0  0
  4 17  1  0  0  0  0
  5 10  1  0  0  0  0
  6  5  2  0  0  0  0
  7 17  1  0  0  0  0
  8  1  1  0  0  0  0
  9  4  1  0  0  0  0
 11 18  1  0  0  0  0
 13  2  1  0  0  0  0
 14 15  1  0  0  0  0
 15 21  1  0  0  0  0
 15 11  2  0  0  0  0
 16 26  1  6  0  0  0
 16  9  1  0  0  0  0
 16  7  1  0  0  0  0
 17  3  2  0  0  0  0
 18 12  2  0  0  0  0
 19 25  1  0  0  0  0
 20 19  2  0  0  0  0
 21 23  2  0  0  0  0
 22 20  1  0  0  0  0
 23 19  1  0  0  0  0
 24 22  2  0  0  0  0
 24 21  1  0  0  0  0
 27 26  1  0  0  0  0
 29 30  1  0  0  0  0
 29 27  1  0  0  0  0
 30 28  1  1  0  0  0
 31 34  1  0  0  0  0
 32 31  1  0  0  0  0
 32 33  1  0  0  0  0
 33 29  1  0  0  0  0
 34 30  1  0  0  0  0
M  END
>  <MODEL>
3

>  <REMARK>
 VINA RESULT:      -8.5      2.826      7.528
  Name = 
  4 active torsions:
  status: ('A' for Active; 'I' for Inactive)
    1  A    between atoms: C_3  and  N_13
    2  A    between atoms: C_3  and  C_17
    3  A    between atoms: C_12  and  C_28
    4  A    between atoms: C_17  and  C_29
                            x       y       z     vdW  Elec       q    Type
                         _______ _______ _______ _____ _____    ______ ____

>  <TORSDO>
F 4

$$$$
=
 OpenBabel11052418473D

 34 39  0  0  1  0  0  0  0  0999 V2000
  186.3430  177.0150  146.0120 C   0  0  0  0  0  0  0  0  0  0  0  0
  184.9250  178.8510  145.2900 C   0  0  0  0  0  0  0  0  0  0  0  0
  186.1810  177.4390  143.6120 C   0  0  0  0  0  0  0  0  0  0  0  0
  185.9700  177.5570  141.1930 C   0  0  0  0  0  0  0  0  0  0  0  0
  185.0020  178.2150  147.6280 C   0  0  0  0  0  3  0  0  0  0  0  0
  184.5270  179.0430  146.6150 C   0  0  0  0  0  3  0  0  0  0  0  0
  184.2390  178.4790  142.3570 N   0  0  0  0  0  2  0  0  0  0  0  0
  185.7860  177.7740  144.9460 C   0  0  0  0  0  0  0  0  0  0  0  0
  185.0400  178.0320  140.1410 C   0  0  0  0  0  2  0  0  0  0  0  0
  185.9250  177.2190  147.3290 C   0  0  0  0  0  3  0  0  0  0  0  0
  187.2790  176.5420  143.4220 C   0  0  0  0  0  0  0  0  0  0  0  0
  187.3190  176.1070  145.7770 N   0  0  0  0  0  0  0  0  0  0  0  0
  184.5860  179.8240  144.4120 F   0  0  0  0  0  0  0  0  0  0  0  0
  187.0890  176.7630  141.0010 C   0  0  0  0  0  3  0  0  0  0  0  0
  187.7720  176.2520  142.1140 C   0  0  0  0  0  0  0  0  0  0  0  0
  183.8850  178.6480  140.9510 C   0  0  1  0  0  3  0  0  0  0  0  0
  185.5150  177.8750  142.4410 C   0  0  0  0  0  0  0  0  0  0  0  0
  187.8050  175.8800  144.5350 C   0  0  0  0  0  3  0  0  0  0  0  0
  189.9790  173.3760  140.9650 C   0  0  0  0  0  0  0  0  0  0  0  0
  191.2240  173.7720  141.4590 C   0  0  0  0  0  3  0  0  0  0  0  0
  188.9660  175.3990  141.8620 C   0  0  0  0  0  0  0  0  0  0  0  0
  191.3450  174.9730  142.1620 C   0  0  0  0  0  3  0  0  0  0  0  0
  188.8570  174.1830  141.1700 C   0  0  0  0  0  3  0  0  0  0  0  0
  190.2220  175.7800  142.3660 C   0  0  0  0  0  3  0  0  0  0  0  0
  189.8600  172.2080  140.2890 F   0  0  0  0  0  0  0  0  0  0  0  0
  182.5860  177.9150  140.6660 C   0  0  0  0  0  2  0  0  0  0  0  0
  181.5090  178.3500  141.6460 C   0  0  0  0  0  2  0  0  0  0  0  0
  179.0710  177.1660  142.3100 O   0  0  0  0  0  1  0  0  0  0  0  0
  180.2760  178.6380  140.9270 N   0  0  0  0  0  0  0  0  0  0  0  0
  179.1580  178.4900  141.8710 C   0  0  1  0  0  3  0  0  0  0  0  0
  177.9040  180.2930  140.6730 C   0  0  0  0  0  2  0  0  0  0  0  0
  179.1100  180.4580  139.7610 C   0  0  0  0  0  2  0  0  0  0  0  0
  180.3680  180.0410  140.5170 C   0  0  0  0  0  2  0  0  0  0  0  0
  177.8390  178.8630  141.1930 C   0  0  0  0  0  2  0  0  0  0  0  0
  1 10  2  0  0  0  0
  2  6  1  0  0  0  0
  3  8  1  0  0  0  0
  4 17  1  0  0  0  0
  6  5  2  0  0  0  0
  7 17  1  0  0  0  0
  8  2  2  0  0  0  0
  8  1  1  0  0  0  0
  9 16  1  0  0  0  0
  9  4  1  0  0  0  0
 10  5  1  0  0  0  0
 11  3  1  0  0  0  0
 11 18  1  0  0  0  0
 12  1  1  0  0  0  0
 13  2  1  0  0  0  0
 14  4  2  0  0  0  0
 14 15  1  0  0  0  0
 15 11  2  0  0  0  0
 16 26  1  1  0  0  0
 16  7  1  0  0  0  0
 17  3  2  0  0  0  0
 18 12  2  0  0  0  0
 19 23  2  0  0  0  0
 19 20  1  0  0  0  0
 20 22  2  0  0  0  0
 21 15  1  0  0  0  0
 21 24  2  0  0  0  0
 22 24  1  0  0  0  0
 23 21  1  0  0  0  0
 25 19  1  0  0  0  0
 26 27  1  0  0  0  0
 29 27  1  0  0  0  0
 29 30  1  0  0  0  0
 30 28  1  6  0  0  0
 31 34  1  0  0  0  0
 32 33  1  0  0  0  0
 32 31  1  0  0  0  0
 33 29  1  0  0  0  0
 34 30  1  0  0  0  0
M  END
>  <MODEL>
4

>  <REMARK>
 VINA RESULT:      -8.5      4.321      8.389
  Name = 
  4 active torsions:
  status: ('A' for Active; 'I' for Inactive)
    1  A    between atoms: C_3  and  N_13
    2  A    between atoms: C_3  and  C_17
    3  A    between atoms: C_12  and  C_28
    4  A    between atoms: C_17  and  C_29
                            x       y       z     vdW  Elec       q    Type
                         _______ _______ _______ _____ _____    ______ ____

>  <TORSDO>
F 4

$$$$
=
 OpenBabel11052418473D

 34 39  0  0  1  0  0  0  0  0999 V2000
  191.3730  176.1100  145.6420 C   0  0  0  0  0  0  0  0  0  0  0  0
  191.7850  173.8860  144.7530 C   0  0  0  0  0  0  0  0  0  0  0  0
  189.7240  175.1900  144.0920 C   0  0  0  0  0  0  0  0  0  0  0  0
  188.1000  174.5470  142.4010 C   0  0  0  0  0  0  0  0  0  0  0  0
  193.4500  174.9750  146.1400 C   0  0  0  0  0  3  0  0  0  0  0  0
  193.0220  173.8740  145.4040 C   0  0  0  0  0  3  0  0  0  0  0  0
  190.1190  173.4950  142.2480 N   0  0  0  0  0  2  0  0  0  0  0  0
  190.9630  175.0450  144.7930 C   0  0  0  0  0  0  0  0  0  0  0  0
  187.9600  173.6680  141.2160 C   0  0  0  0  0  2  0  0  0  0  0  0
  192.6170  176.0800  146.2760 C   0  0  0  0  0  3  0  0  0  0  0  0
  188.8500  176.2640  144.4510 C   0  0  0  0  0  0  0  0  0  0  0  0
  190.5480  177.1560  145.8850 N   0  0  0  0  0  0  0  0  0  0  0  0
  191.3600  172.7070  144.2440 F   0  0  0  0  0  0  0  0  0  0  0  0
  187.2080  175.5270  142.8050 C   0  0  0  0  0  3  0  0  0  0  0  0
  187.5620  176.3950  143.8480 C   0  0  0  0  0  0  0  0  0  0  0  0
  189.3310  172.9710  141.1360 C   0  0  1  0  0  3  0  0  0  0  0  0
  189.3170  174.3860  143.0000 C   0  0  0  0  0  0  0  0  0  0  0  0
  189.3140  177.2390  145.3390 C   0  0  0  0  0  3  0  0  0  0  0  0
  184.7260  178.1850  145.6420 C   0  0  0  0  0  0  0  0  0  0  0  0
  184.6770  179.3920  144.9390 C   0  0  0  0  0  3  0  0  0  0  0  0
  186.5760  177.4370  144.2480 C   0  0  0  0  0  0  0  0  0  0  0  0
  185.5660  179.6230  143.8870 C   0  0  0  0  0  3  0  0  0  0  0  0
  185.6680  177.2120  145.2940 C   0  0  0  0  0  3  0  0  0  0  0  0
  186.5080  178.6500  143.5410 C   0  0  0  0  0  3  0  0  0  0  0  0
  183.8610  177.9580  146.6580 F   0  0  0  0  0  0  0  0  0  0  0  0
  190.0210  173.3080  139.8260 C   0  0  0  0  0  2  0  0  0  0  0  0
  189.0060  173.7910  138.8030 C   0  0  0  0  0  2  0  0  0  0  0  0
  188.9740  174.6250  136.1410 O   0  0  0  0  0  1  0  0  0  0  0  0
  188.9460  172.8550  137.6890 N   0  0  0  0  0  0  0  0  0  0  0  0
  189.6420  173.4680  136.5480 C   0  0  1  0  0  3  0  0  0  0  0  0
  190.3850  171.2060  135.7820 C   0  0  0  0  0  2  0  0  0  0  0  0
  189.7070  170.6210  137.0120 C   0  0  0  0  0  2  0  0  0  0  0  0
  189.6920  171.6700  138.1190 C   0  0  0  0  0  2  0  0  0  0  0  0
  189.6870  172.4950  135.3690 C   0  0  0  0  0  2  0  0  0  0  0  0
  1 12  1  0  0  0  0
  1 10  2  0  0  0  0
  2  8  2  0  0  0  0
  2  6  1  0  0  0  0
  3 11  1  0  0  0  0
  3  8  1  0  0  0  0
  4 14  2  0  0  0  0
  4 17  1  0  0  0  0
  5 10  1  0  0  0  0
  6  5  2  0  0  0  0
  7 17  1  0  0  0  0
  8  1  1  0  0  0  0
  9  4  1  0  0  0  0
 11 18  1  0  0  0  0
 13  2  1  0  0  0  0
 14 15  1  0  0  0  0
 15 21  1  0  0  0  0
 15 11  2  0  0  0  0
 16 26  1  6  0  0  0
 16  9  1  0  0  0  0
 16  7  1  0  0  0  0
 17  3  2  0  0  0  0
 18 12  2  0  0  0  0
 19 25  1  0  0  0  0
 20 19  2  0  0  0  0
 21 23  2  0  0  0  0
 22 20  1  0  0  0  0
 23 19  1  0  0  0  0
 24 22  2  0  0  0  0
 24 21  1  0  0  0  0
 27 26  1  0  0  0  0
 29 33  1  0  0  0  0
 29 27  1  0  0  0  0
 30 28  1  6  0  0  0
 30 29  1  0  0  0  0
 31 32  1  0  0  0  0
 32 33  1  0  0  0  0
 34 31  1  0  0  0  0
 34 30  1  0  0  0  0
M  END
>  <MODEL>
5

>  <REMARK>
 VINA RESULT:      -8.4      2.737      7.623
  Name = 
  4 active torsions:
  status: ('A' for Active; 'I' for Inactive)
    1  A    between atoms: C_3  and  N_13
    2  A    between atoms: C_3  and  C_17
    3  A    between atoms: C_12  and  C_28
    4  A    between atoms: C_17  and  C_29
                            x       y       z     vdW  Elec       q    Type
                         _______ _______ _______ _____ _____    ______ ____

>  <TORSDO>
F 4

$$$$
=
 OpenBabel11052418473D

 34 39  0  0  1  0  0  0  0  0999 V2000
  191.3030  176.1250  145.9090 C   0  0  0  0  0  0  0  0  0  0  0  0
  191.7750  173.9210  145.0020 C   0  0  0  0  0  0  0  0  0  0  0  0
  189.7470  175.2300  144.2530 C   0  0  0  0  0  0  0  0  0  0  0  0
  188.2210  174.6140  142.4630 C   0  0  0  0  0  0  0  0  0  0  0  0
  193.3560  174.9890  146.4980 C   0  0  0  0  0  3  0  0  0  0  0  0
  192.9740  173.9010  145.7180 C   0  0  0  0  0  3  0  0  0  0  0  0
  190.2510  173.5730  142.4010 N   0  0  0  0  0  2  0  0  0  0  0  0
  190.9460  175.0760  145.0180 C   0  0  0  0  0  0  0  0  0  0  0  0
  188.1510  173.7570  141.2550 C   0  0  0  0  0  2  0  0  0  0  0  0
  192.5110  176.0880  146.6090 C   0  0  0  0  0  3  0  0  0  0  0  0
  188.8490  176.2930  144.5840 C   0  0  0  0  0  0  0  0  0  0  0  0
  190.4620  177.1640  146.1260 N   0  0  0  0  0  0  0  0  0  0  0  0
  191.3840  172.7500  144.4470 F   0  0  0  0  0  0  0  0  0  0  0  0
  187.3040  175.5820  142.8360 C   0  0  0  0  0  3  0  0  0  0  0  0
  187.5960  176.4320  143.9130 C   0  0  0  0  0  0  0  0  0  0  0  0
  189.5270  173.0680  141.2380 C   0  0  1  0  0  3  0  0  0  0  0  0
  189.4050  174.4460  143.1250 C   0  0  0  0  0  0  0  0  0  0  0  0
  189.2590  177.2520  145.5140 C   0  0  0  0  0  3  0  0  0  0  0  0
  184.6840  178.1910  145.6120 C   0  0  0  0  0  0  0  0  0  0  0  0
  184.6390  179.3930  144.9030 C   0  0  0  0  0  3  0  0  0  0  0  0
  186.5840  177.4610  144.2780 C   0  0  0  0  0  0  0  0  0  0  0  0
  185.5560  179.6310  143.8760 C   0  0  0  0  0  3  0  0  0  0  0  0
  185.6480  177.2290  145.2980 C   0  0  0  0  0  3  0  0  0  0  0  0
  186.5200  178.6700  143.5640 C   0  0  0  0  0  3  0  0  0  0  0  0
  183.7910  177.9560  146.6040 F   0  0  0  0  0  0  0  0  0  0  0  0
  190.2880  173.4320  139.9740 C   0  0  0  0  0  2  0  0  0  0  0  0
  191.7440  173.0130  140.0950 C   0  0  0  0  0  2  0  0  0  0  0  0
  193.7390  173.9900  141.7830 O   0  0  0  0  0  1  0  0  0  0  0  0
  192.6080  174.1250  139.7250 N   0  0  0  0  0  0  0  0  0  0  0  0
  193.9020  173.9320  140.3960 C   0  0  1  0  0  3  0  0  0  0  0  0
  195.0670  175.0160  138.4660 C   0  0  0  0  0  2  0  0  0  0  0  0
  193.7150  175.1350  137.7800 C   0  0  0  0  0  2  0  0  0  0  0  0
  192.8030  174.0180  138.2780 C   0  0  0  0  0  2  0  0  0  0  0  0
  194.8850  175.0270  139.9780 C   0  0  0  0  0  2  0  0  0  0  0  0
  1 12  1  0  0  0  0
  1 10  2  0  0  0  0
  2  8  2  0  0  0  0
  2  6  1  0  0  0  0
  3 11  1  0  0  0  0
  3  8  1  0  0  0  0
  4 14  2  0  0  0  0
  4 17  1  0  0  0  0
  5 10  1  0  0  0  0
  6  5  2  0  0  0  0
  7 17  1  0  0  0  0
  8  1  1  0  0  0  0
  9  4  1  0  0  0  0
 11 18  1  0  0  0  0
 13  2  1  0  0  0  0
 14 15  1  0  0  0  0
 15 21  1  0  0  0  0
 15 11  2  0  0  0  0
 16 26  1  6  0  0  0
 16  9  1  0  0  0  0
 16  7  1  0  0  0  0
 17  3  2  0  0  0  0
 18 12  2  0  0  0  0
 19 25  1  0  0  0  0
 20 19  2  0  0  0  0
 21 23  2  0  0  0  0
 22 20  1  0  0  0  0
 23 19  1  0  0  0  0
 24 22  2  0  0  0  0
 24 21  1  0  0  0  0
 26 27  1  0  0  0  0
 29 27  1  0  0  0  0
 29 30  1  0  0  0  0
 30 28  1  1  0  0  0
 31 34  1  0  0  0  0
 32 33  1  0  0  0  0
 32 31  1  0  0  0  0
 33 29  1  0  0  0  0
 34 30  1  0  0  0  0
M  END
>  <MODEL>
6

>  <REMARK>
 VINA RESULT:      -8.2      2.642      6.684
  Name = 
  4 active torsions:
  status: ('A' for Active; 'I' for Inactive)
    1  A    between atoms: C_3  and  N_13
    2  A    between atoms: C_3  and  C_17
    3  A    between atoms: C_12  and  C_28
    4  A    between atoms: C_17  and  C_29
                            x       y       z     vdW  Elec       q    Type
                         _______ _______ _______ _____ _____    ______ ____

>  <TORSDO>
F 4

$$$$
=
 OpenBabel11052418473D

 34 39  0  0  1  0  0  0  0  0999 V2000
  190.8270  173.7770  141.0140 C   0  0  0  0  0  0  0  0  0  0  0  0
  189.0240  173.1400  142.5120 C   0  0  0  0  0  0  0  0  0  0  0  0
  191.1760  174.1170  143.4070 C   0  0  0  0  0  0  0  0  0  0  0  0
  191.6200  174.7400  145.7150 C   0  0  0  0  0  0  0  0  0  0  0  0
  188.7100  173.0350  140.1110 C   0  0  0  0  0  3  0  0  0  0  0  0
  188.2300  172.8410  141.4020 C   0  0  0  0  0  3  0  0  0  0  0  0
  189.4110  174.5370  145.1790 N   0  0  0  0  0  2  0  0  0  0  0  0
  190.3210  173.6950  142.3400 C   0  0  0  0  0  0  0  0  0  0  0  0
  190.9100  175.0760  146.9730 C   0  0  0  0  0  2  0  0  0  0  0  0
  190.0130  173.4800  139.9180 C   0  0  0  0  0  3  0  0  0  0  0  0
  192.5570  174.3660  143.1280 C   0  0  0  0  0  0  0  0  0  0  0  0
  192.1210  174.1070  140.7870 N   0  0  0  0  0  0  0  0  0  0  0  0
  188.5620  172.7250  143.7140 F   0  0  0  0  0  0  0  0  0  0  0  0
  192.9740  174.8940  145.4720 C   0  0  0  0  0  3  0  0  0  0  0  0
  193.4700  174.6960  144.1750 C   0  0  0  0  0  0  0  0  0  0  0  0
  189.4270  174.9300  146.5840 C   0  0  1  0  0  3  0  0  0  0  0  0
  190.7440  174.3840  144.7290 C   0  0  0  0  0  0  0  0  0  0  0  0
  192.9820  174.3710  141.7960 C   0  0  0  0  0  3  0  0  0  0  0  0
  196.8520  176.3040  143.5120 C   0  0  0  0  0  0  0  0  0  0  0  0
  197.6860  175.1830  143.4780 C   0  0  0  0  0  3  0  0  0  0  0  0
  194.9320  174.8750  143.9570 C   0  0  0  0  0  0  0  0  0  0  0  0
  197.1480  173.9090  143.6730 C   0  0  0  0  0  3  0  0  0  0  0  0
  195.4830  176.1490  143.7460 C   0  0  0  0  0  3  0  0  0  0  0  0
  195.7790  173.7550  143.9070 C   0  0  0  0  0  3  0  0  0  0  0  0
  197.3710  177.5400  143.3170 F   0  0  0  0  0  0  0  0  0  0  0  0
  188.7030  176.2560  146.7460 C   0  0  0  0  0  2  0  0  0  0  0  0
  188.1870  176.7420  145.4010 C   0  0  0  0  0  2  0  0  0  0  0  0
  185.9250  176.8050  143.7690 O   0  0  0  0  0  1  0  0  0  0  0  0
  187.1010  177.6890  145.6040 N   0  0  0  0  0  0  0  0  0  0  0  0
  185.8570  177.0540  145.1430 C   0  0  1  0  0  3  0  0  0  0  0  0
  184.5710  178.2910  146.8960 C   0  0  0  0  0  2  0  0  0  0  0  0
  185.8900  178.8730  147.3830 C   0  0  0  0  0  2  0  0  0  0  0  0
  187.0170  177.9000  147.0510 C   0  0  0  0  0  2  0  0  0  0  0  0
  184.6620  177.9710  145.4100 C   0  0  0  0  0  2  0  0  0  0  0  0
  1  8  1  0  0  0  0
  2 13  1  0  0  0  0
  3 17  1  0  0  0  0
  4  9  1  0  0  0  0
  5  6  1  0  0  0  0
  6  2  2  0  0  0  0
  7 16  1  0  0  0  0
  8  2  1  0  0  0  0
  8  3  2  0  0  0  0
 10  5  2  0  0  0  0
 10  1  1  0  0  0  0
 11  3  1  0  0  0  0
 11 15  1  0  0  0  0
 12  1  2  0  0  0  0
 12 18  1  0  0  0  0
 14  4  1  0  0  0  0
 15 14  2  0  0  0  0
 16 26  1  6  0  0  0
 16  9  1  0  0  0  0
 17  7  1  0  0  0  0
 17  4  2  0  0  0  0
 18 11  2  0  0  0  0
 19 23  1  0  0  0  0
 20 19  2  0  0  0  0
 20 22  1  0  0  0  0
 21 15  1  0  0  0  0
 22 24  2  0  0  0  0
 23 21  2  0  0  0  0
 24 21  1  0  0  0  0
 25 19  1  0  0  0  0
 27 29  1  0  0  0  0
 27 26  1  0  0  0  0
 29 33  1  0  0  0  0
 30 28  1  6  0  0  0
 30 34  1  0  0  0  0
 30 29  1  0  0  0  0
 31 32  1  0  0  0  0
 33 32  1  0  0  0  0
 34 31  1  0  0  0  0
M  END
>  <MODEL>
7

>  <REMARK>
 VINA RESULT:      -8.0      2.773      6.521
  Name = 
  4 active torsions:
  status: ('A' for Active; 'I' for Inactive)
    1  A    between atoms: C_3  and  N_13
    2  A    between atoms: C_3  and  C_17
    3  A    between atoms: C_12  and  C_28
    4  A    between atoms: C_17  and  C_29
                            x       y       z     vdW  Elec       q    Type
                         _______ _______ _______ _____ _____    ______ ____

>  <TORSDO>
F 4

$$$$
=
 OpenBabel11052418473D

 34 39  0  0  1  0  0  0  0  0999 V2000
  191.2700  173.6340  141.1180 C   0  0  0  0  0  0  0  0  0  0  0  0
  189.0370  173.6580  142.0770 C   0  0  0  0  0  0  0  0  0  0  0  0
  191.0760  174.0490  143.5180 C   0  0  0  0  0  0  0  0  0  0  0  0
  191.0760  174.7010  145.8600 C   0  0  0  0  0  0  0  0  0  0  0  0
  189.3340  173.4560  139.6790 C   0  0  0  0  0  3  0  0  0  0  0  0
  188.5030  173.5100  140.7940 C   0  0  0  0  0  3  0  0  0  0  0  0
  189.1210  175.0930  144.7500 N   0  0  0  0  0  2  0  0  0  0  0  0
  190.4390  173.8050  142.2600 C   0  0  0  0  0  0  0  0  0  0  0  0
  190.1990  175.3220  146.8810 C   0  0  0  0  0  2  0  0  0  0  0  0
  190.7140  173.4950  139.8440 C   0  0  0  0  0  3  0  0  0  0  0  0
  192.4920  173.8710  143.6200 C   0  0  0  0  0  0  0  0  0  0  0  0
  192.6150  173.5630  141.2480 N   0  0  0  0  0  0  0  0  0  0  0  0
  188.1800  173.4870  143.1100 F   0  0  0  0  0  0  0  0  0  0  0  0
  192.4300  174.4420  145.9900 C   0  0  0  0  0  3  0  0  0  0  0  0
  193.1610  174.0090  144.8740 C   0  0  0  0  0  0  0  0  0  0  0  0
  188.8910  175.5750  146.1080 C   0  0  1  0  0  3  0  0  0  0  0  0
  190.4180  174.5310  144.6740 C   0  0  0  0  0  0  0  0  0  0  0  0
  193.2270  173.6500  142.4510 C   0  0  0  0  0  3  0  0  0  0  0  0
  196.4410  172.2820  145.7230 C   0  0  0  0  0  0  0  0  0  0  0  0
  197.3620  173.2990  145.4600 C   0  0  0  0  0  3  0  0  0  0  0  0
  194.6150  173.7470  145.0560 C   0  0  0  0  0  0  0  0  0  0  0  0
  196.9160  174.5420  145.0040 C   0  0  0  0  0  3  0  0  0  0  0  0
  195.0750  172.5070  145.5270 C   0  0  0  0  0  3  0  0  0  0  0  0
  195.5510  174.7660  144.8070 C   0  0  0  0  0  3  0  0  0  0  0  0
  196.8710  171.0780  146.1700 F   0  0  0  0  0  0  0  0  0  0  0  0
  188.5760  177.0600  146.0690 C   0  0  0  0  0  2  0  0  0  0  0  0
  187.9270  177.4270  144.7440 C   0  0  0  0  0  2  0  0  0  0  0  0
  185.9260  177.8260  142.8410 O   0  0  0  0  0  1  0  0  0  0  0  0
  186.7810  178.2940  144.9810 N   0  0  0  0  0  0  0  0  0  0  0  0
  185.6480  177.7640  144.2090 C   0  0  1  0  0  3  0  0  0  0  0  0
  184.0660  178.5680  145.9720 C   0  0  0  0  0  2  0  0  0  0  0  0
  185.2730  179.0420  146.7690 C   0  0  0  0  0  2  0  0  0  0  0  0
  186.4780  178.1780  146.4090 C   0  0  0  0  0  2  0  0  0  0  0  0
  184.3880  178.5860  144.4840 C   0  0  0  0  0  2  0  0  0  0  0  0
  1 12  2  0  0  0  0
  1  8  1  0  0  0  0
  2  8  1  0  0  0  0
  2 13  1  0  0  0  0
  3 11  1  0  0  0  0
  3 17  1  0  0  0  0
  4 14  1  0  0  0  0
  4  9  1  0  0  0  0
  5 10  2  0  0  0  0
  5  6  1  0  0  0  0
  6  2  2  0  0  0  0
  7 16  1  0  0  0  0
  8  3  2  0  0  0  0
 10  1  1  0  0  0  0
 11 15  1  0  0  0  0
 12 18  1  0  0  0  0
 15 21  1  0  0  0  0
 15 14  2  0  0  0  0
 16 26  1  6  0  0  0
 16  9  1  0  0  0  0
 17  7  1  0  0  0  0
 17  4  2  0  0  0  0
 18 11  2  0  0  0  0
 19 25  1  0  0  0  0
 20 19  2  0  0  0  0
 21 23  2  0  0  0  0
 22 20  1  0  0  0  0
 23 19  1  0  0  0  0
 24 22  2  0  0  0  0
 24 21  1  0  0  0  0
 27 29  1  0  0  0  0
 27 26  1  0  0  0  0
 29 33  1  0  0  0  0
 30 28  1  6  0  0  0
 30 34  1  0  0  0  0
 30 29  1  0  0  0  0
 31 32  1  0  0  0  0
 33 32  1  0  0  0  0
 34 31  1  0  0  0  0
M  END
>  <MODEL>
8

>  <REMARK>
 VINA RESULT:      -7.9      2.957      6.840
  Name = 
  4 active torsions:
  status: ('A' for Active; 'I' for Inactive)
    1  A    between atoms: C_3  and  N_13
    2  A    between atoms: C_3  and  C_17
    3  A    between atoms: C_12  and  C_28
    4  A    between atoms: C_17  and  C_29
                            x       y       z     vdW  Elec       q    Type
                         _______ _______ _______ _____ _____    ______ ____

>  <TORSDO>
F 4

$$$$
=
 OpenBabel11052418473D

 34 39  0  0  1  0  0  0  0  0999 V2000
  190.0390  173.5820  141.6150 C   0  0  0  0  0  0  0  0  0  0  0  0
  192.3800  174.0390  141.1540 C   0  0  0  0  0  0  0  0  0  0  0  0
  191.1930  175.1550  143.0850 C   0  0  0  0  0  0  0  0  0  0  0  0
  192.2200  176.5590  144.7840 C   0  0  0  0  0  0  0  0  0  0  0  0
  191.1940  172.3470  139.8860 C   0  0  0  0  0  3  0  0  0  0  0  0
  192.3520  173.0750  140.1420 C   0  0  0  0  0  3  0  0  0  0  0  0
  193.6670  175.2210  143.6350 N   0  0  0  0  0  2  0  0  0  0  0  0
  191.2380  174.2580  141.9710 C   0  0  0  0  0  0  0  0  0  0  0  0
  193.5410  176.8550  145.3870 C   0  0  0  0  0  2  0  0  0  0  0  0
  190.0350  172.6170  140.6060 C   0  0  0  0  0  3  0  0  0  0  0  0
  189.9190  175.5150  143.6290 C   0  0  0  0  0  0  0  0  0  0  0  0
  188.8680  173.8890  142.2200 N   0  0  0  0  0  0  0  0  0  0  0  0
  193.4700  174.8400  141.1930 F   0  0  0  0  0  0  0  0  0  0  0  0
  190.9890  176.9840  145.2550 C   0  0  0  0  0  3  0  0  0  0  0  0
  189.8150  176.4800  144.6770 C   0  0  0  0  0  0  0  0  0  0  0  0
  194.4960  175.9430  144.5950 C   0  0  1  0  0  3  0  0  0  0  0  0
  192.3300  175.6690  143.7530 C   0  0  0  0  0  0  0  0  0  0  0  0
  188.7820  174.8390  143.1790 C   0  0  0  0  0  3  0  0  0  0  0  0
  186.7560  176.8830  146.9000 C   0  0  0  0  0  0  0  0  0  0  0  0
  186.0210  177.8310  146.1840 C   0  0  0  0  0  3  0  0  0  0  0  0
  188.5140  176.9590  145.2180 C   0  0  0  0  0  0  0  0  0  0  0  0
  186.5220  178.3390  144.9830 C   0  0  0  0  0  3  0  0  0  0  0  0
  187.9930  176.4470  146.4160 C   0  0  0  0  0  3  0  0  0  0  0  0
  187.7580  177.9030  144.5010 C   0  0  0  0  0  3  0  0  0  0  0  0
  186.2690  176.3840  148.0610 F   0  0  0  0  0  0  0  0  0  0  0  0
  195.1730  174.9490  145.5250 C   0  0  0  0  0  2  0  0  0  0  0  0
  195.6210  173.7220  144.7480 C   0  0  0  0  0  2  0  0  0  0  0  0
  193.2650  172.2400  144.9450 O   0  0  0  0  0  1  0  0  0  0  0  0
  195.5070  172.5390  145.5890 N   0  0  0  0  0  0  0  0  0  0  0  0
  194.5260  171.6370  144.9680 C   0  0  1  0  0  3  0  0  0  0  0  0
  195.7880  169.6600  145.8370 C   0  0  0  0  0  2  0  0  0  0  0  0
  196.8150  170.6280  146.4060 C   0  0  0  0  0  2  0  0  0  0  0  0
  196.8240  171.8990  145.5620 C   0  0  0  0  0  2  0  0  0  0  0  0
  194.4250  170.3340  145.7630 C   0  0  0  0  0  2  0  0  0  0  0  0
  1  8  2  0  0  0  0
  1 12  1  0  0  0  0
  2 13  1  0  0  0  0
  2  8  1  0  0  0  0
  3 11  2  0  0  0  0
  3 17  1  0  0  0  0
  4 14  1  0  0  0  0
  4  9  1  0  0  0  0
  5  6  1  0  0  0  0
  5 10  2  0  0  0  0
  6  2  2  0  0  0  0
  7 17  1  0  0  0  0
  7 16  1  0  0  0  0
  8  3  1  0  0  0  0
 10  1  1  0  0  0  0
 11 15  1  0  0  0  0
 12 18  2  0  0  0  0
 15 21  1  0  0  0  0
 15 14  2  0  0  0  0
 16  9  1  0  0  0  0
 16 26  1  1  0  0  0
 17  4  2  0  0  0  0
 18 11  1  0  0  0  0
 19 25  1  0  0  0  0
 20 19  2  0  0  0  0
 21 23  2  0  0  0  0
 22 20  1  0  0  0  0
 23 19  1  0  0  0  0
 24 22  2  0  0  0  0
 24 21  1  0  0  0  0
 27 26  1  0  0  0  0
 27 29  1  0  0  0  0
 30 28  1  1  0  0  0
 30 29  1  0  0  0  0
 30 34  1  0  0  0  0
 31 32  1  0  0  0  0
 33 29  1  0  0  0  0
 33 32  1  0  0  0  0
 34 31  1  0  0  0  0
M  END
>  <MODEL>
9

>  <REMARK>
 VINA RESULT:      -7.8      2.761      6.467
  Name = 
  4 active torsions:
  status: ('A' for Active; 'I' for Inactive)
    1  A    between atoms: C_3  and  N_13
    2  A    between atoms: C_3  and  C_17
    3  A    between atoms: C_12  and  C_28
    4  A    between atoms: C_17  and  C_29
                            x       y       z     vdW  Elec       q    Type
                         _______ _______ _______ _____ _____    ______ ____

>  <TORSDO>
F 4

$$$$
