=
 OpenBabel11052419493D

 55 59  0  0  1  0  0  0  0  0999 V2000
  192.3910  172.5360  143.3290 C   0  0  0  0  0  2  0  0  0  0  0  0
  189.6420  172.0060  144.9760 C   0  0  0  0  0  1  0  0  0  0  0  0
  192.2690  170.8400  139.4240 C   0  0  2  0  0  3  0  0  0  0  0  0
  188.8310  173.0680  138.5250 O   0  0  0  0  0  1  0  0  0  0  0  0
  189.9360  170.3930  139.5280 C   0  0  0  0  0  1  0  0  0  0  0  0
  189.5730  173.4560  139.6420 C   0  0  2  0  0  0  0  0  0  0  0  0
  190.7320  172.5610  140.0700 C   0  0  1  0  0  3  0  0  0  0  0  0
  189.1250  173.2950  142.9330 C   0  0  0  0  0  2  0  0  0  0  0  0
  192.8250  169.0480  140.9210 O   0  0  0  0  0  1  0  0  0  0  0  0
  190.9290  171.4070  139.1940 N   0  0  0  0  0  0  0  0  0  0  0  0
  188.9030  174.3840  140.6600 C   0  0  0  0  0  2  0  0  0  0  0  0
  193.1820  172.5770  142.0280 C   0  0  0  0  0  2  0  0  0  0  0  0
  190.9880  173.8480  139.2850 C   0  0  0  0  0  2  0  0  0  0  0  0
  191.1200  171.9960  143.1130 O   0  0  0  0  0  0  0  0  0  0  0  0
  190.2440  172.8080  143.8390 C   0  0  2  0  0  3  0  0  0  0  0  0
  192.5230  170.4080  140.8920 C   0  0  1  0  0  3  0  0  0  0  0  0
  189.6300  174.4000  142.0160 C   0  0  1  0  0  3  0  0  0  0  0  0
  193.6330  171.1850  141.6010 C   0  0  0  0  0  2  0  0  0  0  0  0
  189.6170  175.7030  142.6940 N   0  0  0  0  0  0  0  0  0  0  0  0
  188.6620  176.6150  142.0690 C   0  0  0  0  0  2  0  0  0  0  0  0
  187.7300  176.6470  144.3910 C   0  0  0  0  0  3  0  0  0  0  0  0
  186.0480  178.2710  145.0480 C   0  0  0  0  0  0  0  0  0  0  0  0
  186.9560  178.2950  142.7950 C   0  0  0  0  0  3  0  0  0  0  0  0
  186.0960  178.8260  143.7600 C   0  0  0  0  0  3  0  0  0  0  0  0
  186.8700  177.1780  145.3550 C   0  0  0  0  0  3  0  0  0  0  0  0
  187.7800  177.2090  143.1120 C   0  0  0  0  0  0  0  0  0  0  0  0
  185.1420  178.8250  146.0670 C   0  0  0  0  0  0  0  0  0  0  0  0
  185.5960  179.2480  147.1630 O   0  0  0  0  0  1  0  0  0  0  0  0
  183.7740  178.8880  145.8270 O   0  0  0  0  0  0  0  0  0  0  0  0
  190.9450  176.2950  142.5870 C   0  0  0  0  0  2  0  0  0  0  0  0
  191.0810  177.9130  144.2940 O   0  0  0  0  0  0  0  0  0  0  0  0
  191.3890  176.7920  143.9230 C   0  0  0  0  0  0  0  0  0  0  0  0
  192.1740  175.8930  144.8250 C   0  0  0  0  0  2  0  0  0  0  0  0
  193.5930  176.3630  144.9420 C   0  0  0  0  0  0  0  0  0  0  0  0
  194.1130  176.6980  146.2390 S   0  0  0  0  0  0  0  0  0  0  0  0
  195.8630  176.1380  144.2700 O   0  0  0  0  0  0  0  0  0  0  0  0
  195.2970  174.8910  143.9540 C   0  0  0  0  0  2  0  0  0  0  0  0
  194.5360  176.1550  143.7950 C   0  0  1  0  0  3  0  0  0  0  0  0
  193.2610  171.7230  138.9450 O   0  0  0  0  0  0  0  0  0  0  0  0
  195.7410  170.0330  137.9140 C   0  0  1  0  0  3  0  0  0  0  0  0
  193.7860  171.2440  137.7190 C   0  0  2  0  0  0  0  0  0  0  0  0
  193.5760  169.8460  137.6090 O   0  0  0  0  0  0  0  0  0  0  0  0
  195.7900  169.7000  139.2730 O   0  0  0  0  0  1  0  0  0  0  0  0
  194.7420  169.2740  137.2960 O   0  0  0  0  0  0  0  0  0  0  0  0
  195.2840  171.4440  137.7010 C   0  0  1  0  0  3  0  0  0  0  0  0
  196.7000  172.1360  139.7340 C   0  0  0  0  0  1  0  0  0  0  0  0
  195.4870  173.8290  138.3950 C   0  0  0  0  0  3  0  0  0  0  0  0
  195.8440  172.5490  138.5810 C   0  0  0  0  0  0  0  0  0  0  0  0
  195.1980  175.4890  140.0910 O   0  0  0  0  0  1  0  0  0  0  0  0
  195.9230  174.9950  139.1870 C   0  0  0  0  0  0  0  0  0  0  0  0
  197.1700  175.5500  138.9360 O   0  0  0  0  0  0  0  0  0  0  0  0
  193.1620  171.9820  136.5280 C   0  0  0  0  0  2  0  0  0  0  0  0
  192.4120  171.0950  135.7150 O   0  0  0  0  0  0  0  0  0  0  0  0
  191.0500  171.1940  135.6670 C   0  0  0  0  0  0  0  0  0  0  0  0
  189.8470  171.2810  135.6260 C   0  0  0  0  0  3  0  0  0  0  0  0
  3 39  1  1  0  0  0
  3 16  1  0  0  0  0
  6  4  1  6  0  0  0
  6  7  1  0  0  0  0
  6 11  1  0  0  0  0
  7 13  1  6  0  0  0
  8 15  1  0  0  0  0
 10  3  1  0  0  0  0
 10  5  1  0  0  0  0
 10  7  1  0  0  0  0
 11 17  1  0  0  0  0
 12  1  1  0  0  0  0
 13  6  1  0  0  0  0
 14  1  1  0  0  0  0
 14 15  1  0  0  0  0
 15  2  1  1  0  0  0
 16  9  1  6  0  0  0
 16 18  1  0  0  0  0
 17 19  1  1  0  0  0
 17  8  1  0  0  0  0
 18 12  1  0  0  0  0
 20 19  1  0  0  0  0
 20 26  1  0  0  0  0
 21 25  1  0  0  0  0
 22 25  2  0  0  0  0
 22 27  1  0  0  0  0
 23 26  1  0  0  0  0
 23 24  2  0  0  0  0
 24 22  1  0  0  0  0
 26 21  2  0  0  0  0
 27 28  1  0  0  0  0
 29 27  2  0  0  0  0
 30 19  1  0  0  0  0
 30 32  1  0  0  0  0
 32 31  2  0  0  0  0
 32 33  1  0  0  0  0
 33 34  1  0  0  0  0
 34 35  2  0  0  0  0
 37 36  1  0  0  0  0
 38 37  1  0  0  0  0
 38 36  1  0  0  0  0
 38 34  1  1  0  0  0
 40 43  1  1  0  0  0
 41 52  1  6  0  0  0
 41 39  1  0  0  0  0
 42 41  1  0  0  0  0
 44 42  1  0  0  0  0
 44 40  1  0  0  0  0
 45 41  1  0  0  0  0
 45 40  1  0  0  0  0
 45 48  1  1  0  0  0
 47 48  2  0  0  0  0
 47 50  1  0  0  0  0
 48 46  1  0  0  0  0
 50 49  1  0  0  0  0
 51 50  2  0  0  0  0
 53 52  1  0  0  0  0
 54 53  1  0  0  0  0
 55 54  3  0  0  0  0
M  END
>  <MODEL>
1

>  <REMARK>
 VINA RESULT:      -5.9      0.000      0.000
  Name = 
  16 active torsions:
  status: ('A' for Active; 'I' for Inactive)
    1  A    between atoms: C_6  and  O_8
    2  A    between atoms: C_6  and  C_46
    3  A    between atoms: C_7  and  O_8
    4  A    between atoms: C_10  and  C_32
    5  A    between atoms: C_11  and  C_29
    6  A    between atoms: C_12  and  O_14
    7  A    between atoms: O_14  and  C_46
    8  A    between atoms: C_27  and  C_31
    9  A    between atoms: C_27  and  C_55
   10  A    between atoms: C_28  and  C_44
   11  A    between atoms: C_28  and  N_49
   12  A    between atoms: C_31  and  C_44
   13  A    between atoms: C_33  and  N_49
   14  A    between atoms: C_33  and  C_52
   15  A    between atoms: C_38  and  C_53
   16  A    between atoms: C_45  and  N_49
                            x       y       z     vdW  Elec       q    Type
                         _______ _______ _______ _____ _____    ______ ____

>  <TORSDO>
F 16

$$$$
=
 OpenBabel11052419493D

 55 59  0  0  1  0  0  0  0  0999 V2000
  192.2150  172.3250  142.7500 C   0  0  0  0  0  2  0  0  0  0  0  0
  189.5400  171.5680  144.4290 C   0  0  0  0  0  1  0  0  0  0  0  0
  192.0020  170.9870  138.7110 C   0  0  2  0  0  3  0  0  0  0  0  0
  188.4780  173.1860  138.1320 O   0  0  0  0  0  1  0  0  0  0  0  0
  189.6860  170.4650  138.8500 C   0  0  0  0  0  1  0  0  0  0  0  0
  189.2480  173.4930  139.2550 C   0  0  2  0  0  0  0  0  0  0  0  0
  190.4440  172.5970  139.5620 C   0  0  1  0  0  3  0  0  0  0  0  0
  188.9200  173.0210  142.5300 C   0  0  0  0  0  2  0  0  0  0  0  0
  192.6560  169.0830  140.0190 O   0  0  0  0  0  1  0  0  0  0  0  0
  190.6410  171.5330  138.5780 N   0  0  0  0  0  0  0  0  0  0  0  0
  188.5900  174.3040  140.3750 C   0  0  0  0  0  2  0  0  0  0  0  0
  192.9590  172.5060  141.4330 C   0  0  0  0  0  2  0  0  0  0  0  0
  190.6390  173.9570  138.8910 C   0  0  0  0  0  2  0  0  0  0  0  0
  190.9520  171.7690  142.5260 O   0  0  0  0  0  0  0  0  0  0  0  0
  190.0820  172.4870  143.3520 C   0  0  2  0  0  3  0  0  0  0  0  0
  192.3180  170.4310  140.1250 C   0  0  1  0  0  3  0  0  0  0  0  0
  189.3630  174.2200  141.7030 C   0  0  1  0  0  3  0  0  0  0  0  0
  193.4310  171.1720  140.8660 C   0  0  0  0  0  2  0  0  0  0  0  0
  189.3410  175.4540  142.4970 N   0  0  0  0  0  0  0  0  0  0  0  0
  188.5560  176.4940  141.8360 C   0  0  0  0  0  2  0  0  0  0  0  0
  186.9360  178.2740  142.5170 C   0  0  0  0  0  3  0  0  0  0  0  0
  185.7360  178.1430  144.6240 C   0  0  0  0  0  0  0  0  0  0  0  0
  187.2730  176.3750  143.9800 C   0  0  0  0  0  3  0  0  0  0  0  0
  186.3650  176.9180  144.8930 C   0  0  0  0  0  3  0  0  0  0  0  0
  186.0290  178.8170  143.4310 C   0  0  0  0  0  3  0  0  0  0  0  0
  187.5540  177.0500  142.7870 C   0  0  0  0  0  0  0  0  0  0  0  0
  184.7820  178.7200  145.5840 C   0  0  0  0  0  0  0  0  0  0  0  0
  183.6820  179.1890  145.1880 O   0  0  0  0  0  0  0  0  0  0  0  0
  185.0850  178.7500  146.9410 O   0  0  0  0  0  1  0  0  0  0  0  0
  190.7080  175.9390  142.6410 C   0  0  0  0  0  2  0  0  0  0  0  0
  190.7500  177.3770  144.5070 O   0  0  0  0  0  0  0  0  0  0  0  0
  190.9850  176.2610  144.0720 C   0  0  0  0  0  0  0  0  0  0  0  0
  191.5100  175.1980  144.9820 C   0  0  0  0  0  2  0  0  0  0  0  0
  190.8090  175.2360  146.3070 C   0  0  0  0  0  0  0  0  0  0  0  0
  189.4890  174.6780  146.4150 S   0  0  0  0  0  0  0  0  0  0  0  0
  192.4910  176.5890  147.3060 O   0  0  0  0  0  0  0  0  0  0  0  0
  191.3310  176.9050  148.0360 C   0  0  0  0  0  2  0  0  0  0  0  0
  191.5960  175.5280  147.5500 C   0  0  1  0  0  3  0  0  0  0  0  0
  192.9530  171.9380  138.2830 O   0  0  0  0  0  0  0  0  0  0  0  0
  195.2940  170.2670  136.9420 C   0  0  1  0  0  3  0  0  0  0  0  0
  193.4170  171.6110  136.9850 C   0  0  2  0  0  0  0  0  0  0  0  0
  193.1150  170.2580  136.6840 O   0  0  0  0  0  0  0  0  0  0  0  0
  195.3530  169.7390  138.2370 O   0  0  0  0  0  1  0  0  0  0  0  0
  194.2340  169.6670  136.2550 O   0  0  0  0  0  0  0  0  0  0  0  0
  194.9240  171.7190  136.9470 C   0  0  1  0  0  3  0  0  0  0  0  0
  196.4380  172.0250  139.0050 C   0  0  0  0  0  1  0  0  0  0  0  0
  195.2910  173.9610  137.9730 C   0  0  0  0  0  3  0  0  0  0  0  0
  195.5740  172.6500  137.9570 C   0  0  0  0  0  0  0  0  0  0  0  0
  196.9590  175.4850  138.7550 O   0  0  0  0  0  0  0  0  0  0  0  0
  195.8180  174.9710  138.9090 C   0  0  0  0  0  0  0  0  0  0  0  0
  195.0300  175.3740  139.9780 O   0  0  0  0  0  1  0  0  0  0  0  0
  192.8140  172.5490  135.9330 C   0  0  0  0  0  2  0  0  0  0  0  0
  191.6420  171.9890  135.3630 O   0  0  0  0  0  0  0  0  0  0  0  0
  190.5640  172.7840  135.0920 C   0  0  0  0  0  0  0  0  0  0  0  0
  189.6110  173.4840  134.8530 C   0  0  0  0  0  3  0  0  0  0  0  0
  3 39  1  1  0  0  0
  3 16  1  0  0  0  0
  6  4  1  6  0  0  0
  6  7  1  0  0  0  0
  6 11  1  0  0  0  0
  7 13  1  6  0  0  0
  8 15  1  0  0  0  0
 10  3  1  0  0  0  0
 10  5  1  0  0  0  0
 10  7  1  0  0  0  0
 11 17  1  0  0  0  0
 12  1  1  0  0  0  0
 13  6  1  0  0  0  0
 14  1  1  0  0  0  0
 14 15  1  0  0  0  0
 15  2  1  1  0  0  0
 16  9  1  6  0  0  0
 16 18  1  0  0  0  0
 17 19  1  1  0  0  0
 17  8  1  0  0  0  0
 18 12  1  0  0  0  0
 19 30  1  0  0  0  0
 20 19  1  0  0  0  0
 20 26  1  0  0  0  0
 21 26  2  0  0  0  0
 21 25  1  0  0  0  0
 22 24  1  0  0  0  0
 22 27  1  0  0  0  0
 23 24  2  0  0  0  0
 25 22  2  0  0  0  0
 26 23  1  0  0  0  0
 27 29  1  0  0  0  0
 28 27  2  0  0  0  0
 30 32  1  0  0  0  0
 32 31  2  0  0  0  0
 32 33  1  0  0  0  0
 33 34  1  0  0  0  0
 34 35  2  0  0  0  0
 36 38  1  0  0  0  0
 36 37  1  0  0  0  0
 38 34  1  6  0  0  0
 38 37  1  0  0  0  0
 40 45  1  0  0  0  0
 40 43  1  1  0  0  0
 41 52  1  6  0  0  0
 41 39  1  0  0  0  0
 42 41  1  0  0  0  0
 44 42  1  0  0  0  0
 44 40  1  0  0  0  0
 45 41  1  0  0  0  0
 45 48  1  1  0  0  0
 47 50  1  0  0  0  0
 48 47  2  0  0  0  0
 48 46  1  0  0  0  0
 49 50  2  0  0  0  0
 50 51  1  0  0  0  0
 53 52  1  0  0  0  0
 54 53  1  0  0  0  0
 55 54  3  0  0  0  0
M  END
>  <MODEL>
2

>  <REMARK>
 VINA RESULT:      -5.8      1.400      1.870
  Name = 
  16 active torsions:
  status: ('A' for Active; 'I' for Inactive)
    1  A    between atoms: C_6  and  O_8
    2  A    between atoms: C_6  and  C_46
    3  A    between atoms: C_7  and  O_8
    4  A    between atoms: C_10  and  C_32
    5  A    between atoms: C_11  and  C_29
    6  A    between atoms: C_12  and  O_14
    7  A    between atoms: O_14  and  C_46
    8  A    between atoms: C_27  and  C_31
    9  A    between atoms: C_27  and  C_55
   10  A    between atoms: C_28  and  C_44
   11  A    between atoms: C_28  and  N_49
   12  A    between atoms: C_31  and  C_44
   13  A    between atoms: C_33  and  N_49
   14  A    between atoms: C_33  and  C_52
   15  A    between atoms: C_38  and  C_53
   16  A    between atoms: C_45  and  N_49
                            x       y       z     vdW  Elec       q    Type
                         _______ _______ _______ _____ _____    ______ ____

>  <TORSDO>
F 16

$$$$
=
 OpenBabel11052419493D

 55 59  0  0  1  0  0  0  0  0999 V2000
  192.5600  172.9420  144.3170 C   0  0  0  0  0  2  0  0  0  0  0  0
  189.5740  172.2010  145.3580 C   0  0  0  0  0  1  0  0  0  0  0  0
  193.4480  171.1160  140.5720 C   0  0  2  0  0  3  0  0  0  0  0  0
  190.1100  172.9690  138.8370 O   0  0  0  0  0  1  0  0  0  0  0  0
  191.1970  170.4480  140.1950 C   0  0  0  0  0  1  0  0  0  0  0  0
  190.5520  173.4630  140.0650 C   0  0  2  0  0  0  0  0  0  0  0  0
  191.6620  172.6990  140.7800 C   0  0  1  0  0  3  0  0  0  0  0  0
  189.4080  173.3660  143.1860 C   0  0  0  0  0  2  0  0  0  0  0  0
  193.8170  169.4350  142.2470 O   0  0  0  0  0  1  0  0  0  0  0  0
  192.1470  171.5420  140.0290 N   0  0  0  0  0  0  0  0  0  0  0  0
  189.5950  174.3540  140.8640 C   0  0  0  0  0  2  0  0  0  0  0  0
  193.6110  173.0160  143.2170 C   0  0  0  0  0  2  0  0  0  0  0  0
  191.9700  173.9790  140.0020 C   0  0  0  0  0  2  0  0  0  0  0  0
  191.4200  172.2740  143.8610 O   0  0  0  0  0  0  0  0  0  0  0  0
  190.3390  173.0210  144.3370 C   0  0  2  0  0  3  0  0  0  0  0  0
  193.4100  170.7580  142.0820 C   0  0  1  0  0  3  0  0  0  0  0  0
  190.0030  174.4860  142.3420 C   0  0  1  0  0  3  0  0  0  0  0  0
  194.2650  171.6620  142.9720 C   0  0  0  0  0  2  0  0  0  0  0  0
  189.7280  175.8020  142.9320 N   0  0  0  0  0  0  0  0  0  0  0  0
  188.6160  176.4630  142.2520 C   0  0  0  0  0  2  0  0  0  0  0  0
  187.4620  176.4190  144.4710 C   0  0  0  0  0  3  0  0  0  0  0  0
  185.9080  178.1710  145.1160 C   0  0  0  0  0  0  0  0  0  0  0  0
  187.0380  178.2680  142.9680 C   0  0  0  0  0  3  0  0  0  0  0  0
  186.1480  178.8170  143.8940 C   0  0  0  0  0  3  0  0  0  0  0  0
  186.5710  176.9670  145.3970 C   0  0  0  0  0  3  0  0  0  0  0  0
  187.7020  177.0720  143.2590 C   0  0  0  0  0  0  0  0  0  0  0  0
  184.9690  178.7430  146.0930 C   0  0  0  0  0  0  0  0  0  0  0  0
  185.3690  179.0890  147.2370 O   0  0  0  0  0  1  0  0  0  0  0  0
  183.6290  178.9100  145.7610 O   0  0  0  0  0  0  0  0  0  0  0  0
  190.9130  176.6360  142.7790 C   0  0  0  0  0  2  0  0  0  0  0  0
  191.1840  178.7870  143.7010 O   0  0  0  0  0  0  0  0  0  0  0  0
  191.0070  177.5990  143.9160 C   0  0  0  0  0  0  0  0  0  0  0  0
  190.8380  177.1080  145.3180 C   0  0  0  0  0  2  0  0  0  0  0  0
  192.0390  176.3280  145.7590 C   0  0  0  0  0  0  0  0  0  0  0  0
  193.3200  176.6280  145.1780 S   0  0  0  0  0  0  0  0  0  0  0  0
  191.3080  176.2370  148.0200 O   0  0  0  0  0  0  0  0  0  0  0  0
  190.5590  175.2300  147.3860 C   0  0  0  0  0  2  0  0  0  0  0  0
  191.9670  175.5060  147.0110 C   0  0  1  0  0  3  0  0  0  0  0  0
  194.4390  172.0740  140.2720 O   0  0  0  0  0  0  0  0  0  0  0  0
  197.5910  171.7560  140.0760 C   0  0  1  0  0  3  0  0  0  0  0  0
  195.3990  171.5200  139.3900 C   0  0  2  0  0  0  0  0  0  0  0  0
  195.9340  170.3250  139.9350 O   0  0  0  0  0  0  0  0  0  0  0  0
  197.4800  172.0710  141.4360 O   0  0  0  0  0  1  0  0  0  0  0  0
  197.2670  170.4080  139.8940 O   0  0  0  0  0  0  0  0  0  0  0  0
  196.5650  172.4730  139.2520 C   0  0  1  0  0  3  0  0  0  0  0  0
  196.5600  174.9020  138.4030 C   0  0  0  0  0  1  0  0  0  0  0  0
  195.9310  174.3700  140.7380 C   0  0  0  0  0  3  0  0  0  0  0  0
  196.2900  173.9430  139.5180 C   0  0  0  0  0  0  0  0  0  0  0  0
  194.5150  176.2690  141.0640 O   0  0  0  0  0  0  0  0  0  0  0  0
  195.6650  175.7620  141.1480 C   0  0  0  0  0  0  0  0  0  0  0  0
  196.7090  176.5260  141.6510 O   0  0  0  0  0  1  0  0  0  0  0  0
  194.7900  171.2620  138.0070 C   0  0  0  0  0  2  0  0  0  0  0  0
  194.1940  172.4380  137.4850 O   0  0  0  0  0  0  0  0  0  0  0  0
  193.0790  172.3510  136.7000 C   0  0  0  0  0  0  0  0  0  0  0  0
  192.0930  172.2750  136.0080 C   0  0  0  0  0  3  0  0  0  0  0  0
  3 39  1  1  0  0  0
  3 16  1  0  0  0  0
  6  4  1  6  0  0  0
  6  7  1  0  0  0  0
  6 11  1  0  0  0  0
  7 13  1  6  0  0  0
  8 15  1  0  0  0  0
 10  5  1  0  0  0  0
 10  3  1  0  0  0  0
 10  7  1  0  0  0  0
 11 17  1  0  0  0  0
 12  1  1  0  0  0  0
 13  6  1  0  0  0  0
 14  1  1  0  0  0  0
 14 15  1  0  0  0  0
 15  2  1  1  0  0  0
 16  9  1  6  0  0  0
 16 18  1  0  0  0  0
 17 19  1  1  0  0  0
 17  8  1  0  0  0  0
 18 12  1  0  0  0  0
 20 19  1  0  0  0  0
 20 26  1  0  0  0  0
 21 25  1  0  0  0  0
 22 25  2  0  0  0  0
 22 27  1  0  0  0  0
 23 26  1  0  0  0  0
 23 24  2  0  0  0  0
 24 22  1  0  0  0  0
 26 21  2  0  0  0  0
 27 28  1  0  0  0  0
 29 27  2  0  0  0  0
 30 19  1  0  0  0  0
 30 32  1  0  0  0  0
 31 32  2  0  0  0  0
 32 33  1  0  0  0  0
 33 34  1  0  0  0  0
 35 34  2  0  0  0  0
 37 36  1  0  0  0  0
 38 34  1  6  0  0  0
 38 37  1  0  0  0  0
 38 36  1  0  0  0  0
 40 43  1  1  0  0  0
 41 52  1  6  0  0  0
 41 42  1  0  0  0  0
 41 39  1  0  0  0  0
 44 42  1  0  0  0  0
 44 40  1  0  0  0  0
 45 41  1  0  0  0  0
 45 48  1  1  0  0  0
 45 40  1  0  0  0  0
 46 48  1  0  0  0  0
 47 50  1  0  0  0  0
 48 47  2  0  0  0  0
 49 50  2  0  0  0  0
 50 51  1  0  0  0  0
 53 52  1  0  0  0  0
 54 53  1  0  0  0  0
 55 54  3  0  0  0  0
M  END
>  <MODEL>
3

>  <REMARK>
 VINA RESULT:      -5.8      1.406      2.117
  Name = 
  16 active torsions:
  status: ('A' for Active; 'I' for Inactive)
    1  A    between atoms: C_6  and  O_8
    2  A    between atoms: C_6  and  C_46
    3  A    between atoms: C_7  and  O_8
    4  A    between atoms: C_10  and  C_32
    5  A    between atoms: C_11  and  C_29
    6  A    between atoms: C_12  and  O_14
    7  A    between atoms: O_14  and  C_46
    8  A    between atoms: C_27  and  C_31
    9  A    between atoms: C_27  and  C_55
   10  A    between atoms: C_28  and  C_44
   11  A    between atoms: C_28  and  N_49
   12  A    between atoms: C_31  and  C_44
   13  A    between atoms: C_33  and  N_49
   14  A    between atoms: C_33  and  C_52
   15  A    between atoms: C_38  and  C_53
   16  A    between atoms: C_45  and  N_49
                            x       y       z     vdW  Elec       q    Type
                         _______ _______ _______ _____ _____    ______ ____

>  <TORSDO>
F 16

$$$$
=
 OpenBabel11052419493D

 55 59  0  0  1  0  0  0  0  0999 V2000
  194.4760  175.9560  143.2090 C   0  0  0  0  0  2  0  0  0  0  0  0
  194.6360  176.0820  146.4510 C   0  0  0  0  0  1  0  0  0  0  0  0
  194.6050  171.9540  141.7540 C   0  0  2  0  0  3  0  0  0  0  0  0
  191.2360  170.9740  144.0530 O   0  0  0  0  0  1  0  0  0  0  0  0
  194.2960  171.0020  143.9110 C   0  0  0  0  0  1  0  0  0  0  0  0
  191.5100  172.3290  143.8610 C   0  0  2  0  0  0  0  0  0  0  0  0
  192.8160  172.6980  143.1640 C   0  0  1  0  0  3  0  0  0  0  0  0
  192.6340  174.7940  145.7880 C   0  0  0  0  0  2  0  0  0  0  0  0
  196.8780  172.5840  142.2010 O   0  0  0  0  0  1  0  0  0  0  0  0
  193.6000  171.5360  142.7470 N   0  0  0  0  0  0  0  0  0  0  0  0
  190.8240  173.3350  144.7900 C   0  0  0  0  0  2  0  0  0  0  0  0
  194.2470  175.1910  141.9120 C   0  0  0  0  0  2  0  0  0  0  0  0
  191.4900  172.7200  142.4020 C   0  0  0  0  0  2  0  0  0  0  0  0
  194.4780  175.0810  144.2990 O   0  0  0  0  0  0  0  0  0  0  0  0
  193.7290  175.7230  145.2890 C   0  0  2  0  0  3  0  0  0  0  0  0
  195.5690  173.0570  142.2660 C   0  0  1  0  0  3  0  0  0  0  0  0
  191.5030  174.7160  144.7720 C   0  0  1  0  0  3  0  0  0  0  0  0
  195.4760  174.3840  141.5110 C   0  0  0  0  0  2  0  0  0  0  0  0
  190.5780  175.8480  144.9150 N   0  0  0  0  0  0  0  0  0  0  0  0
  190.8790  176.9020  143.9500 C   0  0  0  0  0  2  0  0  0  0  0  0
  189.3060  178.2330  142.5310 C   0  0  0  0  0  3  0  0  0  0  0  0
  187.6680  177.1430  141.1080 C   0  0  0  0  0  0  0  0  0  0  0  0
  189.2030  175.8160  142.4430 C   0  0  0  0  0  3  0  0  0  0  0  0
  188.1500  175.8940  141.5280 C   0  0  0  0  0  3  0  0  0  0  0  0
  188.2530  178.3110  141.6170 C   0  0  0  0  0  3  0  0  0  0  0  0
  189.7870  176.9860  142.9400 C   0  0  0  0  0  0  0  0  0  0  0  0
  186.5570  177.2310  140.1470 C   0  0  0  0  0  0  0  0  0  0  0  0
  185.4730  177.7830  140.4720 O   0  0  0  0  0  1  0  0  0  0  0  0
  186.6950  176.7040  138.8670 O   0  0  0  0  0  0  0  0  0  0  0  0
  190.7270  176.4030  146.2550 C   0  0  0  0  0  2  0  0  0  0  0  0
  189.2980  177.9310  147.3390 O   0  0  0  0  0  0  0  0  0  0  0  0
  189.4000  176.8570  146.7680 C   0  0  0  0  0  0  0  0  0  0  0  0
  188.1880  176.0120  146.5380 C   0  0  0  0  0  2  0  0  0  0  0  0
  186.9770  176.8660  146.3150 C   0  0  0  0  0  0  0  0  0  0  0  0
  186.5980  177.2040  144.9690 S   0  0  0  0  0  0  0  0  0  0  0  0
  186.3010  178.2630  148.1170 O   0  0  0  0  0  0  0  0  0  0  0  0
  185.2090  178.3070  147.2320 C   0  0  0  0  0  2  0  0  0  0  0  0
  185.9990  177.0680  147.4330 C   0  0  1  0  0  3  0  0  0  0  0  0
  193.9750  172.3110  140.5430 O   0  0  0  0  0  0  0  0  0  0  0  0
  195.3670  172.3240  137.6910 C   0  0  1  0  0  3  0  0  0  0  0  0
  194.3230  171.3890  139.5250 C   0  0  2  0  0  0  0  0  0  0  0  0
  195.7230  171.1680  139.5220 O   0  0  0  0  0  0  0  0  0  0  0  0
  195.7840  173.5790  138.1520 O   0  0  0  0  0  1  0  0  0  0  0  0
  196.1690  171.3370  138.2730 O   0  0  0  0  0  0  0  0  0  0  0  0
  193.9910  171.9810  138.1750 C   0  0  1  0  0  3  0  0  0  0  0  0
  193.3080  174.4500  138.4220 C   0  0  0  0  0  1  0  0  0  0  0  0
  191.6150  172.7030  137.9620 C   0  0  0  0  0  3  0  0  0  0  0  0
  192.9020  173.0400  138.1340 C   0  0  0  0  0  0  0  0  0  0  0  0
  190.1150  174.2200  136.8820 O   0  0  0  0  0  0  0  0  0  0  0  0
  190.4550  173.6150  137.9340 C   0  0  0  0  0  0  0  0  0  0  0  0
  189.7150  173.7970  139.0930 O   0  0  0  0  0  1  0  0  0  0  0  0
  193.5650  170.0670  139.6990 C   0  0  0  0  0  2  0  0  0  0  0  0
  192.1930  170.2990  139.9720 O   0  0  0  0  0  0  0  0  0  0  0  0
  191.4850  169.4090  140.7300 C   0  0  0  0  0  0  0  0  0  0  0  0
  190.8610  168.6220  141.3990 C   0  0  0  0  0  3  0  0  0  0  0  0
  1 14  1  0  0  0  0
  3 39  1  6  0  0  0
  3 16  1  0  0  0  0
  3 10  1  0  0  0  0
  6  4  1  1  0  0  0
  6 11  1  0  0  0  0
  7 13  1  6  0  0  0
  7  6  1  0  0  0  0
 10  7  1  0  0  0  0
 10  5  1  0  0  0  0
 12  1  1  0  0  0  0
 13  6  1  0  0  0  0
 14 15  1  0  0  0  0
 15  8  1  0  0  0  0
 15  2  1  1  0  0  0
 16  9  1  6  0  0  0
 17 11  1  0  0  0  0
 17 19  1  1  0  0  0
 17  8  1  0  0  0  0
 18 12  1  0  0  0  0
 18 16  1  0  0  0  0
 19 30  1  0  0  0  0
 20 19  1  0  0  0  0
 21 26  1  0  0  0  0
 22 24  2  0  0  0  0
 22 25  1  0  0  0  0
 23 26  2  0  0  0  0
 24 23  1  0  0  0  0
 25 21  2  0  0  0  0
 26 20  1  0  0  0  0
 27 28  1  0  0  0  0
 27 22  1  0  0  0  0
 29 27  2  0  0  0  0
 30 32  1  0  0  0  0
 32 31  2  0  0  0  0
 33 32  1  0  0  0  0
 34 33  1  0  0  0  0
 35 34  2  0  0  0  0
 37 38  1  0  0  0  0
 37 36  1  0  0  0  0
 38 34  1  6  0  0  0
 38 36  1  0  0  0  0
 40 43  1  1  0  0  0
 40 45  1  0  0  0  0
 40 44  1  0  0  0  0
 41 52  1  1  0  0  0
 41 39  1  0  0  0  0
 42 41  1  0  0  0  0
 44 42  1  0  0  0  0
 45 48  1  1  0  0  0
 45 41  1  0  0  0  0
 47 48  2  0  0  0  0
 48 46  1  0  0  0  0
 49 50  2  0  0  0  0
 50 47  1  0  0  0  0
 50 51  1  0  0  0  0
 52 53  1  0  0  0  0
 53 54  1  0  0  0  0
 54 55  3  0  0  0  0
M  END
>  <MODEL>
4

>  <REMARK>
 VINA RESULT:      -5.7      2.374      5.115
  Name = 
  16 active torsions:
  status: ('A' for Active; 'I' for Inactive)
    1  A    between atoms: C_6  and  O_8
    2  A    between atoms: C_6  and  C_46
    3  A    between atoms: C_7  and  O_8
    4  A    between atoms: C_10  and  C_32
    5  A    between atoms: C_11  and  C_29
    6  A    between atoms: C_12  and  O_14
    7  A    between atoms: O_14  and  C_46
    8  A    between atoms: C_27  and  C_31
    9  A    between atoms: C_27  and  C_55
   10  A    between atoms: C_28  and  C_44
   11  A    between atoms: C_28  and  N_49
   12  A    between atoms: C_31  and  C_44
   13  A    between atoms: C_33  and  N_49
   14  A    between atoms: C_33  and  C_52
   15  A    between atoms: C_38  and  C_53
   16  A    between atoms: C_45  and  N_49
                            x       y       z     vdW  Elec       q    Type
                         _______ _______ _______ _____ _____    ______ ____

>  <TORSDO>
F 16

$$$$
=
 OpenBabel11052419493D

 55 59  0  0  1  0  0  0  0  0999 V2000
  194.0880  176.6440  143.2320 C   0  0  0  0  0  2  0  0  0  0  0  0
  194.1290  176.6260  146.4800 C   0  0  0  0  0  1  0  0  0  0  0  0
  196.0980  173.2680  141.5870 C   0  0  2  0  0  3  0  0  0  0  0  0
  193.5550  170.6830  143.6960 O   0  0  0  0  0  1  0  0  0  0  0  0
  196.2450  172.1490  143.6800 C   0  0  0  0  0  1  0  0  0  0  0  0
  193.1630  172.0180  143.5830 C   0  0  2  0  0  0  0  0  0  0  0  0
  194.1510  172.9980  142.9580 C   0  0  1  0  0  3  0  0  0  0  0  0
  192.9740  174.5970  145.6740 C   0  0  0  0  0  2  0  0  0  0  0  0
  197.8040  174.8580  142.1560 O   0  0  0  0  0  1  0  0  0  0  0  0
  195.3940  172.3670  142.5160 N   0  0  0  0  0  0  0  0  0  0  0  0
  192.0730  172.5270  144.5320 C   0  0  0  0  0  2  0  0  0  0  0  0
  194.2610  175.9450  141.8900 C   0  0  0  0  0  2  0  0  0  0  0  0
  192.9800  172.4450  142.1460 C   0  0  0  0  0  2  0  0  0  0  0  0
  194.4860  175.8050  144.2770 O   0  0  0  0  0  0  0  0  0  0  0  0
  193.5110  175.9590  145.2660 C   0  0  2  0  0  3  0  0  0  0  0  0
  196.4250  174.6590  142.1910 C   0  0  1  0  0  3  0  0  0  0  0  0
  192.0250  174.0630  144.6100 C   0  0  1  0  0  3  0  0  0  0  0  0
  195.7300  175.8330  141.5000 C   0  0  0  0  0  2  0  0  0  0  0  0
  190.6750  174.6190  144.7720 N   0  0  0  0  0  0  0  0  0  0  0  0
  190.3570  174.8310  146.1820 C   0  0  0  0  0  2  0  0  0  0  0  0
  188.1190  175.5210  147.0600 C   0  0  0  0  0  3  0  0  0  0  0  0
  187.1370  177.6600  146.4580 C   0  0  0  0  0  0  0  0  0  0  0  0
  189.3290  177.0400  145.6140 C   0  0  0  0  0  3  0  0  0  0  0  0
  188.2750  177.9550  145.6940 C   0  0  0  0  0  3  0  0  0  0  0  0
  187.0650  176.4360  147.1390 C   0  0  0  0  0  3  0  0  0  0  0  0
  189.2540  175.8250  146.3040 C   0  0  0  0  0  0  0  0  0  0  0  0
  186.0230  178.6190  146.5420 C   0  0  0  0  0  0  0  0  0  0  0  0
  185.1330  178.6430  145.6520 O   0  0  0  0  0  0  0  0  0  0  0  0
  185.9440  179.5070  147.6090 O   0  0  0  0  0  1  0  0  0  0  0  0
  189.7130  173.6690  144.2270 C   0  0  0  0  0  2  0  0  0  0  0  0
  189.1520  173.2110  141.9850 O   0  0  0  0  0  0  0  0  0  0  0  0
  189.3400  174.0640  142.8370 C   0  0  0  0  0  0  0  0  0  0  0  0
  189.1530  175.5100  142.5020 C   0  0  0  0  0  2  0  0  0  0  0  0
  187.7340  175.7870  142.1080 C   0  0  0  0  0  0  0  0  0  0  0  0
  186.7050  175.7200  143.1090 S   0  0  0  0  0  0  0  0  0  0  0  0
  186.2650  177.2090  140.8940 O   0  0  0  0  0  0  0  0  0  0  0  0
  187.4720  177.9290  140.9300 C   0  0  0  0  0  2  0  0  0  0  0  0
  187.4490  176.4520  140.7940 C   0  0  1  0  0  3  0  0  0  0  0  0
  195.3890  173.3640  140.3710 O   0  0  0  0  0  0  0  0  0  0  0  0
  196.8640  173.9940  137.6320 C   0  0  1  0  0  3  0  0  0  0  0  0
  196.0800  172.6660  139.3500 C   0  0  2  0  0  0  0  0  0  0  0  0
  197.4730  172.9150  139.4430 O   0  0  0  0  0  0  0  0  0  0  0  0
  196.8160  175.2880  138.1660 O   0  0  0  0  0  1  0  0  0  0  0  0
  197.9100  173.2910  138.2370 O   0  0  0  0  0  0  0  0  0  0  0  0
  195.6510  173.1940  138.0000 C   0  0  1  0  0  3  0  0  0  0  0  0
  194.2260  175.3330  137.8970 C   0  0  0  0  0  1  0  0  0  0  0  0
  193.1610  173.0990  137.9720 C   0  0  0  0  0  3  0  0  0  0  0  0
  194.2790  173.8390  137.9160 C   0  0  0  0  0  0  0  0  0  0  0  0
  191.2590  174.0490  136.8790 O   0  0  0  0  0  0  0  0  0  0  0  0
  191.7700  173.5890  137.9350 C   0  0  0  0  0  0  0  0  0  0  0  0
  191.0040  173.5270  139.0900 O   0  0  0  0  0  1  0  0  0  0  0  0
  195.7920  171.1610  139.4200 C   0  0  0  0  0  2  0  0  0  0  0  0
  196.9610  170.4340  139.7590 O   0  0  0  0  0  0  0  0  0  0  0  0
  196.9540  169.5830  140.8290 C   0  0  0  0  0  0  0  0  0  0  0  0
  196.9490  168.8320  141.7720 C   0  0  0  0  0  3  0  0  0  0  0  0
  1 14  1  0  0  0  0
  3 39  1  6  0  0  0
  3 16  1  0  0  0  0
  3 10  1  0  0  0  0
  6  4  1  1  0  0  0
  6 11  1  0  0  0  0
  7 13  1  6  0  0  0
  7  6  1  0  0  0  0
 10  7  1  0  0  0  0
 10  5  1  0  0  0  0
 11 17  1  0  0  0  0
 12  1  1  0  0  0  0
 13  6  1  0  0  0  0
 14 15  1  0  0  0  0
 15  8  1  0  0  0  0
 15  2  1  1  0  0  0
 16  9  1  6  0  0  0
 17 19  1  1  0  0  0
 17  8  1  0  0  0  0
 18 12  1  0  0  0  0
 18 16  1  0  0  0  0
 19 20  1  0  0  0  0
 20 26  1  0  0  0  0
 21 25  1  0  0  0  0
 22 27  1  0  0  0  0
 22 25  2  0  0  0  0
 23 24  2  0  0  0  0
 23 26  1  0  0  0  0
 24 22  1  0  0  0  0
 26 21  2  0  0  0  0
 27 29  1  0  0  0  0
 28 27  2  0  0  0  0
 30 19  1  0  0  0  0
 31 32  2  0  0  0  0
 32 30  1  0  0  0  0
 33 32  1  0  0  0  0
 34 33  1  0  0  0  0
 34 35  2  0  0  0  0
 36 37  1  0  0  0  0
 38 36  1  0  0  0  0
 38 37  1  0  0  0  0
 38 34  1  1  0  0  0
 40 45  1  0  0  0  0
 40 43  1  1  0  0  0
 40 44  1  0  0  0  0
 41 52  1  1  0  0  0
 41 42  1  0  0  0  0
 41 39  1  0  0  0  0
 44 42  1  0  0  0  0
 45 48  1  1  0  0  0
 45 41  1  0  0  0  0
 46 48  1  0  0  0  0
 48 47  2  0  0  0  0
 49 50  2  0  0  0  0
 50 47  1  0  0  0  0
 50 51  1  0  0  0  0
 52 53  1  0  0  0  0
 53 54  1  0  0  0  0
 54 55  3  0  0  0  0
M  END
>  <MODEL>
5

>  <REMARK>
 VINA RESULT:      -5.7      2.536      5.271
  Name = 
  16 active torsions:
  status: ('A' for Active; 'I' for Inactive)
    1  A    between atoms: C_6  and  O_8
    2  A    between atoms: C_6  and  C_46
    3  A    between atoms: C_7  and  O_8
    4  A    between atoms: C_10  and  C_32
    5  A    between atoms: C_11  and  C_29
    6  A    between atoms: C_12  and  O_14
    7  A    between atoms: O_14  and  C_46
    8  A    between atoms: C_27  and  C_31
    9  A    between atoms: C_27  and  C_55
   10  A    between atoms: C_28  and  C_44
   11  A    between atoms: C_28  and  N_49
   12  A    between atoms: C_31  and  C_44
   13  A    between atoms: C_33  and  N_49
   14  A    between atoms: C_33  and  C_52
   15  A    between atoms: C_38  and  C_53
   16  A    between atoms: C_45  and  N_49
                            x       y       z     vdW  Elec       q    Type
                         _______ _______ _______ _____ _____    ______ ____

>  <TORSDO>
F 16

$$$$
=
 OpenBabel11052419493D

 55 59  0  0  1  0  0  0  0  0999 V2000
  192.3190  172.4490  142.7320 C   0  0  0  0  0  2  0  0  0  0  0  0
  189.8000  171.5820  144.5900 C   0  0  0  0  0  1  0  0  0  0  0  0
  191.8130  171.2340  138.6810 C   0  0  2  0  0  3  0  0  0  0  0  0
  188.2120  173.3720  138.4530 O   0  0  0  0  0  1  0  0  0  0  0  0
  189.5260  170.6570  138.9840 C   0  0  0  0  0  1  0  0  0  0  0  0
  189.0630  173.6600  139.5210 C   0  0  2  0  0  0  0  0  0  0  0  0
  190.2960  172.7810  139.7040 C   0  0  1  0  0  3  0  0  0  0  0  0
  189.0030  173.0790  142.7950 C   0  0  0  0  0  2  0  0  0  0  0  0
  192.6050  169.3050  139.8710 O   0  0  0  0  0  1  0  0  0  0  0  0
  190.4350  171.7540  138.6730 N   0  0  0  0  0  0  0  0  0  0  0  0
  188.4790  174.4220  140.7150 C   0  0  0  0  0  2  0  0  0  0  0  0
  192.9530  172.6880  141.3680 C   0  0  0  0  0  2  0  0  0  0  0  0
  190.4110  174.1660  139.0640 C   0  0  0  0  0  2  0  0  0  0  0  0
  191.0530  171.8730  142.5900 O   0  0  0  0  0  0  0  0  0  0  0  0
  190.2370  172.5460  143.5040 C   0  0  2  0  0  3  0  0  0  0  0  0
  192.2500  170.6410  140.0460 C   0  0  1  0  0  3  0  0  0  0  0  0
  189.3570  174.3130  141.9740 C   0  0  1  0  0  3  0  0  0  0  0  0
  193.4040  171.3830  140.7220 C   0  0  0  0  0  2  0  0  0  0  0  0
  189.3730  175.5210  142.8080 N   0  0  0  0  0  0  0  0  0  0  0  0
  188.4310  176.5200  142.3100 C   0  0  0  0  0  2  0  0  0  0  0  0
  186.9560  178.2760  143.3100 C   0  0  0  0  0  3  0  0  0  0  0  0
  186.1570  178.0940  145.5960 C   0  0  0  0  0  0  0  0  0  0  0  0
  187.5570  176.3490  144.6480 C   0  0  0  0  0  3  0  0  0  0  0  0
  186.8270  176.8680  145.7210 C   0  0  0  0  0  3  0  0  0  0  0  0
  186.2280  178.7940  144.3840 C   0  0  0  0  0  3  0  0  0  0  0  0
  187.6150  177.0500  143.4380 C   0  0  0  0  0  0  0  0  0  0  0  0
  185.3900  178.6450  146.7250 C   0  0  0  0  0  0  0  0  0  0  0  0
  185.9370  179.4270  147.5470 O   0  0  0  0  0  1  0  0  0  0  0  0
  184.0520  178.3070  146.8940 O   0  0  0  0  0  0  0  0  0  0  0  0
  190.7110  176.0980  142.7640 C   0  0  0  0  0  2  0  0  0  0  0  0
  190.8690  175.4380  145.0210 O   0  0  0  0  0  0  0  0  0  0  0  0
  191.2710  176.1870  144.1450 C   0  0  0  0  0  0  0  0  0  0  0  0
  192.3600  177.1680  144.4410 C   0  0  0  0  0  2  0  0  0  0  0  0
  193.5840  176.4690  144.9520 C   0  0  0  0  0  0  0  0  0  0  0  0
  193.8620  176.4890  146.3630 S   0  0  0  0  0  0  0  0  0  0  0  0
  194.4480  176.0380  142.7790 O   0  0  0  0  0  0  0  0  0  0  0  0
  195.5910  176.0440  143.5980 C   0  0  0  0  0  2  0  0  0  0  0  0
  194.2980  175.4900  144.0690 C   0  0  1  0  0  3  0  0  0  0  0  0
  192.7080  172.2180  138.2110 O   0  0  0  0  0  0  0  0  0  0  0  0
  195.1420  170.7190  136.8330 C   0  0  1  0  0  3  0  0  0  0  0  0
  193.1530  171.8880  136.9070 C   0  0  2  0  0  0  0  0  0  0  0  0
  192.9650  170.5030  136.6620 O   0  0  0  0  0  0  0  0  0  0  0  0
  195.2970  170.2450  138.1420 O   0  0  0  0  0  1  0  0  0  0  0  0
  194.1170  170.0010  136.2080 O   0  0  0  0  0  0  0  0  0  0  0  0
  194.6410  172.1310  136.8060 C   0  0  1  0  0  3  0  0  0  0  0  0
  194.9840  174.5950  137.4630 C   0  0  0  0  0  1  0  0  0  0  0  0
  196.0580  172.7740  138.7530 C   0  0  0  0  0  3  0  0  0  0  0  0
  195.2400  173.1510  137.7590 C   0  0  0  0  0  0  0  0  0  0  0  0
  196.2500  173.8650  140.8720 O   0  0  0  0  0  1  0  0  0  0  0  0
  196.7330  173.6520  139.7280 C   0  0  0  0  0  0  0  0  0  0  0  0
  197.9370  174.2450  139.3770 O   0  0  0  0  0  0  0  0  0  0  0  0
  192.4290  172.7300  135.8500 C   0  0  0  0  0  2  0  0  0  0  0  0
  191.9440  173.9400  136.4080 O   0  0  0  0  0  0  0  0  0  0  0  0
  191.4480  174.9200  135.5940 C   0  0  0  0  0  0  0  0  0  0  0  0
  191.0090  175.7850  134.8770 C   0  0  0  0  0  3  0  0  0  0  0  0
  3 39  1  1  0  0  0
  3 16  1  0  0  0  0
  6  4  1  6  0  0  0
  6  7  1  0  0  0  0
  6 11  1  0  0  0  0
  7 13  1  6  0  0  0
  8 15  1  0  0  0  0
 10  3  1  0  0  0  0
 10  5  1  0  0  0  0
 10  7  1  0  0  0  0
 11 17  1  0  0  0  0
 12  1  1  0  0  0  0
 13  6  1  0  0  0  0
 14  1  1  0  0  0  0
 14 15  1  0  0  0  0
 15  2  1  1  0  0  0
 16  9  1  6  0  0  0
 16 18  1  0  0  0  0
 17  8  1  0  0  0  0
 17 19  1  1  0  0  0
 18 12  1  0  0  0  0
 20 19  1  0  0  0  0
 20 26  1  0  0  0  0
 21 26  2  0  0  0  0
 21 25  1  0  0  0  0
 22 24  1  0  0  0  0
 22 27  1  0  0  0  0
 23 24  2  0  0  0  0
 25 22  2  0  0  0  0
 26 23  1  0  0  0  0
 27 29  2  0  0  0  0
 27 28  1  0  0  0  0
 30 19  1  0  0  0  0
 30 32  1  0  0  0  0
 32 33  1  0  0  0  0
 32 31  2  0  0  0  0
 33 34  1  0  0  0  0
 34 35  2  0  0  0  0
 36 37  1  0  0  0  0
 36 38  1  0  0  0  0
 37 38  1  0  0  0  0
 38 34  1  1  0  0  0
 40 43  1  1  0  0  0
 41 52  1  6  0  0  0
 41 39  1  0  0  0  0
 42 41  1  0  0  0  0
 44 42  1  0  0  0  0
 44 40  1  0  0  0  0
 45 40  1  0  0  0  0
 45 41  1  0  0  0  0
 45 48  1  1  0  0  0
 46 48  1  0  0  0  0
 47 50  1  0  0  0  0
 48 47  2  0  0  0  0
 50 49  1  0  0  0  0
 51 50  2  0  0  0  0
 52 53  1  0  0  0  0
 54 53  1  0  0  0  0
 55 54  3  0  0  0  0
M  END
>  <MODEL>
6

>  <REMARK>
 VINA RESULT:      -5.6      1.302      1.577
  Name = 
  16 active torsions:
  status: ('A' for Active; 'I' for Inactive)
    1  A    between atoms: C_6  and  O_8
    2  A    between atoms: C_6  and  C_46
    3  A    between atoms: C_7  and  O_8
    4  A    between atoms: C_10  and  C_32
    5  A    between atoms: C_11  and  C_29
    6  A    between atoms: C_12  and  O_14
    7  A    between atoms: O_14  and  C_46
    8  A    between atoms: C_27  and  C_31
    9  A    between atoms: C_27  and  C_55
   10  A    between atoms: C_28  and  C_44
   11  A    between atoms: C_28  and  N_49
   12  A    between atoms: C_31  and  C_44
   13  A    between atoms: C_33  and  N_49
   14  A    between atoms: C_33  and  C_52
   15  A    between atoms: C_38  and  C_53
   16  A    between atoms: C_45  and  N_49
                            x       y       z     vdW  Elec       q    Type
                         _______ _______ _______ _____ _____    ______ ____

>  <TORSDO>
F 16

$$$$
=
 OpenBabel11052419493D

 55 59  0  0  1  0  0  0  0  0999 V2000
  191.4340  172.4700  144.8590 C   0  0  0  0  0  2  0  0  0  0  0  0
  188.5720  171.7480  143.5050 C   0  0  0  0  0  1  0  0  0  0  0  0
  194.7090  171.3130  142.3950 C   0  0  2  0  0  3  0  0  0  0  0  0
  193.2270  173.6690  139.2580 O   0  0  0  0  0  1  0  0  0  0  0  0
  193.3290  170.8750  140.5090 C   0  0  0  0  0  1  0  0  0  0  0  0
  192.7080  173.8980  140.5330 C   0  0  2  0  0  0  0  0  0  0  0  0
  193.1210  172.9440  141.6500 C   0  0  1  0  0  3  0  0  0  0  0  0
  189.7970  173.3020  142.0270 C   0  0  0  0  0  2  0  0  0  0  0  0
  194.0020  169.3320  143.5520 O   0  0  0  0  0  1  0  0  0  0  0  0
  194.0660  171.9160  141.2160 N   0  0  0  0  0  0  0  0  0  0  0  0
  191.3990  174.6870  140.6410 C   0  0  0  0  0  2  0  0  0  0  0  0
  192.9400  172.6780  144.7690 C   0  0  0  0  0  2  0  0  0  0  0  0
  193.7700  174.3230  141.5190 C   0  0  0  0  0  2  0  0  0  0  0  0
  190.9350  171.9740  143.6520 O   0  0  0  0  0  0  0  0  0  0  0  0
  189.7570  172.6900  143.4170 C   0  0  2  0  0  3  0  0  0  0  0  0
  193.7100  170.6860  143.4020 C   0  0  1  0  0  3  0  0  0  0  0  0
  190.7160  174.5160  142.0100 C   0  0  1  0  0  3  0  0  0  0  0  0
  193.6910  171.3520  144.7790 C   0  0  0  0  0  2  0  0  0  0  0  0
  190.0220  175.7170  142.4950 N   0  0  0  0  0  0  0  0  0  0  0  0
  188.9470  176.1080  141.5870 C   0  0  0  0  0  2  0  0  0  0  0  0
  186.9320  175.8630  143.0490 C   0  0  0  0  0  3  0  0  0  0  0  0
  185.6470  177.8000  143.7540 C   0  0  0  0  0  0  0  0  0  0  0  0
  187.6190  178.0810  142.3640 C   0  0  0  0  0  3  0  0  0  0  0  0
  186.5380  178.6310  143.0590 C   0  0  0  0  0  3  0  0  0  0  0  0
  185.8510  176.4130  143.7420 C   0  0  0  0  0  3  0  0  0  0  0  0
  187.8210  176.6970  142.3650 C   0  0  0  0  0  0  0  0  0  0  0  0
  184.5050  178.3730  144.4840 C   0  0  0  0  0  0  0  0  0  0  0  0
  183.6790  179.1190  143.8930 O   0  0  0  0  0  0  0  0  0  0  0  0
  184.3270  178.0960  145.8340 O   0  0  0  0  0  1  0  0  0  0  0  0
  190.9820  176.8120  142.5610 C   0  0  0  0  0  2  0  0  0  0  0  0
  192.5990  176.9430  144.2690 O   0  0  0  0  0  0  0  0  0  0  0  0
  191.4170  177.0210  143.9740 C   0  0  0  0  0  0  0  0  0  0  0  0
  190.4050  177.3710  145.0170 C   0  0  0  0  0  2  0  0  0  0  0  0
  190.3120  176.2920  146.0530 C   0  0  0  0  0  0  0  0  0  0  0  0
  191.1320  176.3810  147.2300 S   0  0  0  0  0  0  0  0  0  0  0  0
  188.8210  174.9610  147.3420 O   0  0  0  0  0  0  0  0  0  0  0  0
  187.9800  175.9110  146.7350 C   0  0  0  0  0  2  0  0  0  0  0  0
  189.1530  175.3410  146.0260 C   0  0  1  0  0  3  0  0  0  0  0  0
  195.5760  172.2430  143.0070 O   0  0  0  0  0  0  0  0  0  0  0  0
  197.6190  170.8880  145.0220 C   0  0  1  0  0  3  0  0  0  0  0  0
  196.9030  171.7470  143.0030 C   0  0  2  0  0  0  0  0  0  0  0  0
  196.8950  170.3290  143.0270 O   0  0  0  0  0  0  0  0  0  0  0  0
  196.4310  170.6910  145.7380 O   0  0  0  0  0  1  0  0  0  0  0  0
  197.7050  169.9260  144.0110 O   0  0  0  0  0  0  0  0  0  0  0  0
  197.6070  172.1820  144.2670 C   0  0  1  0  0  3  0  0  0  0  0  0
  197.2910  173.5460  146.4260 C   0  0  0  0  0  1  0  0  0  0  0  0
  196.3820  174.3520  144.2680 C   0  0  0  0  0  3  0  0  0  0  0  0
  197.0900  173.4380  144.9480 C   0  0  0  0  0  0  0  0  0  0  0  0
  195.9390  176.7010  144.2180 O   0  0  0  0  0  0  0  0  0  0  0  0
  195.7930  175.5950  144.8030 C   0  0  0  0  0  0  0  0  0  0  0  0
  195.0490  175.5370  145.9730 O   0  0  0  0  0  1  0  0  0  0  0  0
  197.6800  172.2640  141.7860 C   0  0  0  0  0  2  0  0  0  0  0  0
  196.9180  173.2180  141.0640 O   0  0  0  0  0  0  0  0  0  0  0  0
  197.4620  174.4310  140.7450 C   0  0  0  0  0  0  0  0  0  0  0  0
  197.9410  175.5010  140.4640 C   0  0  0  0  0  3  0  0  0  0  0  0
  3 39  1  1  0  0  0
  3 16  1  0  0  0  0
  5 10  1  0  0  0  0
  6  4  1  6  0  0  0
  6 11  1  0  0  0  0
  6 13  1  0  0  0  0
  6  7  1  0  0  0  0
  7 13  1  1  0  0  0
  8 15  1  0  0  0  0
 10  7  1  0  0  0  0
 10  3  1  0  0  0  0
 11 17  1  0  0  0  0
 12 18  1  0  0  0  0
 12  1  1  0  0  0  0
 14  1  1  0  0  0  0
 15  2  1  6  0  0  0
 15 14  1  0  0  0  0
 16  9  1  1  0  0  0
 16 18  1  0  0  0  0
 17  8  1  0  0  0  0
 17 19  1  6  0  0  0
 19 30  1  0  0  0  0
 20 26  1  0  0  0  0
 20 19  1  0  0  0  0
 21 25  1  0  0  0  0
 22 27  1  0  0  0  0
 23 26  1  0  0  0  0
 23 24  2  0  0  0  0
 24 22  1  0  0  0  0
 25 22  2  0  0  0  0
 26 21  2  0  0  0  0
 27 29  1  0  0  0  0
 28 27  2  0  0  0  0
 30 32  1  0  0  0  0
 32 31  2  0  0  0  0
 32 33  1  0  0  0  0
 33 34  1  0  0  0  0
 34 35  2  0  0  0  0
 37 36  1  0  0  0  0
 38 34  1  1  0  0  0
 38 37  1  0  0  0  0
 38 36  1  0  0  0  0
 40 43  1  6  0  0  0
 41 52  1  6  0  0  0
 41 39  1  0  0  0  0
 41 42  1  0  0  0  0
 41 45  1  0  0  0  0
 42 44  1  0  0  0  0
 44 40  1  0  0  0  0
 45 48  1  1  0  0  0
 45 40  1  0  0  0  0
 47 50  1  0  0  0  0
 47 48  2  0  0  0  0
 48 46  1  0  0  0  0
 49 50  2  0  0  0  0
 50 51  1  0  0  0  0
 53 52  1  0  0  0  0
 54 53  1  0  0  0  0
 55 54  3  0  0  0  0
M  END
>  <MODEL>
7

>  <REMARK>
 VINA RESULT:      -5.5      2.628      4.635
  Name = 
  16 active torsions:
  status: ('A' for Active; 'I' for Inactive)
    1  A    between atoms: C_6  and  O_8
    2  A    between atoms: C_6  and  C_46
    3  A    between atoms: C_7  and  O_8
    4  A    between atoms: C_10  and  C_32
    5  A    between atoms: C_11  and  C_29
    6  A    between atoms: C_12  and  O_14
    7  A    between atoms: O_14  and  C_46
    8  A    between atoms: C_27  and  C_31
    9  A    between atoms: C_27  and  C_55
   10  A    between atoms: C_28  and  C_44
   11  A    between atoms: C_28  and  N_49
   12  A    between atoms: C_31  and  C_44
   13  A    between atoms: C_33  and  N_49
   14  A    between atoms: C_33  and  C_52
   15  A    between atoms: C_38  and  C_53
   16  A    between atoms: C_45  and  N_49
                            x       y       z     vdW  Elec       q    Type
                         _______ _______ _______ _____ _____    ______ ____

>  <TORSDO>
F 16

$$$$
=
 OpenBabel11052419493D

 55 59  0  0  1  0  0  0  0  0999 V2000
  192.9310  173.9100  141.8930 C   0  0  0  0  0  2  0  0  0  0  0  0
  191.5750  172.7040  144.5870 C   0  0  0  0  0  1  0  0  0  0  0  0
  191.8970  171.6540  138.4320 C   0  0  2  0  0  3  0  0  0  0  0  0
  187.8220  172.2970  139.1880 O   0  0  0  0  0  1  0  0  0  0  0  0
  190.2100  170.4160  139.5600 C   0  0  0  0  0  1  0  0  0  0  0  0
  188.7360  173.1100  139.8610 C   0  0  2  0  0  0  0  0  0  0  0  0
  190.2180  172.7820  139.7160 C   0  0  1  0  0  3  0  0  0  0  0  0
  189.7930  173.3540  143.0040 C   0  0  0  0  0  2  0  0  0  0  0  0
  193.6870  170.4650  139.5020 O   0  0  0  0  0  1  0  0  0  0  0  0
  190.4790  171.6490  138.8300 N   0  0  0  0  0  0  0  0  0  0  0  0
  188.2360  173.8880  141.0820 C   0  0  0  0  0  2  0  0  0  0  0  0
  193.0250  174.0150  140.3770 C   0  0  0  0  0  2  0  0  0  0  0  0
  189.5880  173.9230  138.9160 C   0  0  0  0  0  2  0  0  0  0  0  0
  192.0180  172.9170  142.2600 O   0  0  0  0  0  0  0  0  0  0  0  0
  191.2770  173.4670  143.3100 C   0  0  2  0  0  3  0  0  0  0  0  0
  192.8840  171.5980  139.6270 C   0  0  1  0  0  3  0  0  0  0  0  0
  189.3850  174.3960  141.9710 C   0  0  1  0  0  3  0  0  0  0  0  0
  193.7750  172.8310  139.7770 C   0  0  0  0  0  2  0  0  0  0  0  0
  189.1340  175.7000  142.6000 N   0  0  0  0  0  0  0  0  0  0  0  0
  187.9540  176.3430  142.0280 C   0  0  0  0  0  2  0  0  0  0  0  0
  187.0480  178.3590  143.2010 C   0  0  0  0  0  3  0  0  0  0  0  0
  185.7010  178.1440  145.2100 C   0  0  0  0  0  0  0  0  0  0  0  0
  186.5320  176.1620  144.0780 C   0  0  0  0  0  3  0  0  0  0  0  0
  185.8090  176.7480  145.1210 C   0  0  0  0  0  3  0  0  0  0  0  0
  186.3260  178.9440  144.2440 C   0  0  0  0  0  3  0  0  0  0  0  0
  187.1450  176.9670  143.1120 C   0  0  0  0  0  0  0  0  0  0  0  0
  184.9440  178.7660  146.3080 C   0  0  0  0  0  0  0  0  0  0  0  0
  183.6920  178.6440  146.3700 O   0  0  0  0  0  0  0  0  0  0  0  0
  185.6060  179.4940  147.2910 O   0  0  0  0  0  1  0  0  0  0  0  0
  190.2840  176.5610  142.3560 C   0  0  0  0  0  2  0  0  0  0  0  0
  191.0760  178.4410  143.5360 O   0  0  0  0  0  0  0  0  0  0  0  0
  190.6340  177.3050  143.6030 C   0  0  0  0  0  0  0  0  0  0  0  0
  190.3990  176.6700  144.9360 C   0  0  0  0  0  2  0  0  0  0  0  0
  191.6960  176.4100  145.6390 C   0  0  0  0  0  0  0  0  0  0  0  0
  192.9140  176.3900  144.8750 S   0  0  0  0  0  0  0  0  0  0  0  0
  190.4570  176.4720  147.6680 O   0  0  0  0  0  0  0  0  0  0  0  0
  191.2180  175.2940  147.7780 C   0  0  0  0  0  2  0  0  0  0  0  0
  191.7600  176.5160  147.1340 C   0  0  1  0  0  3  0  0  0  0  0  0
  192.1570  172.7420  137.5720 O   0  0  0  0  0  0  0  0  0  0  0  0
  193.4960  173.9720  134.9710 C   0  0  1  0  0  3  0  0  0  0  0  0
  192.8470  172.2950  136.4170 C   0  0  2  0  0  0  0  0  0  0  0  0
  194.2270  172.6030  136.5220 O   0  0  0  0  0  0  0  0  0  0  0  0
  193.4000  175.1340  135.7470 O   0  0  0  0  0  1  0  0  0  0  0  0
  194.6000  173.2290  135.4010 O   0  0  0  0  0  0  0  0  0  0  0  0
  192.3420  173.0460  135.2070 C   0  0  1  0  0  3  0  0  0  0  0  0
  189.8010  172.6460  135.1870 C   0  0  0  0  0  1  0  0  0  0  0  0
  190.7250  174.9390  135.3220 C   0  0  0  0  0  3  0  0  0  0  0  0
  190.9350  173.6150  135.2840 C   0  0  0  0  0  0  0  0  0  0  0  0
  188.4630  175.1900  136.0550 O   0  0  0  0  0  1  0  0  0  0  0  0
  189.4220  175.6290  135.3660 C   0  0  0  0  0  0  0  0  0  0  0  0
  189.2560  176.7990  134.6370 O   0  0  0  0  0  0  0  0  0  0  0  0
  192.6400  170.7910  136.2020 C   0  0  0  0  0  2  0  0  0  0  0  0
  193.0110  170.4090  134.8870 O   0  0  0  0  0  0  0  0  0  0  0  0
  194.0100  169.4980  134.6940 C   0  0  0  0  0  0  0  0  0  0  0  0
  194.8940  168.6940  134.5240 C   0  0  0  0  0  3  0  0  0  0  0  0
  1 14  1  0  0  0  0
  3 39  1  1  0  0  0
  3 10  1  0  0  0  0
  3 16  1  0  0  0  0
  6  4  1  6  0  0  0
  6 11  1  0  0  0  0
  7 13  1  6  0  0  0
  7  6  1  0  0  0  0
  8 15  1  0  0  0  0
 10  5  1  0  0  0  0
 10  7  1  0  0  0  0
 11 17  1  0  0  0  0
 12  1  1  0  0  0  0
 13  6  1  0  0  0  0
 14 15  1  0  0  0  0
 15  2  1  1  0  0  0
 16  9  1  6  0  0  0
 16 18  1  0  0  0  0
 17 19  1  1  0  0  0
 17  8  1  0  0  0  0
 18 12  1  0  0  0  0
 20 19  1  0  0  0  0
 20 26  1  0  0  0  0
 21 25  1  0  0  0  0
 22 27  1  0  0  0  0
 23 24  2  0  0  0  0
 24 22  1  0  0  0  0
 25 22  2  0  0  0  0
 26 21  2  0  0  0  0
 26 23  1  0  0  0  0
 27 28  2  0  0  0  0
 27 29  1  0  0  0  0
 30 19  1  0  0  0  0
 30 32  1  0  0  0  0
 31 32  2  0  0  0  0
 32 33  1  0  0  0  0
 33 34  1  0  0  0  0
 35 34  2  0  0  0  0
 36 37  1  0  0  0  0
 38 34  1  6  0  0  0
 38 36  1  0  0  0  0
 38 37  1  0  0  0  0
 40 45  1  0  0  0  0
 40 44  1  0  0  0  0
 40 43  1  1  0  0  0
 41 52  1  6  0  0  0
 41 42  1  0  0  0  0
 41 39  1  0  0  0  0
 44 42  1  0  0  0  0
 45 48  1  1  0  0  0
 45 41  1  0  0  0  0
 46 48  1  0  0  0  0
 47 50  1  0  0  0  0
 48 47  2  0  0  0  0
 50 49  1  0  0  0  0
 51 50  2  0  0  0  0
 53 52  1  0  0  0  0
 54 53  1  0  0  0  0
 55 54  3  0  0  0  0
M  END
>  <MODEL>
8

>  <REMARK>
 VINA RESULT:      -5.3      2.045      3.566
  Name = 
  16 active torsions:
  status: ('A' for Active; 'I' for Inactive)
    1  A    between atoms: C_6  and  O_8
    2  A    between atoms: C_6  and  C_46
    3  A    between atoms: C_7  and  O_8
    4  A    between atoms: C_10  and  C_32
    5  A    between atoms: C_11  and  C_29
    6  A    between atoms: C_12  and  O_14
    7  A    between atoms: O_14  and  C_46
    8  A    between atoms: C_27  and  C_31
    9  A    between atoms: C_27  and  C_55
   10  A    between atoms: C_28  and  C_44
   11  A    between atoms: C_28  and  N_49
   12  A    between atoms: C_31  and  C_44
   13  A    between atoms: C_33  and  N_49
   14  A    between atoms: C_33  and  C_52
   15  A    between atoms: C_38  and  C_53
   16  A    between atoms: C_45  and  N_49
                            x       y       z     vdW  Elec       q    Type
                         _______ _______ _______ _____ _____    ______ ____

>  <TORSDO>
F 16

$$$$
=
 OpenBabel11052419493D

 55 59  0  0  1  0  0  0  0  0999 V2000
  194.3210  174.5720  143.5630 C   0  0  0  0  0  2  0  0  0  0  0  0
  192.6960  174.4510  146.3730 C   0  0  0  0  0  1  0  0  0  0  0  0
  194.4700  170.7770  141.6350 C   0  0  2  0  0  3  0  0  0  0  0  0
  190.2810  170.5810  141.6200 O   0  0  0  0  0  1  0  0  0  0  0  0
  192.8560  169.8090  143.0880 C   0  0  0  0  0  1  0  0  0  0  0  0
  190.8640  171.8250  141.8660 C   0  0  2  0  0  0  0  0  0  0  0  0
  192.3800  171.8780  142.0320 C   0  0  1  0  0  3  0  0  0  0  0  0
  191.1870  173.7820  144.5350 C   0  0  0  0  0  2  0  0  0  0  0  0
  196.1960  170.7540  143.3050 O   0  0  0  0  0  1  0  0  0  0  0  0
  193.0290  170.5790  141.8620 N   0  0  0  0  0  0  0  0  0  0  0  0
  189.9850  172.9180  142.4830 C   0  0  0  0  0  2  0  0  0  0  0  0
  194.7030  173.9770  142.2140 C   0  0  0  0  0  2  0  0  0  0  0  0
  191.7220  172.2960  140.7160 C   0  0  0  0  0  2  0  0  0  0  0  0
  193.5590  173.6620  144.3020 O   0  0  0  0  0  0  0  0  0  0  0  0
  192.5270  174.4170  144.8660 C   0  0  2  0  0  3  0  0  0  0  0  0
  195.1830  171.5520  142.7750 C   0  0  1  0  0  3  0  0  0  0  0  0
  190.8080  174.0690  143.0880 C   0  0  1  0  0  3  0  0  0  0  0  0
  195.7720  172.9000  142.3570 C   0  0  0  0  0  2  0  0  0  0  0  0
  190.1890  175.3930  142.9510 N   0  0  0  0  0  0  0  0  0  0  0  0
  189.3390  175.4590  141.7650 C   0  0  0  0  0  2  0  0  0  0  0  0
  188.0140  177.5790  141.6660 C   0  0  0  0  0  3  0  0  0  0  0  0
  185.8370  177.7520  142.7270 C   0  0  0  0  0  0  0  0  0  0  0  0
  187.0760  175.6640  142.8140 C   0  0  0  0  0  3  0  0  0  0  0  0
  185.9420  176.4140  143.1370 C   0  0  0  0  0  3  0  0  0  0  0  0
  186.8810  178.3280  141.9900 C   0  0  0  0  0  3  0  0  0  0  0  0
  188.1100  176.2440  142.0700 C   0  0  0  0  0  0  0  0  0  0  0  0
  184.6460  178.5460  143.0680 C   0  0  0  0  0  0  0  0  0  0  0  0
  183.5340  178.2930  142.5330 O   0  0  0  0  0  0  0  0  0  0  0  0
  184.7370  179.5850  143.9880 O   0  0  0  0  0  1  0  0  0  0  0  0
  191.2460  176.3870  142.8070 C   0  0  0  0  0  2  0  0  0  0  0  0
  192.3220  177.7330  144.4140 O   0  0  0  0  0  0  0  0  0  0  0  0
  191.2650  177.2850  144.0000 C   0  0  0  0  0  0  0  0  0  0  0  0
  189.9790  177.6700  144.6580 C   0  0  0  0  0  2  0  0  0  0  0  0
  189.7380  176.8410  145.8830 C   0  0  0  0  0  0  0  0  0  0  0  0
  190.4190  177.1810  147.1030 S   0  0  0  0  0  0  0  0  0  0  0  0
  188.1880  175.6790  147.2630 O   0  0  0  0  0  0  0  0  0  0  0  0
  187.3810  176.5680  146.5320 C   0  0  0  0  0  2  0  0  0  0  0  0
  188.5640  175.9090  145.9250 C   0  0  1  0  0  3  0  0  0  0  0  0
  194.6890  171.3610  140.3700 O   0  0  0  0  0  0  0  0  0  0  0  0
  197.6030  170.5630  139.3980 C   0  0  1  0  0  3  0  0  0  0  0  0
  195.3010  170.4240  139.5010 C   0  0  2  0  0  0  0  0  0  0  0  0
  195.9450  169.4080  140.2520 O   0  0  0  0  0  0  0  0  0  0  0  0
  197.9410  171.3140  140.5310 O   0  0  0  0  0  1  0  0  0  0  0  0
  197.1970  169.2870  139.8020 O   0  0  0  0  0  0  0  0  0  0  0  0
  196.3900  171.1090  138.7080 C   0  0  1  0  0  3  0  0  0  0  0  0
  195.2150  173.0820  137.5480 C   0  0  0  0  0  1  0  0  0  0  0  0
  197.1200  173.4620  139.0830 C   0  0  0  0  0  3  0  0  0  0  0  0
  196.2590  172.6090  138.5090 C   0  0  0  0  0  0  0  0  0  0  0  0
  196.5170  175.6740  139.7630 O   0  0  0  0  0  1  0  0  0  0  0  0
  197.1340  174.9320  138.9530 C   0  0  0  0  0  0  0  0  0  0  0  0
  197.8570  175.5080  137.9180 O   0  0  0  0  0  0  0  0  0  0  0  0
  194.2750  169.8180  138.5360 C   0  0  0  0  0  2  0  0  0  0  0  0
  193.1410  170.6600  138.4040 O   0  0  0  0  0  0  0  0  0  0  0  0
  191.9650  170.1560  137.9250 C   0  0  0  0  0  0  0  0  0  0  0  0
  190.9270  169.7130  137.5000 C   0  0  0  0  0  3  0  0  0  0  0  0
  1 14  1  0  0  0  0
  3 39  1  6  0  0  0
  3 10  1  0  0  0  0
  3 16  1  0  0  0  0
  6  4  1  6  0  0  0
  6  7  1  0  0  0  0
  6 11  1  0  0  0  0
  7 13  1  6  0  0  0
  8 15  1  0  0  0  0
 10  7  1  0  0  0  0
 10  5  1  0  0  0  0
 11 17  1  0  0  0  0
 12 18  1  0  0  0  0
 12  1  1  0  0  0  0
 13  6  1  0  0  0  0
 14 15  1  0  0  0  0
 15  2  1  1  0  0  0
 16  9  1  6  0  0  0
 17 19  1  1  0  0  0
 17  8  1  0  0  0  0
 18 16  1  0  0  0  0
 20 26  1  0  0  0  0
 20 19  1  0  0  0  0
 21 25  2  0  0  0  0
 21 26  1  0  0  0  0
 22 27  1  0  0  0  0
 22 24  2  0  0  0  0
 23 24  1  0  0  0  0
 25 22  1  0  0  0  0
 26 23  2  0  0  0  0
 27 29  1  0  0  0  0
 28 27  2  0  0  0  0
 30 19  1  0  0  0  0
 30 32  1  0  0  0  0
 32 31  2  0  0  0  0
 32 33  1  0  0  0  0
 33 34  1  0  0  0  0
 34 35  2  0  0  0  0
 37 36  1  0  0  0  0
 38 34  1  1  0  0  0
 38 37  1  0  0  0  0
 38 36  1  0  0  0  0
 40 44  1  0  0  0  0
 40 43  1  1  0  0  0
 41 52  1  6  0  0  0
 41 42  1  0  0  0  0
 41 39  1  0  0  0  0
 44 42  1  0  0  0  0
 45 48  1  1  0  0  0
 45 40  1  0  0  0  0
 45 41  1  0  0  0  0
 46 48  1  0  0  0  0
 48 47  2  0  0  0  0
 50 47  1  0  0  0  0
 50 49  1  0  0  0  0
 51 50  2  0  0  0  0
 53 52  1  0  0  0  0
 54 53  1  0  0  0  0
 55 54  3  0  0  0  0
M  END
>  <MODEL>
9

>  <REMARK>
 VINA RESULT:      -5.2      2.000      3.288
  Name = 
  16 active torsions:
  status: ('A' for Active; 'I' for Inactive)
    1  A    between atoms: C_6  and  O_8
    2  A    between atoms: C_6  and  C_46
    3  A    between atoms: C_7  and  O_8
    4  A    between atoms: C_10  and  C_32
    5  A    between atoms: C_11  and  C_29
    6  A    between atoms: C_12  and  O_14
    7  A    between atoms: O_14  and  C_46
    8  A    between atoms: C_27  and  C_31
    9  A    between atoms: C_27  and  C_55
   10  A    between atoms: C_28  and  C_44
   11  A    between atoms: C_28  and  N_49
   12  A    between atoms: C_31  and  C_44
   13  A    between atoms: C_33  and  N_49
   14  A    between atoms: C_33  and  C_52
   15  A    between atoms: C_38  and  C_53
   16  A    between atoms: C_45  and  N_49
                            x       y       z     vdW  Elec       q    Type
                         _______ _______ _______ _____ _____    ______ ____

>  <TORSDO>
F 16

$$$$
