=
 OpenBabel11052420113D

 37 39  0  0  1  0  0  0  0  0999 V2000
  192.9580  174.0090  141.2040 O   0  0  0  0  0  0  0  0  0  0  0  0
  191.0850  177.0640  144.0910 C   0  0  0  0  0  0  0  0  0  0  0  0
  193.1100  173.6920  142.6000 C   0  0  2  0  0  0  0  0  0  0  0  0
  188.3440  174.4910  143.2310 C   0  0  0  0  0  2  0  0  0  0  0  0
  190.2910  176.1360  143.1750 C   0  0  0  0  0  2  0  0  0  0  0  0
  189.7240  172.7410  140.7950 C   0  0  1  0  0  3  0  0  0  0  0  0
  191.5830  176.6120  145.4670 C   0  0  2  0  0  3  0  0  0  0  0  0
  188.8880  175.8480  143.7040 C   0  0  1  0  0  3  0  0  0  0  0  0
  191.8050  173.2030  143.2340 C   0  0  0  0  0  1  0  0  0  0  0  0
  192.1320  175.1840  145.4530 C   0  0  0  0  0  2  0  0  0  0  0  0
  193.5530  175.0000  143.2790 C   0  0  0  0  0  2  0  0  0  0  0  0
  190.8190  178.5470  143.9290 C   0  0  0  0  0  2  0  0  0  0  0  0
  193.5260  175.0960  144.8180 C   0  0  2  0  0  3  0  0  0  0  0  0
  192.0890  173.4060  140.2800 C   0  0  0  0  0  0  0  0  0  0  0  0
  188.1350  174.3800  141.7180 C   0  0  0  0  0  2  0  0  0  0  0  0
  192.0770  177.9260  143.3450 C   0  0  0  0  0  2  0  0  0  0  0  0
  192.1460  173.7560  139.0730 O   0  0  0  0  0  0  0  0  0  0  0  0
  189.4630  174.1860  141.0130 C   0  0  2  0  0  3  0  0  0  0  0  0
  189.2730  173.5790  139.7560 O   0  0  0  0  0  0  0  0  0  0  0  0
  191.1290  172.4680  140.6800 O   0  0  0  0  0  0  0  0  0  0  0  0
  187.2320  177.6010  144.4970 N   0  0  0  0  0  2  0  0  0  0  0  0
  186.0060  179.1340  143.2150 O   0  0  0  0  0  0  0  0  0  0  0  0
  187.9340  176.9660  143.4200 C   0  0  0  0  0  0  0  0  0  0  0  0
  186.2930  178.6720  144.3530 C   0  0  0  0  0  0  0  0  0  0  0  0
  187.7740  177.3470  142.2310 O   0  0  0  0  0  0  0  0  0  0  0  0
  185.6390  179.2290  145.5740 C   0  0  2  0  0  3  0  0  0  0  0  0
  186.2640  178.6290  146.8200 C   0  0  0  0  0  1  0  0  0  0  0  0
  184.0880  177.9570  146.5110 C   0  0  0  0  0  1  0  0  0  0  0  0
  184.2700  178.9570  145.5540 O   0  0  0  0  0  0  0  0  0  0  0  0
  195.3650  173.0630  142.0100 C   0  0  0  0  0  1  0  0  0  0  0  0
  194.1760  172.6980  142.7710 N   0  0  0  0  0  2  0  0  0  0  0  0
  190.4590  176.7190  146.4910 C   0  0  0  0  0  2  0  0  0  0  0  0
  190.3550  175.4560  147.3320 C   0  0  0  0  0  2  0  0  0  0  0  0
  188.9530  174.8830  147.2520 C   0  0  0  0  0  1  0  0  0  0  0  0
  194.4450  174.1690  145.4880 N   0  0  0  0  0  2  0  0  0  0  0  0
  195.8200  174.6540  145.4480 C   0  0  0  0  0  2  0  0  0  0  0  0
  196.7350  173.6260  146.0770 C   0  0  0  0  0  1  0  0  0  0  0  0
  1  3  1  0  0  0  0
  2  7  1  0  0  0  0
  3 31  1  0  0  0  0
  3  9  1  1  0  0  0
  3 11  1  0  0  0  0
  4  8  1  0  0  0  0
  5  8  1  0  0  0  0
  5  2  1  0  0  0  0
  6 19  1  6  0  0  0
  6 18  1  0  0  0  0
  7 32  1  1  0  0  0
  8 23  1  6  0  0  0
 10  7  1  0  0  0  0
 11 13  1  0  0  0  0
 12  2  1  0  0  0  0
 13 10  1  0  0  0  0
 13 35  1  1  0  0  0
 14 20  1  0  0  0  0
 14  1  1  0  0  0  0
 15  4  1  0  0  0  0
 16 12  1  0  0  0  0
 16  2  1  0  0  0  0
 17 14  2  0  0  0  0
 18 15  1  1  0  0  0
 19 18  1  0  0  0  0
 20  6  1  0  0  0  0
 22 24  2  0  0  0  0
 23 21  1  0  0  0  0
 24 21  1  0  0  0  0
 24 26  1  0  0  0  0
 25 23  2  0  0  0  0
 26 27  1  1  0  0  0
 29 26  1  0  0  0  0
 29 28  1  0  0  0  0
 30 31  1  0  0  0  0
 32 33  1  0  0  0  0
 34 33  1  0  0  0  0
 36 35  1  0  0  0  0
 36 37  1  0  0  0  0
M  END
>  <MODEL>
1

>  <REMARK>
 VINA RESULT:      -7.0      0.000      0.000
  Name = 
  8 active torsions:
  status: ('A' for Active; 'I' for Inactive)
    1  A    between atoms: C_2  and  O_19
    2  A    between atoms: C_2  and  C_35
    3  A    between atoms: C_3  and  N_32
    4  A    between atoms: C_5  and  N_23
    5  A    between atoms: C_9  and  C_13
    6  A    between atoms: C_9  and  C_16
    7  A    between atoms: C_14  and  C_31
    8  A    between atoms: C_25  and  N_32
                            x       y       z     vdW  Elec       q    Type
                         _______ _______ _______ _____ _____    ______ ____

>  <TORSDO>
F 8

$$$$
=
 OpenBabel11052420113D

 37 39  0  0  1  0  0  0  0  0999 V2000
  185.8480  178.9110  142.7430 O   0  0  0  0  0  0  0  0  0  0  0  0
  189.9960  177.0470  143.4390 C   0  0  0  0  0  0  0  0  0  0  0  0
  186.0310  177.6110  142.1540 C   0  0  2  0  0  0  0  0  0  0  0  0
  187.7730  176.0010  146.4110 C   0  0  0  0  0  2  0  0  0  0  0  0
  188.9450  177.2550  144.5270 C   0  0  0  0  0  2  0  0  0  0  0  0
  185.0650  177.8390  145.9800 C   0  0  1  0  0  3  0  0  0  0  0  0
  189.9930  175.8120  142.5350 C   0  0  2  0  0  3  0  0  0  0  0  0
  189.1000  176.2750  145.6880 C   0  0  1  0  0  3  0  0  0  0  0  0
  186.0240  176.4900  143.1960 C   0  0  0  0  0  1  0  0  0  0  0  0
  188.5860  175.4210  142.0780 C   0  0  0  0  0  2  0  0  0  0  0  0
  187.4040  177.6580  141.4600 C   0  0  0  0  0  2  0  0  0  0  0  0
  191.3450  177.6940  143.6840 C   0  0  0  0  0  2  0  0  0  0  0  0
  188.0490  176.3440  140.9750 C   0  0  2  0  0  3  0  0  0  0  0  0
  185.1040  179.2310  143.8910 C   0  0  0  0  0  0  0  0  0  0  0  0
  187.1630  177.2180  147.1100 C   0  0  0  0  0  2  0  0  0  0  0  0
  190.3580  178.3230  142.7140 C   0  0  0  0  0  2  0  0  0  0  0  0
  184.9830  180.4400  144.2210 O   0  0  0  0  0  0  0  0  0  0  0  0
  186.5140  178.1410  146.0970 C   0  0  2  0  0  3  0  0  0  0  0  0
  185.5370  178.9460  146.7140 O   0  0  0  0  0  0  0  0  0  0  0  0
  184.5430  178.2380  144.7030 O   0  0  0  0  0  0  0  0  0  0  0  0
  191.5440  176.3240  146.3740 N   0  0  0  0  0  2  0  0  0  0  0  0
  192.5060  177.3000  148.2750 O   0  0  0  0  0  0  0  0  0  0  0  0
  190.1830  176.6870  146.6370 C   0  0  0  0  0  0  0  0  0  0  0  0
  192.6620  176.6520  147.2050 C   0  0  0  0  0  0  0  0  0  0  0  0
  189.8800  177.3680  147.6520 O   0  0  0  0  0  0  0  0  0  0  0  0
  194.0250  176.1980  146.7960 C   0  0  2  0  0  3  0  0  0  0  0  0
  194.6500  177.2100  145.8530 C   0  0  0  0  0  1  0  0  0  0  0  0
  194.7060  175.0900  145.0040 C   0  0  0  0  0  1  0  0  0  0  0  0
  193.9510  174.9520  146.1710 O   0  0  0  0  0  0  0  0  0  0  0  0
  184.7550  178.5850  140.3510 C   0  0  0  0  0  1  0  0  0  0  0  0
  185.0050  177.3780  141.1310 N   0  0  0  0  0  2  0  0  0  0  0  0
  190.6430  174.6350  143.2540 C   0  0  0  0  0  2  0  0  0  0  0  0
  189.6650  173.4830  143.4260 C   0  0  0  0  0  2  0  0  0  0  0  0
  189.8750  172.8080  144.7670 C   0  0  0  0  0  1  0  0  0  0  0  0
  187.2870  175.6590  139.9250 N   0  0  0  0  0  2  0  0  0  0  0  0
  188.0390  174.5470  139.3540 C   0  0  0  0  0  2  0  0  0  0  0  0
  187.9330  174.5890  137.8450 C   0  0  0  0  0  1  0  0  0  0  0  0
  1 14  1  0  0  0  0
  2 12  1  0  0  0  0
  2  5  1  0  0  0  0
  3  1  1  0  0  0  0
  3  9  1  1  0  0  0
  4 15  1  0  0  0  0
  5  8  1  0  0  0  0
  6 20  1  6  0  0  0
  6 18  1  0  0  0  0
  6 19  1  0  0  0  0
  7 32  1  1  0  0  0
  7  2  1  0  0  0  0
  8  4  1  0  0  0  0
  8 23  1  1  0  0  0
 10  7  1  0  0  0  0
 11  3  1  0  0  0  0
 13 35  1  1  0  0  0
 13 11  1  0  0  0  0
 13 10  1  0  0  0  0
 14 17  2  0  0  0  0
 14 20  1  0  0  0  0
 16  2  1  0  0  0  0
 16 12  1  0  0  0  0
 18 19  1  0  0  0  0
 18 15  1  1  0  0  0
 21 23  1  0  0  0  0
 21 24  1  0  0  0  0
 23 25  2  0  0  0  0
 24 22  2  0  0  0  0
 26 27  1  6  0  0  0
 26 24  1  0  0  0  0
 28 29  1  0  0  0  0
 29 26  1  0  0  0  0
 30 31  1  0  0  0  0
 31  3  1  0  0  0  0
 32 33  1  0  0  0  0
 33 34  1  0  0  0  0
 36 35  1  0  0  0  0
 37 36  1  0  0  0  0
M  END
>  <MODEL>
2

>  <REMARK>
 VINA RESULT:      -6.8      3.035      7.576
  Name = 
  8 active torsions:
  status: ('A' for Active; 'I' for Inactive)
    1  A    between atoms: C_2  and  O_19
    2  A    between atoms: C_2  and  C_35
    3  A    between atoms: C_3  and  N_32
    4  A    between atoms: C_5  and  N_23
    5  A    between atoms: C_9  and  C_13
    6  A    between atoms: C_9  and  C_16
    7  A    between atoms: C_14  and  C_31
    8  A    between atoms: C_25  and  N_32
                            x       y       z     vdW  Elec       q    Type
                         _______ _______ _______ _____ _____    ______ ____

>  <TORSDO>
F 8

$$$$
=
 OpenBabel11052420113D

 37 39  0  0  1  0  0  0  0  0999 V2000
  192.8410  174.3750  140.5050 O   0  0  0  0  0  0  0  0  0  0  0  0
  191.3730  176.9650  144.0130 C   0  0  0  0  0  0  0  0  0  0  0  0
  193.6640  174.3150  141.6850 C   0  0  2  0  0  0  0  0  0  0  0  0
  189.6630  173.5260  144.3530 C   0  0  0  0  0  2  0  0  0  0  0  0
  190.6660  175.7100  143.5060 C   0  0  0  0  0  2  0  0  0  0  0  0
  190.4350  172.0420  141.5070 C   0  0  1  0  0  3  0  0  0  0  0  0
  192.5250  176.8950  145.0190 C   0  0  2  0  0  3  0  0  0  0  0  0
  189.8210  175.0360  144.5850 C   0  0  1  0  0  3  0  0  0  0  0  0
  193.0170  173.5010  142.8080 C   0  0  0  0  0  1  0  0  0  0  0  0
  193.4950  175.7500  144.7240 C   0  0  0  0  0  2  0  0  0  0  0  0
  193.8420  175.7730  142.1430 C   0  0  0  0  0  2  0  0  0  0  0  0
  190.5470  178.2350  144.0300 C   0  0  0  0  0  2  0  0  0  0  0  0
  194.4250  176.0570  143.5420 C   0  0  2  0  0  3  0  0  0  0  0  0
  191.9510  173.3960  140.0330 C   0  0  0  0  0  0  0  0  0  0  0  0
  188.9000  173.1510  143.0810 C   0  0  0  0  0  2  0  0  0  0  0  0
  191.5770  178.0060  142.9360 C   0  0  0  0  0  2  0  0  0  0  0  0
  191.3690  173.5820  138.9340 O   0  0  0  0  0  0  0  0  0  0  0  0
  189.7830  173.3280  141.8610 C   0  0  2  0  0  3  0  0  0  0  0  0
  189.3220  172.5320  140.7950 O   0  0  0  0  0  0  0  0  0  0  0  0
  191.6570  172.2490  140.7820 O   0  0  0  0  0  0  0  0  0  0  0  0
  187.7470  176.1570  143.6440 N   0  0  0  0  0  2  0  0  0  0  0  0
  185.9360  177.0840  144.8070 O   0  0  0  0  0  0  0  0  0  0  0  0
  188.5020  175.7160  144.7800 C   0  0  0  0  0  0  0  0  0  0  0  0
  186.4820  176.8230  143.7010 C   0  0  0  0  0  0  0  0  0  0  0  0
  188.0640  175.8780  145.9490 O   0  0  0  0  0  0  0  0  0  0  0  0
  185.8180  177.2240  142.4250 C   0  0  2  0  0  3  0  0  0  0  0  0
  186.8400  177.2990  141.3060 C   0  0  0  0  0  1  0  0  0  0  0  0
  183.8300  178.1990  142.4080 C   0  0  0  0  0  1  0  0  0  0  0  0
  185.1910  178.4630  142.5760 O   0  0  0  0  0  0  0  0  0  0  0  0
  195.5400  174.4380  140.1700 C   0  0  0  0  0  1  0  0  0  0  0  0
  194.9850  173.7730  141.3430 N   0  0  0  0  0  2  0  0  0  0  0  0
  191.9760  176.7490  146.4340 C   0  0  0  0  0  2  0  0  0  0  0  0
  192.2630  175.3670  146.9990 C   0  0  0  0  0  2  0  0  0  0  0  0
  191.2440  175.0080  148.0640 C   0  0  0  0  0  1  0  0  0  0  0  0
  195.8060  175.5940  143.7160 N   0  0  0  0  0  2  0  0  0  0  0  0
  196.7670  176.5860  143.2490 C   0  0  0  0  0  2  0  0  0  0  0  0
  197.9390  175.8850  142.5960 C   0  0  0  0  0  1  0  0  0  0  0  0
  1  3  1  0  0  0  0
  2 12  1  0  0  0  0
  2  7  1  0  0  0  0
  3 11  1  0  0  0  0
  3  9  1  1  0  0  0
  4  8  1  0  0  0  0
  5  2  1  0  0  0  0
  5  8  1  0  0  0  0
  6 20  1  6  0  0  0
  6 18  1  0  0  0  0
  7 32  1  1  0  0  0
  8 23  1  6  0  0  0
 10  7  1  0  0  0  0
 11 13  1  0  0  0  0
 13 35  1  1  0  0  0
 13 10  1  0  0  0  0
 14  1  1  0  0  0  0
 14 20  1  0  0  0  0
 15  4  1  0  0  0  0
 16  2  1  0  0  0  0
 16 12  1  0  0  0  0
 17 14  2  0  0  0  0
 18 15  1  1  0  0  0
 19  6  1  0  0  0  0
 19 18  1  0  0  0  0
 21 24  1  0  0  0  0
 21 23  1  0  0  0  0
 23 25  2  0  0  0  0
 24 22  2  0  0  0  0
 26 27  1  6  0  0  0
 26 29  1  0  0  0  0
 26 24  1  0  0  0  0
 28 29  1  0  0  0  0
 30 31  1  0  0  0  0
 31  3  1  0  0  0  0
 32 33  1  0  0  0  0
 33 34  1  0  0  0  0
 36 35  1  0  0  0  0
 37 36  1  0  0  0  0
M  END
>  <MODEL>
3

>  <REMARK>
 VINA RESULT:      -6.6      1.915      2.290
  Name = 
  8 active torsions:
  status: ('A' for Active; 'I' for Inactive)
    1  A    between atoms: C_2  and  O_19
    2  A    between atoms: C_2  and  C_35
    3  A    between atoms: C_3  and  N_32
    4  A    between atoms: C_5  and  N_23
    5  A    between atoms: C_9  and  C_13
    6  A    between atoms: C_9  and  C_16
    7  A    between atoms: C_14  and  C_31
    8  A    between atoms: C_25  and  N_32
                            x       y       z     vdW  Elec       q    Type
                         _______ _______ _______ _____ _____    ______ ____

>  <TORSDO>
F 8

$$$$
=
 OpenBabel11052420113D

 37 39  0  0  1  0  0  0  0  0999 V2000
  192.9110  174.2860  142.8880 O   0  0  0  0  0  0  0  0  0  0  0  0
  189.3430  177.0320  143.8350 C   0  0  0  0  0  0  0  0  0  0  0  0
  192.3080  174.0680  144.1760 C   0  0  2  0  0  0  0  0  0  0  0  0
  187.9350  173.9290  142.0310 C   0  0  0  0  0  2  0  0  0  0  0  0
  189.3300  175.9240  142.7850 C   0  0  0  0  0  2  0  0  0  0  0  0
  190.6630  172.3810  141.0020 C   0  0  1  0  0  3  0  0  0  0  0  0
  189.0540  176.7510  145.3130 C   0  0  2  0  0  3  0  0  0  0  0  0
  187.9260  175.3860  142.5160 C   0  0  1  0  0  3  0  0  0  0  0  0
  190.9560  173.3580  144.0760 C   0  0  0  0  0  1  0  0  0  0  0  0
  189.7140  175.4620  145.8060 C   0  0  0  0  0  2  0  0  0  0  0  0
  192.1110  175.4670  144.7860 C   0  0  0  0  0  2  0  0  0  0  0  0
  189.0040  178.4230  143.3400 C   0  0  0  0  0  2  0  0  0  0  0  0
  191.2230  175.6250  146.0370 C   0  0  2  0  0  3  0  0  0  0  0  0
  192.7960  173.4800  141.7430 C   0  0  0  0  0  0  0  0  0  0  0  0
  188.6160  173.7100  140.6780 C   0  0  0  0  0  2  0  0  0  0  0  0
  190.4480  178.0400  143.6190 C   0  0  0  0  0  2  0  0  0  0  0  0
  193.4610  173.7800  140.7180 O   0  0  0  0  0  0  0  0  0  0  0  0
  190.1240  173.7530  140.8300 C   0  0  2  0  0  3  0  0  0  0  0  0
  190.7500  173.0650  139.7730 O   0  0  0  0  0  0  0  0  0  0  0  0
  191.9190  172.3890  141.6990 O   0  0  0  0  0  0  0  0  0  0  0  0
  185.9680  176.9440  142.0870 N   0  0  0  0  0  2  0  0  0  0  0  0
  185.3890  178.0450  140.1010 O   0  0  0  0  0  0  0  0  0  0  0  0
  187.1420  176.2780  141.6040 C   0  0  0  0  0  0  0  0  0  0  0  0
  185.1340  177.8120  141.3140 C   0  0  0  0  0  0  0  0  0  0  0  0
  187.5390  176.4450  140.4210 O   0  0  0  0  0  0  0  0  0  0  0  0
  183.9390  178.4320  141.9600 C   0  0  2  0  0  3  0  0  0  0  0  0
  184.1360  178.4990  143.4640 C   0  0  0  0  0  1  0  0  0  0  0  0
  182.0280  178.5250  140.8480 C   0  0  0  0  0  1  0  0  0  0  0  0
  182.7930  177.6910  141.6650 O   0  0  0  0  0  0  0  0  0  0  0  0
  194.5420  173.9470  145.0820 C   0  0  0  0  0  1  0  0  0  0  0  0
  193.2290  173.3150  145.0360 N   0  0  0  0  0  2  0  0  0  0  0  0
  187.5490  176.6770  145.5460 C   0  0  0  0  0  2  0  0  0  0  0  0
  187.1320  177.5310  146.7340 C   0  0  0  0  0  2  0  0  0  0  0  0
  185.6200  177.5750  146.8470 C   0  0  0  0  0  1  0  0  0  0  0  0
  191.7370  174.9310  147.2220 N   0  0  0  0  0  2  0  0  0  0  0  0
  191.3000  175.5780  148.4540 C   0  0  0  0  0  2  0  0  0  0  0  0
  191.6360  177.0530  148.3950 C   0  0  0  0  0  1  0  0  0  0  0  0
  1  3  1  0  0  0  0
  2  7  1  0  0  0  0
  3  9  1  6  0  0  0
  3 11  1  0  0  0  0
  3 31  1  0  0  0  0
  4  8  1  0  0  0  0
  5  2  1  0  0  0  0
  6 19  1  6  0  0  0
  6 20  1  0  0  0  0
  7 32  1  6  0  0  0
  7 10  1  0  0  0  0
  8 23  1  6  0  0  0
  8  5  1  0  0  0  0
 10 13  1  0  0  0  0
 11 13  1  0  0  0  0
 12 16  1  0  0  0  0
 12  2  1  0  0  0  0
 13 35  1  1  0  0  0
 14  1  1  0  0  0  0
 15  4  1  0  0  0  0
 16  2  1  0  0  0  0
 17 14  2  0  0  0  0
 18 15  1  6  0  0  0
 18  6  1  0  0  0  0
 19 18  1  0  0  0  0
 20 14  1  0  0  0  0
 22 24  2  0  0  0  0
 23 21  1  0  0  0  0
 24 26  1  0  0  0  0
 24 21  1  0  0  0  0
 25 23  2  0  0  0  0
 26 27  1  1  0  0  0
 28 29  1  0  0  0  0
 29 26  1  0  0  0  0
 31 30  1  0  0  0  0
 32 33  1  0  0  0  0
 33 34  1  0  0  0  0
 35 36  1  0  0  0  0
 37 36  1  0  0  0  0
M  END
>  <MODEL>
4

>  <REMARK>
 VINA RESULT:      -6.6      2.087      3.000
  Name = 
  8 active torsions:
  status: ('A' for Active; 'I' for Inactive)
    1  A    between atoms: C_2  and  O_19
    2  A    between atoms: C_2  and  C_35
    3  A    between atoms: C_3  and  N_32
    4  A    between atoms: C_5  and  N_23
    5  A    between atoms: C_9  and  C_13
    6  A    between atoms: C_9  and  C_16
    7  A    between atoms: C_14  and  C_31
    8  A    between atoms: C_25  and  N_32
                            x       y       z     vdW  Elec       q    Type
                         _______ _______ _______ _____ _____    ______ ____

>  <TORSDO>
F 8

$$$$
=
 OpenBabel11052420113D

 37 39  0  0  1  0  0  0  0  0999 V2000
  191.6830  175.6410  145.5500 O   0  0  0  0  0  0  0  0  0  0  0  0
  188.3740  177.0370  142.6740 C   0  0  0  0  0  0  0  0  0  0  0  0
  190.3800  175.7710  146.1480 C   0  0  2  0  0  0  0  0  0  0  0  0
  188.5090  173.1890  142.4620 C   0  0  0  0  0  2  0  0  0  0  0  0
  189.0580  175.6730  142.6130 C   0  0  0  0  0  2  0  0  0  0  0  0
  191.2390  172.4590  144.1680 C   0  0  1  0  0  3  0  0  0  0  0  0
  187.1830  177.3050  143.5990 C   0  0  2  0  0  3  0  0  0  0  0  0
  188.1810  174.6050  141.9650 C   0  0  1  0  0  3  0  0  0  0  0  0
  189.4300  174.6460  145.7280 C   0  0  0  0  0  1  0  0  0  0  0  0
  187.3550  176.6680  144.9790 C   0  0  0  0  0  2  0  0  0  0  0  0
  189.8280  177.1200  145.6560 C   0  0  0  0  0  2  0  0  0  0  0  0
  188.4440  177.8750  141.4140 C   0  0  0  0  0  2  0  0  0  0  0  0
  188.3360  177.4450  145.8670 C   0  0  2  0  0  3  0  0  0  0  0  0
  192.3520  174.4550  145.2070 C   0  0  0  0  0  0  0  0  0  0  0  0
  189.9140  172.6970  142.1070 C   0  0  0  0  0  2  0  0  0  0  0  0
  189.3460  178.1910  142.5960 C   0  0  0  0  0  2  0  0  0  0  0  0
  193.5280  174.5250  144.7650 O   0  0  0  0  0  0  0  0  0  0  0  0
  190.9460  173.3410  143.0110 C   0  0  2  0  0  3  0  0  0  0  0  0
  192.1150  172.5570  143.0670 O   0  0  0  0  0  0  0  0  0  0  0  0
  191.7240  173.2060  145.2940 O   0  0  0  0  0  0  0  0  0  0  0  0
  189.0100  173.7980  139.7050 N   0  0  0  0  0  2  0  0  0  0  0  0
  188.4640  174.6120  137.5760 O   0  0  0  0  0  0  0  0  0  0  0  0
  188.1920  174.6920  140.4700 C   0  0  0  0  0  0  0  0  0  0  0  0
  189.1110  173.7880  138.2770 C   0  0  0  0  0  0  0  0  0  0  0  0
  187.4620  175.5470  139.9020 O   0  0  0  0  0  0  0  0  0  0  0  0
  190.0130  172.7930  137.6230 C   0  0  2  0  0  3  0  0  0  0  0  0
  189.3200  172.1700  136.4250 C   0  0  0  0  0  1  0  0  0  0  0  0
  189.7090  170.6510  138.0910 C   0  0  0  0  0  1  0  0  0  0  0  0
  190.3730  171.7970  138.5330 O   0  0  0  0  0  0  0  0  0  0  0  0
  191.5340  176.7790  148.0130 C   0  0  0  0  0  1  0  0  0  0  0  0
  190.5060  175.8270  147.6090 N   0  0  0  0  0  2  0  0  0  0  0  0
  185.8970  176.7950  142.9560 C   0  0  0  0  0  2  0  0  0  0  0  0
  184.8130  177.8610  142.9660 C   0  0  0  0  0  2  0  0  0  0  0  0
  185.3750  179.1810  143.4590 C   0  0  0  0  0  1  0  0  0  0  0  0
  187.9410  177.5380  147.2770 N   0  0  0  0  0  2  0  0  0  0  0  0
  186.4910  177.4970  147.4310 C   0  0  0  0  0  2  0  0  0  0  0  0
  185.9500  178.9100  147.4880 C   0  0  0  0  0  1  0  0  0  0  0  0
  1  3  1  0  0  0  0
  2  7  1  0  0  0  0
  3  9  1  6  0  0  0
  3 31  1  0  0  0  0
  5  2  1  0  0  0  0
  6 19  1  6  0  0  0
  6 20  1  0  0  0  0
  7 32  1  6  0  0  0
  7 10  1  0  0  0  0
  8 23  1  6  0  0  0
  8  4  1  0  0  0  0
  8  5  1  0  0  0  0
 10 13  1  0  0  0  0
 11 13  1  0  0  0  0
 11  3  1  0  0  0  0
 12 16  1  0  0  0  0
 12  2  1  0  0  0  0
 13 35  1  1  0  0  0
 14 20  1  0  0  0  0
 14  1  1  0  0  0  0
 15  4  1  0  0  0  0
 16  2  1  0  0  0  0
 17 14  2  0  0  0  0
 18 15  1  6  0  0  0
 18 19  1  0  0  0  0
 18  6  1  0  0  0  0
 21 23  1  0  0  0  0
 22 24  2  0  0  0  0
 24 21  1  0  0  0  0
 25 23  2  0  0  0  0
 26 27  1  6  0  0  0
 26 24  1  0  0  0  0
 26 29  1  0  0  0  0
 28 29  1  0  0  0  0
 31 30  1  0  0  0  0
 32 33  1  0  0  0  0
 33 34  1  0  0  0  0
 35 36  1  0  0  0  0
 36 37  1  0  0  0  0
M  END
>  <MODEL>
5

>  <REMARK>
 VINA RESULT:      -6.4      2.862      6.680
  Name = 
  8 active torsions:
  status: ('A' for Active; 'I' for Inactive)
    1  A    between atoms: C_2  and  O_19
    2  A    between atoms: C_2  and  C_35
    3  A    between atoms: C_3  and  N_32
    4  A    between atoms: C_5  and  N_23
    5  A    between atoms: C_9  and  C_13
    6  A    between atoms: C_9  and  C_16
    7  A    between atoms: C_14  and  C_31
    8  A    between atoms: C_25  and  N_32
                            x       y       z     vdW  Elec       q    Type
                         _______ _______ _______ _____ _____    ______ ____

>  <TORSDO>
F 8

$$$$
=
 OpenBabel11052420113D

 37 39  0  0  1  0  0  0  0  0999 V2000
  195.2680  173.6920  143.8630 O   0  0  0  0  0  0  0  0  0  0  0  0
  190.6970  173.5530  143.3560 C   0  0  0  0  0  0  0  0  0  0  0  0
  194.8000  173.9710  142.5310 C   0  0  2  0  0  0  0  0  0  0  0  0
  191.6110  177.1540  144.3880 C   0  0  0  0  0  2  0  0  0  0  0  0
  191.4500  174.6220  144.1440 C   0  0  0  0  0  2  0  0  0  0  0  0
  194.8030  176.8950  145.1900 C   0  0  1  0  0  3  0  0  0  0  0  0
  190.4990  173.6520  141.8410 C   0  0  2  0  0  3  0  0  0  0  0  0
  190.6840  175.9410  144.2250 C   0  0  1  0  0  3  0  0  0  0  0  0
  194.1620  175.3570  142.4130 C   0  0  0  0  0  1  0  0  0  0  0  0
  191.7520  174.1470  141.1160 C   0  0  0  0  0  2  0  0  0  0  0  0
  193.7460  172.8920  142.2260 C   0  0  0  0  0  2  0  0  0  0  0  0
  189.6380  172.7840  144.1200 C   0  0  0  0  0  2  0  0  0  0  0  0
  192.8300  173.0610  140.9970 C   0  0  2  0  0  3  0  0  0  0  0  0
  195.7660  174.6100  144.8040 C   0  0  0  0  0  0  0  0  0  0  0  0
  192.4090  177.1770  145.6940 C   0  0  0  0  0  2  0  0  0  0  0  0
  190.9890  172.1490  143.8340 C   0  0  0  0  0  2  0  0  0  0  0  0
  196.2100  174.1780  145.8990 O   0  0  0  0  0  0  0  0  0  0  0  0
  193.5660  176.1990  145.6250 C   0  0  2  0  0  3  0  0  0  0  0  0
  194.5750  176.5600  146.5400 O   0  0  0  0  0  0  0  0  0  0  0  0
  195.7300  175.9900  144.5720 O   0  0  0  0  0  0  0  0  0  0  0  0
  188.3240  176.4800  144.9920 N   0  0  0  0  0  2  0  0  0  0  0  0
  187.3280  176.0380  147.0670 O   0  0  0  0  0  0  0  0  0  0  0  0
  189.6100  175.9090  145.2680 C   0  0  0  0  0  0  0  0  0  0  0  0
  187.2240  176.5180  145.9050 C   0  0  0  0  0  0  0  0  0  0  0  0
  189.8490  175.3610  146.3760 O   0  0  0  0  0  0  0  0  0  0  0  0
  185.9440  177.1520  145.4700 C   0  0  2  0  0  3  0  0  0  0  0  0
  186.1760  178.6130  145.1280 C   0  0  0  0  0  1  0  0  0  0  0  0
  184.3590  178.2960  146.5090 C   0  0  0  0  0  1  0  0  0  0  0  0
  184.9860  177.0490  146.4810 O   0  0  0  0  0  0  0  0  0  0  0  0
  196.4470  175.1210  141.1920 C   0  0  0  0  0  1  0  0  0  0  0  0
  195.9040  173.8220  141.5750 N   0  0  0  0  0  2  0  0  0  0  0  0
  189.3270  174.5740  141.5260 C   0  0  0  0  0  2  0  0  0  0  0  0
  188.6360  174.1680  140.2330 C   0  0  0  0  0  2  0  0  0  0  0  0
  188.4430  172.6640  140.1870 C   0  0  0  0  0  1  0  0  0  0  0  0
  193.5450  173.0490  139.7160 N   0  0  0  0  0  2  0  0  0  0  0  0
  193.0470  174.0820  138.8140 C   0  0  0  0  0  2  0  0  0  0  0  0
  194.2040  174.9260  138.3250 C   0  0  0  0  0  1  0  0  0  0  0  0
  1 14  1  0  0  0  0
  2 16  1  0  0  0  0
  2 12  1  0  0  0  0
  2  5  1  0  0  0  0
  3  9  1  6  0  0  0
  3  1  1  0  0  0  0
  4 15  1  0  0  0  0
  5  8  1  0  0  0  0
  6 20  1  6  0  0  0
  6 18  1  0  0  0  0
  6 19  1  0  0  0  0
  7 32  1  1  0  0  0
  7  2  1  0  0  0  0
  8  4  1  0  0  0  0
  8 23  1  1  0  0  0
 10  7  1  0  0  0  0
 11  3  1  0  0  0  0
 13 35  1  6  0  0  0
 13 10  1  0  0  0  0
 13 11  1  0  0  0  0
 14 17  2  0  0  0  0
 16 12  1  0  0  0  0
 18 15  1  1  0  0  0
 18 19  1  0  0  0  0
 20 14  1  0  0  0  0
 21 23  1  0  0  0  0
 21 24  1  0  0  0  0
 23 25  2  0  0  0  0
 24 22  2  0  0  0  0
 26 27  1  1  0  0  0
 26 24  1  0  0  0  0
 26 29  1  0  0  0  0
 29 28  1  0  0  0  0
 30 31  1  0  0  0  0
 31  3  1  0  0  0  0
 33 32  1  0  0  0  0
 34 33  1  0  0  0  0
 36 35  1  0  0  0  0
 37 36  1  0  0  0  0
M  END
>  <MODEL>
6

>  <REMARK>
 VINA RESULT:      -6.3      2.606      5.122
  Name = 
  8 active torsions:
  status: ('A' for Active; 'I' for Inactive)
    1  A    between atoms: C_2  and  O_19
    2  A    between atoms: C_2  and  C_35
    3  A    between atoms: C_3  and  N_32
    4  A    between atoms: C_5  and  N_23
    5  A    between atoms: C_9  and  C_13
    6  A    between atoms: C_9  and  C_16
    7  A    between atoms: C_14  and  C_31
    8  A    between atoms: C_25  and  N_32
                            x       y       z     vdW  Elec       q    Type
                         _______ _______ _______ _____ _____    ______ ____

>  <TORSDO>
F 8

$$$$
=
 OpenBabel11052420113D

 37 39  0  0  1  0  0  0  0  0999 V2000
  188.3280  176.1690  147.1190 O   0  0  0  0  0  0  0  0  0  0  0  0
  190.4330  173.6870  143.8660 C   0  0  0  0  0  0  0  0  0  0  0  0
  189.6890  176.5550  146.8510 C   0  0  2  0  0  0  0  0  0  0  0  0
  188.6650  176.6150  142.0870 C   0  0  0  0  0  2  0  0  0  0  0  0
  189.2920  174.6670  143.6060 C   0  0  0  0  0  2  0  0  0  0  0  0
  186.8290  177.9300  144.4950 C   0  0  1  0  0  3  0  0  0  0  0  0
  191.8920  174.1450  143.9510 C   0  0  2  0  0  3  0  0  0  0  0  0
  189.3090  175.2240  142.1840 C   0  0  1  0  0  3  0  0  0  0  0  0
  189.8350  177.3000  145.5220 C   0  0  0  0  0  1  0  0  0  0  0  0
  192.0530  175.4550  144.7230 C   0  0  0  0  0  2  0  0  0  0  0  0
  190.4910  175.2430  146.7960 C   0  0  0  0  0  2  0  0  0  0  0  0
  190.2060  172.2620  143.4040 C   0  0  0  0  0  2  0  0  0  0  0  0
  191.9290  175.2620  146.2410 C   0  0  2  0  0  3  0  0  0  0  0  0
  187.1570  176.8420  146.7330 C   0  0  0  0  0  0  0  0  0  0  0  0
  187.1710  176.6520  142.4190 C   0  0  0  0  0  2  0  0  0  0  0  0
  190.0780  172.6190  144.8760 C   0  0  0  0  0  2  0  0  0  0  0  0
  186.0450  176.4020  147.1250 O   0  0  0  0  0  0  0  0  0  0  0  0
  186.9590  176.5690  143.9180 C   0  0  2  0  0  3  0  0  0  0  0  0
  185.7060  177.1080  144.2710 O   0  0  0  0  0  0  0  0  0  0  0  0
  187.1960  177.9540  145.8830 O   0  0  0  0  0  0  0  0  0  0  0  0
  189.2450  174.2130  139.8570 N   0  0  0  0  0  2  0  0  0  0  0  0
  187.8170  172.5490  139.0290 O   0  0  0  0  0  0  0  0  0  0  0  0
  188.7280  174.2650  141.1930 C   0  0  0  0  0  0  0  0  0  0  0  0
  188.7710  173.3470  138.8210 C   0  0  0  0  0  0  0  0  0  0  0  0
  187.7970  173.4990  141.5560 O   0  0  0  0  0  0  0  0  0  0  0  0
  189.4120  173.4130  137.4740 C   0  0  2  0  0  3  0  0  0  0  0  0
  190.8900  173.7260  137.6150 C   0  0  0  0  0  1  0  0  0  0  0  0
  189.3170  174.2090  135.4100 C   0  0  0  0  0  1  0  0  0  0  0  0
  188.7930  174.3900  136.6920 O   0  0  0  0  0  0  0  0  0  0  0  0
  189.5460  178.6660  148.0130 C   0  0  0  0  0  1  0  0  0  0  0  0
  190.2030  177.3650  147.9620 N   0  0  0  0  0  2  0  0  0  0  0  0
  192.4730  174.3020  142.5500 C   0  0  0  0  0  2  0  0  0  0  0  0
  193.0620  175.6890  142.3470 C   0  0  0  0  0  2  0  0  0  0  0  0
  194.5190  175.5890  141.9390 C   0  0  0  0  0  1  0  0  0  0  0  0
  192.8630  176.0670  147.0360 N   0  0  0  0  0  2  0  0  0  0  0  0
  194.1900  176.1050  146.4290 C   0  0  0  0  0  2  0  0  0  0  0  0
  194.5660  177.5400  146.1310 C   0  0  0  0  0  1  0  0  0  0  0  0
  2  7  1  0  0  0  0
  2 16  1  0  0  0  0
  3  9  1  6  0  0  0
  3  1  1  0  0  0  0
  3 31  1  0  0  0  0
  4  8  1  0  0  0  0
  4 15  1  0  0  0  0
  5  2  1  0  0  0  0
  6 19  1  1  0  0  0
  6 20  1  0  0  0  0
  7 32  1  6  0  0  0
  7 10  1  0  0  0  0
  8 23  1  6  0  0  0
  8  5  1  0  0  0  0
 10 13  1  0  0  0  0
 11  3  1  0  0  0  0
 12  2  1  0  0  0  0
 12 16  1  0  0  0  0
 13 11  1  0  0  0  0
 13 35  1  1  0  0  0
 14  1  1  0  0  0  0
 14 17  2  0  0  0  0
 18 15  1  6  0  0  0
 18 19  1  0  0  0  0
 18  6  1  0  0  0  0
 20 14  1  0  0  0  0
 21 23  1  0  0  0  0
 23 25  2  0  0  0  0
 24 22  2  0  0  0  0
 24 21  1  0  0  0  0
 26 27  1  1  0  0  0
 26 24  1  0  0  0  0
 28 29  1  0  0  0  0
 29 26  1  0  0  0  0
 31 30  1  0  0  0  0
 33 32  1  0  0  0  0
 34 33  1  0  0  0  0
 36 35  1  0  0  0  0
 37 36  1  0  0  0  0
M  END
>  <MODEL>
7

>  <REMARK>
 VINA RESULT:      -6.2      2.601      6.739
  Name = 
  8 active torsions:
  status: ('A' for Active; 'I' for Inactive)
    1  A    between atoms: C_2  and  O_19
    2  A    between atoms: C_2  and  C_35
    3  A    between atoms: C_3  and  N_32
    4  A    between atoms: C_5  and  N_23
    5  A    between atoms: C_9  and  C_13
    6  A    between atoms: C_9  and  C_16
    7  A    between atoms: C_14  and  C_31
    8  A    between atoms: C_25  and  N_32
                            x       y       z     vdW  Elec       q    Type
                         _______ _______ _______ _____ _____    ______ ____

>  <TORSDO>
F 8

$$$$
=
 OpenBabel11052420113D

 37 39  0  0  1  0  0  0  0  0999 V2000
  192.7420  173.3500  144.3680 O   0  0  0  0  0  0  0  0  0  0  0  0
  188.8400  173.6110  141.9440 C   0  0  0  0  0  0  0  0  0  0  0  0
  192.9150  173.3130  142.9390 C   0  0  2  0  0  0  0  0  0  0  0  0
  190.0350  177.2250  142.5550 C   0  0  0  0  0  2  0  0  0  0  0  0
  189.4320  174.7570  142.7590 C   0  0  0  0  0  2  0  0  0  0  0  0
  192.5040  176.8230  144.7090 C   0  0  1  0  0  3  0  0  0  0  0  0
  189.2870  173.3210  140.5080 C   0  0  2  0  0  3  0  0  0  0  0  0
  189.0070  176.1290  142.2400 C   0  0  1  0  0  3  0  0  0  0  0  0
  192.6980  174.6810  142.2880 C   0  0  0  0  0  1  0  0  0  0  0  0
  190.8000  173.4550  140.3260 C   0  0  0  0  0  2  0  0  0  0  0  0
  191.8610  172.3220  142.4170 C   0  0  0  0  0  2  0  0  0  0  0  0
  187.4240  173.2040  142.2980 C   0  0  0  0  0  2  0  0  0  0  0  0
  191.5690  172.2590  140.9040 C   0  0  2  0  0  3  0  0  0  0  0  0
  193.0140  174.4220  145.2340 C   0  0  0  0  0  0  0  0  0  0  0  0
  190.2330  177.5050  144.0470 C   0  0  0  0  0  2  0  0  0  0  0  0
  188.6010  172.3630  142.7630 C   0  0  0  0  0  2  0  0  0  0  0  0
  192.8800  174.2520  146.4740 O   0  0  0  0  0  0  0  0  0  0  0  0
  191.0760  176.4180  144.6830 C   0  0  2  0  0  3  0  0  0  0  0  0
  191.6910  176.8910  145.8590 O   0  0  0  0  0  0  0  0  0  0  0  0
  193.3770  175.6840  144.7480 O   0  0  0  0  0  0  0  0  0  0  0  0
  187.3110  176.5220  144.0870 N   0  0  0  0  0  2  0  0  0  0  0  0
  185.0630  177.1550  143.8920 O   0  0  0  0  0  0  0  0  0  0  0  0
  187.6300  176.5030  142.6890 C   0  0  0  0  0  0  0  0  0  0  0  0
  186.0340  176.8550  144.6390 C   0  0  0  0  0  0  0  0  0  0  0  0
  186.7670  176.8160  141.8260 O   0  0  0  0  0  0  0  0  0  0  0  0
  185.8570  176.8270  146.1210 C   0  0  2  0  0  3  0  0  0  0  0  0
  184.5590  177.5150  146.5050 C   0  0  0  0  0  1  0  0  0  0  0  0
  186.3500  178.2760  147.7200 C   0  0  0  0  0  1  0  0  0  0  0  0
  186.9320  177.4600  146.7480 O   0  0  0  0  0  0  0  0  0  0  0  0
  195.1150  173.8350  142.0930 C   0  0  0  0  0  1  0  0  0  0  0  0
  194.2460  172.7860  142.6130 N   0  0  0  0  0  2  0  0  0  0  0  0
  188.5700  174.2550  139.5390 C   0  0  0  0  0  2  0  0  0  0  0  0
  188.1910  173.5340  138.2550 C   0  0  0  0  0  2  0  0  0  0  0  0
  188.9040  174.1560  137.0700 C   0  0  0  0  0  1  0  0  0  0  0  0
  192.7130  171.8210  140.0960 N   0  0  0  0  0  2  0  0  0  0  0  0
  192.3040  170.8940  139.0460 C   0  0  0  0  0  2  0  0  0  0  0  0
  191.4660  169.7880  139.6490 C   0  0  0  0  0  1  0  0  0  0  0  0
  1 14  1  0  0  0  0
  2 12  1  0  0  0  0
  2  5  1  0  0  0  0
  2 16  1  0  0  0  0
  3  9  1  6  0  0  0
  3  1  1  0  0  0  0
  4 15  1  0  0  0  0
  6 20  1  1  0  0  0
  6 19  1  0  0  0  0
  7 32  1  6  0  0  0
  7  2  1  0  0  0  0
  8  4  1  0  0  0  0
  8 23  1  1  0  0  0
  8  5  1  0  0  0  0
 10  7  1  0  0  0  0
 10 13  1  0  0  0  0
 11  3  1  0  0  0  0
 12 16  1  0  0  0  0
 13 35  1  6  0  0  0
 13 11  1  0  0  0  0
 14 17  2  0  0  0  0
 18 15  1  6  0  0  0
 18  6  1  0  0  0  0
 18 19  1  0  0  0  0
 20 14  1  0  0  0  0
 21 24  1  0  0  0  0
 22 24  2  0  0  0  0
 23 21  1  0  0  0  0
 24 26  1  0  0  0  0
 25 23  2  0  0  0  0
 26 27  1  6  0  0  0
 26 29  1  0  0  0  0
 29 28  1  0  0  0  0
 30 31  1  0  0  0  0
 31  3  1  0  0  0  0
 33 32  1  0  0  0  0
 34 33  1  0  0  0  0
 36 37  1  0  0  0  0
 36 35  1  0  0  0  0
M  END
>  <MODEL>
8

>  <REMARK>
 VINA RESULT:      -6.0      2.300      5.144
  Name = 
  8 active torsions:
  status: ('A' for Active; 'I' for Inactive)
    1  A    between atoms: C_2  and  O_19
    2  A    between atoms: C_2  and  C_35
    3  A    between atoms: C_3  and  N_32
    4  A    between atoms: C_5  and  N_23
    5  A    between atoms: C_9  and  C_13
    6  A    between atoms: C_9  and  C_16
    7  A    between atoms: C_14  and  C_31
    8  A    between atoms: C_25  and  N_32
                            x       y       z     vdW  Elec       q    Type
                         _______ _______ _______ _____ _____    ______ ____

>  <TORSDO>
F 8

$$$$
=
 OpenBabel11052420113D

 37 39  0  0  1  0  0  0  0  0999 V2000
  191.8290  175.6640  145.6130 O   0  0  0  0  0  0  0  0  0  0  0  0
  188.5210  176.9190  142.6720 C   0  0  0  0  0  0  0  0  0  0  0  0
  190.5140  175.7590  146.1900 C   0  0  2  0  0  0  0  0  0  0  0  0
  188.7810  173.0750  142.5100 C   0  0  0  0  0  2  0  0  0  0  0  0
  189.2490  175.5770  142.6380 C   0  0  0  0  0  2  0  0  0  0  0  0
  191.5070  172.4530  144.2640 C   0  0  1  0  0  3  0  0  0  0  0  0
  187.3080  177.1600  143.5760 C   0  0  2  0  0  3  0  0  0  0  0  0
  188.4160  174.4740  141.9900 C   0  0  1  0  0  3  0  0  0  0  0  0
  189.6070  174.5990  145.7700 C   0  0  0  0  0  1  0  0  0  0  0  0
  187.4790  176.5450  144.9660 C   0  0  0  0  0  2  0  0  0  0  0  0
  189.9270  177.0840  145.6740 C   0  0  0  0  0  2  0  0  0  0  0  0
  188.5840  177.7440  141.4030 C   0  0  0  0  0  2  0  0  0  0  0  0
  188.4220  177.3640  145.8580 C   0  0  2  0  0  3  0  0  0  0  0  0
  192.5410  174.4950  145.2950 C   0  0  0  0  0  0  0  0  0  0  0  0
  190.2060  172.6240  142.1810 C   0  0  0  0  0  2  0  0  0  0  0  0
  189.4570  178.1030  142.5940 C   0  0  0  0  0  2  0  0  0  0  0  0
  193.7210  174.5980  144.8690 O   0  0  0  0  0  0  0  0  0  0  0  0
  191.2040  173.3120  143.0920 C   0  0  2  0  0  3  0  0  0  0  0  0
  192.3960  172.5650  143.1750 O   0  0  0  0  0  0  0  0  0  0  0  0
  191.9510  173.2280  145.3880 O   0  0  0  0  0  0  0  0  0  0  0  0
  187.5390  175.4070  139.7980 N   0  0  0  0  0  2  0  0  0  0  0  0
  188.2260  174.8960  137.6160 O   0  0  0  0  0  0  0  0  0  0  0  0
  188.4470  174.5440  140.4950 C   0  0  0  0  0  0  0  0  0  0  0  0
  187.4670  175.5560  138.3770 C   0  0  0  0  0  0  0  0  0  0  0  0
  189.2890  173.8500  139.8670 O   0  0  0  0  0  0  0  0  0  0  0  0
  186.4610  176.4960  137.7980 C   0  0  2  0  0  3  0  0  0  0  0  0
  185.6710  177.1620  138.9090 C   0  0  0  0  0  1  0  0  0  0  0  0
  185.9110  176.2680  135.6660 C   0  0  0  0  0  1  0  0  0  0  0  0
  185.5940  175.8100  136.9460 O   0  0  0  0  0  0  0  0  0  0  0  0
  191.5710  176.8610  148.0600 C   0  0  0  0  0  1  0  0  0  0  0  0
  190.6160  175.8370  147.6520 N   0  0  0  0  0  2  0  0  0  0  0  0
  186.0490  176.6020  142.9210 C   0  0  0  0  0  2  0  0  0  0  0  0
  184.8790  177.5620  143.0650 C   0  0  0  0  0  2  0  0  0  0  0  0
  185.3800  178.9810  143.2510 C   0  0  0  0  0  1  0  0  0  0  0  0
  188.0030  177.4610  147.2610 N   0  0  0  0  0  2  0  0  0  0  0  0
  186.5590  177.3060  147.4020 C   0  0  0  0  0  2  0  0  0  0  0  0
  185.9010  178.6680  147.3700 C   0  0  0  0  0  1  0  0  0  0  0  0
  1  3  1  0  0  0  0
  2  7  1  0  0  0  0
  3  9  1  6  0  0  0
  3 31  1  0  0  0  0
  5  2  1  0  0  0  0
  6 19  1  6  0  0  0
  6 20  1  0  0  0  0
  7 32  1  6  0  0  0
  7 10  1  0  0  0  0
  8 23  1  6  0  0  0
  8  4  1  0  0  0  0
  8  5  1  0  0  0  0
 10 13  1  0  0  0  0
 11 13  1  0  0  0  0
 11  3  1  0  0  0  0
 12 16  1  0  0  0  0
 12  2  1  0  0  0  0
 13 35  1  1  0  0  0
 14 20  1  0  0  0  0
 14  1  1  0  0  0  0
 15  4  1  0  0  0  0
 16  2  1  0  0  0  0
 17 14  2  0  0  0  0
 18 15  1  6  0  0  0
 18 19  1  0  0  0  0
 18  6  1  0  0  0  0
 21 23  1  0  0  0  0
 22 24  2  0  0  0  0
 24 21  1  0  0  0  0
 25 23  2  0  0  0  0
 26 24  1  0  0  0  0
 26 27  1  1  0  0  0
 28 29  1  0  0  0  0
 29 26  1  0  0  0  0
 31 30  1  0  0  0  0
 32 33  1  0  0  0  0
 33 34  1  0  0  0  0
 35 36  1  0  0  0  0
 37 36  1  0  0  0  0
M  END
>  <MODEL>
9

>  <REMARK>
 VINA RESULT:      -6.0      3.059      6.117
  Name = 
  8 active torsions:
  status: ('A' for Active; 'I' for Inactive)
    1  A    between atoms: C_2  and  O_19
    2  A    between atoms: C_2  and  C_35
    3  A    between atoms: C_3  and  N_32
    4  A    between atoms: C_5  and  N_23
    5  A    between atoms: C_9  and  C_13
    6  A    between atoms: C_9  and  C_16
    7  A    between atoms: C_14  and  C_31
    8  A    between atoms: C_25  and  N_32
                            x       y       z     vdW  Elec       q    Type
                         _______ _______ _______ _____ _____    ______ ____

>  <TORSDO>
F 8

$$$$
