=
 OpenBabel11052419223D

 32 35  0  0  1  0  0  0  0  0999 V2000
  187.6330  176.4480  142.0220 C   0  0  0  0  0  0  0  0  0  0  0  0
  186.8570  176.8430  140.8970 N   0  0  0  0  0  1  0  0  0  0  0  0
  190.2970  172.3810  144.4210 O   0  0  0  0  0  1  0  0  0  0  0  0
  189.6180  176.3350  144.3730 S   0  0  0  0  0  0  0  0  0  0  0  0
  190.1430  174.1290  142.8930 C   0  0  0  0  0  0  0  0  0  0  0  0
  187.1020  176.7080  143.3800 C   0  0  0  0  0  3  0  0  0  0  0  0
  189.4920  175.2820  142.9370 C   0  0  0  0  0  0  0  0  0  0  0  0
  188.6960  175.7180  141.8380 N   0  0  0  0  0  0  0  0  0  0  0  0
  190.5740  172.8730  142.1890 O   0  0  0  0  0  0  0  0  0  0  0  0
  187.8250  176.5680  144.4960 C   0  0  0  0  0  0  0  0  0  0  0  0
  190.9440  173.1730  143.4670 C   0  0  2  0  0  0  0  0  0  0  0  0
  192.4080  173.5570  143.6540 C   0  0  1  0  0  3  0  0  0  0  0  0
  193.2700  172.7230  142.7230 C   0  0  1  0  0  3  0  0  0  0  0  0
  192.9850  174.2010  142.4000 C   0  0  2  0  0  3  0  0  0  0  0  0
  194.1230  175.2230  142.6430 C   0  0  1  0  0  3  0  0  0  0  0  0
  194.5430  176.0680  141.4450 C   0  0  0  0  0  1  0  0  0  0  0  0
  193.8610  176.0660  143.8020 N   0  0  0  0  0  2  0  0  0  0  0  0
  195.3610  176.2070  144.7280 S   0  0  0  0  0  0  0  0  0  0  0  0
  194.5470  175.7450  146.2860 C   0  0  0  0  0  2  0  0  0  0  0  0
  193.0800  176.1220  146.2350 C   0  0  0  0  0  2  0  0  0  0  0  0
  192.2520  175.0570  146.9320 C   0  0  0  0  0  2  0  0  0  0  0  0
  191.3860  176.9130  148.2890 C   0  0  0  0  0  2  0  0  0  0  0  0
  191.2030  175.6910  147.7880 C   0  0  0  0  0  3  0  0  0  0  0  0
  194.8380  172.3370  143.5730 S   0  0  0  0  0  0  0  0  0  0  0  0
  194.0110  172.2220  145.1820 C   0  0  0  0  0  1  0  0  0  0  0  0
  187.1370  176.6740  145.7240 O   0  0  0  0  0  0  0  0  0  0  0  0
  185.5700  177.6270  147.3700 C   0  0  0  0  0  2  0  0  0  0  0  0
  185.7630  176.9990  146.0060 C   0  0  1  0  0  3  0  0  0  0  0  0
  185.5030  178.4880  146.1150 C   0  0  1  0  0  3  0  0  0  0  0  0
  184.1690  178.7490  145.8020 O   0  0  0  0  0  0  0  0  0  0  0  0
  185.3500  179.9410  144.1180 C   0  0  0  0  0  1  0  0  0  0  0  0
  184.1740  179.0420  144.4350 C   0  0  0  0  0  2  0  0  0  0  0  0
  1  6  1  0  0  0  0
  2  1  1  0  0  0  0
  4 10  1  0  0  0  0
  5  7  2  0  0  0  0
  5 11  1  0  0  0  0
  6 10  2  0  0  0  0
  7  4  1  0  0  0  0
  8  1  2  0  0  0  0
  8  7  1  0  0  0  0
  9  5  1  0  0  0  0
  9 11  1  0  0  0  0
 10 26  1  0  0  0  0
 11  3  1  1  0  0  0
 12 11  1  6  0  0  0
 13 24  1  1  0  0  0
 13 12  1  0  0  0  0
 14 15  1  1  0  0  0
 14 13  1  0  0  0  0
 14 12  1  0  0  0  0
 15 16  1  6  0  0  0
 15 17  1  0  0  0  0
 17 18  1  0  0  0  0
 18 19  1  0  0  0  0
 20 19  1  0  0  0  0
 20 21  1  0  0  0  0
 21 23  1  0  0  0  0
 23 22  2  0  0  0  0
 24 25  1  0  0  0  0
 28 26  1  1  0  0  0
 28 29  1  0  0  0  0
 28 27  1  0  0  0  0
 29 30  1  6  0  0  0
 29 27  1  0  0  0  0
 31 32  1  0  0  0  0
 32 30  1  0  0  0  0
M  END
>  <MODEL>
1

>  <REMARK>
 VINA RESULT:      -5.8      0.000      0.000
  Name = 
  13 active torsions:
  status: ('A' for Active; 'I' for Inactive)
    1  A    between atoms: C_1  and  N_4
    2  A    between atoms: C_1  and  C_30
    3  A    between atoms: C_2  and  C_27
    4  A    between atoms: N_4  and  S_17
    5  A    between atoms: C_5  and  S_14
    6  A    between atoms: C_6  and  S_17
    7  A    between atoms: C_6  and  C_29
    8  A    between atoms: O_7  and  C_26
    9  A    between atoms: O_7  and  C_31
   10  A    between atoms: C_12  and  O_28
   11  A    between atoms: C_18  and  C_25
   12  A    between atoms: C_18  and  C_29
   13  A    between atoms: O_28  and  C_32
                            x       y       z     vdW  Elec       q    Type
                         _______ _______ _______ _____ _____    ______ ____

>  <TORSDO>
F 13

$$$$
=
 OpenBabel11052419223D

 32 35  0  0  1  0  0  0  0  0999 V2000
  187.1630  176.7160  141.5620 C   0  0  0  0  0  0  0  0  0  0  0  0
  186.3890  177.3880  140.5760 N   0  0  0  0  0  1  0  0  0  0  0  0
  189.1880  171.9570  143.1890 O   0  0  0  0  0  1  0  0  0  0  0  0
  189.2700  175.9390  143.6690 S   0  0  0  0  0  0  0  0  0  0  0  0
  189.2480  173.8920  141.8970 C   0  0  0  0  0  0  0  0  0  0  0  0
  186.8000  176.8830  142.9880 C   0  0  0  0  0  3  0  0  0  0  0  0
  188.8340  175.1260  142.1410 C   0  0  0  0  0  0  0  0  0  0  0  0
  188.0500  175.8390  141.1870 N   0  0  0  0  0  0  0  0  0  0  0  0
  189.3760  172.6830  141.0120 O   0  0  0  0  0  0  0  0  0  0  0  0
  187.5690  176.4690  144.0010 C   0  0  0  0  0  0  0  0  0  0  0  0
  189.8960  172.7400  142.2720 C   0  0  2  0  0  0  0  0  0  0  0  0
  191.4170  172.8290  142.3510 C   0  0  1  0  0  3  0  0  0  0  0  0
  191.9830  173.0260  140.9560 C   0  0  1  0  0  3  0  0  0  0  0  0
  191.9220  174.2060  141.9420 C   0  0  2  0  0  3  0  0  0  0  0  0
  193.2450  174.6540  142.6120 C   0  0  1  0  0  3  0  0  0  0  0  0
  193.9480  175.8550  141.9880 C   0  0  0  0  0  1  0  0  0  0  0  0
  193.0940  174.8320  144.0490 N   0  0  0  0  0  2  0  0  0  0  0  0
  193.1810  176.5630  144.3980 S   0  0  0  0  0  0  0  0  0  0  0  0
  193.1080  176.2960  146.1940 C   0  0  0  0  0  2  0  0  0  0  0  0
  192.3260  175.0330  146.4980 C   0  0  0  0  0  2  0  0  0  0  0  0
  191.4450  175.2560  147.7140 C   0  0  0  0  0  2  0  0  0  0  0  0
  189.0910  174.6440  147.3720 C   0  0  0  0  0  2  0  0  0  0  0  0
  190.0460  175.5700  147.2920 C   0  0  0  0  0  3  0  0  0  0  0  0
  193.5590  172.1150  140.8330 S   0  0  0  0  0  0  0  0  0  0  0  0
  192.7340  170.5240  141.1090 C   0  0  0  0  0  1  0  0  0  0  0  0
  187.0140  176.5330  145.2960 O   0  0  0  0  0  0  0  0  0  0  0  0
  185.6390  177.3380  147.1760 C   0  0  0  0  0  2  0  0  0  0  0  0
  185.6860  176.8800  145.7340 C   0  0  1  0  0  3  0  0  0  0  0  0
  185.5180  178.3530  146.0470 C   0  0  1  0  0  3  0  0  0  0  0  0
  184.1790  178.7100  145.8850 O   0  0  0  0  0  0  0  0  0  0  0  0
  185.2330  179.9800  144.1730 C   0  0  0  0  0  1  0  0  0  0  0  0
  184.0710  179.0830  144.5420 C   0  0  0  0  0  2  0  0  0  0  0  0
  1  6  1  0  0  0  0
  2  1  1  0  0  0  0
  4 10  1  0  0  0  0
  5  7  2  0  0  0  0
  5 11  1  0  0  0  0
  6 10  2  0  0  0  0
  7  4  1  0  0  0  0
  8  1  2  0  0  0  0
  8  7  1  0  0  0  0
  9  5  1  0  0  0  0
  9 11  1  0  0  0  0
 10 26  1  0  0  0  0
 11  3  1  1  0  0  0
 12 11  1  6  0  0  0
 13 24  1  1  0  0  0
 13 14  1  0  0  0  0
 13 12  1  0  0  0  0
 14 12  1  0  0  0  0
 14 15  1  1  0  0  0
 15 16  1  6  0  0  0
 15 17  1  0  0  0  0
 17 18  1  0  0  0  0
 18 19  1  0  0  0  0
 19 20  1  0  0  0  0
 20 21  1  0  0  0  0
 23 22  2  0  0  0  0
 23 21  1  0  0  0  0
 24 25  1  0  0  0  0
 28 26  1  6  0  0  0
 28 29  1  0  0  0  0
 28 27  1  0  0  0  0
 29 30  1  1  0  0  0
 29 27  1  0  0  0  0
 31 32  1  0  0  0  0
 32 30  1  0  0  0  0
M  END
>  <MODEL>
2

>  <REMARK>
 VINA RESULT:      -5.6      1.339      1.604
  Name = 
  13 active torsions:
  status: ('A' for Active; 'I' for Inactive)
    1  A    between atoms: C_1  and  N_4
    2  A    between atoms: C_1  and  C_30
    3  A    between atoms: C_2  and  C_27
    4  A    between atoms: N_4  and  S_17
    5  A    between atoms: C_5  and  S_14
    6  A    between atoms: C_6  and  S_17
    7  A    between atoms: C_6  and  C_29
    8  A    between atoms: O_7  and  C_26
    9  A    between atoms: O_7  and  C_31
   10  A    between atoms: C_12  and  O_28
   11  A    between atoms: C_18  and  C_25
   12  A    between atoms: C_18  and  C_29
   13  A    between atoms: O_28  and  C_32
                            x       y       z     vdW  Elec       q    Type
                         _______ _______ _______ _____ _____    ______ ____

>  <TORSDO>
F 13

$$$$
=
 OpenBabel11052419223D

 32 35  0  0  1  0  0  0  0  0999 V2000
  188.5650  174.6570  140.4780 C   0  0  0  0  0  0  0  0  0  0  0  0
  188.2100  174.5030  139.1100 N   0  0  0  0  0  1  0  0  0  0  0  0
  189.6860  172.1050  145.1290 O   0  0  0  0  0  1  0  0  0  0  0  0
  189.7800  175.5930  143.1490 S   0  0  0  0  0  0  0  0  0  0  0  0
  190.2760  172.9330  143.0350 C   0  0  0  0  0  0  0  0  0  0  0  0
  187.7410  175.5420  141.3330 C   0  0  0  0  0  3  0  0  0  0  0  0
  189.8590  173.9940  142.3600 C   0  0  0  0  0  0  0  0  0  0  0  0
  189.4850  173.8890  140.9880 N   0  0  0  0  0  0  0  0  0  0  0  0
  190.6460  171.4790  143.1310 O   0  0  0  0  0  0  0  0  0  0  0  0
  188.0940  175.9190  142.5670 C   0  0  0  0  0  0  0  0  0  0  0  0
  190.7020  172.3320  144.1950 C   0  0  2  0  0  0  0  0  0  0  0  0
  192.1050  172.7080  144.6620 C   0  0  1  0  0  3  0  0  0  0  0  0
  193.0840  171.6320  144.2280 C   0  0  1  0  0  3  0  0  0  0  0  0
  193.0340  172.9800  143.4860 C   0  0  2  0  0  3  0  0  0  0  0  0
  194.1710  173.9950  143.7620 C   0  0  1  0  0  3  0  0  0  0  0  0
  195.1880  174.1940  142.6420 C   0  0  0  0  0  1  0  0  0  0  0  0
  193.6570  175.2770  144.2260 N   0  0  0  0  0  2  0  0  0  0  0  0
  194.9340  176.0760  145.1510 S   0  0  0  0  0  0  0  0  0  0  0  0
  193.8210  176.4410  146.5410 C   0  0  0  0  0  2  0  0  0  0  0  0
  192.3820  176.2050  146.1270 C   0  0  0  0  0  2  0  0  0  0  0  0
  191.6840  175.3460  147.1670 C   0  0  0  0  0  2  0  0  0  0  0  0
  189.3100  174.7260  147.3020 C   0  0  0  0  0  2  0  0  0  0  0  0
  190.2300  175.6890  147.2330 C   0  0  0  0  0  3  0  0  0  0  0  0
  194.3470  171.4360  145.5290 S   0  0  0  0  0  0  0  0  0  0  0  0
  194.3300  169.6300  145.3620 C   0  0  0  0  0  1  0  0  0  0  0  0
  187.1300  176.6140  143.3260 O   0  0  0  0  0  0  0  0  0  0  0  0
  186.0500  178.7850  142.8890 C   0  0  0  0  0  2  0  0  0  0  0  0
  187.0540  178.0010  143.7060 C   0  0  1  0  0  3  0  0  0  0  0  0
  185.7250  178.3880  144.3240 C   0  0  1  0  0  3  0  0  0  0  0  0
  185.9080  179.4870  145.1620 O   0  0  0  0  0  0  0  0  0  0  0  0
  184.4270  177.9690  146.2360 C   0  0  0  0  0  1  0  0  0  0  0  0
  185.4650  179.0560  146.4160 C   0  0  0  0  0  2  0  0  0  0  0  0
  1  8  2  0  0  0  0
  1  6  1  0  0  0  0
  2  1  1  0  0  0  0
  5  9  1  0  0  0  0
  5 11  1  0  0  0  0
  6 10  2  0  0  0  0
  7  5  2  0  0  0  0
  7  4  1  0  0  0  0
  8  7  1  0  0  0  0
  9 11  1  0  0  0  0
 10  4  1  0  0  0  0
 10 26  1  0  0  0  0
 11  3  1  1  0  0  0
 12 11  1  6  0  0  0
 13 12  1  0  0  0  0
 13 24  1  1  0  0  0
 14 15  1  1  0  0  0
 14 13  1  0  0  0  0
 14 12  1  0  0  0  0
 15 16  1  6  0  0  0
 15 17  1  0  0  0  0
 17 18  1  0  0  0  0
 18 19  1  0  0  0  0
 20 19  1  0  0  0  0
 20 21  1  0  0  0  0
 21 23  1  0  0  0  0
 23 22  2  0  0  0  0
 25 24  1  0  0  0  0
 27 28  1  0  0  0  0
 27 29  1  0  0  0  0
 28 26  1  6  0  0  0
 28 29  1  0  0  0  0
 29 30  1  1  0  0  0
 30 32  1  0  0  0  0
 31 32  1  0  0  0  0
M  END
>  <MODEL>
3

>  <REMARK>
 VINA RESULT:      -5.6      1.581      2.110
  Name = 
  13 active torsions:
  status: ('A' for Active; 'I' for Inactive)
    1  A    between atoms: C_1  and  N_4
    2  A    between atoms: C_1  and  C_30
    3  A    between atoms: C_2  and  C_27
    4  A    between atoms: N_4  and  S_17
    5  A    between atoms: C_5  and  S_14
    6  A    between atoms: C_6  and  S_17
    7  A    between atoms: C_6  and  C_29
    8  A    between atoms: O_7  and  C_26
    9  A    between atoms: O_7  and  C_31
   10  A    between atoms: C_12  and  O_28
   11  A    between atoms: C_18  and  C_25
   12  A    between atoms: C_18  and  C_29
   13  A    between atoms: O_28  and  C_32
                            x       y       z     vdW  Elec       q    Type
                         _______ _______ _______ _____ _____    ______ ____

>  <TORSDO>
F 13

$$$$
=
 OpenBabel11052419223D

 32 35  0  0  1  0  0  0  0  0999 V2000
  186.7030  178.3420  147.2020 C   0  0  0  0  0  0  0  0  0  0  0  0
  186.5840  178.9800  148.4680 N   0  0  0  0  0  1  0  0  0  0  0  0
  189.7000  177.8190  142.7150 O   0  0  0  0  0  1  0  0  0  0  0  0
  186.6580  176.3340  144.8680 S   0  0  0  0  0  0  0  0  0  0  0  0
  189.1870  177.3020  144.9250 C   0  0  0  0  0  0  0  0  0  0  0  0
  185.5650  178.4140  146.2570 C   0  0  0  0  0  3  0  0  0  0  0  0
  188.0300  177.2370  145.5670 C   0  0  0  0  0  0  0  0  0  0  0  0
  187.8590  177.8660  146.8350 N   0  0  0  0  0  0  0  0  0  0  0  0
  190.6280  177.7180  144.8200 O   0  0  0  0  0  0  0  0  0  0  0  0
  185.4860  177.6890  145.1360 C   0  0  0  0  0  0  0  0  0  0  0  0
  189.9790  177.0310  143.8360 C   0  0  2  0  0  0  0  0  0  0  0  0
  190.4000  175.5740  143.6650 C   0  0  1  0  0  3  0  0  0  0  0  0
  189.7520  175.0070  142.4150 C   0  0  1  0  0  3  0  0  0  0  0  0
  191.2460  175.3760  142.4150 C   0  0  2  0  0  3  0  0  0  0  0  0
  192.2730  174.2190  142.4860 C   0  0  1  0  0  3  0  0  0  0  0  0
  192.9270  173.8110  141.1700 C   0  0  0  0  0  1  0  0  0  0  0  0
  193.2800  174.4460  143.5140 N   0  0  0  0  0  2  0  0  0  0  0  0
  194.1700  175.9150  143.0930 S   0  0  0  0  0  0  0  0  0  0  0  0
  195.3990  175.6520  144.4060 C   0  0  0  0  0  2  0  0  0  0  0  0
  194.7160  175.1530  145.6630 C   0  0  0  0  0  2  0  0  0  0  0  0
  194.2960  176.3330  146.5210 C   0  0  0  0  0  2  0  0  0  0  0  0
  192.1970  175.1450  146.9890 C   0  0  0  0  0  2  0  0  0  0  0  0
  192.8210  176.3010  146.7620 C   0  0  0  0  0  3  0  0  0  0  0  0
  189.3180  173.2620  142.7260 S   0  0  0  0  0  0  0  0  0  0  0  0
  188.6070  173.0780  141.0680 C   0  0  0  0  0  1  0  0  0  0  0  0
  184.4340  177.9950  144.2470 O   0  0  0  0  0  0  0  0  0  0  0  0
  185.6920  178.6330  142.2270 C   0  0  0  0  0  2  0  0  0  0  0  0
  184.4230  178.7780  143.0380 C   0  0  1  0  0  3  0  0  0  0  0  0
  184.4120  177.9400  141.7750 C   0  0  1  0  0  3  0  0  0  0  0  0
  183.8300  178.6720  140.7410 O   0  0  0  0  0  0  0  0  0  0  0  0
  181.4800  178.4540  141.0360 C   0  0  0  0  0  1  0  0  0  0  0  0
  182.7190  177.9160  140.3530 C   0  0  0  0  0  2  0  0  0  0  0  0
  1  2  1  0  0  0  0
  4 10  1  0  0  0  0
  4  7  1  0  0  0  0
  5  7  2  0  0  0  0
  6  1  1  0  0  0  0
  7  8  1  0  0  0  0
  8  1  2  0  0  0  0
  9  5  1  0  0  0  0
 10  6  2  0  0  0  0
 11  3  1  6  0  0  0
 11  9  1  0  0  0  0
 11  5  1  0  0  0  0
 12 11  1  6  0  0  0
 13 14  1  0  0  0  0
 13 24  1  1  0  0  0
 13 12  1  0  0  0  0
 14 15  1  1  0  0  0
 14 12  1  0  0  0  0
 15 16  1  6  0  0  0
 15 17  1  0  0  0  0
 18 17  1  0  0  0  0
 18 19  1  0  0  0  0
 19 20  1  0  0  0  0
 20 21  1  0  0  0  0
 21 23  1  0  0  0  0
 23 22  2  0  0  0  0
 25 24  1  0  0  0  0
 26 10  1  0  0  0  0
 27 28  1  0  0  0  0
 28 26  1  1  0  0  0
 29 30  1  6  0  0  0
 29 27  1  0  0  0  0
 29 28  1  0  0  0  0
 32 30  1  0  0  0  0
 32 31  1  0  0  0  0
M  END
>  <MODEL>
4

>  <REMARK>
 VINA RESULT:      -5.5      2.872      4.176
  Name = 
  13 active torsions:
  status: ('A' for Active; 'I' for Inactive)
    1  A    between atoms: C_1  and  N_4
    2  A    between atoms: C_1  and  C_30
    3  A    between atoms: C_2  and  C_27
    4  A    between atoms: N_4  and  S_17
    5  A    between atoms: C_5  and  S_14
    6  A    between atoms: C_6  and  S_17
    7  A    between atoms: C_6  and  C_29
    8  A    between atoms: O_7  and  C_26
    9  A    between atoms: O_7  and  C_31
   10  A    between atoms: C_12  and  O_28
   11  A    between atoms: C_18  and  C_25
   12  A    between atoms: C_18  and  C_29
   13  A    between atoms: O_28  and  C_32
                            x       y       z     vdW  Elec       q    Type
                         _______ _______ _______ _____ _____    ______ ____

>  <TORSDO>
F 13

$$$$
=
 OpenBabel11052419223D

 32 35  0  0  1  0  0  0  0  0999 V2000
  190.0150  172.6900  142.3070 C   0  0  0  0  0  0  0  0  0  0  0  0
  189.8300  171.2810  142.2570 N   0  0  0  0  0  1  0  0  0  0  0  0
  187.8580  177.5340  141.1740 O   0  0  0  0  0  1  0  0  0  0  0  0
  190.7620  175.5650  143.1190 S   0  0  0  0  0  0  0  0  0  0  0  0
  188.1220  175.6580  142.5250 C   0  0  0  0  0  0  0  0  0  0  0  0
  191.2500  173.2680  141.7270 C   0  0  0  0  0  3  0  0  0  0  0  0
  189.1630  174.8680  142.7400 C   0  0  0  0  0  0  0  0  0  0  0  0
  189.0300  173.4490  142.6940 N   0  0  0  0  0  0  0  0  0  0  0  0
  186.6620  175.8870  142.2500 O   0  0  0  0  0  0  0  0  0  0  0  0
  191.6220  174.5410  141.8960 C   0  0  0  0  0  0  0  0  0  0  0  0
  187.5610  176.9040  142.3860 C   0  0  2  0  0  0  0  0  0  0  0  0
  187.4360  177.7230  143.6670 C   0  0  1  0  0  3  0  0  0  0  0  0
  185.9820  177.7550  144.1040 C   0  0  1  0  0  3  0  0  0  0  0  0
  186.9950  176.8630  144.8440 C   0  0  2  0  0  3  0  0  0  0  0  0
  187.4910  177.3350  146.2330 C   0  0  1  0  0  3  0  0  0  0  0  0
  186.7300  176.8010  147.4420 C   0  0  0  0  0  1  0  0  0  0  0  0
  188.9240  177.1380  146.3970 N   0  0  0  0  0  2  0  0  0  0  0  0
  189.2000  175.4380  146.8000 S   0  0  0  0  0  0  0  0  0  0  0  0
  190.7770  175.7980  147.6290 C   0  0  0  0  0  2  0  0  0  0  0  0
  191.9350  175.4110  146.7300 C   0  0  0  0  0  2  0  0  0  0  0  0
  192.6280  176.6620  146.2200 C   0  0  0  0  0  2  0  0  0  0  0  0
  194.6800  175.3240  146.4140 C   0  0  0  0  0  2  0  0  0  0  0  0
  194.1110  176.5290  146.3630 C   0  0  0  0  0  3  0  0  0  0  0  0
  185.6260  179.3940  144.8210 S   0  0  0  0  0  0  0  0  0  0  0  0
  184.0750  178.8070  145.5540 C   0  0  0  0  0  1  0  0  0  0  0  0
  192.7220  174.9950  141.1390 O   0  0  0  0  0  0  0  0  0  0  0  0
  194.5790  175.9610  142.4390 C   0  0  0  0  0  2  0  0  0  0  0  0
  194.1360  174.9430  141.4100 C   0  0  1  0  0  3  0  0  0  0  0  0
  194.4650  174.4900  142.8190 C   0  0  1  0  0  3  0  0  0  0  0  0
  195.7360  173.9160  142.8340 O   0  0  0  0  0  0  0  0  0  0  0  0
  194.1440  172.5970  144.0080 C   0  0  0  0  0  1  0  0  0  0  0  0
  195.5950  172.7600  143.6080 C   0  0  0  0  0  2  0  0  0  0  0  0
  1  8  2  0  0  0  0
  2  1  1  0  0  0  0
  5  7  2  0  0  0  0
  6 10  2  0  0  0  0
  6  1  1  0  0  0  0
  7  4  1  0  0  0  0
  8  7  1  0  0  0  0
  9 11  1  0  0  0  0
  9  5  1  0  0  0  0
 10  4  1  0  0  0  0
 11  3  1  6  0  0  0
 11  5  1  0  0  0  0
 12 11  1  6  0  0  0
 12 13  1  0  0  0  0
 12 14  1  0  0  0  0
 13 24  1  1  0  0  0
 13 14  1  0  0  0  0
 14 15  1  1  0  0  0
 15 17  1  0  0  0  0
 15 16  1  1  0  0  0
 17 18  1  0  0  0  0
 18 19  1  0  0  0  0
 20 19  1  0  0  0  0
 21 23  1  0  0  0  0
 21 20  1  0  0  0  0
 23 22  2  0  0  0  0
 24 25  1  0  0  0  0
 26 10  1  0  0  0  0
 27 29  1  0  0  0  0
 28 26  1  1  0  0  0
 28 27  1  0  0  0  0
 28 29  1  0  0  0  0
 29 30  1  6  0  0  0
 30 32  1  0  0  0  0
 32 31  1  0  0  0  0
M  END
>  <MODEL>
5

>  <REMARK>
 VINA RESULT:      -5.5      2.628      7.491
  Name = 
  13 active torsions:
  status: ('A' for Active; 'I' for Inactive)
    1  A    between atoms: C_1  and  N_4
    2  A    between atoms: C_1  and  C_30
    3  A    between atoms: C_2  and  C_27
    4  A    between atoms: N_4  and  S_17
    5  A    between atoms: C_5  and  S_14
    6  A    between atoms: C_6  and  S_17
    7  A    between atoms: C_6  and  C_29
    8  A    between atoms: O_7  and  C_26
    9  A    between atoms: O_7  and  C_31
   10  A    between atoms: C_12  and  O_28
   11  A    between atoms: C_18  and  C_25
   12  A    between atoms: C_18  and  C_29
   13  A    between atoms: O_28  and  C_32
                            x       y       z     vdW  Elec       q    Type
                         _______ _______ _______ _____ _____    ______ ____

>  <TORSDO>
F 13

$$$$
=
 OpenBabel11052419223D

 32 35  0  0  1  0  0  0  0  0999 V2000
  187.5360  177.3760  141.7770 C   0  0  0  0  0  0  0  0  0  0  0  0
  186.5380  178.3870  141.7080 N   0  0  0  0  0  1  0  0  0  0  0  0
  192.8550  176.3380  141.9230 O   0  0  0  0  0  1  0  0  0  0  0  0
  189.1660  174.8440  142.4210 S   0  0  0  0  0  0  0  0  0  0  0  0
  190.8370  176.9130  142.9280 C   0  0  0  0  0  0  0  0  0  0  0  0
  187.4950  176.2670  140.7960 C   0  0  0  0  0  3  0  0  0  0  0  0
  189.5890  176.5610  142.6590 C   0  0  0  0  0  0  0  0  0  0  0  0
  188.5540  177.5380  142.5730 N   0  0  0  0  0  0  0  0  0  0  0  0
  191.8860  177.9340  143.2700 O   0  0  0  0  0  0  0  0  0  0  0  0
  188.2500  175.1670  140.8900 C   0  0  0  0  0  0  0  0  0  0  0  0
  192.1640  176.6090  143.1080 C   0  0  2  0  0  0  0  0  0  0  0  0
  192.5040  175.8480  144.3870 C   0  0  1  0  0  3  0  0  0  0  0  0
  193.3690  176.7230  145.2770 C   0  0  1  0  0  3  0  0  0  0  0  0
  191.8830  176.5040  145.6130 C   0  0  2  0  0  3  0  0  0  0  0  0
  191.5430  175.5410  146.7780 C   0  0  1  0  0  3  0  0  0  0  0  0
  191.1970  176.1900  148.1140 C   0  0  0  0  0  1  0  0  0  0  0  0
  190.5300  174.5650  146.4010 N   0  0  0  0  0  2  0  0  0  0  0  0
  189.0430  174.9520  147.2760 S   0  0  0  0  0  0  0  0  0  0  0  0
  188.4040  175.9760  145.9180 C   0  0  0  0  0  2  0  0  0  0  0  0
  187.6240  177.1500  146.4770 C   0  0  0  0  0  2  0  0  0  0  0  0
  186.4350  177.4490  145.5810 C   0  0  0  0  0  2  0  0  0  0  0  0
  184.3520  178.6250  146.1410 C   0  0  0  0  0  2  0  0  0  0  0  0
  185.6840  178.6360  146.0930 C   0  0  0  0  0  3  0  0  0  0  0  0
  194.5870  175.6630  146.1270 S   0  0  0  0  0  0  0  0  0  0  0  0
  195.6060  175.5270  144.6330 C   0  0  0  0  0  1  0  0  0  0  0  0
  188.2360  174.2820  139.7920 O   0  0  0  0  0  0  0  0  0  0  0  0
  188.9360  172.4400  138.3140 C   0  0  0  0  0  2  0  0  0  0  0  0
  188.5520  172.8800  139.7100 C   0  0  1  0  0  3  0  0  0  0  0  0
  190.0070  172.6060  139.3850 C   0  0  1  0  0  3  0  0  0  0  0  0
  190.3640  171.3530  139.8830 O   0  0  0  0  0  0  0  0  0  0  0  0
  191.9120  172.3700  141.3740 C   0  0  0  0  0  1  0  0  0  0  0  0
  190.6330  171.5710  141.2370 C   0  0  0  0  0  2  0  0  0  0  0  0
  1  8  2  0  0  0  0
  2  1  1  0  0  0  0
  4  7  1  0  0  0  0
  5 11  1  0  0  0  0
  5  9  1  0  0  0  0
  6 10  2  0  0  0  0
  6  1  1  0  0  0  0
  7  5  2  0  0  0  0
  8  7  1  0  0  0  0
 10  4  1  0  0  0  0
 11  3  1  6  0  0  0
 11  9  1  0  0  0  0
 12 11  1  6  0  0  0
 12 13  1  0  0  0  0
 12 14  1  0  0  0  0
 13 14  1  0  0  0  0
 13 24  1  1  0  0  0
 14 15  1  1  0  0  0
 15 16  1  1  0  0  0
 17 15  1  0  0  0  0
 17 18  1  0  0  0  0
 19 20  1  0  0  0  0
 19 18  1  0  0  0  0
 21 23  1  0  0  0  0
 21 20  1  0  0  0  0
 23 22  2  0  0  0  0
 25 24  1  0  0  0  0
 26 10  1  0  0  0  0
 27 29  1  0  0  0  0
 27 28  1  0  0  0  0
 28 26  1  6  0  0  0
 29 28  1  0  0  0  0
 29 30  1  1  0  0  0
 30 32  1  0  0  0  0
 32 31  1  0  0  0  0
M  END
>  <MODEL>
6

>  <REMARK>
 VINA RESULT:      -5.5      2.868      6.177
  Name = 
  13 active torsions:
  status: ('A' for Active; 'I' for Inactive)
    1  A    between atoms: C_1  and  N_4
    2  A    between atoms: C_1  and  C_30
    3  A    between atoms: C_2  and  C_27
    4  A    between atoms: N_4  and  S_17
    5  A    between atoms: C_5  and  S_14
    6  A    between atoms: C_6  and  S_17
    7  A    between atoms: C_6  and  C_29
    8  A    between atoms: O_7  and  C_26
    9  A    between atoms: O_7  and  C_31
   10  A    between atoms: C_12  and  O_28
   11  A    between atoms: C_18  and  C_25
   12  A    between atoms: C_18  and  C_29
   13  A    between atoms: O_28  and  C_32
                            x       y       z     vdW  Elec       q    Type
                         _______ _______ _______ _____ _____    ______ ____

>  <TORSDO>
F 13

$$$$
=
 OpenBabel11052419223D

 32 35  0  0  1  0  0  0  0  0999 V2000
  187.4430  175.3480  138.7820 C   0  0  0  0  0  0  0  0  0  0  0  0
  186.7840  175.9790  137.6910 N   0  0  0  0  0  1  0  0  0  0  0  0
  190.7800  176.0320  143.0000 O   0  0  0  0  0  1  0  0  0  0  0  0
  188.1780  173.5740  141.1900 S   0  0  0  0  0  0  0  0  0  0  0  0
  188.6830  176.1090  141.9950 C   0  0  0  0  0  0  0  0  0  0  0  0
  188.2590  174.1400  138.5200 C   0  0  0  0  0  3  0  0  0  0  0  0
  188.1270  175.3530  141.0600 C   0  0  0  0  0  0  0  0  0  0  0  0
  187.4610  175.9380  139.9430 N   0  0  0  0  0  0  0  0  0  0  0  0
  189.0040  177.4440  142.6080 O   0  0  0  0  0  0  0  0  0  0  0  0
  188.7510  173.3550  139.4840 C   0  0  0  0  0  0  0  0  0  0  0  0
  189.4090  176.2600  143.1510 C   0  0  2  0  0  0  0  0  0  0  0  0
  188.7000  175.8520  144.4390 C   0  0  1  0  0  3  0  0  0  0  0  0
  189.5940  176.1630  145.6260 C   0  0  1  0  0  3  0  0  0  0  0  0
  188.3820  177.0580  145.3130 C   0  0  2  0  0  3  0  0  0  0  0  0
  187.1290  176.9140  146.2120 C   0  0  1  0  0  3  0  0  0  0  0  0
  186.9650  177.9520  147.3170 C   0  0  0  0  0  1  0  0  0  0  0  0
  185.9070  176.7950  145.4290 N   0  0  0  0  0  2  0  0  0  0  0  0
  184.7290  177.9440  146.0750 S   0  0  0  0  0  0  0  0  0  0  0  0
  184.3350  178.6040  144.4280 C   0  0  0  0  0  2  0  0  0  0  0  0
  185.3990  179.5950  144.0000 C   0  0  0  0  0  2  0  0  0  0  0  0
  186.1720  179.0390  142.8170 C   0  0  0  0  0  2  0  0  0  0  0  0
  184.9210  178.3160  140.8300 C   0  0  0  0  0  2  0  0  0  0  0  0
  185.3350  178.0510  142.0690 C   0  0  0  0  0  3  0  0  0  0  0  0
  189.3720  174.8570  146.8800 S   0  0  0  0  0  0  0  0  0  0  0  0
  190.8910  175.3390  147.7440 C   0  0  0  0  0  1  0  0  0  0  0  0
  189.6570  172.3480  139.0920 O   0  0  0  0  0  0  0  0  0  0  0  0
  191.9210  171.3760  139.0770 C   0  0  0  0  0  2  0  0  0  0  0  0
  190.9860  172.4390  138.5440 C   0  0  1  0  0  3  0  0  0  0  0  0
  191.3610  171.2630  137.6650 C   0  0  1  0  0  3  0  0  0  0  0  0
  192.3320  171.6630  136.7470 O   0  0  0  0  0  0  0  0  0  0  0  0
  190.8200  170.4250  135.3920 C   0  0  0  0  0  1  0  0  0  0  0  0
  191.6740  171.6690  135.5140 C   0  0  0  0  0  2  0  0  0  0  0  0
  1  8  2  0  0  0  0
  2  1  1  0  0  0  0
  5  9  1  0  0  0  0
  5 11  1  0  0  0  0
  6  1  1  0  0  0  0
  6 10  2  0  0  0  0
  7  4  1  0  0  0  0
  7  5  2  0  0  0  0
  8  7  1  0  0  0  0
  9 11  1  0  0  0  0
 10  4  1  0  0  0  0
 11  3  1  6  0  0  0
 12 11  1  6  0  0  0
 12 14  1  0  0  0  0
 12 13  1  0  0  0  0
 13 24  1  1  0  0  0
 14 13  1  0  0  0  0
 14 15  1  1  0  0  0
 15 16  1  1  0  0  0
 17 18  1  0  0  0  0
 17 15  1  0  0  0  0
 19 18  1  0  0  0  0
 20 19  1  0  0  0  0
 21 20  1  0  0  0  0
 22 23  2  0  0  0  0
 23 21  1  0  0  0  0
 24 25  1  0  0  0  0
 26 10  1  0  0  0  0
 28 27  1  0  0  0  0
 28 26  1  1  0  0  0
 29 30  1  6  0  0  0
 29 28  1  0  0  0  0
 29 27  1  0  0  0  0
 31 32  1  0  0  0  0
 32 30  1  0  0  0  0
M  END
>  <MODEL>
7

>  <REMARK>
 VINA RESULT:      -5.3      3.686      8.265
  Name = 
  13 active torsions:
  status: ('A' for Active; 'I' for Inactive)
    1  A    between atoms: C_1  and  N_4
    2  A    between atoms: C_1  and  C_30
    3  A    between atoms: C_2  and  C_27
    4  A    between atoms: N_4  and  S_17
    5  A    between atoms: C_5  and  S_14
    6  A    between atoms: C_6  and  S_17
    7  A    between atoms: C_6  and  C_29
    8  A    between atoms: O_7  and  C_26
    9  A    between atoms: O_7  and  C_31
   10  A    between atoms: C_12  and  O_28
   11  A    between atoms: C_18  and  C_25
   12  A    between atoms: C_18  and  C_29
   13  A    between atoms: O_28  and  C_32
                            x       y       z     vdW  Elec       q    Type
                         _______ _______ _______ _____ _____    ______ ____

>  <TORSDO>
F 13

$$$$
=
 OpenBabel11052419223D

 32 35  0  0  1  0  0  0  0  0999 V2000
  186.9960  176.8910  140.9410 C   0  0  0  0  0  0  0  0  0  0  0  0
  186.4720  177.4880  139.7610 N   0  0  0  0  0  1  0  0  0  0  0  0
  188.6270  172.2830  143.2860 O   0  0  0  0  0  1  0  0  0  0  0  0
  188.5480  176.2860  143.5310 S   0  0  0  0  0  0  0  0  0  0  0  0
  188.9720  174.1430  141.9310 C   0  0  0  0  0  0  0  0  0  0  0  0
  186.3020  177.1280  142.2280 C   0  0  0  0  0  3  0  0  0  0  0  0
  188.4980  175.3780  141.9960 C   0  0  0  0  0  0  0  0  0  0  0  0
  187.9560  176.0170  140.8420 N   0  0  0  0  0  0  0  0  0  0  0  0
  189.3210  172.8900  141.1760 O   0  0  0  0  0  0  0  0  0  0  0  0
  186.8120  176.7910  143.4180 C   0  0  0  0  0  0  0  0  0  0  0  0
  189.5240  173.0300  142.5180 C   0  0  2  0  0  0  0  0  0  0  0  0
  190.9820  173.1620  142.9510 C   0  0  1  0  0  3  0  0  0  0  0  0
  191.8720  172.4670  141.9360 C   0  0  1  0  0  3  0  0  0  0  0  0
  191.7860  174.0030  141.9690 C   0  0  2  0  0  3  0  0  0  0  0  0
  192.9790  174.7780  142.5820 C   0  0  1  0  0  3  0  0  0  0  0  0
  193.7800  175.6570  141.6270 C   0  0  0  0  0  1  0  0  0  0  0  0
  192.5900  175.5280  143.7690 N   0  0  0  0  0  2  0  0  0  0  0  0
  193.8980  175.3990  144.9510 S   0  0  0  0  0  0  0  0  0  0  0  0
  192.7490  175.0650  146.3190 C   0  0  0  0  0  2  0  0  0  0  0  0
  192.3460  176.3660  146.9850 C   0  0  0  0  0  2  0  0  0  0  0  0
  190.8320  176.4510  147.0680 C   0  0  0  0  0  2  0  0  0  0  0  0
  188.9470  174.8880  147.2620 C   0  0  0  0  0  2  0  0  0  0  0  0
  190.2280  175.0890  146.9510 C   0  0  0  0  0  3  0  0  0  0  0  0
  193.2620  171.6850  142.8210 S   0  0  0  0  0  0  0  0  0  0  0  0
  192.2180  171.3010  144.2530 C   0  0  0  0  0  1  0  0  0  0  0  0
  185.9630  176.9140  144.5380 O   0  0  0  0  0  0  0  0  0  0  0  0
  184.3550  178.6060  145.3270 C   0  0  0  0  0  2  0  0  0  0  0  0
  185.7450  178.0170  145.4370 C   0  0  1  0  0  3  0  0  0  0  0  0
  184.7220  177.7270  146.5160 C   0  0  1  0  0  3  0  0  0  0  0  0
  184.9790  178.5310  147.6260 O   0  0  0  0  0  0  0  0  0  0  0  0
  187.0210  179.4160  148.4640 C   0  0  0  0  0  1  0  0  0  0  0  0
  186.2690  178.1750  148.0310 C   0  0  0  0  0  2  0  0  0  0  0  0
  1  6  1  0  0  0  0
  2  1  1  0  0  0  0
  5  7  2  0  0  0  0
  5 11  1  0  0  0  0
  6 10  2  0  0  0  0
  7  4  1  0  0  0  0
  8  1  2  0  0  0  0
  8  7  1  0  0  0  0
  9  5  1  0  0  0  0
  9 11  1  0  0  0  0
 10  4  1  0  0  0  0
 10 26  1  0  0  0  0
 11  3  1  1  0  0  0
 12 11  1  6  0  0  0
 13 14  1  0  0  0  0
 13 24  1  1  0  0  0
 13 12  1  0  0  0  0
 14 15  1  1  0  0  0
 14 12  1  0  0  0  0
 15 16  1  6  0  0  0
 15 17  1  0  0  0  0
 17 18  1  0  0  0  0
 18 19  1  0  0  0  0
 19 20  1  0  0  0  0
 20 21  1  0  0  0  0
 23 21  1  0  0  0  0
 23 22  2  0  0  0  0
 24 25  1  0  0  0  0
 27 28  1  0  0  0  0
 27 29  1  0  0  0  0
 28 26  1  6  0  0  0
 28 29  1  0  0  0  0
 29 30  1  1  0  0  0
 30 32  1  0  0  0  0
 32 31  1  0  0  0  0
M  END
>  <MODEL>
8

>  <REMARK>
 VINA RESULT:      -5.3      1.474      1.983
  Name = 
  13 active torsions:
  status: ('A' for Active; 'I' for Inactive)
    1  A    between atoms: C_1  and  N_4
    2  A    between atoms: C_1  and  C_30
    3  A    between atoms: C_2  and  C_27
    4  A    between atoms: N_4  and  S_17
    5  A    between atoms: C_5  and  S_14
    6  A    between atoms: C_6  and  S_17
    7  A    between atoms: C_6  and  C_29
    8  A    between atoms: O_7  and  C_26
    9  A    between atoms: O_7  and  C_31
   10  A    between atoms: C_12  and  O_28
   11  A    between atoms: C_18  and  C_25
   12  A    between atoms: C_18  and  C_29
   13  A    between atoms: O_28  and  C_32
                            x       y       z     vdW  Elec       q    Type
                         _______ _______ _______ _____ _____    ______ ____

>  <TORSDO>
F 13

$$$$
=
 OpenBabel11052419223D

 32 35  0  0  1  0  0  0  0  0999 V2000
  189.8130  175.2660  146.4070 C   0  0  0  0  0  0  0  0  0  0  0  0
  188.9520  174.7330  147.4050 N   0  0  0  0  0  1  0  0  0  0  0  0
  194.6540  177.4850  145.3880 O   0  0  0  0  0  1  0  0  0  0  0  0
  191.3630  175.8250  143.8050 S   0  0  0  0  0  0  0  0  0  0  0  0
  193.2530  175.6600  145.7370 C   0  0  0  0  0  0  0  0  0  0  0  0
  189.3000  176.3350  145.5190 C   0  0  0  0  0  3  0  0  0  0  0  0
  191.9780  175.4610  145.4410 C   0  0  0  0  0  0  0  0  0  0  0  0
  191.0730  174.9350  146.4090 N   0  0  0  0  0  0  0  0  0  0  0  0
  194.4270  175.5880  146.6740 O   0  0  0  0  0  0  0  0  0  0  0  0
  189.9430  176.7630  144.4280 C   0  0  0  0  0  0  0  0  0  0  0  0
  194.5150  176.0940  145.4100 C   0  0  2  0  0  0  0  0  0  0  0  0
  195.2750  175.2310  144.4070 C   0  0  1  0  0  3  0  0  0  0  0  0
  196.6530  174.9140  144.9600 C   0  0  1  0  0  3  0  0  0  0  0  0
  195.5520  173.8390  144.9600 C   0  0  2  0  0  3  0  0  0  0  0  0
  195.6460  172.7120  143.9020 C   0  0  1  0  0  3  0  0  0  0  0  0
  196.3200  171.4180  144.3480 C   0  0  0  0  0  1  0  0  0  0  0  0
  194.3560  172.4350  143.2840 N   0  0  0  0  0  2  0  0  0  0  0  0
  193.2490  171.8860  144.5490 S   0  0  0  0  0  0  0  0  0  0  0  0
  191.8030  171.9910  143.4520 C   0  0  0  0  0  2  0  0  0  0  0  0
  190.5430  172.1720  144.2740 C   0  0  0  0  0  2  0  0  0  0  0  0
  189.3240  171.9160  143.4060 C   0  0  0  0  0  2  0  0  0  0  0  0
  188.9420  173.1610  141.3220 C   0  0  0  0  0  2  0  0  0  0  0  0
  188.9520  173.1550  142.6560 C   0  0  0  0  0  3  0  0  0  0  0  0
  197.8440  174.8960  143.5790 S   0  0  0  0  0  0  0  0  0  0  0  0
  197.2040  176.4600  142.9230 C   0  0  0  0  0  1  0  0  0  0  0  0
  189.4230  177.9060  143.7840 O   0  0  0  0  0  0  0  0  0  0  0  0
  188.0200  176.7060  142.1520 C   0  0  0  0  0  2  0  0  0  0  0  0
  188.5880  178.0300  142.6170 C   0  0  1  0  0  3  0  0  0  0  0  0
  187.1310  177.7070  142.8790 C   0  0  1  0  0  3  0  0  0  0  0  0
  186.3350  178.3800  141.9520 O   0  0  0  0  0  0  0  0  0  0  0  0
  185.4780  179.4340  143.9030 C   0  0  0  0  0  1  0  0  0  0  0  0
  185.1520  178.6660  142.6390 C   0  0  0  0  0  2  0  0  0  0  0  0
  1  8  2  0  0  0  0
  1  2  1  0  0  0  0
  4 10  1  0  0  0  0
  4  7  1  0  0  0  0
  5  9  1  0  0  0  0
  6  1  1  0  0  0  0
  7  5  2  0  0  0  0
  7  8  1  0  0  0  0
 10  6  2  0  0  0  0
 11  3  1  6  0  0  0
 11  5  1  0  0  0  0
 11  9  1  0  0  0  0
 12 13  1  0  0  0  0
 12 14  1  0  0  0  0
 12 11  1  1  0  0  0
 13 24  1  6  0  0  0
 13 14  1  0  0  0  0
 14 15  1  6  0  0  0
 15 16  1  1  0  0  0
 17 15  1  0  0  0  0
 17 18  1  0  0  0  0
 19 20  1  0  0  0  0
 19 18  1  0  0  0  0
 21 20  1  0  0  0  0
 22 23  2  0  0  0  0
 23 21  1  0  0  0  0
 25 24  1  0  0  0  0
 26 10  1  0  0  0  0
 27 28  1  0  0  0  0
 27 29  1  0  0  0  0
 28 29  1  0  0  0  0
 28 26  1  1  0  0  0
 29 30  1  6  0  0  0
 30 32  1  0  0  0  0
 32 31  1  0  0  0  0
M  END
>  <MODEL>
9

>  <REMARK>
 VINA RESULT:      -5.3      3.040      4.804
  Name = 
  13 active torsions:
  status: ('A' for Active; 'I' for Inactive)
    1  A    between atoms: C_1  and  N_4
    2  A    between atoms: C_1  and  C_30
    3  A    between atoms: C_2  and  C_27
    4  A    between atoms: N_4  and  S_17
    5  A    between atoms: C_5  and  S_14
    6  A    between atoms: C_6  and  S_17
    7  A    between atoms: C_6  and  C_29
    8  A    between atoms: O_7  and  C_26
    9  A    between atoms: O_7  and  C_31
   10  A    between atoms: C_12  and  O_28
   11  A    between atoms: C_18  and  C_25
   12  A    between atoms: C_18  and  C_29
   13  A    between atoms: O_28  and  C_32
                            x       y       z     vdW  Elec       q    Type
                         _______ _______ _______ _____ _____    ______ ____

>  <TORSDO>
F 13

$$$$
