=
 OpenBabel11052417123D

 30 33  0  0  1  0  0  0  0  0999 V2000
  189.3780  173.3300  143.3540 C   0  0  2  0  0  3  0  0  0  0  0  0
  190.2460  172.0980  143.1140 C   0  0  0  0  0  2  0  0  0  0  0  0
  188.6270  173.6450  142.0700 C   0  0  0  0  0  1  0  0  0  0  0  0
  191.3910  174.3370  144.4230 C   0  0  0  0  0  0  0  0  0  0  0  0
  191.1370  171.8760  144.3210 C   0  0  0  0  0  2  0  0  0  0  0  0
  190.1830  174.5230  143.8350 C   0  0  0  0  0  0  0  0  0  0  0  0
  191.9170  173.0450  144.5560 O   0  0  0  0  0  0  0  0  0  0  0  0
  193.5920  176.3570  146.8620 C   0  0  0  0  0  3  0  0  0  0  0  0
  194.5420  176.7550  146.0100 C   0  0  0  0  0  3  0  0  0  0  0  0
  192.5510  175.3570  146.4440 C   0  0  1  0  0  3  0  0  0  0  0  0
  193.4860  175.6550  144.1100 C   0  0  0  0  0  3  0  0  0  0  0  0
  191.0760  175.5980  147.4120 Cl  0  0  0  0  0  0  0  0  0  0  0  0
  194.5550  176.2880  144.6050 C   0  0  0  0  0  0  0  0  0  0  0  0
  192.2410  175.4680  144.9410 C   0  0  1  0  0  3  0  0  0  0  0  0
  196.9790  174.6520  144.3170 O   0  0  0  0  0  0  0  0  0  0  0  0
  196.8670  175.7240  143.6670 C   0  0  0  0  0  0  0  0  0  0  0  0
  195.6770  176.5180  143.7430 N   0  0  0  0  0  2  0  0  0  0  0  0
  197.9390  176.1520  142.8370 N   0  0  0  0  0  1  0  0  0  0  0  0
  189.5490  175.8830  143.7920 C   0  0  0  0  0  2  0  0  0  0  0  0
  188.5500  176.0340  144.9230 C   0  0  0  0  0  2  0  0  0  0  0  0
  188.5890  177.3420  145.4050 O   0  0  0  0  0  0  0  0  0  0  0  0
  187.7360  177.3400  146.5090 C   0  0  2  0  0  3  0  0  0  0  0  0
  187.6730  176.0560  147.0500 O   0  0  0  0  0  1  0  0  0  0  0  0
  184.2020  178.3990  146.2600 C   0  0  0  0  0  2  0  0  0  0  0  0
  186.3690  177.7840  146.1060 C   0  0  0  0  0  0  0  0  0  0  0  0
  184.6910  178.4850  144.8330 C   0  0  2  0  0  0  0  0  0  0  0  0
  186.0390  178.0880  144.7960 O   0  0  0  0  0  0  0  0  0  0  0  0
  185.4010  177.9400  146.9540 N   0  0  0  0  0  0  0  0  0  0  0  0
  184.5640  179.8020  144.3550 O   0  0  0  0  0  0  0  0  0  0  0  0
  183.9230  178.7930  143.6120 C   0  0  0  0  0  2  0  0  0  0  0  0
  1  3  1  6  0  0  0
  1  6  1  0  0  0  0
  2  1  1  0  0  0  0
  2  5  1  0  0  0  0
  4  7  1  0  0  0  0
  5  7  1  0  0  0  0
  6  4  2  0  0  0  0
  9  8  2  0  0  0  0
 10  8  1  0  0  0  0
 10 12  1  1  0  0  0
 11 13  2  0  0  0  0
 11 14  1  0  0  0  0
 13  9  1  0  0  0  0
 14  4  1  6  0  0  0
 14 10  1  0  0  0  0
 16 17  1  0  0  0  0
 16 15  2  0  0  0  0
 17 13  1  0  0  0  0
 18 16  1  0  0  0  0
 19  6  1  0  0  0  0
 19 20  1  0  0  0  0
 20 21  1  0  0  0  0
 21 22  1  0  0  0  0
 22 23  1  6  0  0  0
 24 28  1  0  0  0  0
 25 22  1  0  0  0  0
 25 28  2  0  0  0  0
 26 30  1  6  0  0  0
 26 24  1  0  0  0  0
 27 26  1  0  0  0  0
 27 25  1  0  0  0  0
 29 26  1  0  0  0  0
 30 29  1  0  0  0  0
M  END
>  <MODEL>
1

>  <REMARK>
 VINA RESULT:      -7.0      0.000      0.000
  Name = 
  7 active torsions:
  status: ('A' for Active; 'I' for Inactive)
    1  A    between atoms: C_1  and  O_4
    2  A    between atoms: C_1  and  C_5
    3  A    between atoms: O_4  and  C_27
    4  A    between atoms: C_5  and  C_22
    5  A    between atoms: C_8  and  C_27
    6  A    between atoms: N_16  and  C_25
    7  A    between atoms: C_19  and  C_29
                            x       y       z     vdW  Elec       q    Type
                         _______ _______ _______ _____ _____    ______ ____

>  <TORSDO>
F 7

$$$$
=
 OpenBabel11052417123D

 30 33  0  0  1  0  0  0  0  0999 V2000
  191.4850  176.3720  146.8800 C   0  0  2  0  0  3  0  0  0  0  0  0
  192.8920  176.2040  146.3130 C   0  0  0  0  0  2  0  0  0  0  0  0
  191.4620  175.7920  148.2850 C   0  0  0  0  0  1  0  0  0  0  0  0
  190.6750  175.5130  144.6850 C   0  0  0  0  0  0  0  0  0  0  0  0
  192.8890  176.6100  144.8510 C   0  0  0  0  0  2  0  0  0  0  0  0
  190.4240  175.7380  145.9990 C   0  0  0  0  0  0  0  0  0  0  0  0
  191.9280  175.8300  144.1440 O   0  0  0  0  0  0  0  0  0  0  0  0
  188.7140  174.9020  141.4220 C   0  0  0  0  0  3  0  0  0  0  0  0
  188.7080  173.5650  141.4250 C   0  0  0  0  0  3  0  0  0  0  0  0
  189.5330  175.6730  142.4180 C   0  0  1  0  0  3  0  0  0  0  0  0
  189.9240  173.4320  143.5310 C   0  0  0  0  0  3  0  0  0  0  0  0
  188.7920  177.2690  142.6870 Cl  0  0  0  0  0  0  0  0  0  0  0  0
  189.4450  172.7990  142.4550 C   0  0  0  0  0  0  0  0  0  0  0  0
  189.6690  174.9030  143.7440 C   0  0  1  0  0  3  0  0  0  0  0  0
  191.7510  171.3710  141.3250 O   0  0  0  0  0  0  0  0  0  0  0  0
  190.7570  170.7220  141.7430 C   0  0  0  0  0  0  0  0  0  0  0  0
  189.6390  171.3830  142.3480 N   0  0  0  0  0  2  0  0  0  0  0  0
  190.7450  169.3060  141.6170 N   0  0  0  0  0  1  0  0  0  0  0  0
  189.0520  175.5180  146.5700 C   0  0  0  0  0  2  0  0  0  0  0  0
  188.3260  176.8410  146.7170 C   0  0  0  0  0  2  0  0  0  0  0  0
  186.9520  176.6110  146.7730 O   0  0  0  0  0  0  0  0  0  0  0  0
  186.3830  177.8800  146.8790 C   0  0  2  0  0  3  0  0  0  0  0  0
  185.5710  177.9360  148.0130 O   0  0  0  0  0  1  0  0  0  0  0  0
  183.9910  179.1040  144.3390 C   0  0  0  0  0  2  0  0  0  0  0  0
  185.5720  178.1860  145.6640 C   0  0  0  0  0  0  0  0  0  0  0  0
  184.8970  178.1870  143.5500 C   0  0  2  0  0  0  0  0  0  0  0  0
  185.8540  177.6420  144.4230 O   0  0  0  0  0  0  0  0  0  0  0  0
  184.5620  178.9990  145.6780 N   0  0  0  0  0  0  0  0  0  0  0  0
  185.5360  178.9020  142.5210 O   0  0  0  0  0  0  0  0  0  0  0  0
  184.7870  177.7740  142.1370 C   0  0  0  0  0  2  0  0  0  0  0  0
  1  3  1  1  0  0  0
  2  1  1  0  0  0  0
  4  6  2  0  0  0  0
  5  2  1  0  0  0  0
  6 19  1  0  0  0  0
  6  1  1  0  0  0  0
  7  4  1  0  0  0  0
  7  5  1  0  0  0  0
  8  9  2  0  0  0  0
  8 10  1  0  0  0  0
  9 13  1  0  0  0  0
 10 12  1  1  0  0  0
 10 14  1  0  0  0  0
 11 14  1  0  0  0  0
 13 11  2  0  0  0  0
 14  4  1  6  0  0  0
 15 16  2  0  0  0  0
 16 17  1  0  0  0  0
 17 13  1  0  0  0  0
 18 16  1  0  0  0  0
 19 20  1  0  0  0  0
 20 21  1  0  0  0  0
 21 22  1  0  0  0  0
 22 23  1  1  0  0  0
 24 28  1  0  0  0  0
 25 28  2  0  0  0  0
 25 22  1  0  0  0  0
 26 30  1  6  0  0  0
 26 24  1  0  0  0  0
 26 27  1  0  0  0  0
 27 25  1  0  0  0  0
 29 26  1  0  0  0  0
 30 29  1  0  0  0  0
M  END
>  <MODEL>
2

>  <REMARK>
 VINA RESULT:      -6.9      3.081      4.917
  Name = 
  7 active torsions:
  status: ('A' for Active; 'I' for Inactive)
    1  A    between atoms: C_1  and  O_4
    2  A    between atoms: C_1  and  C_5
    3  A    between atoms: O_4  and  C_27
    4  A    between atoms: C_5  and  C_22
    5  A    between atoms: C_8  and  C_27
    6  A    between atoms: N_16  and  C_25
    7  A    between atoms: C_19  and  C_29
                            x       y       z     vdW  Elec       q    Type
                         _______ _______ _______ _____ _____    ______ ____

>  <TORSDO>
F 7

$$$$
=
 OpenBabel11052417123D

 30 33  0  0  1  0  0  0  0  0999 V2000
  190.5190  175.8570  146.0300 C   0  0  2  0  0  3  0  0  0  0  0  0
  190.3710  175.2840  147.4370 C   0  0  0  0  0  2  0  0  0  0  0  0
  191.7400  176.7610  146.0060 C   0  0  0  0  0  1  0  0  0  0  0  0
  188.0740  176.3250  146.1410 C   0  0  0  0  0  0  0  0  0  0  0  0
  189.0590  174.5270  147.5290 C   0  0  0  0  0  2  0  0  0  0  0  0
  189.2740  176.5910  145.5670 C   0  0  0  0  0  0  0  0  0  0  0  0
  187.9850  175.3970  147.1870 O   0  0  0  0  0  0  0  0  0  0  0  0
  185.5390  179.1680  145.5380 C   0  0  0  0  0  3  0  0  0  0  0  0
  185.1060  178.8130  144.3240 C   0  0  0  0  0  3  0  0  0  0  0  0
  186.7070  178.4690  146.1760 C   0  0  1  0  0  3  0  0  0  0  0  0
  186.5260  176.8350  144.2510 C   0  0  0  0  0  3  0  0  0  0  0  0
  186.5680  178.5800  147.9480 Cl  0  0  0  0  0  0  0  0  0  0  0  0
  185.7080  177.6700  143.6010 C   0  0  0  0  0  0  0  0  0  0  0  0
  186.7920  177.0000  145.7260 C   0  0  1  0  0  3  0  0  0  0  0  0
  187.4520  178.1110  141.2770 O   0  0  0  0  0  0  0  0  0  0  0  0
  186.2780  177.6890  141.1070 C   0  0  0  0  0  0  0  0  0  0  0  0
  185.4200  177.4130  142.2210 N   0  0  0  0  0  2  0  0  0  0  0  0
  185.7960  177.4780  139.7870 N   0  0  0  0  0  1  0  0  0  0  0  0
  189.3720  177.4890  144.3670 C   0  0  0  0  0  2  0  0  0  0  0  0
  190.0920  176.7790  143.2380 C   0  0  0  0  0  2  0  0  0  0  0  0
  189.3010  175.7300  142.7700 O   0  0  0  0  0  0  0  0  0  0  0  0
  190.1970  174.6880  142.5320 C   0  0  2  0  0  3  0  0  0  0  0  0
  191.5040  175.1450  142.6990 O   0  0  0  0  0  1  0  0  0  0  0  0
  190.4210  173.0250  139.2370 C   0  0  0  0  0  2  0  0  0  0  0  0
  190.0210  174.1620  141.1460 C   0  0  0  0  0  0  0  0  0  0  0  0
  189.1020  173.7600  139.1660 C   0  0  2  0  0  0  0  0  0  0  0  0
  188.9090  174.4520  140.3740 O   0  0  0  0  0  0  0  0  0  0  0  0
  190.8830  173.3800  140.5750 N   0  0  0  0  0  0  0  0  0  0  0  0
  188.0500  172.8510  138.9580 O   0  0  0  0  0  0  0  0  0  0  0  0
  188.1820  173.8930  138.0200 C   0  0  0  0  0  2  0  0  0  0  0  0
  1  3  1  1  0  0  0
  1  2  1  0  0  0  0
  2  5  1  0  0  0  0
  4  7  1  0  0  0  0
  6  1  1  0  0  0  0
  6  4  2  0  0  0  0
  7  5  1  0  0  0  0
  8 10  1  0  0  0  0
  9  8  2  0  0  0  0
 10 12  1  1  0  0  0
 11 14  1  0  0  0  0
 13 11  2  0  0  0  0
 13  9  1  0  0  0  0
 14  4  1  6  0  0  0
 14 10  1  0  0  0  0
 16 15  2  0  0  0  0
 16 17  1  0  0  0  0
 17 13  1  0  0  0  0
 18 16  1  0  0  0  0
 19  6  1  0  0  0  0
 20 19  1  0  0  0  0
 21 20  1  0  0  0  0
 22 23  1  6  0  0  0
 22 21  1  0  0  0  0
 24 28  1  0  0  0  0
 25 22  1  0  0  0  0
 26 30  1  6  0  0  0
 26 24  1  0  0  0  0
 26 27  1  0  0  0  0
 27 25  1  0  0  0  0
 28 25  2  0  0  0  0
 29 26  1  0  0  0  0
 30 29  1  0  0  0  0
M  END
>  <MODEL>
3

>  <REMARK>
 VINA RESULT:      -6.7      3.427      7.490
  Name = 
  7 active torsions:
  status: ('A' for Active; 'I' for Inactive)
    1  A    between atoms: C_1  and  O_4
    2  A    between atoms: C_1  and  C_5
    3  A    between atoms: O_4  and  C_27
    4  A    between atoms: C_5  and  C_22
    5  A    between atoms: C_8  and  C_27
    6  A    between atoms: N_16  and  C_25
    7  A    between atoms: C_19  and  C_29
                            x       y       z     vdW  Elec       q    Type
                         _______ _______ _______ _____ _____    ______ ____

>  <TORSDO>
F 7

$$$$
=
 OpenBabel11052417123D

 30 33  0  0  1  0  0  0  0  0999 V2000
  194.4810  175.6460  144.9280 C   0  0  2  0  0  3  0  0  0  0  0  0
  195.0600  174.9340  143.7090 C   0  0  0  0  0  2  0  0  0  0  0  0
  194.8030  174.8220  146.1640 C   0  0  0  0  0  1  0  0  0  0  0  0
  192.4060  175.9200  143.5760 C   0  0  0  0  0  0  0  0  0  0  0  0
  194.5940  175.6430  142.4520 C   0  0  0  0  0  2  0  0  0  0  0  0
  192.9900  175.8970  144.8000 C   0  0  0  0  0  0  0  0  0  0  0  0
  193.1700  175.6770  142.4270 O   0  0  0  0  0  0  0  0  0  0  0  0
  189.2030  177.6810  142.3450 C   0  0  0  0  0  3  0  0  0  0  0  0
  188.5180  176.6110  141.9310 C   0  0  0  0  0  3  0  0  0  0  0  0
  190.6420  177.5630  142.7630 C   0  0  1  0  0  3  0  0  0  0  0  0
  190.2790  175.0630  142.5920 C   0  0  0  0  0  3  0  0  0  0  0  0
  191.0290  178.8530  143.9270 Cl  0  0  0  0  0  0  0  0  0  0  0  0
  189.1260  175.2610  141.9440 C   0  0  0  0  0  0  0  0  0  0  0  0
  190.9350  176.1780  143.3660 C   0  0  1  0  0  3  0  0  0  0  0  0
  189.9250  173.9320  139.4470 O   0  0  0  0  0  0  0  0  0  0  0  0
  188.8880  173.5540  140.0530 C   0  0  0  0  0  0  0  0  0  0  0  0
  188.5000  174.1440  141.3000 N   0  0  0  0  0  2  0  0  0  0  0  0
  188.0910  172.5190  139.4930 N   0  0  0  0  0  1  0  0  0  0  0  0
  192.2150  176.2730  146.0300 C   0  0  0  0  0  2  0  0  0  0  0  0
  191.4070  175.0890  146.5250 C   0  0  0  0  0  2  0  0  0  0  0  0
  190.4500  175.5300  147.4390 O   0  0  0  0  0  0  0  0  0  0  0  0
  189.2600  174.9310  147.0250 C   0  0  2  0  0  3  0  0  0  0  0  0
  189.5090  174.1010  145.9320 O   0  0  0  0  0  1  0  0  0  0  0  0
  187.2290  177.6040  145.4750 C   0  0  0  0  0  2  0  0  0  0  0  0
  188.2610  175.9740  146.6480 C   0  0  0  0  0  0  0  0  0  0  0  0
  186.4430  177.2450  146.7150 C   0  0  2  0  0  0  0  0  0  0  0  0
  187.1320  176.2340  147.4060 O   0  0  0  0  0  0  0  0  0  0  0  0
  188.3650  176.6930  145.5750 N   0  0  0  0  0  0  0  0  0  0  0  0
  185.1570  176.7980  146.3630 O   0  0  0  0  0  0  0  0  0  0  0  0
  185.2270  177.8850  147.2530 C   0  0  0  0  0  2  0  0  0  0  0  0
  1  3  1  1  0  0  0
  2  1  1  0  0  0  0
  4  6  2  0  0  0  0
  5  2  1  0  0  0  0
  6  1  1  0  0  0  0
  6 19  1  0  0  0  0
  7  5  1  0  0  0  0
  7  4  1  0  0  0  0
  8 10  1  0  0  0  0
  9 13  1  0  0  0  0
  9  8  2  0  0  0  0
 10 14  1  0  0  0  0
 10 12  1  1  0  0  0
 11 14  1  0  0  0  0
 13 11  2  0  0  0  0
 14  4  1  6  0  0  0
 15 16  2  0  0  0  0
 16 17  1  0  0  0  0
 17 13  1  0  0  0  0
 18 16  1  0  0  0  0
 19 20  1  0  0  0  0
 20 21  1  0  0  0  0
 22 23  1  6  0  0  0
 22 21  1  0  0  0  0
 24 28  1  0  0  0  0
 25 22  1  0  0  0  0
 25 27  1  0  0  0  0
 26 24  1  6  0  0  0
 26 30  1  0  0  0  0
 26 27  1  0  0  0  0
 28 25  2  0  0  0  0
 29 26  1  0  0  0  0
 29 30  1  0  0  0  0
M  END
>  <MODEL>
4

>  <REMARK>
 VINA RESULT:      -6.6      3.275      5.304
  Name = 
  7 active torsions:
  status: ('A' for Active; 'I' for Inactive)
    1  A    between atoms: C_1  and  O_4
    2  A    between atoms: C_1  and  C_5
    3  A    between atoms: O_4  and  C_27
    4  A    between atoms: C_5  and  C_22
    5  A    between atoms: C_8  and  C_27
    6  A    between atoms: N_16  and  C_25
    7  A    between atoms: C_19  and  C_29
                            x       y       z     vdW  Elec       q    Type
                         _______ _______ _______ _____ _____    ______ ____

>  <TORSDO>
F 7

$$$$
=
 OpenBabel11052417123D

 30 33  0  0  1  0  0  0  0  0999 V2000
  189.0250  173.1870  141.1070 C   0  0  2  0  0  3  0  0  0  0  0  0
  189.8730  171.9220  141.0080 C   0  0  0  0  0  2  0  0  0  0  0  0
  188.8030  173.7270  139.7040 C   0  0  0  0  0  1  0  0  0  0  0  0
  190.5490  173.8670  142.9570 C   0  0  0  0  0  0  0  0  0  0  0  0
  190.2580  171.4710  142.4050 C   0  0  0  0  0  2  0  0  0  0  0  0
  189.6450  174.2330  142.0140 C   0  0  0  0  0  0  0  0  0  0  0  0
  190.9430  172.5270  143.0720 O   0  0  0  0  0  0  0  0  0  0  0  0
  192.1700  175.2040  146.1910 C   0  0  0  0  0  3  0  0  0  0  0  0
  193.1800  175.8950  145.6530 C   0  0  0  0  0  3  0  0  0  0  0  0
  191.3070  174.3120  145.3440 C   0  0  1  0  0  3  0  0  0  0  0  0
  192.5170  175.3440  143.3740 C   0  0  0  0  0  3  0  0  0  0  0  0
  189.6960  174.1650  146.0880 Cl  0  0  0  0  0  0  0  0  0  0  0  0
  193.4350  175.8660  144.1940 C   0  0  0  0  0  0  0  0  0  0  0  0
  191.1970  174.8440  143.9040 C   0  0  1  0  0  3  0  0  0  0  0  0
  196.2010  174.9640  144.6100 O   0  0  0  0  0  0  0  0  0  0  0  0
  195.9730  175.9740  143.8930 C   0  0  0  0  0  0  0  0  0  0  0  0
  194.6340  176.4080  143.6270 N   0  0  0  0  0  2  0  0  0  0  0  0
  197.0650  176.6920  143.3340 N   0  0  0  0  0  1  0  0  0  0  0  0
  189.1210  175.6390  141.9540 C   0  0  0  0  0  2  0  0  0  0  0  0
  187.7740  175.7280  142.6430 C   0  0  0  0  0  2  0  0  0  0  0  0
  187.9630  176.0160  143.9950 O   0  0  0  0  0  0  0  0  0  0  0  0
  188.1680  177.3950  144.0400 C   0  0  2  0  0  3  0  0  0  0  0  0
  189.3350  177.6720  144.7520 O   0  0  0  0  0  1  0  0  0  0  0  0
  185.2140  179.4100  144.9840 C   0  0  0  0  0  2  0  0  0  0  0  0
  187.0080  178.0690  144.6940 C   0  0  0  0  0  0  0  0  0  0  0  0
  185.4840  178.5870  146.2230 C   0  0  2  0  0  0  0  0  0  0  0  0
  186.6090  177.7790  145.9880 O   0  0  0  0  0  0  0  0  0  0  0  0
  186.2770  178.9540  144.0930 N   0  0  0  0  0  0  0  0  0  0  0  0
  184.3690  177.7850  146.5250 O   0  0  0  0  0  0  0  0  0  0  0  0
  184.8170  178.6550  147.5370 C   0  0  0  0  0  2  0  0  0  0  0  0
  1  3  1  6  0  0  0
  1  6  1  0  0  0  0
  2  1  1  0  0  0  0
  2  5  1  0  0  0  0
  4  7  1  0  0  0  0
  5  7  1  0  0  0  0
  6  4  2  0  0  0  0
  9  8  2  0  0  0  0
 10 12  1  1  0  0  0
 10  8  1  0  0  0  0
 11 14  1  0  0  0  0
 11 13  2  0  0  0  0
 13  9  1  0  0  0  0
 14  4  1  6  0  0  0
 14 10  1  0  0  0  0
 16 15  2  0  0  0  0
 17 16  1  0  0  0  0
 17 13  1  0  0  0  0
 18 16  1  0  0  0  0
 19  6  1  0  0  0  0
 19 20  1  0  0  0  0
 20 21  1  0  0  0  0
 21 22  1  0  0  0  0
 22 25  1  0  0  0  0
 22 23  1  1  0  0  0
 25 27  1  0  0  0  0
 26 24  1  6  0  0  0
 26 29  1  0  0  0  0
 26 30  1  0  0  0  0
 27 26  1  0  0  0  0
 28 25  2  0  0  0  0
 28 24  1  0  0  0  0
 29 30  1  0  0  0  0
M  END
>  <MODEL>
5

>  <REMARK>
 VINA RESULT:      -6.6      1.607      2.100
  Name = 
  7 active torsions:
  status: ('A' for Active; 'I' for Inactive)
    1  A    between atoms: C_1  and  O_4
    2  A    between atoms: C_1  and  C_5
    3  A    between atoms: O_4  and  C_27
    4  A    between atoms: C_5  and  C_22
    5  A    between atoms: C_8  and  C_27
    6  A    between atoms: N_16  and  C_25
    7  A    between atoms: C_19  and  C_29
                            x       y       z     vdW  Elec       q    Type
                         _______ _______ _______ _____ _____    ______ ____

>  <TORSDO>
F 7

$$$$
=
 OpenBabel11052417123D

 30 33  0  0  1  0  0  0  0  0999 V2000
  190.6120  175.8520  146.2460 C   0  0  2  0  0  3  0  0  0  0  0  0
  190.3390  175.3100  147.6460 C   0  0  0  0  0  2  0  0  0  0  0  0
  191.8220  176.7690  146.3140 C   0  0  0  0  0  1  0  0  0  0  0  0
  188.1630  176.2950  146.1180 C   0  0  0  0  0  0  0  0  0  0  0  0
  189.0310  174.5400  147.6340 C   0  0  0  0  0  2  0  0  0  0  0  0
  189.4090  176.5620  145.6530 C   0  0  0  0  0  0  0  0  0  0  0  0
  187.9850  175.3910  147.1740 O   0  0  0  0  0  0  0  0  0  0  0  0
  185.6900  179.1000  145.1770 C   0  0  0  0  0  3  0  0  0  0  0  0
  185.3530  178.6840  143.9520 C   0  0  0  0  0  3  0  0  0  0  0  0
  186.8020  178.4360  145.9400 C   0  0  1  0  0  3  0  0  0  0  0  0
  186.7700  176.7080  144.0900 C   0  0  0  0  0  3  0  0  0  0  0  0
  186.5240  178.6350  147.6870 Cl  0  0  0  0  0  0  0  0  0  0  0  0
  186.0090  177.5080  143.3360 C   0  0  0  0  0  0  0  0  0  0  0  0
  186.9190  176.9470  145.5710 C   0  0  1  0  0  3  0  0  0  0  0  0
  187.8220  178.0780  141.0950 O   0  0  0  0  0  0  0  0  0  0  0  0
  186.7130  177.5220  140.8770 C   0  0  0  0  0  0  0  0  0  0  0  0
  185.8290  177.1830  141.9520 N   0  0  0  0  0  2  0  0  0  0  0  0
  186.3350  177.2220  139.5410 N   0  0  0  0  0  1  0  0  0  0  0  0
  189.6100  177.4330  144.4470 C   0  0  0  0  0  2  0  0  0  0  0  0
  190.0780  176.6010  143.2690 C   0  0  0  0  0  2  0  0  0  0  0  0
  191.3830  176.9610  142.9360 O   0  0  0  0  0  0  0  0  0  0  0  0
  191.9940  175.7680  142.5480 C   0  0  2  0  0  3  0  0  0  0  0  0
  191.2330  174.6860  142.9930 O   0  0  0  0  0  1  0  0  0  0  0  0
  195.5790  176.0560  143.4060 C   0  0  0  0  0  2  0  0  0  0  0  0
  193.3710  175.6830  143.1170 C   0  0  0  0  0  0  0  0  0  0  0  0
  195.0410  175.1240  144.4670 C   0  0  2  0  0  0  0  0  0  0  0  0
  193.6700  174.9240  144.2360 O   0  0  0  0  0  0  0  0  0  0  0  0
  194.3790  176.3290  142.6210 N   0  0  0  0  0  0  0  0  0  0  0  0
  195.2380  175.6780  145.7450 O   0  0  0  0  0  0  0  0  0  0  0  0
  195.7820  174.3990  145.5180 C   0  0  0  0  0  2  0  0  0  0  0  0
  1  3  1  1  0  0  0
  1  2  1  0  0  0  0
  4  7  1  0  0  0  0
  5  2  1  0  0  0  0
  6  4  2  0  0  0  0
  6  1  1  0  0  0  0
  7  5  1  0  0  0  0
  8 10  1  0  0  0  0
  9  8  2  0  0  0  0
 10 12  1  1  0  0  0
 11 14  1  0  0  0  0
 13  9  1  0  0  0  0
 13 11  2  0  0  0  0
 14 10  1  0  0  0  0
 14  4  1  6  0  0  0
 16 15  2  0  0  0  0
 16 17  1  0  0  0  0
 17 13  1  0  0  0  0
 18 16  1  0  0  0  0
 19  6  1  0  0  0  0
 20 19  1  0  0  0  0
 21 20  1  0  0  0  0
 22 21  1  0  0  0  0
 22 23  1  1  0  0  0
 22 25  1  0  0  0  0
 25 27  1  0  0  0  0
 26 24  1  6  0  0  0
 26 30  1  0  0  0  0
 26 29  1  0  0  0  0
 27 26  1  0  0  0  0
 28 25  2  0  0  0  0
 28 24  1  0  0  0  0
 30 29  1  0  0  0  0
M  END
>  <MODEL>
6

>  <REMARK>
 VINA RESULT:      -6.5      2.831      7.958
  Name = 
  7 active torsions:
  status: ('A' for Active; 'I' for Inactive)
    1  A    between atoms: C_1  and  O_4
    2  A    between atoms: C_1  and  C_5
    3  A    between atoms: O_4  and  C_27
    4  A    between atoms: C_5  and  C_22
    5  A    between atoms: C_8  and  C_27
    6  A    between atoms: N_16  and  C_25
    7  A    between atoms: C_19  and  C_29
                            x       y       z     vdW  Elec       q    Type
                         _______ _______ _______ _____ _____    ______ ____

>  <TORSDO>
F 7

$$$$
=
 OpenBabel11052417123D

 30 33  0  0  1  0  0  0  0  0999 V2000
  190.1720  175.4310  146.7660 C   0  0  2  0  0  3  0  0  0  0  0  0
  191.0980  175.8020  147.9200 C   0  0  0  0  0  2  0  0  0  0  0  0
  189.0210  174.6060  147.3190 C   0  0  0  0  0  1  0  0  0  0  0  0
  192.2410  174.8190  145.5190 C   0  0  0  0  0  0  0  0  0  0  0  0
  192.3430  176.4670  147.3640 C   0  0  0  0  0  2  0  0  0  0  0  0
  190.8960  174.6980  145.6520 C   0  0  0  0  0  0  0  0  0  0  0  0
  192.9710  175.5930  146.4310 O   0  0  0  0  0  0  0  0  0  0  0  0
  194.8550  174.3570  142.7220 C   0  0  0  0  0  3  0  0  0  0  0  0
  195.3210  173.1510  143.0640 C   0  0  0  0  0  3  0  0  0  0  0  0
  193.9120  175.1040  143.6220 C   0  0  1  0  0  3  0  0  0  0  0  0
  193.8050  172.9570  144.9600 C   0  0  0  0  0  3  0  0  0  0  0  0
  192.9110  176.2070  142.6470 Cl  0  0  0  0  0  0  0  0  0  0  0  0
  194.8630  172.4770  144.2990 C   0  0  0  0  0  0  0  0  0  0  0  0
  193.0290  174.1360  144.4310 C   0  0  1  0  0  3  0  0  0  0  0  0
  197.0250  172.3040  146.2830 O   0  0  0  0  0  0  0  0  0  0  0  0
  196.5970  171.2560  145.7310 C   0  0  0  0  0  0  0  0  0  0  0  0
  195.5090  171.2990  144.8000 N   0  0  0  0  0  2  0  0  0  0  0  0
  197.2010  170.0080  146.0420 N   0  0  0  0  0  1  0  0  0  0  0  0
  190.0820  173.9740  144.6170 C   0  0  0  0  0  2  0  0  0  0  0  0
  189.7030  174.9180  143.4930 C   0  0  0  0  0  2  0  0  0  0  0  0
  188.3220  175.1110  143.4970 O   0  0  0  0  0  0  0  0  0  0  0  0
  188.1480  176.4480  143.1380 C   0  0  2  0  0  3  0  0  0  0  0  0
  189.3940  177.0660  143.0160 O   0  0  0  0  0  1  0  0  0  0  0  0
  186.0350  178.7300  145.1370 C   0  0  0  0  0  2  0  0  0  0  0  0
  187.3330  177.1580  144.1660 C   0  0  0  0  0  0  0  0  0  0  0  0
  186.2740  177.5680  146.0730 C   0  0  2  0  0  0  0  0  0  0  0  0
  187.0880  176.6260  145.4210 O   0  0  0  0  0  0  0  0  0  0  0  0
  186.7770  178.3090  143.9520 N   0  0  0  0  0  0  0  0  0  0  0  0
  185.0500  176.9770  146.4350 O   0  0  0  0  0  0  0  0  0  0  0  0
  185.8730  177.4250  147.4860 C   0  0  0  0  0  2  0  0  0  0  0  0
  1  3  1  1  0  0  0
  1  2  1  0  0  0  0
  4  6  2  0  0  0  0
  4  7  1  0  0  0  0
  5  2  1  0  0  0  0
  6  1  1  0  0  0  0
  7  5  1  0  0  0  0
  8  9  2  0  0  0  0
  8 10  1  0  0  0  0
  9 13  1  0  0  0  0
 10 12  1  6  0  0  0
 10 14  1  0  0  0  0
 13 17  1  0  0  0  0
 13 11  2  0  0  0  0
 14 11  1  0  0  0  0
 14  4  1  1  0  0  0
 16 18  1  0  0  0  0
 16 15  2  0  0  0  0
 17 16  1  0  0  0  0
 19  6  1  0  0  0  0
 20 21  1  0  0  0  0
 20 19  1  0  0  0  0
 22 23  1  1  0  0  0
 22 21  1  0  0  0  0
 22 25  1  0  0  0  0
 25 27  1  0  0  0  0
 26 24  1  6  0  0  0
 26 29  1  0  0  0  0
 26 30  1  0  0  0  0
 27 26  1  0  0  0  0
 28 25  2  0  0  0  0
 28 24  1  0  0  0  0
 29 30  1  0  0  0  0
M  END
>  <MODEL>
7

>  <REMARK>
 VINA RESULT:      -6.4      2.914      3.926
  Name = 
  7 active torsions:
  status: ('A' for Active; 'I' for Inactive)
    1  A    between atoms: C_1  and  O_4
    2  A    between atoms: C_1  and  C_5
    3  A    between atoms: O_4  and  C_27
    4  A    between atoms: C_5  and  C_22
    5  A    between atoms: C_8  and  C_27
    6  A    between atoms: N_16  and  C_25
    7  A    between atoms: C_19  and  C_29
                            x       y       z     vdW  Elec       q    Type
                         _______ _______ _______ _____ _____    ______ ____

>  <TORSDO>
F 7

$$$$
=
 OpenBabel11052417123D

 30 33  0  0  1  0  0  0  0  0999 V2000
  188.3780  176.5180  142.6010 C   0  0  2  0  0  3  0  0  0  0  0  0
  188.1450  175.7920  141.2790 C   0  0  0  0  0  2  0  0  0  0  0  0
  188.4100  178.0130  142.3290 C   0  0  0  0  0  1  0  0  0  0  0  0
  190.1710  174.8390  143.0190 C   0  0  0  0  0  0  0  0  0  0  0  0
  188.2910  174.2980  141.5010 C   0  0  0  0  0  2  0  0  0  0  0  0
  189.6390  176.0540  143.3060 C   0  0  0  0  0  0  0  0  0  0  0  0
  189.5790  174.0240  142.0460 O   0  0  0  0  0  0  0  0  0  0  0  0
  192.8390  172.2840  144.1240 C   0  0  0  0  0  3  0  0  0  0  0  0
  193.9370  173.0110  143.8960 C   0  0  0  0  0  3  0  0  0  0  0  0
  191.4880  172.7640  143.6770 C   0  0  1  0  0  3  0  0  0  0  0  0
  192.6610  174.9430  143.1400 C   0  0  0  0  0  3  0  0  0  0  0  0
  190.2320  172.0620  144.7250 Cl  0  0  0  0  0  0  0  0  0  0  0  0
  193.8520  174.3480  143.2670 C   0  0  0  0  0  0  0  0  0  0  0  0
  191.4110  174.3020  143.6860 C   0  0  1  0  0  3  0  0  0  0  0  0
  195.5160  176.2610  144.7540 O   0  0  0  0  0  0  0  0  0  0  0  0
  195.7770  176.0100  143.5480 C   0  0  0  0  0  0  0  0  0  0  0  0
  195.0190  175.0430  142.8100 N   0  0  0  0  0  2  0  0  0  0  0  0
  196.8460  176.6940  142.9090 N   0  0  0  0  0  1  0  0  0  0  0  0
  190.1860  176.8890  144.4270 C   0  0  0  0  0  2  0  0  0  0  0  0
  189.3880  176.6550  145.6950 C   0  0  0  0  0  2  0  0  0  0  0  0
  188.6320  177.7900  145.9830 O   0  0  0  0  0  0  0  0  0  0  0  0
  187.6040  177.3340  146.8090 C   0  0  2  0  0  3  0  0  0  0  0  0
  187.6410  175.9410  146.8760 O   0  0  0  0  0  1  0  0  0  0  0  0
  184.1230  178.4410  146.2350 C   0  0  0  0  0  2  0  0  0  0  0  0
  186.2810  177.7770  146.2800 C   0  0  0  0  0  0  0  0  0  0  0  0
  184.7170  178.4270  144.8450 C   0  0  2  0  0  0  0  0  0  0  0  0
  186.0540  178.0030  144.9330 O   0  0  0  0  0  0  0  0  0  0  0  0
  185.2580  178.0050  147.0430 N   0  0  0  0  0  0  0  0  0  0  0  0
  184.6560  179.7130  144.2780 O   0  0  0  0  0  0  0  0  0  0  0  0
  184.0460  178.6710  143.5540 C   0  0  0  0  0  2  0  0  0  0  0  0
  1  3  1  6  0  0  0
  1  6  1  0  0  0  0
  2  5  1  0  0  0  0
  2  1  1  0  0  0  0
  4  6  2  0  0  0  0
  5  7  1  0  0  0  0
  6 19  1  0  0  0  0
  7  4  1  0  0  0  0
  9  8  2  0  0  0  0
 10 14  1  0  0  0  0
 10  8  1  0  0  0  0
 10 12  1  1  0  0  0
 11 13  2  0  0  0  0
 11 14  1  0  0  0  0
 13  9  1  0  0  0  0
 14  4  1  6  0  0  0
 16 15  2  0  0  0  0
 17 13  1  0  0  0  0
 17 16  1  0  0  0  0
 18 16  1  0  0  0  0
 19 20  1  0  0  0  0
 20 21  1  0  0  0  0
 21 22  1  0  0  0  0
 22 23  1  6  0  0  0
 24 28  1  0  0  0  0
 25 22  1  0  0  0  0
 25 28  2  0  0  0  0
 26 30  1  6  0  0  0
 26 27  1  0  0  0  0
 26 24  1  0  0  0  0
 27 25  1  0  0  0  0
 29 26  1  0  0  0  0
 30 29  1  0  0  0  0
M  END
>  <MODEL>
8

>  <REMARK>
 VINA RESULT:      -6.4      1.799      2.585
  Name = 
  7 active torsions:
  status: ('A' for Active; 'I' for Inactive)
    1  A    between atoms: C_1  and  O_4
    2  A    between atoms: C_1  and  C_5
    3  A    between atoms: O_4  and  C_27
    4  A    between atoms: C_5  and  C_22
    5  A    between atoms: C_8  and  C_27
    6  A    between atoms: N_16  and  C_25
    7  A    between atoms: C_19  and  C_29
                            x       y       z     vdW  Elec       q    Type
                         _______ _______ _______ _____ _____    ______ ____

>  <TORSDO>
F 7

$$$$
=
 OpenBabel11052417123D

 30 33  0  0  1  0  0  0  0  0999 V2000
  191.9750  175.5110  146.5380 C   0  0  2  0  0  3  0  0  0  0  0  0
  190.9080  175.3870  147.6220 C   0  0  0  0  0  2  0  0  0  0  0  0
  193.0960  176.3900  147.0660 C   0  0  0  0  0  1  0  0  0  0  0  0
  190.0910  175.9430  144.9640 C   0  0  0  0  0  0  0  0  0  0  0  0
  189.7010  174.6670  147.0500 C   0  0  0  0  0  2  0  0  0  0  0  0
  191.4170  176.0470  145.2320 C   0  0  0  0  0  0  0  0  0  0  0  0
  189.2250  175.3730  145.9080 O   0  0  0  0  0  0  0  0  0  0  0  0
  188.1550  175.8290  141.6310 C   0  0  0  0  0  3  0  0  0  0  0  0
  187.4100  176.9290  141.7800 C   0  0  0  0  0  3  0  0  0  0  0  0
  188.9860  175.2990  142.7660 C   0  0  1  0  0  3  0  0  0  0  0  0
  188.3850  177.4550  143.9500 C   0  0  0  0  0  3  0  0  0  0  0  0
  190.3700  174.3890  142.1130 Cl  0  0  0  0  0  0  0  0  0  0  0  0
  187.4380  177.7060  143.0400 C   0  0  0  0  0  0  0  0  0  0  0  0
  189.4650  176.4360  143.6850 C   0  0  1  0  0  3  0  0  0  0  0  0
  185.0880  177.6070  144.8020 O   0  0  0  0  0  0  0  0  0  0  0  0
  185.3240  178.6460  144.1320 C   0  0  0  0  0  0  0  0  0  0  0  0
  186.4900  178.7480  143.3050 N   0  0  0  0  0  2  0  0  0  0  0  0
  184.4210  179.7410  144.2030 N   0  0  0  0  0  1  0  0  0  0  0  0
  192.3760  176.5430  144.1890 C   0  0  0  0  0  2  0  0  0  0  0  0
  193.3910  175.4670  143.8550 C   0  0  0  0  0  2  0  0  0  0  0  0
  194.4880  176.0470  143.2180 O   0  0  0  0  0  0  0  0  0  0  0  0
  195.4180  176.2630  144.2350 C   0  0  2  0  0  3  0  0  0  0  0  0
  196.3950  177.1570  143.7940 O   0  0  0  0  0  1  0  0  0  0  0  0
  196.7650  173.2630  145.9240 C   0  0  0  0  0  2  0  0  0  0  0  0
  196.0580  174.9760  144.6340 C   0  0  0  0  0  0  0  0  0  0  0  0
  197.0980  173.0220  144.4690 C   0  0  2  0  0  0  0  0  0  0  0  0
  196.6400  174.1170  143.7170 O   0  0  0  0  0  0  0  0  0  0  0  0
  196.0930  174.5570  145.8600 N   0  0  0  0  0  0  0  0  0  0  0  0
  196.4830  171.8390  144.0200 O   0  0  0  0  0  0  0  0  0  0  0  0
  197.8800  171.9220  143.8720 C   0  0  0  0  0  2  0  0  0  0  0  0
  1  3  1  1  0  0  0
  1  2  1  0  0  0  0
  4  6  2  0  0  0  0
  4  7  1  0  0  0  0
  5  2  1  0  0  0  0
  6  1  1  0  0  0  0
  7  5  1  0  0  0  0
  8  9  2  0  0  0  0
  8 10  1  0  0  0  0
  9 13  1  0  0  0  0
 10 12  1  6  0  0  0
 10 14  1  0  0  0  0
 13 17  1  0  0  0  0
 13 11  2  0  0  0  0
 14 11  1  0  0  0  0
 14  4  1  1  0  0  0
 16 18  1  0  0  0  0
 16 15  2  0  0  0  0
 17 16  1  0  0  0  0
 19  6  1  0  0  0  0
 20 19  1  0  0  0  0
 21 20  1  0  0  0  0
 21 22  1  0  0  0  0
 22 23  1  6  0  0  0
 22 25  1  0  0  0  0
 25 28  2  0  0  0  0
 26 30  1  6  0  0  0
 26 24  1  0  0  0  0
 27 26  1  0  0  0  0
 27 25  1  0  0  0  0
 28 24  1  0  0  0  0
 29 26  1  0  0  0  0
 30 29  1  0  0  0  0
M  END
>  <MODEL>
9

>  <REMARK>
 VINA RESULT:      -6.4      2.444      8.959
  Name = 
  7 active torsions:
  status: ('A' for Active; 'I' for Inactive)
    1  A    between atoms: C_1  and  O_4
    2  A    between atoms: C_1  and  C_5
    3  A    between atoms: O_4  and  C_27
    4  A    between atoms: C_5  and  C_22
    5  A    between atoms: C_8  and  C_27
    6  A    between atoms: N_16  and  C_25
    7  A    between atoms: C_19  and  C_29
                            x       y       z     vdW  Elec       q    Type
                         _______ _______ _______ _____ _____    ______ ____

>  <TORSDO>
F 7

$$$$
