=
 OpenBabel11052418013D

 31 32  0  0  1  0  0  0  0  0999 V2000
  186.6980  177.9310  146.6230 C   0  0  0  0  0  0  0  0  0  0  0  0
  189.0750  177.8310  143.6630 C   0  0  0  0  0  2  0  0  0  0  0  0
  188.3400  177.4370  144.9140 C   0  0  0  0  0  0  0  0  0  0  0  0
  186.9850  176.7160  147.2530 C   0  0  0  0  0  3  0  0  0  0  0  0
  190.4570  175.7770  143.9460 C   0  0  1  0  0  0  0  0  0  0  0  0
  185.6680  178.8380  147.1940 C   0  0  0  0  0  1  0  0  0  0  0  0
  189.6030  175.3610  145.0140 O   0  0  0  0  0  0  0  0  0  0  0  0
  189.6190  176.5900  142.9130 C   0  0  1  0  0  3  0  0  0  0  0  0
  191.4510  176.6040  144.4780 O   0  0  0  0  0  1  0  0  0  0  0  0
  187.3740  178.2920  145.4550 C   0  0  0  0  0  3  0  0  0  0  0  0
  188.6390  176.2200  145.5560 C   0  0  0  0  0  0  0  0  0  0  0  0
  187.9540  175.8600  146.7190 C   0  0  0  0  0  3  0  0  0  0  0  0
  188.5060  175.7920  142.3390 N   0  0  0  0  0  0  0  0  0  0  0  0
  189.0130  174.8370  141.3640 C   0  0  0  0  0  1  0  0  0  0  0  0
  187.4910  176.6200  141.6610 C   0  0  0  0  0  2  0  0  0  0  0  0
  186.1390  176.6690  142.3870 C   0  0  0  0  0  2  0  0  0  0  0  0
  186.1050  179.0390  142.3160 O   0  0  0  0  0  1  0  0  0  0  0  0
  185.3400  177.9110  142.0110 C   0  0  2  0  0  3  0  0  0  0  0  0
  184.0100  177.9640  142.7690 C   0  0  1  0  0  3  0  0  0  0  0  0
  184.0710  179.0020  143.8760 C   0  0  0  0  0  1  0  0  0  0  0  0
  182.9700  178.2970  141.9000 O   0  0  0  0  0  1  0  0  0  0  0  0
  191.1330  174.5420  143.3430 C   0  0  0  0  0  2  0  0  0  0  0  0
  192.5930  174.6420  143.3990 N   0  0  0  0  0  0  0  0  0  0  0  0
  193.1280  174.8770  142.0520 C   0  0  0  0  0  2  0  0  0  0  0  0
  194.1220  176.0370  141.9820 C   0  0  0  0  0  1  0  0  0  0  0  0
  193.1270  173.3810  143.9070 C   0  0  0  0  0  2  0  0  0  0  0  0
  193.5340  173.5270  145.3630 C   0  0  0  0  0  2  0  0  0  0  0  0
  194.2740  174.8360  145.5820 C   0  0  0  0  0  2  0  0  0  0  0  0
  193.5880  175.6540  146.6610 C   0  0  0  0  0  2  0  0  0  0  0  0
  194.8670  177.3640  145.4090 C   0  0  0  0  0  1  0  0  0  0  0  0
  194.1910  177.0450  146.7270 C   0  0  0  0  0  2  0  0  0  0  0  0
  1  6  1  0  0  0  0
  1  4  1  0  0  0  0
  2  3  1  0  0  0  0
  3 10  1  0  0  0  0
  3 11  2  0  0  0  0
  5  9  1  1  0  0  0
  5  7  1  0  0  0  0
  7 11  1  0  0  0  0
  8 13  1  1  0  0  0
  8  2  1  0  0  0  0
  8  5  1  0  0  0  0
 10  1  2  0  0  0  0
 11 12  1  0  0  0  0
 12  4  2  0  0  0  0
 14 13  1  0  0  0  0
 15 13  1  0  0  0  0
 15 16  1  0  0  0  0
 18 17  1  1  0  0  0
 18 16  1  0  0  0  0
 18 19  1  0  0  0  0
 19 20  1  1  0  0  0
 21 19  1  0  0  0  0
 22 23  1  0  0  0  0
 22  5  1  0  0  0  0
 23 26  1  0  0  0  0
 24 23  1  0  0  0  0
 25 24  1  0  0  0  0
 26 27  1  0  0  0  0
 27 28  1  0  0  0  0
 28 29  1  0  0  0  0
 29 31  1  0  0  0  0
 30 31  1  0  0  0  0
M  END
>  <MODEL>
1

>  <REMARK>
 VINA RESULT:      -5.9      0.000      0.000
  Name = 
  13 active torsions:
  status: ('A' for Active; 'I' for Inactive)
    1  A    between atoms: C_1  and  C_11
    2  A    between atoms: C_1  and  C_24
    3  A    between atoms: C_3  and  N_9
    4  A    between atoms: N_5  and  C_10
    5  A    between atoms: N_5  and  C_21
    6  A    between atoms: C_6  and  N_9
    7  A    between atoms: C_6  and  C_19
    8  A    between atoms: C_7  and  N_9
    9  A    between atoms: C_7  and  C_15
   10  A    between atoms: C_10  and  C_18
   11  A    between atoms: C_17  and  C_31
   12  A    between atoms: C_18  and  C_31
   13  A    between atoms: C_19  and  C_24
                            x       y       z     vdW  Elec       q    Type
                         _______ _______ _______ _____ _____    ______ ____

>  <TORSDO>
F 13

$$$$
=
 OpenBabel11052418013D

 31 32  0  0  1  0  0  0  0  0999 V2000
  190.5980  176.7970  147.4350 C   0  0  0  0  0  0  0  0  0  0  0  0
  189.5700  177.5630  143.8600 C   0  0  0  0  0  2  0  0  0  0  0  0
  189.8520  176.8120  145.1320 C   0  0  0  0  0  0  0  0  0  0  0  0
  190.3990  175.4130  147.4920 C   0  0  0  0  0  3  0  0  0  0  0  0
  189.0920  175.3680  142.7840 C   0  0  1  0  0  0  0  0  0  0  0  0
  191.0940  177.5260  148.6310 C   0  0  0  0  0  1  0  0  0  0  0  0
  189.1890  174.7310  144.0600 O   0  0  0  0  0  0  0  0  0  0  0  0
  188.5420  176.8130  142.9770 C   0  0  1  0  0  3  0  0  0  0  0  0
  190.3760  175.4380  142.2320 O   0  0  0  0  0  1  0  0  0  0  0  0
  190.3250  177.4960  146.2560 C   0  0  0  0  0  3  0  0  0  0  0  0
  189.6660  175.4180  145.1840 C   0  0  0  0  0  0  0  0  0  0  0  0
  189.9320  174.7250  146.3670 C   0  0  0  0  0  3  0  0  0  0  0  0
  187.1990  176.8240  143.6080 N   0  0  0  0  0  0  0  0  0  0  0  0
  186.1650  176.5810  142.6110 C   0  0  0  0  0  1  0  0  0  0  0  0
  186.8810  178.1020  144.2710 C   0  0  0  0  0  2  0  0  0  0  0  0
  185.4380  178.1970  144.7850 C   0  0  0  0  0  2  0  0  0  0  0  0
  184.3940  178.4490  146.9000 O   0  0  0  0  0  1  0  0  0  0  0  0
  185.3040  177.6520  146.2020 C   0  0  2  0  0  3  0  0  0  0  0  0
  186.6540  177.6490  146.9250 C   0  0  1  0  0  3  0  0  0  0  0  0
  186.6520  178.6600  148.0580 C   0  0  0  0  0  1  0  0  0  0  0  0
  186.9200  176.3850  147.4530 O   0  0  0  0  0  1  0  0  0  0  0  0
  188.2240  174.5040  141.8640 C   0  0  0  0  0  2  0  0  0  0  0  0
  188.9730  173.3720  141.3180 N   0  0  0  0  0  0  0  0  0  0  0  0
  188.4380  173.0090  140.0000 C   0  0  0  0  0  2  0  0  0  0  0  0
  189.2960  173.5030  138.8340 C   0  0  0  0  0  1  0  0  0  0  0  0
  188.8190  172.2330  142.2200 C   0  0  0  0  0  2  0  0  0  0  0  0
  190.0390  171.3300  142.1460 C   0  0  0  0  0  2  0  0  0  0  0  0
  191.3120  172.1360  142.3300 C   0  0  0  0  0  2  0  0  0  0  0  0
  191.6280  172.2900  143.8070 C   0  0  0  0  0  2  0  0  0  0  0  0
  193.2540  173.3060  145.3720 C   0  0  0  0  0  1  0  0  0  0  0  0
  192.5870  173.4470  144.0190 C   0  0  0  0  0  2  0  0  0  0  0  0
  1  4  1  0  0  0  0
  1  6  1  0  0  0  0
  2  3  1  0  0  0  0
  3 11  2  0  0  0  0
  3 10  1  0  0  0  0
  5  9  1  6  0  0  0
  5  8  1  0  0  0  0
  5  7  1  0  0  0  0
  7 11  1  0  0  0  0
  8 13  1  1  0  0  0
  8  2  1  0  0  0  0
 10  1  2  0  0  0  0
 11 12  1  0  0  0  0
 12  4  2  0  0  0  0
 13 15  1  0  0  0  0
 14 13  1  0  0  0  0
 15 16  1  0  0  0  0
 16 18  1  0  0  0  0
 18 17  1  1  0  0  0
 18 19  1  0  0  0  0
 19 21  1  0  0  0  0
 19 20  1  1  0  0  0
 22  5  1  0  0  0  0
 23 22  1  0  0  0  0
 23 26  1  0  0  0  0
 24 23  1  0  0  0  0
 25 24  1  0  0  0  0
 27 26  1  0  0  0  0
 27 28  1  0  0  0  0
 28 29  1  0  0  0  0
 29 31  1  0  0  0  0
 31 30  1  0  0  0  0
M  END
>  <MODEL>
2

>  <REMARK>
 VINA RESULT:      -5.9      2.440      4.073
  Name = 
  13 active torsions:
  status: ('A' for Active; 'I' for Inactive)
    1  A    between atoms: C_1  and  C_11
    2  A    between atoms: C_1  and  C_24
    3  A    between atoms: C_3  and  N_9
    4  A    between atoms: N_5  and  C_10
    5  A    between atoms: N_5  and  C_21
    6  A    between atoms: C_6  and  N_9
    7  A    between atoms: C_6  and  C_19
    8  A    between atoms: C_7  and  N_9
    9  A    between atoms: C_7  and  C_15
   10  A    between atoms: C_10  and  C_18
   11  A    between atoms: C_17  and  C_31
   12  A    between atoms: C_18  and  C_31
   13  A    between atoms: C_19  and  C_24
                            x       y       z     vdW  Elec       q    Type
                         _______ _______ _______ _____ _____    ______ ____

>  <TORSDO>
F 13

$$$$
=
 OpenBabel11052418013D

 31 32  0  0  1  0  0  0  0  0999 V2000
  186.2170  177.8160  146.4590 C   0  0  0  0  0  0  0  0  0  0  0  0
  189.2500  177.5810  144.1870 C   0  0  0  0  0  2  0  0  0  0  0  0
  188.2730  177.2950  145.2930 C   0  0  0  0  0  0  0  0  0  0  0  0
  186.4640  176.7780  147.3640 C   0  0  0  0  0  3  0  0  0  0  0  0
  190.7250  175.8300  145.1690 C   0  0  1  0  0  0  0  0  0  0  0  0
  184.9880  178.6430  146.5940 C   0  0  0  0  0  1  0  0  0  0  0  0
  189.6820  175.4740  146.0800 O   0  0  0  0  0  0  0  0  0  0  0  0
  190.0900  176.3270  143.8360 C   0  0  1  0  0  3  0  0  0  0  0  0
  191.4650  176.8720  145.7390 O   0  0  0  0  0  1  0  0  0  0  0  0
  187.1200  178.0750  145.4250 C   0  0  0  0  0  3  0  0  0  0  0  0
  188.5290  176.2590  146.2120 C   0  0  0  0  0  0  0  0  0  0  0  0
  187.6190  175.9990  147.2390 C   0  0  0  0  0  3  0  0  0  0  0  0
  189.2430  175.2890  143.1960 N   0  0  0  0  0  0  0  0  0  0  0  0
  189.9320  174.7010  142.0550 C   0  0  0  0  0  1  0  0  0  0  0  0
  187.9530  175.8140  142.7100 C   0  0  0  0  0  2  0  0  0  0  0  0
  187.8550  175.9120  141.1800 C   0  0  0  0  0  2  0  0  0  0  0  0
  188.2340  178.2530  141.2060 O   0  0  0  0  0  1  0  0  0  0  0  0
  187.3520  177.2790  140.7310 C   0  0  2  0  0  3  0  0  0  0  0  0
  185.9420  177.5510  141.2600 C   0  0  1  0  0  3  0  0  0  0  0  0
  185.9450  178.7560  142.1840 C   0  0  0  0  0  1  0  0  0  0  0  0
  185.0660  177.8000  140.2020 O   0  0  0  0  0  1  0  0  0  0  0  0
  191.6550  174.6260  144.9880 C   0  0  0  0  0  2  0  0  0  0  0  0
  193.0430  175.0410  144.7740 N   0  0  0  0  0  0  0  0  0  0  0  0
  193.4430  174.7490  143.3930 C   0  0  0  0  0  2  0  0  0  0  0  0
  193.6610  176.0000  142.5400 C   0  0  0  0  0  1  0  0  0  0  0  0
  193.9000  174.2850  145.6850 C   0  0  0  0  0  2  0  0  0  0  0  0
  195.2760  174.9230  145.7690 C   0  0  0  0  0  2  0  0  0  0  0  0
  196.3400  173.8680  146.0150 C   0  0  0  0  0  2  0  0  0  0  0  0
  197.5360  174.1050  145.1100 C   0  0  0  0  0  2  0  0  0  0  0  0
  197.8020  175.5830  143.1430 C   0  0  0  0  0  1  0  0  0  0  0  0
  197.0740  174.3720  143.6900 C   0  0  0  0  0  2  0  0  0  0  0  0
  1  6  1  0  0  0  0
  1  4  1  0  0  0  0
  2  3  1  0  0  0  0
  3 10  1  0  0  0  0
  3 11  2  0  0  0  0
  5  9  1  1  0  0  0
  5  7  1  0  0  0  0
  7 11  1  0  0  0  0
  8 13  1  1  0  0  0
  8  2  1  0  0  0  0
  8  5  1  0  0  0  0
 10  1  2  0  0  0  0
 11 12  1  0  0  0  0
 12  4  2  0  0  0  0
 14 13  1  0  0  0  0
 15 13  1  0  0  0  0
 16 15  1  0  0  0  0
 18 16  1  0  0  0  0
 18 17  1  1  0  0  0
 18 19  1  0  0  0  0
 19 20  1  1  0  0  0
 21 19  1  0  0  0  0
 22  5  1  0  0  0  0
 23 22  1  0  0  0  0
 23 26  1  0  0  0  0
 24 23  1  0  0  0  0
 25 24  1  0  0  0  0
 26 27  1  0  0  0  0
 27 28  1  0  0  0  0
 29 28  1  0  0  0  0
 30 31  1  0  0  0  0
 31 29  1  0  0  0  0
M  END
>  <MODEL>
3

>  <REMARK>
 VINA RESULT:      -5.9      1.637      2.092
  Name = 
  13 active torsions:
  status: ('A' for Active; 'I' for Inactive)
    1  A    between atoms: C_1  and  C_11
    2  A    between atoms: C_1  and  C_24
    3  A    between atoms: C_3  and  N_9
    4  A    between atoms: N_5  and  C_10
    5  A    between atoms: N_5  and  C_21
    6  A    between atoms: C_6  and  N_9
    7  A    between atoms: C_6  and  C_19
    8  A    between atoms: C_7  and  N_9
    9  A    between atoms: C_7  and  C_15
   10  A    between atoms: C_10  and  C_18
   11  A    between atoms: C_17  and  C_31
   12  A    between atoms: C_18  and  C_31
   13  A    between atoms: C_19  and  C_24
                            x       y       z     vdW  Elec       q    Type
                         _______ _______ _______ _____ _____    ______ ____

>  <TORSDO>
F 13

$$$$
=
 OpenBabel11052418013D

 31 32  0  0  1  0  0  0  0  0999 V2000
  187.9190  176.6310  146.5700 C   0  0  0  0  0  0  0  0  0  0  0  0
  191.0230  177.3260  144.4950 C   0  0  0  0  0  2  0  0  0  0  0  0
  190.0690  176.6770  145.4610 C   0  0  0  0  0  0  0  0  0  0  0  0
  188.3030  175.4840  147.2720 C   0  0  0  0  0  3  0  0  0  0  0  0
  192.7310  175.6620  145.2160 C   0  0  1  0  0  0  0  0  0  0  0  0
  186.5680  177.2150  146.7820 C   0  0  0  0  0  1  0  0  0  0  0  0
  191.7310  174.9760  145.9720 O   0  0  0  0  0  0  0  0  0  0  0  0
  192.0670  176.3120  143.9650 C   0  0  1  0  0  3  0  0  0  0  0  0
  193.2710  176.6710  146.0210 O   0  0  0  0  0  1  0  0  0  0  0  0
  188.8000  177.2280  145.6650 C   0  0  0  0  0  3  0  0  0  0  0  0
  190.4620  175.5310  146.1770 C   0  0  0  0  0  0  0  0  0  0  0  0
  189.5730  174.9340  147.0750 C   0  0  0  0  0  3  0  0  0  0  0  0
  191.4230  175.3060  143.0830 N   0  0  0  0  0  0  0  0  0  0  0  0
  192.3030  174.9610  141.9750 C   0  0  0  0  0  1  0  0  0  0  0  0
  190.1490  175.7730  142.5070 C   0  0  0  0  0  2  0  0  0  0  0  0
  189.0020  174.7570  142.6230 C   0  0  0  0  0  2  0  0  0  0  0  0
  188.0130  175.5890  140.6350 O   0  0  0  0  0  1  0  0  0  0  0  0
  187.7260  175.2660  141.9630 C   0  0  2  0  0  3  0  0  0  0  0  0
  187.1780  176.4960  142.6910 C   0  0  1  0  0  3  0  0  0  0  0  0
  187.0090  177.6540  141.7230 C   0  0  0  0  0  1  0  0  0  0  0  0
  185.9400  176.2080  143.2660 O   0  0  0  0  0  1  0  0  0  0  0  0
  193.8520  174.6770  144.8670 C   0  0  0  0  0  2  0  0  0  0  0  0
  195.1700  175.3090  144.9380 N   0  0  0  0  0  0  0  0  0  0  0  0
  195.7210  175.4670  143.5860 C   0  0  0  0  0  2  0  0  0  0  0  0
  196.5540  176.7370  143.4080 C   0  0  0  0  0  1  0  0  0  0  0  0
  196.0590  174.4460  145.7120 C   0  0  0  0  0  2  0  0  0  0  0  0
  196.0270  173.0280  145.1670 C   0  0  0  0  0  2  0  0  0  0  0  0
  196.8580  172.1030  146.0390 C   0  0  0  0  0  2  0  0  0  0  0  0
  196.7120  170.6660  145.5700 C   0  0  0  0  0  2  0  0  0  0  0  0
  195.1280  169.2360  146.8220 C   0  0  0  0  0  1  0  0  0  0  0  0
  196.5550  169.7400  146.7610 C   0  0  0  0  0  2  0  0  0  0  0  0
  1  6  1  0  0  0  0
  1  4  1  0  0  0  0
  2  3  1  0  0  0  0
  3 10  1  0  0  0  0
  3 11  2  0  0  0  0
  5  7  1  0  0  0  0
  5  9  1  1  0  0  0
  7 11  1  0  0  0  0
  8 13  1  6  0  0  0
  8  2  1  0  0  0  0
  8  5  1  0  0  0  0
 10  1  2  0  0  0  0
 11 12  1  0  0  0  0
 12  4  2  0  0  0  0
 14 13  1  0  0  0  0
 15 16  1  0  0  0  0
 15 13  1  0  0  0  0
 18 17  1  6  0  0  0
 18 16  1  0  0  0  0
 18 19  1  0  0  0  0
 19 20  1  6  0  0  0
 19 21  1  0  0  0  0
 22 23  1  0  0  0  0
 22  5  1  0  0  0  0
 23 26  1  0  0  0  0
 24 23  1  0  0  0  0
 25 24  1  0  0  0  0
 27 26  1  0  0  0  0
 27 28  1  0  0  0  0
 29 28  1  0  0  0  0
 29 31  1  0  0  0  0
 31 30  1  0  0  0  0
M  END
>  <MODEL>
4

>  <REMARK>
 VINA RESULT:      -5.8      2.424      3.606
  Name = 
  13 active torsions:
  status: ('A' for Active; 'I' for Inactive)
    1  A    between atoms: C_1  and  C_11
    2  A    between atoms: C_1  and  C_24
    3  A    between atoms: C_3  and  N_9
    4  A    between atoms: N_5  and  C_10
    5  A    between atoms: N_5  and  C_21
    6  A    between atoms: C_6  and  N_9
    7  A    between atoms: C_6  and  C_19
    8  A    between atoms: C_7  and  N_9
    9  A    between atoms: C_7  and  C_15
   10  A    between atoms: C_10  and  C_18
   11  A    between atoms: C_17  and  C_31
   12  A    between atoms: C_18  and  C_31
   13  A    between atoms: C_19  and  C_24
                            x       y       z     vdW  Elec       q    Type
                         _______ _______ _______ _____ _____    ______ ____

>  <TORSDO>
F 13

$$$$
=
 OpenBabel11052418013D

 31 32  0  0  1  0  0  0  0  0999 V2000
  185.8800  178.0320  144.3670 C   0  0  0  0  0  0  0  0  0  0  0  0
  189.1650  177.9220  142.4650 C   0  0  0  0  0  2  0  0  0  0  0  0
  188.1600  177.8350  143.5810 C   0  0  0  0  0  0  0  0  0  0  0  0
  186.2940  177.6950  145.6600 C   0  0  0  0  0  3  0  0  0  0  0  0
  190.9400  177.4940  144.1600 C   0  0  1  0  0  0  0  0  0  0  0  0
  184.4450  178.3110  144.0960 C   0  0  0  0  0  1  0  0  0  0  0  0
  189.9300  177.2380  145.1390 O   0  0  0  0  0  0  0  0  0  0  0  0
  190.4140  177.0550  142.7600 C   0  0  1  0  0  3  0  0  0  0  0  0
  191.1900  178.8710  144.1420 O   0  0  0  0  0  1  0  0  0  0  0  0
  186.8110  178.1030  143.3280 C   0  0  0  0  0  3  0  0  0  0  0  0
  188.5800  177.5090  144.8840 C   0  0  0  0  0  0  0  0  0  0  0  0
  187.6430  177.4320  145.9180 C   0  0  0  0  0  3  0  0  0  0  0  0
  190.0750  175.6110  142.7150 N   0  0  0  0  0  0  0  0  0  0  0  0
  191.2320  174.8280  142.3010 C   0  0  0  0  0  1  0  0  0  0  0  0
  188.9770  175.3030  141.7800 C   0  0  0  0  0  2  0  0  0  0  0  0
  187.9120  174.3580  142.3560 C   0  0  0  0  0  2  0  0  0  0  0  0
  188.7640  172.1680  142.6770 O   0  0  0  0  0  1  0  0  0  0  0  0
  188.0330  172.9520  141.7810 C   0  0  2  0  0  3  0  0  0  0  0  0
  188.7280  172.9680  140.4180 C   0  0  1  0  0  3  0  0  0  0  0  0
  189.8520  171.9470  140.3820 C   0  0  0  0  0  1  0  0  0  0  0  0
  187.8170  172.6660  139.4040 O   0  0  0  0  0  1  0  0  0  0  0  0
  192.2280  176.7790  144.5780 C   0  0  0  0  0  2  0  0  0  0  0  0
  191.9970  175.8480  145.6830 N   0  0  0  0  0  0  0  0  0  0  0  0
  192.2840  176.5100  146.9620 C   0  0  0  0  0  2  0  0  0  0  0  0
  191.2470  176.2220  148.0480 C   0  0  0  0  0  1  0  0  0  0  0  0
  192.8980  174.7090  145.5280 C   0  0  0  0  0  2  0  0  0  0  0  0
  194.3160  175.0990  145.9080 C   0  0  0  0  0  2  0  0  0  0  0  0
  195.3150  174.1120  145.3290 C   0  0  0  0  0  2  0  0  0  0  0  0
  196.4090  174.8500  144.5790 C   0  0  0  0  0  2  0  0  0  0  0  0
  196.9290  176.7920  143.1350 C   0  0  0  0  0  1  0  0  0  0  0  0
  195.8660  176.1420  143.9980 C   0  0  0  0  0  2  0  0  0  0  0  0
  1  4  1  0  0  0  0
  2  8  1  0  0  0  0
  2  3  1  0  0  0  0
  3 11  2  0  0  0  0
  4 12  2  0  0  0  0
  5  9  1  6  0  0  0
  5 22  1  0  0  0  0
  5  7  1  0  0  0  0
  6  1  1  0  0  0  0
  8 13  1  1  0  0  0
  8  5  1  0  0  0  0
 10  3  1  0  0  0  0
 10  1  2  0  0  0  0
 11  7  1  0  0  0  0
 11 12  1  0  0  0  0
 14 13  1  0  0  0  0
 15 16  1  0  0  0  0
 15 13  1  0  0  0  0
 18 16  1  0  0  0  0
 18 17  1  1  0  0  0
 19 20  1  1  0  0  0
 19 18  1  0  0  0  0
 21 19  1  0  0  0  0
 22 23  1  0  0  0  0
 23 24  1  0  0  0  0
 24 25  1  0  0  0  0
 26 23  1  0  0  0  0
 26 27  1  0  0  0  0
 28 27  1  0  0  0  0
 29 28  1  0  0  0  0
 30 31  1  0  0  0  0
 31 29  1  0  0  0  0
M  END
>  <MODEL>
5

>  <REMARK>
 VINA RESULT:      -5.8      2.301      3.996
  Name = 
  13 active torsions:
  status: ('A' for Active; 'I' for Inactive)
    1  A    between atoms: C_1  and  C_11
    2  A    between atoms: C_1  and  C_24
    3  A    between atoms: C_3  and  N_9
    4  A    between atoms: N_5  and  C_10
    5  A    between atoms: N_5  and  C_21
    6  A    between atoms: C_6  and  N_9
    7  A    between atoms: C_6  and  C_19
    8  A    between atoms: C_7  and  N_9
    9  A    between atoms: C_7  and  C_15
   10  A    between atoms: C_10  and  C_18
   11  A    between atoms: C_17  and  C_31
   12  A    between atoms: C_18  and  C_31
   13  A    between atoms: C_19  and  C_24
                            x       y       z     vdW  Elec       q    Type
                         _______ _______ _______ _____ _____    ______ ____

>  <TORSDO>
F 13

$$$$
=
 OpenBabel11052418013D

 31 32  0  0  1  0  0  0  0  0999 V2000
  186.2880  177.8340  144.7920 C   0  0  0  0  0  0  0  0  0  0  0  0
  189.4190  177.7590  142.6440 C   0  0  0  0  0  2  0  0  0  0  0  0
  188.4980  177.6300  143.8260 C   0  0  0  0  0  0  0  0  0  0  0  0
  186.7870  177.4120  146.0290 C   0  0  0  0  0  3  0  0  0  0  0  0
  191.3020  177.1920  144.1730 C   0  0  1  0  0  0  0  0  0  0  0  0
  184.8450  178.1620  144.6460 C   0  0  0  0  0  1  0  0  0  0  0  0
  190.3610  176.9020  145.2090 O   0  0  0  0  0  0  0  0  0  0  0  0
  190.6620  176.8480  142.7940 C   0  0  1  0  0  3  0  0  0  0  0  0
  191.5880  178.5600  144.2140 O   0  0  0  0  0  1  0  0  0  0  0  0
  187.1410  177.9430  143.6910 C   0  0  0  0  0  3  0  0  0  0  0  0
  189.0040  177.2190  145.0730 C   0  0  0  0  0  0  0  0  0  0  0  0
  188.1440  177.1030  146.1680 C   0  0  0  0  0  3  0  0  0  0  0  0
  190.2810  175.4160  142.6930 N   0  0  0  0  0  0  0  0  0  0  0  0
  191.4170  174.6150  142.2570 C   0  0  0  0  0  1  0  0  0  0  0  0
  189.1810  175.1770  141.7410 C   0  0  0  0  0  2  0  0  0  0  0  0
  188.0800  174.2510  142.2790 C   0  0  0  0  0  2  0  0  0  0  0  0
  188.8950  172.0390  142.5310 O   0  0  0  0  0  1  0  0  0  0  0  0
  188.1620  172.8580  141.6680 C   0  0  2  0  0  3  0  0  0  0  0  0
  188.8330  172.8940  140.2920 C   0  0  1  0  0  3  0  0  0  0  0  0
  189.9360  171.8540  140.2110 C   0  0  0  0  0  1  0  0  0  0  0  0
  187.8970  172.6340  139.2900 O   0  0  0  0  0  1  0  0  0  0  0  0
  192.5980  176.4240  144.4510 C   0  0  0  0  0  2  0  0  0  0  0  0
  192.6460  175.9230  145.8260 N   0  0  0  0  0  0  0  0  0  0  0  0
  193.7750  176.5320  146.5390 C   0  0  0  0  0  2  0  0  0  0  0  0
  194.6050  177.4830  145.6750 C   0  0  0  0  0  1  0  0  0  0  0  0
  192.8370  174.4750  145.7870 C   0  0  0  0  0  2  0  0  0  0  0  0
  193.9380  174.1120  144.8050 C   0  0  0  0  0  2  0  0  0  0  0  0
  194.8880  173.0990  145.4190 C   0  0  0  0  0  2  0  0  0  0  0  0
  196.1620  173.7830  145.8820 C   0  0  0  0  0  2  0  0  0  0  0  0
  197.6940  173.8450  143.9390 C   0  0  0  0  0  1  0  0  0  0  0  0
  196.7210  174.6550  144.7720 C   0  0  0  0  0  2  0  0  0  0  0  0
  1  4  1  0  0  0  0
  2  8  1  0  0  0  0
  2  3  1  0  0  0  0
  3 11  2  0  0  0  0
  4 12  2  0  0  0  0
  5  9  1  1  0  0  0
  5 22  1  0  0  0  0
  5  7  1  0  0  0  0
  6  1  1  0  0  0  0
  8 13  1  1  0  0  0
  8  5  1  0  0  0  0
 10  3  1  0  0  0  0
 10  1  2  0  0  0  0
 11  7  1  0  0  0  0
 11 12  1  0  0  0  0
 14 13  1  0  0  0  0
 15 16  1  0  0  0  0
 15 13  1  0  0  0  0
 18 16  1  0  0  0  0
 18 17  1  1  0  0  0
 19 20  1  1  0  0  0
 19 18  1  0  0  0  0
 21 19  1  0  0  0  0
 22 23  1  0  0  0  0
 23 24  1  0  0  0  0
 25 24  1  0  0  0  0
 26 23  1  0  0  0  0
 27 28  1  0  0  0  0
 27 26  1  0  0  0  0
 28 29  1  0  0  0  0
 30 31  1  0  0  0  0
 31 29  1  0  0  0  0
M  END
>  <MODEL>
6

>  <REMARK>
 VINA RESULT:      -5.8      2.311      3.923
  Name = 
  13 active torsions:
  status: ('A' for Active; 'I' for Inactive)
    1  A    between atoms: C_1  and  C_11
    2  A    between atoms: C_1  and  C_24
    3  A    between atoms: C_3  and  N_9
    4  A    between atoms: N_5  and  C_10
    5  A    between atoms: N_5  and  C_21
    6  A    between atoms: C_6  and  N_9
    7  A    between atoms: C_6  and  C_19
    8  A    between atoms: C_7  and  N_9
    9  A    between atoms: C_7  and  C_15
   10  A    between atoms: C_10  and  C_18
   11  A    between atoms: C_17  and  C_31
   12  A    between atoms: C_18  and  C_31
   13  A    between atoms: C_19  and  C_24
                            x       y       z     vdW  Elec       q    Type
                         _______ _______ _______ _____ _____    ______ ____

>  <TORSDO>
F 13

$$$$
=
 OpenBabel11052418013D

 31 32  0  0  1  0  0  0  0  0999 V2000
  195.8770  172.9640  145.7310 C   0  0  0  0  0  0  0  0  0  0  0  0
  192.2200  172.9150  144.7040 C   0  0  0  0  0  2  0  0  0  0  0  0
  193.5570  173.4000  145.1950 C   0  0  0  0  0  0  0  0  0  0  0  0
  196.0380  174.2960  146.1280 C   0  0  0  0  0  3  0  0  0  0  0  0
  191.3080  175.1660  145.2610 C   0  0  1  0  0  0  0  0  0  0  0  0
  197.0260  172.0240  145.8000 C   0  0  0  0  0  1  0  0  0  0  0  0
  192.6340  175.6250  145.5350 O   0  0  0  0  0  0  0  0  0  0  0  0
  191.3670  174.0800  144.1440 C   0  0  1  0  0  3  0  0  0  0  0  0
  190.7950  174.5920  146.4290 O   0  0  0  0  0  1  0  0  0  0  0  0
  194.6380  172.5160  145.2650 C   0  0  0  0  0  3  0  0  0  0  0  0
  193.7150  174.7370  145.6080 C   0  0  0  0  0  0  0  0  0  0  0  0
  194.9570  175.1820  146.0640 C   0  0  0  0  0  3  0  0  0  0  0  0
  191.9520  174.6010  142.8830 N   0  0  0  0  0  0  0  0  0  0  0  0
  190.8980  174.9880  141.9540 C   0  0  0  0  0  1  0  0  0  0  0  0
  192.8100  173.6200  142.1940 C   0  0  0  0  0  2  0  0  0  0  0  0
  194.0640  174.2300  141.5510 C   0  0  0  0  0  2  0  0  0  0  0  0
  194.2160  176.5800  141.2740 O   0  0  0  0  0  1  0  0  0  0  0  0
  194.4430  175.5570  142.1970 C   0  0  2  0  0  3  0  0  0  0  0  0
  195.9120  175.5630  142.6290 C   0  0  1  0  0  3  0  0  0  0  0  0
  196.5440  174.2050  142.3820 C   0  0  0  0  0  1  0  0  0  0  0  0
  196.6250  176.5260  141.9130 O   0  0  0  0  0  1  0  0  0  0  0  0
  190.4340  176.3680  144.8950 C   0  0  0  0  0  2  0  0  0  0  0  0
  189.0170  176.1070  145.1550 N   0  0  0  0  0  0  0  0  0  0  0  0
  188.2420  176.2850  143.9210 C   0  0  0  0  0  2  0  0  0  0  0  0
  187.9860  177.7490  143.5630 C   0  0  0  0  0  1  0  0  0  0  0  0
  188.5440  177.0640  146.1530 C   0  0  0  0  0  2  0  0  0  0  0  0
  187.3790  176.4820  146.9350 C   0  0  0  0  0  2  0  0  0  0  0  0
  186.3010  177.5300  147.1470 C   0  0  0  0  0  2  0  0  0  0  0  0
  185.0230  177.1230  146.4350 C   0  0  0  0  0  2  0  0  0  0  0  0
  185.3510  179.3950  145.5110 C   0  0  0  0  0  1  0  0  0  0  0  0
  184.3210  178.3470  145.8780 C   0  0  0  0  0  2  0  0  0  0  0  0
  1  6  1  0  0  0  0
  1  4  1  0  0  0  0
  2  3  1  0  0  0  0
  3 10  1  0  0  0  0
  3 11  2  0  0  0  0
  5  7  1  0  0  0  0
  5  9  1  1  0  0  0
  7 11  1  0  0  0  0
  8 13  1  6  0  0  0
  8  2  1  0  0  0  0
  8  5  1  0  0  0  0
 10  1  2  0  0  0  0
 11 12  1  0  0  0  0
 12  4  2  0  0  0  0
 14 13  1  0  0  0  0
 15 13  1  0  0  0  0
 16 15  1  0  0  0  0
 16 18  1  0  0  0  0
 18 17  1  6  0  0  0
 18 19  1  0  0  0  0
 19 20  1  6  0  0  0
 21 19  1  0  0  0  0
 22 23  1  0  0  0  0
 22  5  1  0  0  0  0
 23 26  1  0  0  0  0
 24 23  1  0  0  0  0
 25 24  1  0  0  0  0
 26 27  1  0  0  0  0
 27 28  1  0  0  0  0
 29 28  1  0  0  0  0
 30 31  1  0  0  0  0
 31 29  1  0  0  0  0
M  END
>  <MODEL>
7

>  <REMARK>
 VINA RESULT:      -5.7      2.791      7.998
  Name = 
  13 active torsions:
  status: ('A' for Active; 'I' for Inactive)
    1  A    between atoms: C_1  and  C_11
    2  A    between atoms: C_1  and  C_24
    3  A    between atoms: C_3  and  N_9
    4  A    between atoms: N_5  and  C_10
    5  A    between atoms: N_5  and  C_21
    6  A    between atoms: C_6  and  N_9
    7  A    between atoms: C_6  and  C_19
    8  A    between atoms: C_7  and  N_9
    9  A    between atoms: C_7  and  C_15
   10  A    between atoms: C_10  and  C_18
   11  A    between atoms: C_17  and  C_31
   12  A    between atoms: C_18  and  C_31
   13  A    between atoms: C_19  and  C_24
                            x       y       z     vdW  Elec       q    Type
                         _______ _______ _______ _____ _____    ______ ____

>  <TORSDO>
F 13

$$$$
=
 OpenBabel11052418013D

 31 32  0  0  1  0  0  0  0  0999 V2000
  195.1790  174.3000  145.7710 C   0  0  0  0  0  0  0  0  0  0  0  0
  191.7970  172.9820  144.6520 C   0  0  0  0  0  2  0  0  0  0  0  0
  192.8710  173.9060  145.1560 C   0  0  0  0  0  0  0  0  0  0  0  0
  194.8640  175.6190  146.1140 C   0  0  0  0  0  3  0  0  0  0  0  0
  190.1570  174.8050  145.0880 C   0  0  1  0  0  0  0  0  0  0  0  0
  196.5750  173.8090  145.9090 C   0  0  0  0  0  1  0  0  0  0  0  0
  191.2370  175.6960  145.3780 O   0  0  0  0  0  0  0  0  0  0  0  0
  190.6230  173.7690  144.0210 C   0  0  1  0  0  3  0  0  0  0  0  0
  189.8230  174.1270  146.2660 O   0  0  0  0  0  1  0  0  0  0  0  0
  194.1840  173.4440  145.2920 C   0  0  0  0  0  3  0  0  0  0  0  0
  192.5510  175.2290  145.5160 C   0  0  0  0  0  0  0  0  0  0  0  0
  193.5510  176.0830  145.9860 C   0  0  0  0  0  3  0  0  0  0  0  0
  191.0450  174.4190  142.7550 N   0  0  0  0  0  0  0  0  0  0  0  0
  189.9240  174.5090  141.8290 C   0  0  0  0  0  1  0  0  0  0  0  0
  192.1290  173.6940  142.0660 C   0  0  0  0  0  2  0  0  0  0  0  0
  192.9240  174.5550  141.0730 C   0  0  0  0  0  2  0  0  0  0  0  0
  194.7680  173.3620  141.9680 O   0  0  0  0  0  1  0  0  0  0  0  0
  194.4070  174.5950  141.4190 C   0  0  2  0  0  3  0  0  0  0  0  0
  194.7150  175.7170  142.4140 C   0  0  1  0  0  3  0  0  0  0  0  0
  196.0350  176.3850  142.0700 C   0  0  0  0  0  1  0  0  0  0  0  0
  193.7050  176.6800  142.3870 O   0  0  0  0  0  1  0  0  0  0  0  0
  188.9420  175.6270  144.6490 C   0  0  0  0  0  2  0  0  0  0  0  0
  189.1410  177.0580  144.8870 N   0  0  0  0  0  0  0  0  0  0  0  0
  188.1580  177.5430  145.8630 C   0  0  0  0  0  2  0  0  0  0  0  0
  187.2870  176.4360  146.4570 C   0  0  0  0  0  1  0  0  0  0  0  0
  188.9470  177.7700  143.6260 C   0  0  0  0  0  2  0  0  0  0  0  0
  187.6820  177.2890  142.9360 C   0  0  0  0  0  2  0  0  0  0  0  0
  186.8250  178.4690  142.5090 C   0  0  0  0  0  2  0  0  0  0  0  0
  185.4900  178.4390  143.2320 C   0  0  0  0  0  2  0  0  0  0  0  0
  184.5300  179.0270  145.4360 C   0  0  0  0  0  1  0  0  0  0  0  0
  185.4690  179.4790  144.3370 C   0  0  0  0  0  2  0  0  0  0  0  0
  1  6  1  0  0  0  0
  1  4  1  0  0  0  0
  2  3  1  0  0  0  0
  3 10  1  0  0  0  0
  3 11  2  0  0  0  0
  5  7  1  0  0  0  0
  5  9  1  1  0  0  0
  7 11  1  0  0  0  0
  8 13  1  6  0  0  0
  8  2  1  0  0  0  0
  8  5  1  0  0  0  0
 10  1  2  0  0  0  0
 11 12  1  0  0  0  0
 12  4  2  0  0  0  0
 14 13  1  0  0  0  0
 15 13  1  0  0  0  0
 16 18  1  0  0  0  0
 16 15  1  0  0  0  0
 18 17  1  1  0  0  0
 18 19  1  0  0  0  0
 19 20  1  6  0  0  0
 21 19  1  0  0  0  0
 22 23  1  0  0  0  0
 22  5  1  0  0  0  0
 23 24  1  0  0  0  0
 24 25  1  0  0  0  0
 26 23  1  0  0  0  0
 27 26  1  0  0  0  0
 28 27  1  0  0  0  0
 28 29  1  0  0  0  0
 29 31  1  0  0  0  0
 31 30  1  0  0  0  0
M  END
>  <MODEL>
8

>  <REMARK>
 VINA RESULT:      -5.7      2.469      7.585
  Name = 
  13 active torsions:
  status: ('A' for Active; 'I' for Inactive)
    1  A    between atoms: C_1  and  C_11
    2  A    between atoms: C_1  and  C_24
    3  A    between atoms: C_3  and  N_9
    4  A    between atoms: N_5  and  C_10
    5  A    between atoms: N_5  and  C_21
    6  A    between atoms: C_6  and  N_9
    7  A    between atoms: C_6  and  C_19
    8  A    between atoms: C_7  and  N_9
    9  A    between atoms: C_7  and  C_15
   10  A    between atoms: C_10  and  C_18
   11  A    between atoms: C_17  and  C_31
   12  A    between atoms: C_18  and  C_31
   13  A    between atoms: C_19  and  C_24
                            x       y       z     vdW  Elec       q    Type
                         _______ _______ _______ _____ _____    ______ ____

>  <TORSDO>
F 13

$$$$
=
 OpenBabel11052418013D

 31 32  0  0  1  0  0  0  0  0999 V2000
  186.0920  177.5870  142.2870 C   0  0  0  0  0  0  0  0  0  0  0  0
  188.0880  174.7400  143.8140 C   0  0  0  0  0  2  0  0  0  0  0  0
  187.7470  176.0240  143.1090 C   0  0  0  0  0  0  0  0  0  0  0  0
  187.1090  178.4020  141.7810 C   0  0  0  0  0  3  0  0  0  0  0  0
  190.4730  175.1700  143.2350 C   0  0  1  0  0  0  0  0  0  0  0  0
  184.6690  177.9870  142.1250 C   0  0  0  0  0  1  0  0  0  0  0  0
  190.1120  176.4640  142.7480 O   0  0  0  0  0  0  0  0  0  0  0  0
  189.5190  174.7820  144.4050 C   0  0  1  0  0  3  0  0  0  0  0  0
  190.3130  174.2510  142.1920 O   0  0  0  0  0  1  0  0  0  0  0  0
  186.4090  176.3990  142.9510 C   0  0  0  0  0  3  0  0  0  0  0  0
  188.7710  176.8370  142.5880 C   0  0  0  0  0  0  0  0  0  0  0  0
  188.4480  178.0270  141.9330 C   0  0  0  0  0  3  0  0  0  0  0  0
  189.5940  175.7440  145.5330 N   0  0  0  0  0  0  0  0  0  0  0  0
  190.4510  175.2250  146.5910 C   0  0  0  0  0  1  0  0  0  0  0  0
  188.2780  176.0350  146.1340 C   0  0  0  0  0  2  0  0  0  0  0  0
  187.9990  177.5320  146.3300 C   0  0  0  0  0  2  0  0  0  0  0  0
  186.2420  176.6110  147.6290 O   0  0  0  0  0  1  0  0  0  0  0  0
  186.6340  177.7750  146.9640 C   0  0  2  0  0  3  0  0  0  0  0  0
  185.5900  178.1480  145.9090 C   0  0  1  0  0  3  0  0  0  0  0  0
  184.2220  178.3040  146.5480 C   0  0  0  0  0  1  0  0  0  0  0  0
  185.9350  179.3500  145.2890 O   0  0  0  0  0  1  0  0  0  0  0  0
  191.9510  175.1860  143.6350 C   0  0  0  0  0  2  0  0  0  0  0  0
  192.5730  176.4820  143.3590 N   0  0  0  0  0  0  0  0  0  0  0  0
  193.8210  176.2870  142.6110 C   0  0  0  0  0  2  0  0  0  0  0  0
  193.9610  174.8890  142.0070 C   0  0  0  0  0  1  0  0  0  0  0  0
  192.8810  177.1310  144.6310 C   0  0  0  0  0  2  0  0  0  0  0  0
  194.3490  176.9460  144.9780 C   0  0  0  0  0  2  0  0  0  0  0  0
  194.5040  175.9950  146.1530 C   0  0  0  0  0  2  0  0  0  0  0  0
  195.5100  174.9080  145.8210 C   0  0  0  0  0  2  0  0  0  0  0  0
  195.8030  172.5810  145.0280 C   0  0  0  0  0  1  0  0  0  0  0  0
  194.7910  173.6170  145.4740 C   0  0  0  0  0  2  0  0  0  0  0  0
  1 10  1  0  0  0  0
  2  8  1  0  0  0  0
  3  2  1  0  0  0  0
  4 12  1  0  0  0  0
  4  1  2  0  0  0  0
  5  9  1  6  0  0  0
  5 22  1  0  0  0  0
  5  8  1  0  0  0  0
  6  1  1  0  0  0  0
  7  5  1  0  0  0  0
  8 13  1  1  0  0  0
 10  3  2  0  0  0  0
 11  7  1  0  0  0  0
 11  3  1  0  0  0  0
 12 11  2  0  0  0  0
 13 15  1  0  0  0  0
 13 14  1  0  0  0  0
 15 16  1  0  0  0  0
 16 18  1  0  0  0  0
 18 17  1  6  0  0  0
 19 20  1  1  0  0  0
 19 18  1  0  0  0  0
 21 19  1  0  0  0  0
 23 22  1  0  0  0  0
 23 26  1  0  0  0  0
 24 23  1  0  0  0  0
 25 24  1  0  0  0  0
 26 27  1  0  0  0  0
 27 28  1  0  0  0  0
 29 28  1  0  0  0  0
 30 31  1  0  0  0  0
 31 29  1  0  0  0  0
M  END
>  <MODEL>
9

>  <REMARK>
 VINA RESULT:      -5.7      1.869      3.733
  Name = 
  13 active torsions:
  status: ('A' for Active; 'I' for Inactive)
    1  A    between atoms: C_1  and  C_11
    2  A    between atoms: C_1  and  C_24
    3  A    between atoms: C_3  and  N_9
    4  A    between atoms: N_5  and  C_10
    5  A    between atoms: N_5  and  C_21
    6  A    between atoms: C_6  and  N_9
    7  A    between atoms: C_6  and  C_19
    8  A    between atoms: C_7  and  N_9
    9  A    between atoms: C_7  and  C_15
   10  A    between atoms: C_10  and  C_18
   11  A    between atoms: C_17  and  C_31
   12  A    between atoms: C_18  and  C_31
   13  A    between atoms: C_19  and  C_24
                            x       y       z     vdW  Elec       q    Type
                         _______ _______ _______ _____ _____    ______ ____

>  <TORSDO>
F 13

$$$$
