=
 OpenBabel11052418023D

 28 30  0  0  1  0  0  0  0  0999 V2000
  187.5190  176.7430  146.0720 C   0  0  0  0  0  0  0  0  0  0  0  0
  183.4090  179.0410  144.9260 F   0  0  0  0  0  0  0  0  0  0  0  0
  186.1960  177.9770  142.8100 C   0  0  0  0  0  0  0  0  0  0  0  0
  185.4370  177.8980  145.5150 C   0  0  0  0  0  0  0  0  0  0  0  0
  187.0360  177.3800  143.7590 C   0  0  0  0  0  3  0  0  0  0  0  0
  185.9010  177.2740  147.8080 C   0  0  0  0  0  3  0  0  0  0  0  0
  184.5950  178.4920  144.5600 C   0  0  0  0  0  0  0  0  0  0  0  0
  185.0630  177.8620  146.8610 C   0  0  0  0  0  3  0  0  0  0  0  0
  184.9790  178.5300  143.2180 C   0  0  0  0  0  3  0  0  0  0  0  0
  187.1210  176.7190  147.4170 C   0  0  0  0  0  3  0  0  0  0  0  0
  186.6730  177.3340  145.1110 C   0  0  0  0  0  0  0  0  0  0  0  0
  188.8380  176.1340  145.6670 C   0  0  2  0  0  3  0  0  0  0  0  0
  189.0490  174.7610  146.3190 C   0  0  0  0  0  2  0  0  0  0  0  0
  190.9890  176.7560  147.0360 C   0  0  1  0  0  3  0  0  0  0  0  0
  189.5510  174.9060  147.6230 O   0  0  0  0  0  0  0  0  0  0  0  0
  190.1320  178.0720  145.2740 O   0  0  0  0  0  0  0  0  0  0  0  0
  189.9980  177.0600  145.9420 C   0  0  0  0  0  0  0  0  0  0  0  0
  190.7540  177.6700  148.2250 C   0  0  0  0  0  1  0  0  0  0  0  0
  190.8920  175.2910  147.4700 C   0  0  0  0  0  2  0  0  0  0  0  0
  187.0140  177.0190  140.7140 C   0  0  0  0  0  0  0  0  0  0  0  0
  186.5630  178.0460  141.3880 C   0  0  0  0  0  3  0  0  0  0  0  0
  187.4660  176.0050  140.0220 C   0  0  0  0  0  3  0  0  0  0  0  0
  188.1910  174.9200  140.6180 N   0  0  0  0  0  0  0  0  0  0  0  0
  188.6100  173.8230  139.7670 C   0  0  0  0  0  1  0  0  0  0  0  0
  188.4490  174.8190  142.0500 C   0  0  0  0  0  2  0  0  0  0  0  0
  189.8070  175.2760  142.3600 C   0  0  0  0  0  0  0  0  0  0  0  0
  192.1710  176.1170  142.9230 O   0  0  0  0  0  1  0  0  0  0  0  0
  190.9180  175.6670  142.6240 C   0  0  0  0  0  0  0  0  0  0  0  0
  1 10  1  0  0  0  0
  3  9  1  0  0  0  0
  3  5  2  0  0  0  0
  4  8  2  0  0  0  0
  5 11  1  0  0  0  0
  7  2  1  0  0  0  0
  7  4  1  0  0  0  0
  8  6  1  0  0  0  0
  9  7  2  0  0  0  0
 10  6  2  0  0  0  0
 11  4  1  0  0  0  0
 11  1  2  0  0  0  0
 12 17  1  0  0  0  0
 12  1  1  1  0  0  0
 12 13  1  0  0  0  0
 13 15  1  0  0  0  0
 14 19  1  0  0  0  0
 14 18  1  1  0  0  0
 16 17  2  0  0  0  0
 17 14  1  0  0  0  0
 19 15  1  0  0  0  0
 20 21  2  0  0  0  0
 21  3  1  0  0  0  0
 22 23  1  0  0  0  0
 22 20  2  0  0  0  0
 23 25  1  0  0  0  0
 24 23  1  0  0  0  0
 25 26  1  0  0  0  0
 26 28  3  0  0  0  0
 28 27  1  0  0  0  0
M  END
>  <MODEL>
1

>  <REMARK>
 VINA RESULT:      -7.4      0.000      0.000
  Name = 
  5 active torsions:
  status: ('A' for Active; 'I' for Inactive)
    1  A    between atoms: C_1  and  C_2
    2  A    between atoms: C_9  and  C_15
    3  A    between atoms: C_10  and  C_13
    4  A    between atoms: N_12  and  C_15
    5  A    between atoms: N_12  and  C_24
                            x       y       z     vdW  Elec       q    Type
                         _______ _______ _______ _____ _____    ______ ____

>  <TORSDO>
F 5

$$$$
=
 OpenBabel11052418023D

 28 30  0  0  1  0  0  0  0  0999 V2000
  189.7120  175.8730  145.1920 C   0  0  0  0  0  0  0  0  0  0  0  0
  185.9390  176.6100  148.1430 F   0  0  0  0  0  0  0  0  0  0  0  0
  186.6460  177.9640  144.8190 C   0  0  0  0  0  0  0  0  0  0  0  0
  187.8150  176.2280  146.6950 C   0  0  0  0  0  0  0  0  0  0  0  0
  187.8740  177.3510  144.5400 C   0  0  0  0  0  3  0  0  0  0  0  0
  189.6270  174.7620  147.3540 C   0  0  0  0  0  3  0  0  0  0  0  0
  186.5820  176.8400  146.9700 C   0  0  0  0  0  0  0  0  0  0  0  0
  188.4010  175.3670  147.6280 C   0  0  0  0  0  3  0  0  0  0  0  0
  186.0070  177.7040  146.0350 C   0  0  0  0  0  3  0  0  0  0  0  0
  190.2780  175.0120  146.1450 C   0  0  0  0  0  3  0  0  0  0  0  0
  188.4710  176.4840  145.4650 C   0  0  0  0  0  0  0  0  0  0  0  0
  190.4270  176.1280  143.8890 C   0  0  2  0  0  3  0  0  0  0  0  0
  190.9470  174.8250  143.2670 C   0  0  0  0  0  2  0  0  0  0  0  0
  192.9790  176.7390  143.9490 C   0  0  1  0  0  3  0  0  0  0  0  0
  192.1790  174.4620  143.8370 O   0  0  0  0  0  0  0  0  0  0  0  0
  191.2470  178.3160  144.2430 O   0  0  0  0  0  0  0  0  0  0  0  0
  191.5310  177.1470  144.0390 C   0  0  0  0  0  0  0  0  0  0  0  0
  193.6100  176.7380  145.3300 C   0  0  0  0  0  1  0  0  0  0  0  0
  193.1200  175.3580  143.3040 C   0  0  0  0  0  2  0  0  0  0  0  0
  185.8990  178.6320  142.5880 C   0  0  0  0  0  0  0  0  0  0  0  0
  186.0070  178.8850  143.8680 C   0  0  0  0  0  3  0  0  0  0  0  0
  185.7810  178.3980  141.3070 C   0  0  0  0  0  3  0  0  0  0  0  0
  186.7030  177.5730  140.5800 N   0  0  0  0  0  0  0  0  0  0  0  0
  186.3400  177.1530  139.2400 C   0  0  0  0  0  1  0  0  0  0  0  0
  187.9430  177.0610  141.1520 C   0  0  0  0  0  2  0  0  0  0  0  0
  187.8340  175.6200  141.4030 C   0  0  0  0  0  0  0  0  0  0  0  0
  187.6590  173.1010  141.8900 O   0  0  0  0  0  1  0  0  0  0  0  0
  187.7500  174.4380  141.6280 C   0  0  0  0  0  0  0  0  0  0  0  0
  1 11  2  0  0  0  0
  1 10  1  0  0  0  0
  3  9  1  0  0  0  0
  4  7  1  0  0  0  0
  4  8  2  0  0  0  0
  5  3  2  0  0  0  0
  5 11  1  0  0  0  0
  6  8  1  0  0  0  0
  7  2  1  0  0  0  0
  9  7  2  0  0  0  0
 10  6  2  0  0  0  0
 11  4  1  0  0  0  0
 12 17  1  0  0  0  0
 12  1  1  1  0  0  0
 13 15  1  0  0  0  0
 13 12  1  0  0  0  0
 14 17  1  0  0  0  0
 14 18  1  1  0  0  0
 17 16  2  0  0  0  0
 19 15  1  0  0  0  0
 19 14  1  0  0  0  0
 20 21  2  0  0  0  0
 21  3  1  0  0  0  0
 22 20  2  0  0  0  0
 23 25  1  0  0  0  0
 23 22  1  0  0  0  0
 24 23  1  0  0  0  0
 25 26  1  0  0  0  0
 26 28  3  0  0  0  0
 28 27  1  0  0  0  0
M  END
>  <MODEL>
2

>  <REMARK>
 VINA RESULT:      -7.4      2.052      3.431
  Name = 
  5 active torsions:
  status: ('A' for Active; 'I' for Inactive)
    1  A    between atoms: C_1  and  C_2
    2  A    between atoms: C_9  and  C_15
    3  A    between atoms: C_10  and  C_13
    4  A    between atoms: N_12  and  C_15
    5  A    between atoms: N_12  and  C_24
                            x       y       z     vdW  Elec       q    Type
                         _______ _______ _______ _____ _____    ______ ____

>  <TORSDO>
F 5

$$$$
=
 OpenBabel11052418023D

 28 30  0  0  1  0  0  0  0  0999 V2000
  192.0530  175.7640  145.3940 C   0  0  0  0  0  0  0  0  0  0  0  0
  187.5130  175.9030  147.0840 F   0  0  0  0  0  0  0  0  0  0  0  0
  188.8190  176.6180  143.7430 C   0  0  0  0  0  0  0  0  0  0  0  0
  189.7690  175.8240  146.2660 C   0  0  0  0  0  0  0  0  0  0  0  0
  190.1870  176.3850  143.9390 C   0  0  0  0  0  3  0  0  0  0  0  0
  191.6060  175.2070  147.7190 C   0  0  0  0  0  3  0  0  0  0  0  0
  188.3980  176.0540  146.0670 C   0  0  0  0  0  0  0  0  0  0  0  0
  190.2440  175.4320  147.5220 C   0  0  0  0  0  3  0  0  0  0  0  0
  187.9320  176.4510  144.8110 C   0  0  0  0  0  3  0  0  0  0  0  0
  192.5040  175.3710  146.6630 C   0  0  0  0  0  3  0  0  0  0  0  0
  190.6760  175.9900  145.1900 C   0  0  0  0  0  0  0  0  0  0  0  0
  193.0370  175.9320  144.2640 C   0  0  2  0  0  3  0  0  0  0  0  0
  193.0300  174.7180  143.3250 C   0  0  0  0  0  2  0  0  0  0  0  0
  195.5330  175.2140  144.6480 C   0  0  1  0  0  3  0  0  0  0  0  0
  193.8400  173.6920  143.8380 O   0  0  0  0  0  0  0  0  0  0  0  0
  194.6630  177.3150  145.2800 O   0  0  0  0  0  0  0  0  0  0  0  0
  194.4290  176.2330  144.7660 C   0  0  0  0  0  0  0  0  0  0  0  0
  195.8250  174.5980  146.0040 C   0  0  0  0  0  1  0  0  0  0  0  0
  195.1620  174.1200  143.6410 C   0  0  0  0  0  2  0  0  0  0  0  0
  187.3110  177.9090  142.3150 C   0  0  0  0  0  0  0  0  0  0  0  0
  188.2850  177.0440  142.4420 C   0  0  0  0  0  3  0  0  0  0  0  0
  186.3400  178.7720  142.1670 C   0  0  0  0  0  3  0  0  0  0  0  0
  185.3180  178.9680  143.1550 N   0  0  0  0  0  0  0  0  0  0  0  0
  184.0790  178.2270  143.0190 C   0  0  0  0  0  1  0  0  0  0  0  0
  185.4250  179.9410  144.2360 C   0  0  0  0  0  2  0  0  0  0  0  0
  185.4690  179.2610  145.5350 C   0  0  0  0  0  0  0  0  0  0  0  0
  185.5450  178.1110  147.8340 O   0  0  0  0  0  1  0  0  0  0  0  0
  185.5040  178.7180  146.6120 C   0  0  0  0  0  0  0  0  0  0  0  0
  1 10  1  0  0  0  0
  3  5  2  0  0  0  0
  3  9  1  0  0  0  0
  4  8  2  0  0  0  0
  5 11  1  0  0  0  0
  7  4  1  0  0  0  0
  7  2  1  0  0  0  0
  8  6  1  0  0  0  0
  9  7  2  0  0  0  0
 10  6  2  0  0  0  0
 11  1  2  0  0  0  0
 11  4  1  0  0  0  0
 12 17  1  0  0  0  0
 12  1  1  1  0  0  0
 13 15  1  0  0  0  0
 13 12  1  0  0  0  0
 14 17  1  0  0  0  0
 14 18  1  1  0  0  0
 17 16  2  0  0  0  0
 19 15  1  0  0  0  0
 19 14  1  0  0  0  0
 20 21  2  0  0  0  0
 21  3  1  0  0  0  0
 22 20  2  0  0  0  0
 22 23  1  0  0  0  0
 23 25  1  0  0  0  0
 24 23  1  0  0  0  0
 25 26  1  0  0  0  0
 26 28  3  0  0  0  0
 28 27  1  0  0  0  0
M  END
>  <MODEL>
3

>  <REMARK>
 VINA RESULT:      -7.4      2.986      5.327
  Name = 
  5 active torsions:
  status: ('A' for Active; 'I' for Inactive)
    1  A    between atoms: C_1  and  C_2
    2  A    between atoms: C_9  and  C_15
    3  A    between atoms: C_10  and  C_13
    4  A    between atoms: N_12  and  C_15
    5  A    between atoms: N_12  and  C_24
                            x       y       z     vdW  Elec       q    Type
                         _______ _______ _______ _____ _____    ______ ____

>  <TORSDO>
F 5

$$$$
=
 OpenBabel11052418023D

 28 30  0  0  1  0  0  0  0  0999 V2000
  187.2580  176.9510  144.3410 C   0  0  0  0  0  0  0  0  0  0  0  0
  190.5980  173.7550  142.8880 F   0  0  0  0  0  0  0  0  0  0  0  0
  190.6160  176.0800  145.7110 C   0  0  0  0  0  0  0  0  0  0  0  0
  188.9280  175.3290  143.5930 C   0  0  0  0  0  0  0  0  0  0  0  0
  189.3660  176.6930  145.5570 C   0  0  0  0  0  3  0  0  0  0  0  0
  186.8460  175.5740  142.3800 C   0  0  0  0  0  3  0  0  0  0  0  0
  190.1810  174.7140  143.7520 C   0  0  0  0  0  0  0  0  0  0  0  0
  188.0890  174.9590  142.5380 C   0  0  0  0  0  3  0  0  0  0  0  0
  191.0160  175.0930  144.8060 C   0  0  0  0  0  3  0  0  0  0  0  0
  186.4340  176.5620  143.2750 C   0  0  0  0  0  3  0  0  0  0  0  0
  188.5130  176.3300  144.5060 C   0  0  0  0  0  0  0  0  0  0  0  0
  186.7930  178.0170  145.3020 C   0  0  2  0  0  3  0  0  0  0  0  0
  186.0640  177.4100  146.5080 C   0  0  0  0  0  2  0  0  0  0  0  0
  184.4690  179.1650  144.8840 C   0  0  1  0  0  3  0  0  0  0  0  0
  184.7200  177.1500  146.1940 O   0  0  0  0  0  0  0  0  0  0  0  0
  186.4720  179.8410  143.8330 O   0  0  0  0  0  0  0  0  0  0  0  0
  185.9490  179.0660  144.6170 C   0  0  0  0  0  0  0  0  0  0  0  0
  183.6870  178.6240  143.7010 C   0  0  0  0  0  1  0  0  0  0  0  0
  184.0910  178.4050  146.1590 C   0  0  0  0  0  2  0  0  0  0  0  0
  192.8280  176.5450  146.6460 C   0  0  0  0  0  0  0  0  0  0  0  0
  191.5310  176.4520  146.8000 C   0  0  0  0  0  3  0  0  0  0  0  0
  194.1250  176.6440  146.5130 C   0  0  0  0  0  3  0  0  0  0  0  0
  194.8660  175.8870  145.5460 N   0  0  0  0  0  0  0  0  0  0  0  0
  194.9790  176.4150  144.2000 C   0  0  0  0  0  1  0  0  0  0  0  0
  195.4330  174.5720  145.8210 C   0  0  0  0  0  2  0  0  0  0  0  0
  194.5120  173.5160  145.3880 C   0  0  0  0  0  0  0  0  0  0  0  0
  192.8600  171.6960  144.6300 O   0  0  0  0  0  1  0  0  0  0  0  0
  193.7400  172.6600  145.0310 C   0  0  0  0  0  0  0  0  0  0  0  0
  1 11  1  0  0  0  0
  2  7  1  0  0  0  0
  3 21  1  0  0  0  0
  4  7  2  0  0  0  0
  4 11  1  0  0  0  0
  5  3  1  0  0  0  0
  6  8  2  0  0  0  0
  6 10  1  0  0  0  0
  7  9  1  0  0  0  0
  8  4  1  0  0  0  0
  9  3  2  0  0  0  0
 10  1  2  0  0  0  0
 11  5  2  0  0  0  0
 12  1  1  6  0  0  0
 12 13  1  0  0  0  0
 14 18  1  6  0  0  0
 14 19  1  0  0  0  0
 15 13  1  0  0  0  0
 16 17  2  0  0  0  0
 17 14  1  0  0  0  0
 17 12  1  0  0  0  0
 19 15  1  0  0  0  0
 20 21  2  0  0  0  0
 22 20  2  0  0  0  0
 23 25  1  0  0  0  0
 23 22  1  0  0  0  0
 24 23  1  0  0  0  0
 26 25  1  0  0  0  0
 27 28  1  0  0  0  0
 28 26  3  0  0  0  0
M  END
>  <MODEL>
4

>  <REMARK>
 VINA RESULT:      -7.0      3.542      6.292
  Name = 
  5 active torsions:
  status: ('A' for Active; 'I' for Inactive)
    1  A    between atoms: C_1  and  C_2
    2  A    between atoms: C_9  and  C_15
    3  A    between atoms: C_10  and  C_13
    4  A    between atoms: N_12  and  C_15
    5  A    between atoms: N_12  and  C_24
                            x       y       z     vdW  Elec       q    Type
                         _______ _______ _______ _____ _____    ______ ____

>  <TORSDO>
F 5

$$$$
=
 OpenBabel11052418023D

 28 30  0  0  1  0  0  0  0  0999 V2000
  190.6520  175.3280  143.4810 C   0  0  0  0  0  0  0  0  0  0  0  0
  187.8820  174.4300  139.6070 F   0  0  0  0  0  0  0  0  0  0  0  0
  187.8000  177.2090  141.9830 C   0  0  0  0  0  0  0  0  0  0  0  0
  189.2680  174.8580  141.5190 C   0  0  0  0  0  0  0  0  0  0  0  0
  188.8550  176.8590  142.8360 C   0  0  0  0  0  3  0  0  0  0  0  0
  191.0430  173.3340  142.1450 C   0  0  0  0  0  3  0  0  0  0  0  0
  188.2130  175.2140  140.6640 C   0  0  0  0  0  0  0  0  0  0  0  0
  189.9970  173.6870  141.2930 C   0  0  0  0  0  3  0  0  0  0  0  0
  187.4860  176.3830  140.9010 C   0  0  0  0  0  3  0  0  0  0  0  0
  191.3690  174.1480  143.2310 C   0  0  0  0  0  3  0  0  0  0  0  0
  189.5960  175.6900  142.6200 C   0  0  0  0  0  0  0  0  0  0  0  0
  191.0210  176.1980  144.6560 C   0  0  2  0  0  3  0  0  0  0  0  0
  192.0890  177.2320  144.2780 C   0  0  0  0  0  2  0  0  0  0  0  0
  192.8770  175.3610  146.3120 C   0  0  1  0  0  3  0  0  0  0  0  0
  193.3720  176.6620  144.3370 O   0  0  0  0  0  0  0  0  0  0  0  0
  190.6090  174.7250  146.4580 O   0  0  0  0  0  0  0  0  0  0  0  0
  191.4420  175.3820  145.8550 C   0  0  0  0  0  0  0  0  0  0  0  0
  193.5270  174.0410  145.9380 C   0  0  0  0  0  1  0  0  0  0  0  0
  193.6620  176.5270  145.7040 C   0  0  0  0  0  2  0  0  0  0  0  0
  186.4320  178.7150  143.3400 C   0  0  0  0  0  0  0  0  0  0  0  0
  187.0030  178.4250  142.1990 C   0  0  0  0  0  3  0  0  0  0  0  0
  185.8550  179.0240  144.4720 C   0  0  0  0  0  3  0  0  0  0  0  0
  185.4260  178.0350  145.4200 N   0  0  0  0  0  0  0  0  0  0  0  0
  184.2200  178.2910  146.1830 C   0  0  0  0  0  1  0  0  0  0  0  0
  186.1900  176.8300  145.7210 C   0  0  0  0  0  2  0  0  0  0  0  0
  187.4570  177.1760  146.3740 C   0  0  0  0  0  0  0  0  0  0  0  0
  189.6710  177.8280  147.5090 O   0  0  0  0  0  1  0  0  0  0  0  0
  188.4960  177.4780  146.9080 C   0  0  0  0  0  0  0  0  0  0  0  0
  2  7  1  0  0  0  0
  3 21  1  0  0  0  0
  3  5  2  0  0  0  0
  4 11  1  0  0  0  0
  6 10  2  0  0  0  0
  7  9  2  0  0  0  0
  7  4  1  0  0  0  0
  8  4  2  0  0  0  0
  8  6  1  0  0  0  0
  9  3  1  0  0  0  0
 10  1  1  0  0  0  0
 11  5  1  0  0  0  0
 11  1  2  0  0  0  0
 12  1  1  6  0  0  0
 12 17  1  0  0  0  0
 13 15  1  0  0  0  0
 13 12  1  0  0  0  0
 14 18  1  6  0  0  0
 15 19  1  0  0  0  0
 17 14  1  0  0  0  0
 17 16  2  0  0  0  0
 19 14  1  0  0  0  0
 20 22  2  0  0  0  0
 21 20  2  0  0  0  0
 22 23  1  0  0  0  0
 23 25  1  0  0  0  0
 23 24  1  0  0  0  0
 25 26  1  0  0  0  0
 26 28  3  0  0  0  0
 28 27  1  0  0  0  0
M  END
>  <MODEL>
5

>  <REMARK>
 VINA RESULT:      -6.9      2.606      5.288
  Name = 
  5 active torsions:
  status: ('A' for Active; 'I' for Inactive)
    1  A    between atoms: C_1  and  C_2
    2  A    between atoms: C_9  and  C_15
    3  A    between atoms: C_10  and  C_13
    4  A    between atoms: N_12  and  C_15
    5  A    between atoms: N_12  and  C_24
                            x       y       z     vdW  Elec       q    Type
                         _______ _______ _______ _____ _____    ______ ____

>  <TORSDO>
F 5

$$$$
=
 OpenBabel11052418023D

 28 30  0  0  1  0  0  0  0  0999 V2000
  190.9330  174.7110  145.0250 C   0  0  0  0  0  0  0  0  0  0  0  0
  190.0930  178.2170  148.2650 F   0  0  0  0  0  0  0  0  0  0  0  0
  187.8880  176.7410  145.7470 C   0  0  0  0  0  0  0  0  0  0  0  0
  190.5290  176.4750  146.6710 C   0  0  0  0  0  0  0  0  0  0  0  0
  188.7440  175.7970  145.1660 C   0  0  0  0  0  3  0  0  0  0  0  0
  192.7000  175.4090  146.5430 C   0  0  0  0  0  3  0  0  0  0  0  0
  189.6670  177.4180  147.2540 C   0  0  0  0  0  0  0  0  0  0  0  0
  191.8440  176.3440  147.1260 C   0  0  0  0  0  3  0  0  0  0  0  0
  188.3560  177.5470  146.7890 C   0  0  0  0  0  3  0  0  0  0  0  0
  192.2480  174.5980  145.5010 C   0  0  0  0  0  3  0  0  0  0  0  0
  190.0640  175.6530  145.6140 C   0  0  0  0  0  0  0  0  0  0  0  0
  190.4600  173.8230  143.9020 C   0  0  2  0  0  3  0  0  0  0  0  0
  190.1350  172.4090  144.4000 C   0  0  0  0  0  2  0  0  0  0  0  0
  192.2490  172.5550  142.4580 C   0  0  1  0  0  3  0  0  0  0  0  0
  191.3030  171.6320  144.4810 O   0  0  0  0  0  0  0  0  0  0  0  0
  191.5860  174.7850  142.0590 O   0  0  0  0  0  0  0  0  0  0  0  0
  191.4410  173.7920  142.7540 C   0  0  0  0  0  0  0  0  0  0  0  0
  193.6880  172.7520  142.8970 C   0  0  0  0  0  1  0  0  0  0  0  0
  191.6480  171.3300  143.1540 C   0  0  0  0  0  2  0  0  0  0  0  0
  186.1570  176.8680  144.0240 C   0  0  0  0  0  0  0  0  0  0  0  0
  186.5030  176.9170  145.2850 C   0  0  0  0  0  3  0  0  0  0  0  0
  185.7900  176.8230  142.7700 C   0  0  0  0  0  3  0  0  0  0  0  0
  186.6690  177.1730  141.6910 N   0  0  0  0  0  0  0  0  0  0  0  0
  186.1110  177.8720  140.5490 C   0  0  0  0  0  1  0  0  0  0  0  0
  188.0730  176.7830  141.6420 C   0  0  0  0  0  2  0  0  0  0  0  0
  188.2000  175.3700  141.2700 C   0  0  0  0  0  0  0  0  0  0  0  0
  188.3830  172.8960  140.5910 O   0  0  0  0  0  1  0  0  0  0  0  0
  188.2890  174.2090  140.9530 C   0  0  0  0  0  0  0  0  0  0  0  0
  1 10  2  0  0  0  0
  1 11  1  0  0  0  0
  3  9  1  0  0  0  0
  4  8  1  0  0  0  0
  4  7  1  0  0  0  0
  5 11  1  0  0  0  0
  5  3  2  0  0  0  0
  6  8  2  0  0  0  0
  7  2  1  0  0  0  0
  9  7  2  0  0  0  0
 10  6  1  0  0  0  0
 11  4  2  0  0  0  0
 12 13  1  0  0  0  0
 12  1  1  1  0  0  0
 13 15  1  0  0  0  0
 14 17  1  0  0  0  0
 14 18  1  1  0  0  0
 14 19  1  0  0  0  0
 16 17  2  0  0  0  0
 17 12  1  0  0  0  0
 19 15  1  0  0  0  0
 20 21  2  0  0  0  0
 21  3  1  0  0  0  0
 22 20  2  0  0  0  0
 23 22  1  0  0  0  0
 24 23  1  0  0  0  0
 25 23  1  0  0  0  0
 26 25  1  0  0  0  0
 27 28  1  0  0  0  0
 28 26  3  0  0  0  0
M  END
>  <MODEL>
6

>  <REMARK>
 VINA RESULT:      -6.9      2.798      4.926
  Name = 
  5 active torsions:
  status: ('A' for Active; 'I' for Inactive)
    1  A    between atoms: C_1  and  C_2
    2  A    between atoms: C_9  and  C_15
    3  A    between atoms: C_10  and  C_13
    4  A    between atoms: N_12  and  C_15
    5  A    between atoms: N_12  and  C_24
                            x       y       z     vdW  Elec       q    Type
                         _______ _______ _______ _____ _____    ______ ____

>  <TORSDO>
F 5

$$$$
=
 OpenBabel11052418023D

 28 30  0  0  1  0  0  0  0  0999 V2000
  189.3520  175.9760  144.9740 C   0  0  0  0  0  0  0  0  0  0  0  0
  186.3140  176.1400  148.7460 F   0  0  0  0  0  0  0  0  0  0  0  0
  186.3530  178.0880  145.6510 C   0  0  0  0  0  0  0  0  0  0  0  0
  187.8280  176.0390  146.8860 C   0  0  0  0  0  0  0  0  0  0  0  0
  187.4720  177.5420  145.0090 C   0  0  0  0  0  3  0  0  0  0  0  0
  189.6850  174.4840  146.8650 C   0  0  0  0  0  3  0  0  0  0  0  0
  186.7030  176.5850  147.5250 C   0  0  0  0  0  0  0  0  0  0  0  0
  188.5660  175.0230  147.5010 C   0  0  0  0  0  3  0  0  0  0  0  0
  185.9760  177.6050  146.9070 C   0  0  0  0  0  3  0  0  0  0  0  0
  190.0750  174.9570  145.6110 C   0  0  0  0  0  3  0  0  0  0  0  0
  188.2190  176.5220  145.6120 C   0  0  0  0  0  0  0  0  0  0  0  0
  189.7860  176.4710  143.6170 C   0  0  2  0  0  3  0  0  0  0  0  0
  189.9640  175.3140  142.6260 C   0  0  0  0  0  2  0  0  0  0  0  0
  192.3470  176.8280  143.1640 C   0  0  1  0  0  3  0  0  0  0  0  0
  191.2280  174.7210  142.7800 O   0  0  0  0  0  0  0  0  0  0  0  0
  190.9650  178.4340  144.2050 O   0  0  0  0  0  0  0  0  0  0  0  0
  191.0280  177.3260  143.6970 C   0  0  0  0  0  0  0  0  0  0  0  0
  193.2640  176.4440  144.3100 C   0  0  0  0  0  1  0  0  0  0  0  0
  192.1420  175.6330  142.2280 C   0  0  0  0  0  2  0  0  0  0  0  0
  185.0940  179.1100  143.8210 C   0  0  0  0  0  0  0  0  0  0  0  0
  185.5620  179.1670  145.0420 C   0  0  0  0  0  3  0  0  0  0  0  0
  184.6170  179.0730  142.6040 C   0  0  0  0  0  3  0  0  0  0  0  0
  185.2370  178.3240  141.5490 N   0  0  0  0  0  0  0  0  0  0  0  0
  186.6620  178.0660  141.6350 C   0  0  0  0  0  1  0  0  0  0  0  0
  184.5290  177.8870  140.3520 C   0  0  0  0  0  2  0  0  0  0  0  0
  183.0870  178.1180  140.4970 C   0  0  0  0  0  0  0  0  0  0  0  0
  180.5540  178.4740  140.7530 O   0  0  0  0  0  1  0  0  0  0  0  0
  181.8990  178.2880  140.6180 C   0  0  0  0  0  0  0  0  0  0  0  0
  1 10  2  0  0  0  0
  1 11  1  0  0  0  0
  3  9  1  0  0  0  0
  4  8  1  0  0  0  0
  4  7  1  0  0  0  0
  5 11  1  0  0  0  0
  5  3  2  0  0  0  0
  6  8  2  0  0  0  0
  7  2  1  0  0  0  0
  9  7  2  0  0  0  0
 10  6  1  0  0  0  0
 11  4  2  0  0  0  0
 12 17  1  0  0  0  0
 12  1  1  1  0  0  0
 13 15  1  0  0  0  0
 13 12  1  0  0  0  0
 14 17  1  0  0  0  0
 14 18  1  1  0  0  0
 17 16  2  0  0  0  0
 19 15  1  0  0  0  0
 19 14  1  0  0  0  0
 20 21  2  0  0  0  0
 21  3  1  0  0  0  0
 22 20  2  0  0  0  0
 23 24  1  0  0  0  0
 23 22  1  0  0  0  0
 25 26  1  0  0  0  0
 25 23  1  0  0  0  0
 26 28  3  0  0  0  0
 28 27  1  0  0  0  0
M  END
>  <MODEL>
7

>  <REMARK>
 VINA RESULT:      -6.9      2.905      5.005
  Name = 
  5 active torsions:
  status: ('A' for Active; 'I' for Inactive)
    1  A    between atoms: C_1  and  C_2
    2  A    between atoms: C_9  and  C_15
    3  A    between atoms: C_10  and  C_13
    4  A    between atoms: N_12  and  C_15
    5  A    between atoms: N_12  and  C_24
                            x       y       z     vdW  Elec       q    Type
                         _______ _______ _______ _____ _____    ______ ____

>  <TORSDO>
F 5

$$$$
=
 OpenBabel11052418023D

 28 30  0  0  1  0  0  0  0  0999 V2000
  190.7560  174.6870  145.1340 C   0  0  0  0  0  0  0  0  0  0  0  0
  190.2570  178.2890  148.3380 F   0  0  0  0  0  0  0  0  0  0  0  0
  187.8550  176.8780  145.9680 C   0  0  0  0  0  0  0  0  0  0  0  0
  190.5240  176.4990  146.7600 C   0  0  0  0  0  0  0  0  0  0  0  0
  188.6330  175.8820  145.3630 C   0  0  0  0  0  3  0  0  0  0  0  0
  192.6320  175.3250  146.5450 C   0  0  0  0  0  3  0  0  0  0  0  0
  189.7400  177.4940  147.3670 C   0  0  0  0  0  0  0  0  0  0  0  0
  191.8540  176.3110  147.1500 C   0  0  0  0  0  3  0  0  0  0  0  0
  188.4150  177.6790  146.9670 C   0  0  0  0  0  3  0  0  0  0  0  0
  192.0870  174.5180  145.5440 C   0  0  0  0  0  3  0  0  0  0  0  0
  189.9660  175.6810  145.7460 C   0  0  0  0  0  0  0  0  0  0  0  0
  190.1830  173.8030  144.0550 C   0  0  2  0  0  3  0  0  0  0  0  0
  190.0670  172.3460  144.5230 C   0  0  0  0  0  2  0  0  0  0  0  0
  191.8120  172.7640  142.2780 C   0  0  1  0  0  3  0  0  0  0  0  0
  191.2950  171.6800  144.3740 O   0  0  0  0  0  0  0  0  0  0  0  0
  190.9040  174.9360  142.1100 O   0  0  0  0  0  0  0  0  0  0  0  0
  190.9610  173.9080  142.7650 C   0  0  0  0  0  0  0  0  0  0  0  0
  193.2820  173.0780  142.4910 C   0  0  0  0  0  1  0  0  0  0  0  0
  191.4410  171.4620  142.9950 C   0  0  0  0  0  2  0  0  0  0  0  0
  186.0220  176.9510  144.3500 C   0  0  0  0  0  0  0  0  0  0  0  0
  186.4580  177.1130  145.5740 C   0  0  0  0  0  3  0  0  0  0  0  0
  185.5660  176.7950  143.1350 C   0  0  0  0  0  3  0  0  0  0  0  0
  186.3900  176.9470  141.9710 N   0  0  0  0  0  0  0  0  0  0  0  0
  187.6060  176.1620  141.8820 C   0  0  0  0  0  1  0  0  0  0  0  0
  186.1160  177.9170  140.9160 C   0  0  0  0  0  2  0  0  0  0  0  0
  184.6710  178.1120  140.7620 C   0  0  0  0  0  0  0  0  0  0  0  0
  182.1410  178.4990  140.5130 O   0  0  0  0  0  1  0  0  0  0  0  0
  183.4840  178.2910  140.6430 C   0  0  0  0  0  0  0  0  0  0  0  0
  1 10  2  0  0  0  0
  1 11  1  0  0  0  0
  3  9  1  0  0  0  0
  4  8  1  0  0  0  0
  4  7  1  0  0  0  0
  5 11  1  0  0  0  0
  5  3  2  0  0  0  0
  6  8  2  0  0  0  0
  7  2  1  0  0  0  0
  9  7  2  0  0  0  0
 10  6  1  0  0  0  0
 11  4  2  0  0  0  0
 12 13  1  0  0  0  0
 12  1  1  1  0  0  0
 14 18  1  1  0  0  0
 14 17  1  0  0  0  0
 14 19  1  0  0  0  0
 15 13  1  0  0  0  0
 16 17  2  0  0  0  0
 17 12  1  0  0  0  0
 19 15  1  0  0  0  0
 20 21  2  0  0  0  0
 21  3  1  0  0  0  0
 22 20  2  0  0  0  0
 23 22  1  0  0  0  0
 24 23  1  0  0  0  0
 25 23  1  0  0  0  0
 26 25  1  0  0  0  0
 27 28  1  0  0  0  0
 28 26  3  0  0  0  0
M  END
>  <MODEL>
8

>  <REMARK>
 VINA RESULT:      -6.8      3.159      5.515
  Name = 
  5 active torsions:
  status: ('A' for Active; 'I' for Inactive)
    1  A    between atoms: C_1  and  C_2
    2  A    between atoms: C_9  and  C_15
    3  A    between atoms: C_10  and  C_13
    4  A    between atoms: N_12  and  C_15
    5  A    between atoms: N_12  and  C_24
                            x       y       z     vdW  Elec       q    Type
                         _______ _______ _______ _____ _____    ______ ____

>  <TORSDO>
F 5

$$$$
=
 OpenBabel11052418023D

 28 30  0  0  1  0  0  0  0  0999 V2000
  188.3060  175.6370  143.3690 C   0  0  0  0  0  0  0  0  0  0  0  0
  190.9570  171.6010  143.7840 F   0  0  0  0  0  0  0  0  0  0  0  0
  191.1470  174.7580  145.6200 C   0  0  0  0  0  0  0  0  0  0  0  0
  189.6290  173.5880  143.5650 C   0  0  0  0  0  0  0  0  0  0  0  0
  190.1100  175.4790  145.0150 C   0  0  0  0  0  3  0  0  0  0  0  0
  187.8460  173.7300  141.9310 C   0  0  0  0  0  3  0  0  0  0  0  0
  190.6670  172.8670  144.1760 C   0  0  0  0  0  0  0  0  0  0  0  0
  188.8750  173.0100  142.5390 C   0  0  0  0  0  3  0  0  0  0  0  0
  191.4190  173.4550  145.1960 C   0  0  0  0  0  3  0  0  0  0  0  0
  187.5640  175.0330  142.3420 C   0  0  0  0  0  3  0  0  0  0  0  0
  189.3450  174.9110  143.9880 C   0  0  0  0  0  0  0  0  0  0  0  0
  187.9830  177.0440  143.8040 C   0  0  2  0  0  3  0  0  0  0  0  0
  186.7170  177.0890  144.6690 C   0  0  0  0  0  2  0  0  0  0  0  0
  186.5570  178.5620  142.2060 C   0  0  1  0  0  3  0  0  0  0  0  0
  185.5670  177.1070  143.8620 O   0  0  0  0  0  0  0  0  0  0  0  0
  188.8940  178.2920  142.0150 O   0  0  0  0  0  0  0  0  0  0  0  0
  187.8850  177.9900  142.6310 C   0  0  0  0  0  0  0  0  0  0  0  0
  186.0790  177.8880  140.9330 C   0  0  0  0  0  1  0  0  0  0  0  0
  185.5110  178.3990  143.3140 C   0  0  0  0  0  2  0  0  0  0  0  0
  193.2040  175.7350  146.5120 C   0  0  0  0  0  0  0  0  0  0  0  0
  191.9700  175.3390  146.6910 C   0  0  0  0  0  3  0  0  0  0  0  0
  194.4380  176.1380  146.3540 C   0  0  0  0  0  3  0  0  0  0  0  0
  195.3180  175.5760  145.3690 N   0  0  0  0  0  0  0  0  0  0  0  0
  196.1770  174.4750  145.7630 C   0  0  0  0  0  1  0  0  0  0  0  0
  195.4590  176.1130  144.0210 C   0  0  0  0  0  2  0  0  0  0  0  0
  194.2610  175.8250  143.2260 C   0  0  0  0  0  0  0  0  0  0  0  0
  192.1440  175.2910  141.8680 O   0  0  0  0  0  1  0  0  0  0  0  0
  193.2690  175.5770  142.5860 C   0  0  0  0  0  0  0  0  0  0  0  0
  1 11  1  0  0  0  0
  2  7  1  0  0  0  0
  3 21  1  0  0  0  0
  4 11  2  0  0  0  0
  4  7  1  0  0  0  0
  5  3  2  0  0  0  0
  6 10  1  0  0  0  0
  6  8  2  0  0  0  0
  7  9  2  0  0  0  0
  8  4  1  0  0  0  0
  9  3  1  0  0  0  0
 10  1  2  0  0  0  0
 11  5  1  0  0  0  0
 12  1  1  6  0  0  0
 12 13  1  0  0  0  0
 14 18  1  6  0  0  0
 14 17  1  0  0  0  0
 14 19  1  0  0  0  0
 15 13  1  0  0  0  0
 16 17  2  0  0  0  0
 17 12  1  0  0  0  0
 19 15  1  0  0  0  0
 20 21  2  0  0  0  0
 22 20  2  0  0  0  0
 23 24  1  0  0  0  0
 23 22  1  0  0  0  0
 25 23  1  0  0  0  0
 26 25  1  0  0  0  0
 27 28  1  0  0  0  0
 28 26  3  0  0  0  0
M  END
>  <MODEL>
9

>  <REMARK>
 VINA RESULT:      -6.8      3.601      6.674
  Name = 
  5 active torsions:
  status: ('A' for Active; 'I' for Inactive)
    1  A    between atoms: C_1  and  C_2
    2  A    between atoms: C_9  and  C_15
    3  A    between atoms: C_10  and  C_13
    4  A    between atoms: N_12  and  C_15
    5  A    between atoms: N_12  and  C_24
                            x       y       z     vdW  Elec       q    Type
                         _______ _______ _______ _____ _____    ______ ____

>  <TORSDO>
F 5

$$$$
