=
 OpenBabel11052418223D

 27 29  0  0  1  0  0  0  0  0999 V2000
  189.2800  177.1030  144.2030 C   0  0  2  0  0  3  0  0  0  0  0  0
  189.0020  173.9200  141.1830 N   0  0  0  0  0  0  0  0  0  0  0  0
  190.7890  173.2320  139.7840 N   0  0  0  0  0  1  0  0  0  0  0  0
  187.2760  176.9020  142.7260 C   0  0  0  0  0  0  0  0  0  0  0  0
  190.4130  176.6950  143.2770 C   0  0  0  0  0  2  0  0  0  0  0  0
  191.4410  174.3180  142.1510 S   0  0  0  0  0  0  0  0  0  0  0  0
  188.2300  177.8400  143.3920 C   0  0  0  0  0  2  0  0  0  0  0  0
  190.3100  173.2930  141.1530 C   0  0  1  0  0  3  0  0  0  0  0  0
  188.9430  175.1190  141.9370 C   0  0  0  0  0  0  0  0  0  0  0  0
  190.1060  175.4570  142.4990 C   0  0  2  0  0  3  0  0  0  0  0  0
  187.6250  175.7790  142.0850 C   0  0  0  0  0  3  0  0  0  0  0  0
  185.8290  177.2700  142.7370 C   0  0  0  0  0  2  0  0  0  0  0  0
  184.4360  178.0750  146.7140 C   0  0  0  0  0  3  0  0  0  0  0  0
  185.3600  177.5560  144.1240 C   0  0  0  0  0  0  0  0  0  0  0  0
  185.5030  176.5890  145.1270 C   0  0  0  0  0  3  0  0  0  0  0  0
  185.0420  176.8500  146.4220 C   0  0  0  0  0  3  0  0  0  0  0  0
  184.2870  179.0400  145.7130 C   0  0  0  0  0  3  0  0  0  0  0  0
  184.7470  178.7790  144.4180 C   0  0  0  0  0  3  0  0  0  0  0  0
  189.7260  177.8350  145.3300 O   0  0  0  0  0  0  0  0  0  0  0  0
  188.1960  178.0220  147.1680 C   0  0  0  0  0  1  0  0  0  0  0  0
  189.3010  177.2080  146.5180 C   0  0  1  0  0  3  0  0  0  0  0  0
  188.8460  175.7720  146.2550 C   0  0  0  0  0  2  0  0  0  0  0  0
  189.7380  174.7250  146.9130 C   0  0  0  0  0  2  0  0  0  0  0  0
  190.8990  175.3890  147.6370 C   0  0  0  0  0  2  0  0  0  0  0  0
  192.2160  175.0790  146.9450 C   0  0  2  0  0  3  0  0  0  0  0  0
  192.9690  176.3620  146.6460 C   0  0  0  0  0  1  0  0  0  0  0  0
  191.9640  174.4060  145.7510 O   0  0  0  0  0  1  0  0  0  0  0  0
  1 19  1  1  0  0  0
  2  9  2  0  0  0  0
  4 12  1  0  0  0  0
  4  7  1  0  0  0  0
  5  1  1  0  0  0  0
  6 10  1  0  0  0  0
  7  1  1  0  0  0  0
  8  3  1  6  0  0  0
  8  2  1  0  0  0  0
  8  6  1  0  0  0  0
  9 11  1  0  0  0  0
  9 10  1  0  0  0  0
 10  5  1  6  0  0  0
 11  4  2  0  0  0  0
 12 14  1  0  0  0  0
 14 18  2  0  0  0  0
 14 15  1  0  0  0  0
 15 16  2  0  0  0  0
 16 13  1  0  0  0  0
 17 13  2  0  0  0  0
 18 17  1  0  0  0  0
 19 21  1  0  0  0  0
 21 20  1  6  0  0  0
 22 21  1  0  0  0  0
 22 23  1  0  0  0  0
 23 24  1  0  0  0  0
 25 26  1  6  0  0  0
 25 24  1  0  0  0  0
 27 25  1  0  0  0  0
M  END
>  <MODEL>
1

>  <REMARK>
 VINA RESULT:      -6.7      0.000      0.000
  Name = 
  8 active torsions:
  status: ('A' for Active; 'I' for Inactive)
    1  A    between atoms: C_1  and  C_24
    2  A    between atoms: C_2  and  C_6
    3  A    between atoms: C_2  and  C_9
    4  A    between atoms: C_3  and  O_26
    5  A    between atoms: C_13  and  C_20
    6  A    between atoms: C_13  and  C_22
    7  A    between atoms: C_20  and  O_26
    8  A    between atoms: C_22  and  C_24
                            x       y       z     vdW  Elec       q    Type
                         _______ _______ _______ _____ _____    ______ ____

>  <TORSDO>
F 8

$$$$
=
 OpenBabel11052418223D

 27 29  0  0  1  0  0  0  0  0999 V2000
  189.2920  177.2300  144.1920 C   0  0  2  0  0  3  0  0  0  0  0  0
  192.4880  176.3250  147.0720 N   0  0  0  0  0  2  0  0  0  0  0  0
  194.6310  175.4950  146.4880 N   0  0  0  0  0  1  0  0  0  0  0  0
  188.7910  176.0750  146.3490 C   0  0  0  0  0  0  0  0  0  0  0  0
  190.6480  176.6570  143.8200 C   0  0  0  0  0  2  0  0  0  0  0  0
  193.3360  176.9430  144.6350 S   0  0  0  0  0  0  0  0  0  0  0  0
  188.4820  176.1520  144.8900 C   0  0  0  0  0  2  0  0  0  0  0  0
  193.7300  176.6290  146.3880 C   0  0  1  0  0  3  0  0  0  0  0  0
  191.3410  176.3390  146.2400 C   0  0  0  0  0  0  0  0  0  0  0  0
  191.6050  176.6420  144.9670 C   0  0  0  0  0  0  0  0  0  0  0  0
  190.0210  176.1170  146.8770 C   0  0  0  0  0  3  0  0  0  0  0  0
  187.6430  175.8890  147.2860 C   0  0  0  0  0  2  0  0  0  0  0  0
  184.6440  178.9060  146.7320 C   0  0  0  0  0  3  0  0  0  0  0  0
  186.6070  176.9430  147.0780 C   0  0  0  0  0  0  0  0  0  0  0  0
  186.8390  178.2520  147.5180 C   0  0  0  0  0  3  0  0  0  0  0  0
  185.8580  179.2330  147.3430 C   0  0  0  0  0  3  0  0  0  0  0  0
  184.4080  177.5980  146.2970 C   0  0  0  0  0  3  0  0  0  0  0  0
  185.3890  176.6170  146.4720 C   0  0  0  0  0  3  0  0  0  0  0  0
  188.6160  177.8070  143.0900 O   0  0  0  0  0  0  0  0  0  0  0  0
  186.3820  178.6280  143.3980 C   0  0  0  0  0  1  0  0  0  0  0  0
  187.2600  177.4250  143.0970 C   0  0  1  0  0  3  0  0  0  0  0  0
  186.8600  176.7690  141.7750 C   0  0  0  0  0  2  0  0  0  0  0  0
  187.8910  175.7700  141.2610 C   0  0  0  0  0  2  0  0  0  0  0  0
  187.7260  174.4250  141.9510 C   0  0  0  0  0  2  0  0  0  0  0  0
  188.9090  173.5180  141.6580 C   0  0  2  0  0  3  0  0  0  0  0  0
  189.2150  172.6460  142.8610 C   0  0  0  0  0  1  0  0  0  0  0  0
  190.0250  174.2950  141.3580 O   0  0  0  0  0  1  0  0  0  0  0  0
  1 19  1  6  0  0  0
  1  7  1  0  0  0  0
  4 11  2  0  0  0  0
  4 12  1  0  0  0  0
  5  1  1  0  0  0  0
  5 10  1  0  0  0  0
  6 10  1  0  0  0  0
  6  8  1  0  0  0  0
  7  4  1  0  0  0  0
  8  3  1  6  0  0  0
  8  2  1  0  0  0  0
  9 11  1  0  0  0  0
  9  2  1  0  0  0  0
 10  9  2  0  0  0  0
 13 16  1  0  0  0  0
 14 12  1  0  0  0  0
 14 15  1  0  0  0  0
 16 15  2  0  0  0  0
 17 18  1  0  0  0  0
 17 13  2  0  0  0  0
 18 14  2  0  0  0  0
 19 21  1  0  0  0  0
 21 20  1  6  0  0  0
 22 21  1  0  0  0  0
 23 22  1  0  0  0  0
 23 24  1  0  0  0  0
 25 24  1  0  0  0  0
 25 26  1  1  0  0  0
 27 25  1  0  0  0  0
M  END
>  <MODEL>
2

>  <REMARK>
 VINA RESULT:      -6.6      2.715      4.668
  Name = 
  8 active torsions:
  status: ('A' for Active; 'I' for Inactive)
    1  A    between atoms: C_1  and  C_24
    2  A    between atoms: C_2  and  C_6
    3  A    between atoms: C_2  and  C_9
    4  A    between atoms: C_3  and  O_26
    5  A    between atoms: C_13  and  C_20
    6  A    between atoms: C_13  and  C_22
    7  A    between atoms: C_20  and  O_26
    8  A    between atoms: C_22  and  C_24
                            x       y       z     vdW  Elec       q    Type
                         _______ _______ _______ _____ _____    ______ ____

>  <TORSDO>
F 8

$$$$
=
 OpenBabel11052418223D

 27 29  0  0  1  0  0  0  0  0999 V2000
  189.1770  176.6950  144.3060 C   0  0  2  0  0  3  0  0  0  0  0  0
  188.2850  173.1410  141.8770 N   0  0  0  0  0  0  0  0  0  0  0  0
  189.8930  171.9250  140.6300 N   0  0  0  0  0  1  0  0  0  0  0  0
  187.1360  176.5970  142.8710 C   0  0  0  0  0  0  0  0  0  0  0  0
  190.2010  175.9440  143.4730 C   0  0  0  0  0  2  0  0  0  0  0  0
  190.7770  173.2690  142.7790 S   0  0  0  0  0  0  0  0  0  0  0  0
  188.2510  177.4550  143.3730 C   0  0  0  0  0  2  0  0  0  0  0  0
  189.4640  172.3010  141.9640 C   0  0  1  0  0  3  0  0  0  0  0  0
  188.4510  174.4430  142.4130 C   0  0  0  0  0  0  0  0  0  0  0  0
  189.6670  174.6650  142.9170 C   0  0  2  0  0  3  0  0  0  0  0  0
  187.2700  175.3380  142.4350 C   0  0  0  0  0  3  0  0  0  0  0  0
  185.7740  177.2080  142.8080 C   0  0  0  0  0  2  0  0  0  0  0  0
  184.3620  178.1630  146.7440 C   0  0  0  0  0  3  0  0  0  0  0  0
  185.2690  177.5310  144.1740 C   0  0  0  0  0  0  0  0  0  0  0  0
  184.4800  178.6700  144.3800 C   0  0  0  0  0  3  0  0  0  0  0  0
  184.0250  178.9840  145.6640 C   0  0  0  0  0  3  0  0  0  0  0  0
  185.1550  177.0290  146.5430 C   0  0  0  0  0  3  0  0  0  0  0  0
  185.6090  176.7150  145.2580 C   0  0  0  0  0  3  0  0  0  0  0  0
  189.7690  177.5200  145.2940 O   0  0  0  0  0  0  0  0  0  0  0  0
  188.7690  175.6820  146.4670 C   0  0  0  0  0  1  0  0  0  0  0  0
  189.5160  177.0000  146.5780 C   0  0  1  0  0  3  0  0  0  0  0  0
  190.8110  176.8330  147.3750 C   0  0  0  0  0  2  0  0  0  0  0  0
  191.3010  175.3910  147.4360 C   0  0  0  0  0  2  0  0  0  0  0  0
  192.5490  175.2120  146.5850 C   0  0  0  0  0  2  0  0  0  0  0  0
  193.1080  176.5590  146.1570 C   0  0  2  0  0  3  0  0  0  0  0  0
  193.5130  176.5200  144.6950 C   0  0  0  0  0  1  0  0  0  0  0  0
  194.2220  176.8660  146.9340 O   0  0  0  0  0  1  0  0  0  0  0  0
  1 19  1  1  0  0  0
  2  8  1  0  0  0  0
  2  9  2  0  0  0  0
  4  7  1  0  0  0  0
  5  1  1  0  0  0  0
  6 10  1  0  0  0  0
  7  1  1  0  0  0  0
  8  3  1  6  0  0  0
  8  6  1  0  0  0  0
  9 11  1  0  0  0  0
  9 10  1  0  0  0  0
 10  5  1  6  0  0  0
 11  4  2  0  0  0  0
 12  4  1  0  0  0  0
 12 14  1  0  0  0  0
 14 15  2  0  0  0  0
 14 18  1  0  0  0  0
 15 16  1  0  0  0  0
 16 13  2  0  0  0  0
 17 13  1  0  0  0  0
 18 17  2  0  0  0  0
 19 21  1  0  0  0  0
 21 20  1  6  0  0  0
 21 22  1  0  0  0  0
 22 23  1  0  0  0  0
 24 23  1  0  0  0  0
 25 26  1  6  0  0  0
 25 24  1  0  0  0  0
 25 27  1  0  0  0  0
M  END
>  <MODEL>
3

>  <REMARK>
 VINA RESULT:      -6.6      1.101      1.677
  Name = 
  8 active torsions:
  status: ('A' for Active; 'I' for Inactive)
    1  A    between atoms: C_1  and  C_24
    2  A    between atoms: C_2  and  C_6
    3  A    between atoms: C_2  and  C_9
    4  A    between atoms: C_3  and  O_26
    5  A    between atoms: C_13  and  C_20
    6  A    between atoms: C_13  and  C_22
    7  A    between atoms: C_20  and  O_26
    8  A    between atoms: C_22  and  C_24
                            x       y       z     vdW  Elec       q    Type
                         _______ _______ _______ _____ _____    ______ ____

>  <TORSDO>
F 8

$$$$
=
 OpenBabel11052418223D

 27 29  0  0  1  0  0  0  0  0999 V2000
  188.7900  176.9440  142.8600 C   0  0  2  0  0  3  0  0  0  0  0  0
  184.5150  177.8390  142.3590 N   0  0  0  0  0  2  0  0  0  0  0  0
  183.5880  178.9810  140.5000 N   0  0  0  0  0  1  0  0  0  0  0  0
  187.4100  177.7470  144.7810 C   0  0  0  0  0  0  0  0  0  0  0  0
  188.2050  177.7150  141.6900 C   0  0  0  0  0  2  0  0  0  0  0  0
  185.8780  177.6420  140.0920 S   0  0  0  0  0  0  0  0  0  0  0  0
  188.7370  177.8220  144.0980 C   0  0  0  0  0  2  0  0  0  0  0  0
  184.2650  177.7730  140.9320 C   0  0  1  0  0  3  0  0  0  0  0  0
  185.8860  177.7980  142.7180 C   0  0  0  0  0  0  0  0  0  0  0  0
  186.7110  177.6940  141.6740 C   0  0  0  0  0  0  0  0  0  0  0  0
  186.2240  177.7810  144.1610 C   0  0  0  0  0  3  0  0  0  0  0  0
  187.4080  177.6760  146.2720 C   0  0  0  0  0  2  0  0  0  0  0  0
  190.7450  175.3640  147.6610 C   0  0  0  0  0  3  0  0  0  0  0  0
  188.5630  176.8730  146.7720 C   0  0  0  0  0  0  0  0  0  0  0  0
  189.7290  177.5150  147.2050 C   0  0  0  0  0  3  0  0  0  0  0  0
  190.8190  176.7600  147.6520 C   0  0  0  0  0  3  0  0  0  0  0  0
  189.5830  174.7210  147.2220 C   0  0  0  0  0  3  0  0  0  0  0  0
  188.4940  175.4750  146.7760 C   0  0  0  0  0  3  0  0  0  0  0  0
  190.0860  176.4390  142.5940 O   0  0  0  0  0  0  0  0  0  0  0  0
  189.5070  174.2540  143.3990 C   0  0  0  0  0  1  0  0  0  0  0  0
  190.4280  175.4530  143.5410 C   0  0  1  0  0  3  0  0  0  0  0  0
  191.8940  175.0400  143.4080 C   0  0  0  0  0  2  0  0  0  0  0  0
  192.7230  175.3470  144.6510 C   0  0  0  0  0  2  0  0  0  0  0  0
  193.0090  176.8380  144.7500 C   0  0  0  0  0  2  0  0  0  0  0  0
  194.3630  177.0870  145.3940 C   0  0  2  0  0  3  0  0  0  0  0  0
  195.4540  176.3710  144.6190 C   0  0  0  0  0  1  0  0  0  0  0  0
  194.3460  176.6160  146.7040 O   0  0  0  0  0  1  0  0  0  0  0  0
  1 19  1  6  0  0  0
  1  7  1  0  0  0  0
  2  9  1  0  0  0  0
  4 12  1  0  0  0  0
  5  1  1  0  0  0  0
  6  8  1  0  0  0  0
  6 10  1  0  0  0  0
  7  4  1  0  0  0  0
  8  3  1  6  0  0  0
  8  2  1  0  0  0  0
  9 11  1  0  0  0  0
 10  5  1  0  0  0  0
 10  9  2  0  0  0  0
 11  4  2  0  0  0  0
 12 14  1  0  0  0  0
 14 18  2  0  0  0  0
 14 15  1  0  0  0  0
 15 16  2  0  0  0  0
 16 13  1  0  0  0  0
 17 13  2  0  0  0  0
 18 17  1  0  0  0  0
 19 21  1  0  0  0  0
 21 20  1  6  0  0  0
 22 21  1  0  0  0  0
 22 23  1  0  0  0  0
 23 24  1  0  0  0  0
 24 25  1  0  0  0  0
 25 26  1  6  0  0  0
 25 27  1  0  0  0  0
M  END
>  <MODEL>
4

>  <REMARK>
 VINA RESULT:      -6.5      2.924      4.858
  Name = 
  8 active torsions:
  status: ('A' for Active; 'I' for Inactive)
    1  A    between atoms: C_1  and  C_24
    2  A    between atoms: C_2  and  C_6
    3  A    between atoms: C_2  and  C_9
    4  A    between atoms: C_3  and  O_26
    5  A    between atoms: C_13  and  C_20
    6  A    between atoms: C_13  and  C_22
    7  A    between atoms: C_20  and  O_26
    8  A    between atoms: C_22  and  C_24
                            x       y       z     vdW  Elec       q    Type
                         _______ _______ _______ _____ _____    ______ ____

>  <TORSDO>
F 8

$$$$
=
 OpenBabel11052418223D

 27 29  0  0  1  0  0  0  0  0999 V2000
  189.6110  176.8560  144.0820 C   0  0  2  0  0  3  0  0  0  0  0  0
  186.2910  176.9340  146.9630 N   0  0  0  0  0  2  0  0  0  0  0  0
  184.2870  178.1690  146.6740 N   0  0  0  0  0  1  0  0  0  0  0  0
  190.0410  177.0140  146.5370 C   0  0  0  0  0  0  0  0  0  0  0  0
  188.3470  177.6830  143.9160 C   0  0  0  0  0  2  0  0  0  0  0  0
  185.5880  177.4160  144.4500 S   0  0  0  0  0  0  0  0  0  0  0  0
  190.4580  177.4760  145.1790 C   0  0  0  0  0  2  0  0  0  0  0  0
  185.0850  177.0670  146.1680 C   0  0  1  0  0  3  0  0  0  0  0  0
  187.4950  177.1120  146.2370 C   0  0  0  0  0  0  0  0  0  0  0  0
  187.3070  177.3610  144.9390 C   0  0  0  0  0  0  0  0  0  0  0  0
  188.7740  176.9130  146.9590 C   0  0  0  0  0  3  0  0  0  0  0  0
  191.1220  176.6860  147.5130 C   0  0  0  0  0  2  0  0  0  0  0  0
  194.4080  174.6800  145.6200 C   0  0  0  0  0  3  0  0  0  0  0  0
  192.2600  175.9940  146.8390 C   0  0  0  0  0  0  0  0  0  0  0  0
  192.1000  174.6900  146.3540 C   0  0  0  0  0  3  0  0  0  0  0  0
  193.1740  174.0340  145.7430 C   0  0  0  0  0  3  0  0  0  0  0  0
  194.5710  175.9800  146.1090 C   0  0  0  0  0  3  0  0  0  0  0  0
  193.4980  176.6350  146.7200 C   0  0  0  0  0  3  0  0  0  0  0  0
  190.3170  176.6790  142.8680 O   0  0  0  0  0  0  0  0  0  0  0  0
  191.7450  174.8020  142.4290 C   0  0  0  0  0  1  0  0  0  0  0  0
  190.3190  175.3190  142.4990 C   0  0  1  0  0  3  0  0  0  0  0  0
  189.4760  174.4820  143.4610 C   0  0  0  0  0  2  0  0  0  0  0  0
  190.1170  173.1450  143.8190 C   0  0  0  0  0  2  0  0  0  0  0  0
  189.3290  171.9940  143.2130 C   0  0  0  0  0  2  0  0  0  0  0  0
  190.1880  171.2080  142.2360 C   0  0  2  0  0  3  0  0  0  0  0  0
  191.6050  171.0810  142.7630 C   0  0  0  0  0  1  0  0  0  0  0  0
  190.2120  171.8660  141.0080 O   0  0  0  0  0  1  0  0  0  0  0  0
  1 19  1  6  0  0  0
  1  7  1  0  0  0  0
  4 11  2  0  0  0  0
  4 12  1  0  0  0  0
  5  1  1  0  0  0  0
  5 10  1  0  0  0  0
  6 10  1  0  0  0  0
  6  8  1  0  0  0  0
  7  4  1  0  0  0  0
  8  3  1  1  0  0  0
  8  2  1  0  0  0  0
  9 11  1  0  0  0  0
  9  2  1  0  0  0  0
 10  9  2  0  0  0  0
 13 16  2  0  0  0  0
 13 17  1  0  0  0  0
 14 12  1  0  0  0  0
 15 14  2  0  0  0  0
 16 15  1  0  0  0  0
 17 18  2  0  0  0  0
 18 14  1  0  0  0  0
 21 20  1  1  0  0  0
 21 19  1  0  0  0  0
 21 22  1  0  0  0  0
 22 23  1  0  0  0  0
 24 23  1  0  0  0  0
 25 26  1  1  0  0  0
 25 24  1  0  0  0  0
 27 25  1  0  0  0  0
M  END
>  <MODEL>
5

>  <REMARK>
 VINA RESULT:      -6.4      3.156      6.605
  Name = 
  8 active torsions:
  status: ('A' for Active; 'I' for Inactive)
    1  A    between atoms: C_1  and  C_24
    2  A    between atoms: C_2  and  C_6
    3  A    between atoms: C_2  and  C_9
    4  A    between atoms: C_3  and  O_26
    5  A    between atoms: C_13  and  C_20
    6  A    between atoms: C_13  and  C_22
    7  A    between atoms: C_20  and  O_26
    8  A    between atoms: C_22  and  C_24
                            x       y       z     vdW  Elec       q    Type
                         _______ _______ _______ _____ _____    ______ ____

>  <TORSDO>
F 8

$$$$
=
 OpenBabel11052418223D

 27 29  0  0  1  0  0  0  0  0999 V2000
  189.6280  176.9160  144.0330 C   0  0  2  0  0  3  0  0  0  0  0  0
  186.2680  177.0330  146.8660 N   0  0  0  0  0  2  0  0  0  0  0  0
  184.2750  178.2750  146.5400 N   0  0  0  0  0  1  0  0  0  0  0  0
  190.0240  177.0920  146.4920 C   0  0  0  0  0  0  0  0  0  0  0  0
  188.3710  177.7470  143.8420 C   0  0  0  0  0  2  0  0  0  0  0  0
  185.6030  177.4990  144.3400 S   0  0  0  0  0  0  0  0  0  0  0  0
  190.4630  177.5410  145.1360 C   0  0  0  0  0  2  0  0  0  0  0  0
  185.0740  177.1660  146.0540 C   0  0  1  0  0  3  0  0  0  0  0  0
  187.4830  177.1990  146.1550 C   0  0  0  0  0  0  0  0  0  0  0  0
  187.3150  177.4390  144.8530 C   0  0  0  0  0  0  0  0  0  0  0  0
  188.7510  177.0010  146.8970 C   0  0  0  0  0  3  0  0  0  0  0  0
  191.0900  176.7660  147.4860 C   0  0  0  0  0  2  0  0  0  0  0  0
  194.4030  174.7510  145.6500 C   0  0  0  0  0  3  0  0  0  0  0  0
  192.2370  176.0710  146.8320 C   0  0  0  0  0  0  0  0  0  0  0  0
  192.0900  174.7580  146.3670 C   0  0  0  0  0  3  0  0  0  0  0  0
  193.1720  174.1000  145.7740 C   0  0  0  0  0  3  0  0  0  0  0  0
  194.5540  176.0600  146.1200 C   0  0  0  0  0  3  0  0  0  0  0  0
  193.4720  176.7180  146.7120 C   0  0  0  0  0  3  0  0  0  0  0  0
  190.3500  176.7260  142.8300 O   0  0  0  0  0  0  0  0  0  0  0  0
  191.2230  174.6020  142.1370 C   0  0  0  0  0  1  0  0  0  0  0  0
  191.4040  175.8140  143.0340 C   0  0  1  0  0  3  0  0  0  0  0  0
  192.7640  176.4740  142.8000 C   0  0  0  0  0  2  0  0  0  0  0  0
  193.7430  175.5870  142.0400 C   0  0  0  0  0  2  0  0  0  0  0  0
  194.8820  176.4150  141.4650 C   0  0  0  0  0  2  0  0  0  0  0  0
  196.2100  176.0060  142.0780 C   0  0  2  0  0  3  0  0  0  0  0  0
  196.1740  174.5450  142.4880 C   0  0  0  0  0  1  0  0  0  0  0  0
  196.4640  176.7910  143.2010 O   0  0  0  0  0  1  0  0  0  0  0  0
  1 19  1  6  0  0  0
  1  7  1  0  0  0  0
  4 11  2  0  0  0  0
  4 12  1  0  0  0  0
  5  1  1  0  0  0  0
  5 10  1  0  0  0  0
  6 10  1  0  0  0  0
  6  8  1  0  0  0  0
  7  4  1  0  0  0  0
  8  3  1  1  0  0  0
  8  2  1  0  0  0  0
  9  2  1  0  0  0  0
  9 11  1  0  0  0  0
 10  9  2  0  0  0  0
 13 16  2  0  0  0  0
 13 17  1  0  0  0  0
 14 12  1  0  0  0  0
 15 14  2  0  0  0  0
 16 15  1  0  0  0  0
 17 18  2  0  0  0  0
 18 14  1  0  0  0  0
 19 21  1  0  0  0  0
 21 20  1  6  0  0  0
 22 21  1  0  0  0  0
 23 22  1  0  0  0  0
 24 23  1  0  0  0  0
 24 25  1  0  0  0  0
 25 26  1  1  0  0  0
 25 27  1  0  0  0  0
M  END
>  <MODEL>
6

>  <REMARK>
 VINA RESULT:      -6.3      3.561      6.729
  Name = 
  8 active torsions:
  status: ('A' for Active; 'I' for Inactive)
    1  A    between atoms: C_1  and  C_24
    2  A    between atoms: C_2  and  C_6
    3  A    between atoms: C_2  and  C_9
    4  A    between atoms: C_3  and  O_26
    5  A    between atoms: C_13  and  C_20
    6  A    between atoms: C_13  and  C_22
    7  A    between atoms: C_20  and  O_26
    8  A    between atoms: C_22  and  C_24
                            x       y       z     vdW  Elec       q    Type
                         _______ _______ _______ _____ _____    ______ ____

>  <TORSDO>
F 8

$$$$
=
 OpenBabel11052418223D

 27 29  0  0  1  0  0  0  0  0999 V2000
  189.1240  175.3440  142.0760 C   0  0  2  0  0  3  0  0  0  0  0  0
  190.4480  171.6520  140.0900 N   0  0  0  0  0  0  0  0  0  0  0  0
  189.6640  170.9010  137.9810 N   0  0  0  0  0  1  0  0  0  0  0  0
  189.4320  173.2270  143.3660 C   0  0  0  0  0  0  0  0  0  0  0  0
  188.5870  174.8420  140.7460 C   0  0  0  0  0  2  0  0  0  0  0  0
  189.5810  173.5440  138.4440 S   0  0  0  0  0  0  0  0  0  0  0  0
  188.5940  174.4510  143.1830 C   0  0  0  0  0  2  0  0  0  0  0  0
  190.4140  171.9370  138.6680 C   0  0  1  0  0  3  0  0  0  0  0  0
  189.8450  172.6440  140.9020 C   0  0  0  0  0  0  0  0  0  0  0  0
  189.3570  173.6780  140.2140 C   0  0  2  0  0  3  0  0  0  0  0  0
  189.9080  172.4670  142.3730 C   0  0  0  0  0  3  0  0  0  0  0  0
  189.7210  172.7950  144.7660 C   0  0  0  0  0  2  0  0  0  0  0  0
  191.2520  176.0820  147.0590 C   0  0  0  0  0  3  0  0  0  0  0  0
  190.2590  173.9280  145.5760 C   0  0  0  0  0  0  0  0  0  0  0  0
  189.4630  174.5290  146.5580 C   0  0  0  0  0  3  0  0  0  0  0  0
  189.9610  175.6050  147.3000 C   0  0  0  0  0  3  0  0  0  0  0  0
  192.0470  175.4870  146.0740 C   0  0  0  0  0  3  0  0  0  0  0  0
  191.5500  174.4110  145.3320 C   0  0  0  0  0  3  0  0  0  0  0  0
  188.8580  176.7170  142.2950 O   0  0  0  0  0  0  0  0  0  0  0  0
  190.1820  177.8050  143.9740 C   0  0  0  0  0  1  0  0  0  0  0  0
  188.9230  177.0110  143.6710 C   0  0  1  0  0  3  0  0  0  0  0  0
  187.6740  177.7610  144.1380 C   0  0  0  0  0  2  0  0  0  0  0  0
  187.3470  177.5320  145.6100 C   0  0  0  0  0  2  0  0  0  0  0  0
  186.0770  176.7090  145.7550 C   0  0  0  0  0  2  0  0  0  0  0  0
  185.0890  177.4000  146.6790 C   0  0  2  0  0  3  0  0  0  0  0  0
  184.4330  178.5700  145.9700 C   0  0  0  0  0  1  0  0  0  0  0  0
  185.7580  177.8650  147.8090 O   0  0  0  0  0  1  0  0  0  0  0  0
  1 19  1  1  0  0  0
  1  7  1  0  0  0  0
  2  9  2  0  0  0  0
  4 12  1  0  0  0  0
  5  1  1  0  0  0  0
  6  8  1  0  0  0  0
  6 10  1  0  0  0  0
  7  4  1  0  0  0  0
  8  3  1  6  0  0  0
  8  2  1  0  0  0  0
  9 11  1  0  0  0  0
 10  5  1  6  0  0  0
 10  9  1  0  0  0  0
 11  4  2  0  0  0  0
 12 14  1  0  0  0  0
 13 16  1  0  0  0  0
 14 15  1  0  0  0  0
 15 16  2  0  0  0  0
 17 13  2  0  0  0  0
 18 14  2  0  0  0  0
 18 17  1  0  0  0  0
 19 21  1  0  0  0  0
 21 20  1  6  0  0  0
 21 22  1  0  0  0  0
 22 23  1  0  0  0  0
 23 24  1  0  0  0  0
 24 25  1  0  0  0  0
 25 26  1  6  0  0  0
 25 27  1  0  0  0  0
M  END
>  <MODEL>
7

>  <REMARK>
 VINA RESULT:      -6.2      2.029      5.170
  Name = 
  8 active torsions:
  status: ('A' for Active; 'I' for Inactive)
    1  A    between atoms: C_1  and  C_24
    2  A    between atoms: C_2  and  C_6
    3  A    between atoms: C_2  and  C_9
    4  A    between atoms: C_3  and  O_26
    5  A    between atoms: C_13  and  C_20
    6  A    between atoms: C_13  and  C_22
    7  A    between atoms: C_20  and  O_26
    8  A    between atoms: C_22  and  C_24
                            x       y       z     vdW  Elec       q    Type
                         _______ _______ _______ _____ _____    ______ ____

>  <TORSDO>
F 8

$$$$
=
 OpenBabel11052418223D

 27 29  0  0  1  0  0  0  0  0999 V2000
  191.0790  176.4910  144.5370 C   0  0  2  0  0  3  0  0  0  0  0  0
  188.1210  174.0550  142.3830 N   0  0  0  0  0  0  0  0  0  0  0  0
  188.1930  173.5930  140.0580 N   0  0  0  0  0  1  0  0  0  0  0  0
  188.6370  176.7200  145.0070 C   0  0  0  0  0  0  0  0  0  0  0  0
  191.1030  176.2340  143.0400 C   0  0  0  0  0  2  0  0  0  0  0  0
  190.5300  174.1070  141.2740 S   0  0  0  0  0  0  0  0  0  0  0  0
  189.9360  177.4410  144.8500 C   0  0  0  0  0  2  0  0  0  0  0  0
  188.8580  173.3820  141.3310 C   0  0  1  0  0  3  0  0  0  0  0  0
  188.8510  175.0640  143.0590 C   0  0  0  0  0  0  0  0  0  0  0  0
  190.1010  175.2120  142.6130 C   0  0  2  0  0  3  0  0  0  0  0  0
  188.1970  175.7460  144.2010 C   0  0  0  0  0  3  0  0  0  0  0  0
  187.7410  177.1530  146.1210 C   0  0  0  0  0  2  0  0  0  0  0  0
  184.3380  179.2710  144.5910 C   0  0  0  0  0  3  0  0  0  0  0  0
  186.5620  177.9030  145.5980 C   0  0  0  0  0  0  0  0  0  0  0  0
  185.3290  177.8200  146.2580 C   0  0  0  0  0  3  0  0  0  0  0  0
  184.2190  178.5060  145.7550 C   0  0  0  0  0  3  0  0  0  0  0  0
  185.5670  179.3500  143.9270 C   0  0  0  0  0  3  0  0  0  0  0  0
  186.6770  178.6650  144.4300 C   0  0  0  0  0  3  0  0  0  0  0  0
  192.3250  176.9390  145.0390 O   0  0  0  0  0  0  0  0  0  0  0  0
  191.9490  175.0240  146.4350 C   0  0  0  0  0  1  0  0  0  0  0  0
  192.5460  176.4170  146.3290 C   0  0  1  0  0  3  0  0  0  0  0  0
  194.0350  176.4060  146.6770 C   0  0  0  0  0  2  0  0  0  0  0  0
  194.9410  176.5160  145.4550 C   0  0  0  0  0  2  0  0  0  0  0  0
  195.4870  175.1500  145.0680 C   0  0  0  0  0  2  0  0  0  0  0  0
  195.0770  174.7870  143.6510 C   0  0  2  0  0  3  0  0  0  0  0  0
  194.9120  176.0410  142.8120 C   0  0  0  0  0  1  0  0  0  0  0  0
  193.8700  174.0930  143.6820 O   0  0  0  0  0  1  0  0  0  0  0  0
  1  7  1  0  0  0  0
  1 19  1  6  0  0  0
  2  9  2  0  0  0  0
  4 12  1  0  0  0  0
  5  1  1  0  0  0  0
  6  8  1  0  0  0  0
  6 10  1  0  0  0  0
  7  4  1  0  0  0  0
  8  3  1  6  0  0  0
  8  2  1  0  0  0  0
  9 11  1  0  0  0  0
 10  5  1  6  0  0  0
 10  9  1  0  0  0  0
 11  4  2  0  0  0  0
 13 16  1  0  0  0  0
 14 12  1  0  0  0  0
 14 15  1  0  0  0  0
 16 15  2  0  0  0  0
 17 18  1  0  0  0  0
 17 13  2  0  0  0  0
 18 14  2  0  0  0  0
 19 21  1  0  0  0  0
 21 20  1  6  0  0  0
 21 22  1  0  0  0  0
 23 22  1  0  0  0  0
 24 23  1  0  0  0  0
 25 26  1  6  0  0  0
 25 27  1  0  0  0  0
 25 24  1  0  0  0  0
M  END
>  <MODEL>
8

>  <REMARK>
 VINA RESULT:      -6.1      1.881      3.054
  Name = 
  8 active torsions:
  status: ('A' for Active; 'I' for Inactive)
    1  A    between atoms: C_1  and  C_24
    2  A    between atoms: C_2  and  C_6
    3  A    between atoms: C_2  and  C_9
    4  A    between atoms: C_3  and  O_26
    5  A    between atoms: C_13  and  C_20
    6  A    between atoms: C_13  and  C_22
    7  A    between atoms: C_20  and  O_26
    8  A    between atoms: C_22  and  C_24
                            x       y       z     vdW  Elec       q    Type
                         _______ _______ _______ _____ _____    ______ ____

>  <TORSDO>
F 8

$$$$
=
 OpenBabel11052418223D

 27 29  0  0  1  0  0  0  0  0999 V2000
  187.2720  175.9870  142.7660 C   0  0  2  0  0  3  0  0  0  0  0  0
  190.8550  174.1580  140.9920 N   0  0  0  0  0  0  0  0  0  0  0  0
  190.9740  171.9290  140.1940 N   0  0  0  0  0  1  0  0  0  0  0  0
  189.5350  176.3710  143.7510 C   0  0  0  0  0  0  0  0  0  0  0  0
  187.3590  174.5450  142.2960 C   0  0  0  0  0  2  0  0  0  0  0  0
  188.5590  173.1010  140.1880 S   0  0  0  0  0  0  0  0  0  0  0  0
  188.0880  176.1350  144.0380 C   0  0  0  0  0  2  0  0  0  0  0  0
  190.3670  173.2310  139.9900 C   0  0  1  0  0  3  0  0  0  0  0  0
  189.8500  174.6920  141.8370 C   0  0  0  0  0  0  0  0  0  0  0  0
  188.6220  174.2540  141.5530 C   0  0  2  0  0  3  0  0  0  0  0  0
  190.2550  175.7090  142.8370 C   0  0  0  0  0  3  0  0  0  0  0  0
  190.2420  177.3910  144.5810 C   0  0  0  0  0  2  0  0  0  0  0  0
  193.6580  175.6490  146.5040 C   0  0  0  0  0  3  0  0  0  0  0  0
  191.4310  176.7980  145.2610 C   0  0  0  0  0  0  0  0  0  0  0  0
  192.7230  177.1420  144.8430 C   0  0  0  0  0  3  0  0  0  0  0  0
  193.8350  176.5680  145.4660 C   0  0  0  0  0  3  0  0  0  0  0  0
  192.3690  175.3000  146.9190 C   0  0  0  0  0  3  0  0  0  0  0  0
  191.2560  175.8730  146.2960 C   0  0  0  0  0  3  0  0  0  0  0  0
  185.9380  176.4420  142.9050 O   0  0  0  0  0  0  0  0  0  0  0  0
  185.9850  178.2020  141.2760 C   0  0  0  0  0  1  0  0  0  0  0  0
  185.8820  177.8410  142.7480 C   0  0  1  0  0  3  0  0  0  0  0  0
  184.6100  178.4190  143.3690 C   0  0  0  0  0  2  0  0  0  0  0  0
  184.8660  179.1970  144.6550 C   0  0  0  0  0  2  0  0  0  0  0  0
  184.1630  178.5360  145.8310 C   0  0  0  0  0  2  0  0  0  0  0  0
  185.1440  177.7260  146.6610 C   0  0  2  0  0  3  0  0  0  0  0  0
  186.5340  178.3290  146.5720 C   0  0  0  0  0  1  0  0  0  0  0  0
  185.1810  176.4170  146.1870 O   0  0  0  0  0  1  0  0  0  0  0  0
  1 19  1  1  0  0  0
  1  7  1  0  0  0  0
  2  9  2  0  0  0  0
  4  7  1  0  0  0  0
  4 12  1  0  0  0  0
  5  1  1  0  0  0  0
  6 10  1  0  0  0  0
  8  6  1  0  0  0  0
  8  3  1  1  0  0  0
  8  2  1  0  0  0  0
  9 11  1  0  0  0  0
 10  9  1  0  0  0  0
 10  5  1  1  0  0  0
 11  4  2  0  0  0  0
 12 14  1  0  0  0  0
 13 17  1  0  0  0  0
 14 18  1  0  0  0  0
 15 14  2  0  0  0  0
 15 16  1  0  0  0  0
 16 13  2  0  0  0  0
 18 17  2  0  0  0  0
 21 20  1  6  0  0  0
 21 19  1  0  0  0  0
 21 22  1  0  0  0  0
 22 23  1  0  0  0  0
 23 24  1  0  0  0  0
 24 25  1  0  0  0  0
 25 26  1  6  0  0  0
 27 25  1  0  0  0  0
M  END
>  <MODEL>
9

>  <REMARK>
 VINA RESULT:      -6.1      2.175      5.661
  Name = 
  8 active torsions:
  status: ('A' for Active; 'I' for Inactive)
    1  A    between atoms: C_1  and  C_24
    2  A    between atoms: C_2  and  C_6
    3  A    between atoms: C_2  and  C_9
    4  A    between atoms: C_3  and  O_26
    5  A    between atoms: C_13  and  C_20
    6  A    between atoms: C_13  and  C_22
    7  A    between atoms: C_20  and  O_26
    8  A    between atoms: C_22  and  C_24
                            x       y       z     vdW  Elec       q    Type
                         _______ _______ _______ _____ _____    ______ ____

>  <TORSDO>
F 8

$$$$
