=
 OpenBabel11052417263D

 25 27  0  0  1  0  0  0  0  0999 V2000
  187.7070  177.3820  144.6170 C   0  0  0  0  0  0  0  0  0  0  0  0
  187.6150  177.0340  143.2510 C   0  0  0  0  0  0  0  0  0  0  0  0
  186.0230  179.0280  144.3110 C   0  0  0  0  0  3  0  0  0  0  0  0
  188.9200  174.5300  140.6350 N   0  0  0  0  0  2  0  0  0  0  0  0
  185.9190  178.7050  142.9980 N   0  0  0  0  0  0  0  0  0  0  0  0
  186.5660  177.3760  141.0370 C   0  0  0  0  0  0  0  0  0  0  0  0
  185.7320  178.0000  140.2730 N   0  0  0  0  0  2  0  0  0  0  0  0
  188.7350  174.0030  139.3160 C   0  0  0  0  0  0  0  0  0  0  0  0
  188.5500  176.0250  142.6270 C   0  0  0  0  0  2  0  0  0  0  0  0
  186.9080  178.3710  145.1040 N   0  0  0  0  0  0  0  0  0  0  0  0
  187.3180  176.2790  140.5150 N   0  0  0  0  0  0  0  0  0  0  0  0
  188.2000  175.6240  141.2150 C   0  0  0  0  0  0  0  0  0  0  0  0
  186.6930  177.7300  142.4550 C   0  0  0  0  0  0  0  0  0  0  0  0
  187.8570  174.4770  138.5440 O   0  0  0  0  0  0  0  0  0  0  0  0
  188.6380  176.6980  145.5490 C   0  0  0  0  0  0  0  0  0  0  0  0
  190.3440  175.4250  147.3850 C   0  0  0  0  0  3  0  0  0  0  0  0
  189.9940  177.0830  145.6490 C   0  0  0  0  0  0  0  0  0  0  0  0
  190.8360  176.4400  146.5620 C   0  0  0  0  0  3  0  0  0  0  0  0
  189.0050  175.0460  147.2980 C   0  0  0  0  0  3  0  0  0  0  0  0
  190.5360  178.0980  144.8100 N   0  0  0  0  0  1  0  0  0  0  0  0
  188.1570  175.6800  146.3880 C   0  0  0  0  0  3  0  0  0  0  0  0
  189.5720  172.8480  138.8700 C   0  0  2  0  0  3  0  0  0  0  0  0
  188.8060  171.7050  138.7190 F   0  0  0  0  0  0  0  0  0  0  0  0
  190.5910  171.3020  140.5850 C   0  0  0  0  0  1  0  0  0  0  0  0
  190.7460  172.6030  139.8140 C   0  0  0  0  0  2  0  0  0  0  0  0
  1 10  1  0  0  0  0
  1 15  1  0  0  0  0
  2  1  2  0  0  0  0
  3 10  2  0  0  0  0
  4 12  1  0  0  0  0
  5  3  1  0  0  0  0
  6 13  1  0  0  0  0
  7  6  2  0  0  0  0
  8  4  1  0  0  0  0
  9  2  1  0  0  0  0
 11  6  1  0  0  0  0
 11 12  2  0  0  0  0
 12  9  1  0  0  0  0
 13  5  2  0  0  0  0
 13  2  1  0  0  0  0
 14  8  2  0  0  0  0
 15 17  2  0  0  0  0
 15 21  1  0  0  0  0
 17 18  1  0  0  0  0
 18 16  2  0  0  0  0
 19 16  1  0  0  0  0
 20 17  1  0  0  0  0
 21 19  2  0  0  0  0
 22 23  1  1  0  0  0
 22  8  1  0  0  0  0
 22 25  1  0  0  0  0
 25 24  1  0  0  0  0
M  END
>  <MODEL>
1

>  <REMARK>
 VINA RESULT:      -6.9      0.000      0.000
  Name = 
  3 active torsions:
  status: ('A' for Active; 'I' for Inactive)
    1  A    between atoms: C_1  and  C_5
    2  A    between atoms: C_2  and  C_15
    3  A    between atoms: C_2  and  C_21
                            x       y       z     vdW  Elec       q    Type
                         _______ _______ _______ _____ _____    ______ ____

>  <TORSDO>
F 3

$$$$
=
 OpenBabel11052417263D

 25 27  0  0  1  0  0  0  0  0999 V2000
  191.2440  174.3480  144.6220 C   0  0  0  0  0  0  0  0  0  0  0  0
  190.5800  175.3220  145.4020 C   0  0  0  0  0  0  0  0  0  0  0  0
  193.1110  174.4520  146.0850 C   0  0  0  0  0  3  0  0  0  0  0  0
  187.2300  177.1830  145.7740 N   0  0  0  0  0  2  0  0  0  0  0  0
  192.4890  175.3860  146.8460 N   0  0  0  0  0  0  0  0  0  0  0  0
  190.5700  176.8290  147.3630 C   0  0  0  0  0  0  0  0  0  0  0  0
  191.1550  177.3230  148.4030 N   0  0  0  0  0  2  0  0  0  0  0  0
  186.4350  178.0140  146.6270 C   0  0  0  0  0  0  0  0  0  0  0  0
  189.2430  175.8910  144.9860 C   0  0  0  0  0  2  0  0  0  0  0  0
  192.4910  173.9450  144.9890 N   0  0  0  0  0  0  0  0  0  0  0  0
  189.2240  177.2040  147.0640 N   0  0  0  0  0  0  0  0  0  0  0  0
  188.5820  176.7730  146.0160 C   0  0  0  0  0  0  0  0  0  0  0  0
  191.2450  175.8290  146.5280 C   0  0  0  0  0  0  0  0  0  0  0  0
  186.8890  178.4430  147.7230 O   0  0  0  0  0  0  0  0  0  0  0  0
  190.6240  173.7360  143.4210 C   0  0  0  0  0  0  0  0  0  0  0  0
  189.4080  172.6590  141.1260 C   0  0  0  0  0  3  0  0  0  0  0  0
  189.7650  172.6180  143.5250 C   0  0  0  0  0  0  0  0  0  0  0  0
  189.1700  172.0870  142.3770 C   0  0  0  0  0  3  0  0  0  0  0  0
  190.2470  173.7680  141.0170 C   0  0  0  0  0  3  0  0  0  0  0  0
  189.5170  171.9940  144.7810 N   0  0  0  0  0  1  0  0  0  0  0  0
  190.8480  174.3050  142.1570 C   0  0  0  0  0  3  0  0  0  0  0  0
  185.0350  178.3420  146.2220 C   0  0  2  0  0  3  0  0  0  0  0  0
  184.1420  177.4020  146.7080 F   0  0  0  0  0  0  0  0  0  0  0  0
  185.3830  179.8570  144.2340 C   0  0  0  0  0  1  0  0  0  0  0  0
  184.9040  178.4950  144.7090 C   0  0  0  0  0  2  0  0  0  0  0  0
  1 10  2  0  0  0  0
  1  2  1  0  0  0  0
  2 13  2  0  0  0  0
  3  5  2  0  0  0  0
  4 12  1  0  0  0  0
  4  8  1  0  0  0  0
  6  7  2  0  0  0  0
  8 14  2  0  0  0  0
  9  2  1  0  0  0  0
  9 12  1  0  0  0  0
 10  3  1  0  0  0  0
 11  6  1  0  0  0  0
 12 11  2  0  0  0  0
 13  5  1  0  0  0  0
 13  6  1  0  0  0  0
 15 17  1  0  0  0  0
 15  1  1  0  0  0  0
 16 18  1  0  0  0  0
 17 20  1  0  0  0  0
 18 17  2  0  0  0  0
 19 16  2  0  0  0  0
 19 21  1  0  0  0  0
 21 15  2  0  0  0  0
 22  8  1  0  0  0  0
 22 23  1  6  0  0  0
 24 25  1  0  0  0  0
 25 22  1  0  0  0  0
M  END
>  <MODEL>
2

>  <REMARK>
 VINA RESULT:      -6.9      4.026      7.433
  Name = 
  3 active torsions:
  status: ('A' for Active; 'I' for Inactive)
    1  A    between atoms: C_1  and  C_5
    2  A    between atoms: C_2  and  C_15
    3  A    between atoms: C_2  and  C_21
                            x       y       z     vdW  Elec       q    Type
                         _______ _______ _______ _____ _____    ______ ____

>  <TORSDO>
F 3

$$$$
=
 OpenBabel11052417263D

 25 27  0  0  1  0  0  0  0  0999 V2000
  188.1910  177.2780  145.7310 C   0  0  0  0  0  0  0  0  0  0  0  0
  188.8220  176.3950  144.8260 C   0  0  0  0  0  0  0  0  0  0  0  0
  190.0990  177.1920  147.1420 C   0  0  0  0  0  3  0  0  0  0  0  0
  188.4020  174.7270  141.3820 N   0  0  0  0  0  2  0  0  0  0  0  0
  190.7210  176.3470  146.2840 N   0  0  0  0  0  0  0  0  0  0  0  0
  190.7950  175.0370  144.2080 C   0  0  0  0  0  0  0  0  0  0  0  0
  191.9790  174.5930  144.4680 N   0  0  0  0  0  2  0  0  0  0  0  0
  189.0620  173.9970  140.3400 C   0  0  0  0  0  0  0  0  0  0  0  0
  188.1020  175.8620  143.6100 C   0  0  0  0  0  2  0  0  0  0  0  0
  188.8510  177.6470  146.8630 N   0  0  0  0  0  0  0  0  0  0  0  0
  190.1730  174.7050  142.9650 N   0  0  0  0  0  0  0  0  0  0  0  0
  188.9700  175.0890  142.6470 C   0  0  0  0  0  0  0  0  0  0  0  0
  190.1110  175.9410  145.1400 C   0  0  0  0  0  0  0  0  0  0  0  0
  190.2610  173.6290  140.4640 O   0  0  0  0  0  0  0  0  0  0  0  0
  186.8360  177.8300  145.4860 C   0  0  0  0  0  0  0  0  0  0  0  0
  184.3040  178.9630  145.0240 C   0  0  0  0  0  3  0  0  0  0  0  0
  185.7600  177.5550  146.3600 C   0  0  0  0  0  0  0  0  0  0  0  0
  184.5030  178.1190  146.1190 C   0  0  0  0  0  3  0  0  0  0  0  0
  185.3640  179.2460  144.1620 C   0  0  0  0  0  3  0  0  0  0  0  0
  185.9200  176.6810  147.4730 N   0  0  0  0  0  1  0  0  0  0  0  0
  186.6220  178.6850  144.3930 C   0  0  0  0  0  3  0  0  0  0  0  0
  188.3210  173.7080  139.0750 C   0  0  2  0  0  3  0  0  0  0  0  0
  187.7470  172.4490  139.1100 F   0  0  0  0  0  0  0  0  0  0  0  0
  189.2700  172.6000  137.0160 C   0  0  0  0  0  1  0  0  0  0  0  0
  189.2120  173.8720  137.8480 C   0  0  0  0  0  2  0  0  0  0  0  0
  1 10  1  0  0  0  0
  2 13  1  0  0  0  0
  2  1  2  0  0  0  0
  4 12  1  0  0  0  0
  5  3  1  0  0  0  0
  6  7  2  0  0  0  0
  6 13  1  0  0  0  0
  8 14  2  0  0  0  0
  8  4  1  0  0  0  0
  9  2  1  0  0  0  0
 10  3  2  0  0  0  0
 11  6  1  0  0  0  0
 12 11  2  0  0  0  0
 12  9  1  0  0  0  0
 13  5  2  0  0  0  0
 15  1  1  0  0  0  0
 15 17  1  0  0  0  0
 16 18  1  0  0  0  0
 17 20  1  0  0  0  0
 18 17  2  0  0  0  0
 19 21  1  0  0  0  0
 19 16  2  0  0  0  0
 21 15  2  0  0  0  0
 22 23  1  1  0  0  0
 22  8  1  0  0  0  0
 24 25  1  0  0  0  0
 25 22  1  0  0  0  0
M  END
>  <MODEL>
3

>  <REMARK>
 VINA RESULT:      -6.7      2.277      4.349
  Name = 
  3 active torsions:
  status: ('A' for Active; 'I' for Inactive)
    1  A    between atoms: C_1  and  C_5
    2  A    between atoms: C_2  and  C_15
    3  A    between atoms: C_2  and  C_21
                            x       y       z     vdW  Elec       q    Type
                         _______ _______ _______ _____ _____    ______ ____

>  <TORSDO>
F 3

$$$$
=
 OpenBabel11052417263D

 25 27  0  0  1  0  0  0  0  0999 V2000
  188.6020  176.7430  145.8210 C   0  0  0  0  0  0  0  0  0  0  0  0
  189.1870  175.8210  144.9240 C   0  0  0  0  0  0  0  0  0  0  0  0
  190.6140  176.7920  147.0810 C   0  0  0  0  0  3  0  0  0  0  0  0
  188.5520  173.9300  141.6310 N   0  0  0  0  0  2  0  0  0  0  0  0
  191.1920  175.9100  146.2290 N   0  0  0  0  0  0  0  0  0  0  0  0
  191.1450  174.4740  144.2370 C   0  0  0  0  0  0  0  0  0  0  0  0
  192.3580  174.0760  144.4300 N   0  0  0  0  0  2  0  0  0  0  0  0
  189.1500  173.1530  140.5870 C   0  0  0  0  0  0  0  0  0  0  0  0
  188.3910  175.1950  143.8020 C   0  0  0  0  0  2  0  0  0  0  0  0
  189.3350  177.1980  146.8730 N   0  0  0  0  0  0  0  0  0  0  0  0
  190.4390  174.0500  143.0680 N   0  0  0  0  0  0  0  0  0  0  0  0
  189.2040  174.3840  142.8230 C   0  0  0  0  0  0  0  0  0  0  0  0
  190.5090  175.4180  145.1630 C   0  0  0  0  0  0  0  0  0  0  0  0
  190.3660  172.8210  140.6380 O   0  0  0  0  0  0  0  0  0  0  0  0
  187.2160  177.2450  145.6500 C   0  0  0  0  0  0  0  0  0  0  0  0
  184.5610  178.1090  145.3200 C   0  0  0  0  0  3  0  0  0  0  0  0
  186.8710  178.1040  144.5810 C   0  0  0  0  0  0  0  0  0  0  0  0
  185.5490  178.5320  144.4290 C   0  0  0  0  0  3  0  0  0  0  0  0
  184.8920  177.2540  146.3720 C   0  0  0  0  0  3  0  0  0  0  0  0
  187.8570  178.5740  143.6660 N   0  0  0  0  0  1  0  0  0  0  0  0
  186.2100  176.8230  146.5330 C   0  0  0  0  0  3  0  0  0  0  0  0
  188.3240  172.7660  139.4040 C   0  0  2  0  0  3  0  0  0  0  0  0
  188.8190  171.6230  138.8000 F   0  0  0  0  0  0  0  0  0  0  0  0
  189.2010  173.7720  137.2620 C   0  0  0  0  0  1  0  0  0  0  0  0
  188.2030  173.9100  138.4010 C   0  0  0  0  0  2  0  0  0  0  0  0
  1 10  1  0  0  0  0
  2 13  1  0  0  0  0
  2  1  2  0  0  0  0
  4 12  1  0  0  0  0
  5  3  1  0  0  0  0
  6  7  2  0  0  0  0
  6 13  1  0  0  0  0
  8 14  2  0  0  0  0
  8  4  1  0  0  0  0
  9  2  1  0  0  0  0
 10  3  2  0  0  0  0
 11  6  1  0  0  0  0
 12 11  2  0  0  0  0
 12  9  1  0  0  0  0
 13  5  2  0  0  0  0
 15  1  1  0  0  0  0
 15 21  1  0  0  0  0
 16 19  1  0  0  0  0
 17 15  2  0  0  0  0
 18 17  1  0  0  0  0
 18 16  2  0  0  0  0
 19 21  2  0  0  0  0
 20 17  1  0  0  0  0
 22 23  1  6  0  0  0
 22  8  1  0  0  0  0
 24 25  1  0  0  0  0
 25 22  1  0  0  0  0
M  END
>  <MODEL>
4

>  <REMARK>
 VINA RESULT:      -6.2      2.090      4.255
  Name = 
  3 active torsions:
  status: ('A' for Active; 'I' for Inactive)
    1  A    between atoms: C_1  and  C_5
    2  A    between atoms: C_2  and  C_15
    3  A    between atoms: C_2  and  C_21
                            x       y       z     vdW  Elec       q    Type
                         _______ _______ _______ _____ _____    ______ ____

>  <TORSDO>
F 3

$$$$
=
 OpenBabel11052417263D

 25 27  0  0  1  0  0  0  0  0999 V2000
  189.5830  176.3940  146.3310 C   0  0  0  0  0  0  0  0  0  0  0  0
  190.2770  175.3660  145.6550 C   0  0  0  0  0  0  0  0  0  0  0  0
  191.4510  176.7150  147.7600 C   0  0  0  0  0  3  0  0  0  0  0  0
  190.0270  172.9600  142.6600 N   0  0  0  0  0  2  0  0  0  0  0  0
  192.1340  175.7330  147.1210 N   0  0  0  0  0  0  0  0  0  0  0  0
  192.3230  174.0020  145.3890 C   0  0  0  0  0  0  0  0  0  0  0  0
  193.5180  173.6850  145.7630 N   0  0  0  0  0  2  0  0  0  0  0  0
  190.7470  172.0510  141.8180 C   0  0  0  0  0  0  0  0  0  0  0  0
  189.6150  174.5420  144.5750 C   0  0  0  0  0  2  0  0  0  0  0  0
  190.1930  177.0360  147.3640 N   0  0  0  0  0  0  0  0  0  0  0  0
  191.7520  173.3740  144.2400 N   0  0  0  0  0  0  0  0  0  0  0  0
  190.5420  173.6190  143.8230 C   0  0  0  0  0  0  0  0  0  0  0  0
  191.5750  175.0550  146.0850 C   0  0  0  0  0  0  0  0  0  0  0  0
  191.9570  171.7780  142.0420 O   0  0  0  0  0  0  0  0  0  0  0  0
  188.2120  176.8120  145.9450 C   0  0  0  0  0  0  0  0  0  0  0  0
  185.5890  177.5130  145.2150 C   0  0  0  0  0  3  0  0  0  0  0  0
  187.9720  177.5460  144.7610 C   0  0  0  0  0  0  0  0  0  0  0  0
  186.6640  177.8950  144.4100 C   0  0  0  0  0  3  0  0  0  0  0  0
  185.8170  176.7800  146.3800 C   0  0  0  0  0  3  0  0  0  0  0  0
  189.0460  177.9720  143.9280 N   0  0  0  0  0  1  0  0  0  0  0  0
  187.1200  176.4300  146.7400 C   0  0  0  0  0  3  0  0  0  0  0  0
  190.0550  171.4540  140.6360 C   0  0  2  0  0  3  0  0  0  0  0  0
  190.7910  170.4090  140.1030 F   0  0  0  0  0  0  0  0  0  0  0  0
  188.2430  172.6900  139.3880 C   0  0  0  0  0  1  0  0  0  0  0  0
  189.7410  172.5040  139.5740 C   0  0  0  0  0  2  0  0  0  0  0  0
  1 10  1  0  0  0  0
  2 13  1  0  0  0  0
  2  1  2  0  0  0  0
  4 12  1  0  0  0  0
  5  3  1  0  0  0  0
  6  7  2  0  0  0  0
  6 13  1  0  0  0  0
  8 14  2  0  0  0  0
  8  4  1  0  0  0  0
  9  2  1  0  0  0  0
 10  3  2  0  0  0  0
 11  6  1  0  0  0  0
 12 11  2  0  0  0  0
 12  9  1  0  0  0  0
 13  5  2  0  0  0  0
 15  1  1  0  0  0  0
 15 21  1  0  0  0  0
 16 19  1  0  0  0  0
 17 15  2  0  0  0  0
 18 17  1  0  0  0  0
 18 16  2  0  0  0  0
 19 21  2  0  0  0  0
 20 17  1  0  0  0  0
 22 23  1  6  0  0  0
 22  8  1  0  0  0  0
 24 25  1  0  0  0  0
 25 22  1  0  0  0  0
M  END
>  <MODEL>
5

>  <REMARK>
 VINA RESULT:      -6.1      2.694      4.880
  Name = 
  3 active torsions:
  status: ('A' for Active; 'I' for Inactive)
    1  A    between atoms: C_1  and  C_5
    2  A    between atoms: C_2  and  C_15
    3  A    between atoms: C_2  and  C_21
                            x       y       z     vdW  Elec       q    Type
                         _______ _______ _______ _____ _____    ______ ____

>  <TORSDO>
F 3

$$$$
=
 OpenBabel11052417263D

 25 27  0  0  1  0  0  0  0  0999 V2000
  190.3590  175.1700  144.8140 C   0  0  0  0  0  0  0  0  0  0  0  0
  191.7150  175.5560  144.7370 C   0  0  0  0  0  0  0  0  0  0  0  0
  190.2460  176.0130  147.0310 C   0  0  0  0  0  3  0  0  0  0  0  0
  194.7100  175.7520  142.3260 N   0  0  0  0  0  2  0  0  0  0  0  0
  191.5460  176.3930  146.9740 N   0  0  0  0  0  0  0  0  0  0  0  0
  193.6900  176.6030  145.7960 C   0  0  0  0  0  0  0  0  0  0  0  0
  194.2520  177.1720  146.8110 N   0  0  0  0  0  2  0  0  0  0  0  0
  196.0200  176.2930  142.1190 C   0  0  0  0  0  0  0  0  0  0  0  0
  192.5670  175.2190  143.5350 C   0  0  0  0  0  2  0  0  0  0  0  0
  189.6670  175.4100  145.9610 N   0  0  0  0  0  0  0  0  0  0  0  0
  194.4190  176.4550  144.5750 N   0  0  0  0  0  0  0  0  0  0  0  0
  193.9310  175.8650  143.5230 C   0  0  0  0  0  0  0  0  0  0  0  0
  192.2880  176.1770  145.8570 C   0  0  0  0  0  0  0  0  0  0  0  0
  196.5950  176.9660  143.0180 O   0  0  0  0  0  0  0  0  0  0  0  0
  189.6530  174.5210  143.6810 C   0  0  0  0  0  0  0  0  0  0  0  0
  188.2380  173.3380  141.5590 C   0  0  0  0  0  3  0  0  0  0  0  0
  189.5670  173.1140  143.5760 C   0  0  0  0  0  0  0  0  0  0  0  0
  188.8650  172.5350  142.5140 C   0  0  0  0  0  3  0  0  0  0  0  0
  188.3110  174.7280  141.6610 C   0  0  0  0  0  3  0  0  0  0  0  0
  190.2130  172.2640  144.5190 N   0  0  0  0  0  1  0  0  0  0  0  0
  189.0120  175.3150  142.7170 C   0  0  0  0  0  3  0  0  0  0  0  0
  196.6930  176.0850  140.8010 C   0  0  2  0  0  3  0  0  0  0  0  0
  195.7850  175.6830  139.8360 F   0  0  0  0  0  0  0  0  0  0  0  0
  197.6100  173.8450  140.0860 C   0  0  0  0  0  1  0  0  0  0  0  0
  197.8550  175.1010  140.9070 C   0  0  0  0  0  2  0  0  0  0  0  0
  1 10  1  0  0  0  0
  2  1  2  0  0  0  0
  2 13  1  0  0  0  0
  4 12  1  0  0  0  0
  5  3  1  0  0  0  0
  6 13  1  0  0  0  0
  6  7  2  0  0  0  0
  8  4  1  0  0  0  0
  8 14  2  0  0  0  0
  9  2  1  0  0  0  0
 10  3  2  0  0  0  0
 11  6  1  0  0  0  0
 12  9  1  0  0  0  0
 12 11  2  0  0  0  0
 13  5  2  0  0  0  0
 15  1  1  0  0  0  0
 16 19  2  0  0  0  0
 16 18  1  0  0  0  0
 17 15  1  0  0  0  0
 17 20  1  0  0  0  0
 18 17  2  0  0  0  0
 19 21  1  0  0  0  0
 21 15  2  0  0  0  0
 22 23  1  6  0  0  0
 22 25  1  0  0  0  0
 22  8  1  0  0  0  0
 24 25  1  0  0  0  0
M  END
>  <MODEL>
6

>  <REMARK>
 VINA RESULT:      -6.0      4.733      6.739
  Name = 
  3 active torsions:
  status: ('A' for Active; 'I' for Inactive)
    1  A    between atoms: C_1  and  C_5
    2  A    between atoms: C_2  and  C_15
    3  A    between atoms: C_2  and  C_21
                            x       y       z     vdW  Elec       q    Type
                         _______ _______ _______ _____ _____    ______ ____

>  <TORSDO>
F 3

$$$$
=
 OpenBabel11052417263D

 25 27  0  0  1  0  0  0  0  0999 V2000
  190.7140  176.2540  145.2010 C   0  0  0  0  0  0  0  0  0  0  0  0
  191.0610  175.5190  144.0450 C   0  0  0  0  0  0  0  0  0  0  0  0
  193.0110  176.4310  145.7760 C   0  0  0  0  0  3  0  0  0  0  0  0
  189.5760  173.9290  140.8690 N   0  0  0  0  0  2  0  0  0  0  0  0
  193.3630  175.7300  144.6700 N   0  0  0  0  0  0  0  0  0  0  0  0
  192.8070  174.5250  142.6030 C   0  0  0  0  0  0  0  0  0  0  0  0
  194.0490  174.2720  142.3550 N   0  0  0  0  0  2  0  0  0  0  0  0
  189.8740  173.3550  139.5910 C   0  0  0  0  0  0  0  0  0  0  0  0
  190.0070  174.9190  143.1440 C   0  0  0  0  0  2  0  0  0  0  0  0
  191.7030  176.6860  146.0310 N   0  0  0  0  0  0  0  0  0  0  0  0
  191.8050  174.1400  141.6590 N   0  0  0  0  0  0  0  0  0  0  0  0
  190.5320  174.3330  141.8560 C   0  0  0  0  0  0  0  0  0  0  0  0
  192.4210  175.2710  143.8060 C   0  0  0  0  0  0  0  0  0  0  0  0
  191.0670  173.1830  139.2180 O   0  0  0  0  0  0  0  0  0  0  0  0
  189.3080  176.5850  145.5380 C   0  0  0  0  0  0  0  0  0  0  0  0
  186.6700  177.3010  146.1960 C   0  0  0  0  0  3  0  0  0  0  0  0
  188.6090  175.8870  146.5490 C   0  0  0  0  0  0  0  0  0  0  0  0
  187.2950  176.2470  146.8650 C   0  0  0  0  0  3  0  0  0  0  0  0
  187.3560  178.0010  145.2030 C   0  0  0  0  0  3  0  0  0  0  0  0
  189.2070  174.7920  147.2360 N   0  0  0  0  0  1  0  0  0  0  0  0
  188.6670  177.6470  144.8790 C   0  0  0  0  0  3  0  0  0  0  0  0
  188.7490  172.9930  138.6770 C   0  0  2  0  0  3  0  0  0  0  0  0
  189.1270  172.0010  137.7880 F   0  0  0  0  0  0  0  0  0  0  0  0
  188.9990  174.5140  136.6780 C   0  0  0  0  0  1  0  0  0  0  0  0
  188.2050  174.2130  137.9390 C   0  0  0  0  0  2  0  0  0  0  0  0
  1 15  1  0  0  0  0
  1 10  1  0  0  0  0
  2  1  2  0  0  0  0
  3 10  2  0  0  0  0
  4 12  1  0  0  0  0
  5  3  1  0  0  0  0
  6 13  1  0  0  0  0
  7  6  2  0  0  0  0
  8  4  1  0  0  0  0
  9  2  1  0  0  0  0
 11 12  2  0  0  0  0
 11  6  1  0  0  0  0
 12  9  1  0  0  0  0
 13  2  1  0  0  0  0
 13  5  2  0  0  0  0
 14  8  2  0  0  0  0
 15 17  1  0  0  0  0
 16 18  1  0  0  0  0
 17 18  2  0  0  0  0
 17 20  1  0  0  0  0
 19 16  2  0  0  0  0
 21 19  1  0  0  0  0
 21 15  2  0  0  0  0
 22 23  1  6  0  0  0
 22  8  1  0  0  0  0
 24 25  1  0  0  0  0
 25 22  1  0  0  0  0
M  END
>  <MODEL>
7

>  <REMARK>
 VINA RESULT:      -6.0      2.750      4.586
  Name = 
  3 active torsions:
  status: ('A' for Active; 'I' for Inactive)
    1  A    between atoms: C_1  and  C_5
    2  A    between atoms: C_2  and  C_15
    3  A    between atoms: C_2  and  C_21
                            x       y       z     vdW  Elec       q    Type
                         _______ _______ _______ _____ _____    ______ ____

>  <TORSDO>
F 3

$$$$
=
 OpenBabel11052417263D

 25 27  0  0  1  0  0  0  0  0999 V2000
  188.2740  176.6830  144.5680 C   0  0  0  0  0  0  0  0  0  0  0  0
  189.5690  176.5510  145.1170 C   0  0  0  0  0  0  0  0  0  0  0  0
  187.3650  176.8420  146.7560 C   0  0  0  0  0  3  0  0  0  0  0  0
  193.2900  176.3120  144.1570 N   0  0  0  0  0  2  0  0  0  0  0  0
  188.6000  176.7190  147.3000 N   0  0  0  0  0  0  0  0  0  0  0  0
  191.0340  176.4550  147.1070 C   0  0  0  0  0  0  0  0  0  0  0  0
  191.1900  176.4640  148.3890 N   0  0  0  0  0  2  0  0  0  0  0  0
  194.6360  176.3710  144.6430 C   0  0  0  0  0  0  0  0  0  0  0  0
  190.7730  176.2820  144.2440 C   0  0  0  0  0  2  0  0  0  0  0  0
  187.2110  176.8230  145.4070 N   0  0  0  0  0  0  0  0  0  0  0  0
  192.1820  176.4040  146.2560 N   0  0  0  0  0  0  0  0  0  0  0  0
  192.1020  176.3580  144.9570 C   0  0  0  0  0  0  0  0  0  0  0  0
  189.6980  176.5730  146.5130 C   0  0  0  0  0  0  0  0  0  0  0  0
  194.8770  176.5020  145.8750 O   0  0  0  0  0  0  0  0  0  0  0  0
  188.0290  176.6880  143.1050 C   0  0  0  0  0  0  0  0  0  0  0  0
  187.4810  176.7360  140.3470 C   0  0  0  0  0  3  0  0  0  0  0  0
  188.0720  175.4960  142.3460 C   0  0  0  0  0  0  0  0  0  0  0  0
  187.8030  175.5310  140.9750 C   0  0  0  0  0  3  0  0  0  0  0  0
  187.4280  177.9160  141.0900 C   0  0  0  0  0  3  0  0  0  0  0  0
  188.4190  174.2530  142.9480 N   0  0  0  0  0  1  0  0  0  0  0  0
  187.6970  177.8910  142.4600 C   0  0  0  0  0  3  0  0  0  0  0  0
  195.7650  176.3150  143.6660 C   0  0  2  0  0  3  0  0  0  0  0  0
  196.5670  177.4400  143.7650 F   0  0  0  0  0  0  0  0  0  0  0  0
  196.1780  176.7910  141.2220 C   0  0  0  0  0  1  0  0  0  0  0  0
  195.2670  176.1190  142.2370 C   0  0  0  0  0  2  0  0  0  0  0  0
  1  2  2  0  0  0  0
  1 10  1  0  0  0  0
  2 13  1  0  0  0  0
  3  5  1  0  0  0  0
  4  8  1  0  0  0  0
  4 12  1  0  0  0  0
  6  7  2  0  0  0  0
  8 14  2  0  0  0  0
  9 12  1  0  0  0  0
  9  2  1  0  0  0  0
 10  3  2  0  0  0  0
 11  6  1  0  0  0  0
 12 11  2  0  0  0  0
 13  6  1  0  0  0  0
 13  5  2  0  0  0  0
 15  1  1  0  0  0  0
 16 18  2  0  0  0  0
 16 19  1  0  0  0  0
 17 20  1  0  0  0  0
 17 15  2  0  0  0  0
 18 17  1  0  0  0  0
 19 21  2  0  0  0  0
 21 15  1  0  0  0  0
 22 23  1  6  0  0  0
 22  8  1  0  0  0  0
 24 25  1  0  0  0  0
 25 22  1  0  0  0  0
M  END
>  <MODEL>
8

>  <REMARK>
 VINA RESULT:      -5.9      4.171      6.478
  Name = 
  3 active torsions:
  status: ('A' for Active; 'I' for Inactive)
    1  A    between atoms: C_1  and  C_5
    2  A    between atoms: C_2  and  C_15
    3  A    between atoms: C_2  and  C_21
                            x       y       z     vdW  Elec       q    Type
                         _______ _______ _______ _____ _____    ______ ____

>  <TORSDO>
F 3

$$$$
=
 OpenBabel11052417263D

 25 27  0  0  1  0  0  0  0  0999 V2000
  192.3200  176.1900  145.5000 C   0  0  0  0  0  0  0  0  0  0  0  0
  192.7250  175.7000  144.2380 C   0  0  0  0  0  0  0  0  0  0  0  0
  194.5400  176.9160  145.9290 C   0  0  0  0  0  3  0  0  0  0  0  0
  191.3860  174.1100  140.9980 N   0  0  0  0  0  2  0  0  0  0  0  0
  194.9460  176.4540  144.7210 N   0  0  0  0  0  0  0  0  0  0  0  0
  194.5130  175.3670  142.5620 C   0  0  0  0  0  0  0  0  0  0  0  0
  195.7470  175.4830  142.1960 N   0  0  0  0  0  2  0  0  0  0  0  0
  191.6910  173.7740  139.6390 C   0  0  0  0  0  0  0  0  0  0  0  0
  191.7760  174.9370  143.3440 C   0  0  0  0  0  2  0  0  0  0  0  0
  193.2430  176.7820  146.3070 N   0  0  0  0  0  0  0  0  0  0  0  0
  193.5540  174.8280  141.6500 N   0  0  0  0  0  0  0  0  0  0  0  0
  192.3010  174.6510  141.9580 C   0  0  0  0  0  0  0  0  0  0  0  0
  194.0710  175.8520  143.8740 C   0  0  0  0  0  0  0  0  0  0  0  0
  192.8430  173.9680  139.1640 O   0  0  0  0  0  0  0  0  0  0  0  0
  190.9180  176.0950  145.9740 C   0  0  0  0  0  0  0  0  0  0  0  0
  188.2560  175.8270  146.8390 C   0  0  0  0  0  3  0  0  0  0  0  0
  189.9290  177.0040  145.5350 C   0  0  0  0  0  0  0  0  0  0  0  0
  188.6080  176.8650  145.9750 C   0  0  0  0  0  3  0  0  0  0  0  0
  189.2250  174.9200  147.2700 C   0  0  0  0  0  3  0  0  0  0  0  0
  190.2560  178.0890  144.6720 N   0  0  0  0  0  1  0  0  0  0  0  0
  190.5460  175.0520  146.8380 C   0  0  0  0  0  3  0  0  0  0  0  0
  190.6110  173.2210  138.7670 C   0  0  2  0  0  3  0  0  0  0  0  0
  190.8870  173.4430  137.4290 F   0  0  0  0  0  0  0  0  0  0  0  0
  188.2160  172.6690  139.3430 C   0  0  0  0  0  1  0  0  0  0  0  0
  189.2400  173.7760  139.1450 C   0  0  0  0  0  2  0  0  0  0  0  0
  1 15  1  0  0  0  0
  1 10  1  0  0  0  0
  2  1  2  0  0  0  0
  3 10  2  0  0  0  0
  4 12  1  0  0  0  0
  5  3  1  0  0  0  0
  6 13  1  0  0  0  0
  7  6  2  0  0  0  0
  8  4  1  0  0  0  0
  9  2  1  0  0  0  0
 11 12  2  0  0  0  0
 11  6  1  0  0  0  0
 12  9  1  0  0  0  0
 13  2  1  0  0  0  0
 13  5  2  0  0  0  0
 14  8  2  0  0  0  0
 15 21  1  0  0  0  0
 16 19  1  0  0  0  0
 17 15  2  0  0  0  0
 17 18  1  0  0  0  0
 18 16  2  0  0  0  0
 20 17  1  0  0  0  0
 21 19  2  0  0  0  0
 22 23  1  6  0  0  0
 22 25  1  0  0  0  0
 22  8  1  0  0  0  0
 25 24  1  0  0  0  0
M  END
>  <MODEL>
9

>  <REMARK>
 VINA RESULT:      -5.9      3.119      5.157
  Name = 
  3 active torsions:
  status: ('A' for Active; 'I' for Inactive)
    1  A    between atoms: C_1  and  C_5
    2  A    between atoms: C_2  and  C_15
    3  A    between atoms: C_2  and  C_21
                            x       y       z     vdW  Elec       q    Type
                         _______ _______ _______ _____ _____    ______ ____

>  <TORSDO>
F 3

$$$$
