=
 OpenBabel11052420293D

 34 40  0  0  1  0  0  0  0  0999 V2000
  186.7550  177.8630  144.3450 C   0  0  0  0  0  0  0  0  0  0  0  0
  183.3530  178.5650  142.7430 C   0  0  0  0  0  2  0  0  0  0  0  0
  184.1310  178.5200  145.1100 C   0  0  0  0  0  3  0  0  0  0  0  0
  188.7740  177.5550  146.2410 N   0  0  0  0  0  0  0  0  0  0  0  0
  188.0710  177.5280  144.0010 O   0  0  0  0  0  0  0  0  0  0  0  0
  187.4430  177.8960  146.6540 C   0  0  0  0  0  0  0  0  0  0  0  0
  185.8380  178.4110  148.3970 C   0  0  0  0  0  3  0  0  0  0  0  0
  187.1430  178.0790  148.0070 C   0  0  0  0  0  3  0  0  0  0  0  0
  189.0670  177.3800  144.9820 C   0  0  0  0  0  0  0  0  0  0  0  0
  185.1230  178.3780  146.0820 C   0  0  0  0  0  0  0  0  0  0  0  0
  186.4340  178.0470  145.6940 C   0  0  0  0  0  0  0  0  0  0  0  0
  184.8300  178.5600  147.4370 C   0  0  0  0  0  3  0  0  0  0  0  0
  183.6730  177.9290  141.3930 C   0  0  2  0  0  3  0  0  0  0  0  0
  185.0760  178.3350  140.9610 C   0  0  0  0  0  2  0  0  0  0  0  0
  184.4350  178.3260  143.7570 C   0  0  0  0  0  0  0  0  0  0  0  0
  186.0980  177.7370  141.9220 C   0  0  0  0  0  2  0  0  0  0  0  0
  185.7610  178.0140  143.3640 C   0  0  0  0  0  0  0  0  0  0  0  0
  192.0850  176.6750  142.8230 C   0  0  0  0  0  3  0  0  0  0  0  0
  191.4120  176.7160  145.5450 C   0  0  0  0  0  3  0  0  0  0  0  0
  195.3200  175.7190  144.3540 C   0  0  0  0  0  0  0  0  0  0  0  0
  194.3500  176.0310  143.3920 C   0  0  0  0  0  3  0  0  0  0  0  0
  193.0500  176.3630  143.7820 C   0  0  0  0  0  0  0  0  0  0  0  0
  193.6770  176.0710  146.1130 C   0  0  0  0  0  3  0  0  0  0  0  0
  192.7110  176.3840  145.1530 C   0  0  0  0  0  0  0  0  0  0  0  0
  194.9760  175.7400  145.7140 C   0  0  0  0  0  3  0  0  0  0  0  0
  190.4410  177.0290  144.5810 C   0  0  0  0  0  0  0  0  0  0  0  0
  190.7860  177.0070  143.2220 C   0  0  0  0  0  3  0  0  0  0  0  0
  196.6880  175.3690  143.9360 C   0  0  0  0  0  0  0  0  0  0  0  0
  197.3530  174.5130  144.5770 O   0  0  0  0  0  1  0  0  0  0  0  0
  197.2590  175.9840  142.8280 O   0  0  0  0  0  0  0  0  0  0  0  0
  182.7050  178.3760  140.4060 N   0  0  0  0  0  2  0  0  0  0  0  0
  181.4280  178.5070  141.0860 C   0  0  1  0  0  3  0  0  0  0  0  0
  180.6890  179.6400  140.5110 N   0  0  0  0  0  2  0  0  0  0  0  0
  180.3470  178.2610  140.1390 C   0  0  0  0  0  2  0  0  0  0  0  0
  1 11  1  0  0  0  0
  2 15  1  0  0  0  0
  3 10  1  0  0  0  0
  4  6  1  0  0  0  0
  5  1  1  0  0  0  0
  5  9  1  0  0  0  0
  6  8  1  0  0  0  0
  8  7  2  0  0  0  0
  9  4  2  0  0  0  0
 10 12  2  0  0  0  0
 11 10  1  0  0  0  0
 11  6  2  0  0  0  0
 12  7  1  0  0  0  0
 13 31  1  6  0  0  0
 13  2  1  0  0  0  0
 14 13  1  0  0  0  0
 14 16  1  0  0  0  0
 15  3  2  0  0  0  0
 16 17  1  0  0  0  0
 17 15  1  0  0  0  0
 17  1  2  0  0  0  0
 18 27  2  0  0  0  0
 18 22  1  0  0  0  0
 20 25  1  0  0  0  0
 21 22  1  0  0  0  0
 21 20  2  0  0  0  0
 22 24  2  0  0  0  0
 24 19  1  0  0  0  0
 24 23  1  0  0  0  0
 25 23  2  0  0  0  0
 26  9  1  0  0  0  0
 26 19  2  0  0  0  0
 27 26  1  0  0  0  0
 28 20  1  0  0  0  0
 28 29  1  0  0  0  0
 30 28  2  0  0  0  0
 32 31  1  6  0  0  0
 33 32  1  0  0  0  0
 34 33  1  0  0  0  0
 34 32  1  0  0  0  0
M  END
>  <MODEL>
1

>  <REMARK>
 VINA RESULT:      -9.3      0.000      0.000
  Name = 
  4 active torsions:
  status: ('A' for Active; 'I' for Inactive)
    1  A    between atoms: C_3  and  N_25
    2  A    between atoms: C_7  and  C_11
    3  A    between atoms: C_18  and  C_30
    4  A    between atoms: C_23  and  N_25
                            x       y       z     vdW  Elec       q    Type
                         _______ _______ _______ _____ _____    ______ ____

>  <TORSDO>
F 4

$$$$
=
 OpenBabel11052420293D

 34 40  0  0  1  0  0  0  0  0999 V2000
  186.5110  177.7520  143.8030 C   0  0  0  0  0  0  0  0  0  0  0  0
  182.9980  178.7480  142.6620 C   0  0  0  0  0  2  0  0  0  0  0  0
  184.0820  178.6400  144.9030 C   0  0  0  0  0  3  0  0  0  0  0  0
  188.7320  177.2710  145.4150 N   0  0  0  0  0  0  0  0  0  0  0  0
  187.7340  177.3000  143.2900 O   0  0  0  0  0  0  0  0  0  0  0  0
  187.5050  177.7300  145.9980 C   0  0  0  0  0  0  0  0  0  0  0  0
  186.2010  178.3890  147.9330 C   0  0  0  0  0  3  0  0  0  0  0  0
  187.4070  177.9420  147.3760 C   0  0  0  0  0  3  0  0  0  0  0  0
  188.8370  177.0670  144.1310 C   0  0  0  0  0  0  0  0  0  0  0  0
  185.1800  178.4130  145.7360 C   0  0  0  0  0  0  0  0  0  0  0  0
  186.3930  177.9670  145.1800 C   0  0  0  0  0  0  0  0  0  0  0  0
  185.0890  178.6240  147.1150 C   0  0  0  0  0  3  0  0  0  0  0  0
  183.0760  178.0830  141.2910 C   0  0  2  0  0  3  0  0  0  0  0  0
  184.4390  178.3620  140.6680 C   0  0  0  0  0  2  0  0  0  0  0  0
  184.1820  178.4170  143.5250 C   0  0  0  0  0  0  0  0  0  0  0  0
  185.5240  177.6780  141.4920 C   0  0  0  0  0  2  0  0  0  0  0  0
  185.4100  177.9880  142.9620 C   0  0  0  0  0  0  0  0  0  0  0  0
  192.5230  176.8020  143.3520 C   0  0  0  0  0  3  0  0  0  0  0  0
  190.1330  175.5080  142.6670 C   0  0  0  0  0  3  0  0  0  0  0  0
  193.7820  174.1950  141.0420 C   0  0  0  0  0  0  0  0  0  0  0  0
  193.7570  175.2810  141.9270 C   0  0  0  0  0  3  0  0  0  0  0  0
  192.5470  175.7210  142.4700 C   0  0  0  0  0  0  0  0  0  0  0  0
  191.3660  173.9870  141.2410 C   0  0  0  0  0  3  0  0  0  0  0  0
  191.3420  175.0690  142.1240 C   0  0  0  0  0  0  0  0  0  0  0  0
  192.5820  173.5520  140.7020 C   0  0  0  0  0  3  0  0  0  0  0  0
  190.1070  176.5950  143.5540 C   0  0  0  0  0  0  0  0  0  0  0  0
  191.3080  177.2370  143.8910 C   0  0  0  0  0  3  0  0  0  0  0  0
  195.0600  173.7360  140.4730 C   0  0  0  0  0  0  0  0  0  0  0  0
  195.1730  173.5350  139.2350 O   0  0  0  0  0  0  0  0  0  0  0  0
  196.1560  173.5190  141.3000 O   0  0  0  0  0  1  0  0  0  0  0  0
  182.0260  178.6110  140.4370 N   0  0  0  0  0  2  0  0  0  0  0  0
  180.9370  179.0280  141.3020 C   0  0  1  0  0  3  0  0  0  0  0  0
  180.0720  179.9660  140.5720 N   0  0  0  0  0  2  0  0  0  0  0  0
  179.6710  178.5640  140.7480 C   0  0  0  0  0  2  0  0  0  0  0  0
  1 11  1  0  0  0  0
  2 15  1  0  0  0  0
  3 10  1  0  0  0  0
  4  6  1  0  0  0  0
  5  1  1  0  0  0  0
  5  9  1  0  0  0  0
  6  8  1  0  0  0  0
  8  7  2  0  0  0  0
  9  4  2  0  0  0  0
 10 12  2  0  0  0  0
 11 10  1  0  0  0  0
 11  6  2  0  0  0  0
 12  7  1  0  0  0  0
 13 31  1  6  0  0  0
 13  2  1  0  0  0  0
 14 13  1  0  0  0  0
 14 16  1  0  0  0  0
 15  3  2  0  0  0  0
 16 17  1  0  0  0  0
 17 15  1  0  0  0  0
 17  1  2  0  0  0  0
 18 27  1  0  0  0  0
 19 26  1  0  0  0  0
 20 21  2  0  0  0  0
 21 22  1  0  0  0  0
 22 18  2  0  0  0  0
 23 24  1  0  0  0  0
 24 22  1  0  0  0  0
 24 19  2  0  0  0  0
 25 20  1  0  0  0  0
 25 23  2  0  0  0  0
 26 27  2  0  0  0  0
 26  9  1  0  0  0  0
 28 20  1  0  0  0  0
 28 30  1  0  0  0  0
 29 28  2  0  0  0  0
 32 31  1  6  0  0  0
 33 34  1  0  0  0  0
 33 32  1  0  0  0  0
 34 32  1  0  0  0  0
M  END
>  <MODEL>
2

>  <REMARK>
 VINA RESULT:      -8.2      1.741      2.346
  Name = 
  4 active torsions:
  status: ('A' for Active; 'I' for Inactive)
    1  A    between atoms: C_3  and  N_25
    2  A    between atoms: C_7  and  C_11
    3  A    between atoms: C_18  and  C_30
    4  A    between atoms: C_23  and  N_25
                            x       y       z     vdW  Elec       q    Type
                         _______ _______ _______ _____ _____    ______ ____

>  <TORSDO>
F 4

$$$$
=
 OpenBabel11052420293D

 34 40  0  0  1  0  0  0  0  0999 V2000
  195.0940  175.1520  142.6450 C   0  0  0  0  0  0  0  0  0  0  0  0
  197.6270  174.4410  139.8680 C   0  0  0  0  0  2  0  0  0  0  0  0
  197.6940  174.1280  142.3400 C   0  0  0  0  0  3  0  0  0  0  0  0
  193.8880  175.2950  145.1530 N   0  0  0  0  0  0  0  0  0  0  0  0
  193.8040  175.6640  142.8360 O   0  0  0  0  0  0  0  0  0  0  0  0
  195.2130  174.7640  145.0210 C   0  0  0  0  0  0  0  0  0  0  0  0
  197.2100  173.7960  145.9990 C   0  0  0  0  0  3  0  0  0  0  0  0
  195.9140  174.3120  146.1430 C   0  0  0  0  0  3  0  0  0  0  0  0
  193.2230  175.7220  144.1150 C   0  0  0  0  0  0  0  0  0  0  0  0
  197.1130  174.1820  143.6090 C   0  0  0  0  0  0  0  0  0  0  0  0
  195.8130  174.6970  143.7560 C   0  0  0  0  0  0  0  0  0  0  0  0
  197.8090  173.7310  144.7350 C   0  0  0  0  0  3  0  0  0  0  0  0
  196.9770  175.3380  138.8190 C   0  0  2  0  0  3  0  0  0  0  0  0
  195.4660  175.1480  138.8570 C   0  0  0  0  0  2  0  0  0  0  0  0
  196.9910  174.5910  141.2210 C   0  0  0  0  0  0  0  0  0  0  0  0
  194.9220  175.6540  140.1890 C   0  0  0  0  0  2  0  0  0  0  0  0
  195.6730  175.0900  141.3670 C   0  0  0  0  0  0  0  0  0  0  0  0
  190.1240  177.8080  143.5570 C   0  0  0  0  0  3  0  0  0  0  0  0
  191.0090  175.7780  145.2770 C   0  0  0  0  0  3  0  0  0  0  0  0
  187.1350  177.3570  145.6980 C   0  0  0  0  0  0  0  0  0  0  0  0
  187.9880  177.8440  144.6980 C   0  0  0  0  0  3  0  0  0  0  0  0
  189.2760  177.3230  144.5540 C   0  0  0  0  0  0  0  0  0  0  0  0
  188.8730  175.8150  146.4180 C   0  0  0  0  0  3  0  0  0  0  0  0
  189.7220  176.3000  145.4210 C   0  0  0  0  0  0  0  0  0  0  0  0
  187.5840  176.3420  146.5560 C   0  0  0  0  0  3  0  0  0  0  0  0
  191.8630  176.2650  144.2750 C   0  0  0  0  0  0  0  0  0  0  0  0
  191.4120  177.2810  143.4190 C   0  0  0  0  0  3  0  0  0  0  0  0
  185.7790  177.9110  145.8450 C   0  0  0  0  0  0  0  0  0  0  0  0
  184.8200  177.1720  146.1930 O   0  0  0  0  0  1  0  0  0  0  0  0
  185.5430  179.2590  145.5990 O   0  0  0  0  0  0  0  0  0  0  0  0
  197.4850  174.9910  137.5040 N   0  0  0  0  0  2  0  0  0  0  0  0
  196.6370  175.6510  136.5270 C   0  0  1  0  0  3  0  0  0  0  0  0
  197.4570  176.0730  135.3820 N   0  0  0  0  0  2  0  0  0  0  0  0
  196.6160  174.8710  135.2950 C   0  0  0  0  0  2  0  0  0  0  0  0
  1  5  1  0  0  0  0
  1 11  1  0  0  0  0
  2 15  1  0  0  0  0
  3 10  1  0  0  0  0
  5  9  1  0  0  0  0
  6  4  1  0  0  0  0
  6  8  1  0  0  0  0
  7  8  2  0  0  0  0
  9 26  1  0  0  0  0
  9  4  2  0  0  0  0
 10 11  1  0  0  0  0
 10 12  2  0  0  0  0
 11  6  2  0  0  0  0
 12  7  1  0  0  0  0
 13 31  1  6  0  0  0
 13 14  1  0  0  0  0
 13  2  1  0  0  0  0
 14 16  1  0  0  0  0
 15 17  1  0  0  0  0
 15  3  2  0  0  0  0
 16 17  1  0  0  0  0
 17  1  2  0  0  0  0
 18 22  1  0  0  0  0
 19 24  1  0  0  0  0
 20 28  1  0  0  0  0
 20 25  1  0  0  0  0
 21 20  2  0  0  0  0
 22 21  1  0  0  0  0
 22 24  2  0  0  0  0
 23 25  2  0  0  0  0
 24 23  1  0  0  0  0
 26 19  2  0  0  0  0
 27 18  2  0  0  0  0
 27 26  1  0  0  0  0
 28 29  1  0  0  0  0
 30 28  2  0  0  0  0
 32 31  1  1  0  0  0
 33 32  1  0  0  0  0
 34 33  1  0  0  0  0
 34 32  1  0  0  0  0
M  END
>  <MODEL>
3

>  <REMARK>
 VINA RESULT:      -8.0      4.493     10.698
  Name = 
  4 active torsions:
  status: ('A' for Active; 'I' for Inactive)
    1  A    between atoms: C_3  and  N_25
    2  A    between atoms: C_7  and  C_11
    3  A    between atoms: C_18  and  C_30
    4  A    between atoms: C_23  and  N_25
                            x       y       z     vdW  Elec       q    Type
                         _______ _______ _______ _____ _____    ______ ____

>  <TORSDO>
F 4

$$$$
=
 OpenBabel11052420293D

 34 40  0  0  1  0  0  0  0  0999 V2000
  194.3490  173.8820  143.6300 C   0  0  0  0  0  0  0  0  0  0  0  0
  196.5630  170.8460  144.3440 C   0  0  0  0  0  2  0  0  0  0  0  0
  196.8420  172.8340  142.8670 C   0  0  0  0  0  3  0  0  0  0  0  0
  193.4410  176.3170  142.6220 N   0  0  0  0  0  0  0  0  0  0  0  0
  193.1080  174.4310  143.9820 O   0  0  0  0  0  0  0  0  0  0  0  0
  194.7190  175.8040  142.2230 C   0  0  0  0  0  0  0  0  0  0  0  0
  196.7700  176.0010  140.9450 C   0  0  0  0  0  3  0  0  0  0  0  0
  195.5230  176.5150  141.3280 C   0  0  0  0  0  3  0  0  0  0  0  0
  192.6790  175.6620  143.4550 C   0  0  0  0  0  0  0  0  0  0  0  0
  196.4160  174.0580  142.3500 C   0  0  0  0  0  0  0  0  0  0  0  0
  195.1660  174.5780  142.7340 C   0  0  0  0  0  0  0  0  0  0  0  0
  197.2160  174.7760  141.4550 C   0  0  0  0  0  3  0  0  0  0  0  0
  195.4590  169.9740  144.9370 C   0  0  2  0  0  3  0  0  0  0  0  0
  194.5960  170.8140  145.8700 C   0  0  0  0  0  2  0  0  0  0  0  0
  196.0280  172.1210  143.7560 C   0  0  0  0  0  0  0  0  0  0  0  0
  193.8570  171.8760  145.0610 C   0  0  0  0  0  2  0  0  0  0  0  0
  194.7790  172.6540  144.1590 C   0  0  0  0  0  0  0  0  0  0  0  0
  189.5320  177.7510  143.4460 C   0  0  0  0  0  3  0  0  0  0  0  0
  190.7040  175.7250  144.9890 C   0  0  0  0  0  3  0  0  0  0  0  0
  186.9670  177.3120  146.0820 C   0  0  0  0  0  0  0  0  0  0  0  0
  187.6300  177.7950  144.9460 C   0  0  0  0  0  3  0  0  0  0  0  0
  188.8720  177.2710  144.5780 C   0  0  0  0  0  0  0  0  0  0  0  0
  188.8030  175.7690  146.4890 C   0  0  0  0  0  3  0  0  0  0  0  0
  189.4630  176.2500  145.3560 C   0  0  0  0  0  0  0  0  0  0  0  0
  187.5600  176.2980  146.8500 C   0  0  0  0  0  3  0  0  0  0  0  0
  191.3690  176.2080  143.8500 C   0  0  0  0  0  0  0  0  0  0  0  0
  190.7750  177.2220  143.0840 C   0  0  0  0  0  3  0  0  0  0  0  0
  185.6590  177.8690  146.4640 C   0  0  0  0  0  0  0  0  0  0  0  0
  184.6240  177.1510  146.4320 O   0  0  0  0  0  0  0  0  0  0  0  0
  185.5530  179.1960  146.8630 O   0  0  0  0  0  1  0  0  0  0  0  0
  196.0560  168.8740  145.6750 N   0  0  0  0  0  2  0  0  0  0  0  0
  196.1590  169.2930  147.0620 C   0  0  1  0  0  3  0  0  0  0  0  0
  195.7990  168.1660  147.9350 N   0  0  0  0  0  2  0  0  0  0  0  0
  197.2070  168.5260  147.7240 C   0  0  0  0  0  2  0  0  0  0  0  0
  1  5  1  0  0  0  0
  1 17  1  0  0  0  0
  2 13  1  0  0  0  0
  3 15  1  0  0  0  0
  4  9  2  0  0  0  0
  6  4  1  0  0  0  0
  6 11  1  0  0  0  0
  7  8  1  0  0  0  0
  7 12  2  0  0  0  0
  8  6  2  0  0  0  0
  9 26  1  0  0  0  0
  9  5  1  0  0  0  0
 10 11  1  0  0  0  0
 10  3  2  0  0  0  0
 11  1  2  0  0  0  0
 12 10  1  0  0  0  0
 13 31  1  1  0  0  0
 13 14  1  0  0  0  0
 15 17  2  0  0  0  0
 15  2  1  0  0  0  0
 16 14  1  0  0  0  0
 17 16  1  0  0  0  0
 18 22  1  0  0  0  0
 19 24  1  0  0  0  0
 20 28  1  0  0  0  0
 20 25  1  0  0  0  0
 21 20  2  0  0  0  0
 22 21  1  0  0  0  0
 22 24  2  0  0  0  0
 23 25  2  0  0  0  0
 24 23  1  0  0  0  0
 26 19  2  0  0  0  0
 27 18  2  0  0  0  0
 27 26  1  0  0  0  0
 28 30  1  0  0  0  0
 29 28  2  0  0  0  0
 32 31  1  6  0  0  0
 32 34  1  0  0  0  0
 32 33  1  0  0  0  0
 34 33  1  0  0  0  0
M  END
>  <MODEL>
4

>  <REMARK>
 VINA RESULT:      -8.0      4.417     11.393
  Name = 
  4 active torsions:
  status: ('A' for Active; 'I' for Inactive)
    1  A    between atoms: C_3  and  N_25
    2  A    between atoms: C_7  and  C_11
    3  A    between atoms: C_18  and  C_30
    4  A    between atoms: C_23  and  N_25
                            x       y       z     vdW  Elec       q    Type
                         _______ _______ _______ _____ _____    ______ ____

>  <TORSDO>
F 4

$$$$
=
 OpenBabel11052420293D

 34 40  0  0  1  0  0  0  0  0999 V2000
  187.3340  176.7830  143.3270 C   0  0  0  0  0  0  0  0  0  0  0  0
  183.8850  178.2920  142.6500 C   0  0  0  0  0  2  0  0  0  0  0  0
  185.0520  177.6110  144.7440 C   0  0  0  0  0  3  0  0  0  0  0  0
  189.5700  175.7810  144.6560 N   0  0  0  0  0  0  0  0  0  0  0  0
  188.4850  176.3520  142.6530 O   0  0  0  0  0  0  0  0  0  0  0  0
  188.4190  176.2030  145.4000 C   0  0  0  0  0  0  0  0  0  0  0  0
  187.2700  176.5330  147.5100 C   0  0  0  0  0  3  0  0  0  0  0  0
  188.4030  176.1190  146.7950 C   0  0  0  0  0  3  0  0  0  0  0  0
  189.5970  175.8520  143.3540 C   0  0  0  0  0  0  0  0  0  0  0  0
  186.1600  177.1180  145.4370 C   0  0  0  0  0  0  0  0  0  0  0  0
  187.2990  176.7040  144.7230 C   0  0  0  0  0  0  0  0  0  0  0  0
  186.1510  177.0320  146.8330 C   0  0  0  0  0  3  0  0  0  0  0  0
  183.8380  177.9350  141.1670 C   0  0  2  0  0  3  0  0  0  0  0  0
  185.1920  178.2280  140.5320 C   0  0  0  0  0  2  0  0  0  0  0  0
  185.0700  177.6840  143.3460 C   0  0  0  0  0  0  0  0  0  0  0  0
  186.2430  177.2930  141.1220 C   0  0  0  0  0  2  0  0  0  0  0  0
  186.2250  177.2860  142.6280 C   0  0  0  0  0  0  0  0  0  0  0  0
  191.8280  173.8830  141.0270 C   0  0  0  0  0  3  0  0  0  0  0  0
  192.0160  176.0790  142.7610 C   0  0  0  0  0  3  0  0  0  0  0  0
  195.3970  174.7880  140.6190 C   0  0  0  0  0  0  0  0  0  0  0  0
  194.1730  174.1220  140.4690 C   0  0  0  0  0  3  0  0  0  0  0  0
  193.0470  174.5470  141.1780 C   0  0  0  0  0  0  0  0  0  0  0  0
  194.3610  176.3170  142.2020 C   0  0  0  0  0  3  0  0  0  0  0  0
  193.1420  175.6530  142.0510 C   0  0  0  0  0  0  0  0  0  0  0  0
  195.4840  175.8860  141.4890 C   0  0  0  0  0  3  0  0  0  0  0  0
  190.7900  175.4120  142.6100 C   0  0  0  0  0  0  0  0  0  0  0  0
  190.7050  174.3150  141.7410 C   0  0  0  0  0  3  0  0  0  0  0  0
  196.5800  174.3350  139.8690 C   0  0  0  0  0  0  0  0  0  0  0  0
  196.4650  173.4870  138.9440 O   0  0  0  0  0  0  0  0  0  0  0  0
  197.8380  174.8390  140.1760 O   0  0  0  0  0  1  0  0  0  0  0  0
  182.8060  178.7210  140.5130 N   0  0  0  0  0  2  0  0  0  0  0  0
  181.6170  178.6440  141.3430 C   0  0  1  0  0  3  0  0  0  0  0  0
  180.6680  179.6870  140.9240 N   0  0  0  0  0  2  0  0  0  0  0  0
  180.4700  178.2900  140.5160 C   0  0  0  0  0  2  0  0  0  0  0  0
  1 11  1  0  0  0  0
  2 15  1  0  0  0  0
  3 10  1  0  0  0  0
  4  6  1  0  0  0  0
  5  1  1  0  0  0  0
  5  9  1  0  0  0  0
  6  8  1  0  0  0  0
  8  7  2  0  0  0  0
  9  4  2  0  0  0  0
 10 12  2  0  0  0  0
 11  6  2  0  0  0  0
 11 10  1  0  0  0  0
 12  7  1  0  0  0  0
 13 31  1  6  0  0  0
 13  2  1  0  0  0  0
 14 16  1  0  0  0  0
 14 13  1  0  0  0  0
 15  3  2  0  0  0  0
 16 17  1  0  0  0  0
 17  1  2  0  0  0  0
 17 15  1  0  0  0  0
 18 22  2  0  0  0  0
 18 27  1  0  0  0  0
 20 25  1  0  0  0  0
 21 20  2  0  0  0  0
 21 22  1  0  0  0  0
 22 24  1  0  0  0  0
 24 23  1  0  0  0  0
 24 19  2  0  0  0  0
 25 23  2  0  0  0  0
 26 19  1  0  0  0  0
 26  9  1  0  0  0  0
 27 26  2  0  0  0  0
 28 30  1  0  0  0  0
 28 20  1  0  0  0  0
 29 28  2  0  0  0  0
 32 31  1  6  0  0  0
 33 32  1  0  0  0  0
 34 33  1  0  0  0  0
 34 32  1  0  0  0  0
M  END
>  <MODEL>
5

>  <REMARK>
 VINA RESULT:      -7.9      2.067      2.603
  Name = 
  4 active torsions:
  status: ('A' for Active; 'I' for Inactive)
    1  A    between atoms: C_3  and  N_25
    2  A    between atoms: C_7  and  C_11
    3  A    between atoms: C_18  and  C_30
    4  A    between atoms: C_23  and  N_25
                            x       y       z     vdW  Elec       q    Type
                         _______ _______ _______ _____ _____    ______ ____

>  <TORSDO>
F 4

$$$$
=
 OpenBabel11052420293D

 34 40  0  0  1  0  0  0  0  0999 V2000
  190.5280  176.7910  143.9740 C   0  0  0  0  0  0  0  0  0  0  0  0
  186.9140  177.9960  144.3190 C   0  0  0  0  0  2  0  0  0  0  0  0
  188.5750  177.1350  145.9650 C   0  0  0  0  0  3  0  0  0  0  0  0
  193.0750  175.8500  144.6010 N   0  0  0  0  0  0  0  0  0  0  0  0
  191.5230  176.5990  143.0060 O   0  0  0  0  0  0  0  0  0  0  0  0
  192.0960  176.0230  145.6350 C   0  0  0  0  0  0  0  0  0  0  0  0
  191.4390  175.8960  147.9650 C   0  0  0  0  0  3  0  0  0  0  0  0
  192.4060  175.7240  146.9650 C   0  0  0  0  0  3  0  0  0  0  0  0
  192.7990  176.1230  143.3550 C   0  0  0  0  0  0  0  0  0  0  0  0
  189.8440  176.6660  146.3110 C   0  0  0  0  0  0  0  0  0  0  0  0
  190.8180  176.4950  145.3100 C   0  0  0  0  0  0  0  0  0  0  0  0
  190.1610  176.3670  147.6400 C   0  0  0  0  0  3  0  0  0  0  0  0
  186.5560  177.8690  142.8420 C   0  0  2  0  0  3  0  0  0  0  0  0
  187.7040  178.4040  141.9940 C   0  0  0  0  0  2  0  0  0  0  0  0
  188.2680  177.4230  144.6300 C   0  0  0  0  0  0  0  0  0  0  0  0
  188.9280  177.5110  142.1740 C   0  0  0  0  0  2  0  0  0  0  0  0
  189.2550  177.2700  143.6250 C   0  0  0  0  0  0  0  0  0  0  0  0
  196.1130  176.2160  141.5450 C   0  0  0  0  0  3  0  0  0  0  0  0
  193.4960  175.3160  141.0930 C   0  0  0  0  0  3  0  0  0  0  0  0
  196.4410  174.8070  138.1350 C   0  0  0  0  0  0  0  0  0  0  0  0
  196.7640  175.4280  139.3490 C   0  0  0  0  0  3  0  0  0  0  0  0
  195.7890  175.5990  140.3350 C   0  0  0  0  0  0  0  0  0  0  0  0
  194.1480  174.5280  138.8970 C   0  0  0  0  0  3  0  0  0  0  0  0
  194.4710  175.1450  140.1080 C   0  0  0  0  0  0  0  0  0  0  0  0
  195.1290  174.3590  137.9150 C   0  0  0  0  0  3  0  0  0  0  0  0
  193.8200  175.9370  142.3100 C   0  0  0  0  0  0  0  0  0  0  0  0
  195.1310  176.3840  142.5270 C   0  0  0  0  0  3  0  0  0  0  0  0
  197.4730  174.6300  137.1000 C   0  0  0  0  0  0  0  0  0  0  0  0
  197.9400  175.6260  136.4860 O   0  0  0  0  0  0  0  0  0  0  0  0
  197.9410  173.3580  136.7890 O   0  0  0  0  0  1  0  0  0  0  0  0
  185.3480  178.6280  142.5690 N   0  0  0  0  0  2  0  0  0  0  0  0
  184.3930  177.7140  141.9660 C   0  0  1  0  0  3  0  0  0  0  0  0
  183.0610  178.3360  141.9680 N   0  0  0  0  0  2  0  0  0  0  0  0
  183.8670  178.3010  140.7400 C   0  0  0  0  0  2  0  0  0  0  0  0
  1 11  1  0  0  0  0
  2 15  1  0  0  0  0
  3 10  1  0  0  0  0
  4  6  1  0  0  0  0
  5  9  1  0  0  0  0
  5  1  1  0  0  0  0
  6  8  1  0  0  0  0
  8  7  2  0  0  0  0
  9  4  2  0  0  0  0
 10 12  2  0  0  0  0
 11  6  2  0  0  0  0
 11 10  1  0  0  0  0
 12  7  1  0  0  0  0
 13 31  1  1  0  0  0
 13  2  1  0  0  0  0
 14 16  1  0  0  0  0
 14 13  1  0  0  0  0
 15  3  2  0  0  0  0
 16 17  1  0  0  0  0
 17  1  2  0  0  0  0
 17 15  1  0  0  0  0
 18 27  1  0  0  0  0
 19 26  1  0  0  0  0
 20 21  2  0  0  0  0
 21 22  1  0  0  0  0
 22 18  2  0  0  0  0
 23 24  1  0  0  0  0
 24 22  1  0  0  0  0
 24 19  2  0  0  0  0
 25 20  1  0  0  0  0
 25 23  2  0  0  0  0
 26 27  2  0  0  0  0
 26  9  1  0  0  0  0
 28 20  1  0  0  0  0
 29 28  2  0  0  0  0
 30 28  1  0  0  0  0
 32 33  1  0  0  0  0
 32 31  1  1  0  0  0
 34 32  1  0  0  0  0
 34 33  1  0  0  0  0
M  END
>  <MODEL>
6

>  <REMARK>
 VINA RESULT:      -7.7      3.292      5.027
  Name = 
  4 active torsions:
  status: ('A' for Active; 'I' for Inactive)
    1  A    between atoms: C_3  and  N_25
    2  A    between atoms: C_7  and  C_11
    3  A    between atoms: C_18  and  C_30
    4  A    between atoms: C_23  and  N_25
                            x       y       z     vdW  Elec       q    Type
                         _______ _______ _______ _____ _____    ______ ____

>  <TORSDO>
F 4

$$$$
=
 OpenBabel11052420293D

 34 40  0  0  1  0  0  0  0  0999 V2000
  189.3380  175.3210  144.5550 C   0  0  0  0  0  0  0  0  0  0  0  0
  191.8340  172.5960  143.5680 C   0  0  0  0  0  2  0  0  0  0  0  0
  191.8210  174.3000  145.3870 C   0  0  0  0  0  3  0  0  0  0  0  0
  188.1070  177.4100  145.9290 N   0  0  0  0  0  0  0  0  0  0  0  0
  188.1050  175.8610  144.1640 O   0  0  0  0  0  0  0  0  0  0  0  0
  189.3720  176.9020  146.3750 C   0  0  0  0  0  0  0  0  0  0  0  0
  191.2370  176.9370  147.9240 C   0  0  0  0  0  3  0  0  0  0  0  0
  190.0000  177.4430  147.5000 C   0  0  0  0  0  3  0  0  0  0  0  0
  187.5110  176.9160  144.8800 C   0  0  0  0  0  0  0  0  0  0  0  0
  191.2260  175.3440  146.0980 C   0  0  0  0  0  0  0  0  0  0  0  0
  189.9840  175.8520  145.6770 C   0  0  0  0  0  0  0  0  0  0  0  0
  191.8490  175.8890  147.2250 C   0  0  0  0  0  3  0  0  0  0  0  0
  191.3020  172.3900  142.1530 C   0  0  2  0  0  3  0  0  0  0  0  0
  189.7780  172.3780  142.1820 C   0  0  0  0  0  2  0  0  0  0  0  0
  191.1920  173.7680  144.2550 C   0  0  0  0  0  0  0  0  0  0  0  0
  189.2660  173.7550  142.5920 C   0  0  0  0  0  2  0  0  0  0  0  0
  189.9310  174.2660  143.8430 C   0  0  0  0  0  0  0  0  0  0  0  0
  184.1360  178.6100  144.9620 C   0  0  0  0  0  3  0  0  0  0  0  0
  185.8030  177.3370  143.1020 C   0  0  0  0  0  3  0  0  0  0  0  0
  182.0880  178.8890  141.8880 C   0  0  0  0  0  0  0  0  0  0  0  0
  182.4960  179.0060  143.2240 C   0  0  0  0  0  3  0  0  0  0  0  0
  183.7300  178.4920  143.6320 C   0  0  0  0  0  0  0  0  0  0  0  0
  184.1640  177.7330  141.3630 C   0  0  0  0  0  3  0  0  0  0  0  0
  184.5700  177.8510  142.6940 C   0  0  0  0  0  0  0  0  0  0  0  0
  182.9270  178.2510  140.9620 C   0  0  0  0  0  3  0  0  0  0  0  0
  186.2120  177.4550  144.4390 C   0  0  0  0  0  0  0  0  0  0  0  0
  185.3720  178.0930  145.3630 C   0  0  0  0  0  3  0  0  0  0  0  0
  180.7870  179.4330  141.4640 C   0  0  0  0  0  0  0  0  0  0  0  0
  180.6920  180.1150  140.4100 O   0  0  0  0  0  0  0  0  0  0  0  0
  179.6490  179.1980  142.2270 O   0  0  0  0  0  1  0  0  0  0  0  0
  191.7950  171.1280  141.6300 N   0  0  0  0  0  2  0  0  0  0  0  0
  190.6950  170.1810  141.6830 C   0  0  1  0  0  3  0  0  0  0  0  0
  190.7820  169.2740  140.5300 N   0  0  0  0  0  2  0  0  0  0  0  0
  191.2230  168.8340  141.8610 C   0  0  0  0  0  2  0  0  0  0  0  0
  1 11  1  0  0  0  0
  2 15  1  0  0  0  0
  3 10  1  0  0  0  0
  4  6  1  0  0  0  0
  5  1  1  0  0  0  0
  5  9  1  0  0  0  0
  6  8  1  0  0  0  0
  8  7  2  0  0  0  0
  9  4  2  0  0  0  0
 10 12  2  0  0  0  0
 11 10  1  0  0  0  0
 11  6  2  0  0  0  0
 12  7  1  0  0  0  0
 13 31  1  1  0  0  0
 13 14  1  0  0  0  0
 13  2  1  0  0  0  0
 14 16  1  0  0  0  0
 15  3  2  0  0  0  0
 16 17  1  0  0  0  0
 17 15  1  0  0  0  0
 17  1  2  0  0  0  0
 18 27  1  0  0  0  0
 19 26  1  0  0  0  0
 20 21  2  0  0  0  0
 21 22  1  0  0  0  0
 22 18  2  0  0  0  0
 23 24  1  0  0  0  0
 24 19  2  0  0  0  0
 24 22  1  0  0  0  0
 25 23  2  0  0  0  0
 25 20  1  0  0  0  0
 26  9  1  0  0  0  0
 26 27  2  0  0  0  0
 28 20  1  0  0  0  0
 28 30  1  0  0  0  0
 29 28  2  0  0  0  0
 32 31  1  6  0  0  0
 32 34  1  0  0  0  0
 33 32  1  0  0  0  0
 33 34  1  0  0  0  0
M  END
>  <MODEL>
7

>  <REMARK>
 VINA RESULT:      -7.6      4.104      9.756
  Name = 
  4 active torsions:
  status: ('A' for Active; 'I' for Inactive)
    1  A    between atoms: C_3  and  N_25
    2  A    between atoms: C_7  and  C_11
    3  A    between atoms: C_18  and  C_30
    4  A    between atoms: C_23  and  N_25
                            x       y       z     vdW  Elec       q    Type
                         _______ _______ _______ _____ _____    ______ ____

>  <TORSDO>
F 4

$$$$
=
 OpenBabel11052420293D

 34 40  0  0  1  0  0  0  0  0999 V2000
  192.6180  172.4480  143.3800 C   0  0  0  0  0  0  0  0  0  0  0  0
  195.8570  170.4310  143.6500 C   0  0  0  0  0  2  0  0  0  0  0  0
  194.2740  170.8460  141.7700 C   0  0  0  0  0  3  0  0  0  0  0  0
  190.3330  173.6580  142.3390 N   0  0  0  0  0  0  0  0  0  0  0  0
  191.7650  173.2460  144.1540 O   0  0  0  0  0  0  0  0  0  0  0  0
  191.1660  172.8490  141.4980 C   0  0  0  0  0  0  0  0  0  0  0  0
  191.6680  171.8640  139.3400 C   0  0  0  0  0  3  0  0  0  0  0  0
  190.8450  172.6580  140.1510 C   0  0  0  0  0  3  0  0  0  0  0  0
  190.6190  173.8430  143.5990 C   0  0  0  0  0  0  0  0  0  0  0  0
  193.1380  171.4430  141.2200 C   0  0  0  0  0  0  0  0  0  0  0  0
  192.3120  172.2430  142.0300 C   0  0  0  0  0  0  0  0  0  0  0  0
  192.8120  171.2570  139.8730 C   0  0  0  0  0  3  0  0  0  0  0  0
  195.8680  170.3410  145.1730 C   0  0  2  0  0  3  0  0  0  0  0  0
  195.4880  171.6940  145.7630 C   0  0  0  0  0  2  0  0  0  0  0  0
  194.5850  171.0320  143.1230 C   0  0  0  0  0  0  0  0  0  0  0  0
  194.0420  172.0180  145.4050 C   0  0  0  0  0  2  0  0  0  0  0  0
  193.7640  171.8550  143.9330 C   0  0  0  0  0  0  0  0  0  0  0  0
  188.9390  175.2920  146.6550 C   0  0  0  0  0  3  0  0  0  0  0  0
  188.9050  175.6430  143.8730 C   0  0  0  0  0  3  0  0  0  0  0  0
  186.4350  178.0020  146.3260 C   0  0  0  0  0  0  0  0  0  0  0  0
  187.2770  177.0380  146.8960 C   0  0  0  0  0  3  0  0  0  0  0  0
  188.1000  176.2520  146.0850 C   0  0  0  0  0  0  0  0  0  0  0  0
  187.2430  177.3880  144.1150 C   0  0  0  0  0  3  0  0  0  0  0  0
  188.0820  176.4280  144.6840 C   0  0  0  0  0  0  0  0  0  0  0  0
  186.4220  178.1720  144.9330 C   0  0  0  0  0  3  0  0  0  0  0  0
  189.7490  174.6770  144.4440 C   0  0  0  0  0  0  0  0  0  0  0  0
  189.7590  174.5090  145.8370 C   0  0  0  0  0  3  0  0  0  0  0  0
  185.5700  178.8270  147.1850 C   0  0  0  0  0  0  0  0  0  0  0  0
  184.3210  178.6660  147.1780 O   0  0  0  0  0  0  0  0  0  0  0  0
  186.1260  179.7950  148.0130 O   0  0  0  0  0  1  0  0  0  0  0  0
  197.1950  169.9610  145.6250 N   0  0  0  0  0  2  0  0  0  0  0  0
  197.1540  168.5410  145.9310 C   0  0  1  0  0  3  0  0  0  0  0  0
  197.7610  168.3130  147.2500 N   0  0  0  0  0  2  0  0  0  0  0  0
  196.3010  168.3180  147.0920 C   0  0  0  0  0  2  0  0  0  0  0  0
  1 17  1  0  0  0  0
  1  5  1  0  0  0  0
  2 13  1  0  0  0  0
  3 15  1  0  0  0  0
  4  9  2  0  0  0  0
  6 11  1  0  0  0  0
  6  4  1  0  0  0  0
  7 12  2  0  0  0  0
  7  8  1  0  0  0  0
  8  6  2  0  0  0  0
  9  5  1  0  0  0  0
  9 26  1  0  0  0  0
 10  3  2  0  0  0  0
 10 11  1  0  0  0  0
 11  1  2  0  0  0  0
 12 10  1  0  0  0  0
 13 31  1  1  0  0  0
 13 14  1  0  0  0  0
 15  2  1  0  0  0  0
 15 17  2  0  0  0  0
 16 14  1  0  0  0  0
 17 16  1  0  0  0  0
 19 26  2  0  0  0  0
 19 24  1  0  0  0  0
 20 21  1  0  0  0  0
 20 28  1  0  0  0  0
 22 18  1  0  0  0  0
 22 21  2  0  0  0  0
 23 24  2  0  0  0  0
 23 25  1  0  0  0  0
 24 22  1  0  0  0  0
 25 20  2  0  0  0  0
 26 27  1  0  0  0  0
 27 18  2  0  0  0  0
 28 30  1  0  0  0  0
 29 28  2  0  0  0  0
 32 31  1  1  0  0  0
 32 34  1  0  0  0  0
 32 33  1  0  0  0  0
 34 33  1  0  0  0  0
M  END
>  <MODEL>
8

>  <REMARK>
 VINA RESULT:      -7.4      5.140     11.458
  Name = 
  4 active torsions:
  status: ('A' for Active; 'I' for Inactive)
    1  A    between atoms: C_3  and  N_25
    2  A    between atoms: C_7  and  C_11
    3  A    between atoms: C_18  and  C_30
    4  A    between atoms: C_23  and  N_25
                            x       y       z     vdW  Elec       q    Type
                         _______ _______ _______ _____ _____    ______ ____

>  <TORSDO>
F 4

$$$$
=
 OpenBabel11052420293D

 34 40  0  0  1  0  0  0  0  0999 V2000
  190.1180  176.1540  144.2690 C   0  0  0  0  0  0  0  0  0  0  0  0
  193.2530  174.3160  143.0750 C   0  0  0  0  0  2  0  0  0  0  0  0
  192.6710  175.4530  145.2150 C   0  0  0  0  0  3  0  0  0  0  0  0
  188.3140  177.5360  145.8830 N   0  0  0  0  0  0  0  0  0  0  0  0
  188.8410  176.5280  143.8290 O   0  0  0  0  0  0  0  0  0  0  0  0
  189.6090  177.1840  146.3880 C   0  0  0  0  0  0  0  0  0  0  0  0
  191.2510  177.1770  148.1720 C   0  0  0  0  0  3  0  0  0  0  0  0
  189.9820  177.5260  147.6920 C   0  0  0  0  0  3  0  0  0  0  0  0
  187.9540  177.2250  144.6680 C   0  0  0  0  0  0  0  0  0  0  0  0
  191.7860  176.1410  146.0480 C   0  0  0  0  0  0  0  0  0  0  0  0
  190.5100  176.4910  145.5690 C   0  0  0  0  0  0  0  0  0  0  0  0
  192.1520  176.4850  147.3530 C   0  0  0  0  0  3  0  0  0  0  0  0
  192.9260  174.3850  141.5860 C   0  0  2  0  0  3  0  0  0  0  0  0
  191.4500  174.0700  141.3760 C   0  0  0  0  0  2  0  0  0  0  0  0
  192.2960  175.1220  143.9070 C   0  0  0  0  0  0  0  0  0  0  0  0
  190.6010  175.1680  142.0090 C   0  0  0  0  0  2  0  0  0  0  0  0
  191.0030  175.4560  143.4320 C   0  0  0  0  0  0  0  0  0  0  0  0
  184.3430  178.3310  144.6180 C   0  0  0  0  0  3  0  0  0  0  0  0
  186.3360  177.5800  142.7950 C   0  0  0  0  0  3  0  0  0  0  0  0
  182.5100  178.6500  141.4150 C   0  0  0  0  0  0  0  0  0  0  0  0
  182.7930  178.6670  142.7880 C   0  0  0  0  0  3  0  0  0  0  0  0
  184.0630  178.3130  143.2510 C   0  0  0  0  0  0  0  0  0  0  0  0
  184.7860  177.9160  140.9640 C   0  0  0  0  0  3  0  0  0  0  0  0
  185.0670  177.9340  142.3320 C   0  0  0  0  0  0  0  0  0  0  0  0
  183.5120  178.2730  140.5080 C   0  0  0  0  0  3  0  0  0  0  0  0
  186.6190  177.5970  144.1700 C   0  0  0  0  0  0  0  0  0  0  0  0
  185.6160  177.9740  145.0750 C   0  0  0  0  0  3  0  0  0  0  0  0
  181.1710  179.0250  140.9330 C   0  0  0  0  0  0  0  0  0  0  0  0
  180.6660  180.1350  141.2470 O   0  0  0  0  0  1  0  0  0  0  0  0
  180.4490  178.1530  140.1270 O   0  0  0  0  0  0  0  0  0  0  0  0
  193.7430  173.4220  140.8670 N   0  0  0  0  0  2  0  0  0  0  0  0
  195.0770  173.9850  140.7600 C   0  0  1  0  0  3  0  0  0  0  0  0
  195.5350  173.8810  139.3670 N   0  0  0  0  0  2  0  0  0  0  0  0
  195.0410  175.1590  139.8970 C   0  0  0  0  0  2  0  0  0  0  0  0
  1 11  1  0  0  0  0
  2 15  1  0  0  0  0
  3 10  1  0  0  0  0
  4  6  1  0  0  0  0
  5  1  1  0  0  0  0
  5  9  1  0  0  0  0
  6  8  1  0  0  0  0
  8  7  2  0  0  0  0
  9  4  2  0  0  0  0
 10 12  2  0  0  0  0
 11 10  1  0  0  0  0
 11  6  2  0  0  0  0
 12  7  1  0  0  0  0
 13 31  1  6  0  0  0
 13  2  1  0  0  0  0
 14 13  1  0  0  0  0
 14 16  1  0  0  0  0
 15  3  2  0  0  0  0
 16 17  1  0  0  0  0
 17 15  1  0  0  0  0
 17  1  2  0  0  0  0
 18 27  1  0  0  0  0
 19 26  1  0  0  0  0
 20 21  2  0  0  0  0
 21 22  1  0  0  0  0
 22 18  2  0  0  0  0
 23 24  1  0  0  0  0
 24 19  2  0  0  0  0
 24 22  1  0  0  0  0
 25 23  2  0  0  0  0
 25 20  1  0  0  0  0
 26  9  1  0  0  0  0
 26 27  2  0  0  0  0
 28 29  1  0  0  0  0
 28 20  1  0  0  0  0
 30 28  2  0  0  0  0
 32 31  1  6  0  0  0
 33 34  1  0  0  0  0
 33 32  1  0  0  0  0
 34 32  1  0  0  0  0
M  END
>  <MODEL>
9

>  <REMARK>
 VINA RESULT:      -7.3      3.473      9.831
  Name = 
  4 active torsions:
  status: ('A' for Active; 'I' for Inactive)
    1  A    between atoms: C_3  and  N_25
    2  A    between atoms: C_7  and  C_11
    3  A    between atoms: C_18  and  C_30
    4  A    between atoms: C_23  and  N_25
                            x       y       z     vdW  Elec       q    Type
                         _______ _______ _______ _____ _____    ______ ____

>  <TORSDO>
F 4

$$$$
