=
 OpenBabel11052420493D

 43 47  0  0  1  0  0  0  0  0999 V2000
  196.2680  176.3490  143.1980 C   0  0  0  0  0  0  0  0  0  0  0  0
  191.6760  175.5920  144.9660 C   0  0  0  0  0  0  0  0  0  0  0  0
  190.1520  175.0770  143.5690 C   0  0  0  0  0  0  0  0  0  0  0  0
  194.3710  176.1250  144.6090 C   0  0  0  0  0  0  0  0  0  0  0  0
  195.5000  176.0410  142.0700 C   0  0  0  0  0  3  0  0  0  0  0  0
  197.6550  176.6310  143.0540 N   0  0  0  0  0  1  0  0  0  0  0  0
  193.5620  175.8100  143.4870 C   0  0  0  0  0  0  0  0  0  0  0  0
  195.6950  176.3850  144.4320 N   0  0  0  0  0  0  0  0  0  0  0  0
  194.1370  175.7700  142.2160 C   0  0  0  0  0  3  0  0  0  0  0  0
  191.2670  175.2260  142.8050 N   0  0  0  0  0  0  0  0  0  0  0  0
  192.2100  175.5510  143.7100 C   0  0  0  0  0  0  0  0  0  0  0  0
  192.4400  175.8930  146.0950 C   0  0  0  0  0  3  0  0  0  0  0  0
  190.3740  175.2850  144.8910 N   0  0  0  0  0  0  0  0  0  0  0  0
  193.8070  176.1640  145.9030 C   0  0  0  0  0  3  0  0  0  0  0  0
  188.8180  174.7120  143.0000 C   0  0  1  0  0  3  0  0  0  0  0  0
  188.5970  175.4310  141.8240 O   0  0  0  0  0  1  0  0  0  0  0  0
  188.7540  173.2160  142.7240 C   0  0  0  0  0  2  0  0  0  0  0  0
  188.9810  172.9610  141.3110 N   0  0  0  0  0  2  0  0  0  0  0  0
  190.1050  172.0380  141.2000 C   0  0  0  0  0  2  0  0  0  0  0  0
  190.8260  172.1830  139.8550 C   0  0  0  0  0  0  0  0  0  0  0  0
  190.2670  173.3830  139.1010 C   0  0  0  0  0  1  0  0  0  0  0  0
  190.6090  170.9300  139.0180 C   0  0  0  0  0  1  0  0  0  0  0  0
  192.3280  172.4050  140.1030 C   0  0  1  0  0  3  0  0  0  0  0  0
  192.8210  173.4490  139.3120 O   0  0  0  0  0  0  0  0  0  0  0  0
  193.8910  172.8930  138.6090 C   0  0  0  0  0  1  0  0  0  0  0  0
  192.5770  172.6860  141.4530 O   0  0  0  0  0  0  0  0  0  0  0  0
  193.4310  171.6660  141.8810 C   0  0  0  0  0  2  0  0  0  0  0  0
  194.1040  172.0730  143.1430 C   0  0  0  0  0  0  0  0  0  0  0  0
  196.1030  172.7580  144.3280 C   0  0  0  0  0  3  0  0  0  0  0  0
  194.0200  172.4680  145.5310 C   0  0  0  0  0  3  0  0  0  0  0  0
  195.3800  172.7970  145.5240 C   0  0  0  0  0  3  0  0  0  0  0  0
  193.3820  172.1040  144.3410 C   0  0  0  0  0  3  0  0  0  0  0  0
  195.4660  172.3940  143.1370 C   0  0  0  0  0  3  0  0  0  0  0  0
  189.4140  175.1510  145.9840 C   0  0  0  0  0  2  0  0  0  0  0  0
  189.0210  176.5170  146.5400 C   0  0  0  0  0  2  0  0  0  0  0  0
  185.3400  177.1590  145.9170 C   0  0  0  0  0  3  0  0  0  0  0  0
  185.3810  177.9160  144.7340 C   0  0  0  0  0  0  0  0  0  0  0  0
  187.8040  177.7720  144.7460 C   0  0  0  0  0  3  0  0  0  0  0  0
  186.5250  176.7130  146.5080 C   0  0  0  0  0  3  0  0  0  0  0  0
  187.7590  177.0200  145.9230 C   0  0  0  0  0  0  0  0  0  0  0  0
  186.6190  178.2220  144.1580 C   0  0  0  0  0  3  0  0  0  0  0  0
  183.9930  178.2560  142.7150 C   0  0  0  0  0  1  0  0  0  0  0  0
  184.2150  178.3710  144.1140 O   0  0  0  0  0  0  0  0  0  0  0  0
  1  8  1  0  0  0  0
  2 12  1  0  0  0  0
  3 13  1  0  0  0  0
  4 14  1  0  0  0  0
  5  9  1  0  0  0  0
  5  1  2  0  0  0  0
  6  1  1  0  0  0  0
  7 11  1  0  0  0  0
  7  4  1  0  0  0  0
  8  4  2  0  0  0  0
  9  7  2  0  0  0  0
 10  3  2  0  0  0  0
 10 11  1  0  0  0  0
 11  2  2  0  0  0  0
 13  2  1  0  0  0  0
 13 34  1  0  0  0  0
 14 12  2  0  0  0  0
 15 16  1  6  0  0  0
 15  3  1  0  0  0  0
 17 15  1  0  0  0  0
 18 17  1  0  0  0  0
 19 18  1  0  0  0  0
 20 23  1  0  0  0  0
 20 19  1  0  0  0  0
 21 20  1  0  0  0  0
 22 20  1  0  0  0  0
 23 24  1  6  0  0  0
 23 26  1  0  0  0  0
 25 24  1  0  0  0  0
 26 27  1  0  0  0  0
 27 28  1  0  0  0  0
 28 32  1  0  0  0  0
 29 31  2  0  0  0  0
 31 30  1  0  0  0  0
 32 30  2  0  0  0  0
 33 28  2  0  0  0  0
 33 29  1  0  0  0  0
 34 35  1  0  0  0  0
 36 39  1  0  0  0  0
 37 36  2  0  0  0  0
 38 40  1  0  0  0  0
 40 39  2  0  0  0  0
 40 35  1  0  0  0  0
 41 37  1  0  0  0  0
 41 38  2  0  0  0  0
 42 43  1  0  0  0  0
 43 37  1  0  0  0  0
M  END
>  <MODEL>
1

>  <REMARK>
 VINA RESULT:      -6.5      0.000      0.000
  Name = 
  14 active torsions:
  status: ('A' for Active; 'I' for Inactive)
    1  A    between atoms: C_1  and  C_35
    2  A    between atoms: C_1  and  C_38
    3  A    between atoms: C_2  and  C_6
    4  A    between atoms: C_2  and  C_13
    5  A    between atoms: C_3  and  C_4
    6  A    between atoms: C_3  and  N_17
    7  A    between atoms: C_4  and  C_22
    8  A    between atoms: C_6  and  N_17
    9  A    between atoms: O_10  and  C_22
   10  A    between atoms: C_11  and  C_41
   11  A    between atoms: O_14  and  C_22
   12  A    between atoms: O_14  and  C_41
   13  A    between atoms: C_19  and  O_37
   14  A    between atoms: N_34  and  C_38
                            x       y       z     vdW  Elec       q    Type
                         _______ _______ _______ _____ _____    ______ ____

>  <TORSDO>
F 14

$$$$
=
 OpenBabel11052420493D

 43 47  0  0  1  0  0  0  0  0999 V2000
  196.1800  176.5970  143.2600 C   0  0  0  0  0  0  0  0  0  0  0  0
  191.6320  175.5580  145.0000 C   0  0  0  0  0  0  0  0  0  0  0  0
  190.1640  174.9030  143.6010 C   0  0  0  0  0  0  0  0  0  0  0  0
  194.2870  176.2720  144.6570 C   0  0  0  0  0  0  0  0  0  0  0  0
  195.4480  176.2090  142.1320 C   0  0  0  0  0  3  0  0  0  0  0  0
  197.5450  176.9730  143.1230 N   0  0  0  0  0  1  0  0  0  0  0  0
  193.5150  175.8750  143.5350 C   0  0  0  0  0  0  0  0  0  0  0  0
  195.5900  176.6210  144.4870 N   0  0  0  0  0  0  0  0  0  0  0  0
  194.1060  175.8450  142.2710 C   0  0  0  0  0  3  0  0  0  0  0  0
  191.2750  175.1130  142.8440 N   0  0  0  0  0  0  0  0  0  0  0  0
  192.1830  175.5260  143.7500 C   0  0  0  0  0  0  0  0  0  0  0  0
  192.3590  175.9390  146.1290 C   0  0  0  0  0  3  0  0  0  0  0  0
  190.3560  175.1580  144.9190 N   0  0  0  0  0  0  0  0  0  0  0  0
  193.7060  176.3010  145.9440 C   0  0  0  0  0  3  0  0  0  0  0  0
  188.8660  174.4310  143.0280 C   0  0  1  0  0  3  0  0  0  0  0  0
  188.3900  175.3700  142.1100 O   0  0  0  0  0  1  0  0  0  0  0  0
  189.0490  173.0790  142.3530 C   0  0  0  0  0  2  0  0  0  0  0  0
  189.6870  172.1470  143.2690 N   0  0  0  0  0  2  0  0  0  0  0  0
  190.4130  171.1660  142.4720 C   0  0  0  0  0  2  0  0  0  0  0  0
  191.8760  171.0490  142.9160 C   0  0  0  0  0  0  0  0  0  0  0  0
  192.2240  169.5850  143.1540 C   0  0  0  0  0  1  0  0  0  0  0  0
  192.0840  171.8230  144.2100 C   0  0  0  0  0  1  0  0  0  0  0  0
  192.7890  171.6050  141.8090 C   0  0  1  0  0  3  0  0  0  0  0  0
  192.0380  172.1480  140.7610 O   0  0  0  0  0  0  0  0  0  0  0  0
  192.4740  171.4740  139.6190 C   0  0  0  0  0  1  0  0  0  0  0  0
  193.6560  172.5810  142.3170 O   0  0  0  0  0  0  0  0  0  0  0  0
  194.9370  172.0460  142.1540 C   0  0  0  0  0  2  0  0  0  0  0  0
  195.5870  171.8900  143.4820 C   0  0  0  0  0  0  0  0  0  0  0  0
  196.6020  170.4770  145.1680 C   0  0  0  0  0  3  0  0  0  0  0  0
  196.3420  172.8510  145.5740 C   0  0  0  0  0  3  0  0  0  0  0  0
  196.7700  171.5890  145.9990 C   0  0  0  0  0  3  0  0  0  0  0  0
  195.7480  173.0020  144.3170 C   0  0  0  0  0  3  0  0  0  0  0  0
  196.0080  170.6270  143.9100 C   0  0  0  0  0  3  0  0  0  0  0  0
  189.3950  174.9820  146.0050 C   0  0  0  0  0  2  0  0  0  0  0  0
  188.9740  176.3270  146.5890 C   0  0  0  0  0  2  0  0  0  0  0  0
  186.6420  178.0770  144.1700 C   0  0  0  0  0  3  0  0  0  0  0  0
  185.3920  177.8500  144.7690 C   0  0  0  0  0  0  0  0  0  0  0  0
  186.4850  176.6110  146.5460 C   0  0  0  0  0  3  0  0  0  0  0  0
  187.8050  177.5730  144.7580 C   0  0  0  0  0  3  0  0  0  0  0  0
  187.7280  176.8390  145.9480 C   0  0  0  0  0  0  0  0  0  0  0  0
  185.3230  177.1110  145.9540 C   0  0  0  0  0  3  0  0  0  0  0  0
  183.9620  178.3440  142.8110 C   0  0  0  0  0  1  0  0  0  0  0  0
  184.2110  178.3460  144.2100 O   0  0  0  0  0  0  0  0  0  0  0  0
  1  8  1  0  0  0  0
  2 12  1  0  0  0  0
  3 13  1  0  0  0  0
  4 14  1  0  0  0  0
  5  9  1  0  0  0  0
  5  1  2  0  0  0  0
  6  1  1  0  0  0  0
  7 11  1  0  0  0  0
  7  4  1  0  0  0  0
  8  4  2  0  0  0  0
  9  7  2  0  0  0  0
 10  3  2  0  0  0  0
 10 11  1  0  0  0  0
 11  2  2  0  0  0  0
 13  2  1  0  0  0  0
 13 34  1  0  0  0  0
 14 12  2  0  0  0  0
 15 16  1  6  0  0  0
 15  3  1  0  0  0  0
 17 15  1  0  0  0  0
 17 18  1  0  0  0  0
 19 20  1  0  0  0  0
 19 18  1  0  0  0  0
 20 21  1  0  0  0  0
 20 22  1  0  0  0  0
 23 24  1  6  0  0  0
 23 26  1  0  0  0  0
 23 20  1  0  0  0  0
 25 24  1  0  0  0  0
 27 26  1  0  0  0  0
 27 28  1  0  0  0  0
 28 33  2  0  0  0  0
 28 32  1  0  0  0  0
 29 31  2  0  0  0  0
 30 31  1  0  0  0  0
 32 30  2  0  0  0  0
 33 29  1  0  0  0  0
 34 35  1  0  0  0  0
 36 39  2  0  0  0  0
 36 37  1  0  0  0  0
 37 41  2  0  0  0  0
 39 40  1  0  0  0  0
 40 38  2  0  0  0  0
 40 35  1  0  0  0  0
 41 38  1  0  0  0  0
 42 43  1  0  0  0  0
 43 37  1  0  0  0  0
M  END
>  <MODEL>
2

>  <REMARK>
 VINA RESULT:      -6.4      1.041      1.893
  Name = 
  14 active torsions:
  status: ('A' for Active; 'I' for Inactive)
    1  A    between atoms: C_1  and  C_35
    2  A    between atoms: C_1  and  C_38
    3  A    between atoms: C_2  and  C_6
    4  A    between atoms: C_2  and  C_13
    5  A    between atoms: C_3  and  C_4
    6  A    between atoms: C_3  and  N_17
    7  A    between atoms: C_4  and  C_22
    8  A    between atoms: C_6  and  N_17
    9  A    between atoms: O_10  and  C_22
   10  A    between atoms: C_11  and  C_41
   11  A    between atoms: O_14  and  C_22
   12  A    between atoms: O_14  and  C_41
   13  A    between atoms: C_19  and  O_37
   14  A    between atoms: N_34  and  C_38
                            x       y       z     vdW  Elec       q    Type
                         _______ _______ _______ _____ _____    ______ ____

>  <TORSDO>
F 14

$$$$
=
 OpenBabel11052420493D

 43 47  0  0  1  0  0  0  0  0999 V2000
  190.7560  170.8330  136.1630 C   0  0  0  0  0  0  0  0  0  0  0  0
  189.4840  172.9600  140.4820 C   0  0  0  0  0  0  0  0  0  0  0  0
  190.6600  172.4960  142.1960 C   0  0  0  0  0  0  0  0  0  0  0  0
  189.6830  172.1150  137.8500 C   0  0  0  0  0  0  0  0  0  0  0  0
  191.6850  170.3440  137.0870 C   0  0  0  0  0  3  0  0  0  0  0  0
  190.8250  170.4210  134.8030 N   0  0  0  0  0  1  0  0  0  0  0  0
  190.6080  171.6370  138.8140 C   0  0  0  0  0  0  0  0  0  0  0  0
  189.7830  171.7000  136.5590 N   0  0  0  0  0  0  0  0  0  0  0  0
  191.6110  170.7490  138.4220 C   0  0  0  0  0  3  0  0  0  0  0  0
  191.2330  171.7750  141.1940 N   0  0  0  0  0  0  0  0  0  0  0  0
  190.4710  172.0850  140.1280 C   0  0  0  0  0  0  0  0  0  0  0  0
  188.5570  173.4550  139.5620 C   0  0  0  0  0  3  0  0  0  0  0  0
  189.5990  173.2340  141.7880 N   0  0  0  0  0  0  0  0  0  0  0  0
  188.6660  173.0190  138.2290 C   0  0  0  0  0  3  0  0  0  0  0  0
  191.1640  172.4760  143.6040 C   0  0  1  0  0  3  0  0  0  0  0  0
  190.1920  171.9280  144.4420 O   0  0  0  0  0  1  0  0  0  0  0  0
  192.4520  171.6690  143.6920 C   0  0  0  0  0  2  0  0  0  0  0  0
  193.5930  172.5640  143.8140 N   0  0  0  0  0  2  0  0  0  0  0  0
  193.2520  173.5890  144.7940 C   0  0  0  0  0  2  0  0  0  0  0  0
  194.2110  174.7820  144.7210 C   0  0  0  0  0  0  0  0  0  0  0  0
  195.4640  174.3860  143.9510 C   0  0  0  0  0  1  0  0  0  0  0  0
  194.6090  175.2070  146.1280 C   0  0  0  0  0  1  0  0  0  0  0  0
  193.5210  175.9450  143.9880 C   0  0  1  0  0  3  0  0  0  0  0  0
  193.9500  176.0280  142.6580 O   0  0  0  0  0  0  0  0  0  0  0  0
  192.8820  175.5380  141.9050 C   0  0  0  0  0  1  0  0  0  0  0  0
  192.1280  175.8030  144.0200 O   0  0  0  0  0  0  0  0  0  0  0  0
  191.6650  176.9400  144.6890 C   0  0  0  0  0  2  0  0  0  0  0  0
  190.4290  176.6080  145.4460 C   0  0  0  0  0  0  0  0  0  0  0  0
  189.0480  174.9860  146.5980 C   0  0  0  0  0  3  0  0  0  0  0  0
  188.2920  177.2760  146.3690 C   0  0  0  0  0  3  0  0  0  0  0  0
  188.0850  175.9730  146.8330 C   0  0  0  0  0  3  0  0  0  0  0  0
  189.4630  177.5940  145.6740 C   0  0  0  0  0  3  0  0  0  0  0  0
  190.2190  175.3020  145.9030 C   0  0  0  0  0  3  0  0  0  0  0  0
  188.7990  174.1570  142.5900 C   0  0  0  0  0  2  0  0  0  0  0  0
  189.0720  175.6050  142.1950 C   0  0  0  0  0  2  0  0  0  0  0  0
  185.7640  176.8110  143.5940 C   0  0  0  0  0  3  0  0  0  0  0  0
  185.7970  178.1760  143.2610 C   0  0  0  0  0  0  0  0  0  0  0  0
  187.9800  177.8600  142.2480 C   0  0  0  0  0  3  0  0  0  0  0  0
  186.8340  175.9790  143.2550 C   0  0  0  0  0  3  0  0  0  0  0  0
  187.9440  176.5030  142.5810 C   0  0  0  0  0  0  0  0  0  0  0  0
  186.9120  178.6920  142.5920 C   0  0  0  0  0  3  0  0  0  0  0  0
  184.1950  179.1280  144.8870 C   0  0  0  0  0  1  0  0  0  0  0  0
  184.7410  179.0330  143.5780 O   0  0  0  0  0  0  0  0  0  0  0  0
  1  8  2  0  0  0  0
  1  5  1  0  0  0  0
  2 13  1  0  0  0  0
  3 15  1  0  0  0  0
  4 14  2  0  0  0  0
  4  7  1  0  0  0  0
  5  9  2  0  0  0  0
  6  1  1  0  0  0  0
  7 11  2  0  0  0  0
  8  4  1  0  0  0  0
  9  7  1  0  0  0  0
 10  3  2  0  0  0  0
 11  2  1  0  0  0  0
 11 10  1  0  0  0  0
 12  2  2  0  0  0  0
 13  3  1  0  0  0  0
 13 34  1  0  0  0  0
 14 12  1  0  0  0  0
 15 17  1  0  0  0  0
 15 16  1  1  0  0  0
 17 18  1  0  0  0  0
 18 19  1  0  0  0  0
 20 19  1  0  0  0  0
 20 22  1  0  0  0  0
 21 20  1  0  0  0  0
 23 24  1  6  0  0  0
 23 26  1  0  0  0  0
 23 20  1  0  0  0  0
 25 24  1  0  0  0  0
 26 27  1  0  0  0  0
 27 28  1  0  0  0  0
 28 32  2  0  0  0  0
 28 33  1  0  0  0  0
 29 31  1  0  0  0  0
 30 31  2  0  0  0  0
 32 30  1  0  0  0  0
 33 29  2  0  0  0  0
 35 40  1  0  0  0  0
 35 34  1  0  0  0  0
 37 43  1  0  0  0  0
 37 36  1  0  0  0  0
 38 40  2  0  0  0  0
 38 41  1  0  0  0  0
 39 36  2  0  0  0  0
 40 39  1  0  0  0  0
 41 37  2  0  0  0  0
 43 42  1  0  0  0  0
M  END
>  <MODEL>
3

>  <REMARK>
 VINA RESULT:      -6.2      2.308      6.255
  Name = 
  14 active torsions:
  status: ('A' for Active; 'I' for Inactive)
    1  A    between atoms: C_1  and  C_35
    2  A    between atoms: C_1  and  C_38
    3  A    between atoms: C_2  and  C_6
    4  A    between atoms: C_2  and  C_13
    5  A    between atoms: C_3  and  C_4
    6  A    between atoms: C_3  and  N_17
    7  A    between atoms: C_4  and  C_22
    8  A    between atoms: C_6  and  N_17
    9  A    between atoms: O_10  and  C_22
   10  A    between atoms: C_11  and  C_41
   11  A    between atoms: O_14  and  C_22
   12  A    between atoms: O_14  and  C_41
   13  A    between atoms: C_19  and  O_37
   14  A    between atoms: N_34  and  C_38
                            x       y       z     vdW  Elec       q    Type
                         _______ _______ _______ _____ _____    ______ ____

>  <TORSDO>
F 14

$$$$
=
 OpenBabel11052420493D

 43 47  0  0  1  0  0  0  0  0999 V2000
  185.4470  177.9040  146.2970 C   0  0  0  0  0  0  0  0  0  0  0  0
  189.9180  177.2790  144.1980 C   0  0  0  0  0  0  0  0  0  0  0  0
  191.5040  176.5820  145.4390 C   0  0  0  0  0  0  0  0  0  0  0  0
  187.2590  177.8110  144.7640 C   0  0  0  0  0  0  0  0  0  0  0  0
  186.2680  177.4560  147.3370 C   0  0  0  0  0  3  0  0  0  0  0  0
  184.0770  178.1900  146.5490 N   0  0  0  0  0  1  0  0  0  0  0  0
  188.1200  177.3570  145.7960 C   0  0  0  0  0  0  0  0  0  0  0  0
  185.9540  178.0720  145.0440 N   0  0  0  0  0  0  0  0  0  0  0  0
  187.6140  177.1810  147.0850 C   0  0  0  0  0  3  0  0  0  0  0  0
  190.4350  176.6610  146.2770 N   0  0  0  0  0  0  0  0  0  0  0  0
  189.4520  177.1030  145.4690 C   0  0  0  0  0  0  0  0  0  0  0  0
  189.1020  177.7200  143.1550 C   0  0  0  0  0  3  0  0  0  0  0  0
  191.2150  176.9440  144.1640 N   0  0  0  0  0  0  0  0  0  0  0  0
  187.7540  177.9900  143.4530 C   0  0  0  0  0  3  0  0  0  0  0  0
  192.8580  176.1320  145.8860 C   0  0  1  0  0  3  0  0  0  0  0  0
  193.3100  176.9600  146.9160 O   0  0  0  0  0  1  0  0  0  0  0  0
  192.8040  174.6850  146.3570 C   0  0  0  0  0  2  0  0  0  0  0  0
  193.7180  173.8710  145.5710 N   0  0  0  0  0  2  0  0  0  0  0  0
  192.9250  172.8850  144.8470 C   0  0  0  0  0  2  0  0  0  0  0  0
  193.7690  171.6750  144.4320 C   0  0  0  0  0  0  0  0  0  0  0  0
  194.4450  171.0770  145.6590 C   0  0  0  0  0  1  0  0  0  0  0  0
  194.8400  172.1110  143.4410 C   0  0  0  0  0  1  0  0  0  0  0  0
  192.8570  170.6110  143.7960 C   0  0  1  0  0  3  0  0  0  0  0  0
  192.9180  169.4060  144.5040 O   0  0  0  0  0  0  0  0  0  0  0  0
  193.5490  168.5110  143.6370 C   0  0  0  0  0  1  0  0  0  0  0  0
  191.5290  171.0550  143.7460 O   0  0  0  0  0  0  0  0  0  0  0  0
  191.1860  171.0130  142.3920 C   0  0  0  0  0  2  0  0  0  0  0  0
  190.3800  172.2130  142.0420 C   0  0  0  0  0  0  0  0  0  0  0  0
  188.8600  173.9820  142.6940 C   0  0  0  0  0  3  0  0  0  0  0  0
  189.5720  173.7870  140.3870 C   0  0  0  0  0  3  0  0  0  0  0  0
  188.8310  174.4440  141.3750 C   0  0  0  0  0  3  0  0  0  0  0  0
  190.3460  172.6700  140.7200 C   0  0  0  0  0  3  0  0  0  0  0  0
  189.6330  172.8650  143.0280 C   0  0  0  0  0  3  0  0  0  0  0  0
  192.1110  176.9200  143.0110 C   0  0  0  0  0  2  0  0  0  0  0  0
  192.2070  175.5170  142.4190 C   0  0  0  0  0  2  0  0  0  0  0  0
  195.9800  175.4680  142.0760 C   0  0  0  0  0  3  0  0  0  0  0  0
  196.1460  174.7510  140.8800 C   0  0  0  0  0  0  0  0  0  0  0  0
  193.7360  174.5200  140.7020 C   0  0  0  0  0  3  0  0  0  0  0  0
  194.6990  175.7080  142.5800 C   0  0  0  0  0  3  0  0  0  0  0  0
  193.5750  175.2340  141.8930 C   0  0  0  0  0  0  0  0  0  0  0  0
  195.0180  174.2770  140.2020 C   0  0  0  0  0  3  0  0  0  0  0  0
  197.6170  173.6660  139.2130 C   0  0  0  0  0  1  0  0  0  0  0  0
  197.4120  174.5010  140.3450 O   0  0  0  0  0  0  0  0  0  0  0  0
  1  6  1  0  0  0  0
  1  5  1  0  0  0  0
  2 11  1  0  0  0  0
  3 15  1  0  0  0  0
  3 10  2  0  0  0  0
  4  8  1  0  0  0  0
  4  7  1  0  0  0  0
  7  9  1  0  0  0  0
  8  1  2  0  0  0  0
  9  5  2  0  0  0  0
 11  7  2  0  0  0  0
 11 10  1  0  0  0  0
 12 14  1  0  0  0  0
 12  2  2  0  0  0  0
 13  2  1  0  0  0  0
 13  3  1  0  0  0  0
 14  4  2  0  0  0  0
 15 17  1  0  0  0  0
 15 16  1  1  0  0  0
 18 17  1  0  0  0  0
 19 18  1  0  0  0  0
 20 19  1  0  0  0  0
 20 21  1  0  0  0  0
 22 20  1  0  0  0  0
 23 26  1  1  0  0  0
 23 20  1  0  0  0  0
 23 24  1  0  0  0  0
 25 24  1  0  0  0  0
 27 26  1  0  0  0  0
 28 27  1  0  0  0  0
 28 33  1  0  0  0  0
 29 33  2  0  0  0  0
 30 32  1  0  0  0  0
 30 31  2  0  0  0  0
 31 29  1  0  0  0  0
 32 28  2  0  0  0  0
 34 13  1  0  0  0  0
 35 34  1  0  0  0  0
 36 39  1  0  0  0  0
 37 36  2  0  0  0  0
 38 40  1  0  0  0  0
 40 35  1  0  0  0  0
 40 39  2  0  0  0  0
 41 38  2  0  0  0  0
 41 37  1  0  0  0  0
 42 43  1  0  0  0  0
 43 37  1  0  0  0  0
M  END
>  <MODEL>
4

>  <REMARK>
 VINA RESULT:      -6.1      2.704      7.660
  Name = 
  14 active torsions:
  status: ('A' for Active; 'I' for Inactive)
    1  A    between atoms: C_1  and  C_35
    2  A    between atoms: C_1  and  C_38
    3  A    between atoms: C_2  and  C_6
    4  A    between atoms: C_2  and  C_13
    5  A    between atoms: C_3  and  C_4
    6  A    between atoms: C_3  and  N_17
    7  A    between atoms: C_4  and  C_22
    8  A    between atoms: C_6  and  N_17
    9  A    between atoms: O_10  and  C_22
   10  A    between atoms: C_11  and  C_41
   11  A    between atoms: O_14  and  C_22
   12  A    between atoms: O_14  and  C_41
   13  A    between atoms: C_19  and  O_37
   14  A    between atoms: N_34  and  C_38
                            x       y       z     vdW  Elec       q    Type
                         _______ _______ _______ _____ _____    ______ ____

>  <TORSDO>
F 14

$$$$
=
 OpenBabel11052420493D

 43 47  0  0  1  0  0  0  0  0999 V2000
  191.9370  171.9040  136.4760 C   0  0  0  0  0  0  0  0  0  0  0  0
  189.3370  173.5760  140.3790 C   0  0  0  0  0  0  0  0  0  0  0  0
  190.0040  173.0160  142.3240 C   0  0  0  0  0  0  0  0  0  0  0  0
  190.3390  172.9790  137.8660 C   0  0  0  0  0  0  0  0  0  0  0  0
  192.5950  171.3780  137.5930 C   0  0  0  0  0  3  0  0  0  0  0  0
  192.4210  171.6180  135.1690 N   0  0  0  0  0  1  0  0  0  0  0  0
  190.9810  172.4610  139.0200 C   0  0  0  0  0  0  0  0  0  0  0  0
  190.8330  172.6850  136.6330 N   0  0  0  0  0  0  0  0  0  0  0  0
  192.1140  171.6580  138.8740 C   0  0  0  0  0  3  0  0  0  0  0  0
  190.8880  172.4150  141.4830 N   0  0  0  0  0  0  0  0  0  0  0  0
  190.4430  172.7830  140.2660 C   0  0  0  0  0  0  0  0  0  0  0  0
  188.6800  174.1070  139.2680 C   0  0  0  0  0  3  0  0  0  0  0  0
  189.0540  173.7370  141.6790 N   0  0  0  0  0  0  0  0  0  0  0  0
  189.1950  173.7970  137.9970 C   0  0  0  0  0  3  0  0  0  0  0  0
  190.0840  172.8950  143.8120 C   0  0  1  0  0  3  0  0  0  0  0  0
  189.3790  171.7640  144.2290 O   0  0  0  0  0  1  0  0  0  0  0  0
  191.5370  172.8030  144.2560 C   0  0  0  0  0  2  0  0  0  0  0  0
  191.8970  173.9820  145.0280 N   0  0  0  0  0  2  0  0  0  0  0  0
  190.7720  174.9090  144.9760 C   0  0  0  0  0  2  0  0  0  0  0  0
  191.1140  176.2510  145.6340 C   0  0  0  0  0  0  0  0  0  0  0  0
  190.7110  177.3920  144.7090 C   0  0  0  0  0  1  0  0  0  0  0  0
  192.6120  176.3290  145.8920 C   0  0  0  0  0  1  0  0  0  0  0  0
  190.3370  176.3810  146.9560 C   0  0  1  0  0  3  0  0  0  0  0  0
  191.1520  176.8930  147.9720 O   0  0  0  0  0  0  0  0  0  0  0  0
  190.5350  178.0820  148.3640 C   0  0  0  0  0  1  0  0  0  0  0  0
  189.2150  177.2050  146.7990 O   0  0  0  0  0  0  0  0  0  0  0  0
  188.1190  176.3670  147.0210 C   0  0  0  0  0  2  0  0  0  0  0  0
  186.8610  177.1560  146.9440 C   0  0  0  0  0  0  0  0  0  0  0  0
  184.6410  177.4820  146.0320 C   0  0  0  0  0  3  0  0  0  0  0  0
  185.5600  179.0960  147.5880 C   0  0  0  0  0  3  0  0  0  0  0  0
  184.5120  178.6640  146.7680 C   0  0  0  0  0  3  0  0  0  0  0  0
  186.7360  178.3430  147.6750 C   0  0  0  0  0  3  0  0  0  0  0  0
  185.8170  176.7290  146.1180 C   0  0  0  0  0  3  0  0  0  0  0  0
  187.9950  174.5470  142.2770 C   0  0  0  0  0  2  0  0  0  0  0  0
  188.2610  176.0360  142.0730 C   0  0  0  0  0  2  0  0  0  0  0  0
  184.8540  177.6800  142.2880 C   0  0  0  0  0  3  0  0  0  0  0  0
  184.6580  178.0970  140.9610 C   0  0  0  0  0  0  0  0  0  0  0  0
  186.8270  177.1820  140.3680 C   0  0  0  0  0  3  0  0  0  0  0  0
  186.0310  177.0180  142.6500 C   0  0  0  0  0  3  0  0  0  0  0  0
  187.0190  176.7680  141.6900 C   0  0  0  0  0  0  0  0  0  0  0  0
  185.6520  177.8470  140.0080 C   0  0  0  0  0  3  0  0  0  0  0  0
  182.2140  178.1280  140.5760 C   0  0  0  0  0  1  0  0  0  0  0  0
  183.4910  178.7540  140.5640 O   0  0  0  0  0  0  0  0  0  0  0  0
  1  8  2  0  0  0  0
  1  5  1  0  0  0  0
  2 13  1  0  0  0  0
  3 15  1  0  0  0  0
  4 14  2  0  0  0  0
  4  7  1  0  0  0  0
  5  9  2  0  0  0  0
  6  1  1  0  0  0  0
  7 11  2  0  0  0  0
  8  4  1  0  0  0  0
  9  7  1  0  0  0  0
 10  3  2  0  0  0  0
 11  2  1  0  0  0  0
 11 10  1  0  0  0  0
 12  2  2  0  0  0  0
 13 34  1  0  0  0  0
 13  3  1  0  0  0  0
 14 12  1  0  0  0  0
 15 16  1  6  0  0  0
 15 17  1  0  0  0  0
 17 18  1  0  0  0  0
 19 18  1  0  0  0  0
 19 20  1  0  0  0  0
 20 22  1  0  0  0  0
 20 23  1  0  0  0  0
 21 20  1  0  0  0  0
 23 26  1  6  0  0  0
 23 24  1  0  0  0  0
 24 25  1  0  0  0  0
 26 27  1  0  0  0  0
 28 27  1  0  0  0  0
 28 32  1  0  0  0  0
 29 33  1  0  0  0  0
 29 31  2  0  0  0  0
 30 32  2  0  0  0  0
 31 30  1  0  0  0  0
 33 28  2  0  0  0  0
 35 34  1  0  0  0  0
 36 39  1  0  0  0  0
 37 36  2  0  0  0  0
 38 40  1  0  0  0  0
 40 35  1  0  0  0  0
 40 39  2  0  0  0  0
 41 38  2  0  0  0  0
 41 37  1  0  0  0  0
 43 42  1  0  0  0  0
 43 37  1  0  0  0  0
M  END
>  <MODEL>
5

>  <REMARK>
 VINA RESULT:      -6.0      2.930      7.328
  Name = 
  14 active torsions:
  status: ('A' for Active; 'I' for Inactive)
    1  A    between atoms: C_1  and  C_35
    2  A    between atoms: C_1  and  C_38
    3  A    between atoms: C_2  and  C_6
    4  A    between atoms: C_2  and  C_13
    5  A    between atoms: C_3  and  C_4
    6  A    between atoms: C_3  and  N_17
    7  A    between atoms: C_4  and  C_22
    8  A    between atoms: C_6  and  N_17
    9  A    between atoms: O_10  and  C_22
   10  A    between atoms: C_11  and  C_41
   11  A    between atoms: O_14  and  C_22
   12  A    between atoms: O_14  and  C_41
   13  A    between atoms: C_19  and  O_37
   14  A    between atoms: N_34  and  C_38
                            x       y       z     vdW  Elec       q    Type
                         _______ _______ _______ _____ _____    ______ ____

>  <TORSDO>
F 14

$$$$
=
 OpenBabel11052420493D

 43 47  0  0  1  0  0  0  0  0999 V2000
  189.2510  174.0510  136.0290 C   0  0  0  0  0  0  0  0  0  0  0  0
  189.3130  172.6910  140.8180 C   0  0  0  0  0  0  0  0  0  0  0  0
  190.5220  171.0210  141.3560 C   0  0  0  0  0  0  0  0  0  0  0  0
  188.8700  173.9090  138.3690 C   0  0  0  0  0  0  0  0  0  0  0  0
  190.1070  172.9460  136.0730 C   0  0  0  0  0  3  0  0  0  0  0  0
  188.9970  174.7010  134.7900 N   0  0  0  0  0  1  0  0  0  0  0  0
  189.7320  172.7840  138.4500 C   0  0  0  0  0  0  0  0  0  0  0  0
  188.6550  174.5050  137.1660 N   0  0  0  0  0  0  0  0  0  0  0  0
  190.3490  172.3080  137.2930 C   0  0  0  0  0  3  0  0  0  0  0  0
  190.6990  171.1420  140.0130 N   0  0  0  0  0  0  0  0  0  0  0  0
  189.9250  172.2000  139.7010 C   0  0  0  0  0  0  0  0  0  0  0  0
  188.4610  173.7970  140.7800 C   0  0  0  0  0  3  0  0  0  0  0  0
  189.6890  171.9570  141.8750 N   0  0  0  0  0  0  0  0  0  0  0  0
  188.2420  174.4070  139.5320 C   0  0  0  0  0  3  0  0  0  0  0  0
  191.1890  169.9620  142.1740 C   0  0  1  0  0  3  0  0  0  0  0  0
  190.7410  168.7040  141.7670 O   0  0  0  0  0  1  0  0  0  0  0  0
  192.7010  170.0570  142.0260 C   0  0  0  0  0  2  0  0  0  0  0  0
  193.1680  171.3480  142.5050 N   0  0  0  0  0  2  0  0  0  0  0  0
  193.4470  171.2210  143.9300 C   0  0  0  0  0  2  0  0  0  0  0  0
  194.8900  171.6170  144.2620 C   0  0  0  0  0  0  0  0  0  0  0  0
  195.5330  172.2750  143.0480 C   0  0  0  0  0  1  0  0  0  0  0  0
  195.6910  170.3770  144.6340 C   0  0  0  0  0  1  0  0  0  0  0  0
  194.8870  172.6200  145.4290 C   0  0  1  0  0  3  0  0  0  0  0  0
  195.8920  173.5810  145.2720 O   0  0  0  0  0  0  0  0  0  0  0  0
  196.8760  173.2280  146.1960 C   0  0  0  0  0  1  0  0  0  0  0  0
  193.6450  173.2580  145.5390 O   0  0  0  0  0  0  0  0  0  0  0  0
  193.9500  174.6040  145.7590 C   0  0  0  0  0  2  0  0  0  0  0  0
  193.1790  175.4530  144.8120 C   0  0  0  0  0  0  0  0  0  0  0  0
  192.4830  175.9750  142.5520 C   0  0  0  0  0  3  0  0  0  0  0  0
  191.7550  177.3680  144.3950 C   0  0  0  0  0  3  0  0  0  0  0  0
  191.7630  177.0750  143.0270 C   0  0  0  0  0  3  0  0  0  0  0  0
  192.4640  176.5580  145.2880 C   0  0  0  0  0  3  0  0  0  0  0  0
  193.1940  175.1650  143.4440 C   0  0  0  0  0  3  0  0  0  0  0  0
  189.3310  172.1470  143.2780 C   0  0  0  0  0  2  0  0  0  0  0  0
  190.3290  173.0640  143.9800 C   0  0  0  0  0  2  0  0  0  0  0  0
  188.2920  176.1440  144.8260 C   0  0  0  0  0  3  0  0  0  0  0  0
  188.3880  176.1700  146.2270 C   0  0  0  0  0  0  0  0  0  0  0  0
  189.7380  174.1540  146.1570 C   0  0  0  0  0  3  0  0  0  0  0  0
  188.9160  175.1270  144.0980 C   0  0  0  0  0  3  0  0  0  0  0  0
  189.6400  174.1310  144.7630 C   0  0  0  0  0  0  0  0  0  0  0  0
  189.1100  175.1680  146.8850 C   0  0  0  0  0  3  0  0  0  0  0  0
  186.6460  177.8990  146.5330 C   0  0  0  0  0  1  0  0  0  0  0  0
  187.7830  177.1760  146.9850 O   0  0  0  0  0  0  0  0  0  0  0  0
  1  5  2  0  0  0  0
  1  8  1  0  0  0  0
  2 13  1  0  0  0  0
  3 13  1  0  0  0  0
  3 15  1  0  0  0  0
  4  7  1  0  0  0  0
  4 14  1  0  0  0  0
  5  9  1  0  0  0  0
  6  1  1  0  0  0  0
  7 11  1  0  0  0  0
  8  4  2  0  0  0  0
  9  7  2  0  0  0  0
 10  3  2  0  0  0  0
 11 10  1  0  0  0  0
 11  2  2  0  0  0  0
 12  2  1  0  0  0  0
 13 34  1  0  0  0  0
 14 12  2  0  0  0  0
 15 16  1  6  0  0  0
 17 15  1  0  0  0  0
 17 18  1  0  0  0  0
 18 19  1  0  0  0  0
 19 20  1  0  0  0  0
 20 22  1  0  0  0  0
 20 23  1  0  0  0  0
 21 20  1  0  0  0  0
 23 24  1  6  0  0  0
 23 26  1  0  0  0  0
 24 25  1  0  0  0  0
 26 27  1  0  0  0  0
 28 32  1  0  0  0  0
 28 27  1  0  0  0  0
 29 31  2  0  0  0  0
 29 33  1  0  0  0  0
 30 32  2  0  0  0  0
 31 30  1  0  0  0  0
 33 28  2  0  0  0  0
 34 35  1  0  0  0  0
 35 40  1  0  0  0  0
 36 37  1  0  0  0  0
 37 41  2  0  0  0  0
 37 43  1  0  0  0  0
 38 41  1  0  0  0  0
 39 40  1  0  0  0  0
 39 36  2  0  0  0  0
 40 38  2  0  0  0  0
 42 43  1  0  0  0  0
M  END
>  <MODEL>
6

>  <REMARK>
 VINA RESULT:      -5.8      2.798      6.200
  Name = 
  14 active torsions:
  status: ('A' for Active; 'I' for Inactive)
    1  A    between atoms: C_1  and  C_35
    2  A    between atoms: C_1  and  C_38
    3  A    between atoms: C_2  and  C_6
    4  A    between atoms: C_2  and  C_13
    5  A    between atoms: C_3  and  C_4
    6  A    between atoms: C_3  and  N_17
    7  A    between atoms: C_4  and  C_22
    8  A    between atoms: C_6  and  N_17
    9  A    between atoms: O_10  and  C_22
   10  A    between atoms: C_11  and  C_41
   11  A    between atoms: O_14  and  C_22
   12  A    between atoms: O_14  and  C_41
   13  A    between atoms: C_19  and  O_37
   14  A    between atoms: N_34  and  C_38
                            x       y       z     vdW  Elec       q    Type
                         _______ _______ _______ _____ _____    ______ ____

>  <TORSDO>
F 14

$$$$
=
 OpenBabel11052420493D

 43 47  0  0  1  0  0  0  0  0999 V2000
  187.9070  177.5040  144.3500 C   0  0  0  0  0  0  0  0  0  0  0  0
  190.1730  174.0760  141.5390 C   0  0  0  0  0  0  0  0  0  0  0  0
  192.2700  174.2830  141.2270 C   0  0  0  0  0  0  0  0  0  0  0  0
  188.3820  175.6250  142.9770 C   0  0  0  0  0  0  0  0  0  0  0  0
  189.2480  177.9000  144.3200 C   0  0  0  0  0  3  0  0  0  0  0  0
  186.9570  178.2750  145.0770 N   0  0  0  0  0  1  0  0  0  0  0  0
  189.7500  175.9980  142.9240 C   0  0  0  0  0  0  0  0  0  0  0  0
  187.5050  176.3870  143.6850 N   0  0  0  0  0  0  0  0  0  0  0  0
  190.1760  177.1420  143.6020 C   0  0  0  0  0  3  0  0  0  0  0  0
  191.9430  175.3480  142.0080 N   0  0  0  0  0  0  0  0  0  0  0  0
  190.6170  175.1930  142.1870 C   0  0  0  0  0  0  0  0  0  0  0  0
  188.8360  173.6740  141.5700 C   0  0  0  0  0  3  0  0  0  0  0  0
  191.2130  173.4870  140.9330 N   0  0  0  0  0  0  0  0  0  0  0  0
  187.9350  174.4690  142.3020 C   0  0  0  0  0  3  0  0  0  0  0  0
  193.6630  174.0200  140.7500 C   0  0  1  0  0  3  0  0  0  0  0  0
  193.7660  174.3510  139.3980 O   0  0  0  0  0  1  0  0  0  0  0  0
  194.6620  174.8280  141.5680 C   0  0  0  0  0  2  0  0  0  0  0  0
  195.4800  173.9370  142.3760 N   0  0  0  0  0  2  0  0  0  0  0  0
  194.9650  173.9750  143.7400 C   0  0  0  0  0  2  0  0  0  0  0  0
  195.9050  174.7410  144.6780 C   0  0  0  0  0  0  0  0  0  0  0  0
  197.1270  175.2170  143.9020 C   0  0  0  0  0  1  0  0  0  0  0  0
  196.3620  173.8270  145.8060 C   0  0  0  0  0  1  0  0  0  0  0  0
  195.1680  175.9650  145.2480 C   0  0  1  0  0  3  0  0  0  0  0  0
  195.5900  177.1440  144.6240 O   0  0  0  0  0  0  0  0  0  0  0  0
  195.3170  178.1570  145.5450 C   0  0  0  0  0  1  0  0  0  0  0  0
  193.7820  175.8300  145.1000 O   0  0  0  0  0  0  0  0  0  0  0  0
  193.2830  175.7890  146.4050 C   0  0  0  0  0  2  0  0  0  0  0  0
  191.9100  175.2180  146.3980 C   0  0  0  0  0  0  0  0  0  0  0  0
  190.2900  173.6610  145.4930 C   0  0  0  0  0  3  0  0  0  0  0  0
  189.6370  175.2090  147.2380 C   0  0  0  0  0  3  0  0  0  0  0  0
  189.3160  174.1720  146.3560 C   0  0  0  0  0  3  0  0  0  0  0  0
  190.9340  175.7340  147.2580 C   0  0  0  0  0  3  0  0  0  0  0  0
  191.5870  174.1850  145.5110 C   0  0  0  0  0  3  0  0  0  0  0  0
  191.2250  172.2400  140.1710 C   0  0  0  0  0  2  0  0  0  0  0  0
  190.9770  171.0400  141.0800 C   0  0  0  0  0  2  0  0  0  0  0  0
  192.9450  170.8340  144.3110 C   0  0  0  0  0  3  0  0  0  0  0  0
  194.2260  170.5040  143.8410 C   0  0  0  0  0  0  0  0  0  0  0  0
  193.3760  170.5050  141.5670 C   0  0  0  0  0  3  0  0  0  0  0  0
  191.8870  170.9990  143.4120 C   0  0  0  0  0  3  0  0  0  0  0  0
  192.1020  170.8340  142.0390 C   0  0  0  0  0  0  0  0  0  0  0  0
  194.4310  170.3360  142.4670 C   0  0  0  0  0  3  0  0  0  0  0  0
  195.1440  170.1470  146.1100 C   0  0  0  0  0  1  0  0  0  0  0  0
  195.3060  170.3390  144.7110 O   0  0  0  0  0  0  0  0  0  0  0  0
  1  6  1  0  0  0  0
  2 12  2  0  0  0  0
  2 11  1  0  0  0  0
  3 10  2  0  0  0  0
  4  8  1  0  0  0  0
  5  1  1  0  0  0  0
  7  4  1  0  0  0  0
  7  9  1  0  0  0  0
  8  1  2  0  0  0  0
  9  5  2  0  0  0  0
 10 11  1  0  0  0  0
 11  7  2  0  0  0  0
 12 14  1  0  0  0  0
 13  3  1  0  0  0  0
 13  2  1  0  0  0  0
 14  4  2  0  0  0  0
 15 16  1  6  0  0  0
 15  3  1  0  0  0  0
 15 17  1  0  0  0  0
 17 18  1  0  0  0  0
 18 19  1  0  0  0  0
 19 20  1  0  0  0  0
 20 23  1  0  0  0  0
 20 22  1  0  0  0  0
 21 20  1  0  0  0  0
 23 24  1  6  0  0  0
 24 25  1  0  0  0  0
 26 23  1  0  0  0  0
 26 27  1  0  0  0  0
 28 27  1  0  0  0  0
 28 32  1  0  0  0  0
 29 33  1  0  0  0  0
 29 31  2  0  0  0  0
 30 32  2  0  0  0  0
 31 30  1  0  0  0  0
 33 28  2  0  0  0  0
 34 13  1  0  0  0  0
 34 35  1  0  0  0  0
 35 40  1  0  0  0  0
 37 36  1  0  0  0  0
 37 43  1  0  0  0  0
 38 40  2  0  0  0  0
 38 41  1  0  0  0  0
 39 36  2  0  0  0  0
 40 39  1  0  0  0  0
 41 37  2  0  0  0  0
 43 42  1  0  0  0  0
M  END
>  <MODEL>
7

>  <REMARK>
 VINA RESULT:      -5.8      2.619      7.525
  Name = 
  14 active torsions:
  status: ('A' for Active; 'I' for Inactive)
    1  A    between atoms: C_1  and  C_35
    2  A    between atoms: C_1  and  C_38
    3  A    between atoms: C_2  and  C_6
    4  A    between atoms: C_2  and  C_13
    5  A    between atoms: C_3  and  C_4
    6  A    between atoms: C_3  and  N_17
    7  A    between atoms: C_4  and  C_22
    8  A    between atoms: C_6  and  N_17
    9  A    between atoms: O_10  and  C_22
   10  A    between atoms: C_11  and  C_41
   11  A    between atoms: O_14  and  C_22
   12  A    between atoms: O_14  and  C_41
   13  A    between atoms: C_19  and  O_37
   14  A    between atoms: N_34  and  C_38
                            x       y       z     vdW  Elec       q    Type
                         _______ _______ _______ _____ _____    ______ ____

>  <TORSDO>
F 14

$$$$
=
 OpenBabel11052420493D

 43 47  0  0  1  0  0  0  0  0999 V2000
  186.6240  178.3100  144.5370 C   0  0  0  0  0  0  0  0  0  0  0  0
  189.6400  174.3530  144.3470 C   0  0  0  0  0  0  0  0  0  0  0  0
  189.9530  173.4390  142.4480 C   0  0  0  0  0  0  0  0  0  0  0  0
  188.1080  176.5390  145.0880 C   0  0  0  0  0  0  0  0  0  0  0  0
  186.6280  177.9310  143.1900 C   0  0  0  0  0  3  0  0  0  0  0  0
  185.8480  179.4260  144.9560 N   0  0  0  0  0  1  0  0  0  0  0  0
  188.1340  176.1270  143.7310 C   0  0  0  0  0  0  0  0  0  0  0  0
  187.3560  177.6140  145.4490 N   0  0  0  0  0  0  0  0  0  0  0  0
  187.3890  176.8320  142.7840 C   0  0  0  0  0  3  0  0  0  0  0  0
  189.0970  174.4630  142.1880 N   0  0  0  0  0  0  0  0  0  0  0  0
  188.9160  175.0200  143.4010 C   0  0  0  0  0  0  0  0  0  0  0  0
  189.6430  174.7300  145.6910 C   0  0  0  0  0  3  0  0  0  0  0  0
  190.3070  173.3540  143.7540 N   0  0  0  0  0  0  0  0  0  0  0  0
  188.8610  175.8410  146.0570 C   0  0  0  0  0  3  0  0  0  0  0  0
  190.4540  172.5080  141.3910 C   0  0  1  0  0  3  0  0  0  0  0  0
  189.3930  172.1100  140.5750 O   0  0  0  0  0  1  0  0  0  0  0  0
  191.5330  173.1870  140.5590 C   0  0  0  0  0  2  0  0  0  0  0  0
  192.8470  172.7110  140.9620 N   0  0  0  0  0  2  0  0  0  0  0  0
  193.7470  173.8580  140.9890 C   0  0  0  0  0  2  0  0  0  0  0  0
  195.2090  173.4340  140.8030 C   0  0  0  0  0  0  0  0  0  0  0  0
  195.4310  172.9810  139.3660 C   0  0  0  0  0  1  0  0  0  0  0  0
  195.5320  172.2790  141.7410 C   0  0  0  0  0  1  0  0  0  0  0  0
  196.1270  174.6330  141.0970 C   0  0  1  0  0  3  0  0  0  0  0  0
  196.6330  175.1830  139.9140 O   0  0  0  0  0  0  0  0  0  0  0  0
  197.8890  175.6830  140.2570 C   0  0  0  0  0  1  0  0  0  0  0  0
  195.4460  175.6220  141.8180 O   0  0  0  0  0  0  0  0  0  0  0  0
  195.9860  175.5660  143.1060 C   0  0  0  0  0  2  0  0  0  0  0  0
  194.9280  175.8650  144.1060 C   0  0  0  0  0  0  0  0  0  0  0  0
  194.1920  175.9820  146.4110 C   0  0  0  0  0  3  0  0  0  0  0  0
  192.6540  176.5270  144.6200 C   0  0  0  0  0  3  0  0  0  0  0  0
  192.9230  176.3880  145.9860 C   0  0  0  0  0  3  0  0  0  0  0  0
  193.6560  176.2640  143.6790 C   0  0  0  0  0  3  0  0  0  0  0  0
  195.1940  175.7180  145.4710 C   0  0  0  0  0  3  0  0  0  0  0  0
  191.2480  172.4130  144.3590 C   0  0  0  0  0  2  0  0  0  0  0  0
  192.6310  173.0400  144.5080 C   0  0  0  0  0  2  0  0  0  0  0  0
  194.3630  169.6950  144.9170 C   0  0  0  0  0  3  0  0  0  0  0  0
  195.5900  170.0800  145.4830 C   0  0  0  0  0  0  0  0  0  0  0  0
  194.8870  172.4010  145.3910 C   0  0  0  0  0  3  0  0  0  0  0  0
  193.4060  170.6600  144.5920 C   0  0  0  0  0  3  0  0  0  0  0  0
  193.6670  172.0140  144.8290 C   0  0  0  0  0  0  0  0  0  0  0  0
  195.8450  171.4360  145.7110 C   0  0  0  0  0  3  0  0  0  0  0  0
  196.4790  168.3340  146.9930 C   0  0  0  0  0  1  0  0  0  0  0  0
  196.5650  169.1400  145.8260 O   0  0  0  0  0  0  0  0  0  0  0  0
  1  6  1  0  0  0  0
  1  8  1  0  0  0  0
  2 12  1  0  0  0  0
  3 13  1  0  0  0  0
  4  8  2  0  0  0  0
  4 14  1  0  0  0  0
  5  1  2  0  0  0  0
  7  4  1  0  0  0  0
  9  5  1  0  0  0  0
  9  7  2  0  0  0  0
 10  3  2  0  0  0  0
 10 11  1  0  0  0  0
 11  7  1  0  0  0  0
 11  2  2  0  0  0  0
 12 14  2  0  0  0  0
 13  2  1  0  0  0  0
 13 34  1  0  0  0  0
 15 16  1  6  0  0  0
 15  3  1  0  0  0  0
 17 18  1  0  0  0  0
 17 15  1  0  0  0  0
 18 19  1  0  0  0  0
 20 19  1  0  0  0  0
 20 23  1  0  0  0  0
 20 22  1  0  0  0  0
 21 20  1  0  0  0  0
 23 24  1  6  0  0  0
 23 26  1  0  0  0  0
 24 25  1  0  0  0  0
 26 27  1  0  0  0  0
 27 28  1  0  0  0  0
 28 33  1  0  0  0  0
 30 31  2  0  0  0  0
 31 29  1  0  0  0  0
 32 28  2  0  0  0  0
 32 30  1  0  0  0  0
 33 29  2  0  0  0  0
 34 35  1  0  0  0  0
 35 40  1  0  0  0  0
 36 37  1  0  0  0  0
 37 41  2  0  0  0  0
 37 43  1  0  0  0  0
 38 41  1  0  0  0  0
 39 40  1  0  0  0  0
 39 36  2  0  0  0  0
 40 38  2  0  0  0  0
 43 42  1  0  0  0  0
M  END
>  <MODEL>
8

>  <REMARK>
 VINA RESULT:      -5.8      2.538      7.106
  Name = 
  14 active torsions:
  status: ('A' for Active; 'I' for Inactive)
    1  A    between atoms: C_1  and  C_35
    2  A    between atoms: C_1  and  C_38
    3  A    between atoms: C_2  and  C_6
    4  A    between atoms: C_2  and  C_13
    5  A    between atoms: C_3  and  C_4
    6  A    between atoms: C_3  and  N_17
    7  A    between atoms: C_4  and  C_22
    8  A    between atoms: C_6  and  N_17
    9  A    between atoms: O_10  and  C_22
   10  A    between atoms: C_11  and  C_41
   11  A    between atoms: O_14  and  C_22
   12  A    between atoms: O_14  and  C_41
   13  A    between atoms: C_19  and  O_37
   14  A    between atoms: N_34  and  C_38
                            x       y       z     vdW  Elec       q    Type
                         _______ _______ _______ _____ _____    ______ ____

>  <TORSDO>
F 14

$$$$
=
 OpenBabel11052420493D

 43 47  0  0  1  0  0  0  0  0999 V2000
  186.3010  178.7030  143.4730 C   0  0  0  0  0  0  0  0  0  0  0  0
  189.0720  174.5720  143.2530 C   0  0  0  0  0  0  0  0  0  0  0  0
  189.3330  173.6580  141.3460 C   0  0  0  0  0  0  0  0  0  0  0  0
  187.6740  176.8410  144.0110 C   0  0  0  0  0  0  0  0  0  0  0  0
  186.2860  178.3370  142.1230 C   0  0  0  0  0  3  0  0  0  0  0  0
  185.5930  179.8600  143.9010 N   0  0  0  0  0  1  0  0  0  0  0  0
  187.6780  176.4390  142.6500 C   0  0  0  0  0  0  0  0  0  0  0  0
  186.9870  177.9550  144.3810 N   0  0  0  0  0  0  0  0  0  0  0  0
  186.9790  177.1970  141.7080 C   0  0  0  0  0  3  0  0  0  0  0  0
  188.5420  174.7350  141.0930 N   0  0  0  0  0  0  0  0  0  0  0  0
  188.3920  175.2910  142.3110 C   0  0  0  0  0  0  0  0  0  0  0  0
  189.0950  174.9370  144.6000 C   0  0  0  0  0  3  0  0  0  0  0  0
  189.6790  173.5400  142.6520 N   0  0  0  0  0  0  0  0  0  0  0  0
  188.3800  176.0890  144.9750 C   0  0  0  0  0  3  0  0  0  0  0  0
  189.7800  172.7080  140.2810 C   0  0  1  0  0  3  0  0  0  0  0  0
  188.6660  172.1810  139.6250 O   0  0  0  0  0  1  0  0  0  0  0  0
  190.6900  173.4190  139.2880 C   0  0  0  0  0  2  0  0  0  0  0  0
  192.0700  173.0080  139.4950 N   0  0  0  0  0  2  0  0  0  0  0  0
  192.8120  174.1670  139.9770 C   0  0  0  0  0  2  0  0  0  0  0  0
  194.2780  174.1250  139.5290 C   0  0  0  0  0  0  0  0  0  0  0  0
  195.0390  175.2840  140.1600 C   0  0  0  0  0  1  0  0  0  0  0  0
  194.3560  174.2500  138.0140 C   0  0  0  0  0  1  0  0  0  0  0  0
  194.9130  172.8020  139.9890 C   0  0  1  0  0  3  0  0  0  0  0  0
  195.5450  172.1480  138.9250 O   0  0  0  0  0  0  0  0  0  0  0  0
  194.9860  170.8690  138.9060 C   0  0  0  0  0  1  0  0  0  0  0  0
  195.8390  173.0210  141.0170 O   0  0  0  0  0  0  0  0  0  0  0  0
  195.4180  172.1950  142.0630 C   0  0  0  0  0  2  0  0  0  0  0  0
  195.8830  172.7540  143.3610 C   0  0  0  0  0  0  0  0  0  0  0  0
  196.8480  174.5730  144.6360 C   0  0  0  0  0  3  0  0  0  0  0  0
  196.2920  172.4860  145.7330 C   0  0  0  0  0  3  0  0  0  0  0  0
  196.7960  173.7900  145.7930 C   0  0  0  0  0  3  0  0  0  0  0  0
  195.8370  171.9670  144.5170 C   0  0  0  0  0  3  0  0  0  0  0  0
  196.3940  174.0550  143.4180 C   0  0  0  0  0  3  0  0  0  0  0  0
  190.5590  172.5390  143.2500 C   0  0  0  0  0  2  0  0  0  0  0  0
  192.0250  172.8670  142.9820 C   0  0  0  0  0  2  0  0  0  0  0  0
  193.3900  176.1550  144.2790 C   0  0  0  0  0  3  0  0  0  0  0  0
  193.5370  175.8790  145.6490 C   0  0  0  0  0  0  0  0  0  0  0  0
  192.6780  173.6400  145.2740 C   0  0  0  0  0  3  0  0  0  0  0  0
  192.8890  175.1770  143.4150 C   0  0  0  0  0  3  0  0  0  0  0  0
  192.5320  173.9180  143.9120 C   0  0  0  0  0  0  0  0  0  0  0  0
  193.1740  174.6190  146.1380 C   0  0  0  0  0  3  0  0  0  0  0  0
  194.9320  177.8630  146.1360 C   0  0  0  0  0  1  0  0  0  0  0  0
  194.0420  176.8310  146.5380 O   0  0  0  0  0  0  0  0  0  0  0  0
  1  6  1  0  0  0  0
  1  8  1  0  0  0  0
  2 12  1  0  0  0  0
  3 13  1  0  0  0  0
  4  8  2  0  0  0  0
  4 14  1  0  0  0  0
  5  1  2  0  0  0  0
  7  4  1  0  0  0  0
  9  5  1  0  0  0  0
  9  7  2  0  0  0  0
 10  3  2  0  0  0  0
 10 11  1  0  0  0  0
 11  7  1  0  0  0  0
 11  2  2  0  0  0  0
 12 14  2  0  0  0  0
 13 34  1  0  0  0  0
 13  2  1  0  0  0  0
 15 16  1  6  0  0  0
 15  3  1  0  0  0  0
 17 18  1  0  0  0  0
 17 15  1  0  0  0  0
 18 19  1  0  0  0  0
 20 19  1  0  0  0  0
 20 23  1  0  0  0  0
 20 21  1  0  0  0  0
 22 20  1  0  0  0  0
 23 24  1  6  0  0  0
 23 26  1  0  0  0  0
 25 24  1  0  0  0  0
 26 27  1  0  0  0  0
 27 28  1  0  0  0  0
 28 33  2  0  0  0  0
 28 32  1  0  0  0  0
 29 31  2  0  0  0  0
 30 31  1  0  0  0  0
 32 30  2  0  0  0  0
 33 29  1  0  0  0  0
 35 34  1  0  0  0  0
 35 40  1  0  0  0  0
 36 37  1  0  0  0  0
 37 41  2  0  0  0  0
 37 43  1  0  0  0  0
 38 41  1  0  0  0  0
 39 40  1  0  0  0  0
 39 36  2  0  0  0  0
 40 38  2  0  0  0  0
 42 43  1  0  0  0  0
M  END
>  <MODEL>
9

>  <REMARK>
 VINA RESULT:      -5.7      2.744      5.870
  Name = 
  14 active torsions:
  status: ('A' for Active; 'I' for Inactive)
    1  A    between atoms: C_1  and  C_35
    2  A    between atoms: C_1  and  C_38
    3  A    between atoms: C_2  and  C_6
    4  A    between atoms: C_2  and  C_13
    5  A    between atoms: C_3  and  C_4
    6  A    between atoms: C_3  and  N_17
    7  A    between atoms: C_4  and  C_22
    8  A    between atoms: C_6  and  N_17
    9  A    between atoms: O_10  and  C_22
   10  A    between atoms: C_11  and  C_41
   11  A    between atoms: O_14  and  C_22
   12  A    between atoms: O_14  and  C_41
   13  A    between atoms: C_19  and  O_37
   14  A    between atoms: N_34  and  C_38
                            x       y       z     vdW  Elec       q    Type
                         _______ _______ _______ _____ _____    ______ ____

>  <TORSDO>
F 14

$$$$
