=
 OpenBabel11052417273D

 25 27  0  0  1  0  0  0  0  0999 V2000
  189.2970  175.4930  143.6980 C   0  0  0  0  0  0  0  0  0  0  0  0
  188.2100  176.3130  143.3170 C   0  0  0  0  0  0  0  0  0  0  0  0
  189.3370  174.5380  141.5280 C   0  0  0  0  0  3  0  0  0  0  0  0
  188.3110  175.3310  141.1360 N   0  0  0  0  0  0  0  0  0  0  0  0
  186.5480  177.0260  141.5110 C   0  0  2  0  0  3  0  0  0  0  0  0
  186.7670  177.5650  140.1080 C   0  0  0  0  0  1  0  0  0  0  0  0
  187.5850  177.2730  144.2990 C   0  0  0  0  0  2  0  0  0  0  0  0
  189.8200  174.6250  142.7910 N   0  0  0  0  0  0  0  0  0  0  0  0
  186.1930  178.1890  142.4330 C   0  0  0  0  0  2  0  0  0  0  0  0
  186.1890  177.7210  143.8800 C   0  0  2  0  0  3  0  0  0  0  0  0
  187.7470  176.2330  141.9840 C   0  0  0  0  0  0  0  0  0  0  0  0
  189.8970  175.5450  145.0540 C   0  0  0  0  0  0  0  0  0  0  0  0
  190.9630  175.6820  147.6510 C   0  0  0  0  0  3  0  0  0  0  0  0
  191.0210  176.3540  145.3220 C   0  0  0  0  0  0  0  0  0  0  0  0
  191.5480  176.4150  146.6160 C   0  0  0  0  0  3  0  0  0  0  0  0
  189.8460  174.8860  147.3960 C   0  0  0  0  0  3  0  0  0  0  0  0
  191.6310  177.0880  144.3110 O   0  0  0  0  0  1  0  0  0  0  0  0
  189.3140  174.8220  146.1070 C   0  0  0  0  0  3  0  0  0  0  0  0
  185.5700  178.7670  144.8290 C   0  0  0  0  0  2  0  0  0  0  0  0
  184.6090  178.2640  145.8290 N   0  0  0  0  0  0  0  0  0  0  0  0
  183.4480  178.9590  145.7340 O   0  0  0  0  0  1  0  0  0  0  0  0
  185.1480  178.4300  147.1830 C   0  0  2  0  0  3  0  0  0  0  0  0
  185.8900  179.6120  147.2710 O   0  0  0  0  0  1  0  0  0  0  0  0
  187.3770  177.6330  147.5950 O   0  0  0  0  0  1  0  0  0  0  0  0
  186.0350  177.2500  147.5730 C   0  0  0  0  0  2  0  0  0  0  0  0
  1 12  1  0  0  0  0
  2  1  1  0  0  0  0
  2  7  1  0  0  0  0
  3  8  1  0  0  0  0
  4  3  2  0  0  0  0
  4 11  1  0  0  0  0
  5  6  1  6  0  0  0
  5 11  1  0  0  0  0
  5  9  1  0  0  0  0
  8  1  2  0  0  0  0
  9 10  1  0  0  0  0
 10  7  1  0  0  0  0
 10 19  1  1  0  0  0
 11  2  2  0  0  0  0
 12 14  2  0  0  0  0
 12 18  1  0  0  0  0
 14 15  1  0  0  0  0
 15 13  2  0  0  0  0
 16 13  1  0  0  0  0
 17 14  1  0  0  0  0
 18 16  2  0  0  0  0
 19 20  1  0  0  0  0
 20 22  1  0  0  0  0
 21 20  1  0  0  0  0
 22 23  1  6  0  0  0
 22 25  1  0  0  0  0
 25 24  1  0  0  0  0
M  END
>  <MODEL>
1

>  <REMARK>
 VINA RESULT:      -7.0      0.000      0.000
  Name = 
  5 active torsions:
  status: ('A' for Active; 'I' for Inactive)
    1  A    between atoms: C_1  and  C_5
    2  A    between atoms: C_2  and  N_15
    3  A    between atoms: C_2  and  C_21
    4  A    between atoms: C_6  and  N_15
    5  A    between atoms: C_6  and  C_23
                            x       y       z     vdW  Elec       q    Type
                         _______ _______ _______ _____ _____    ______ ____

>  <TORSDO>
F 5

$$$$
=
 OpenBabel11052417273D

 25 27  0  0  1  0  0  0  0  0999 V2000
  187.8810  176.1560  146.2880 C   0  0  0  0  0  0  0  0  0  0  0  0
  188.4550  176.1640  144.9960 C   0  0  0  0  0  0  0  0  0  0  0  0
  189.4410  174.5050  146.9700 C   0  0  0  0  0  3  0  0  0  0  0  0
  190.0210  174.5160  145.7450 N   0  0  0  0  0  0  0  0  0  0  0  0
  190.2100  175.2360  143.3860 C   0  0  2  0  0  3  0  0  0  0  0  0
  191.7230  175.1720  143.4870 C   0  0  0  0  0  1  0  0  0  0  0  0
  187.9070  177.0600  143.9130 C   0  0  0  0  0  2  0  0  0  0  0  0
  188.3890  175.3180  147.2320 N   0  0  0  0  0  0  0  0  0  0  0  0
  189.8290  176.3870  142.4600 C   0  0  0  0  0  2  0  0  0  0  0  0
  188.3270  176.6220  142.5150 C   0  0  2  0  0  3  0  0  0  0  0  0
  189.5760  175.3370  144.7560 C   0  0  0  0  0  0  0  0  0  0  0  0
  186.7420  177.0300  146.6600 C   0  0  0  0  0  0  0  0  0  0  0  0
  184.5760  178.7110  147.2820 C   0  0  0  0  0  3  0  0  0  0  0  0
  186.9410  178.1970  147.4270 C   0  0  0  0  0  0  0  0  0  0  0  0
  185.8580  179.0270  147.7350 C   0  0  0  0  0  3  0  0  0  0  0  0
  184.3710  177.5630  146.5150 C   0  0  0  0  0  3  0  0  0  0  0  0
  188.2040  178.5350  147.9010 O   0  0  0  0  0  1  0  0  0  0  0  0
  185.4490  176.7310  146.2020 C   0  0  0  0  0  3  0  0  0  0  0  0
  187.8450  177.5750  141.4030 C   0  0  0  0  0  2  0  0  0  0  0  0
  186.5420  177.2630  140.7840 N   0  0  0  0  0  0  0  0  0  0  0  0
  186.6070  177.4920  139.4480 O   0  0  0  0  0  1  0  0  0  0  0  0
  185.4900  178.1080  141.3560 C   0  0  2  0  0  3  0  0  0  0  0  0
  184.9090  177.4820  142.4640 O   0  0  0  0  0  1  0  0  0  0  0  0
  183.1380  178.1970  140.8690 O   0  0  0  0  0  1  0  0  0  0  0  0
  184.4060  178.4120  140.3250 C   0  0  0  0  0  2  0  0  0  0  0  0
  1 12  1  0  0  0  0
  1  8  1  0  0  0  0
  2  1  2  0  0  0  0
  3  8  2  0  0  0  0
  4  3  1  0  0  0  0
  5  6  1  1  0  0  0
  5 11  1  0  0  0  0
  7  2  1  0  0  0  0
  9 10  1  0  0  0  0
  9  5  1  0  0  0  0
 10 19  1  6  0  0  0
 10  7  1  0  0  0  0
 11  2  1  0  0  0  0
 11  4  2  0  0  0  0
 12 14  1  0  0  0  0
 13 15  1  0  0  0  0
 14 15  2  0  0  0  0
 14 17  1  0  0  0  0
 16 13  2  0  0  0  0
 18 16  1  0  0  0  0
 18 12  2  0  0  0  0
 20 22  1  0  0  0  0
 20 19  1  0  0  0  0
 21 20  1  0  0  0  0
 22 23  1  1  0  0  0
 25 24  1  0  0  0  0
 25 22  1  0  0  0  0
M  END
>  <MODEL>
2

>  <REMARK>
 VINA RESULT:      -6.9      2.561      5.226
  Name = 
  5 active torsions:
  status: ('A' for Active; 'I' for Inactive)
    1  A    between atoms: C_1  and  C_5
    2  A    between atoms: C_2  and  N_15
    3  A    between atoms: C_2  and  C_21
    4  A    between atoms: C_6  and  N_15
    5  A    between atoms: C_6  and  C_23
                            x       y       z     vdW  Elec       q    Type
                         _______ _______ _______ _____ _____    ______ ____

>  <TORSDO>
F 5

$$$$
=
 OpenBabel11052417273D

 25 27  0  0  1  0  0  0  0  0999 V2000
  189.3900  174.8500  144.7570 C   0  0  0  0  0  0  0  0  0  0  0  0
  188.4380  175.8940  144.8150 C   0  0  0  0  0  0  0  0  0  0  0  0
  189.3330  174.6660  147.1200 C   0  0  0  0  0  3  0  0  0  0  0  0
  188.4030  175.6490  147.1960 N   0  0  0  0  0  0  0  0  0  0  0  0
  186.9520  177.4090  146.2400 C   0  0  2  0  0  3  0  0  0  0  0  0
  185.8780  177.0800  147.2620 C   0  0  0  0  0  1  0  0  0  0  0  0
  187.9600  176.5750  143.5570 C   0  0  0  0  0  2  0  0  0  0  0  0
  189.8120  174.2750  145.9150 N   0  0  0  0  0  0  0  0  0  0  0  0
  186.2770  177.8130  144.9330 C   0  0  0  0  0  2  0  0  0  0  0  0
  187.3150  177.9300  143.8270 C   0  0  2  0  0  3  0  0  0  0  0  0
  187.9230  176.2600  146.0800 C   0  0  0  0  0  0  0  0  0  0  0  0
  189.9460  174.3500  143.4760 C   0  0  0  0  0  0  0  0  0  0  0  0
  191.0220  173.3300  141.0880 C   0  0  0  0  0  3  0  0  0  0  0  0
  191.1160  174.9120  142.9230 C   0  0  0  0  0  0  0  0  0  0  0  0
  191.6440  174.4010  141.7320 C   0  0  0  0  0  3  0  0  0  0  0  0
  189.8700  172.7620  141.6330 C   0  0  0  0  0  3  0  0  0  0  0  0
  191.7530  175.9850  143.5350 O   0  0  0  0  0  1  0  0  0  0  0  0
  189.3380  173.2670  142.8210 C   0  0  0  0  0  3  0  0  0  0  0  0
  186.7450  178.6010  142.5620 C   0  0  0  0  0  2  0  0  0  0  0  0
  185.8220  177.7900  141.7440 N   0  0  0  0  0  0  0  0  0  0  0  0
  186.3360  177.6350  140.4980 O   0  0  0  0  0  1  0  0  0  0  0  0
  184.5190  178.4540  141.6350 C   0  0  2  0  0  3  0  0  0  0  0  0
  183.6760  178.0470  142.6750 O   0  0  0  0  0  1  0  0  0  0  0  0
  182.4650  178.0910  140.4420 O   0  0  0  0  0  1  0  0  0  0  0  0
  183.8520  178.1450  140.2980 C   0  0  0  0  0  2  0  0  0  0  0  0
  1  2  2  0  0  0  0
  1  8  1  0  0  0  0
  2 11  1  0  0  0  0
  3  4  1  0  0  0  0
  5  6  1  1  0  0  0
  7 10  1  0  0  0  0
  7  2  1  0  0  0  0
  8  3  2  0  0  0  0
  9  5  1  0  0  0  0
 10 19  1  6  0  0  0
 10  9  1  0  0  0  0
 11  5  1  0  0  0  0
 11  4  2  0  0  0  0
 12  1  1  0  0  0  0
 13 16  2  0  0  0  0
 13 15  1  0  0  0  0
 14 12  1  0  0  0  0
 14 17  1  0  0  0  0
 15 14  2  0  0  0  0
 16 18  1  0  0  0  0
 18 12  2  0  0  0  0
 20 19  1  0  0  0  0
 21 20  1  0  0  0  0
 22 20  1  0  0  0  0
 22 23  1  1  0  0  0
 25 24  1  0  0  0  0
 25 22  1  0  0  0  0
M  END
>  <MODEL>
3

>  <REMARK>
 VINA RESULT:      -6.6      2.623      4.816
  Name = 
  5 active torsions:
  status: ('A' for Active; 'I' for Inactive)
    1  A    between atoms: C_1  and  C_5
    2  A    between atoms: C_2  and  N_15
    3  A    between atoms: C_2  and  C_21
    4  A    between atoms: C_6  and  N_15
    5  A    between atoms: C_6  and  C_23
                            x       y       z     vdW  Elec       q    Type
                         _______ _______ _______ _____ _____    ______ ____

>  <TORSDO>
F 5

$$$$
=
 OpenBabel11052417273D

 25 27  0  0  1  0  0  0  0  0999 V2000
  187.5790  176.3300  141.8480 C   0  0  0  0  0  0  0  0  0  0  0  0
  187.1670  176.8810  143.0830 C   0  0  0  0  0  0  0  0  0  0  0  0
  186.0560  177.7470  140.7090 C   0  0  0  0  0  3  0  0  0  0  0  0
  185.6650  178.3050  141.8800 N   0  0  0  0  0  0  0  0  0  0  0  0
  185.6650  178.5190  144.3450 C   0  0  2  0  0  3  0  0  0  0  0  0
  185.4950  180.0230  144.2150 C   0  0  0  0  0  1  0  0  0  0  0  0
  187.7640  176.3980  144.3810 C   0  0  0  0  0  2  0  0  0  0  0  0
  187.0020  176.7770  140.6990 N   0  0  0  0  0  0  0  0  0  0  0  0
  186.5350  178.2280  145.5630 C   0  0  0  0  0  2  0  0  0  0  0  0
  186.9100  176.7540  145.5930 C   0  0  2  0  0  3  0  0  0  0  0  0
  186.2080  177.9190  143.0660 C   0  0  0  0  0  0  0  0  0  0  0  0
  188.6220  175.2800  141.7510 C   0  0  0  0  0  0  0  0  0  0  0  0
  190.5650  173.2520  141.6370 C   0  0  0  0  0  3  0  0  0  0  0  0
  189.9710  175.5670  142.0470 C   0  0  0  0  0  0  0  0  0  0  0  0
  190.9340  174.5530  141.9860 C   0  0  0  0  0  3  0  0  0  0  0  0
  189.2310  172.9580  141.3520 C   0  0  0  0  0  3  0  0  0  0  0  0
  190.3710  176.8540  142.3880 O   0  0  0  0  0  1  0  0  0  0  0  0
  188.2660  173.9650  141.4130 C   0  0  0  0  0  3  0  0  0  0  0  0
  187.5470  176.3420  146.9350 C   0  0  0  0  0  2  0  0  0  0  0  0
  188.8020  175.5690  146.8600 N   0  0  0  0  0  0  0  0  0  0  0  0
  188.7410  174.5180  147.7170 O   0  0  0  0  0  1  0  0  0  0  0  0
  189.9430  176.4110  147.2300 C   0  0  2  0  0  3  0  0  0  0  0  0
  189.5400  177.7430  147.3770 O   0  0  0  0  0  1  0  0  0  0  0  0
  190.9450  175.1520  145.4450 O   0  0  0  0  0  1  0  0  0  0  0  0
  191.0490  176.3340  146.1800 C   0  0  0  0  0  2  0  0  0  0  0  0
  1  2  1  0  0  0  0
  2  7  1  0  0  0  0
  3  4  2  0  0  0  0
  4 11  1  0  0  0  0
  5  6  1  6  0  0  0
  5  9  1  0  0  0  0
  7 10  1  0  0  0  0
  8  3  1  0  0  0  0
  8  1  2  0  0  0  0
  9 10  1  0  0  0  0
 10 19  1  1  0  0  0
 11  2  2  0  0  0  0
 11  5  1  0  0  0  0
 12  1  1  0  0  0  0
 12 14  1  0  0  0  0
 13 15  1  0  0  0  0
 14 17  1  0  0  0  0
 15 14  2  0  0  0  0
 16 18  1  0  0  0  0
 16 13  2  0  0  0  0
 18 12  2  0  0  0  0
 20 19  1  0  0  0  0
 20 22  1  0  0  0  0
 20 21  1  0  0  0  0
 22 23  1  6  0  0  0
 24 25  1  0  0  0  0
 25 22  1  0  0  0  0
M  END
>  <MODEL>
4

>  <REMARK>
 VINA RESULT:      -6.4      2.340      4.337
  Name = 
  5 active torsions:
  status: ('A' for Active; 'I' for Inactive)
    1  A    between atoms: C_1  and  C_5
    2  A    between atoms: C_2  and  N_15
    3  A    between atoms: C_2  and  C_21
    4  A    between atoms: C_6  and  N_15
    5  A    between atoms: C_6  and  C_23
                            x       y       z     vdW  Elec       q    Type
                         _______ _______ _______ _____ _____    ______ ____

>  <TORSDO>
F 5

$$$$
=
 OpenBabel11052417273D

 25 27  0  0  1  0  0  0  0  0999 V2000
  187.3820  177.4800  145.7650 C   0  0  0  0  0  0  0  0  0  0  0  0
  186.9300  177.4240  144.4260 C   0  0  0  0  0  0  0  0  0  0  0  0
  185.7160  179.0940  146.2600 C   0  0  0  0  0  3  0  0  0  0  0  0
  185.2520  179.0370  144.9880 N   0  0  0  0  0  0  0  0  0  0  0  0
  185.3020  178.2590  142.6400 C   0  0  2  0  0  3  0  0  0  0  0  0
  183.7850  178.2760  142.6010 C   0  0  0  0  0  1  0  0  0  0  0  0
  187.6010  176.5230  143.4210 C   0  0  0  0  0  2  0  0  0  0  0  0
  186.7630  178.3220  146.6370 N   0  0  0  0  0  0  0  0  0  0  0  0
  185.8020  177.1000  141.7820 C   0  0  0  0  0  2  0  0  0  0  0  0
  187.2990  176.9160  141.9790 C   0  0  2  0  0  3  0  0  0  0  0  0
  185.8110  178.2090  144.0650 C   0  0  0  0  0  0  0  0  0  0  0  0
  188.5080  176.6520  146.2610 C   0  0  0  0  0  0  0  0  0  0  0  0
  190.6220  175.1050  147.2810 C   0  0  0  0  0  3  0  0  0  0  0  0
  189.8460  177.0150  146.0050 C   0  0  0  0  0  0  0  0  0  0  0  0
  190.8930  176.2390  146.5130 C   0  0  0  0  0  3  0  0  0  0  0  0
  189.3000  174.7430  147.5470 C   0  0  0  0  0  3  0  0  0  0  0  0
  190.1490  178.1330  145.2360 O   0  0  0  0  0  1  0  0  0  0  0  0
  188.2500  175.5150  147.0430 C   0  0  0  0  0  3  0  0  0  0  0  0
  187.9090  175.9550  140.9400 C   0  0  0  0  0  2  0  0  0  0  0  0
  188.5550  174.7370  141.4670 N   0  0  0  0  0  0  0  0  0  0  0  0
  189.8890  174.9490  141.5960 O   0  0  0  0  0  1  0  0  0  0  0  0
  188.3440  173.6110  140.5520 C   0  0  2  0  0  3  0  0  0  0  0  0
  189.2790  172.6000  140.7980 O   0  0  0  0  0  1  0  0  0  0  0  0
  189.6900  173.6780  138.5620 O   0  0  0  0  0  1  0  0  0  0  0  0
  188.4560  174.0550  139.0960 C   0  0  0  0  0  2  0  0  0  0  0  0
  1 12  1  0  0  0  0
  1  8  1  0  0  0  0
  2  1  2  0  0  0  0
  3  8  2  0  0  0  0
  4  3  1  0  0  0  0
  5  6  1  1  0  0  0
  5 11  1  0  0  0  0
  7  2  1  0  0  0  0
  9 10  1  0  0  0  0
  9  5  1  0  0  0  0
 10 19  1  6  0  0  0
 10  7  1  0  0  0  0
 11  2  1  0  0  0  0
 11  4  2  0  0  0  0
 12 18  1  0  0  0  0
 13 16  1  0  0  0  0
 14 12  2  0  0  0  0
 14 15  1  0  0  0  0
 15 13  2  0  0  0  0
 17 14  1  0  0  0  0
 18 16  2  0  0  0  0
 19 20  1  0  0  0  0
 20 21  1  0  0  0  0
 22 23  1  1  0  0  0
 22 20  1  0  0  0  0
 24 25  1  0  0  0  0
 25 22  1  0  0  0  0
M  END
>  <MODEL>
5

>  <REMARK>
 VINA RESULT:      -6.4      2.428      5.382
  Name = 
  5 active torsions:
  status: ('A' for Active; 'I' for Inactive)
    1  A    between atoms: C_1  and  C_5
    2  A    between atoms: C_2  and  N_15
    3  A    between atoms: C_2  and  C_21
    4  A    between atoms: C_6  and  N_15
    5  A    between atoms: C_6  and  C_23
                            x       y       z     vdW  Elec       q    Type
                         _______ _______ _______ _____ _____    ______ ____

>  <TORSDO>
F 5

$$$$
=
 OpenBabel11052417273D

 25 27  0  0  1  0  0  0  0  0999 V2000
  187.2080  176.9590  143.9890 C   0  0  0  0  0  0  0  0  0  0  0  0
  188.5680  176.5830  143.8990 C   0  0  0  0  0  0  0  0  0  0  0  0
  186.8880  176.3470  141.7210 C   0  0  0  0  0  3  0  0  0  0  0  0
  188.1820  175.9580  141.6210 N   0  0  0  0  0  0  0  0  0  0  0  0
  190.4860  175.6710  142.4760 C   0  0  2  0  0  3  0  0  0  0  0  0
  190.6190  174.3800  141.6880 C   0  0  0  0  0  1  0  0  0  0  0  0
  189.4900  176.7260  145.0840 C   0  0  0  0  0  2  0  0  0  0  0  0
  186.4140  176.8360  142.8920 N   0  0  0  0  0  0  0  0  0  0  0  0
  191.2590  175.5290  143.7830 C   0  0  0  0  0  2  0  0  0  0  0  0
  190.9630  176.7120  144.6930 C   0  0  2  0  0  3  0  0  0  0  0  0
  189.0320  176.0390  142.6790 C   0  0  0  0  0  0  0  0  0  0  0  0
  186.6080  177.4830  145.2410 C   0  0  0  0  0  0  0  0  0  0  0  0
  185.4100  178.4160  147.6070 C   0  0  0  0  0  3  0  0  0  0  0  0
  185.9750  178.7430  145.2710 C   0  0  0  0  0  0  0  0  0  0  0  0
  185.3830  179.2020  146.4530 C   0  0  0  0  0  3  0  0  0  0  0  0
  186.0270  177.1640  147.5830 C   0  0  0  0  0  3  0  0  0  0  0  0
  185.9400  179.5540  144.1430 O   0  0  0  0  0  1  0  0  0  0  0  0
  186.6180  176.7000  146.4060 C   0  0  0  0  0  3  0  0  0  0  0  0
  191.9190  176.7720  145.9010 C   0  0  0  0  0  2  0  0  0  0  0  0
  192.6820  175.5450  146.2000 N   0  0  0  0  0  0  0  0  0  0  0  0
  192.1330  174.9180  147.2710 O   0  0  0  0  0  1  0  0  0  0  0  0
  194.0770  175.8740  146.5120 C   0  0  2  0  0  3  0  0  0  0  0  0
  194.1900  177.2180  146.8810 O   0  0  0  0  0  1  0  0  0  0  0  0
  195.2730  176.7890  144.6390 O   0  0  0  0  0  1  0  0  0  0  0  0
  194.9880  175.6020  145.3170 C   0  0  0  0  0  2  0  0  0  0  0  0
  1 12  1  0  0  0  0
  2  1  1  0  0  0  0
  2  7  1  0  0  0  0
  3  8  1  0  0  0  0
  4  3  2  0  0  0  0
  4 11  1  0  0  0  0
  5  6  1  1  0  0  0
  5 11  1  0  0  0  0
  5  9  1  0  0  0  0
  8  1  2  0  0  0  0
  9 10  1  0  0  0  0
 10  7  1  0  0  0  0
 10 19  1  1  0  0  0
 11  2  2  0  0  0  0
 12 14  2  0  0  0  0
 12 18  1  0  0  0  0
 14 15  1  0  0  0  0
 15 13  2  0  0  0  0
 16 13  1  0  0  0  0
 17 14  1  0  0  0  0
 18 16  2  0  0  0  0
 19 20  1  0  0  0  0
 20 22  1  0  0  0  0
 20 21  1  0  0  0  0
 22 23  1  6  0  0  0
 24 25  1  0  0  0  0
 25 22  1  0  0  0  0
M  END
>  <MODEL>
6

>  <REMARK>
 VINA RESULT:      -6.3      2.186      5.925
  Name = 
  5 active torsions:
  status: ('A' for Active; 'I' for Inactive)
    1  A    between atoms: C_1  and  C_5
    2  A    between atoms: C_2  and  N_15
    3  A    between atoms: C_2  and  C_21
    4  A    between atoms: C_6  and  N_15
    5  A    between atoms: C_6  and  C_23
                            x       y       z     vdW  Elec       q    Type
                         _______ _______ _______ _____ _____    ______ ____

>  <TORSDO>
F 5

$$$$
=
 OpenBabel11052417273D

 25 27  0  0  1  0  0  0  0  0999 V2000
  188.1480  177.2590  145.8900 C   0  0  0  0  0  0  0  0  0  0  0  0
  188.7840  176.4730  144.9020 C   0  0  0  0  0  0  0  0  0  0  0  0
  190.1200  177.2020  147.2060 C   0  0  0  0  0  3  0  0  0  0  0  0
  190.7560  176.4690  146.2600 N   0  0  0  0  0  0  0  0  0  0  0  0
  190.8730  175.2180  144.1290 C   0  0  2  0  0  3  0  0  0  0  0  0
  192.3040  175.6860  143.9320 C   0  0  0  0  0  1  0  0  0  0  0  0
  188.0510  176.0620  143.6500 C   0  0  0  0  0  2  0  0  0  0  0  0
  188.8360  177.5910  147.0160 N   0  0  0  0  0  0  0  0  0  0  0  0
  190.1950  175.1270  142.7650 C   0  0  0  0  0  2  0  0  0  0  0  0
  188.7050  174.8810  142.9420 C   0  0  2  0  0  3  0  0  0  0  0  0
  190.1370  176.1110  145.1040 C   0  0  0  0  0  0  0  0  0  0  0  0
  186.7530  177.7410  145.7480 C   0  0  0  0  0  0  0  0  0  0  0  0
  184.1350  178.7350  145.5000 C   0  0  0  0  0  3  0  0  0  0  0  0
  185.7450  177.3290  146.6440 C   0  0  0  0  0  0  0  0  0  0  0  0
  184.4430  177.8250  146.5130 C   0  0  0  0  0  3  0  0  0  0  0  0
  185.1280  179.1560  144.6140 C   0  0  0  0  0  3  0  0  0  0  0  0
  186.0180  176.4160  147.6570 O   0  0  0  0  0  1  0  0  0  0  0  0
  186.4290  178.6650  144.7410 C   0  0  0  0  0  3  0  0  0  0  0  0
  188.0150  174.5030  141.6160 C   0  0  0  0  0  2  0  0  0  0  0  0
  187.8170  173.0630  141.3620 N   0  0  0  0  0  0  0  0  0  0  0  0
  188.3300  172.3450  142.3920 O   0  0  0  0  0  1  0  0  0  0  0  0
  188.4970  172.6640  140.1260 C   0  0  2  0  0  3  0  0  0  0  0  0
  189.7840  172.1950  140.4060 O   0  0  0  0  0  1  0  0  0  0  0  0
  188.1910  173.4340  137.8690 O   0  0  0  0  0  1  0  0  0  0  0  0
  188.5900  173.8320  139.1460 C   0  0  0  0  0  2  0  0  0  0  0  0
  1  8  1  0  0  0  0
  2 11  1  0  0  0  0
  2  1  2  0  0  0  0
  4  3  1  0  0  0  0
  5  6  1  6  0  0  0
  5 11  1  0  0  0  0
  7  2  1  0  0  0  0
  8  3  2  0  0  0  0
  9 10  1  0  0  0  0
  9  5  1  0  0  0  0
 10 19  1  6  0  0  0
 10  7  1  0  0  0  0
 11  4  2  0  0  0  0
 12  1  1  0  0  0  0
 12 14  1  0  0  0  0
 13 15  1  0  0  0  0
 14 17  1  0  0  0  0
 15 14  2  0  0  0  0
 16 18  1  0  0  0  0
 16 13  2  0  0  0  0
 18 12  2  0  0  0  0
 20 19  1  0  0  0  0
 20 21  1  0  0  0  0
 22 23  1  1  0  0  0
 22 20  1  0  0  0  0
 24 25  1  0  0  0  0
 25 22  1  0  0  0  0
M  END
>  <MODEL>
7

>  <REMARK>
 VINA RESULT:      -6.3      3.049      6.659
  Name = 
  5 active torsions:
  status: ('A' for Active; 'I' for Inactive)
    1  A    between atoms: C_1  and  C_5
    2  A    between atoms: C_2  and  N_15
    3  A    between atoms: C_2  and  C_21
    4  A    between atoms: C_6  and  N_15
    5  A    between atoms: C_6  and  C_23
                            x       y       z     vdW  Elec       q    Type
                         _______ _______ _______ _____ _____    ______ ____

>  <TORSDO>
F 5

$$$$
=
 OpenBabel11052417273D

 25 27  0  0  1  0  0  0  0  0999 V2000
  189.8880  176.1890  146.1640 C   0  0  0  0  0  0  0  0  0  0  0  0
  190.3910  175.0490  145.4960 C   0  0  0  0  0  0  0  0  0  0  0  0
  191.9290  176.3940  147.3540 C   0  0  0  0  0  3  0  0  0  0  0  0
  192.4390  175.3180  146.7070 N   0  0  0  0  0  0  0  0  0  0  0  0
  192.3140  173.4010  145.1480 C   0  0  2  0  0  3  0  0  0  0  0  0
  193.7630  173.6250  144.7550 C   0  0  0  0  0  1  0  0  0  0  0  0
  189.5470  174.3060  144.4920 C   0  0  0  0  0  2  0  0  0  0  0  0
  190.6720  176.8200  147.0790 N   0  0  0  0  0  0  0  0  0  0  0  0
  191.5440  172.9110  143.9260 C   0  0  0  0  0  2  0  0  0  0  0  0
  190.0530  172.8930  144.2240 C   0  0  2  0  0  3  0  0  0  0  0  0
  191.7190  174.6460  145.7690 C   0  0  0  0  0  0  0  0  0  0  0  0
  188.5310  176.7300  145.9040 C   0  0  0  0  0  0  0  0  0  0  0  0
  185.9340  177.6760  145.3900 C   0  0  0  0  0  3  0  0  0  0  0  0
  188.2880  177.5890  144.8120 C   0  0  0  0  0  0  0  0  0  0  0  0
  186.9930  178.0580  144.5640 C   0  0  0  0  0  3  0  0  0  0  0  0
  186.1650  176.8200  146.4680 C   0  0  0  0  0  3  0  0  0  0  0  0
  189.3220  177.9950  143.9770 O   0  0  0  0  0  1  0  0  0  0  0  0
  187.4540  176.3470  146.7200 C   0  0  0  0  0  3  0  0  0  0  0  0
  189.2510  172.1500  143.1370 C   0  0  0  0  0  2  0  0  0  0  0  0
  188.6200  172.9840  142.0960 N   0  0  0  0  0  0  0  0  0  0  0  0
  187.3180  172.6320  141.9580 O   0  0  0  0  0  1  0  0  0  0  0  0
  189.2980  172.7920  140.8090 C   0  0  2  0  0  3  0  0  0  0  0  0
  190.2750  173.7750  140.6210 O   0  0  0  0  0  1  0  0  0  0  0  0
  188.2840  174.1140  139.0770 O   0  0  0  0  0  1  0  0  0  0  0  0
  188.3050  172.8420  139.6500 C   0  0  0  0  0  2  0  0  0  0  0  0
  1  8  1  0  0  0  0
  2 11  1  0  0  0  0
  2  1  2  0  0  0  0
  4  3  1  0  0  0  0
  5  6  1  6  0  0  0
  5 11  1  0  0  0  0
  7  2  1  0  0  0  0
  8  3  2  0  0  0  0
  9 10  1  0  0  0  0
  9  5  1  0  0  0  0
 10 19  1  6  0  0  0
 10  7  1  0  0  0  0
 11  4  2  0  0  0  0
 12  1  1  0  0  0  0
 12 18  1  0  0  0  0
 13 16  1  0  0  0  0
 14 12  2  0  0  0  0
 15 14  1  0  0  0  0
 15 13  2  0  0  0  0
 16 18  2  0  0  0  0
 17 14  1  0  0  0  0
 20 19  1  0  0  0  0
 21 20  1  0  0  0  0
 22 23  1  6  0  0  0
 22 20  1  0  0  0  0
 24 25  1  0  0  0  0
 25 22  1  0  0  0  0
M  END
>  <MODEL>
8

>  <REMARK>
 VINA RESULT:      -6.3      3.224      6.560
  Name = 
  5 active torsions:
  status: ('A' for Active; 'I' for Inactive)
    1  A    between atoms: C_1  and  C_5
    2  A    between atoms: C_2  and  N_15
    3  A    between atoms: C_2  and  C_21
    4  A    between atoms: C_6  and  N_15
    5  A    between atoms: C_6  and  C_23
                            x       y       z     vdW  Elec       q    Type
                         _______ _______ _______ _____ _____    ______ ____

>  <TORSDO>
F 5

$$$$
=
 OpenBabel11052417273D

 25 27  0  0  1  0  0  0  0  0999 V2000
  190.0090  173.6030  144.0960 C   0  0  0  0  0  0  0  0  0  0  0  0
  189.2280  174.2520  143.1120 C   0  0  0  0  0  0  0  0  0  0  0  0
  190.1700  171.6890  142.7060 C   0  0  0  0  0  3  0  0  0  0  0  0
  189.4430  172.3020  141.7410 N   0  0  0  0  0  0  0  0  0  0  0  0
  188.1040  174.1660  140.8190 C   0  0  2  0  0  3  0  0  0  0  0  0
  188.6710  173.8920  139.4370 C   0  0  0  0  0  1  0  0  0  0  0  0
  188.7010  175.6470  143.3400 C   0  0  0  0  0  2  0  0  0  0  0  0
  190.4490  172.3370  143.8630 N   0  0  0  0  0  0  0  0  0  0  0  0
  187.8940  175.6690  140.9730 C   0  0  0  0  0  2  0  0  0  0  0  0
  187.5420  175.9990  142.4150 C   0  0  2  0  0  3  0  0  0  0  0  0
  188.9830  173.5720  141.8970 C   0  0  0  0  0  0  0  0  0  0  0  0
  190.3750  174.2530  145.3790 C   0  0  0  0  0  0  0  0  0  0  0  0
  191.0080  175.5430  147.7950 C   0  0  0  0  0  3  0  0  0  0  0  0
  191.6250  174.8850  145.5430 C   0  0  0  0  0  0  0  0  0  0  0  0
  191.9340  175.5230  146.7500 C   0  0  0  0  0  3  0  0  0  0  0  0
  189.7660  174.9270  147.6370 C   0  0  0  0  0  3  0  0  0  0  0  0
  192.5720  174.8750  144.5260 O   0  0  0  0  0  1  0  0  0  0  0  0
  189.4500  174.2900  146.4350 C   0  0  0  0  0  3  0  0  0  0  0  0
  187.0470  177.4500  142.5770 C   0  0  0  0  0  2  0  0  0  0  0  0
  185.6580  177.6260  143.0410 N   0  0  0  0  0  0  0  0  0  0  0  0
  185.0720  178.6360  142.3510 O   0  0  0  0  0  1  0  0  0  0  0  0
  185.6350  177.9570  144.4690 C   0  0  2  0  0  3  0  0  0  0  0  0
  185.5710  176.7920  145.2400 O   0  0  0  0  0  1  0  0  0  0  0  0
  184.0550  178.6630  146.1370 O   0  0  0  0  0  1  0  0  0  0  0  0
  184.4440  178.8500  144.8100 C   0  0  0  0  0  2  0  0  0  0  0  0
  1 12  1  0  0  0  0
  2  7  1  0  0  0  0
  2  1  2  0  0  0  0
  3  8  2  0  0  0  0
  4 11  2  0  0  0  0
  4  3  1  0  0  0  0
  5  6  1  6  0  0  0
  5  9  1  0  0  0  0
  5 11  1  0  0  0  0
  8  1  1  0  0  0  0
  9 10  1  0  0  0  0
 10 19  1  6  0  0  0
 10  7  1  0  0  0  0
 11  2  1  0  0  0  0
 12 14  2  0  0  0  0
 12 18  1  0  0  0  0
 14 15  1  0  0  0  0
 15 13  2  0  0  0  0
 16 13  1  0  0  0  0
 17 14  1  0  0  0  0
 18 16  2  0  0  0  0
 19 20  1  0  0  0  0
 20 22  1  0  0  0  0
 21 20  1  0  0  0  0
 22 25  1  0  0  0  0
 22 23  1  1  0  0  0
 25 24  1  0  0  0  0
M  END
>  <MODEL>
9

>  <REMARK>
 VINA RESULT:      -6.3      1.888      2.750
  Name = 
  5 active torsions:
  status: ('A' for Active; 'I' for Inactive)
    1  A    between atoms: C_1  and  C_5
    2  A    between atoms: C_2  and  N_15
    3  A    between atoms: C_2  and  C_21
    4  A    between atoms: C_6  and  N_15
    5  A    between atoms: C_6  and  C_23
                            x       y       z     vdW  Elec       q    Type
                         _______ _______ _______ _____ _____    ______ ____

>  <TORSDO>
F 5

$$$$
