=
 OpenBabel11052417093D

 30 33  0  0  1  0  0  0  0  0999 V2000
  191.9050  176.2560  142.6330 C   0  0  2  0  0  3  0  0  0  0  0  0
  190.6270  174.4960  143.8590 C   0  0  2  0  0  3  0  0  0  0  0  0
  191.1290  177.5290  143.0150 C   0  0  0  0  0  2  0  0  0  0  0  0
  187.5790  176.3750  143.5460 N   0  0  0  0  0  0  0  0  0  0  0  0
  189.0610  175.1880  145.9100 C   0  0  1  0  0  3  0  0  0  0  0  0
  188.9320  176.4690  143.6660 C   0  0  0  0  0  0  0  0  0  0  0  0
  188.9370  178.2400  142.0220 C   0  0  0  0  0  3  0  0  0  0  0  0
  189.6410  177.4000  142.8880 C   0  0  0  0  0  0  0  0  0  0  0  0
  189.6880  175.5110  144.5500 C   0  0  2  0  0  0  0  0  0  0  0  0
  189.4720  173.9470  146.4000 O   0  0  0  0  0  1  0  0  0  0  0  0
  186.8800  177.1840  142.7040 C   0  0  0  0  0  3  0  0  0  0  0  0
  187.5480  178.1330  141.9270 C   0  0  0  0  0  3  0  0  0  0  0  0
  191.1040  175.0110  142.5500 N   0  0  0  0  0  0  0  0  0  0  0  0
  189.8530  177.4200  146.0520 O   0  0  0  0  0  1  0  0  0  0  0  0
  190.2690  176.1040  145.8360 C   0  0  1  0  0  3  0  0  0  0  0  0
  194.4300  176.0440  142.6510 C   0  0  0  0  0  0  0  0  0  0  0  0
  195.6420  175.9280  143.3380 C   0  0  0  0  0  3  0  0  0  0  0  0
  194.4630  176.0800  140.8940 Cl  0  0  0  0  0  0  0  0  0  0  0  0
  193.2520  176.1070  144.7690 C   0  0  0  0  0  3  0  0  0  0  0  0
  194.4820  175.9680  146.8030 F   0  0  0  0  0  0  0  0  0  0  0  0
  193.2200  176.1310  143.3670 C   0  0  0  0  0  0  0  0  0  0  0  0
  195.6610  175.9020  144.7340 C   0  0  0  0  0  3  0  0  0  0  0  0
  194.4650  175.9920  145.4500 C   0  0  0  0  0  0  0  0  0  0  0  0
  191.9050  174.0050  141.8500 C   0  0  0  0  0  2  0  0  0  0  0  0
  190.2010  173.7970  140.2360 O   0  0  0  0  0  0  0  0  0  0  0  0
  191.4010  173.8270  140.4570 C   0  0  0  0  0  3  0  0  0  0  0  0
  189.8420  173.1910  143.6610 C   0  0  0  0  0  2  0  0  0  0  0  0
  190.6490  170.9970  142.9260 O   0  0  0  0  0  0  0  0  0  0  0  0
  190.7130  172.0390  143.8220 N   0  0  0  0  0  0  0  0  0  0  0  0
  191.6430  172.0830  144.6510 O   0  0  0  0  0  0  0  0  0  0  0  0
  1  3  1  0  0  0  0
  1 21  1  1  0  0  0
  2 27  1  6  0  0  0
  2  9  1  0  0  0  0
  4  6  1  0  0  0  0
  5 10  1  1  0  0  0
  7  8  1  0  0  0  0
  8  3  1  0  0  0  0
  8  6  2  0  0  0  0
  9  6  1  6  0  0  0
  9 15  1  0  0  0  0
  9  5  1  0  0  0  0
 11  4  2  0  0  0  0
 12  7  2  0  0  0  0
 12 11  1  0  0  0  0
 13  1  1  0  0  0  0
 13  2  1  0  0  0  0
 15  5  1  0  0  0  0
 15 14  1  6  0  0  0
 16 17  2  0  0  0  0
 16 21  1  0  0  0  0
 17 22  1  0  0  0  0
 18 16  1  0  0  0  0
 19 23  1  0  0  0  0
 21 19  2  0  0  0  0
 22 23  2  0  0  0  0
 23 20  1  0  0  0  0
 24 13  1  0  0  0  0
 25 26  2  0  0  0  0
 26 24  1  0  0  0  0
 27 29  1  0  0  0  0
 28 29  2  0  0  0  0
 29 30  2  0  0  0  0
M  END
>  <MODEL>
1

>  <REMARK>
 VINA RESULT:      -6.2      0.000      0.000
  Name = 
  5 active torsions:
  status: ('A' for Active; 'I' for Inactive)
    1  A    between atoms: C_1  and  C_22
    2  A    between atoms: C_4  and  C_25
    3  A    between atoms: C_10  and  N_23
    4  A    between atoms: C_10  and  C_26
    5  A    between atoms: N_11  and  C_25
                            x       y       z     vdW  Elec       q    Type
                         _______ _______ _______ _____ _____    ______ ____

>  <TORSDO>
F 5

$$$$
=
 OpenBabel11052417093D

 30 33  0  0  1  0  0  0  0  0999 V2000
  188.1600  175.6880  142.7500 C   0  0  2  0  0  3  0  0  0  0  0  0
  190.5730  175.3680  143.3050 C   0  0  2  0  0  3  0  0  0  0  0  0
  187.7470  174.2690  142.3220 C   0  0  0  0  0  2  0  0  0  0  0  0
  190.8730  172.7520  140.8600 N   0  0  0  0  0  0  0  0  0  0  0  0
  191.4950  172.9140  143.8230 C   0  0  1  0  0  3  0  0  0  0  0  0
  190.0270  173.3550  141.7390 C   0  0  0  0  0  0  0  0  0  0  0  0
  188.2570  173.2230  140.0990 C   0  0  0  0  0  3  0  0  0  0  0  0
  188.6980  173.6170  141.3640 C   0  0  0  0  0  0  0  0  0  0  0  0
  190.5320  173.8400  143.0730 C   0  0  2  0  0  0  0  0  0  0  0  0
  192.3210  173.6130  144.7050 O   0  0  0  0  0  1  0  0  0  0  0  0
  190.4590  172.3650  139.6230 C   0  0  0  0  0  3  0  0  0  0  0  0
  189.1410  172.5930  139.2210 C   0  0  0  0  0  3  0  0  0  0  0  0
  189.5650  176.0650  142.4670 N   0  0  0  0  0  0  0  0  0  0  0  0
  189.3560  171.8930  143.9430 O   0  0  0  0  0  1  0  0  0  0  0  0
  190.0590  173.0480  144.2950 C   0  0  1  0  0  3  0  0  0  0  0  0
  186.4020  176.6670  144.2910 C   0  0  0  0  0  0  0  0  0  0  0  0
  185.9460  176.9990  145.5700 C   0  0  0  0  0  3  0  0  0  0  0  0
  185.3730  177.0330  142.9140 Cl  0  0  0  0  0  0  0  0  0  0  0  0
  188.4340  175.7720  145.2640 C   0  0  0  0  0  3  0  0  0  0  0  0
  188.7340  175.8330  147.6260 F   0  0  0  0  0  0  0  0  0  0  0  0
  187.6590  176.0510  144.1290 C   0  0  0  0  0  0  0  0  0  0  0  0
  186.7290  176.7200  146.6930 C   0  0  0  0  0  3  0  0  0  0  0  0
  187.9740  176.1050  146.5390 C   0  0  0  0  0  0  0  0  0  0  0  0
  189.6790  177.5180  142.6080 C   0  0  0  0  0  2  0  0  0  0  0  0
  187.8710  178.9200  142.0460 O   0  0  0  0  0  0  0  0  0  0  0  0
  188.7710  178.2010  141.6410 C   0  0  0  0  0  3  0  0  0  0  0  0
  191.9850  175.8570  142.9550 C   0  0  0  0  0  2  0  0  0  0  0  0
  191.8330  176.8710  145.1810 O   0  0  0  0  0  0  0  0  0  0  0  0
  192.6010  176.5100  144.0980 N   0  0  0  0  0  0  0  0  0  0  0  0
  193.8440  176.5660  144.1780 O   0  0  0  0  0  0  0  0  0  0  0  0
  1 21  1  1  0  0  0
  2 27  1  6  0  0  0
  3  1  1  0  0  0  0
  4  6  1  0  0  0  0
  5 15  1  0  0  0  0
  5 10  1  1  0  0  0
  7  8  1  0  0  0  0
  8  6  2  0  0  0  0
  8  3  1  0  0  0  0
  9  6  1  6  0  0  0
  9  2  1  0  0  0  0
  9  5  1  0  0  0  0
  9 15  1  0  0  0  0
 11  4  2  0  0  0  0
 12 11  1  0  0  0  0
 12  7  2  0  0  0  0
 13 24  1  0  0  0  0
 13  1  1  0  0  0  0
 13  2  1  0  0  0  0
 15 14  1  6  0  0  0
 16 17  1  0  0  0  0
 17 22  2  0  0  0  0
 18 16  1  0  0  0  0
 19 23  2  0  0  0  0
 21 16  2  0  0  0  0
 21 19  1  0  0  0  0
 23 22  1  0  0  0  0
 23 20  1  0  0  0  0
 26 25  2  0  0  0  0
 26 24  1  0  0  0  0
 27 29  1  0  0  0  0
 29 30  2  0  0  0  0
 29 28  2  0  0  0  0
M  END
>  <MODEL>
2

>  <REMARK>
 VINA RESULT:      -6.2      2.987      5.637
  Name = 
  5 active torsions:
  status: ('A' for Active; 'I' for Inactive)
    1  A    between atoms: C_1  and  C_22
    2  A    between atoms: C_4  and  C_25
    3  A    between atoms: C_10  and  N_23
    4  A    between atoms: C_10  and  C_26
    5  A    between atoms: N_11  and  C_25
                            x       y       z     vdW  Elec       q    Type
                         _______ _______ _______ _____ _____    ______ ____

>  <TORSDO>
F 5

$$$$
=
 OpenBabel11052417093D

 30 33  0  0  1  0  0  0  0  0999 V2000
  189.4270  175.7300  143.2020 C   0  0  2  0  0  3  0  0  0  0  0  0
  191.3590  174.2400  143.7330 C   0  0  2  0  0  3  0  0  0  0  0  0
  188.5550  174.8120  142.3260 C   0  0  0  0  0  2  0  0  0  0  0  0
  190.9990  172.5190  140.5990 N   0  0  0  0  0  0  0  0  0  0  0  0
  191.0910  171.5930  143.4850 C   0  0  1  0  0  3  0  0  0  0  0  0
  190.3290  173.1760  141.5860 C   0  0  0  0  0  0  0  0  0  0  0  0
  188.9840  174.2830  139.9120 C   0  0  0  0  0  3  0  0  0  0  0  0
  189.3130  174.0880  141.2540 C   0  0  0  0  0  0  0  0  0  0  0  0
  190.7400  173.0120  143.0250 C   0  0  2  0  0  0  0  0  0  0  0  0
  191.9580  171.5900  144.5790 O   0  0  0  0  0  1  0  0  0  0  0  0
  190.6910  172.7010  139.2860 C   0  0  0  0  0  3  0  0  0  0  0  0
  189.6760  173.5870  138.9190 C   0  0  0  0  0  3  0  0  0  0  0  0
  190.8900  175.5060  143.1160 N   0  0  0  0  0  0  0  0  0  0  0  0
  188.7390  171.6340  143.1780 O   0  0  0  0  0  1  0  0  0  0  0  0
  189.7750  172.2170  143.9100 C   0  0  1  0  0  3  0  0  0  0  0  0
  187.9600  176.9230  144.8890 C   0  0  0  0  0  0  0  0  0  0  0  0
  187.4580  177.0690  146.1860 C   0  0  0  0  0  3  0  0  0  0  0  0
  187.4140  178.0430  143.6480 Cl  0  0  0  0  0  0  0  0  0  0  0  0
  189.2740  175.0240  145.6260 C   0  0  0  0  0  3  0  0  0  0  0  0
  189.1610  174.3270  147.9000 F   0  0  0  0  0  0  0  0  0  0  0  0
  188.8800  175.8960  144.6000 C   0  0  0  0  0  0  0  0  0  0  0  0
  187.8610  176.1970  147.2000 C   0  0  0  0  0  3  0  0  0  0  0  0
  188.7700  175.1730  146.9190 C   0  0  0  0  0  0  0  0  0  0  0  0
  191.5590  176.6620  143.7160 C   0  0  0  0  0  2  0  0  0  0  0  0
  191.2030  178.9900  143.6330 O   0  0  0  0  0  0  0  0  0  0  0  0
  191.1050  177.9200  143.0540 C   0  0  0  0  0  3  0  0  0  0  0  0
  192.8850  174.1260  143.6190 C   0  0  0  0  0  2  0  0  0  0  0  0
  192.7460  174.3530  146.0560 O   0  0  0  0  0  0  0  0  0  0  0  0
  193.5130  174.3310  144.9140 N   0  0  0  0  0  0  0  0  0  0  0  0
  194.7560  174.2920  145.0080 O   0  0  0  0  0  0  0  0  0  0  0  0
  1 21  1  1  0  0  0
  2 27  1  6  0  0  0
  3  1  1  0  0  0  0
  4  6  1  0  0  0  0
  5 15  1  0  0  0  0
  5 10  1  1  0  0  0
  7  8  1  0  0  0  0
  8  6  2  0  0  0  0
  8  3  1  0  0  0  0
  9  6  1  6  0  0  0
  9  5  1  0  0  0  0
  9  2  1  0  0  0  0
  9 15  1  0  0  0  0
 11  4  2  0  0  0  0
 12 11  1  0  0  0  0
 12  7  2  0  0  0  0
 13  1  1  0  0  0  0
 13 24  1  0  0  0  0
 13  2  1  0  0  0  0
 15 14  1  6  0  0  0
 16 17  1  0  0  0  0
 17 22  2  0  0  0  0
 18 16  1  0  0  0  0
 19 23  2  0  0  0  0
 21 16  2  0  0  0  0
 21 19  1  0  0  0  0
 23 22  1  0  0  0  0
 23 20  1  0  0  0  0
 26 25  2  0  0  0  0
 26 24  1  0  0  0  0
 27 29  1  0  0  0  0
 29 30  2  0  0  0  0
 29 28  2  0  0  0  0
M  END
>  <MODEL>
3

>  <REMARK>
 VINA RESULT:      -6.2      2.844      5.148
  Name = 
  5 active torsions:
  status: ('A' for Active; 'I' for Inactive)
    1  A    between atoms: C_1  and  C_22
    2  A    between atoms: C_4  and  C_25
    3  A    between atoms: C_10  and  N_23
    4  A    between atoms: C_10  and  C_26
    5  A    between atoms: N_11  and  C_25
                            x       y       z     vdW  Elec       q    Type
                         _______ _______ _______ _____ _____    ______ ____

>  <TORSDO>
F 5

$$$$
=
 OpenBabel11052417093D

 30 33  0  0  1  0  0  0  0  0999 V2000
  190.1760  176.6610  145.2630 C   0  0  2  0  0  3  0  0  0  0  0  0
  190.5290  174.5580  143.9630 C   0  0  2  0  0  3  0  0  0  0  0  0
  191.5290  177.3710  145.0820 C   0  0  0  0  0  2  0  0  0  0  0  0
  194.0420  174.5840  144.7160 N   0  0  0  0  0  0  0  0  0  0  0  0
  192.4680  174.4490  142.1290 C   0  0  1  0  0  3  0  0  0  0  0  0
  192.9500  175.3670  144.4990 C   0  0  0  0  0  0  0  0  0  0  0  0
  193.6380  176.8020  146.3170 C   0  0  0  0  0  3  0  0  0  0  0  0
  192.7190  176.4890  145.3130 C   0  0  0  0  0  0  0  0  0  0  0  0
  191.9290  174.9800  143.4610 C   0  0  2  0  0  0  0  0  0  0  0  0
  191.5500  173.6230  141.4780 O   0  0  0  0  0  1  0  0  0  0  0  0
  194.9450  174.8750  145.6930 C   0  0  0  0  0  3  0  0  0  0  0  0
  194.7580  175.9920  146.5110 C   0  0  0  0  0  3  0  0  0  0  0  0
  190.2210  175.1790  145.2770 N   0  0  0  0  0  0  0  0  0  0  0  0
  192.9380  176.7750  142.1620 O   0  0  0  0  0  1  0  0  0  0  0  0
  191.8910  175.8510  142.2030 C   0  0  1  0  0  3  0  0  0  0  0  0
  187.8960  177.7370  145.0170 C   0  0  0  0  0  0  0  0  0  0  0  0
  186.8860  178.2960  144.2260 C   0  0  0  0  0  3  0  0  0  0  0  0
  187.6440  177.6440  146.7540 Cl  0  0  0  0  0  0  0  0  0  0  0  0
  189.2320  177.3750  143.0270 C   0  0  0  0  0  3  0  0  0  0  0  0
  188.3820  178.0300  140.9020 F   0  0  0  0  0  0  0  0  0  0  0  0
  189.0800  177.2660  144.4170 C   0  0  0  0  0  0  0  0  0  0  0  0
  187.0480  178.3950  142.8430 C   0  0  0  0  0  3  0  0  0  0  0  0
  188.2230  177.9340  142.2430 C   0  0  0  0  0  0  0  0  0  0  0  0
  188.9420  174.6940  145.7990 C   0  0  0  0  0  2  0  0  0  0  0  0
  190.0090  174.9170  147.8880 O   0  0  0  0  0  0  0  0  0  0  0  0
  189.0190  174.5400  147.2820 C   0  0  0  0  0  3  0  0  0  0  0  0
  190.5150  173.0280  144.0830 C   0  0  0  0  0  2  0  0  0  0  0  0
  189.7430  171.1330  142.7320 O   0  0  0  0  0  0  0  0  0  0  0  0
  189.5970  172.4460  143.1180 N   0  0  0  0  0  0  0  0  0  0  0  0
  188.5700  173.0730  142.7900 O   0  0  0  0  0  0  0  0  0  0  0  0
  1 21  1  6  0  0  0
  1 13  1  0  0  0  0
  2 27  1  1  0  0  0
  2 13  1  0  0  0  0
  3  1  1  0  0  0  0
  3  8  1  0  0  0  0
  4 11  1  0  0  0  0
  5 10  1  6  0  0  0
  5 15  1  0  0  0  0
  5  9  1  0  0  0  0
  6  4  2  0  0  0  0
  6  8  1  0  0  0  0
  7 12  1  0  0  0  0
  8  7  2  0  0  0  0
  9  2  1  0  0  0  0
  9  6  1  1  0  0  0
 11 12  2  0  0  0  0
 13 24  1  0  0  0  0
 15 14  1  1  0  0  0
 15  9  1  0  0  0  0
 16 18  1  0  0  0  0
 17 16  2  0  0  0  0
 19 21  2  0  0  0  0
 20 23  1  0  0  0  0
 21 16  1  0  0  0  0
 22 17  1  0  0  0  0
 23 22  2  0  0  0  0
 23 19  1  0  0  0  0
 24 26  1  0  0  0  0
 26 25  2  0  0  0  0
 28 29  2  0  0  0  0
 29 27  1  0  0  0  0
 30 29  2  0  0  0  0
M  END
>  <MODEL>
4

>  <REMARK>
 VINA RESULT:      -5.9      2.874      5.863
  Name = 
  5 active torsions:
  status: ('A' for Active; 'I' for Inactive)
    1  A    between atoms: C_1  and  C_22
    2  A    between atoms: C_4  and  C_25
    3  A    between atoms: C_10  and  N_23
    4  A    between atoms: C_10  and  C_26
    5  A    between atoms: N_11  and  C_25
                            x       y       z     vdW  Elec       q    Type
                         _______ _______ _______ _____ _____    ______ ____

>  <TORSDO>
F 5

$$$$
=
 OpenBabel11052417093D

 30 33  0  0  1  0  0  0  0  0999 V2000
  193.3970  172.8790  144.8150 C   0  0  2  0  0  3  0  0  0  0  0  0
  195.1590  173.9650  143.4180 C   0  0  2  0  0  3  0  0  0  0  0  0
  194.2410  172.0090  145.7630 C   0  0  0  0  0  2  0  0  0  0  0  0
  197.3130  171.1090  143.7710 N   0  0  0  0  0  0  0  0  0  0  0  0
  197.6740  174.0700  144.3140 C   0  0  1  0  0  3  0  0  0  0  0  0
  196.3470  171.8510  144.3800 C   0  0  0  0  0  0  0  0  0  0  0  0
  195.2990  169.8170  145.1560 C   0  0  0  0  0  3  0  0  0  0  0  0
  195.3070  171.2100  145.0750 C   0  0  0  0  0  0  0  0  0  0  0  0
  196.3260  173.3490  144.2260 C   0  0  2  0  0  0  0  0  0  0  0  0
  197.6670  175.2900  143.6340 O   0  0  0  0  0  1  0  0  0  0  0  0
  197.3170  169.7500  143.8390 C   0  0  0  0  0  3  0  0  0  0  0  0
  196.3090  169.0790  144.5350 C   0  0  0  0  0  3  0  0  0  0  0  0
  193.9590  173.0910  143.4600 N   0  0  0  0  0  0  0  0  0  0  0  0
  197.1590  173.3450  146.5130 O   0  0  0  0  0  1  0  0  0  0  0  0
  196.6990  174.1550  145.4730 C   0  0  1  0  0  3  0  0  0  0  0  0
  191.4610  174.3030  145.6180 C   0  0  0  0  0  0  0  0  0  0  0  0
  190.9640  175.4510  146.2430 C   0  0  0  0  0  3  0  0  0  0  0  0
  190.3140  173.1170  145.0120 Cl  0  0  0  0  0  0  0  0  0  0  0  0
  193.7210  175.0910  146.0000 C   0  0  0  0  0  3  0  0  0  0  0  0
  194.0710  177.1690  147.1100 F   0  0  0  0  0  0  0  0  0  0  0  0
  192.8510  174.1170  145.4890 C   0  0  0  0  0  0  0  0  0  0  0  0
  191.8400  176.4160  146.7450 C   0  0  0  0  0  3  0  0  0  0  0  0
  193.2200  176.2350  146.6230 C   0  0  0  0  0  0  0  0  0  0  0  0
  192.8940  173.6230  142.6080 C   0  0  0  0  0  2  0  0  0  0  0  0
  190.9980  172.5450  141.7150 O   0  0  0  0  0  0  0  0  0  0  0  0
  192.2050  172.5090  141.8920 C   0  0  0  0  0  3  0  0  0  0  0  0
  195.6360  174.1440  141.9700 C   0  0  0  0  0  2  0  0  0  0  0  0
  194.7910  176.4170  142.3310 O   0  0  0  0  0  0  0  0  0  0  0  0
  195.4960  175.5290  141.5520 N   0  0  0  0  0  0  0  0  0  0  0  0
  196.1740  175.9530  140.5950 O   0  0  0  0  0  0  0  0  0  0  0  0
  1 21  1  1  0  0  0
  1  3  1  0  0  0  0
  2 27  1  6  0  0  0
  2 13  1  0  0  0  0
  2  9  1  0  0  0  0
  4 11  2  0  0  0  0
  4  6  1  0  0  0  0
  5 10  1  6  0  0  0
  5 15  1  0  0  0  0
  6  8  2  0  0  0  0
  8  7  1  0  0  0  0
  8  3  1  0  0  0  0
  9  5  1  0  0  0  0
  9  6  1  1  0  0  0
  9 15  1  0  0  0  0
 11 12  1  0  0  0  0
 12  7  2  0  0  0  0
 13  1  1  0  0  0  0
 15 14  1  1  0  0  0
 16 17  1  0  0  0  0
 17 22  2  0  0  0  0
 18 16  1  0  0  0  0
 19 23  2  0  0  0  0
 21 16  2  0  0  0  0
 21 19  1  0  0  0  0
 23 22  1  0  0  0  0
 23 20  1  0  0  0  0
 24 13  1  0  0  0  0
 25 26  2  0  0  0  0
 26 24  1  0  0  0  0
 29 27  1  0  0  0  0
 29 28  2  0  0  0  0
 30 29  2  0  0  0  0
M  END
>  <MODEL>
5

>  <REMARK>
 VINA RESULT:      -5.7      4.175      6.980
  Name = 
  5 active torsions:
  status: ('A' for Active; 'I' for Inactive)
    1  A    between atoms: C_1  and  C_22
    2  A    between atoms: C_4  and  C_25
    3  A    between atoms: C_10  and  N_23
    4  A    between atoms: C_10  and  C_26
    5  A    between atoms: N_11  and  C_25
                            x       y       z     vdW  Elec       q    Type
                         _______ _______ _______ _____ _____    ______ ____

>  <TORSDO>
F 5

$$$$
=
 OpenBabel11052417093D

 30 33  0  0  1  0  0  0  0  0999 V2000
  193.7260  174.3200  145.3310 C   0  0  2  0  0  3  0  0  0  0  0  0
  192.6550  174.2080  143.0780 C   0  0  2  0  0  3  0  0  0  0  0  0
  192.5000  174.4210  146.2550 C   0  0  0  0  0  2  0  0  0  0  0  0
  189.8870  176.2040  144.2040 N   0  0  0  0  0  0  0  0  0  0  0  0
  190.0900  173.4890  142.8700 C   0  0  1  0  0  3  0  0  0  0  0  0
  190.8170  175.2860  144.5830 C   0  0  0  0  0  0  0  0  0  0  0  0
  191.1500  176.4990  146.6460 C   0  0  0  0  0  3  0  0  0  0  0  0
  191.4810  175.4280  145.8140 C   0  0  0  0  0  0  0  0  0  0  0  0
  191.2180  174.1750  143.6480 C   0  0  2  0  0  0  0  0  0  0  0  0
  190.5420  172.9150  141.6800 O   0  0  0  0  0  1  0  0  0  0  0  0
  189.5560  177.2550  145.0030 C   0  0  0  0  0  3  0  0  0  0  0  0
  190.1820  177.4200  146.2410 C   0  0  0  0  0  3  0  0  0  0  0  0
  193.5760  174.9330  143.9900 N   0  0  0  0  0  0  0  0  0  0  0  0
  189.8720  172.7840  145.1240 O   0  0  0  0  0  1  0  0  0  0  0  0
  190.7460  172.7710  144.0350 C   0  0  1  0  0  3  0  0  0  0  0  0
  195.7070  172.7900  145.7210 C   0  0  0  0  0  0  0  0  0  0  0  0
  196.2850  171.5160  145.7330 C   0  0  0  0  0  3  0  0  0  0  0  0
  196.7010  174.1640  146.1820 Cl  0  0  0  0  0  0  0  0  0  0  0  0
  193.6090  171.8150  144.9990 C   0  0  0  0  0  3  0  0  0  0  0  0
  193.4550  169.4610  144.6720 F   0  0  0  0  0  0  0  0  0  0  0  0
  194.3580  172.9480  145.3470 C   0  0  0  0  0  0  0  0  0  0  0  0
  195.5290  170.3960  145.3800 C   0  0  0  0  0  3  0  0  0  0  0  0
  194.1890  170.5460  145.0130 C   0  0  0  0  0  0  0  0  0  0  0  0
  194.9100  175.0560  143.3990 C   0  0  0  0  0  2  0  0  0  0  0  0
  196.6590  176.6300  143.5220 O   0  0  0  0  0  0  0  0  0  0  0  0
  195.4670  176.4150  143.6660 C   0  0  0  0  0  3  0  0  0  0  0  0
  192.6020  174.9060  141.7120 C   0  0  0  0  0  2  0  0  0  0  0  0
  193.7580  172.8580  141.0220 O   0  0  0  0  0  0  0  0  0  0  0  0
  193.2340  174.0860  140.6920 N   0  0  0  0  0  0  0  0  0  0  0  0
  193.1280  174.4080  139.4920 O   0  0  0  0  0  0  0  0  0  0  0  0
  1 21  1  6  0  0  0
  1  3  1  0  0  0  0
  2 27  1  6  0  0  0
  2  9  1  0  0  0  0
  2 13  1  0  0  0  0
  4  6  2  0  0  0  0
  4 11  1  0  0  0  0
  5 10  1  6  0  0  0
  5  9  1  0  0  0  0
  5 15  1  0  0  0  0
  6  8  1  0  0  0  0
  8  3  1  0  0  0  0
  8  7  2  0  0  0  0
  9 15  1  0  0  0  0
  9  6  1  1  0  0  0
 11 12  2  0  0  0  0
 12  7  1  0  0  0  0
 13  1  1  0  0  0  0
 15 14  1  1  0  0  0
 16 17  1  0  0  0  0
 16 18  1  0  0  0  0
 19 23  2  0  0  0  0
 19 21  1  0  0  0  0
 20 23  1  0  0  0  0
 21 16  2  0  0  0  0
 22 17  2  0  0  0  0
 23 22  1  0  0  0  0
 24 26  1  0  0  0  0
 24 13  1  0  0  0  0
 25 26  2  0  0  0  0
 29 28  2  0  0  0  0
 29 27  1  0  0  0  0
 30 29  2  0  0  0  0
M  END
>  <MODEL>
6

>  <REMARK>
 VINA RESULT:      -5.6      3.295      4.629
  Name = 
  5 active torsions:
  status: ('A' for Active; 'I' for Inactive)
    1  A    between atoms: C_1  and  C_22
    2  A    between atoms: C_4  and  C_25
    3  A    between atoms: C_10  and  N_23
    4  A    between atoms: C_10  and  C_26
    5  A    between atoms: N_11  and  C_25
                            x       y       z     vdW  Elec       q    Type
                         _______ _______ _______ _____ _____    ______ ____

>  <TORSDO>
F 5

$$$$
=
 OpenBabel11052417093D

 30 33  0  0  1  0  0  0  0  0999 V2000
  192.8820  175.3650  144.0800 C   0  0  2  0  0  3  0  0  0  0  0  0
  191.6700  173.7390  142.6220 C   0  0  2  0  0  3  0  0  0  0  0  0
  191.7870  175.7570  145.0880 C   0  0  0  0  0  2  0  0  0  0  0  0
  188.5530  175.4400  143.1750 N   0  0  0  0  0  0  0  0  0  0  0  0
  189.4460  172.5630  143.5210 C   0  0  1  0  0  3  0  0  0  0  0  0
  189.7560  175.1230  143.7290 C   0  0  0  0  0  0  0  0  0  0  0  0
  189.9090  177.3580  144.6340 C   0  0  0  0  0  3  0  0  0  0  0  0
  190.4670  176.0900  144.4600 C   0  0  0  0  0  0  0  0  0  0  0  0
  190.3800  173.7760  143.4750 C   0  0  2  0  0  0  0  0  0  0  0  0
  189.9270  171.4950  142.7610 O   0  0  0  0  0  1  0  0  0  0  0  0
  187.9980  176.6720  143.3340 C   0  0  0  0  0  3  0  0  0  0  0  0
  188.6670  177.6540  144.0690 C   0  0  0  0  0  3  0  0  0  0  0  0
  192.4110  175.0220  142.7160 N   0  0  0  0  0  0  0  0  0  0  0  0
  189.6910  173.3040  145.7610 O   0  0  0  0  0  1  0  0  0  0  0  0
  190.4080  172.8150  144.6670 C   0  0  1  0  0  3  0  0  0  0  0  0
  195.2080  174.8720  144.9540 C   0  0  0  0  0  0  0  0  0  0  0  0
  196.1490  173.9920  145.4970 C   0  0  0  0  0  3  0  0  0  0  0  0
  195.6940  176.5340  144.6500 Cl  0  0  0  0  0  0  0  0  0  0  0  0
  193.5690  173.0870  144.9380 C   0  0  0  0  0  3  0  0  0  0  0  0
  194.1740  170.9260  145.7360 F   0  0  0  0  0  0  0  0  0  0  0  0
  193.9050  174.4210  144.6660 C   0  0  0  0  0  0  0  0  0  0  0  0
  195.8030  172.6650  145.7600 C   0  0  0  0  0  3  0  0  0  0  0  0
  194.5110  172.2120  145.4810 C   0  0  0  0  0  0  0  0  0  0  0  0
  193.5730  175.0240  141.8250 C   0  0  0  0  0  2  0  0  0  0  0  0
  195.0810  176.6240  140.9790 O   0  0  0  0  0  0  0  0  0  0  0  0
  194.0740  176.4170  141.6360 C   0  0  0  0  0  3  0  0  0  0  0  0
  191.2620  173.4670  141.1670 C   0  0  0  0  0  2  0  0  0  0  0  0
  192.9060  171.6660  141.4190 O   0  0  0  0  0  0  0  0  0  0  0  0
  191.9670  172.3070  140.6450 N   0  0  0  0  0  0  0  0  0  0  0  0
  191.5830  171.7830  139.5810 O   0  0  0  0  0  0  0  0  0  0  0  0
  1 21  1  1  0  0  0
  1  3  1  0  0  0  0
  2 27  1  6  0  0  0
  2 13  1  0  0  0  0
  2  9  1  0  0  0  0
  4 11  2  0  0  0  0
  4  6  1  0  0  0  0
  5 10  1  6  0  0  0
  5 15  1  0  0  0  0
  6  8  2  0  0  0  0
  8  7  1  0  0  0  0
  8  3  1  0  0  0  0
  9  5  1  0  0  0  0
  9  6  1  1  0  0  0
  9 15  1  0  0  0  0
 11 12  1  0  0  0  0
 12  7  2  0  0  0  0
 13  1  1  0  0  0  0
 15 14  1  1  0  0  0
 16 17  1  0  0  0  0
 17 22  2  0  0  0  0
 18 16  1  0  0  0  0
 19 23  2  0  0  0  0
 21 19  1  0  0  0  0
 21 16  2  0  0  0  0
 23 20  1  0  0  0  0
 23 22  1  0  0  0  0
 24 13  1  0  0  0  0
 25 26  2  0  0  0  0
 26 24  1  0  0  0  0
 29 27  1  0  0  0  0
 29 28  2  0  0  0  0
 30 29  2  0  0  0  0
M  END
>  <MODEL>
7

>  <REMARK>
 VINA RESULT:      -5.5      2.372      3.226
  Name = 
  5 active torsions:
  status: ('A' for Active; 'I' for Inactive)
    1  A    between atoms: C_1  and  C_22
    2  A    between atoms: C_4  and  C_25
    3  A    between atoms: C_10  and  N_23
    4  A    between atoms: C_10  and  C_26
    5  A    between atoms: N_11  and  C_25
                            x       y       z     vdW  Elec       q    Type
                         _______ _______ _______ _____ _____    ______ ____

>  <TORSDO>
F 5

$$$$
=
 OpenBabel11052417093D

 30 33  0  0  1  0  0  0  0  0999 V2000
  189.6420  175.2000  143.4500 C   0  0  2  0  0  3  0  0  0  0  0  0
  191.9810  174.9600  142.6090 C   0  0  2  0  0  3  0  0  0  0  0  0
  189.0370  173.8330  143.0870 C   0  0  0  0  0  2  0  0  0  0  0  0
  190.9000  172.7410  139.9960 N   0  0  0  0  0  0  0  0  0  0  0  0
  192.9870  172.5210  142.1850 C   0  0  1  0  0  3  0  0  0  0  0  0
  190.6530  173.1590  141.2690 C   0  0  0  0  0  0  0  0  0  0  0  0
  188.2840  173.1480  140.7940 C   0  0  0  0  0  3  0  0  0  0  0  0
  189.3310  173.3860  141.6860 C   0  0  0  0  0  0  0  0  0  0  0  0
  191.7920  173.4800  142.2000 C   0  0  2  0  0  0  0  0  0  0  0  0
  194.1670  173.1390  142.6020 O   0  0  0  0  0  1  0  0  0  0  0  0
  189.8910  172.5080  139.1140 C   0  0  0  0  0  3  0  0  0  0  0  0
  188.5620  172.7060  139.4990 C   0  0  0  0  0  3  0  0  0  0  0  0
  190.6970  175.7030  142.5380 N   0  0  0  0  0  0  0  0  0  0  0  0
  191.2090  171.3590  143.2420 O   0  0  0  0  0  1  0  0  0  0  0  0
  192.0150  172.4940  143.3500 C   0  0  1  0  0  3  0  0  0  0  0  0
  188.9790  175.8490  145.8080 C   0  0  0  0  0  0  0  0  0  0  0  0
  189.2680  175.9670  147.1710 C   0  0  0  0  0  3  0  0  0  0  0  0
  187.3940  176.3560  145.2420 Cl  0  0  0  0  0  0  0  0  0  0  0  0
  191.1910  174.9320  145.4320 C   0  0  0  0  0  3  0  0  0  0  0  0
  192.6820  174.6640  147.2700 F   0  0  0  0  0  0  0  0  0  0  0  0
  189.9460  175.3310  144.9240 C   0  0  0  0  0  0  0  0  0  0  0  0
  190.5130  175.5690  147.6640 C   0  0  0  0  0  3  0  0  0  0  0  0
  191.4750  175.0510  146.7940 C   0  0  0  0  0  0  0  0  0  0  0  0
  190.8980  177.1250  142.8220 C   0  0  0  0  0  2  0  0  0  0  0  0
  189.1510  178.2350  141.6950 O   0  0  0  0  0  0  0  0  0  0  0  0
  189.5940  177.8490  142.7650 C   0  0  0  0  0  3  0  0  0  0  0  0
  193.0080  175.5820  141.6540 C   0  0  0  0  0  2  0  0  0  0  0  0
  194.0370  176.2830  143.7660 O   0  0  0  0  0  0  0  0  0  0  0  0
  194.1160  176.1610  142.3980 N   0  0  0  0  0  0  0  0  0  0  0  0
  195.2030  176.3640  141.8230 O   0  0  0  0  0  0  0  0  0  0  0  0
  1 21  1  1  0  0  0
  2 27  1  6  0  0  0
  3  1  1  0  0  0  0
  4  6  1  0  0  0  0
  5  9  1  0  0  0  0
  5 10  1  1  0  0  0
  5 15  1  0  0  0  0
  6  8  2  0  0  0  0
  7  8  1  0  0  0  0
  8  3  1  0  0  0  0
  9  6  1  6  0  0  0
  9  2  1  0  0  0  0
  9 15  1  0  0  0  0
 11 12  1  0  0  0  0
 11  4  2  0  0  0  0
 12  7  2  0  0  0  0
 13  2  1  0  0  0  0
 13 24  1  0  0  0  0
 13  1  1  0  0  0  0
 15 14  1  6  0  0  0
 16 17  1  0  0  0  0
 17 22  2  0  0  0  0
 18 16  1  0  0  0  0
 19 23  2  0  0  0  0
 21 19  1  0  0  0  0
 21 16  2  0  0  0  0
 23 20  1  0  0  0  0
 23 22  1  0  0  0  0
 25 26  2  0  0  0  0
 26 24  1  0  0  0  0
 27 29  1  0  0  0  0
 29 28  2  0  0  0  0
 30 29  2  0  0  0  0
M  END
>  <MODEL>
8

>  <REMARK>
 VINA RESULT:      -5.4      2.874      5.140
  Name = 
  5 active torsions:
  status: ('A' for Active; 'I' for Inactive)
    1  A    between atoms: C_1  and  C_22
    2  A    between atoms: C_4  and  C_25
    3  A    between atoms: C_10  and  N_23
    4  A    between atoms: C_10  and  C_26
    5  A    between atoms: N_11  and  C_25
                            x       y       z     vdW  Elec       q    Type
                         _______ _______ _______ _____ _____    ______ ____

>  <TORSDO>
F 5

$$$$
=
 OpenBabel11052417093D

 30 33  0  0  1  0  0  0  0  0999 V2000
  192.3340  173.7650  143.7210 C   0  0  2  0  0  3  0  0  0  0  0  0
  194.3780  174.8430  142.7760 C   0  0  2  0  0  3  0  0  0  0  0  0
  192.7940  173.4190  145.1480 C   0  0  0  0  0  2  0  0  0  0  0  0
  196.5040  172.8180  144.8480 N   0  0  0  0  0  0  0  0  0  0  0  0
  196.2440  175.8100  144.4260 C   0  0  1  0  0  3  0  0  0  0  0  0
  195.2900  173.4290  144.7690 C   0  0  0  0  0  0  0  0  0  0  0  0
  194.2640  171.4810  145.7630 C   0  0  0  0  0  3  0  0  0  0  0  0
  194.1390  172.7580  145.2150 C   0  0  0  0  0  0  0  0  0  0  0  0
  195.1570  174.7780  144.1100 C   0  0  2  0  0  0  0  0  0  0  0  0
  196.3790  176.7620  143.4140 O   0  0  0  0  0  1  0  0  0  0  0  0
  196.6420  171.5730  145.3780 C   0  0  0  0  0  3  0  0  0  0  0  0
  195.5220  170.8810  145.8470 C   0  0  0  0  0  3  0  0  0  0  0  0
  193.3870  173.7410  142.6780 N   0  0  0  0  0  0  0  0  0  0  0  0
  194.9360  175.5920  146.3940 O   0  0  0  0  0  1  0  0  0  0  0  0
  194.8660  175.9540  145.0460 C   0  0  1  0  0  3  0  0  0  0  0  0
  190.0210  174.7810  143.5200 C   0  0  0  0  0  0  0  0  0  0  0  0
  189.1730  175.8920  143.4820 C   0  0  0  0  0  3  0  0  0  0  0  0
  189.3110  173.1800  143.3700 Cl  0  0  0  0  0  0  0  0  0  0  0  0
  191.9210  176.2590  143.8040 C   0  0  0  0  0  3  0  0  0  0  0  0
  191.5790  178.6140  143.8860 F   0  0  0  0  0  0  0  0  0  0  0  0
  191.4100  174.9590  143.6780 C   0  0  0  0  0  0  0  0  0  0  0  0
  189.6950  177.1820  143.6050 C   0  0  0  0  0  3  0  0  0  0  0  0
  191.0710  177.3650  143.7660 C   0  0  0  0  0  0  0  0  0  0  0  0
  192.7280  173.7420  141.3710 C   0  0  0  0  0  2  0  0  0  0  0  0
  191.0610  172.2980  140.5440 O   0  0  0  0  0  0  0  0  0  0  0  0
  192.1490  172.3960  141.0870 C   0  0  0  0  0  3  0  0  0  0  0  0
  195.3980  174.7430  141.6330 C   0  0  0  0  0  2  0  0  0  0  0  0
  195.1800  175.3350  139.2640 O   0  0  0  0  0  0  0  0  0  0  0  0
  195.0910  175.7040  140.5860 N   0  0  0  0  0  0  0  0  0  0  0  0
  194.5660  176.7940  140.8870 O   0  0  0  0  0  0  0  0  0  0  0  0
  1 21  1  1  0  0  0
  1  3  1  0  0  0  0
  2 27  1  6  0  0  0
  2  9  1  0  0  0  0
  3  8  1  0  0  0  0
  4 11  1  0  0  0  0
  5 10  1  6  0  0  0
  5 15  1  0  0  0  0
  6  4  2  0  0  0  0
  6  8  1  0  0  0  0
  7 12  1  0  0  0  0
  8  7  2  0  0  0  0
  9  5  1  0  0  0  0
  9  6  1  1  0  0  0
  9 15  1  0  0  0  0
 11 12  2  0  0  0  0
 13  2  1  0  0  0  0
 13  1  1  0  0  0  0
 15 14  1  1  0  0  0
 16 21  1  0  0  0  0
 17 16  2  0  0  0  0
 17 22  1  0  0  0  0
 18 16  1  0  0  0  0
 21 19  2  0  0  0  0
 22 23  2  0  0  0  0
 23 19  1  0  0  0  0
 23 20  1  0  0  0  0
 24 13  1  0  0  0  0
 25 26  2  0  0  0  0
 26 24  1  0  0  0  0
 28 29  2  0  0  0  0
 29 30  2  0  0  0  0
 29 27  1  0  0  0  0
M  END
>  <MODEL>
9

>  <REMARK>
 VINA RESULT:      -5.4      3.512      6.261
  Name = 
  5 active torsions:
  status: ('A' for Active; 'I' for Inactive)
    1  A    between atoms: C_1  and  C_22
    2  A    between atoms: C_4  and  C_25
    3  A    between atoms: C_10  and  N_23
    4  A    between atoms: C_10  and  C_26
    5  A    between atoms: N_11  and  C_25
                            x       y       z     vdW  Elec       q    Type
                         _______ _______ _______ _____ _____    ______ ____

>  <TORSDO>
F 5

$$$$
