=
 OpenBabel11052419503D

 55 58  0  0  1  0  0  0  0  0999 V2000
  190.8710  173.9610  142.0640 C   0  0  0  0  0  1  0  0  0  0  0  0
  194.6120  174.7240  146.1060 O   0  0  0  0  0  1  0  0  0  0  0  0
  194.1750  173.1220  144.3710 C   0  0  1  0  0  3  0  0  0  0  0  0
  193.2970  172.8020  143.1510 C   0  0  2  0  0  3  0  0  0  0  0  0
  191.3270  174.6280  144.4690 C   0  0  2  0  0  3  0  0  0  0  0  0
  193.7380  174.4140  145.0640 C   0  0  1  0  0  3  0  0  0  0  0  0
  194.2550  171.9490  145.3460 C   0  0  0  0  0  1  0  0  0  0  0  0
  192.0180  172.3890  143.5790 O   0  0  0  0  0  0  0  0  0  0  0  0
  191.1040  173.4670  143.4850 C   0  0  2  0  0  3  0  0  0  0  0  0
  192.3120  174.3310  145.5940 C   0  0  0  0  0  2  0  0  0  0  0  0
  195.3570  171.8620  142.3030 O   0  0  0  0  0  1  0  0  0  0  0  0
  193.9700  171.6980  142.3160 C   0  0  2  0  0  3  0  0  0  0  0  0
  193.4260  171.5130  140.8840 C   0  0  2  0  0  3  0  0  0  0  0  0
  193.4540  169.0560  141.5220 C   0  0  0  0  0  1  0  0  0  0  0  0
  192.7980  170.1240  140.6590 C   0  0  1  0  0  3  0  0  0  0  0  0
  190.4710  170.5720  139.8870 O   0  0  0  0  0  0  0  0  0  0  0  0
  191.3210  170.1220  140.8890 C   0  0  0  0  0  0  0  0  0  0  0  0
  190.8390  169.7410  141.9900 O   0  0  0  0  0  1  0  0  0  0  0  0
  194.4670  171.7530  139.9570 O   0  0  0  0  0  0  0  0  0  0  0  0
  195.0910  173.9110  137.1260 O   0  0  0  0  0  1  0  0  0  0  0  0
  194.1630  172.8560  139.1080 C   0  0  2  0  0  0  0  0  0  0  0  0
  194.6940  171.5490  137.1200 C   0  0  2  0  0  3  0  0  0  0  0  0
  192.7480  172.6530  138.5080 C   0  0  2  0  0  3  0  0  0  0  0  0
  192.8750  171.5150  137.0800 S   0  0  0  0  0  0  0  0  0  0  0  0
  195.1360  172.7630  137.9260 C   0  0  1  0  0  3  0  0  0  0  0  0
  194.5820  171.7280  134.7450 O   0  0  0  0  0  0  0  0  0  0  0  0
  195.2980  171.4950  135.7510 C   0  0  0  0  0  0  0  0  0  0  0  0
  196.6290  171.1290  135.5780 O   0  0  0  0  0  1  0  0  0  0  0  0
  194.3700  174.1830  139.8970 C   0  0  0  0  0  2  0  0  0  0  0  0
  195.6960  174.4170  140.2690 O   0  0  0  0  0  0  0  0  0  0  0  0
  195.6040  175.2430  141.3890 C   0  0  0  0  0  2  0  0  0  0  0  0
  194.2300  175.8750  141.4370 C   0  0  0  0  0  1  0  0  0  0  0  0
  192.0400  173.9310  138.0670 C   0  0  0  0  0  2  0  0  0  0  0  0
  190.6700  173.6350  137.5470 C   0  0  0  0  0  3  0  0  0  0  0  0
  189.6030  173.7030  138.3410 C   0  0  0  0  0  2  0  0  0  0  0  0
  190.0020  175.1500  145.0220 C   0  0  0  0  0  2  0  0  0  0  0  0
  189.7440  176.6260  144.6700 C   0  0  1  0  0  3  0  0  0  0  0  0
  187.9480  175.8410  143.1190 C   0  0  0  0  0  3  0  0  0  0  0  0
  187.2850  177.1180  141.1570 C   0  0  0  0  0  0  0  0  0  0  0  0
  189.0270  177.9510  142.6330 C   0  0  0  0  0  3  0  0  0  0  0  0
  188.2310  178.0970  141.4930 C   0  0  0  0  0  3  0  0  0  0  0  0
  187.1520  175.9860  141.9790 C   0  0  0  0  0  3  0  0  0  0  0  0
  188.8830  176.8240  143.4540 C   0  0  0  0  0  0  0  0  0  0  0  0
  186.4720  177.2770  139.9840 N   0  0  0  0  0  0  0  0  0  0  0  0
  185.3570  178.0450  140.0300 O   0  0  0  0  0  1  0  0  0  0  0  0
  186.8160  176.6300  138.7270 C   0  0  0  0  0  1  0  0  0  0  0  0
  189.3590  177.4320  145.7660 O   0  0  0  0  0  0  0  0  0  0  0  0
  188.3740  176.7580  146.5100 C   0  0  0  0  0  2  0  0  0  0  0  0
  186.2720  177.5370  147.6150 C   0  0  0  0  0  3  0  0  0  0  0  0
  185.5740  179.0260  145.3820 C   0  0  0  0  0  0  0  0  0  0  0  0
  186.7640  178.2950  145.3730 C   0  0  0  0  0  3  0  0  0  0  0  0
  185.0900  178.2820  147.5850 C   0  0  0  0  0  3  0  0  0  0  0  0
  187.1090  177.5400  146.4970 C   0  0  0  0  0  0  0  0  0  0  0  0
  185.1890  179.8310  144.1940 C   0  0  0  0  0  1  0  0  0  0  0  0
  184.7670  179.0020  146.4780 N   0  0  0  0  0  0  0  0  0  0  0  0
  3  6  1  0  0  0  0
  3  7  1  1  0  0  0
  4 12  1  1  0  0  0
  4  8  1  0  0  0  0
  4  3  1  0  0  0  0
  5 36  1  1  0  0  0
  5 10  1  0  0  0  0
  6 10  1  0  0  0  0
  6  2  1  1  0  0  0
  9  1  1  6  0  0  0
  9  8  1  0  0  0  0
  9  5  1  0  0  0  0
 12 11  1  6  0  0  0
 13 19  1  6  0  0  0
 13 12  1  0  0  0  0
 15 13  1  0  0  0  0
 15 17  1  0  0  0  0
 15 14  1  1  0  0  0
 16 17  2  0  0  0  0
 17 18  1  0  0  0  0
 21 29  1  1  0  0  0
 21 19  1  0  0  0  0
 22 27  1  6  0  0  0
 22 25  1  0  0  0  0
 23 33  1  6  0  0  0
 23 21  1  0  0  0  0
 24 22  1  0  0  0  0
 24 23  1  0  0  0  0
 25 20  1  6  0  0  0
 25 21  1  0  0  0  0
 26 27  2  0  0  0  0
 28 27  1  0  0  0  0
 29 30  1  0  0  0  0
 30 31  1  0  0  0  0
 31 32  1  0  0  0  0
 34 33  1  0  0  0  0
 34 35  2  0  0  0  0
 37 36  1  1  0  0  0
 37 47  1  0  0  0  0
 38 43  1  0  0  0  0
 39 41  2  0  0  0  0
 39 42  1  0  0  0  0
 40 43  2  0  0  0  0
 41 40  1  0  0  0  0
 42 38  2  0  0  0  0
 43 37  1  0  0  0  0
 44 45  1  0  0  0  0
 44 39  1  0  0  0  0
 46 44  1  0  0  0  0
 47 48  1  0  0  0  0
 50 55  1  0  0  0  0
 51 50  2  0  0  0  0
 51 53  1  0  0  0  0
 52 49  1  0  0  0  0
 53 48  1  0  0  0  0
 53 49  2  0  0  0  0
 54 50  1  0  0  0  0
 55 52  2  0  0  0  0
M  END
>  <MODEL>
1

>  <REMARK>
 VINA RESULT:      -5.8      0.000      0.000
  Name = 
  19 active torsions:
  status: ('A' for Active; 'I' for Inactive)
    1  A    between atoms: C_1  and  C_30
    2  A    between atoms: C_2  and  O_28
    3  A    between atoms: C_2  and  C_44
    4  A    between atoms: C_6  and  O_8
    5  A    between atoms: C_6  and  C_46
    6  A    between atoms: C_7  and  O_8
    7  A    between atoms: C_7  and  C_23
    8  A    between atoms: C_7  and  C_43
    9  A    between atoms: N_10  and  C_32
   10  A    between atoms: C_11  and  C_29
   11  A    between atoms: C_12  and  O_14
   12  A    between atoms: O_14  and  C_46
   13  A    between atoms: C_17  and  C_23
   14  A    between atoms: C_19  and  C_49
   15  A    between atoms: C_20  and  C_30
   16  A    between atoms: O_28  and  C_33
   17  A    between atoms: C_33  and  C_49
   18  A    between atoms: C_33  and  C_52
   19  A    between atoms: C_35  and  C_43
                            x       y       z     vdW  Elec       q    Type
                         _______ _______ _______ _____ _____    ______ ____

>  <TORSDO>
F 19

$$$$
=
 OpenBabel11052419503D

 55 58  0  0  1  0  0  0  0  0999 V2000
  191.8480  174.2730  141.7740 C   0  0  0  0  0  1  0  0  0  0  0  0
  190.0460  177.6610  145.7970 O   0  0  0  0  0  1  0  0  0  0  0  0
  191.8830  176.1570  145.4340 C   0  0  1  0  0  3  0  0  0  0  0  0
  192.5780  175.2510  144.4060 C   0  0  2  0  0  3  0  0  0  0  0  0
  189.8840  175.1690  143.1070 C   0  0  2  0  0  3  0  0  0  0  0  0
  190.5990  176.7730  144.8750 C   0  0  1  0  0  3  0  0  0  0  0  0
  191.6410  175.4390  146.7620 C   0  0  0  0  0  1  0  0  0  0  0  0
  191.8330  174.0670  144.2320 O   0  0  0  0  0  0  0  0  0  0  0  0
  191.0420  174.1580  143.0610 C   0  0  2  0  0  3  0  0  0  0  0  0
  189.5690  175.7180  144.4940 C   0  0  0  0  0  2  0  0  0  0  0  0
  194.4010  175.8230  145.8880 O   0  0  0  0  0  1  0  0  0  0  0  0
  194.0020  174.9280  144.8920 C   0  0  2  0  0  3  0  0  0  0  0  0
  195.0780  174.8140  143.7930 C   0  0  2  0  0  3  0  0  0  0  0  0
  196.9580  176.4770  143.4150 C   0  0  0  0  0  1  0  0  0  0  0  0
  195.4800  176.1810  143.2070 C   0  0  1  0  0  3  0  0  0  0  0  0
  196.1220  176.0640  140.8010 O   0  0  0  0  0  0  0  0  0  0  0  0
  195.1400  176.2990  141.7560 C   0  0  0  0  0  0  0  0  0  0  0  0
  193.9820  176.6340  141.3890 O   0  0  0  0  0  1  0  0  0  0  0  0
  194.6150  173.9450  142.7770 O   0  0  0  0  0  0  0  0  0  0  0  0
  195.4960  170.6510  141.5800 O   0  0  0  0  0  1  0  0  0  0  0  0
  195.1290  172.6270  142.9450 C   0  0  2  0  0  0  0  0  0  0  0  0
  196.3350  172.7660  140.8310 C   0  0  2  0  0  3  0  0  0  0  0  0
  196.5910  172.7210  143.4510 C   0  0  2  0  0  3  0  0  0  0  0  0
  197.6890  173.0280  142.0190 S   0  0  0  0  0  0  0  0  0  0  0  0
  195.2110  172.0220  141.5380 C   0  0  1  0  0  3  0  0  0  0  0  0
  196.1570  172.2570  138.5080 O   0  0  0  0  0  0  0  0  0  0  0  0
  196.7970  172.0900  139.5770 C   0  0  0  0  0  0  0  0  0  0  0  0
  197.8890  171.2300  139.5970 O   0  0  0  0  0  1  0  0  0  0  0  0
  194.1600  171.8090  143.8490 C   0  0  0  0  0  2  0  0  0  0  0  0
  193.0590  171.2860  143.1660 O   0  0  0  0  0  0  0  0  0  0  0  0
  192.4700  170.4070  144.0750 C   0  0  0  0  0  2  0  0  0  0  0  0
  193.4730  169.3440  144.4680 C   0  0  0  0  0  1  0  0  0  0  0  0
  197.0940  171.4960  144.2120 C   0  0  0  0  0  2  0  0  0  0  0  0
  197.1270  171.7540  145.6830 C   0  0  0  0  0  3  0  0  0  0  0  0
  196.9920  172.9860  146.1700 C   0  0  0  0  0  2  0  0  0  0  0  0
  188.6290  174.6080  142.4400 C   0  0  0  0  0  2  0  0  0  0  0  0
  188.4340  175.1170  141.0000 C   0  0  1  0  0  3  0  0  0  0  0  0
  188.4950  174.4100  138.6030 C   0  0  0  0  0  3  0  0  0  0  0  0
  189.2210  172.1890  137.9290 C   0  0  0  0  0  0  0  0  0  0  0  0
  189.2060  172.8150  140.2770 C   0  0  0  0  0  3  0  0  0  0  0  0
  189.4500  171.8710  139.2750 C   0  0  0  0  0  3  0  0  0  0  0  0
  188.7400  173.4670  137.6010 C   0  0  0  0  0  3  0  0  0  0  0  0
  188.7330  174.0910  139.9430 C   0  0  0  0  0  0  0  0  0  0  0  0
  189.4760  171.2130  136.9060 N   0  0  0  0  0  0  0  0  0  0  0  0
  189.1800  171.4900  135.6140 O   0  0  0  0  0  1  0  0  0  0  0  0
  190.0550  169.9150  137.2210 C   0  0  0  0  0  1  0  0  0  0  0  0
  187.2210  175.8110  140.7820 O   0  0  0  0  0  0  0  0  0  0  0  0
  187.4110  177.1730  141.0750 C   0  0  0  0  0  2  0  0  0  0  0  0
  185.0870  177.8480  141.7020 C   0  0  0  0  0  3  0  0  0  0  0  0
  185.8350  178.1980  144.3490 C   0  0  0  0  0  0  0  0  0  0  0  0
  186.7890  177.7850  143.4170 C   0  0  0  0  0  3  0  0  0  0  0  0
  184.1620  178.2600  142.6640 C   0  0  0  0  0  3  0  0  0  0  0  0
  186.4110  177.6170  142.0820 C   0  0  0  0  0  0  0  0  0  0  0  0
  186.2200  178.3870  145.7710 C   0  0  0  0  0  1  0  0  0  0  0  0
  184.5520  178.4280  143.9550 N   0  0  0  0  0  0  0  0  0  0  0  0
  3  7  1  1  0  0  0
  4 12  1  1  0  0  0
  4  3  1  0  0  0  0
  5 36  1  1  0  0  0
  5 10  1  0  0  0  0
  6  3  1  0  0  0  0
  6  2  1  1  0  0  0
  8  4  1  0  0  0  0
  9  1  1  6  0  0  0
  9  5  1  0  0  0  0
  9  8  1  0  0  0  0
 10  6  1  0  0  0  0
 12 11  1  1  0  0  0
 13 19  1  6  0  0  0
 13 12  1  0  0  0  0
 15 14  1  6  0  0  0
 15 13  1  0  0  0  0
 16 17  2  0  0  0  0
 17 15  1  0  0  0  0
 18 17  1  0  0  0  0
 19 21  1  0  0  0  0
 21 23  1  0  0  0  0
 21 29  1  1  0  0  0
 22 27  1  6  0  0  0
 22 25  1  0  0  0  0
 22 24  1  0  0  0  0
 23 33  1  6  0  0  0
 24 23  1  0  0  0  0
 25 20  1  1  0  0  0
 25 21  1  0  0  0  0
 26 27  2  0  0  0  0
 27 28  1  0  0  0  0
 30 29  1  0  0  0  0
 30 31  1  0  0  0  0
 31 32  1  0  0  0  0
 33 34  1  0  0  0  0
 34 35  2  0  0  0  0
 37 36  1  1  0  0  0
 38 43  1  0  0  0  0
 39 41  2  0  0  0  0
 41 40  1  0  0  0  0
 42 39  1  0  0  0  0
 42 38  2  0  0  0  0
 43 40  2  0  0  0  0
 43 37  1  0  0  0  0
 44 46  1  0  0  0  0
 44 39  1  0  0  0  0
 45 44  1  0  0  0  0
 47 37  1  0  0  0  0
 47 48  1  0  0  0  0
 48 53  1  0  0  0  0
 49 53  2  0  0  0  0
 49 52  1  0  0  0  0
 50 54  1  0  0  0  0
 51 50  2  0  0  0  0
 52 55  2  0  0  0  0
 53 51  1  0  0  0  0
 55 50  1  0  0  0  0
M  END
>  <MODEL>
2

>  <REMARK>
 VINA RESULT:      -5.5      2.504      5.571
  Name = 
  19 active torsions:
  status: ('A' for Active; 'I' for Inactive)
    1  A    between atoms: C_1  and  C_30
    2  A    between atoms: C_2  and  O_28
    3  A    between atoms: C_2  and  C_44
    4  A    between atoms: C_6  and  O_8
    5  A    between atoms: C_6  and  C_46
    6  A    between atoms: C_7  and  O_8
    7  A    between atoms: C_7  and  C_23
    8  A    between atoms: C_7  and  C_43
    9  A    between atoms: N_10  and  C_32
   10  A    between atoms: C_11  and  C_29
   11  A    between atoms: C_12  and  O_14
   12  A    between atoms: O_14  and  C_46
   13  A    between atoms: C_17  and  C_23
   14  A    between atoms: C_19  and  C_49
   15  A    between atoms: C_20  and  C_30
   16  A    between atoms: O_28  and  C_33
   17  A    between atoms: C_33  and  C_49
   18  A    between atoms: C_33  and  C_52
   19  A    between atoms: C_35  and  C_43
                            x       y       z     vdW  Elec       q    Type
                         _______ _______ _______ _____ _____    ______ ____

>  <TORSDO>
F 19

$$$$
=
 OpenBabel11052419503D

 55 58  0  0  1  0  0  0  0  0999 V2000
  191.0600  173.8010  142.0830 C   0  0  0  0  0  1  0  0  0  0  0  0
  194.5200  175.1260  146.2280 O   0  0  0  0  0  1  0  0  0  0  0  0
  194.3620  173.4500  144.5150 C   0  0  1  0  0  3  0  0  0  0  0  0
  193.5780  172.9940  143.2750 C   0  0  2  0  0  3  0  0  0  0  0  0
  191.3380  174.5630  144.4870 C   0  0  2  0  0  3  0  0  0  0  0  0
  193.7330  174.6830  145.1660 C   0  0  1  0  0  3  0  0  0  0  0  0
  194.5620  172.3150  145.5180 C   0  0  0  0  0  1  0  0  0  0  0  0
  192.3510  172.4220  143.6690 O   0  0  0  0  0  0  0  0  0  0  0  0
  191.3060  173.3660  143.5210 C   0  0  2  0  0  3  0  0  0  0  0  0
  192.3130  174.4210  145.6500 C   0  0  0  0  0  2  0  0  0  0  0  0
  195.7850  172.2180  142.6630 O   0  0  0  0  0  1  0  0  0  0  0  0
  194.4210  171.9760  142.4860 C   0  0  2  0  0  3  0  0  0  0  0  0
  194.0780  171.8370  140.9880 C   0  0  2  0  0  3  0  0  0  0  0  0
  193.8680  169.3910  141.6340 C   0  0  0  0  0  1  0  0  0  0  0  0
  193.4580  170.4690  140.6420 C   0  0  1  0  0  3  0  0  0  0  0  0
  191.3720  170.9130  139.3520 O   0  0  0  0  0  0  0  0  0  0  0  0
  191.9670  170.5280  140.5470 C   0  0  0  0  0  0  0  0  0  0  0  0
  191.2450  170.2570  141.5440 O   0  0  0  0  0  1  0  0  0  0  0  0
  195.2440  172.0710  140.2220 O   0  0  0  0  0  0  0  0  0  0  0  0
  193.8900  175.2100  139.0490 O   0  0  0  0  0  1  0  0  0  0  0  0
  195.0210  173.0670  139.2270 C   0  0  2  0  0  0  0  0  0  0  0  0
  195.4450  174.8500  140.8350 C   0  0  2  0  0  3  0  0  0  0  0  0
  196.3910  173.5900  138.7260 C   0  0  2  0  0  3  0  0  0  0  0  0
  197.0140  174.8340  139.9140 S   0  0  0  0  0  0  0  0  0  0  0  0
  194.3610  174.2490  139.9510 C   0  0  1  0  0  3  0  0  0  0  0  0
  195.9180  177.1550  141.2210 O   0  0  0  0  0  0  0  0  0  0  0  0
  195.0980  176.2120  141.3530 C   0  0  0  0  0  0  0  0  0  0  0  0
  193.9040  176.4290  142.0310 O   0  0  0  0  0  1  0  0  0  0  0  0
  194.0810  172.4920  138.1270 C   0  0  0  0  0  2  0  0  0  0  0  0
  194.5980  171.3700  137.4740 O   0  0  0  0  0  0  0  0  0  0  0  0
  193.6780  171.1020  136.4600 C   0  0  0  0  0  2  0  0  0  0  0  0
  194.1310  171.7700  135.1800 C   0  0  0  0  0  1  0  0  0  0  0  0
  196.3810  174.1980  137.3260 C   0  0  0  0  0  2  0  0  0  0  0  0
  197.6610  174.9160  137.0420 C   0  0  0  0  0  3  0  0  0  0  0  0
  197.9130  175.4230  135.8370 C   0  0  0  0  0  2  0  0  0  0  0  0
  189.9360  174.9140  144.9840 C   0  0  0  0  0  2  0  0  0  0  0  0
  189.5480  176.3780  144.7070 C   0  0  1  0  0  3  0  0  0  0  0  0
  188.8740  177.7710  142.7450 C   0  0  0  0  0  3  0  0  0  0  0  0
  187.2350  177.0070  141.1190 C   0  0  0  0  0  0  0  0  0  0  0  0
  187.8570  175.5910  142.9930 C   0  0  0  0  0  3  0  0  0  0  0  0
  187.1070  175.8080  141.8340 C   0  0  0  0  0  3  0  0  0  0  0  0
  188.1240  177.9890  141.5850 C   0  0  0  0  0  3  0  0  0  0  0  0
  188.7490  176.5710  143.4490 C   0  0  0  0  0  0  0  0  0  0  0  0
  186.4600  177.2210  139.9280 N   0  0  0  0  0  0  0  0  0  0  0  0
  185.2950  177.9100  139.9910 O   0  0  0  0  0  1  0  0  0  0  0  0
  186.8960  176.7150  138.6360 C   0  0  0  0  0  1  0  0  0  0  0  0
  189.0140  177.0640  145.8220 O   0  0  0  0  0  0  0  0  0  0  0  0
  187.9400  176.3230  146.3480 C   0  0  0  0  0  2  0  0  0  0  0  0
  186.1820  177.6260  147.5550 C   0  0  0  0  0  3  0  0  0  0  0  0
  184.9240  178.2630  145.1670 C   0  0  0  0  0  0  0  0  0  0  0  0
  186.0800  177.4780  145.1450 C   0  0  0  0  0  3  0  0  0  0  0  0
  185.0260  178.4090  147.5360 C   0  0  0  0  0  3  0  0  0  0  0  0
  186.7060  177.1530  146.3500 C   0  0  0  0  0  0  0  0  0  0  0  0
  184.2420  178.6140  143.8960 C   0  0  0  0  0  1  0  0  0  0  0  0
  184.4240  178.7060  146.3530 N   0  0  0  0  0  0  0  0  0  0  0  0
  3  6  1  0  0  0  0
  3  7  1  1  0  0  0
  4 12  1  1  0  0  0
  4  8  1  0  0  0  0
  4  3  1  0  0  0  0
  5 36  1  1  0  0  0
  5 10  1  0  0  0  0
  6 10  1  0  0  0  0
  6  2  1  1  0  0  0
  9  1  1  6  0  0  0
  9  8  1  0  0  0  0
  9  5  1  0  0  0  0
 12 11  1  6  0  0  0
 13 19  1  6  0  0  0
 13 12  1  0  0  0  0
 15 13  1  0  0  0  0
 15 14  1  1  0  0  0
 16 17  2  0  0  0  0
 17 15  1  0  0  0  0
 17 18  1  0  0  0  0
 21 29  1  6  0  0  0
 21 25  1  0  0  0  0
 21 19  1  0  0  0  0
 22 27  1  6  0  0  0
 23 33  1  6  0  0  0
 23 21  1  0  0  0  0
 23 24  1  0  0  0  0
 24 22  1  0  0  0  0
 25 20  1  6  0  0  0
 25 22  1  0  0  0  0
 26 27  2  0  0  0  0
 27 28  1  0  0  0  0
 30 29  1  0  0  0  0
 31 30  1  0  0  0  0
 32 31  1  0  0  0  0
 34 33  1  0  0  0  0
 35 34  2  0  0  0  0
 37 36  1  1  0  0  0
 37 47  1  0  0  0  0
 38 43  1  0  0  0  0
 39 42  1  0  0  0  0
 39 41  2  0  0  0  0
 40 43  2  0  0  0  0
 41 40  1  0  0  0  0
 42 38  2  0  0  0  0
 43 37  1  0  0  0  0
 44 45  1  0  0  0  0
 44 39  1  0  0  0  0
 46 44  1  0  0  0  0
 47 48  1  0  0  0  0
 48 53  1  0  0  0  0
 50 55  1  0  0  0  0
 51 50  2  0  0  0  0
 51 53  1  0  0  0  0
 52 49  1  0  0  0  0
 53 49  2  0  0  0  0
 54 50  1  0  0  0  0
 55 52  2  0  0  0  0
M  END
>  <MODEL>
3

>  <REMARK>
 VINA RESULT:      -5.5      1.503      3.315
  Name = 
  19 active torsions:
  status: ('A' for Active; 'I' for Inactive)
    1  A    between atoms: C_1  and  C_30
    2  A    between atoms: C_2  and  O_28
    3  A    between atoms: C_2  and  C_44
    4  A    between atoms: C_6  and  O_8
    5  A    between atoms: C_6  and  C_46
    6  A    between atoms: C_7  and  O_8
    7  A    between atoms: C_7  and  C_23
    8  A    between atoms: C_7  and  C_43
    9  A    between atoms: N_10  and  C_32
   10  A    between atoms: C_11  and  C_29
   11  A    between atoms: C_12  and  O_14
   12  A    between atoms: O_14  and  C_46
   13  A    between atoms: C_17  and  C_23
   14  A    between atoms: C_19  and  C_49
   15  A    between atoms: C_20  and  C_30
   16  A    between atoms: O_28  and  C_33
   17  A    between atoms: C_33  and  C_49
   18  A    between atoms: C_33  and  C_52
   19  A    between atoms: C_35  and  C_43
                            x       y       z     vdW  Elec       q    Type
                         _______ _______ _______ _____ _____    ______ ____

>  <TORSDO>
F 19

$$$$
=
 OpenBabel11052419503D

 55 58  0  0  1  0  0  0  0  0999 V2000
  192.7770  172.2040  144.6700 C   0  0  0  0  0  1  0  0  0  0  0  0
  196.1170  176.6190  144.1480 O   0  0  0  0  0  1  0  0  0  0  0  0
  196.3080  174.2260  144.0480 C   0  0  1  0  0  3  0  0  0  0  0  0
  195.5260  172.9040  144.0650 C   0  0  2  0  0  3  0  0  0  0  0  0
  193.4540  174.4960  145.5210 C   0  0  2  0  0  3  0  0  0  0  0  0
  195.3920  175.4320  144.2650 C   0  0  1  0  0  3  0  0  0  0  0  0
  197.4780  174.2150  145.0310 C   0  0  0  0  0  1  0  0  0  0  0  0
  195.1030  172.6160  145.3790 O   0  0  0  0  0  0  0  0  0  0  0  0
  193.7470  172.9870  145.5450 C   0  0  2  0  0  3  0  0  0  0  0  0
  194.6860  175.3880  145.6140 C   0  0  0  0  0  2  0  0  0  0  0  0
  197.1980  172.2270  142.4550 O   0  0  0  0  0  1  0  0  0  0  0  0
  196.4230  171.7750  143.5260 C   0  0  2  0  0  3  0  0  0  0  0  0
  195.7050  170.4590  143.1660 C   0  0  2  0  0  3  0  0  0  0  0  0
  197.6720  169.2810  144.2550 C   0  0  0  0  0  1  0  0  0  0  0  0
  196.1670  169.2700  144.0310 C   0  0  1  0  0  3  0  0  0  0  0  0
  196.1370  169.5870  146.5030 O   0  0  0  0  0  1  0  0  0  0  0  0
  195.4610  169.2160  145.3480 C   0  0  0  0  0  0  0  0  0  0  0  0
  194.2680  168.8160  145.4260 O   0  0  0  0  0  0  0  0  0  0  0  0
  195.8940  170.1860  141.7910 O   0  0  0  0  0  0  0  0  0  0  0  0
  192.5760  171.1980  140.7780 O   0  0  0  0  0  1  0  0  0  0  0  0
  194.6520  169.9830  141.1250 C   0  0  2  0  0  0  0  0  0  0  0  0
  194.6590  172.2740  140.2890 C   0  0  2  0  0  3  0  0  0  0  0  0
  194.9250  169.7410  139.6180 C   0  0  2  0  0  3  0  0  0  0  0  0
  195.1660  171.3600  138.7990 S   0  0  0  0  0  0  0  0  0  0  0  0
  193.9040  171.3210  141.2050 C   0  0  1  0  0  3  0  0  0  0  0  0
  193.4290  173.6800  138.8070 O   0  0  0  0  0  0  0  0  0  0  0  0
  193.8910  173.5170  139.9650 C   0  0  0  0  0  0  0  0  0  0  0  0
  193.7350  174.5210  140.9140 O   0  0  0  0  0  1  0  0  0  0  0  0
  193.8580  168.8560  141.8500 C   0  0  0  0  0  2  0  0  0  0  0  0
  192.7290  169.3120  142.5340 O   0  0  0  0  0  0  0  0  0  0  0  0
  191.8870  168.2030  142.5960 C   0  0  0  0  0  2  0  0  0  0  0  0
  191.0100  168.1660  141.3640 C   0  0  0  0  0  1  0  0  0  0  0  0
  193.8390  168.9640  138.8780 C   0  0  0  0  0  2  0  0  0  0  0  0
  193.3010  169.7540  137.7300 C   0  0  0  0  0  3  0  0  0  0  0  0
  191.9900  169.8670  137.5260 C   0  0  0  0  0  2  0  0  0  0  0  0
  192.4180  174.8780  146.5770 C   0  0  0  0  0  2  0  0  0  0  0  0
  191.2310  175.6690  145.9970 C   0  0  1  0  0  3  0  0  0  0  0  0
  189.8410  174.0280  144.7220 C   0  0  0  0  0  3  0  0  0  0  0  0
  189.7470  174.0290  142.2910 C   0  0  0  0  0  0  0  0  0  0  0  0
  191.1050  175.6650  143.4670 C   0  0  0  0  0  3  0  0  0  0  0  0
  190.6250  175.1220  142.2720 C   0  0  0  0  0  3  0  0  0  0  0  0
  189.3600  173.4840  143.5270 C   0  0  0  0  0  3  0  0  0  0  0  0
  190.7090  175.1230  144.6970 C   0  0  0  0  0  0  0  0  0  0  0  0
  189.2590  173.4770  141.0580 N   0  0  0  0  0  0  0  0  0  0  0  0
  188.0530  172.8600  141.0210 O   0  0  0  0  0  1  0  0  0  0  0  0
  190.0300  173.5650  139.8270 C   0  0  0  0  0  1  0  0  0  0  0  0
  190.2110  175.9650  146.9310 O   0  0  0  0  0  0  0  0  0  0  0  0
  189.7590  177.2800  146.7180 C   0  0  0  0  0  2  0  0  0  0  0  0
  187.3230  176.7270  146.7820 C   0  0  0  0  0  3  0  0  0  0  0  0
  186.9570  177.7520  144.2310 C   0  0  0  0  0  0  0  0  0  0  0  0
  188.2310  177.7800  144.8050 C   0  0  0  0  0  3  0  0  0  0  0  0
  186.0650  176.7180  146.1740 C   0  0  0  0  0  3  0  0  0  0  0  0
  188.4130  177.2550  146.0870 C   0  0  0  0  0  0  0  0  0  0  0  0
  186.7470  178.3000  142.8670 C   0  0  0  0  0  1  0  0  0  0  0  0
  185.9100  177.2230  144.9210 N   0  0  0  0  0  0  0  0  0  0  0  0
  3  4  1  0  0  0  0
  3  6  1  0  0  0  0
  3  7  1  1  0  0  0
  4 12  1  1  0  0  0
  4  8  1  0  0  0  0
  5  9  1  0  0  0  0
  5 10  1  0  0  0  0
  5 36  1  1  0  0  0
  6  2  1  1  0  0  0
  6 10  1  0  0  0  0
  8  9  1  0  0  0  0
  9  1  1  6  0  0  0
 12 11  1  6  0  0  0
 13 19  1  6  0  0  0
 13 12  1  0  0  0  0
 13 15  1  0  0  0  0
 15 14  1  1  0  0  0
 15 17  1  0  0  0  0
 17 18  2  0  0  0  0
 17 16  1  0  0  0  0
 21 25  1  0  0  0  0
 21 19  1  0  0  0  0
 21 29  1  1  0  0  0
 22 27  1  6  0  0  0
 22 25  1  0  0  0  0
 23 33  1  6  0  0  0
 23 21  1  0  0  0  0
 24 23  1  0  0  0  0
 24 22  1  0  0  0  0
 25 20  1  6  0  0  0
 26 27  2  0  0  0  0
 27 28  1  0  0  0  0
 29 30  1  0  0  0  0
 30 31  1  0  0  0  0
 32 31  1  0  0  0  0
 34 33  1  0  0  0  0
 35 34  2  0  0  0  0
 37 36  1  1  0  0  0
 37 47  1  0  0  0  0
 39 42  1  0  0  0  0
 40 43  2  0  0  0  0
 41 39  2  0  0  0  0
 41 40  1  0  0  0  0
 42 38  2  0  0  0  0
 43 38  1  0  0  0  0
 43 37  1  0  0  0  0
 44 39  1  0  0  0  0
 45 44  1  0  0  0  0
 46 44  1  0  0  0  0
 48 47  1  0  0  0  0
 50 51  2  0  0  0  0
 50 55  1  0  0  0  0
 51 53  1  0  0  0  0
 52 49  1  0  0  0  0
 53 48  1  0  0  0  0
 53 49  2  0  0  0  0
 54 50  1  0  0  0  0
 55 52  2  0  0  0  0
M  END
>  <MODEL>
4

>  <REMARK>
 VINA RESULT:      -5.4      2.433      4.205
  Name = 
  19 active torsions:
  status: ('A' for Active; 'I' for Inactive)
    1  A    between atoms: C_1  and  C_30
    2  A    between atoms: C_2  and  O_28
    3  A    between atoms: C_2  and  C_44
    4  A    between atoms: C_6  and  O_8
    5  A    between atoms: C_6  and  C_46
    6  A    between atoms: C_7  and  O_8
    7  A    between atoms: C_7  and  C_23
    8  A    between atoms: C_7  and  C_43
    9  A    between atoms: N_10  and  C_32
   10  A    between atoms: C_11  and  C_29
   11  A    between atoms: C_12  and  O_14
   12  A    between atoms: O_14  and  C_46
   13  A    between atoms: C_17  and  C_23
   14  A    between atoms: C_19  and  C_49
   15  A    between atoms: C_20  and  C_30
   16  A    between atoms: O_28  and  C_33
   17  A    between atoms: C_33  and  C_49
   18  A    between atoms: C_33  and  C_52
   19  A    between atoms: C_35  and  C_43
                            x       y       z     vdW  Elec       q    Type
                         _______ _______ _______ _____ _____    ______ ____

>  <TORSDO>
F 19

$$$$
=
 OpenBabel11052419503D

 55 58  0  0  1  0  0  0  0  0999 V2000
  191.8120  172.5090  143.3360 C   0  0  0  0  0  1  0  0  0  0  0  0
  194.3030  177.2190  144.9240 O   0  0  0  0  0  1  0  0  0  0  0  0
  194.8570  174.8880  144.7540 C   0  0  1  0  0  3  0  0  0  0  0  0
  194.3670  173.5150  144.2700 C   0  0  2  0  0  3  0  0  0  0  0  0
  191.6430  174.7120  144.5830 C   0  0  2  0  0  3  0  0  0  0  0  0
  193.7930  175.9710  144.5650 C   0  0  1  0  0  3  0  0  0  0  0  0
  195.3730  174.8410  146.1920 C   0  0  0  0  0  1  0  0  0  0  0  0
  193.3940  173.0140  145.1600 O   0  0  0  0  0  0  0  0  0  0  0  0
  192.0970  173.2430  144.6390 C   0  0  2  0  0  3  0  0  0  0  0  0
  192.5260  175.6830  145.3590 C   0  0  0  0  0  2  0  0  0  0  0  0
  196.7030  173.2170  143.7220 O   0  0  0  0  0  1  0  0  0  0  0  0
  195.5640  172.5510  144.1800 C   0  0  2  0  0  3  0  0  0  0  0  0
  195.3250  171.2560  143.3750 C   0  0  2  0  0  3  0  0  0  0  0  0
  196.8660  170.0270  144.9740 C   0  0  0  0  0  1  0  0  0  0  0  0
  195.5490  169.9830  144.2130 C   0  0  1  0  0  3  0  0  0  0  0  0
  194.6770  169.6770  146.5270 O   0  0  0  0  0  1  0  0  0  0  0  0
  194.4250  169.7210  145.1630 C   0  0  0  0  0  0  0  0  0  0  0  0
  193.2560  169.5140  144.7380 O   0  0  0  0  0  0  0  0  0  0  0  0
  196.1550  171.2610  142.2300 O   0  0  0  0  0  0  0  0  0  0  0  0
  193.6090  172.1680  139.8320 O   0  0  0  0  0  1  0  0  0  0  0  0
  195.4010  171.0570  141.0390 C   0  0  2  0  0  0  0  0  0  0  0  0
  195.5450  173.4240  140.4730 C   0  0  2  0  0  3  0  0  0  0  0  0
  196.3730  171.0080  139.8330 C   0  0  2  0  0  3  0  0  0  0  0  0
  196.7880  172.7220  139.3440 S   0  0  0  0  0  0  0  0  0  0  0  0
  194.5600  172.3260  140.8480 C   0  0  1  0  0  3  0  0  0  0  0  0
  195.1720  175.0280  138.7480 O   0  0  0  0  0  0  0  0  0  0  0  0
  194.8850  174.6450  139.9110 C   0  0  0  0  0  0  0  0  0  0  0  0
  194.0050  175.3940  140.6840 O   0  0  0  0  0  1  0  0  0  0  0  0
  194.4910  169.8060  141.2160 C   0  0  0  0  0  2  0  0  0  0  0  0
  193.1410  170.1120  141.4030 O   0  0  0  0  0  0  0  0  0  0  0  0
  192.4940  168.8780  141.3630 C   0  0  0  0  0  2  0  0  0  0  0  0
  191.0000  169.0880  141.4880 C   0  0  0  0  0  1  0  0  0  0  0  0
  195.8540  170.2530  138.6110 C   0  0  0  0  0  2  0  0  0  0  0  0
  196.8050  169.1750  138.2020 C   0  0  0  0  0  3  0  0  0  0  0  0
  197.3100  169.1330  136.9710 C   0  0  0  0  0  2  0  0  0  0  0  0
  190.1780  174.8560  144.9900 C   0  0  0  0  0  2  0  0  0  0  0  0
  189.6610  176.3020  144.8750 C   0  0  1  0  0  3  0  0  0  0  0  0
  188.6580  177.8730  143.2090 C   0  0  0  0  0  3  0  0  0  0  0  0
  187.2340  177.0980  141.3960 C   0  0  0  0  0  0  0  0  0  0  0  0
  188.1920  175.5120  142.9690 C   0  0  0  0  0  3  0  0  0  0  0  0
  187.4010  175.7810  141.8480 C   0  0  0  0  0  3  0  0  0  0  0  0
  187.8680  178.1430  142.0880 C   0  0  0  0  0  3  0  0  0  0  0  0
  188.8290  176.5580  143.6500 C   0  0  0  0  0  0  0  0  0  0  0  0
  186.4210  177.3650  140.2430 N   0  0  0  0  0  0  0  0  0  0  0  0
  186.7810  176.8800  139.0300 O   0  0  0  0  0  1  0  0  0  0  0  0
  185.1990  178.1500  140.3390 C   0  0  0  0  0  1  0  0  0  0  0  0
  189.0880  176.8170  146.0610 O   0  0  0  0  0  0  0  0  0  0  0  0
  187.9120  176.1030  146.3510 C   0  0  0  0  0  2  0  0  0  0  0  0
  186.4150  177.6580  147.6120 C   0  0  0  0  0  3  0  0  0  0  0  0
  184.9380  178.1920  145.3270 C   0  0  0  0  0  0  0  0  0  0  0  0
  186.0180  177.3090  145.2540 C   0  0  0  0  0  3  0  0  0  0  0  0
  185.3290  178.5350  147.6440 C   0  0  0  0  0  3  0  0  0  0  0  0
  186.7550  177.0360  146.4090 C   0  0  0  0  0  0  0  0  0  0  0  0
  184.1400  178.4890  144.1100 C   0  0  0  0  0  1  0  0  0  0  0  0
  184.6170  178.7790  146.5120 N   0  0  0  0  0  0  0  0  0  0  0  0
  3  7  1  1  0  0  0
  4 12  1  1  0  0  0
  4  3  1  0  0  0  0
  4  8  1  0  0  0  0
  5  9  1  0  0  0  0
  5 36  1  1  0  0  0
  5 10  1  0  0  0  0
  6  3  1  0  0  0  0
  6  2  1  1  0  0  0
  6 10  1  0  0  0  0
  9  1  1  6  0  0  0
  9  8  1  0  0  0  0
 12 11  1  6  0  0  0
 13 19  1  6  0  0  0
 13 12  1  0  0  0  0
 13 15  1  0  0  0  0
 15 14  1  1  0  0  0
 15 17  1  0  0  0  0
 17 16  1  0  0  0  0
 18 17  2  0  0  0  0
 21 29  1  1  0  0  0
 21 19  1  0  0  0  0
 22 27  1  6  0  0  0
 22 25  1  0  0  0  0
 23 33  1  6  0  0  0
 23 21  1  0  0  0  0
 24 23  1  0  0  0  0
 24 22  1  0  0  0  0
 25 20  1  6  0  0  0
 25 21  1  0  0  0  0
 26 27  2  0  0  0  0
 27 28  1  0  0  0  0
 29 30  1  0  0  0  0
 31 30  1  0  0  0  0
 31 32  1  0  0  0  0
 34 33  1  0  0  0  0
 35 34  2  0  0  0  0
 37 36  1  1  0  0  0
 37 47  1  0  0  0  0
 38 43  1  0  0  0  0
 39 41  2  0  0  0  0
 39 42  1  0  0  0  0
 40 43  2  0  0  0  0
 41 40  1  0  0  0  0
 42 38  2  0  0  0  0
 43 37  1  0  0  0  0
 44 46  1  0  0  0  0
 44 39  1  0  0  0  0
 45 44  1  0  0  0  0
 47 48  1  0  0  0  0
 48 53  1  0  0  0  0
 49 52  1  0  0  0  0
 50 55  1  0  0  0  0
 51 50  2  0  0  0  0
 51 53  1  0  0  0  0
 53 49  2  0  0  0  0
 54 50  1  0  0  0  0
 55 52  2  0  0  0  0
M  END
>  <MODEL>
5

>  <REMARK>
 VINA RESULT:      -5.2      2.161      3.757
  Name = 
  19 active torsions:
  status: ('A' for Active; 'I' for Inactive)
    1  A    between atoms: C_1  and  C_30
    2  A    between atoms: C_2  and  O_28
    3  A    between atoms: C_2  and  C_44
    4  A    between atoms: C_6  and  O_8
    5  A    between atoms: C_6  and  C_46
    6  A    between atoms: C_7  and  O_8
    7  A    between atoms: C_7  and  C_23
    8  A    between atoms: C_7  and  C_43
    9  A    between atoms: N_10  and  C_32
   10  A    between atoms: C_11  and  C_29
   11  A    between atoms: C_12  and  O_14
   12  A    between atoms: O_14  and  C_46
   13  A    between atoms: C_17  and  C_23
   14  A    between atoms: C_19  and  C_49
   15  A    between atoms: C_20  and  C_30
   16  A    between atoms: O_28  and  C_33
   17  A    between atoms: C_33  and  C_49
   18  A    between atoms: C_33  and  C_52
   19  A    between atoms: C_35  and  C_43
                            x       y       z     vdW  Elec       q    Type
                         _______ _______ _______ _____ _____    ______ ____

>  <TORSDO>
F 19

$$$$
=
 OpenBabel11052419503D

 55 58  0  0  1  0  0  0  0  0999 V2000
  193.1470  174.8630  141.4240 C   0  0  0  0  0  1  0  0  0  0  0  0
  194.5860  177.9030  145.8510 O   0  0  0  0  0  1  0  0  0  0  0  0
  195.2220  175.8150  144.8490 C   0  0  1  0  0  3  0  0  0  0  0  0
  195.0250  174.8950  143.6340 C   0  0  2  0  0  3  0  0  0  0  0  0
  192.3990  176.3050  143.3720 C   0  0  2  0  0  3  0  0  0  0  0  0
  194.3140  177.0450  144.7860 C   0  0  1  0  0  3  0  0  0  0  0  0
  195.0710  175.0620  146.1710 C   0  0  0  0  0  1  0  0  0  0  0  0
  193.7780  174.2430  143.7260 O   0  0  0  0  0  0  0  0  0  0  0  0
  192.8250  174.9010  142.9120 C   0  0  2  0  0  3  0  0  0  0  0  0
  192.8370  176.6740  144.7850 C   0  0  0  0  0  2  0  0  0  0  0  0
  197.1200  174.2320  142.6260 O   0  0  0  0  0  1  0  0  0  0  0  0
  196.1700  173.8680  143.5830 C   0  0  2  0  0  3  0  0  0  0  0  0
  195.7450  172.3960  143.4020 C   0  0  2  0  0  3  0  0  0  0  0  0
  197.1760  172.1790  145.4870 C   0  0  0  0  0  1  0  0  0  0  0  0
  196.1370  171.5100  144.6000 C   0  0  1  0  0  3  0  0  0  0  0  0
  194.6250  169.7630  145.5340 O   0  0  0  0  0  0  0  0  0  0  0  0
  194.9550  171.1070  145.4210 C   0  0  0  0  0  0  0  0  0  0  0  0
  194.2400  171.9740  145.9930 O   0  0  0  0  0  1  0  0  0  0  0  0
  196.3000  171.8970  142.2010 O   0  0  0  0  0  0  0  0  0  0  0  0
  194.0410  172.0830  139.3860 O   0  0  0  0  0  1  0  0  0  0  0  0
  195.2930  171.3690  141.3420 C   0  0  2  0  0  0  0  0  0  0  0  0
  196.4310  172.2470  139.3720 C   0  0  2  0  0  3  0  0  0  0  0  0
  195.8170  170.0580  140.7020 C   0  0  2  0  0  3  0  0  0  0  0  0
  196.8860  170.4870  139.2790 S   0  0  0  0  0  0  0  0  0  0  0  0
  195.1520  172.3710  140.1880 C   0  0  1  0  0  3  0  0  0  0  0  0
  196.2770  172.1640  136.9940 O   0  0  0  0  0  0  0  0  0  0  0  0
  196.3360  172.8860  138.0220 C   0  0  0  0  0  0  0  0  0  0  0  0
  196.3740  174.2700  137.8880 O   0  0  0  0  0  1  0  0  0  0  0  0
  193.9590  171.2390  142.1350 C   0  0  0  0  0  2  0  0  0  0  0  0
  192.9390  170.6030  141.4220 O   0  0  0  0  0  0  0  0  0  0  0  0
  192.1440  170.0120  142.4030 C   0  0  0  0  0  2  0  0  0  0  0  0
  191.9370  170.9890  143.5400 C   0  0  0  0  0  1  0  0  0  0  0  0
  194.7360  169.0850  140.2380 C   0  0  0  0  0  2  0  0  0  0  0  0
  194.8580  168.8040  138.7750 C   0  0  0  0  0  3  0  0  0  0  0  0
  193.7870  168.8000  137.9830 C   0  0  0  0  0  2  0  0  0  0  0  0
  190.8980  176.5200  143.1880 C   0  0  0  0  0  2  0  0  0  0  0  0
  190.0470  175.6710  144.1510 C   0  0  1  0  0  3  0  0  0  0  0  0
  188.2590  177.4130  144.0230 C   0  0  0  0  0  3  0  0  0  0  0  0
  186.7660  177.8710  145.8870 C   0  0  0  0  0  0  0  0  0  0  0  0
  188.4700  176.1490  146.0750 C   0  0  0  0  0  3  0  0  0  0  0  0
  187.4110  176.8730  146.6310 C   0  0  0  0  0  3  0  0  0  0  0  0
  187.2000  178.1370  144.5780 C   0  0  0  0  0  3  0  0  0  0  0  0
  188.8930  176.4130  144.7650 C   0  0  0  0  0  0  0  0  0  0  0  0
  185.6780  178.6090  146.4670 N   0  0  0  0  0  0  0  0  0  0  0  0
  185.8690  179.3180  147.6050 O   0  0  0  0  0  1  0  0  0  0  0  0
  184.3570  178.6230  145.8560 C   0  0  0  0  0  1  0  0  0  0  0  0
  189.6920  174.3960  143.6510 O   0  0  0  0  0  0  0  0  0  0  0  0
  188.6310  174.5390  142.7380 C   0  0  0  0  0  2  0  0  0  0  0  0
  189.9600  172.9420  141.3480 C   0  0  0  0  0  3  0  0  0  0  0  0
  188.8080  173.9110  139.0190 C   0  0  0  0  0  0  0  0  0  0  0  0
  188.4330  174.4590  140.2480 C   0  0  0  0  0  3  0  0  0  0  0  0
  190.3080  172.4200  140.1000 C   0  0  0  0  0  3  0  0  0  0  0  0
  189.0210  173.9730  141.4190 C   0  0  0  0  0  0  0  0  0  0  0  0
  188.1980  174.4190  137.7640 C   0  0  0  0  0  1  0  0  0  0  0  0
  189.7330  172.9140  138.9710 N   0  0  0  0  0  0  0  0  0  0  0  0
  3  7  1  1  0  0  0
  4 12  1  1  0  0  0
  4  8  1  0  0  0  0
  4  3  1  0  0  0  0
  5 36  1  1  0  0  0
  5 10  1  0  0  0  0
  6  3  1  0  0  0  0
  6  2  1  1  0  0  0
  9  1  1  6  0  0  0
  9  5  1  0  0  0  0
  9  8  1  0  0  0  0
 10  6  1  0  0  0  0
 12 11  1  6  0  0  0
 13 19  1  6  0  0  0
 13 12  1  0  0  0  0
 13 15  1  0  0  0  0
 15 17  1  0  0  0  0
 15 14  1  1  0  0  0
 17 16  2  0  0  0  0
 17 18  1  0  0  0  0
 21 29  1  1  0  0  0
 21 19  1  0  0  0  0
 22 27  1  6  0  0  0
 22 25  1  0  0  0  0
 23 33  1  6  0  0  0
 23 21  1  0  0  0  0
 24 22  1  0  0  0  0
 24 23  1  0  0  0  0
 25 20  1  6  0  0  0
 25 21  1  0  0  0  0
 26 27  2  0  0  0  0
 28 27  1  0  0  0  0
 30 29  1  0  0  0  0
 30 31  1  0  0  0  0
 31 32  1  0  0  0  0
 34 33  1  0  0  0  0
 35 34  2  0  0  0  0
 37 36  1  6  0  0  0
 37 43  1  0  0  0  0
 38 42  2  0  0  0  0
 38 43  1  0  0  0  0
 39 44  1  0  0  0  0
 39 41  2  0  0  0  0
 40 41  1  0  0  0  0
 42 39  1  0  0  0  0
 43 40  2  0  0  0  0
 44 45  1  0  0  0  0
 46 44  1  0  0  0  0
 47 37  1  0  0  0  0
 48 47  1  0  0  0  0
 49 53  1  0  0  0  0
 50 51  1  0  0  0  0
 51 53  2  0  0  0  0
 52 49  2  0  0  0  0
 53 48  1  0  0  0  0
 54 50  1  0  0  0  0
 55 50  2  0  0  0  0
 55 52  1  0  0  0  0
M  END
>  <MODEL>
6

>  <REMARK>
 VINA RESULT:      -5.1      2.365      5.185
  Name = 
  19 active torsions:
  status: ('A' for Active; 'I' for Inactive)
    1  A    between atoms: C_1  and  C_30
    2  A    between atoms: C_2  and  O_28
    3  A    between atoms: C_2  and  C_44
    4  A    between atoms: C_6  and  O_8
    5  A    between atoms: C_6  and  C_46
    6  A    between atoms: C_7  and  O_8
    7  A    between atoms: C_7  and  C_23
    8  A    between atoms: C_7  and  C_43
    9  A    between atoms: N_10  and  C_32
   10  A    between atoms: C_11  and  C_29
   11  A    between atoms: C_12  and  O_14
   12  A    between atoms: O_14  and  C_46
   13  A    between atoms: C_17  and  C_23
   14  A    between atoms: C_19  and  C_49
   15  A    between atoms: C_20  and  C_30
   16  A    between atoms: O_28  and  C_33
   17  A    between atoms: C_33  and  C_49
   18  A    between atoms: C_33  and  C_52
   19  A    between atoms: C_35  and  C_43
                            x       y       z     vdW  Elec       q    Type
                         _______ _______ _______ _____ _____    ______ ____

>  <TORSDO>
F 19

$$$$
=
 OpenBabel11052419503D

 55 58  0  0  1  0  0  0  0  0999 V2000
  190.5000  173.9900  141.9360 C   0  0  0  0  0  1  0  0  0  0  0  0
  189.8910  177.6010  146.1200 O   0  0  0  0  0  1  0  0  0  0  0  0
  191.1760  175.6270  145.6520 C   0  0  1  0  0  3  0  0  0  0  0  0
  191.5430  174.5950  144.5740 C   0  0  2  0  0  3  0  0  0  0  0  0
  188.9270  175.3850  143.3560 C   0  0  2  0  0  3  0  0  0  0  0  0
  190.1300  176.6240  145.1530 C   0  0  1  0  0  3  0  0  0  0  0  0
  190.7530  174.9630  146.9620 C   0  0  0  0  0  1  0  0  0  0  0  0
  190.4700  173.7000  144.3850 O   0  0  0  0  0  0  0  0  0  0  0  0
  189.7220  174.0730  143.2420 C   0  0  2  0  0  3  0  0  0  0  0  0
  188.8210  175.9470  144.7690 C   0  0  0  0  0  2  0  0  0  0  0  0
  193.1060  174.0880  146.3480 O   0  0  0  0  0  1  0  0  0  0  0  0
  192.8110  173.8360  145.0060 C   0  0  2  0  0  3  0  0  0  0  0  0
  194.0560  174.0480  144.1210 C   0  0  2  0  0  3  0  0  0  0  0  0
  195.9930  175.6040  144.6370 C   0  0  0  0  0  1  0  0  0  0  0  0
  194.5600  175.5040  144.1380 C   0  0  1  0  0  3  0  0  0  0  0  0
  193.1860  176.4300  142.2750 O   0  0  0  0  0  1  0  0  0  0  0  0
  194.4440  176.1620  142.8000 C   0  0  0  0  0  0  0  0  0  0  0  0
  195.4720  176.4550  142.1330 O   0  0  0  0  0  0  0  0  0  0  0  0
  193.7640  173.6300  142.8010 O   0  0  0  0  0  0  0  0  0  0  0  0
  194.9250  171.0500  140.5520 O   0  0  0  0  0  1  0  0  0  0  0  0
  194.3530  172.3650  142.5140 C   0  0  2  0  0  0  0  0  0  0  0  0
  195.6660  173.3230  140.6960 C   0  0  2  0  0  3  0  0  0  0  0  0
  195.7750  172.3230  143.1300 C   0  0  2  0  0  3  0  0  0  0  0  0
  196.9300  173.1810  141.9990 S   0  0  0  0  0  0  0  0  0  0  0  0
  194.5540  172.3260  140.9930 C   0  0  1  0  0  3  0  0  0  0  0  0
  197.4660  172.9330  139.1820 O   0  0  0  0  0  1  0  0  0  0  0  0
  196.2410  173.1770  139.3220 C   0  0  0  0  0  0  0  0  0  0  0  0
  195.4460  173.3700  138.1970 O   0  0  0  0  0  0  0  0  0  0  0  0
  193.3900  171.2330  142.9780 C   0  0  0  0  0  2  0  0  0  0  0  0
  192.2420  171.1120  142.1910 O   0  0  0  0  0  0  0  0  0  0  0  0
  191.5620  170.0200  142.7310 C   0  0  0  0  0  2  0  0  0  0  0  0
  190.8360  169.2830  141.6270 C   0  0  0  0  0  1  0  0  0  0  0  0
  196.3130  170.9250  143.4250 C   0  0  0  0  0  2  0  0  0  0  0  0
  197.0550  170.8990  144.7220 C   0  0  0  0  0  3  0  0  0  0  0  0
  196.5410  171.4470  145.8210 C   0  0  0  0  0  2  0  0  0  0  0  0
  187.5480  175.2570  142.7110 C   0  0  0  0  0  2  0  0  0  0  0  0
  187.1290  176.5190  141.9330 C   0  0  1  0  0  3  0  0  0  0  0  0
  187.8020  175.2740  139.8730 C   0  0  0  0  0  3  0  0  0  0  0  0
  187.1040  175.9770  137.6510 C   0  0  0  0  0  0  0  0  0  0  0  0
  186.3960  177.2240  139.6130 C   0  0  0  0  0  3  0  0  0  0  0  0
  186.4010  177.0450  138.2270 C   0  0  0  0  0  3  0  0  0  0  0  0
  187.8070  175.0930  138.4860 C   0  0  0  0  0  3  0  0  0  0  0  0
  187.0930  176.3340  140.4420 C   0  0  0  0  0  0  0  0  0  0  0  0
  187.1020  175.8000  136.2260 N   0  0  0  0  0  0  0  0  0  0  0  0
  185.9780  176.0470  135.5120 O   0  0  0  0  0  1  0  0  0  0  0  0
  188.2920  175.3590  135.5130 C   0  0  0  0  0  1  0  0  0  0  0  0
  185.9840  177.1710  142.4460 O   0  0  0  0  0  0  0  0  0  0  0  0
  186.3750  178.3740  143.0600 C   0  0  0  0  0  2  0  0  0  0  0  0
  184.3390  178.5610  144.4960 C   0  0  0  0  0  3  0  0  0  0  0  0
  185.8880  178.6270  146.7950 C   0  0  0  0  0  0  0  0  0  0  0  0
  186.5130  178.5190  145.5510 C   0  0  0  0  0  3  0  0  0  0  0  0
  183.7510  178.6670  145.7590 C   0  0  0  0  0  3  0  0  0  0  0  0
  185.7300  178.4930  144.3940 C   0  0  0  0  0  0  0  0  0  0  0  0
  186.7050  178.6600  148.0350 C   0  0  0  0  0  1  0  0  0  0  0  0
  184.5310  178.7010  146.8720 N   0  0  0  0  0  0  0  0  0  0  0  0
  3  7  1  1  0  0  0
  4 12  1  1  0  0  0
  4  3  1  0  0  0  0
  5 36  1  1  0  0  0
  5 10  1  0  0  0  0
  6  3  1  0  0  0  0
  6  2  1  1  0  0  0
  8  4  1  0  0  0  0
  9  1  1  6  0  0  0
  9  5  1  0  0  0  0
  9  8  1  0  0  0  0
 10  6  1  0  0  0  0
 12 11  1  1  0  0  0
 13 19  1  6  0  0  0
 13 15  1  0  0  0  0
 13 12  1  0  0  0  0
 15 14  1  6  0  0  0
 16 17  1  0  0  0  0
 17 15  1  0  0  0  0
 18 17  2  0  0  0  0
 21 19  1  0  0  0  0
 21 29  1  1  0  0  0
 21 23  1  0  0  0  0
 22 27  1  6  0  0  0
 22 25  1  0  0  0  0
 22 24  1  0  0  0  0
 23 33  1  6  0  0  0
 24 23  1  0  0  0  0
 25 20  1  1  0  0  0
 25 21  1  0  0  0  0
 26 27  1  0  0  0  0
 28 27  2  0  0  0  0
 30 31  1  0  0  0  0
 30 29  1  0  0  0  0
 32 31  1  0  0  0  0
 33 34  1  0  0  0  0
 34 35  2  0  0  0  0
 37 47  1  0  0  0  0
 37 36  1  1  0  0  0
 38 43  1  0  0  0  0
 39 41  2  0  0  0  0
 39 42  1  0  0  0  0
 40 43  2  0  0  0  0
 41 40  1  0  0  0  0
 42 38  2  0  0  0  0
 43 37  1  0  0  0  0
 44 39  1  0  0  0  0
 45 44  1  0  0  0  0
 46 44  1  0  0  0  0
 47 48  1  0  0  0  0
 48 53  1  0  0  0  0
 49 52  1  0  0  0  0
 50 55  1  0  0  0  0
 50 54  1  0  0  0  0
 51 50  2  0  0  0  0
 52 55  2  0  0  0  0
 53 49  2  0  0  0  0
 53 51  1  0  0  0  0
M  END
>  <MODEL>
7

>  <REMARK>
 VINA RESULT:      -5.1      2.222      4.898
  Name = 
  19 active torsions:
  status: ('A' for Active; 'I' for Inactive)
    1  A    between atoms: C_1  and  C_30
    2  A    between atoms: C_2  and  O_28
    3  A    between atoms: C_2  and  C_44
    4  A    between atoms: C_6  and  O_8
    5  A    between atoms: C_6  and  C_46
    6  A    between atoms: C_7  and  O_8
    7  A    between atoms: C_7  and  C_23
    8  A    between atoms: C_7  and  C_43
    9  A    between atoms: N_10  and  C_32
   10  A    between atoms: C_11  and  C_29
   11  A    between atoms: C_12  and  O_14
   12  A    between atoms: O_14  and  C_46
   13  A    between atoms: C_17  and  C_23
   14  A    between atoms: C_19  and  C_49
   15  A    between atoms: C_20  and  C_30
   16  A    between atoms: O_28  and  C_33
   17  A    between atoms: C_33  and  C_49
   18  A    between atoms: C_33  and  C_52
   19  A    between atoms: C_35  and  C_43
                            x       y       z     vdW  Elec       q    Type
                         _______ _______ _______ _____ _____    ______ ____

>  <TORSDO>
F 19

$$$$
=
 OpenBabel11052419503D

 55 58  0  0  1  0  0  0  0  0999 V2000
  190.7520  171.0860  142.4370 C   0  0  0  0  0  1  0  0  0  0  0  0
  189.2270  173.5140  137.6740 O   0  0  0  0  0  1  0  0  0  0  0  0
  191.2200  172.5750  138.6290 C   0  0  1  0  0  3  0  0  0  0  0  0
  191.7950  171.8060  139.8280 C   0  0  2  0  0  3  0  0  0  0  0  0
  189.4410  172.9320  141.2920 C   0  0  2  0  0  3  0  0  0  0  0  0
  189.7380  172.9020  138.8180 C   0  0  1  0  0  3  0  0  0  0  0  0
  192.0420  173.8210  138.2980 C   0  0  0  0  0  1  0  0  0  0  0  0
  191.9080  172.6670  140.9380 O   0  0  0  0  0  0  0  0  0  0  0  0
  190.8130  172.4750  141.8160 C   0  0  2  0  0  3  0  0  0  0  0  0
  189.4910  173.7880  140.0320 C   0  0  0  0  0  2  0  0  0  0  0  0
  193.2850  169.9020  139.8780 O   0  0  0  0  0  1  0  0  0  0  0  0
  193.1700  171.2270  139.4500 C   0  0  2  0  0  3  0  0  0  0  0  0
  194.3930  172.0550  139.8950 C   0  0  2  0  0  3  0  0  0  0  0  0
  195.2720  173.7860  138.2600 C   0  0  0  0  0  1  0  0  0  0  0  0
  195.3700  172.3450  138.7390 C   0  0  1  0  0  3  0  0  0  0  0  0
  197.5980  173.0220  139.6270 O   0  0  0  0  0  1  0  0  0  0  0  0
  196.7860  172.0270  139.0980 C   0  0  0  0  0  0  0  0  0  0  0  0
  197.2580  170.8750  138.9040 O   0  0  0  0  0  0  0  0  0  0  0  0
  195.0480  171.3840  140.9540 O   0  0  0  0  0  0  0  0  0  0  0  0
  193.8680  172.4300  144.2050 O   0  0  0  0  0  1  0  0  0  0  0  0
  195.1030  172.1910  142.1260 C   0  0  2  0  0  0  0  0  0  0  0  0
  194.6440  170.2620  143.5450 C   0  0  2  0  0  3  0  0  0  0  0  0
  196.4830  171.9950  142.8060 C   0  0  2  0  0  3  0  0  0  0  0  0
  196.4360  170.4570  143.7960 S   0  0  0  0  0  0  0  0  0  0  0  0
  194.0710  171.5990  143.0970 C   0  0  1  0  0  3  0  0  0  0  0  0
  192.7880  169.2420  144.6420 O   0  0  0  0  0  0  0  0  0  0  0  0
  193.9550  169.6970  144.7490 C   0  0  0  0  0  0  0  0  0  0  0  0
  194.5690  169.7270  145.9960 O   0  0  0  0  0  1  0  0  0  0  0  0
  194.7420  173.6600  141.7570 C   0  0  0  0  0  2  0  0  0  0  0  0
  195.7830  174.5670  141.9710 O   0  0  0  0  0  0  0  0  0  0  0  0
  195.4170  175.6970  141.2400 C   0  0  0  0  0  2  0  0  0  0  0  0
  193.9280  175.6640  140.9740 C   0  0  0  0  0  1  0  0  0  0  0  0
  196.9370  173.1490  143.6960 C   0  0  0  0  0  2  0  0  0  0  0  0
  197.1590  172.6880  145.1010 C   0  0  0  0  0  3  0  0  0  0  0  0
  196.8150  173.4500  146.1370 C   0  0  0  0  0  2  0  0  0  0  0  0
  188.6270  173.6160  142.3890 C   0  0  0  0  0  2  0  0  0  0  0  0
  189.2810  174.9120  142.9040 C   0  0  1  0  0  3  0  0  0  0  0  0
  188.1310  176.3100  144.6270 C   0  0  0  0  0  3  0  0  0  0  0  0
  186.4320  177.9490  144.0390 C   0  0  0  0  0  0  0  0  0  0  0  0
  187.5240  176.6370  142.3090 C   0  0  0  0  0  3  0  0  0  0  0  0
  186.5980  177.6140  142.6880 C   0  0  0  0  0  3  0  0  0  0  0  0
  187.2060  177.2870  145.0070 C   0  0  0  0  0  3  0  0  0  0  0  0
  188.2980  175.9860  143.2790 C   0  0  0  0  0  0  0  0  0  0  0  0
  185.4790  178.9540  144.4190 N   0  0  0  0  0  0  0  0  0  0  0  0
  185.5640  180.2020  143.8980 O   0  0  0  0  0  1  0  0  0  0  0  0
  184.4050  178.6670  145.3580 C   0  0  0  0  0  1  0  0  0  0  0  0
  190.2930  174.7140  143.8720 O   0  0  0  0  0  0  0  0  0  0  0  0
  191.4520  175.4050  143.4740 C   0  0  0  0  0  2  0  0  0  0  0  0
  193.5800  176.0930  144.5900 C   0  0  0  0  0  3  0  0  0  0  0  0
  192.2620  176.5020  146.9950 C   0  0  0  0  0  0  0  0  0  0  0  0
  191.5370  176.0710  145.8810 C   0  0  0  0  0  3  0  0  0  0  0  0
  194.2690  176.5240  145.7250 C   0  0  0  0  0  3  0  0  0  0  0  0
  192.2060  175.8590  144.6730 C   0  0  0  0  0  0  0  0  0  0  0  0
  191.5680  176.7280  148.2890 C   0  0  0  0  0  1  0  0  0  0  0  0
  193.6020  176.7150  146.8950 N   0  0  0  0  0  0  0  0  0  0  0  0
  3  7  1  1  0  0  0
  3  6  1  0  0  0  0
  3  4  1  0  0  0  0
  4 12  1  6  0  0  0
  4  8  1  0  0  0  0
  5  9  1  0  0  0  0
  5 36  1  1  0  0  0
  6  2  1  6  0  0  0
  6 10  1  0  0  0  0
  8  9  1  0  0  0  0
  9  1  1  6  0  0  0
 10  5  1  0  0  0  0
 12 11  1  1  0  0  0
 12 13  1  0  0  0  0
 13 19  1  1  0  0  0
 15 14  1  1  0  0  0
 15 17  1  0  0  0  0
 15 13  1  0  0  0  0
 17 16  1  0  0  0  0
 18 17  2  0  0  0  0
 19 21  1  0  0  0  0
 21 29  1  6  0  0  0
 21 23  1  0  0  0  0
 21 25  1  0  0  0  0
 22 24  1  0  0  0  0
 22 27  1  1  0  0  0
 23 33  1  1  0  0  0
 23 24  1  0  0  0  0
 25 22  1  0  0  0  0
 25 20  1  1  0  0  0
 26 27  2  0  0  0  0
 27 28  1  0  0  0  0
 29 30  1  0  0  0  0
 31 30  1  0  0  0  0
 32 31  1  0  0  0  0
 33 34  1  0  0  0  0
 34 35  2  0  0  0  0
 37 36  1  1  0  0  0
 37 43  1  0  0  0  0
 37 47  1  0  0  0  0
 38 42  1  0  0  0  0
 39 44  1  0  0  0  0
 39 42  2  0  0  0  0
 40 41  2  0  0  0  0
 40 43  1  0  0  0  0
 41 39  1  0  0  0  0
 43 38  2  0  0  0  0
 44 46  1  0  0  0  0
 45 44  1  0  0  0  0
 48 47  1  0  0  0  0
 48 53  1  0  0  0  0
 49 53  2  0  0  0  0
 49 52  1  0  0  0  0
 50 54  1  0  0  0  0
 51 50  2  0  0  0  0
 52 55  2  0  0  0  0
 53 51  1  0  0  0  0
 55 50  1  0  0  0  0
M  END
>  <MODEL>
8

>  <REMARK>
 VINA RESULT:      -5.0      2.660      6.006
  Name = 
  19 active torsions:
  status: ('A' for Active; 'I' for Inactive)
    1  A    between atoms: C_1  and  C_30
    2  A    between atoms: C_2  and  O_28
    3  A    between atoms: C_2  and  C_44
    4  A    between atoms: C_6  and  O_8
    5  A    between atoms: C_6  and  C_46
    6  A    between atoms: C_7  and  O_8
    7  A    between atoms: C_7  and  C_23
    8  A    between atoms: C_7  and  C_43
    9  A    between atoms: N_10  and  C_32
   10  A    between atoms: C_11  and  C_29
   11  A    between atoms: C_12  and  O_14
   12  A    between atoms: O_14  and  C_46
   13  A    between atoms: C_17  and  C_23
   14  A    between atoms: C_19  and  C_49
   15  A    between atoms: C_20  and  C_30
   16  A    between atoms: O_28  and  C_33
   17  A    between atoms: C_33  and  C_49
   18  A    between atoms: C_33  and  C_52
   19  A    between atoms: C_35  and  C_43
                            x       y       z     vdW  Elec       q    Type
                         _______ _______ _______ _____ _____    ______ ____

>  <TORSDO>
F 19

$$$$
=
 OpenBabel11052419503D

 55 58  0  0  1  0  0  0  0  0999 V2000
  188.0490  174.8780  140.4150 C   0  0  0  0  0  1  0  0  0  0  0  0
  190.9770  178.1250  143.8500 O   0  0  0  0  0  1  0  0  0  0  0  0
  190.3590  175.8090  143.6920 C   0  0  1  0  0  3  0  0  0  0  0  0
  189.6750  174.7500  142.8130 C   0  0  2  0  0  3  0  0  0  0  0  0
  188.2370  177.0940  141.6350 C   0  0  2  0  0  3  0  0  0  0  0  0
  190.2660  177.2070  143.0770 C   0  0  1  0  0  3  0  0  0  0  0  0
  189.8430  175.7830  145.1300 C   0  0  0  0  0  1  0  0  0  0  0  0
  188.2760  174.9140  142.8700 O   0  0  0  0  0  0  0  0  0  0  0  0
  187.8220  175.6160  141.7270 C   0  0  2  0  0  3  0  0  0  0  0  0
  188.8250  177.6740  142.9160 C   0  0  0  0  0  2  0  0  0  0  0  0
  189.8980  173.2340  144.6840 O   0  0  0  0  0  1  0  0  0  0  0  0
  190.0750  173.3470  143.3020 C   0  0  2  0  0  3  0  0  0  0  0  0
  191.4810  172.8670  142.8880 C   0  0  2  0  0  3  0  0  0  0  0  0
  190.5730  170.6850  141.9630 C   0  0  0  0  0  1  0  0  0  0  0  0
  191.4530  171.8960  141.6920 C   0  0  1  0  0  3  0  0  0  0  0  0
  191.6100  173.7600  140.0450 O   0  0  0  0  0  1  0  0  0  0  0  0
  191.0160  172.5650  140.4270 C   0  0  0  0  0  0  0  0  0  0  0  0
  190.1000  172.0690  139.7180 O   0  0  0  0  0  0  0  0  0  0  0  0
  192.1170  172.2740  144.0040 O   0  0  0  0  0  0  0  0  0  0  0  0
  195.3360  172.3940  145.6430 O   0  0  0  0  0  1  0  0  0  0  0  0
  193.4840  172.6650  144.0940 C   0  0  2  0  0  0  0  0  0  0  0  0
  194.1210  170.4610  144.9180 C   0  0  2  0  0  3  0  0  0  0  0  0
  194.2460  172.1050  142.8650 C   0  0  2  0  0  3  0  0  0  0  0  0
  194.6670  170.3530  143.1850 S   0  0  0  0  0  0  0  0  0  0  0  0
  194.0570  171.9290  145.3120 C   0  0  1  0  0  3  0  0  0  0  0  0
  196.0440  169.1410  145.4160 O   0  0  0  0  0  0  0  0  0  0  0  0
  194.9690  169.6370  145.8370 C   0  0  0  0  0  0  0  0  0  0  0  0
  194.5480  169.3650  147.1350 O   0  0  0  0  0  1  0  0  0  0  0  0
  193.5650  174.2080  144.2840 C   0  0  0  0  0  2  0  0  0  0  0  0
  193.2590  174.6330  145.5800 O   0  0  0  0  0  0  0  0  0  0  0  0
  193.5530  175.9960  145.5790 C   0  0  0  0  0  2  0  0  0  0  0  0
  193.0890  176.6120  146.8800 C   0  0  0  0  0  1  0  0  0  0  0  0
  195.5170  172.8630  142.4900 C   0  0  0  0  0  2  0  0  0  0  0  0
  195.3550  173.5690  141.1820 C   0  0  0  0  0  3  0  0  0  0  0  0
  195.0840  172.8960  140.0660 C   0  0  0  0  0  2  0  0  0  0  0  0
  187.0910  177.9620  141.1160 C   0  0  0  0  0  2  0  0  0  0  0  0
  185.7520  177.6730  141.8180 C   0  0  1  0  0  3  0  0  0  0  0  0
  185.8980  179.1770  143.8090 C   0  0  0  0  0  3  0  0  0  0  0  0
  185.9080  178.3130  146.0830 C   0  0  0  0  0  0  0  0  0  0  0  0
  185.7440  176.7940  144.1940 C   0  0  0  0  0  3  0  0  0  0  0  0
  185.8030  177.0120  145.5740 C   0  0  0  0  0  3  0  0  0  0  0  0
  185.9570  179.3950  145.1890 C   0  0  0  0  0  3  0  0  0  0  0  0
  185.7850  177.8780  143.3070 C   0  0  0  0  0  0  0  0  0  0  0  0
  185.9670  178.5270  147.5020 N   0  0  0  0  0  0  0  0  0  0  0  0
  185.6930  177.5110  148.3550 O   0  0  0  0  0  1  0  0  0  0  0  0
  186.3230  179.8230  148.0620 C   0  0  0  0  0  1  0  0  0  0  0  0
  184.6250  178.2590  141.1960 O   0  0  0  0  0  0  0  0  0  0  0  0
  183.5490  178.2610  142.1020 C   0  0  0  0  0  2  0  0  0  0  0  0
  182.1770  177.5520  140.1360 C   0  0  0  0  0  3  0  0  0  0  0  0
  179.9280  178.7970  141.1760 C   0  0  0  0  0  0  0  0  0  0  0  0
  181.1280  178.8460  141.8880 C   0  0  0  0  0  3  0  0  0  0  0  0
  180.9580  177.5250  139.4550 C   0  0  0  0  0  3  0  0  0  0  0  0
  182.2620  178.2250  141.3570 C   0  0  0  0  0  0  0  0  0  0  0  0
  178.7140  179.4560  141.7220 C   0  0  0  0  0  1  0  0  0  0  0  0
  179.8690  178.1450  139.9820 N   0  0  0  0  0  0  0  0  0  0  0  0
  3  7  1  1  0  0  0
  4  8  1  0  0  0  0
  4 12  1  1  0  0  0
  4  3  1  0  0  0  0
  5 36  1  1  0  0  0
  5  9  1  0  0  0  0
  5 10  1  0  0  0  0
  6  3  1  0  0  0  0
  6  2  1  1  0  0  0
  9  1  1  6  0  0  0
  9  8  1  0  0  0  0
 10  6  1  0  0  0  0
 12 11  1  1  0  0  0
 13 12  1  0  0  0  0
 13 19  1  1  0  0  0
 15 14  1  1  0  0  0
 15 13  1  0  0  0  0
 16 17  1  0  0  0  0
 17 15  1  0  0  0  0
 18 17  2  0  0  0  0
 19 21  1  0  0  0  0
 21 29  1  1  0  0  0
 21 25  1  0  0  0  0
 22 25  1  0  0  0  0
 22 27  1  1  0  0  0
 23 33  1  1  0  0  0
 23 24  1  0  0  0  0
 23 21  1  0  0  0  0
 24 22  1  0  0  0  0
 25 20  1  6  0  0  0
 26 27  2  0  0  0  0
 27 28  1  0  0  0  0
 29 30  1  0  0  0  0
 31 30  1  0  0  0  0
 31 32  1  0  0  0  0
 34 33  1  0  0  0  0
 35 34  2  0  0  0  0
 37 36  1  6  0  0  0
 37 43  1  0  0  0  0
 38 42  1  0  0  0  0
 39 44  1  0  0  0  0
 40 41  2  0  0  0  0
 41 39  1  0  0  0  0
 42 39  2  0  0  0  0
 43 38  2  0  0  0  0
 43 40  1  0  0  0  0
 44 46  1  0  0  0  0
 44 45  1  0  0  0  0
 47 37  1  0  0  0  0
 47 48  1  0  0  0  0
 49 53  1  0  0  0  0
 50 54  1  0  0  0  0
 50 51  1  0  0  0  0
 52 55  1  0  0  0  0
 52 49  2  0  0  0  0
 53 51  2  0  0  0  0
 53 48  1  0  0  0  0
 55 50  2  0  0  0  0
M  END
>  <MODEL>
9

>  <REMARK>
 VINA RESULT:      -5.0      2.966      6.223
  Name = 
  19 active torsions:
  status: ('A' for Active; 'I' for Inactive)
    1  A    between atoms: C_1  and  C_30
    2  A    between atoms: C_2  and  O_28
    3  A    between atoms: C_2  and  C_44
    4  A    between atoms: C_6  and  O_8
    5  A    between atoms: C_6  and  C_46
    6  A    between atoms: C_7  and  O_8
    7  A    between atoms: C_7  and  C_23
    8  A    between atoms: C_7  and  C_43
    9  A    between atoms: N_10  and  C_32
   10  A    between atoms: C_11  and  C_29
   11  A    between atoms: C_12  and  O_14
   12  A    between atoms: O_14  and  C_46
   13  A    between atoms: C_17  and  C_23
   14  A    between atoms: C_19  and  C_49
   15  A    between atoms: C_20  and  C_30
   16  A    between atoms: O_28  and  C_33
   17  A    between atoms: C_33  and  C_49
   18  A    between atoms: C_33  and  C_52
   19  A    between atoms: C_35  and  C_43
                            x       y       z     vdW  Elec       q    Type
                         _______ _______ _______ _____ _____    ______ ____

>  <TORSDO>
F 19

$$$$
