=
 OpenBabel11052417263D

 25 28  0  0  1  0  0  0  0  0999 V2000
  186.8960  177.3520  143.8660 C   0  0  0  0  0  0  0  0  0  0  0  0
  188.2240  176.7060  143.5420 C   0  0  2  0  0  3  0  0  0  0  0  0
  186.3070  177.5440  141.3920 C   0  0  0  0  0  2  0  0  0  0  0  0
  186.5310  177.5800  145.2050 C   0  0  0  0  0  0  0  0  0  0  0  0
  185.0670  178.3460  146.9640 C   0  0  0  0  0  2  0  0  0  0  0  0
  187.4890  176.6100  141.1380 C   0  0  0  0  0  2  0  0  0  0  0  0
  184.3750  178.4280  144.5260 C   0  0  0  0  0  3  0  0  0  0  0  0
  185.3020  178.1200  145.5210 C   0  0  0  0  0  0  0  0  0  0  0  0
  186.4400  178.2950  147.6310 C   0  0  0  0  0  2  0  0  0  0  0  0
  185.9600  177.6590  142.8480 C   0  0  0  0  0  0  0  0  0  0  0  0
  184.7110  178.2010  143.1880 C   0  0  0  0  0  3  0  0  0  0  0  0
  187.5650  177.2610  146.6220 S   0  0  0  0  0  0  0  0  0  0  0  0
  188.6460  176.9200  142.0860 C   0  0  1  0  0  3  0  0  0  0  0  0
  189.0990  178.2290  141.8990 O   0  0  0  0  0  0  0  0  0  0  0  0
  190.1420  178.3370  142.6940 O   0  0  0  0  0  1  0  0  0  0  0  0
  188.1580  175.2800  143.8300 N   0  0  0  0  0  2  0  0  0  0  0  0
  189.8950  174.2410  145.1120 C   0  0  2  0  0  3  0  0  0  0  0  0
  189.5060  173.3940  144.0570 O   0  0  0  0  0  0  0  0  0  0  0  0
  189.5170  174.7710  143.7810 C   0  0  1  0  0  3  0  0  0  0  0  0
  191.3750  176.4580  146.3720 C   0  0  0  0  0  1  0  0  0  0  0  0
  191.3860  174.2020  145.2650 C   0  0  0  0  0  0  0  0  0  0  0  0
  192.0940  175.2700  145.9180 N   0  0  0  0  0  0  0  0  0  0  0  0
  192.0250  173.2290  144.7770 O   0  0  0  0  0  0  0  0  0  0  0  0
  194.2620  176.1940  146.4870 C   0  0  0  0  0  2  0  0  0  0  0  0
  193.5150  175.1660  146.0980 C   0  0  0  0  0  3  0  0  0  0  0  0
  1  4  1  0  0  0  0
  2 16  1  6  0  0  0
  2  1  1  0  0  0  0
  3 10  1  0  0  0  0
  4  8  2  0  0  0  0
  4 12  1  0  0  0  0
  5  9  1  0  0  0  0
  6  3  1  0  0  0  0
  6 13  1  0  0  0  0
  7  8  1  0  0  0  0
  8  5  1  0  0  0  0
 10 11  1  0  0  0  0
 10  1  2  0  0  0  0
 11  7  2  0  0  0  0
 12  9  1  0  0  0  0
 13 14  1  1  0  0  0
 13  2  1  0  0  0  0
 14 15  1  0  0  0  0
 17 21  1  6  0  0  0
 18 17  1  0  0  0  0
 19 16  1  1  0  0  0
 19 18  1  0  0  0  0
 19 17  1  0  0  0  0
 21 22  1  0  0  0  0
 22 25  1  0  0  0  0
 22 20  1  0  0  0  0
 23 21  2  0  0  0  0
 25 24  2  0  0  0  0
M  END
>  <MODEL>
1

>  <REMARK>
 VINA RESULT:      -6.6      0.000      0.000
  Name = 
  5 active torsions:
  status: ('A' for Active; 'I' for Inactive)
    1  A    between atoms: C_3  and  N_16
    2  A    between atoms: C_6  and  C_15
    3  A    between atoms: C_7  and  N_21
    4  A    between atoms: O_13  and  C_24
    5  A    between atoms: N_16  and  C_23
                            x       y       z     vdW  Elec       q    Type
                         _______ _______ _______ _____ _____    ______ ____

>  <TORSDO>
F 5

$$$$
=
 OpenBabel11052417263D

 25 28  0  0  1  0  0  0  0  0999 V2000
  186.4220  177.3610  143.4360 C   0  0  0  0  0  0  0  0  0  0  0  0
  187.5860  176.6390  142.7970 C   0  0  2  0  0  3  0  0  0  0  0  0
  185.6820  178.3040  141.1840 C   0  0  0  0  0  2  0  0  0  0  0  0
  186.2090  177.2680  144.8230 C   0  0  0  0  0  0  0  0  0  0  0  0
  185.0450  177.7340  146.8850 C   0  0  0  0  0  2  0  0  0  0  0  0
  186.6580  177.3100  140.5570 C   0  0  0  0  0  2  0  0  0  0  0  0
  184.1870  178.5770  144.6530 C   0  0  0  0  0  3  0  0  0  0  0  0
  185.1220  177.8770  145.4140 C   0  0  0  0  0  0  0  0  0  0  0  0
  186.4360  177.3020  147.3430 C   0  0  0  0  0  2  0  0  0  0  0  0
  185.4760  178.0680  142.6520 C   0  0  0  0  0  0  0  0  0  0  0  0
  184.3720  178.6760  143.2700 C   0  0  0  0  0  3  0  0  0  0  0  0
  187.2800  176.4270  145.9740 S   0  0  0  0  0  0  0  0  0  0  0  0
  187.9230  177.1770  141.4030 C   0  0  1  0  0  3  0  0  0  0  0  0
  188.5810  178.4060  141.5020 O   0  0  0  0  0  0  0  0  0  0  0  0
  189.6110  178.1690  142.2870 O   0  0  0  0  0  1  0  0  0  0  0  0
  187.2960  175.2150  142.7170 N   0  0  0  0  0  2  0  0  0  0  0  0
  188.3240  173.0920  142.2980 C   0  0  2  0  0  3  0  0  0  0  0  0
  188.1550  173.7900  141.0870 O   0  0  0  0  0  0  0  0  0  0  0  0
  188.4900  174.5630  142.2120 C   0  0  1  0  0  3  0  0  0  0  0  0
  189.6860  172.3760  144.8130 C   0  0  0  0  0  1  0  0  0  0  0  0
  189.6580  172.4070  142.3010 C   0  0  0  0  0  0  0  0  0  0  0  0
  190.2950  172.0250  143.5330 N   0  0  0  0  0  0  0  0  0  0  0  0
  190.2410  172.1990  141.2000 O   0  0  0  0  0  0  0  0  0  0  0  0
  192.6310  171.7500  144.1170 C   0  0  0  0  0  2  0  0  0  0  0  0
  191.5430  171.3170  143.4890 C   0  0  0  0  0  3  0  0  0  0  0  0
  1  4  1  0  0  0  0
  2 16  1  6  0  0  0
  2  1  1  0  0  0  0
  3 10  1  0  0  0  0
  4  8  2  0  0  0  0
  4 12  1  0  0  0  0
  5  9  1  0  0  0  0
  6  3  1  0  0  0  0
  6 13  1  0  0  0  0
  7  8  1  0  0  0  0
  8  5  1  0  0  0  0
 10 11  1  0  0  0  0
 10  1  2  0  0  0  0
 11  7  2  0  0  0  0
 12  9  1  0  0  0  0
 13 14  1  1  0  0  0
 13  2  1  0  0  0  0
 14 15  1  0  0  0  0
 17 21  1  6  0  0  0
 18 19  1  0  0  0  0
 18 17  1  0  0  0  0
 19 17  1  0  0  0  0
 19 16  1  1  0  0  0
 21 22  1  0  0  0  0
 22 20  1  0  0  0  0
 23 21  2  0  0  0  0
 25 22  1  0  0  0  0
 25 24  2  0  0  0  0
M  END
>  <MODEL>
2

>  <REMARK>
 VINA RESULT:      -6.4      2.343      2.568
  Name = 
  5 active torsions:
  status: ('A' for Active; 'I' for Inactive)
    1  A    between atoms: C_3  and  N_16
    2  A    between atoms: C_6  and  C_15
    3  A    between atoms: C_7  and  N_21
    4  A    between atoms: O_13  and  C_24
    5  A    between atoms: N_16  and  C_23
                            x       y       z     vdW  Elec       q    Type
                         _______ _______ _______ _____ _____    ______ ____

>  <TORSDO>
F 5

$$$$
=
 OpenBabel11052417263D

 25 28  0  0  1  0  0  0  0  0999 V2000
  188.7690  176.3450  145.0570 C   0  0  0  0  0  0  0  0  0  0  0  0
  190.1270  175.7010  144.8920 C   0  0  2  0  0  3  0  0  0  0  0  0
  188.4700  175.2840  147.3570 C   0  0  0  0  0  2  0  0  0  0  0  0
  188.2470  177.1620  144.0380 C   0  0  0  0  0  0  0  0  0  0  0  0
  186.5850  178.5900  143.0280 C   0  0  0  0  0  2  0  0  0  0  0  0
  189.9550  174.9330  147.2810 C   0  0  0  0  0  2  0  0  0  0  0  0
  186.3040  177.6770  145.3760 C   0  0  0  0  0  3  0  0  0  0  0  0
  187.0340  177.7990  144.1950 C   0  0  0  0  0  0  0  0  0  0  0  0
  187.4210  178.1120  141.8430 C   0  0  0  0  0  2  0  0  0  0  0  0
  188.0370  176.2170  146.2640 C   0  0  0  0  0  0  0  0  0  0  0  0
  186.8070  176.8770  146.4080 C   0  0  0  0  0  3  0  0  0  0  0  0
  189.0140  177.4480  142.4550 S   0  0  0  0  0  0  0  0  0  0  0  0
  190.3510  174.5360  145.8600 C   0  0  1  0  0  3  0  0  0  0  0  0
  189.6320  173.4130  145.4440 O   0  0  0  0  0  0  0  0  0  0  0  0
  190.0660  173.1730  144.2240 O   0  0  0  0  0  1  0  0  0  0  0  0
  191.1690  176.7010  145.0760 N   0  0  0  0  0  2  0  0  0  0  0  0
  193.5590  176.8560  145.0040 C   0  0  2  0  0  3  0  0  0  0  0  0
  193.1310  176.6630  146.3310 O   0  0  0  0  0  0  0  0  0  0  0  0
  192.4060  175.9860  145.3370 C   0  0  1  0  0  3  0  0  0  0  0  0
  194.3910  176.1400  142.2680 C   0  0  0  0  0  1  0  0  0  0  0  0
  194.7870  176.0340  144.7470 C   0  0  0  0  0  0  0  0  0  0  0  0
  195.2070  175.7250  143.4070 N   0  0  0  0  0  0  0  0  0  0  0  0
  195.4350  175.5800  145.7300 O   0  0  0  0  0  0  0  0  0  0  0  0
  197.5850  175.5830  142.9610 C   0  0  0  0  0  2  0  0  0  0  0  0
  196.4220  174.9870  143.2030 C   0  0  0  0  0  3  0  0  0  0  0  0
  1 10  1  0  0  0  0
  2  1  1  0  0  0  0
  2 16  1  1  0  0  0
  2 13  1  0  0  0  0
  4  8  1  0  0  0  0
  4  1  2  0  0  0  0
  5  8  1  0  0  0  0
  6  3  1  0  0  0  0
  7 11  1  0  0  0  0
  8  7  2  0  0  0  0
  9 12  1  0  0  0  0
  9  5  1  0  0  0  0
 10 11  2  0  0  0  0
 10  3  1  0  0  0  0
 12  4  1  0  0  0  0
 13 14  1  6  0  0  0
 13  6  1  0  0  0  0
 15 14  1  0  0  0  0
 17 21  1  1  0  0  0
 17 19  1  0  0  0  0
 17 18  1  0  0  0  0
 19 16  1  6  0  0  0
 19 18  1  0  0  0  0
 20 22  1  0  0  0  0
 21 23  2  0  0  0  0
 22 21  1  0  0  0  0
 24 25  2  0  0  0  0
 25 22  1  0  0  0  0
M  END
>  <MODEL>
3

>  <REMARK>
 VINA RESULT:      -6.4      2.618      4.487
  Name = 
  5 active torsions:
  status: ('A' for Active; 'I' for Inactive)
    1  A    between atoms: C_3  and  N_16
    2  A    between atoms: C_6  and  C_15
    3  A    between atoms: C_7  and  N_21
    4  A    between atoms: O_13  and  C_24
    5  A    between atoms: N_16  and  C_23
                            x       y       z     vdW  Elec       q    Type
                         _______ _______ _______ _____ _____    ______ ____

>  <TORSDO>
F 5

$$$$
=
 OpenBabel11052417263D

 25 28  0  0  1  0  0  0  0  0999 V2000
  186.8940  177.2340  143.3270 C   0  0  0  0  0  0  0  0  0  0  0  0
  187.1840  177.1830  144.8090 C   0  0  2  0  0  3  0  0  0  0  0  0
  185.2640  179.1710  143.6420 C   0  0  0  0  0  2  0  0  0  0  0  0
  187.5260  176.3310  142.4530 C   0  0  0  0  0  0  0  0  0  0  0  0
  188.0070  175.3620  140.2960 C   0  0  0  0  0  2  0  0  0  0  0  0
  185.8300  179.2890  145.0560 C   0  0  0  0  0  2  0  0  0  0  0  0
  186.4900  177.3790  140.5400 C   0  0  0  0  0  3  0  0  0  0  0  0
  187.3130  176.3980  141.0920 C   0  0  0  0  0  0  0  0  0  0  0  0
  188.4170  174.2720  141.2840 C   0  0  0  0  0  2  0  0  0  0  0  0
  186.0570  178.2360  142.7760 C   0  0  0  0  0  0  0  0  0  0  0  0
  185.8570  178.2940  141.3880 C   0  0  0  0  0  3  0  0  0  0  0  0
  188.6090  175.0060  142.9500 S   0  0  0  0  0  0  0  0  0  0  0  0
  186.1260  177.9100  145.6450 C   0  0  1  0  0  3  0  0  0  0  0  0
  184.9580  177.1470  145.7220 O   0  0  0  0  0  0  0  0  0  0  0  0
  184.1820  177.8100  146.5540 O   0  0  0  0  0  1  0  0  0  0  0  0
  188.4960  177.7550  145.0720 N   0  0  0  0  0  2  0  0  0  0  0  0
  190.5180  177.3780  146.3000 C   0  0  2  0  0  3  0  0  0  0  0  0
  189.4080  177.2590  147.1580 O   0  0  0  0  0  0  0  0  0  0  0  0
  189.2400  176.7790  145.8480 C   0  0  1  0  0  3  0  0  0  0  0  0
  192.6980  176.6920  144.4380 C   0  0  0  0  0  1  0  0  0  0  0  0
  191.5200  176.3090  146.6240 C   0  0  0  0  0  0  0  0  0  0  0  0
  192.6040  176.0110  145.7270 N   0  0  0  0  0  0  0  0  0  0  0  0
  191.3800  175.6420  147.6860 O   0  0  0  0  0  0  0  0  0  0  0  0
  194.8780  175.2860  146.1480 C   0  0  0  0  0  2  0  0  0  0  0  0
  193.5760  175.0230  146.1020 C   0  0  0  0  0  3  0  0  0  0  0  0
  1  2  1  0  0  0  0
  2 16  1  6  0  0  0
  2 13  1  0  0  0  0
  3  6  1  0  0  0  0
  4 12  1  0  0  0  0
  4  1  2  0  0  0  0
  5  8  1  0  0  0  0
  5  9  1  0  0  0  0
  6 13  1  0  0  0  0
  7  8  2  0  0  0  0
  7 11  1  0  0  0  0
  8  4  1  0  0  0  0
  9 12  1  0  0  0  0
 10  1  1  0  0  0  0
 10  3  1  0  0  0  0
 11 10  2  0  0  0  0
 13 14  1  6  0  0  0
 14 15  1  0  0  0  0
 17 21  1  1  0  0  0
 17 18  1  0  0  0  0
 19 16  1  6  0  0  0
 19 17  1  0  0  0  0
 19 18  1  0  0  0  0
 20 22  1  0  0  0  0
 21 23  2  0  0  0  0
 22 25  1  0  0  0  0
 22 21  1  0  0  0  0
 25 24  2  0  0  0  0
M  END
>  <MODEL>
4

>  <REMARK>
 VINA RESULT:      -6.4      2.642      4.134
  Name = 
  5 active torsions:
  status: ('A' for Active; 'I' for Inactive)
    1  A    between atoms: C_3  and  N_16
    2  A    between atoms: C_6  and  C_15
    3  A    between atoms: C_7  and  N_21
    4  A    between atoms: O_13  and  C_24
    5  A    between atoms: N_16  and  C_23
                            x       y       z     vdW  Elec       q    Type
                         _______ _______ _______ _____ _____    ______ ____

>  <TORSDO>
F 5

$$$$
=
 OpenBabel11052417263D

 25 28  0  0  1  0  0  0  0  0999 V2000
  187.8180  176.2870  144.2250 C   0  0  0  0  0  0  0  0  0  0  0  0
  188.0350  176.2060  142.7310 C   0  0  2  0  0  3  0  0  0  0  0  0
  185.6160  177.5350  143.9060 C   0  0  0  0  0  2  0  0  0  0  0  0
  188.7650  175.7350  145.1060 C   0  0  0  0  0  0  0  0  0  0  0  0
  189.6520  175.1790  147.2800 C   0  0  0  0  0  2  0  0  0  0  0  0
  185.7200  177.1440  142.4330 C   0  0  0  0  0  2  0  0  0  0  0  0
  187.3900  176.2920  147.0120 C   0  0  0  0  0  3  0  0  0  0  0  0
  188.5560  175.7540  146.4700 C   0  0  0  0  0  0  0  0  0  0  0  0
  190.8720  175.1190  146.3640 C   0  0  0  0  0  2  0  0  0  0  0  0
  186.6280  176.8340  144.7650 C   0  0  0  0  0  0  0  0  0  0  0  0
  186.4290  176.8380  146.1540 C   0  0  0  0  0  3  0  0  0  0  0  0
  190.3170  175.0040  144.6230 S   0  0  0  0  0  0  0  0  0  0  0  0
  187.1700  177.2000  141.9520 C   0  0  1  0  0  3  0  0  0  0  0  0
  187.6810  178.4950  142.0800 O   0  0  0  0  0  0  0  0  0  0  0  0
  188.9450  178.3890  141.7300 O   0  0  0  0  0  1  0  0  0  0  0  0
  187.7660  174.8520  142.2690 N   0  0  0  0  0  2  0  0  0  0  0  0
  188.5090  173.1890  140.7130 C   0  0  2  0  0  3  0  0  0  0  0  0
  188.2340  174.3910  140.0340 O   0  0  0  0  0  0  0  0  0  0  0  0
  188.8040  174.5120  141.3120 C   0  0  1  0  0  3  0  0  0  0  0  0
  190.1120  171.2690  142.2740 C   0  0  0  0  0  1  0  0  0  0  0  0
  189.7550  172.5700  140.1540 C   0  0  0  0  0  0  0  0  0  0  0  0
  190.5080  171.6040  140.9080 N   0  0  0  0  0  0  0  0  0  0  0  0
  190.1630  172.9370  139.0170 O   0  0  0  0  0  0  0  0  0  0  0  0
  191.7200  169.6880  140.0510 C   0  0  0  0  0  2  0  0  0  0  0  0
  191.6610  170.9900  140.3120 C   0  0  0  0  0  3  0  0  0  0  0  0
  1 10  2  0  0  0  0
  1  4  1  0  0  0  0
  2 16  1  6  0  0  0
  2  1  1  0  0  0  0
  3 10  1  0  0  0  0
  4  8  2  0  0  0  0
  6  3  1  0  0  0  0
  8  7  1  0  0  0  0
  8  5  1  0  0  0  0
  9  5  1  0  0  0  0
 10 11  1  0  0  0  0
 11  7  2  0  0  0  0
 12  4  1  0  0  0  0
 12  9  1  0  0  0  0
 13 14  1  1  0  0  0
 13  6  1  0  0  0  0
 13  2  1  0  0  0  0
 15 14  1  0  0  0  0
 17 21  1  6  0  0  0
 17 19  1  0  0  0  0
 18 17  1  0  0  0  0
 18 19  1  0  0  0  0
 19 16  1  1  0  0  0
 21 22  1  0  0  0  0
 22 20  1  0  0  0  0
 23 21  2  0  0  0  0
 24 25  2  0  0  0  0
 25 22  1  0  0  0  0
M  END
>  <MODEL>
5

>  <REMARK>
 VINA RESULT:      -6.3      3.165      4.536
  Name = 
  5 active torsions:
  status: ('A' for Active; 'I' for Inactive)
    1  A    between atoms: C_3  and  N_16
    2  A    between atoms: C_6  and  C_15
    3  A    between atoms: C_7  and  N_21
    4  A    between atoms: O_13  and  C_24
    5  A    between atoms: N_16  and  C_23
                            x       y       z     vdW  Elec       q    Type
                         _______ _______ _______ _____ _____    ______ ____

>  <TORSDO>
F 5

$$$$
=
 OpenBabel11052417263D

 25 28  0  0  1  0  0  0  0  0999 V2000
  187.4650  177.6920  144.6460 C   0  0  0  0  0  0  0  0  0  0  0  0
  188.7900  177.0090  144.8950 C   0  0  2  0  0  3  0  0  0  0  0  0
  187.0860  178.0200  147.1470 C   0  0  0  0  0  2  0  0  0  0  0  0
  186.9970  177.8650  143.3310 C   0  0  0  0  0  0  0  0  0  0  0  0
  185.4220  178.6050  141.6590 C   0  0  0  0  0  2  0  0  0  0  0  0
  188.5520  177.6260  147.3220 C   0  0  0  0  0  2  0  0  0  0  0  0
  185.0680  179.0820  144.1240 C   0  0  0  0  0  3  0  0  0  0  0  0
  185.8160  178.5330  143.0840 C   0  0  0  0  0  0  0  0  0  0  0  0
  186.2460  177.5410  140.9370 C   0  0  0  0  0  2  0  0  0  0  0  0
  186.7140  178.2490  145.7110 C   0  0  0  0  0  0  0  0  0  0  0  0
  185.5180  178.9310  145.4400 C   0  0  0  0  0  3  0  0  0  0  0  0
  187.7960  177.2430  141.8640 S   0  0  0  0  0  0  0  0  0  0  0  0
  188.9440  176.5240  146.3400 C   0  0  1  0  0  3  0  0  0  0  0  0
  188.1730  175.3780  146.5530 O   0  0  0  0  0  0  0  0  0  0  0  0
  188.9440  174.5860  147.2680 O   0  0  0  0  0  1  0  0  0  0  0  0
  189.8800  177.9150  144.5630 N   0  0  0  0  0  2  0  0  0  0  0  0
  191.6300  177.1100  143.1380 C   0  0  2  0  0  3  0  0  0  0  0  0
  192.1700  177.9440  144.1360 O   0  0  0  0  0  0  0  0  0  0  0  0
  191.0960  177.1240  144.5210 C   0  0  1  0  0  3  0  0  0  0  0  0
  190.6200  174.5790  142.0140 C   0  0  0  0  0  1  0  0  0  0  0  0
  192.5310  175.9300  142.9290 C   0  0  0  0  0  0  0  0  0  0  0  0
  192.0380  174.7130  142.3410 N   0  0  0  0  0  0  0  0  0  0  0  0
  193.7320  176.0020  143.3110 O   0  0  0  0  0  0  0  0  0  0  0  0
  192.9820  172.5440  142.8700 C   0  0  0  0  0  2  0  0  0  0  0  0
  192.9470  173.6280  142.1020 C   0  0  0  0  0  3  0  0  0  0  0  0
  1  2  1  0  0  0  0
  1 10  1  0  0  0  0
  2 16  1  1  0  0  0
  2 13  1  0  0  0  0
  3  6  1  0  0  0  0
  4  1  2  0  0  0  0
  5  8  1  0  0  0  0
  7 11  1  0  0  0  0
  8  4  1  0  0  0  0
  8  7  2  0  0  0  0
  9  5  1  0  0  0  0
  9 12  1  0  0  0  0
 10  3  1  0  0  0  0
 11 10  2  0  0  0  0
 12  4  1  0  0  0  0
 13 14  1  6  0  0  0
 13  6  1  0  0  0  0
 14 15  1  0  0  0  0
 17 21  1  1  0  0  0
 17 18  1  0  0  0  0
 17 19  1  0  0  0  0
 18 19  1  0  0  0  0
 19 16  1  6  0  0  0
 20 22  1  0  0  0  0
 21 23  2  0  0  0  0
 22 21  1  0  0  0  0
 25 22  1  0  0  0  0
 25 24  2  0  0  0  0
M  END
>  <MODEL>
6

>  <REMARK>
 VINA RESULT:      -6.1      2.548      4.259
  Name = 
  5 active torsions:
  status: ('A' for Active; 'I' for Inactive)
    1  A    between atoms: C_3  and  N_16
    2  A    between atoms: C_6  and  C_15
    3  A    between atoms: C_7  and  N_21
    4  A    between atoms: O_13  and  C_24
    5  A    between atoms: N_16  and  C_23
                            x       y       z     vdW  Elec       q    Type
                         _______ _______ _______ _____ _____    ______ ____

>  <TORSDO>
F 5

$$$$
=
 OpenBabel11052417263D

 25 28  0  0  1  0  0  0  0  0999 V2000
  188.5220  176.3910  144.3490 C   0  0  0  0  0  0  0  0  0  0  0  0
  189.5950  176.0460  145.3570 C   0  0  2  0  0  3  0  0  0  0  0  0
  187.2300  177.7420  146.0840 C   0  0  0  0  0  2  0  0  0  0  0  0
  188.6120  175.9090  143.0310 C   0  0  0  0  0  0  0  0  0  0  0  0
  187.8620  175.6450  140.7520 C   0  0  0  0  0  2  0  0  0  0  0  0
  188.4820  177.6400  146.9540 C   0  0  0  0  0  2  0  0  0  0  0  0
  186.6180  177.1180  142.4000 C   0  0  0  0  0  3  0  0  0  0  0  0
  187.6690  176.2570  142.0860 C   0  0  0  0  0  0  0  0  0  0  0  0
  188.8230  174.4760  140.9560 C   0  0  0  0  0  2  0  0  0  0  0  0
  187.4590  177.2680  144.6780 C   0  0  0  0  0  0  0  0  0  0  0  0
  186.5130  177.6160  143.7020 C   0  0  0  0  0  3  0  0  0  0  0  0
  189.8690  174.8010  142.4240 S   0  0  0  0  0  0  0  0  0  0  0  0
  189.1430  176.2710  146.8030 C   0  0  1  0  0  3  0  0  0  0  0  0
  188.2700  175.2560  147.2030 O   0  0  0  0  0  0  0  0  0  0  0  0
  189.0560  174.2680  147.5760 O   0  0  0  0  0  1  0  0  0  0  0  0
  190.7900  176.8320  145.0880 N   0  0  0  0  0  2  0  0  0  0  0  0
  193.1710  176.8320  145.3570 C   0  0  2  0  0  3  0  0  0  0  0  0
  192.5470  176.6650  146.6080 O   0  0  0  0  0  0  0  0  0  0  0  0
  191.9280  176.0380  145.5130 C   0  0  1  0  0  3  0  0  0  0  0  0
  194.1920  175.8750  142.7620 C   0  0  0  0  0  1  0  0  0  0  0  0
  194.3670  175.9320  145.2680 C   0  0  0  0  0  0  0  0  0  0  0  0
  194.8820  175.5040  143.9950 N   0  0  0  0  0  0  0  0  0  0  0  0
  194.9020  175.5200  146.3340 O   0  0  0  0  0  0  0  0  0  0  0  0
  197.2480  175.1770  143.5830 C   0  0  0  0  0  2  0  0  0  0  0  0
  196.0660  174.6930  143.9510 C   0  0  0  0  0  3  0  0  0  0  0  0
  1 10  1  0  0  0  0
  1  2  1  0  0  0  0
  2 16  1  6  0  0  0
  2 13  1  0  0  0  0
  3  6  1  0  0  0  0
  4  1  2  0  0  0  0
  5  9  1  0  0  0  0
  5  8  1  0  0  0  0
  7 11  1  0  0  0  0
  8  7  2  0  0  0  0
  8  4  1  0  0  0  0
  9 12  1  0  0  0  0
 10  3  1  0  0  0  0
 11 10  2  0  0  0  0
 12  4  1  0  0  0  0
 13  6  1  0  0  0  0
 13 14  1  6  0  0  0
 14 15  1  0  0  0  0
 17 21  1  1  0  0  0
 17 19  1  0  0  0  0
 17 18  1  0  0  0  0
 19 16  1  6  0  0  0
 19 18  1  0  0  0  0
 20 22  1  0  0  0  0
 21 23  2  0  0  0  0
 22 21  1  0  0  0  0
 24 25  2  0  0  0  0
 25 22  1  0  0  0  0
M  END
>  <MODEL>
7

>  <REMARK>
 VINA RESULT:      -6.0      2.684      4.592
  Name = 
  5 active torsions:
  status: ('A' for Active; 'I' for Inactive)
    1  A    between atoms: C_3  and  N_16
    2  A    between atoms: C_6  and  C_15
    3  A    between atoms: C_7  and  N_21
    4  A    between atoms: O_13  and  C_24
    5  A    between atoms: N_16  and  C_23
                            x       y       z     vdW  Elec       q    Type
                         _______ _______ _______ _____ _____    ______ ____

>  <TORSDO>
F 5

$$$$
=
 OpenBabel11052417263D

 25 28  0  0  1  0  0  0  0  0999 V2000
  189.2180  176.5120  144.5830 C   0  0  0  0  0  0  0  0  0  0  0  0
  188.7350  176.1120  143.2080 C   0  0  2  0  0  3  0  0  0  0  0  0
  186.9060  177.3810  145.2190 C   0  0  0  0  0  2  0  0  0  0  0  0
  190.5590  176.2980  144.9500 C   0  0  0  0  0  0  0  0  0  0  0  0
  192.4450  176.3730  146.4530 C   0  0  0  0  0  2  0  0  0  0  0  0
  186.4010  176.6720  143.9620 C   0  0  0  0  0  2  0  0  0  0  0  0
  190.1330  177.1160  147.1820 C   0  0  0  0  0  3  0  0  0  0  0  0
  191.0040  176.6090  146.2180 C   0  0  0  0  0  0  0  0  0  0  0  0
  193.0860  176.2470  145.0730 C   0  0  0  0  0  2  0  0  0  0  0  0
  188.3240  177.0250  145.5560 C   0  0  0  0  0  0  0  0  0  0  0  0
  188.7930  177.3290  146.8430 C   0  0  0  0  0  3  0  0  0  0  0  0
  191.8310  175.6650  143.8730 S   0  0  0  0  0  0  0  0  0  0  0  0
  187.4150  176.7870  142.8250 C   0  0  1  0  0  3  0  0  0  0  0  0
  187.6320  178.1270  142.4930 O   0  0  0  0  0  0  0  0  0  0  0  0
  188.5730  178.0940  141.5720 O   0  0  0  0  0  1  0  0  0  0  0  0
  188.5840  174.6660  143.1430 N   0  0  0  0  0  2  0  0  0  0  0  0
  188.8460  173.0140  141.4280 C   0  0  2  0  0  3  0  0  0  0  0  0
  187.4830  173.1600  141.7480 O   0  0  0  0  0  0  0  0  0  0  0  0
  188.2590  174.3310  141.7680 C   0  0  1  0  0  3  0  0  0  0  0  0
  191.4100  173.5730  140.0830 C   0  0  0  0  0  1  0  0  0  0  0  0
  189.0010  172.8690  139.9430 C   0  0  0  0  0  0  0  0  0  0  0  0
  190.2670  173.1050  139.3020 N   0  0  0  0  0  0  0  0  0  0  0  0
  187.9900  172.5720  139.2490 O   0  0  0  0  0  0  0  0  0  0  0  0
  190.5420  173.8990  137.0290 C   0  0  0  0  0  2  0  0  0  0  0  0
  190.3880  172.8960  137.8870 C   0  0  0  0  0  3  0  0  0  0  0  0
  1  4  2  0  0  0  0
  1 10  1  0  0  0  0
  2 16  1  1  0  0  0
  2  1  1  0  0  0  0
  3 10  1  0  0  0  0
  4  8  1  0  0  0  0
  6  3  1  0  0  0  0
  8  5  1  0  0  0  0
  8  7  2  0  0  0  0
  9  5  1  0  0  0  0
 10 11  2  0  0  0  0
 11  7  1  0  0  0  0
 12  4  1  0  0  0  0
 12  9  1  0  0  0  0
 13 14  1  1  0  0  0
 13  2  1  0  0  0  0
 13  6  1  0  0  0  0
 15 14  1  0  0  0  0
 17 21  1  6  0  0  0
 17 18  1  0  0  0  0
 17 19  1  0  0  0  0
 18 19  1  0  0  0  0
 19 16  1  1  0  0  0
 22 21  1  0  0  0  0
 22 20  1  0  0  0  0
 23 21  2  0  0  0  0
 24 25  2  0  0  0  0
 25 22  1  0  0  0  0
M  END
>  <MODEL>
8

>  <REMARK>
 VINA RESULT:      -5.9      3.098      5.393
  Name = 
  5 active torsions:
  status: ('A' for Active; 'I' for Inactive)
    1  A    between atoms: C_3  and  N_16
    2  A    between atoms: C_6  and  C_15
    3  A    between atoms: C_7  and  N_21
    4  A    between atoms: O_13  and  C_24
    5  A    between atoms: N_16  and  C_23
                            x       y       z     vdW  Elec       q    Type
                         _______ _______ _______ _____ _____    ______ ____

>  <TORSDO>
F 5

$$$$
=
 OpenBabel11052417263D

 25 28  0  0  1  0  0  0  0  0999 V2000
  191.2370  174.4420  144.5660 C   0  0  0  0  0  0  0  0  0  0  0  0
  190.5960  175.7820  144.8420 C   0  0  2  0  0  3  0  0  0  0  0  0
  193.1820  174.9720  146.1290 C   0  0  0  0  0  2  0  0  0  0  0  0
  190.6250  173.5360  143.6810 C   0  0  0  0  0  0  0  0  0  0  0  0
  190.4460  171.4560  142.4710 C   0  0  0  0  0  2  0  0  0  0  0  0
  192.3420  176.1510  146.6150 C   0  0  0  0  0  2  0  0  0  0  0  0
  192.3230  171.8770  144.1230 C   0  0  0  0  0  3  0  0  0  0  0  0
  191.1690  172.2890  143.4570 C   0  0  0  0  0  0  0  0  0  0  0  0
  189.5460  172.4090  141.6880 C   0  0  0  0  0  2  0  0  0  0  0  0
  192.4090  174.0320  145.2490 C   0  0  0  0  0  0  0  0  0  0  0  0
  192.9450  172.7570  145.0140 C   0  0  0  0  0  3  0  0  0  0  0  0
  189.1520  173.8630  142.7300 S   0  0  0  0  0  0  0  0  0  0  0  0
  191.5710  176.7890  145.4610 C   0  0  1  0  0  3  0  0  0  0  0  0
  192.4510  177.2730  144.4890 O   0  0  0  0  0  0  0  0  0  0  0  0
  191.6820  177.9110  143.6320 O   0  0  0  0  0  1  0  0  0  0  0  0
  189.4490  175.6050  145.7220 N   0  0  0  0  0  2  0  0  0  0  0  0
  187.2380  176.5120  145.8850 C   0  0  2  0  0  3  0  0  0  0  0  0
  188.0520  177.0480  146.9020 O   0  0  0  0  0  0  0  0  0  0  0  0
  188.6690  176.8270  145.6590 C   0  0  1  0  0  3  0  0  0  0  0  0
  186.3030  176.4390  143.0900 C   0  0  0  0  0  1  0  0  0  0  0  0
  186.3620  177.5920  145.3230 C   0  0  0  0  0  0  0  0  0  0  0  0
  185.8770  177.5250  143.9700 N   0  0  0  0  0  0  0  0  0  0  0  0
  186.0800  178.5880  146.0440 O   0  0  0  0  0  0  0  0  0  0  0  0
  184.0010  178.2910  142.6410 C   0  0  0  0  0  2  0  0  0  0  0  0
  184.9910  178.5470  143.4900 C   0  0  0  0  0  3  0  0  0  0  0  0
  1  2  1  0  0  0  0
  1 10  1  0  0  0  0
  2 13  1  0  0  0  0
  2 16  1  1  0  0  0
  3  6  1  0  0  0  0
  4  1  2  0  0  0  0
  5  8  1  0  0  0  0
  7 11  1  0  0  0  0
  8  4  1  0  0  0  0
  8  7  2  0  0  0  0
  9  5  1  0  0  0  0
  9 12  1  0  0  0  0
 10  3  1  0  0  0  0
 11 10  2  0  0  0  0
 12  4  1  0  0  0  0
 13 14  1  6  0  0  0
 13  6  1  0  0  0  0
 15 14  1  0  0  0  0
 17 21  1  6  0  0  0
 17 18  1  0  0  0  0
 19 16  1  1  0  0  0
 19 17  1  0  0  0  0
 19 18  1  0  0  0  0
 20 22  1  0  0  0  0
 21 23  2  0  0  0  0
 22 21  1  0  0  0  0
 24 25  2  0  0  0  0
 25 22  1  0  0  0  0
M  END
>  <MODEL>
9

>  <REMARK>
 VINA RESULT:      -5.9      2.606      7.047
  Name = 
  5 active torsions:
  status: ('A' for Active; 'I' for Inactive)
    1  A    between atoms: C_3  and  N_16
    2  A    between atoms: C_6  and  C_15
    3  A    between atoms: C_7  and  N_21
    4  A    between atoms: O_13  and  C_24
    5  A    between atoms: N_16  and  C_23
                            x       y       z     vdW  Elec       q    Type
                         _______ _______ _______ _____ _____    ______ ____

>  <TORSDO>
F 5

$$$$
