=
 OpenBabel11052417183D

 30 32  0  0  1  0  0  0  0  0999 V2000
  188.0420  176.3260  144.5640 O   0  0  0  0  0  0  0  0  0  0  0  0
  190.3560  176.4720  145.2370 C   0  0  1  0  0  3  0  0  0  0  0  0
  186.9070  178.3490  147.6190 C   0  0  0  0  0  2  0  0  0  0  0  0
  186.7960  176.9630  144.6810 C   0  0  2  0  0  3  0  0  0  0  0  0
  185.5400  178.6470  147.7620 O   0  0  0  0  0  0  0  0  0  0  0  0
  190.6270  175.0880  145.8520 C   0  0  0  0  0  2  0  0  0  0  0  0
  190.6460  176.4600  143.8730 O   0  0  0  0  0  1  0  0  0  0  0  0
  187.0450  176.8820  147.2070 C   0  0  1  0  0  3  0  0  0  0  0  0
  189.4250  174.4150  146.1410 O   0  0  0  0  0  0  0  0  0  0  0  0
  188.9130  176.9370  145.4870 C   0  0  2  0  0  3  0  0  0  0  0  0
  186.1170  176.5670  146.0120 C   0  0  1  0  0  3  0  0  0  0  0  0
  185.0350  178.6440  146.5360 O   0  0  0  0  0  0  0  0  0  0  0  0
  184.7830  177.2940  146.2250 C   0  0  0  0  0  2  0  0  0  0  0  0
  188.8290  175.0770  147.2370 C   0  0  0  0  0  2  0  0  0  0  0  0
  188.5100  176.5530  146.9230 C   0  0  2  0  0  3  0  0  0  0  0  0
  185.9580  176.7010  143.4080 C   0  0  1  0  0  3  0  0  0  0  0  0
  186.0390  179.2380  143.1480 C   0  0  0  0  0  1  0  0  0  0  0  0
  185.4740  177.9290  142.6110 C   0  0  2  0  0  3  0  0  0  0  0  0
  183.3200  179.0330  143.3240 C   0  0  0  0  0  1  0  0  0  0  0  0
  183.9470  177.9570  142.4520 C   0  0  1  0  0  3  0  0  0  0  0  0
  183.5880  178.2490  141.0330 C   0  0  0  0  0  3  0  0  0  0  0  0
  181.1700  178.1560  140.2580 O   0  0  0  0  0  0  0  0  0  0  0  0
  182.3460  178.1990  140.6380 C   0  0  0  0  0  0  0  0  0  0  0  0
  186.5590  175.7570  142.5710 O   0  0  0  0  0  0  0  0  0  0  0  0
  187.1500  176.5090  141.5530 C   0  0  0  0  0  2  0  0  0  0  0  0
  187.8830  175.5960  140.5810 C   0  0  0  0  0  2  0  0  0  0  0  0
  188.8350  174.6560  141.3090 C   0  0  0  0  0  2  0  0  0  0  0  0
  188.1520  172.7490  139.8520 O   0  0  0  0  0  0  0  0  0  0  0  0
  188.4300  173.2330  141.1230 C   0  0  0  0  0  0  0  0  0  0  0  0
  188.3260  172.4730  142.1200 O   0  0  0  0  0  1  0  0  0  0  0  0
  1  4  1  0  0  0  0
  2  7  1  6  0  0  0
  2 10  1  0  0  0  0
  2  6  1  0  0  0  0
  3  5  1  0  0  0  0
  4 16  1  6  0  0  0
  4 11  1  0  0  0  0
  6  9  1  0  0  0  0
  8  3  1  6  0  0  0
  9 14  1  0  0  0  0
 10  1  1  6  0  0  0
 10 15  1  0  0  0  0
 11 13  1  1  0  0  0
 11  8  1  0  0  0  0
 12  5  1  0  0  0  0
 13 12  1  0  0  0  0
 15  8  1  0  0  0  0
 15 14  1  6  0  0  0
 16 24  1  6  0  0  0
 18 17  1  1  0  0  0
 18 16  1  0  0  0  0
 20 18  1  0  0  0  0
 20 19  1  1  0  0  0
 21 20  1  0  0  0  0
 22 23  2  0  0  0  0
 23 21  2  0  0  0  0
 25 24  1  0  0  0  0
 26 27  1  0  0  0  0
 26 25  1  0  0  0  0
 28 29  2  0  0  0  0
 29 27  1  0  0  0  0
 29 30  1  0  0  0  0
M  END
>  <MODEL>
1

>  <REMARK>
 VINA RESULT:      -6.9      0.000      0.000
  Name = 
  9 active torsions:
  status: ('A' for Active; 'I' for Inactive)
    1  A    between atoms: C_4  and  C_13
    2  A    between atoms: C_5  and  C_12
    3  A    between atoms: C_7  and  C_15
    4  A    between atoms: C_7  and  C_16
    5  A    between atoms: C_8  and  C_12
    6  A    between atoms: C_8  and  C_13
    7  A    between atoms: C_13  and  O_27
    8  A    between atoms: C_16  and  C_30
    9  A    between atoms: O_27  and  C_30
                            x       y       z     vdW  Elec       q    Type
                         _______ _______ _______ _____ _____    ______ ____

>  <TORSDO>
F 9

$$$$
=
 OpenBabel11052417183D

 30 32  0  0  1  0  0  0  0  0999 V2000
  188.5900  176.8340  143.0930 O   0  0  0  0  0  0  0  0  0  0  0  0
  187.0030  176.2350  141.3770 C   0  0  1  0  0  3  0  0  0  0  0  0
  185.9220  176.5230  145.8310 C   0  0  0  0  0  2  0  0  0  0  0  0
  188.8650  176.7030  144.4640 C   0  0  2  0  0  3  0  0  0  0  0  0
  186.2980  176.7370  147.1690 O   0  0  0  0  0  0  0  0  0  0  0  0
  186.6510  177.5900  140.7390 C   0  0  0  0  0  2  0  0  0  0  0  0
  188.0890  175.6580  140.7190 O   0  0  0  0  0  1  0  0  0  0  0  0
  186.5500  177.6190  144.9670 C   0  0  1  0  0  3  0  0  0  0  0  0
  187.0440  178.6590  141.5670 O   0  0  0  0  0  0  0  0  0  0  0  0
  187.2800  176.3640  142.8830 C   0  0  2  0  0  3  0  0  0  0  0  0
  188.0590  177.7470  145.2720 C   0  0  1  0  0  3  0  0  0  0  0  0
  187.5910  176.4490  147.2350 O   0  0  0  0  0  0  0  0  0  0  0  0
  188.2660  177.5990  146.7850 C   0  0  0  0  0  2  0  0  0  0  0  0
  186.1790  178.6610  142.6830 C   0  0  0  0  0  2  0  0  0  0  0  0
  186.2640  177.3500  143.4900 C   0  0  2  0  0  3  0  0  0  0  0  0
  190.3940  176.7290  144.6920 C   0  0  1  0  0  3  0  0  0  0  0  0
  190.0300  174.4220  145.7190 C   0  0  0  0  0  1  0  0  0  0  0  0
  191.0140  175.5620  145.4860 C   0  0  2  0  0  3  0  0  0  0  0  0
  191.1620  175.2930  147.9910 C   0  0  0  0  0  1  0  0  0  0  0  0
  191.7010  176.0330  146.7760 C   0  0  1  0  0  3  0  0  0  0  0  0
  193.1680  175.7760  146.6950 C   0  0  0  0  0  3  0  0  0  0  0  0
  194.7890  177.6560  146.1550 O   0  0  0  0  0  0  0  0  0  0  0  0
  193.9980  176.7430  146.4170 C   0  0  0  0  0  0  0  0  0  0  0  0
  191.0950  176.9650  143.5060 O   0  0  0  0  0  0  0  0  0  0  0  0
  191.8380  175.8000  143.2940 C   0  0  0  0  0  2  0  0  0  0  0  0
  193.0680  176.1070  142.4530 C   0  0  0  0  0  2  0  0  0  0  0  0
  194.3170  175.4520  143.0290 C   0  0  0  0  0  2  0  0  0  0  0  0
  195.6900  176.7820  141.4250 O   0  0  0  0  0  0  0  0  0  0  0  0
  195.5380  176.2400  142.6940 C   0  0  0  0  0  0  0  0  0  0  0  0
  196.4400  176.4010  143.5570 O   0  0  0  0  0  1  0  0  0  0  0  0
  1  4  1  0  0  0  0
  2  7  1  6  0  0  0
  2 10  1  0  0  0  0
  3  5  1  0  0  0  0
  4 16  1  6  0  0  0
  4 11  1  0  0  0  0
  5 12  1  0  0  0  0
  6  2  1  0  0  0  0
  6  9  1  0  0  0  0
  8 11  1  0  0  0  0
  8  3  1  1  0  0  0
  9 14  1  0  0  0  0
 10  1  1  6  0  0  0
 10 15  1  0  0  0  0
 11 13  1  1  0  0  0
 13 12  1  0  0  0  0
 15 14  1  6  0  0  0
 15  8  1  0  0  0  0
 16 24  1  6  0  0  0
 16 18  1  0  0  0  0
 18 17  1  1  0  0  0
 18 20  1  0  0  0  0
 20 19  1  1  0  0  0
 21 20  1  0  0  0  0
 22 23  2  0  0  0  0
 23 21  2  0  0  0  0
 25 24  1  0  0  0  0
 26 27  1  0  0  0  0
 26 25  1  0  0  0  0
 28 29  2  0  0  0  0
 29 27  1  0  0  0  0
 29 30  1  0  0  0  0
M  END
>  <MODEL>
2

>  <REMARK>
 VINA RESULT:      -6.6      2.813      6.846
  Name = 
  9 active torsions:
  status: ('A' for Active; 'I' for Inactive)
    1  A    between atoms: C_4  and  C_13
    2  A    between atoms: C_5  and  C_12
    3  A    between atoms: C_7  and  C_15
    4  A    between atoms: C_7  and  C_16
    5  A    between atoms: C_8  and  C_12
    6  A    between atoms: C_8  and  C_13
    7  A    between atoms: C_13  and  O_27
    8  A    between atoms: C_16  and  C_30
    9  A    between atoms: O_27  and  C_30
                            x       y       z     vdW  Elec       q    Type
                         _______ _______ _______ _____ _____    ______ ____

>  <TORSDO>
F 9

$$$$
=
 OpenBabel11052417183D

 30 32  0  0  1  0  0  0  0  0999 V2000
  188.6690  176.3910  143.1850 O   0  0  0  0  0  0  0  0  0  0  0  0
  187.1610  176.0060  141.3400 C   0  0  1  0  0  3  0  0  0  0  0  0
  185.7520  176.6580  145.6620 C   0  0  0  0  0  2  0  0  0  0  0  0
  188.7920  176.2700  144.5790 C   0  0  2  0  0  3  0  0  0  0  0  0
  186.0390  176.8580  147.0240 O   0  0  0  0  0  0  0  0  0  0  0  0
  187.1130  177.3740  140.6390 C   0  0  0  0  0  2  0  0  0  0  0  0
  188.1830  175.2240  140.8030 O   0  0  0  0  0  1  0  0  0  0  0  0
  186.6390  177.5920  144.8350 C   0  0  1  0  0  3  0  0  0  0  0  0
  187.6110  178.3920  141.4740 O   0  0  0  0  0  0  0  0  0  0  0  0
  187.3210  176.1460  142.8620 C   0  0  2  0  0  3  0  0  0  0  0  0
  188.1140  177.4700  145.2800 C   0  0  1  0  0  3  0  0  0  0  0  0
  187.2490  176.3540  147.2210 O   0  0  0  0  0  0  0  0  0  0  0  0
  188.1550  177.3500  146.8090 C   0  0  0  0  0  2  0  0  0  0  0  0
  186.6640  178.5900  142.5020 C   0  0  0  0  0  2  0  0  0  0  0  0
  186.4430  177.3170  143.3450 C   0  0  2  0  0  3  0  0  0  0  0  0
  190.2750  176.0410  144.9510 C   0  0  1  0  0  3  0  0  0  0  0  0
  191.3500  174.9690  147.0020 C   0  0  0  0  0  1  0  0  0  0  0  0
  190.6300  174.7300  145.6800 C   0  0  2  0  0  3  0  0  0  0  0  0
  192.6820  173.2900  145.3880 C   0  0  0  0  0  1  0  0  0  0  0  0
  191.3660  173.7350  144.7700 C   0  0  1  0  0  3  0  0  0  0  0  0
  190.5250  172.5220  144.5550 C   0  0  0  0  0  3  0  0  0  0  0  0
  188.6900  172.5040  142.7980 O   0  0  0  0  0  0  0  0  0  0  0  0
  189.5830  172.5160  143.6540 C   0  0  0  0  0  0  0  0  0  0  0  0
  191.1270  176.2640  143.8650 O   0  0  0  0  0  0  0  0  0  0  0  0
  191.8350  177.4200  144.2010 C   0  0  0  0  0  2  0  0  0  0  0  0
  193.2100  177.0570  144.7440 C   0  0  0  0  0  2  0  0  0  0  0  0
  194.0120  176.2440  143.7360 C   0  0  0  0  0  2  0  0  0  0  0  0
  195.7640  175.2530  145.2110 O   0  0  0  0  0  1  0  0  0  0  0  0
  195.4330  176.1070  144.1680 C   0  0  0  0  0  0  0  0  0  0  0  0
  196.3320  176.7780  143.5960 O   0  0  0  0  0  0  0  0  0  0  0  0
  1  4  1  0  0  0  0
  2  7  1  6  0  0  0
  2 10  1  0  0  0  0
  3  5  1  0  0  0  0
  4 16  1  6  0  0  0
  4 11  1  0  0  0  0
  5 12  1  0  0  0  0
  6  2  1  0  0  0  0
  6  9  1  0  0  0  0
  8 11  1  0  0  0  0
  8  3  1  1  0  0  0
  9 14  1  0  0  0  0
 10  1  1  6  0  0  0
 10 15  1  0  0  0  0
 11 13  1  1  0  0  0
 13 12  1  0  0  0  0
 15 14  1  6  0  0  0
 15  8  1  0  0  0  0
 16 24  1  6  0  0  0
 16 18  1  0  0  0  0
 18 17  1  1  0  0  0
 20 19  1  1  0  0  0
 20 18  1  0  0  0  0
 21 20  1  0  0  0  0
 22 23  2  0  0  0  0
 23 21  2  0  0  0  0
 24 25  1  0  0  0  0
 25 26  1  0  0  0  0
 27 29  1  0  0  0  0
 27 26  1  0  0  0  0
 29 28  1  0  0  0  0
 30 29  2  0  0  0  0
M  END
>  <MODEL>
3

>  <REMARK>
 VINA RESULT:      -6.6      2.497      6.435
  Name = 
  9 active torsions:
  status: ('A' for Active; 'I' for Inactive)
    1  A    between atoms: C_4  and  C_13
    2  A    between atoms: C_5  and  C_12
    3  A    between atoms: C_7  and  C_15
    4  A    between atoms: C_7  and  C_16
    5  A    between atoms: C_8  and  C_12
    6  A    between atoms: C_8  and  C_13
    7  A    between atoms: C_13  and  O_27
    8  A    between atoms: C_16  and  C_30
    9  A    between atoms: O_27  and  C_30
                            x       y       z     vdW  Elec       q    Type
                         _______ _______ _______ _____ _____    ______ ____

>  <TORSDO>
F 9

$$$$
=
 OpenBabel11052417183D

 30 32  0  0  1  0  0  0  0  0999 V2000
  192.6310  176.3200  144.5840 O   0  0  0  0  0  0  0  0  0  0  0  0
  194.9510  176.1960  145.2410 C   0  0  1  0  0  3  0  0  0  0  0  0
  192.2940  172.4990  144.6340 C   0  0  0  0  0  2  0  0  0  0  0  0
  191.4100  175.6270  144.6370 C   0  0  2  0  0  3  0  0  0  0  0  0
  191.0420  171.9280  144.3480 O   0  0  0  0  0  0  0  0  0  0  0  0
  195.7000  176.4350  143.9180 C   0  0  0  0  0  2  0  0  0  0  0  0
  194.7240  177.4080  145.8930 O   0  0  0  0  0  1  0  0  0  0  0  0
  192.5680  173.6090  143.6170 C   0  0  1  0  0  3  0  0  0  0  0  0
  194.8460  176.2640  142.8120 O   0  0  0  0  0  0  0  0  0  0  0  0
  193.6340  175.4350  145.0250 C   0  0  2  0  0  3  0  0  0  0  0  0
  191.3540  174.5610  143.5180 C   0  0  1  0  0  3  0  0  0  0  0  0
  190.1390  172.8440  144.6730 O   0  0  0  0  0  0  0  0  0  0  0  0
  190.0700  173.7230  143.5760 C   0  0  0  0  0  2  0  0  0  0  0  0
  194.5660  174.8830  142.7100 C   0  0  0  0  0  2  0  0  0  0  0  0
  193.8650  174.3360  143.9700 C   0  0  2  0  0  3  0  0  0  0  0  0
  190.2400  176.6380  144.6460 C   0  0  1  0  0  3  0  0  0  0  0  0
  190.4640  177.0520  147.1540 C   0  0  0  0  0  1  0  0  0  0  0  0
  189.5070  176.8630  145.9830 C   0  0  2  0  0  3  0  0  0  0  0  0
  188.8710  174.8440  147.3580 C   0  0  0  0  0  1  0  0  0  0  0  0
  188.4390  175.7930  146.2510 C   0  0  1  0  0  3  0  0  0  0  0  0
  187.1630  176.4400  146.6730 C   0  0  0  0  0  3  0  0  0  0  0  0
  185.5200  177.3250  144.9490 O   0  0  0  0  0  0  0  0  0  0  0  0
  186.3220  176.8940  145.7860 C   0  0  0  0  0  0  0  0  0  0  0  0
  190.5930  177.8520  144.0500 O   0  0  0  0  0  0  0  0  0  0  0  0
  190.0480  177.7890  142.7640 C   0  0  0  0  0  2  0  0  0  0  0  0
  188.5380  177.9650  142.8240 C   0  0  0  0  0  2  0  0  0  0  0  0
  187.8630  177.4290  141.5680 C   0  0  0  0  0  2  0  0  0  0  0  0
  186.9410  175.3530  142.6030 O   0  0  0  0  0  1  0  0  0  0  0  0
  187.7290  175.9450  141.6240 C   0  0  0  0  0  0  0  0  0  0  0  0
  188.3410  175.2260  140.7920 O   0  0  0  0  0  0  0  0  0  0  0  0
  1  4  1  0  0  0  0
  2  7  1  6  0  0  0
  4 16  1  6  0  0  0
  5  3  1  0  0  0  0
  5 12  1  0  0  0  0
  6  2  1  0  0  0  0
  8 15  1  0  0  0  0
  8  3  1  1  0  0  0
  9  6  1  0  0  0  0
 10  1  1  6  0  0  0
 10  2  1  0  0  0  0
 11 13  1  1  0  0  0
 11  8  1  0  0  0  0
 11  4  1  0  0  0  0
 13 12  1  0  0  0  0
 14  9  1  0  0  0  0
 15 14  1  6  0  0  0
 15 10  1  0  0  0  0
 16 24  1  1  0  0  0
 16 18  1  0  0  0  0
 18 20  1  0  0  0  0
 18 17  1  1  0  0  0
 20 21  1  0  0  0  0
 20 19  1  1  0  0  0
 22 23  2  0  0  0  0
 23 21  2  0  0  0  0
 25 26  1  0  0  0  0
 25 24  1  0  0  0  0
 27 29  1  0  0  0  0
 27 26  1  0  0  0  0
 29 28  1  0  0  0  0
 30 29  2  0  0  0  0
M  END
>  <MODEL>
4

>  <REMARK>
 VINA RESULT:      -6.6      2.805      5.940
  Name = 
  9 active torsions:
  status: ('A' for Active; 'I' for Inactive)
    1  A    between atoms: C_4  and  C_13
    2  A    between atoms: C_5  and  C_12
    3  A    between atoms: C_7  and  C_15
    4  A    between atoms: C_7  and  C_16
    5  A    between atoms: C_8  and  C_12
    6  A    between atoms: C_8  and  C_13
    7  A    between atoms: C_13  and  O_27
    8  A    between atoms: C_16  and  C_30
    9  A    between atoms: O_27  and  C_30
                            x       y       z     vdW  Elec       q    Type
                         _______ _______ _______ _____ _____    ______ ____

>  <TORSDO>
F 9

$$$$
=
 OpenBabel11052417183D

 30 32  0  0  1  0  0  0  0  0999 V2000
  190.1000  174.2110  143.3160 O   0  0  0  0  0  0  0  0  0  0  0  0
  189.1940  172.1150  142.5340 C   0  0  1  0  0  3  0  0  0  0  0  0
  187.0270  176.1370  142.0670 C   0  0  0  0  0  2  0  0  0  0  0  0
  189.7420  175.5020  143.7380 C   0  0  2  0  0  3  0  0  0  0  0  0
  186.9590  177.5230  142.2960 O   0  0  0  0  0  0  0  0  0  0  0  0
  189.9690  171.8670  141.2280 C   0  0  0  0  0  2  0  0  0  0  0  0
  189.8660  171.5400  143.6120 O   0  0  0  0  0  1  0  0  0  0  0  0
  188.4360  175.7920  141.5790 C   0  0  1  0  0  3  0  0  0  0  0  0
  190.6010  173.0430  140.7800 O   0  0  0  0  0  0  0  0  0  0  0  0
  188.9450  173.6120  142.7770 C   0  0  2  0  0  3  0  0  0  0  0  0
  189.4980  176.4140  142.5130 C   0  0  1  0  0  3  0  0  0  0  0  0
  187.7000  177.7520  143.3720 O   0  0  0  0  0  0  0  0  0  0  0  0
  189.0310  177.8190  142.9170 C   0  0  0  0  0  2  0  0  0  0  0  0
  189.5870  173.9120  140.3220 C   0  0  0  0  0  2  0  0  0  0  0  0
  188.5850  174.2780  141.4360 C   0  0  2  0  0  3  0  0  0  0  0  0
  190.7840  176.0240  144.7540 C   0  0  1  0  0  3  0  0  0  0  0  0
  191.3850  175.4190  147.1580 C   0  0  0  0  0  1  0  0  0  0  0  0
  190.3660  176.0780  146.2360 C   0  0  2  0  0  3  0  0  0  0  0  0
  188.8890  174.5250  147.5710 C   0  0  0  0  0  1  0  0  0  0  0  0
  188.9360  175.5620  146.4590 C   0  0  1  0  0  3  0  0  0  0  0  0
  188.0410  176.6920  146.8460 C   0  0  0  0  0  3  0  0  0  0  0  0
  185.5810  176.6770  146.2150 O   0  0  0  0  0  0  0  0  0  0  0  0
  186.7790  176.6820  146.5200 C   0  0  0  0  0  0  0  0  0  0  0  0
  192.0240  175.3980  144.5990 O   0  0  0  0  0  0  0  0  0  0  0  0
  192.8390  176.3660  144.0060 C   0  0  0  0  0  2  0  0  0  0  0  0
  193.7490  176.9980  145.0500 C   0  0  0  0  0  2  0  0  0  0  0  0
  194.9050  176.0750  145.4150 C   0  0  0  0  0  2  0  0  0  0  0  0
  196.4360  176.8850  143.6190 O   0  0  0  0  0  0  0  0  0  0  0  0
  195.7850  175.8260  144.2370 C   0  0  0  0  0  0  0  0  0  0  0  0
  195.9270  174.6580  143.7930 O   0  0  0  0  0  1  0  0  0  0  0  0
  1  4  1  0  0  0  0
  2 10  1  0  0  0  0
  2  7  1  1  0  0  0
  3  5  1  0  0  0  0
  4 16  1  1  0  0  0
  5 12  1  0  0  0  0
  6  2  1  0  0  0  0
  8  3  1  1  0  0  0
  8 11  1  0  0  0  0
  9  6  1  0  0  0  0
 10  1  1  6  0  0  0
 11 13  1  1  0  0  0
 11  4  1  0  0  0  0
 13 12  1  0  0  0  0
 14  9  1  0  0  0  0
 15 14  1  6  0  0  0
 15  8  1  0  0  0  0
 15 10  1  0  0  0  0
 16 24  1  1  0  0  0
 16 18  1  0  0  0  0
 18 20  1  0  0  0  0
 18 17  1  1  0  0  0
 20 21  1  0  0  0  0
 20 19  1  1  0  0  0
 22 23  2  0  0  0  0
 23 21  2  0  0  0  0
 25 24  1  0  0  0  0
 25 26  1  0  0  0  0
 26 27  1  0  0  0  0
 28 29  2  0  0  0  0
 29 27  1  0  0  0  0
 30 29  1  0  0  0  0
M  END
>  <MODEL>
5

>  <REMARK>
 VINA RESULT:      -6.3      2.607      6.450
  Name = 
  9 active torsions:
  status: ('A' for Active; 'I' for Inactive)
    1  A    between atoms: C_4  and  C_13
    2  A    between atoms: C_5  and  C_12
    3  A    between atoms: C_7  and  C_15
    4  A    between atoms: C_7  and  C_16
    5  A    between atoms: C_8  and  C_12
    6  A    between atoms: C_8  and  C_13
    7  A    between atoms: C_13  and  O_27
    8  A    between atoms: C_16  and  C_30
    9  A    between atoms: O_27  and  C_30
                            x       y       z     vdW  Elec       q    Type
                         _______ _______ _______ _____ _____    ______ ____

>  <TORSDO>
F 9

$$$$
=
 OpenBabel11052417183D

 30 32  0  0  1  0  0  0  0  0999 V2000
  188.2390  177.0250  143.2940 O   0  0  0  0  0  0  0  0  0  0  0  0
  186.4920  176.6420  141.6730 C   0  0  1  0  0  3  0  0  0  0  0  0
  185.7660  176.6920  146.2080 C   0  0  0  0  0  2  0  0  0  0  0  0
  188.6050  176.7840  144.6280 C   0  0  2  0  0  3  0  0  0  0  0  0
  186.2540  176.7910  147.5220 O   0  0  0  0  0  0  0  0  0  0  0  0
  186.1850  178.0560  141.1520 C   0  0  0  0  0  2  0  0  0  0  0  0
  187.4850  176.0460  140.8960 O   0  0  0  0  0  1  0  0  0  0  0  0
  186.3990  177.8040  145.3680 C   0  0  1  0  0  3  0  0  0  0  0  0
  186.7080  179.0410  142.0120 O   0  0  0  0  0  0  0  0  0  0  0  0
  186.8880  176.6510  143.1570 C   0  0  2  0  0  3  0  0  0  0  0  0
  187.9330  177.8180  145.5610 C   0  0  1  0  0  3  0  0  0  0  0  0
  187.5260  176.4200  147.4690 O   0  0  0  0  0  0  0  0  0  0  0  0
  188.2410  177.5550  147.0410 C   0  0  0  0  0  2  0  0  0  0  0  0
  185.9310  179.0200  143.1910 C   0  0  0  0  0  2  0  0  0  0  0  0
  185.9870  177.6540  143.9040 C   0  0  2  0  0  3  0  0  0  0  0  0
  190.1450  176.7000  144.7360 C   0  0  1  0  0  3  0  0  0  0  0  0
  189.6920  174.4820  145.9140 C   0  0  0  0  0  1  0  0  0  0  0  0
  190.7380  175.5250  145.5380 C   0  0  2  0  0  3  0  0  0  0  0  0
  191.1450  175.2910  148.0180 C   0  0  0  0  0  1  0  0  0  0  0  0
  191.5690  175.9980  146.7400 C   0  0  1  0  0  3  0  0  0  0  0  0
  193.0130  175.7040  146.5100 C   0  0  0  0  0  3  0  0  0  0  0  0
  194.6150  177.5380  145.7860 O   0  0  0  0  0  0  0  0  0  0  0  0
  193.8320  176.6470  146.1370 C   0  0  0  0  0  0  0  0  0  0  0  0
  190.7650  176.8270  143.4890 O   0  0  0  0  0  0  0  0  0  0  0  0
  191.3120  175.5670  143.2340 C   0  0  0  0  0  2  0  0  0  0  0  0
  190.6320  174.9330  142.0290 C   0  0  0  0  0  2  0  0  0  0  0  0
  190.0650  173.5600  142.3650 C   0  0  0  0  0  2  0  0  0  0  0  0
  190.2310  172.4740  140.1240 O   0  0  0  0  0  0  0  0  0  0  0  0
  189.4370  172.9320  141.1670 C   0  0  0  0  0  0  0  0  0  0  0  0
  188.1850  172.8290  141.0940 O   0  0  0  0  0  1  0  0  0  0  0  0
  1  4  1  0  0  0  0
  2  7  1  6  0  0  0
  2 10  1  0  0  0  0
  3  5  1  0  0  0  0
  4 16  1  6  0  0  0
  4 11  1  0  0  0  0
  6  2  1  0  0  0  0
  6  9  1  0  0  0  0
  8 11  1  0  0  0  0
  8  3  1  1  0  0  0
  9 14  1  0  0  0  0
 10  1  1  6  0  0  0
 10 15  1  0  0  0  0
 11 13  1  1  0  0  0
 12  5  1  0  0  0  0
 13 12  1  0  0  0  0
 15 14  1  6  0  0  0
 15  8  1  0  0  0  0
 16 24  1  6  0  0  0
 16 18  1  0  0  0  0
 18 17  1  1  0  0  0
 18 20  1  0  0  0  0
 20 19  1  1  0  0  0
 21 20  1  0  0  0  0
 22 23  2  0  0  0  0
 23 21  2  0  0  0  0
 25 24  1  0  0  0  0
 26 27  1  0  0  0  0
 26 25  1  0  0  0  0
 28 29  2  0  0  0  0
 29 27  1  0  0  0  0
 30 29  1  0  0  0  0
M  END
>  <MODEL>
6

>  <REMARK>
 VINA RESULT:      -6.3      2.015      6.070
  Name = 
  9 active torsions:
  status: ('A' for Active; 'I' for Inactive)
    1  A    between atoms: C_4  and  C_13
    2  A    between atoms: C_5  and  C_12
    3  A    between atoms: C_7  and  C_15
    4  A    between atoms: C_7  and  C_16
    5  A    between atoms: C_8  and  C_12
    6  A    between atoms: C_8  and  C_13
    7  A    between atoms: C_13  and  O_27
    8  A    between atoms: C_16  and  C_30
    9  A    between atoms: O_27  and  C_30
                            x       y       z     vdW  Elec       q    Type
                         _______ _______ _______ _____ _____    ______ ____

>  <TORSDO>
F 9

$$$$
=
 OpenBabel11052417183D

 30 32  0  0  1  0  0  0  0  0999 V2000
  192.1590  175.8910  145.0590 O   0  0  0  0  0  0  0  0  0  0  0  0
  194.3390  175.7210  146.0820 C   0  0  1  0  0  3  0  0  0  0  0  0
  192.0500  172.1150  144.3920 C   0  0  0  0  0  2  0  0  0  0  0  0
  190.9910  175.1640  144.7760 C   0  0  2  0  0  3  0  0  0  0  0  0
  190.9010  171.5670  143.7960 O   0  0  0  0  0  0  0  0  0  0  0  0
  195.2830  176.2150  144.9720 C   0  0  0  0  0  2  0  0  0  0  0  0
  193.9330  176.7880  146.8820 O   0  0  0  0  0  1  0  0  0  0  0  0
  192.4230  173.3970  143.6440 C   0  0  1  0  0  3  0  0  0  0  0  0
  194.6390  176.2200  143.7200 O   0  0  0  0  0  0  0  0  0  0  0  0
  193.1250  174.9710  145.5100 C   0  0  2  0  0  3  0  0  0  0  0  0
  191.1880  174.3150  143.4990 C   0  0  1  0  0  3  0  0  0  0  0  0
  189.9030  172.3820  144.1090 O   0  0  0  0  0  0  0  0  0  0  0  0
  189.9650  173.4420  143.1850 C   0  0  0  0  0  2  0  0  0  0  0  0
  194.4640  174.8730  143.3360 C   0  0  0  0  0  2  0  0  0  0  0  0
  193.5960  174.0870  144.3390 C   0  0  2  0  0  3  0  0  0  0  0  0
  189.7770  176.1210  144.7530 C   0  0  1  0  0  3  0  0  0  0  0  0
  190.0530  178.2840  143.4280 C   0  0  0  0  0  1  0  0  0  0  0  0
  189.4870  176.8690  143.4360 C   0  0  2  0  0  3  0  0  0  0  0  0
  187.3340  178.1700  143.2300 C   0  0  0  0  0  1  0  0  0  0  0  0
  188.0020  176.8160  143.0490 C   0  0  1  0  0  3  0  0  0  0  0  0
  187.8630  176.4220  141.6160 C   0  0  0  0  0  3  0  0  0  0  0  0
  186.2610  177.6560  140.0790 O   0  0  0  0  0  0  0  0  0  0  0  0
  187.0390  177.0570  140.8300 C   0  0  0  0  0  0  0  0  0  0  0  0
  188.6230  175.5130  145.2560 O   0  0  0  0  0  0  0  0  0  0  0  0
  188.5840  175.8840  146.6030 C   0  0  0  0  0  2  0  0  0  0  0  0
  187.6980  177.1070  146.7860 C   0  0  0  0  0  2  0  0  0  0  0  0
  186.2430  176.7970  146.4590 C   0  0  0  0  0  2  0  0  0  0  0  0
  184.0660  178.0120  146.3400 O   0  0  0  0  0  0  0  0  0  0  0  0
  185.3520  177.9250  146.8560 C   0  0  0  0  0  0  0  0  0  0  0  0
  185.7700  178.8070  147.6500 O   0  0  0  0  0  1  0  0  0  0  0  0
  2  7  1  6  0  0  0
  4 16  1  6  0  0  0
  4  1  1  0  0  0  0
  5 12  1  0  0  0  0
  5  3  1  0  0  0  0
  6  2  1  0  0  0  0
  8 15  1  0  0  0  0
  8  3  1  1  0  0  0
  9  6  1  0  0  0  0
 10  1  1  6  0  0  0
 10  2  1  0  0  0  0
 11 13  1  1  0  0  0
 11  8  1  0  0  0  0
 11  4  1  0  0  0  0
 13 12  1  0  0  0  0
 14  9  1  0  0  0  0
 15 14  1  6  0  0  0
 15 10  1  0  0  0  0
 16 24  1  6  0  0  0
 18 17  1  1  0  0  0
 18 16  1  0  0  0  0
 20 19  1  6  0  0  0
 20 18  1  0  0  0  0
 21 20  1  0  0  0  0
 22 23  2  0  0  0  0
 23 21  2  0  0  0  0
 24 25  1  0  0  0  0
 25 26  1  0  0  0  0
 27 26  1  0  0  0  0
 27 29  1  0  0  0  0
 28 29  2  0  0  0  0
 29 30  1  0  0  0  0
M  END
>  <MODEL>
7

>  <REMARK>
 VINA RESULT:      -6.2      2.623      6.132
  Name = 
  9 active torsions:
  status: ('A' for Active; 'I' for Inactive)
    1  A    between atoms: C_4  and  C_13
    2  A    between atoms: C_5  and  C_12
    3  A    between atoms: C_7  and  C_15
    4  A    between atoms: C_7  and  C_16
    5  A    between atoms: C_8  and  C_12
    6  A    between atoms: C_8  and  C_13
    7  A    between atoms: C_13  and  O_27
    8  A    between atoms: C_16  and  C_30
    9  A    between atoms: O_27  and  C_30
                            x       y       z     vdW  Elec       q    Type
                         _______ _______ _______ _____ _____    ______ ____

>  <TORSDO>
F 9

$$$$
=
 OpenBabel11052417183D

 30 32  0  0  1  0  0  0  0  0999 V2000
  191.9970  175.2980  143.6510 O   0  0  0  0  0  0  0  0  0  0  0  0
  194.3130  175.8950  143.3270 C   0  0  1  0  0  3  0  0  0  0  0  0
  192.1290  176.3280  147.3440 C   0  0  0  0  0  2  0  0  0  0  0  0
  190.8700  175.5610  144.4470 C   0  0  2  0  0  3  0  0  0  0  0  0
  190.9570  176.2340  148.1140 O   0  0  0  0  0  0  0  0  0  0  0  0
  195.0290  174.5340  143.3480 C   0  0  0  0  0  2  0  0  0  0  0  0
  193.9390  176.2240  142.0240 O   0  0  0  0  0  1  0  0  0  0  0  0
  192.2670  175.0540  146.5070 C   0  0  1  0  0  3  0  0  0  0  0  0
  194.2050  173.5330  143.8970 O   0  0  0  0  0  0  0  0  0  0  0  0
  193.1000  175.9190  144.2690 C   0  0  2  0  0  3  0  0  0  0  0  0
  190.9460  174.7520  145.7630 C   0  0  1  0  0  3  0  0  0  0  0  0
  189.9490  176.3420  147.2600 O   0  0  0  0  0  0  0  0  0  0  0  0
  189.7740  175.0600  146.7050 C   0  0  0  0  0  2  0  0  0  0  0  0
  194.0960  173.7940  145.2800 C   0  0  0  0  0  2  0  0  0  0  0  0
  193.4650  175.1720  145.5660 C   0  0  2  0  0  3  0  0  0  0  0  0
  189.5850  175.3480  143.6140 C   0  0  1  0  0  3  0  0  0  0  0  0
  189.1640  177.8120  144.1280 C   0  0  0  0  0  1  0  0  0  0  0  0
  188.6330  176.5500  143.4570 C   0  0  2  0  0  3  0  0  0  0  0  0
  186.8040  176.9310  145.1540 C   0  0  0  0  0  1  0  0  0  0  0  0
  187.1930  176.2130  143.8710 C   0  0  1  0  0  3  0  0  0  0  0  0
  186.2430  176.6360  142.8010 C   0  0  0  0  0  3  0  0  0  0  0  0
  187.0890  177.3300  140.5090 O   0  0  0  0  0  0  0  0  0  0  0  0
  186.6800  176.9930  141.6260 C   0  0  0  0  0  0  0  0  0  0  0  0
  189.8550  174.7490  142.3810 O   0  0  0  0  0  0  0  0  0  0  0  0
  189.2410  173.4960  142.4510 C   0  0  0  0  0  2  0  0  0  0  0  0
  188.1850  173.3660  141.3630 C   0  0  0  0  0  2  0  0  0  0  0  0
  188.5650  174.1580  140.1180 C   0  0  0  0  0  2  0  0  0  0  0  0
  190.0520  173.8150  138.1430 O   0  0  0  0  0  0  0  0  0  0  0  0
  189.1960  173.2760  139.0940 C   0  0  0  0  0  0  0  0  0  0  0  0
  188.9410  172.0440  139.0820 O   0  0  0  0  0  1  0  0  0  0  0  0
  1  4  1  0  0  0  0
  2  7  1  6  0  0  0
  2  6  1  0  0  0  0
  2 10  1  0  0  0  0
  3  5  1  0  0  0  0
  4 16  1  6  0  0  0
  4 11  1  0  0  0  0
  6  9  1  0  0  0  0
  8  3  1  6  0  0  0
  9 14  1  0  0  0  0
 10  1  1  6  0  0  0
 10 15  1  0  0  0  0
 11  8  1  0  0  0  0
 11 13  1  1  0  0  0
 12  5  1  0  0  0  0
 13 12  1  0  0  0  0
 15 14  1  6  0  0  0
 15  8  1  0  0  0  0
 16 24  1  6  0  0  0
 18 16  1  0  0  0  0
 18 20  1  0  0  0  0
 18 17  1  1  0  0  0
 20 19  1  1  0  0  0
 21 20  1  0  0  0  0
 22 23  2  0  0  0  0
 23 21  2  0  0  0  0
 24 25  1  0  0  0  0
 26 25  1  0  0  0  0
 27 26  1  0  0  0  0
 28 29  2  0  0  0  0
 29 27  1  0  0  0  0
 30 29  1  0  0  0  0
M  END
>  <MODEL>
8

>  <REMARK>
 VINA RESULT:      -6.1      2.734      4.443
  Name = 
  9 active torsions:
  status: ('A' for Active; 'I' for Inactive)
    1  A    between atoms: C_4  and  C_13
    2  A    between atoms: C_5  and  C_12
    3  A    between atoms: C_7  and  C_15
    4  A    between atoms: C_7  and  C_16
    5  A    between atoms: C_8  and  C_12
    6  A    between atoms: C_8  and  C_13
    7  A    between atoms: C_13  and  O_27
    8  A    between atoms: C_16  and  C_30
    9  A    between atoms: O_27  and  C_30
                            x       y       z     vdW  Elec       q    Type
                         _______ _______ _______ _____ _____    ______ ____

>  <TORSDO>
F 9

$$$$
=
 OpenBabel11052417183D

 30 32  0  0  1  0  0  0  0  0999 V2000
  188.6280  176.4260  143.1750 O   0  0  0  0  0  0  0  0  0  0  0  0
  187.0810  176.0990  141.3520 C   0  0  1  0  0  3  0  0  0  0  0  0
  185.7610  176.7820  145.6970 C   0  0  0  0  0  2  0  0  0  0  0  0
  188.7690  176.2950  144.5670 C   0  0  2  0  0  3  0  0  0  0  0  0
  186.0740  176.9670  147.0560 O   0  0  0  0  0  0  0  0  0  0  0  0
  187.0680  177.4710  140.6560 C   0  0  0  0  0  2  0  0  0  0  0  0
  188.0670  175.2840  140.7960 O   0  0  0  0  0  1  0  0  0  0  0  0
  186.6660  177.6890  144.8600 C   0  0  1  0  0  3  0  0  0  0  0  0
  187.6140  178.4680  141.4870 O   0  0  0  0  0  0  0  0  0  0  0  0
  187.2680  176.2280  142.8720 C   0  0  2  0  0  3  0  0  0  0  0  0
  188.1420  177.5150  145.2820 C   0  0  1  0  0  3  0  0  0  0  0  0
  187.2700  176.4210  147.2320 O   0  0  0  0  0  0  0  0  0  0  0  0
  188.2020  177.3880  146.8100 C   0  0  0  0  0  2  0  0  0  0  0  0
  186.6900  178.6940  142.5300 C   0  0  0  0  0  2  0  0  0  0  0  0
  186.4380  177.4260  143.3720 C   0  0  2  0  0  3  0  0  0  0  0  0
  190.2480  176.0130  144.9150 C   0  0  1  0  0  3  0  0  0  0  0  0
  190.8380  178.2940  143.9350 C   0  0  0  0  0  1  0  0  0  0  0  0
  191.2130  177.2160  144.9450 C   0  0  2  0  0  3  0  0  0  0  0  0
  193.2010  176.2630  146.1740 C   0  0  0  0  0  1  0  0  0  0  0  0
  192.6840  176.7870  144.8430 C   0  0  1  0  0  3  0  0  0  0  0  0
  192.8290  175.6980  143.8330 C   0  0  0  0  0  3  0  0  0  0  0  0
  193.9860  176.1290  141.6130 O   0  0  0  0  0  0  0  0  0  0  0  0
  193.4220  175.9230  142.6940 C   0  0  0  0  0  0  0  0  0  0  0  0
  190.3750  175.2330  146.0680 O   0  0  0  0  0  0  0  0  0  0  0  0
  189.6680  174.0610  145.7840 C   0  0  0  0  0  2  0  0  0  0  0  0
  190.5480  173.0910  145.0100 C   0  0  0  0  0  2  0  0  0  0  0  0
  189.7160  172.1030  144.2020 C   0  0  0  0  0  2  0  0  0  0  0  0
  190.3170  173.3800  142.1430 O   0  0  0  0  0  0  0  0  0  0  0  0
  189.3700  172.6640  142.8640 C   0  0  0  0  0  0  0  0  0  0  0  0
  188.2150  172.5000  142.3930 O   0  0  0  0  0  1  0  0  0  0  0  0
  1  4  1  0  0  0  0
  2  7  1  6  0  0  0
  2 10  1  0  0  0  0
  3  5  1  0  0  0  0
  4 16  1  6  0  0  0
  4 11  1  0  0  0  0
  5 12  1  0  0  0  0
  6  2  1  0  0  0  0
  6  9  1  0  0  0  0
  8 11  1  0  0  0  0
  8  3  1  1  0  0  0
  9 14  1  0  0  0  0
 10  1  1  6  0  0  0
 10 15  1  0  0  0  0
 11 13  1  1  0  0  0
 13 12  1  0  0  0  0
 15 14  1  6  0  0  0
 15  8  1  0  0  0  0
 16 18  1  0  0  0  0
 16 24  1  1  0  0  0
 18 17  1  6  0  0  0
 20 18  1  0  0  0  0
 20 19  1  1  0  0  0
 21 20  1  0  0  0  0
 22 23  2  0  0  0  0
 23 21  2  0  0  0  0
 25 24  1  0  0  0  0
 26 25  1  0  0  0  0
 27 26  1  0  0  0  0
 28 29  2  0  0  0  0
 29 27  1  0  0  0  0
 30 29  1  0  0  0  0
M  END
>  <MODEL>
9

>  <REMARK>
 VINA RESULT:      -6.1      2.274      5.927
  Name = 
  9 active torsions:
  status: ('A' for Active; 'I' for Inactive)
    1  A    between atoms: C_4  and  C_13
    2  A    between atoms: C_5  and  C_12
    3  A    between atoms: C_7  and  C_15
    4  A    between atoms: C_7  and  C_16
    5  A    between atoms: C_8  and  C_12
    6  A    between atoms: C_8  and  C_13
    7  A    between atoms: C_13  and  O_27
    8  A    between atoms: C_16  and  C_30
    9  A    between atoms: O_27  and  C_30
                            x       y       z     vdW  Elec       q    Type
                         _______ _______ _______ _____ _____    ______ ____

>  <TORSDO>
F 9

$$$$
