=
 OpenBabel11052418223D

 27 30  0  0  1  0  0  0  0  0999 V2000
  188.1800  176.3640  144.9700 C   0  0  1  0  0  3  0  0  0  0  0  0
  188.2500  175.8190  143.5670 C   0  0  0  0  0  0  0  0  0  0  0  0
  188.3860  174.3440  139.5220 C   0  0  0  0  0  2  0  0  0  0  0  0
  190.0600  173.2110  138.0540 O   0  0  0  0  0  1  0  0  0  0  0  0
  187.7700  176.6020  142.5110 C   0  0  0  0  0  3  0  0  0  0  0  0
  189.3750  172.6980  141.7080 C   0  0  0  0  0  2  0  0  0  0  0  0
  189.9640  172.6090  140.3270 C   0  0  0  0  0  3  0  0  0  0  0  0
  188.7850  174.5500  143.2980 C   0  0  0  0  0  3  0  0  0  0  0  0
  189.5040  173.3560  139.3170 C   0  0  0  0  0  0  0  0  0  0  0  0
  188.3590  174.8660  140.9300 C   0  0  0  0  0  0  0  0  0  0  0  0
  188.8450  174.0750  141.9870 C   0  0  0  0  0  0  0  0  0  0  0  0
  187.8190  176.1280  141.1970 C   0  0  0  0  0  3  0  0  0  0  0  0
  189.5060  176.8870  145.5960 C   0  0  2  0  0  0  0  0  0  0  0  0
  190.2780  174.9420  146.7290 O   0  0  0  0  0  0  0  0  0  0  0  0
  191.7350  174.5140  144.2350 O   0  0  0  0  0  1  0  0  0  0  0  0
  192.2090  176.8600  144.2990 C   0  0  0  0  0  2  0  0  0  0  0  0
  189.1950  177.5690  146.9220 C   0  0  0  0  0  1  0  0  0  0  0  0
  191.8040  175.6180  145.0860 C   0  0  1  0  0  3  0  0  0  0  0  0
  191.0090  177.4870  143.6200 C   0  0  0  0  0  2  0  0  0  0  0  0
  190.0740  178.0020  144.7020 C   0  0  0  0  0  2  0  0  0  0  0  0
  190.5120  175.7650  145.8560 C   0  0  0  0  0  0  0  0  0  0  0  0
  184.6160  178.6460  145.7740 C   0  0  0  0  0  3  0  0  0  0  0  0
  186.9420  177.1770  145.2380 C   0  0  0  0  0  0  0  0  0  0  0  0
  186.7660  178.4500  144.6770 C   0  0  0  0  0  3  0  0  0  0  0  0
  185.6060  179.1830  144.9450 C   0  0  0  0  0  3  0  0  0  0  0  0
  184.7860  177.3760  146.3330 C   0  0  0  0  0  3  0  0  0  0  0  0
  185.9460  176.6440  146.0650 C   0  0  0  0  0  3  0  0  0  0  0  0
  1  2  1  6  0  0  0
  1 23  1  0  0  0  0
  1 13  1  0  0  0  0
  3 10  1  0  0  0  0
  4  9  1  0  0  0  0
  5  2  2  0  0  0  0
  6 11  1  0  0  0  0
  7  6  1  0  0  0  0
  8  2  1  0  0  0  0
  9  3  1  0  0  0  0
  9  7  2  0  0  0  0
 10 12  2  0  0  0  0
 10 11  1  0  0  0  0
 11  8  2  0  0  0  0
 12  5  1  0  0  0  0
 13 21  1  0  0  0  0
 13 17  1  1  0  0  0
 16 18  1  0  0  0  0
 18 15  1  6  0  0  0
 18 21  1  0  0  0  0
 19 16  1  0  0  0  0
 19 20  1  0  0  0  0
 20 13  1  0  0  0  0
 21 14  2  0  0  0  0
 22 26  1  0  0  0  0
 23 27  1  0  0  0  0
 24 25  1  0  0  0  0
 24 23  2  0  0  0  0
 25 22  2  0  0  0  0
 27 26  2  0  0  0  0
M  END
>  <MODEL>
1

>  <REMARK>
 VINA RESULT:      -8.2      0.000      0.000
  Name = 
  3 active torsions:
  status: ('A' for Active; 'I' for Inactive)
    1  A    between atoms: C_1  and  C_15
    2  A    between atoms: C_2  and  C_15
    3  A    between atoms: C_9  and  C_15
                            x       y       z     vdW  Elec       q    Type
                         _______ _______ _______ _____ _____    ______ ____

>  <TORSDO>
F 3

$$$$
=
 OpenBabel11052418223D

 27 30  0  0  1  0  0  0  0  0999 V2000
  187.7470  177.7610  144.5360 C   0  0  1  0  0  3  0  0  0  0  0  0
  188.9370  176.9960  145.0560 C   0  0  0  0  0  0  0  0  0  0  0  0
  192.2680  174.7480  146.6090 C   0  0  0  0  0  2  0  0  0  0  0  0
  194.4420  173.8810  145.7360 O   0  0  0  0  0  1  0  0  0  0  0  0
  188.7190  175.8440  145.8210 C   0  0  0  0  0  3  0  0  0  0  0  0
  192.7360  177.1490  145.0330 C   0  0  0  0  0  2  0  0  0  0  0  0
  193.7050  176.0000  145.0220 C   0  0  0  0  0  3  0  0  0  0  0  0
  190.2510  177.4110  144.7910 C   0  0  0  0  0  3  0  0  0  0  0  0
  193.4990  174.8990  145.7550 C   0  0  0  0  0  0  0  0  0  0  0  0
  191.1070  175.5200  146.0490 C   0  0  0  0  0  0  0  0  0  0  0  0
  191.3330  176.6760  145.2790 C   0  0  0  0  0  0  0  0  0  0  0  0
  189.7990  175.1100  146.3200 C   0  0  0  0  0  3  0  0  0  0  0  0
  187.3170  177.4890  143.0650 C   0  0  2  0  0  0  0  0  0  0  0  0
  189.2170  178.2870  141.8740 O   0  0  0  0  0  0  0  0  0  0  0  0
  190.0430  175.4920  142.0490 O   0  0  0  0  0  1  0  0  0  0  0  0
  187.7690  174.9570  141.5250 C   0  0  0  0  0  2  0  0  0  0  0  0
  186.4800  178.6610  142.5670 C   0  0  0  0  0  1  0  0  0  0  0  0
  188.8770  176.0040  141.4790 C   0  0  1  0  0  3  0  0  0  0  0  0
  187.0810  174.9530  142.8750 C   0  0  0  0  0  2  0  0  0  0  0  0
  186.3640  176.2820  143.0380 C   0  0  0  0  0  2  0  0  0  0  0  0
  188.5130  177.3200  142.1270 C   0  0  0  0  0  0  0  0  0  0  0  0
  184.6040  178.2480  147.4400 C   0  0  0  0  0  3  0  0  0  0  0  0
  186.6410  177.9120  145.5450 C   0  0  0  0  0  0  0  0  0  0  0  0
  185.6390  176.9410  145.6840 C   0  0  0  0  0  3  0  0  0  0  0  0
  184.6230  177.1090  146.6290 C   0  0  0  0  0  3  0  0  0  0  0  0
  185.6020  179.2180  147.3060 C   0  0  0  0  0  3  0  0  0  0  0  0
  186.6180  179.0490  146.3610 C   0  0  0  0  0  3  0  0  0  0  0  0
  1  2  1  1  0  0  0
  1 23  1  0  0  0  0
  2  5  1  0  0  0  0
  4  9  1  0  0  0  0
  5 12  2  0  0  0  0
  6 11  1  0  0  0  0
  7  6  1  0  0  0  0
  7  9  2  0  0  0  0
  8  2  2  0  0  0  0
  8 11  1  0  0  0  0
  9  3  1  0  0  0  0
 10 12  1  0  0  0  0
 10  3  1  0  0  0  0
 11 10  2  0  0  0  0
 13 17  1  6  0  0  0
 13  1  1  0  0  0  0
 14 21  2  0  0  0  0
 16 19  1  0  0  0  0
 18 16  1  0  0  0  0
 18 15  1  1  0  0  0
 18 21  1  0  0  0  0
 19 20  1  0  0  0  0
 20 13  1  0  0  0  0
 21 13  1  0  0  0  0
 23 24  2  0  0  0  0
 23 27  1  0  0  0  0
 24 25  1  0  0  0  0
 25 22  2  0  0  0  0
 26 22  1  0  0  0  0
 27 26  2  0  0  0  0
M  END
>  <MODEL>
2

>  <REMARK>
 VINA RESULT:      -7.9      2.053      4.870
  Name = 
  3 active torsions:
  status: ('A' for Active; 'I' for Inactive)
    1  A    between atoms: C_1  and  C_15
    2  A    between atoms: C_2  and  C_15
    3  A    between atoms: C_9  and  C_15
                            x       y       z     vdW  Elec       q    Type
                         _______ _______ _______ _____ _____    ______ ____

>  <TORSDO>
F 3

$$$$
=
 OpenBabel11052418223D

 27 30  0  0  1  0  0  0  0  0999 V2000
  190.2290  174.8490  144.7910 C   0  0  1  0  0  3  0  0  0  0  0  0
  189.1360  175.8840  144.8690 C   0  0  0  0  0  0  0  0  0  0  0  0
  186.0620  178.8980  145.0060 C   0  0  0  0  0  2  0  0  0  0  0  0
  183.6120  178.9770  145.4900 O   0  0  0  0  0  1  0  0  0  0  0  0
  189.0220  176.8260  143.8400 C   0  0  0  0  0  3  0  0  0  0  0  0
  186.2980  176.9560  147.1600 C   0  0  0  0  0  2  0  0  0  0  0  0
  184.9680  177.5410  146.7700 C   0  0  0  0  0  3  0  0  0  0  0  0
  188.2370  175.9230  145.9450 C   0  0  0  0  0  3  0  0  0  0  0  0
  184.8580  178.4430  145.7880 C   0  0  0  0  0  0  0  0  0  0  0  0
  187.1200  177.8330  144.9480 C   0  0  0  0  0  0  0  0  0  0  0  0
  187.2290  176.8880  145.9840 C   0  0  0  0  0  0  0  0  0  0  0  0
  188.0200  177.8010  143.8800 C   0  0  0  0  0  3  0  0  0  0  0  0
  190.1720  173.8450  143.6030 C   0  0  2  0  0  0  0  0  0  0  0  0
  191.2600  175.0920  141.8930 O   0  0  0  0  0  0  0  0  0  0  0  0
  193.6170  173.6650  142.8610 O   0  0  0  0  0  1  0  0  0  0  0  0
  192.2040  171.7350  142.9650 C   0  0  0  0  0  2  0  0  0  0  0  0
  188.8320  173.9910  142.8930 C   0  0  0  0  0  1  0  0  0  0  0  0
  192.4310  173.1200  142.3680 C   0  0  1  0  0  3  0  0  0  0  0  0
  191.5640  171.8330  144.3350 C   0  0  0  0  0  2  0  0  0  0  0  0
  190.1700  172.4110  144.1600 C   0  0  0  0  0  2  0  0  0  0  0  0
  191.2850  174.0820  142.5820 C   0  0  0  0  0  0  0  0  0  0  0  0
  194.1280  176.3190  145.8800 C   0  0  0  0  0  3  0  0  0  0  0  0
  191.5880  175.3800  145.1590 C   0  0  0  0  0  0  0  0  0  0  0  0
  192.0770  176.5790  144.6210 C   0  0  0  0  0  3  0  0  0  0  0  0
  193.3440  177.0470  144.9800 C   0  0  0  0  0  3  0  0  0  0  0  0
  193.6450  175.1250  146.4210 C   0  0  0  0  0  3  0  0  0  0  0  0
  192.3770  174.6570  146.0620 C   0  0  0  0  0  3  0  0  0  0  0  0
  1  2  1  6  0  0  0
  1 23  1  0  0  0  0
  2  8  1  0  0  0  0
  3  9  1  0  0  0  0
  4  9  1  0  0  0  0
  5 12  1  0  0  0  0
  5  2  2  0  0  0  0
  7  6  1  0  0  0  0
  8 11  2  0  0  0  0
  9  7  2  0  0  0  0
 10  3  1  0  0  0  0
 10 11  1  0  0  0  0
 11  6  1  0  0  0  0
 12 10  2  0  0  0  0
 13 17  1  6  0  0  0
 13 20  1  0  0  0  0
 13  1  1  0  0  0  0
 14 21  2  0  0  0  0
 16 19  1  0  0  0  0
 18 21  1  0  0  0  0
 18 15  1  1  0  0  0
 18 16  1  0  0  0  0
 20 19  1  0  0  0  0
 21 13  1  0  0  0  0
 22 26  1  0  0  0  0
 23 27  1  0  0  0  0
 24 25  1  0  0  0  0
 24 23  2  0  0  0  0
 25 22  2  0  0  0  0
 27 26  2  0  0  0  0
M  END
>  <MODEL>
3

>  <REMARK>
 VINA RESULT:      -7.8      2.369      6.230
  Name = 
  3 active torsions:
  status: ('A' for Active; 'I' for Inactive)
    1  A    between atoms: C_1  and  C_15
    2  A    between atoms: C_2  and  C_15
    3  A    between atoms: C_9  and  C_15
                            x       y       z     vdW  Elec       q    Type
                         _______ _______ _______ _____ _____    ______ ____

>  <TORSDO>
F 3

$$$$
=
 OpenBabel11052418223D

 27 30  0  0  1  0  0  0  0  0999 V2000
  190.2470  176.1330  143.4120 C   0  0  1  0  0  3  0  0  0  0  0  0
  188.9980  176.9160  143.7260 C   0  0  0  0  0  0  0  0  0  0  0  0
  185.4300  179.1950  144.5200 C   0  0  0  0  0  2  0  0  0  0  0  0
  183.3440  178.9000  145.8630 O   0  0  0  0  0  1  0  0  0  0  0  0
  188.3050  177.5340  142.6790 C   0  0  0  0  0  3  0  0  0  0  0  0
  186.8690  177.9280  146.7090 C   0  0  0  0  0  2  0  0  0  0  0  0
  185.3780  178.1220  146.7560 C   0  0  0  0  0  3  0  0  0  0  0  0
  188.5180  177.0370  145.0390 C   0  0  0  0  0  3  0  0  0  0  0  0
  184.7150  178.7150  145.7560 C   0  0  0  0  0  0  0  0  0  0  0  0
  186.6620  178.3820  144.2420 C   0  0  0  0  0  0  0  0  0  0  0  0
  187.3530  177.7610  145.2990 C   0  0  0  0  0  0  0  0  0  0  0  0
  187.1430  178.2690  142.9340 C   0  0  0  0  0  3  0  0  0  0  0  0
  191.6090  176.7960  143.7680 C   0  0  2  0  0  0  0  0  0  0  0  0
  191.5570  176.7070  146.1450 O   0  0  0  0  0  0  0  0  0  0  0  0
  192.9970  174.2030  145.7170 O   0  0  0  0  0  1  0  0  0  0  0  0
  194.2430  175.3930  144.0550 C   0  0  0  0  0  2  0  0  0  0  0  0
  191.4330  178.3090  143.7950 C   0  0  0  0  0  1  0  0  0  0  0  0
  193.3650  175.4820  145.2990 C   0  0  1  0  0  3  0  0  0  0  0  0
  193.4000  175.2510  142.8040 C   0  0  0  0  0  2  0  0  0  0  0  0
  192.6060  176.5340  142.6270 C   0  0  0  0  0  2  0  0  0  0  0  0
  192.1390  176.3500  145.1310 C   0  0  0  0  0  0  0  0  0  0  0  0
  189.9010  171.9050  144.1640 C   0  0  0  0  0  3  0  0  0  0  0  0
  190.1200  174.6600  143.6950 C   0  0  0  0  0  0  0  0  0  0  0  0
  189.7870  174.1850  144.9720 C   0  0  0  0  0  3  0  0  0  0  0  0
  189.6790  172.8120  145.2050 C   0  0  0  0  0  3  0  0  0  0  0  0
  190.2310  172.3740  142.8880 C   0  0  0  0  0  3  0  0  0  0  0  0
  190.3390  173.7480  142.6550 C   0  0  0  0  0  3  0  0  0  0  0  0
  1 23  1  1  0  0  0
  1  2  1  0  0  0  0
  1 13  1  0  0  0  0
  2  8  1  0  0  0  0
  3  9  1  0  0  0  0
  5 12  1  0  0  0  0
  5  2  2  0  0  0  0
  6  7  1  0  0  0  0
  8 11  2  0  0  0  0
  9  4  1  0  0  0  0
  9  7  2  0  0  0  0
 10  3  1  0  0  0  0
 10 11  1  0  0  0  0
 11  6  1  0  0  0  0
 12 10  2  0  0  0  0
 13 17  1  1  0  0  0
 13 21  1  0  0  0  0
 16 18  1  0  0  0  0
 18 15  1  6  0  0  0
 19 16  1  0  0  0  0
 20 19  1  0  0  0  0
 20 13  1  0  0  0  0
 21 18  1  0  0  0  0
 21 14  2  0  0  0  0
 22 25  1  0  0  0  0
 23 24  1  0  0  0  0
 24 25  2  0  0  0  0
 26 22  2  0  0  0  0
 27 26  1  0  0  0  0
 27 23  2  0  0  0  0
M  END
>  <MODEL>
4

>  <REMARK>
 VINA RESULT:      -7.8      2.373      5.690
  Name = 
  3 active torsions:
  status: ('A' for Active; 'I' for Inactive)
    1  A    between atoms: C_1  and  C_15
    2  A    between atoms: C_2  and  C_15
    3  A    between atoms: C_9  and  C_15
                            x       y       z     vdW  Elec       q    Type
                         _______ _______ _______ _____ _____    ______ ____

>  <TORSDO>
F 3

$$$$
=
 OpenBabel11052418223D

 27 30  0  0  1  0  0  0  0  0999 V2000
  187.7520  177.9830  144.1560 C   0  0  1  0  0  3  0  0  0  0  0  0
  189.1940  177.5810  144.3390 C   0  0  0  0  0  0  0  0  0  0  0  0
  193.3430  176.5180  144.7920 C   0  0  0  0  0  2  0  0  0  0  0  0
  194.8010  175.6140  146.6080 O   0  0  0  0  0  1  0  0  0  0  0  0
  190.1990  178.4410  143.8800 C   0  0  0  0  0  3  0  0  0  0  0  0
  191.2640  174.7150  145.7360 C   0  0  0  0  0  2  0  0  0  0  0  0
  192.6060  174.7890  146.4100 C   0  0  0  0  0  3  0  0  0  0  0  0
  189.5470  176.3710  144.9550 C   0  0  0  0  0  3  0  0  0  0  0  0
  193.5690  175.6090  145.9710 C   0  0  0  0  0  0  0  0  0  0  0  0
  191.8960  176.8980  144.6540 C   0  0  0  0  0  0  0  0  0  0  0  0
  190.8910  176.0310  145.1180 C   0  0  0  0  0  0  0  0  0  0  0  0
  191.5460  178.1000  144.0330 C   0  0  0  0  0  3  0  0  0  0  0  0
  187.0300  177.4720  142.8760 C   0  0  2  0  0  0  0  0  0  0  0  0
  188.5660  178.1390  141.1840 O   0  0  0  0  0  0  0  0  0  0  0  0
  189.5960  175.4350  141.5670 O   0  0  0  0  0  1  0  0  0  0  0  0
  187.3040  174.7490  141.6530 C   0  0  0  0  0  2  0  0  0  0  0  0
  186.0280  178.5240  142.4170 C   0  0  0  0  0  1  0  0  0  0  0  0
  188.3020  175.8120  141.2080 C   0  0  1  0  0  3  0  0  0  0  0  0
  186.9300  174.9310  143.1100 C   0  0  0  0  0  2  0  0  0  0  0  0
  186.1780  176.2450  143.2390 C   0  0  0  0  0  2  0  0  0  0  0  0
  188.0010  177.2000  141.7250 C   0  0  0  0  0  0  0  0  0  0  0  0
  185.4460  177.9760  147.7940 C   0  0  0  0  0  3  0  0  0  0  0  0
  186.9560  177.9620  145.4330 C   0  0  0  0  0  0  0  0  0  0  0  0
  187.0510  176.8950  146.3380 C   0  0  0  0  0  3  0  0  0  0  0  0
  186.2980  176.9020  147.5150 C   0  0  0  0  0  3  0  0  0  0  0  0
  185.3500  179.0430  146.8960 C   0  0  0  0  0  3  0  0  0  0  0  0
  186.1040  179.0350  145.7190 C   0  0  0  0  0  3  0  0  0  0  0  0
  1  2  1  1  0  0  0
  1 23  1  0  0  0  0
  2  8  1  0  0  0  0
  3  9  1  0  0  0  0
  5 12  1  0  0  0  0
  5  2  2  0  0  0  0
  6  7  1  0  0  0  0
  8 11  2  0  0  0  0
  9  7  2  0  0  0  0
  9  4  1  0  0  0  0
 10  3  1  0  0  0  0
 10 11  1  0  0  0  0
 11  6  1  0  0  0  0
 12 10  2  0  0  0  0
 13 17  1  6  0  0  0
 13 20  1  0  0  0  0
 13  1  1  0  0  0  0
 14 21  2  0  0  0  0
 16 19  1  0  0  0  0
 18 15  1  1  0  0  0
 18 16  1  0  0  0  0
 18 21  1  0  0  0  0
 19 20  1  0  0  0  0
 21 13  1  0  0  0  0
 23 27  2  0  0  0  0
 23 24  1  0  0  0  0
 24 25  2  0  0  0  0
 25 22  1  0  0  0  0
 26 22  2  0  0  0  0
 27 26  1  0  0  0  0
M  END
>  <MODEL>
5

>  <REMARK>
 VINA RESULT:      -7.7      2.115      4.957
  Name = 
  3 active torsions:
  status: ('A' for Active; 'I' for Inactive)
    1  A    between atoms: C_1  and  C_15
    2  A    between atoms: C_2  and  C_15
    3  A    between atoms: C_9  and  C_15
                            x       y       z     vdW  Elec       q    Type
                         _______ _______ _______ _____ _____    ______ ____

>  <TORSDO>
F 3

$$$$
=
 OpenBabel11052418223D

 27 30  0  0  1  0  0  0  0  0999 V2000
  191.1460  174.1510  145.1830 C   0  0  1  0  0  3  0  0  0  0  0  0
  189.9100  174.8880  145.6320 C   0  0  0  0  0  0  0  0  0  0  0  0
  186.3760  176.9300  147.0100 C   0  0  0  0  0  2  0  0  0  0  0  0
  185.4550  179.2500  146.8960 O   0  0  0  0  0  1  0  0  0  0  0  0
  189.4560  174.7100  146.9440 C   0  0  0  0  0  3  0  0  0  0  0  0
  187.3000  177.2980  144.2750 C   0  0  0  0  0  2  0  0  0  0  0  0
  186.5810  178.3910  145.0160 C   0  0  0  0  0  3  0  0  0  0  0  0
  189.2100  175.7430  144.7680 C   0  0  0  0  0  3  0  0  0  0  0  0
  186.1440  178.2210  146.2690 C   0  0  0  0  0  0  0  0  0  0  0  0
  187.6210  176.2360  146.5350 C   0  0  0  0  0  0  0  0  0  0  0  0
  188.0730  176.4200  145.2160 C   0  0  0  0  0  0  0  0  0  0  0  0
  188.3130  175.3770  147.3940 C   0  0  0  0  0  3  0  0  0  0  0  0
  191.0200  173.2670  143.9080 C   0  0  2  0  0  0  0  0  0  0  0  0
  191.2680  174.8960  142.1910 O   0  0  0  0  0  0  0  0  0  0  0  0
  194.0730  174.1030  142.3500 O   0  0  0  0  0  1  0  0  0  0  0  0
  193.2610  171.8570  142.5010 C   0  0  0  0  0  2  0  0  0  0  0  0
  189.5460  173.0930  143.5660 C   0  0  0  0  0  1  0  0  0  0  0  0
  192.9710  173.2930  142.0780 C   0  0  1  0  0  3  0  0  0  0  0  0
  193.0080  171.6660  143.9830 C   0  0  0  0  0  2  0  0  0  0  0  0
  191.5210  171.8490  144.2320 C   0  0  0  0  0  2  0  0  0  0  0  0
  191.7250  173.8820  142.6970 C   0  0  0  0  0  0  0  0  0  0  0  0
  194.7930  176.4030  145.6060 C   0  0  0  0  0  3  0  0  0  0  0  0
  192.4100  174.9550  145.3230 C   0  0  0  0  0  0  0  0  0  0  0  0
  192.4720  176.2980  144.9250 C   0  0  0  0  0  3  0  0  0  0  0  0
  193.6600  177.0200  145.0660 C   0  0  0  0  0  3  0  0  0  0  0  0
  194.7350  175.0650  146.0070 C   0  0  0  0  0  3  0  0  0  0  0  0
  193.5450  174.3440  145.8670 C   0  0  0  0  0  3  0  0  0  0  0  0
  1 23  1  6  0  0  0
  1  2  1  0  0  0  0
  2  5  1  0  0  0  0
  5 12  2  0  0  0  0
  6  7  1  0  0  0  0
  6 11  1  0  0  0  0
  7  9  2  0  0  0  0
  8 11  1  0  0  0  0
  8  2  2  0  0  0  0
  9  4  1  0  0  0  0
  9  3  1  0  0  0  0
 10  3  1  0  0  0  0
 10 12  1  0  0  0  0
 11 10  2  0  0  0  0
 13 17  1  6  0  0  0
 13 20  1  0  0  0  0
 13  1  1  0  0  0  0
 14 21  2  0  0  0  0
 16 19  1  0  0  0  0
 18 15  1  1  0  0  0
 18 16  1  0  0  0  0
 18 21  1  0  0  0  0
 19 20  1  0  0  0  0
 21 13  1  0  0  0  0
 22 26  1  0  0  0  0
 23 27  1  0  0  0  0
 24 25  1  0  0  0  0
 24 23  2  0  0  0  0
 25 22  2  0  0  0  0
 27 26  2  0  0  0  0
M  END
>  <MODEL>
6

>  <REMARK>
 VINA RESULT:      -7.6      2.598      6.562
  Name = 
  3 active torsions:
  status: ('A' for Active; 'I' for Inactive)
    1  A    between atoms: C_1  and  C_15
    2  A    between atoms: C_2  and  C_15
    3  A    between atoms: C_9  and  C_15
                            x       y       z     vdW  Elec       q    Type
                         _______ _______ _______ _____ _____    ______ ____

>  <TORSDO>
F 3

$$$$
=
 OpenBabel11052418223D

 27 30  0  0  1  0  0  0  0  0999 V2000
  188.8000  176.1190  145.7000 C   0  0  1  0  0  3  0  0  0  0  0  0
  189.0420  175.2560  144.4880 C   0  0  0  0  0  0  0  0  0  0  0  0
  189.8020  172.7240  141.0880 C   0  0  0  0  0  2  0  0  0  0  0  0
  188.5250  171.9210  139.0960 O   0  0  0  0  0  1  0  0  0  0  0  0
  189.6740  174.0180  144.6550 C   0  0  0  0  0  3  0  0  0  0  0  0
  188.5030  175.3020  140.7250 C   0  0  0  0  0  2  0  0  0  0  0  0
  188.2060  174.1370  139.8210 C   0  0  0  0  0  3  0  0  0  0  0  0
  188.6510  175.6650  143.2050 C   0  0  0  0  0  3  0  0  0  0  0  0
  188.8100  172.9530  139.9780 C   0  0  0  0  0  0  0  0  0  0  0  0
  189.5170  173.5980  142.2750 C   0  0  0  0  0  0  0  0  0  0  0  0
  188.8810  174.8400  142.1020 C   0  0  0  0  0  0  0  0  0  0  0  0
  189.9150  173.1920  143.5530 C   0  0  0  0  0  3  0  0  0  0  0  0
  190.0130  176.9220  146.2540 C   0  0  2  0  0  0  0  0  0  0  0  0
  190.7950  175.4570  147.9590 O   0  0  0  0  0  0  0  0  0  0  0  0
  192.5320  174.4900  145.8210 O   0  0  0  0  0  1  0  0  0  0  0  0
  192.8330  176.7940  145.2450 C   0  0  0  0  0  2  0  0  0  0  0  0
  189.5170  177.9140  147.2970 C   0  0  0  0  0  1  0  0  0  0  0  0
  192.4350  175.7890  146.3200 C   0  0  1  0  0  3  0  0  0  0  0  0
  191.6700  177.0860  144.3180 C   0  0  0  0  0  2  0  0  0  0  0  0
  190.5940  177.7900  145.1260 C   0  0  0  0  0  2  0  0  0  0  0  0
  191.0620  176.0210  146.9070 C   0  0  0  0  0  0  0  0  0  0  0  0
  184.9870  178.1230  145.6760 C   0  0  0  0  0  3  0  0  0  0  0  0
  187.4740  176.8310  145.6760 C   0  0  0  0  0  0  0  0  0  0  0  0
  187.2310  177.8950  144.7950 C   0  0  0  0  0  3  0  0  0  0  0  0
  185.9910  178.5390  144.7950 C   0  0  0  0  0  3  0  0  0  0  0  0
  185.2240  177.0610  146.5530 C   0  0  0  0  0  3  0  0  0  0  0  0
  186.4650  176.4160  146.5520 C   0  0  0  0  0  3  0  0  0  0  0  0
  1  2  1  6  0  0  0
  1 13  1  0  0  0  0
  2  5  1  0  0  0  0
  3 10  1  0  0  0  0
  4  9  1  0  0  0  0
  6 11  1  0  0  0  0
  7  9  2  0  0  0  0
  7  6  1  0  0  0  0
  8  2  2  0  0  0  0
  9  3  1  0  0  0  0
 10 12  1  0  0  0  0
 11 10  2  0  0  0  0
 11  8  1  0  0  0  0
 12  5  2  0  0  0  0
 13 21  1  0  0  0  0
 13 17  1  1  0  0  0
 16 18  1  0  0  0  0
 18 15  1  6  0  0  0
 18 21  1  0  0  0  0
 19 20  1  0  0  0  0
 19 16  1  0  0  0  0
 20 13  1  0  0  0  0
 21 14  2  0  0  0  0
 22 26  1  0  0  0  0
 23  1  1  0  0  0  0
 23 27  1  0  0  0  0
 24 23  2  0  0  0  0
 25 24  1  0  0  0  0
 25 22  2  0  0  0  0
 27 26  2  0  0  0  0
M  END
>  <MODEL>
7

>  <REMARK>
 VINA RESULT:      -7.6      1.098      1.784
  Name = 
  3 active torsions:
  status: ('A' for Active; 'I' for Inactive)
    1  A    between atoms: C_1  and  C_15
    2  A    between atoms: C_2  and  C_15
    3  A    between atoms: C_9  and  C_15
                            x       y       z     vdW  Elec       q    Type
                         _______ _______ _______ _____ _____    ______ ____

>  <TORSDO>
F 3

$$$$
=
 OpenBabel11052418223D

 27 30  0  0  1  0  0  0  0  0999 V2000
  191.3670  174.2020  145.2670 C   0  0  1  0  0  3  0  0  0  0  0  0
  190.0900  174.9110  145.6390 C   0  0  0  0  0  0  0  0  0  0  0  0
  186.4280  176.8670  146.7880 C   0  0  0  0  0  2  0  0  0  0  0  0
  185.5120  179.1910  146.7320 O   0  0  0  0  0  1  0  0  0  0  0  0
  189.5090  174.6510  146.8860 C   0  0  0  0  0  3  0  0  0  0  0  0
  187.6150  177.4060  144.1870 C   0  0  0  0  0  2  0  0  0  0  0  0
  186.8210  178.4510  144.9210 C   0  0  0  0  0  3  0  0  0  0  0  0
  189.4740  175.8210  144.7660 C   0  0  0  0  0  3  0  0  0  0  0  0
  186.2640  178.2030  146.1120 C   0  0  0  0  0  0  0  0  0  0  0  0
  187.7160  176.2020  146.3950 C   0  0  0  0  0  0  0  0  0  0  0  0
  188.2960  176.4690  145.1420 C   0  0  0  0  0  0  0  0  0  0  0  0
  188.3240  175.2900  147.2630 C   0  0  0  0  0  3  0  0  0  0  0  0
  191.3190  173.2510  144.0360 C   0  0  2  0  0  0  0  0  0  0  0  0
  189.3170  172.0380  144.4700 O   0  0  0  0  0  0  0  0  0  0  0  0
  188.1310  174.1130  142.7940 O   0  0  0  0  0  1  0  0  0  0  0  0
  190.0490  173.8440  141.3860 C   0  0  0  0  0  2  0  0  0  0  0  0
  192.1610  172.0160  144.3290 C   0  0  0  0  0  1  0  0  0  0  0  0
  189.1580  173.2300  142.4610 C   0  0  1  0  0  3  0  0  0  0  0  0
  191.0770  174.7730  142.0000 C   0  0  0  0  0  2  0  0  0  0  0  0
  192.0170  173.9340  142.8490 C   0  0  0  0  0  2  0  0  0  0  0  0
  189.8970  172.7950  143.7050 C   0  0  0  0  0  0  0  0  0  0  0  0
  194.9100  176.6160  145.6900 C   0  0  0  0  0  3  0  0  0  0  0  0
  192.5950  175.0620  145.4060 C   0  0  0  0  0  0  0  0  0  0  0  0
  192.6110  176.3920  144.9610 C   0  0  0  0  0  3  0  0  0  0  0  0
  193.7660  177.1660  145.1020 C   0  0  0  0  0  3  0  0  0  0  0  0
  194.8970  175.2910  146.1380 C   0  0  0  0  0  3  0  0  0  0  0  0
  193.7400  174.5170  145.9970 C   0  0  0  0  0  3  0  0  0  0  0  0
  1 23  1  6  0  0  0
  1  2  1  0  0  0  0
  2  5  1  0  0  0  0
  5 12  2  0  0  0  0
  6  7  1  0  0  0  0
  6 11  1  0  0  0  0
  7  9  2  0  0  0  0
  8 11  1  0  0  0  0
  8  2  2  0  0  0  0
  9  4  1  0  0  0  0
  9  3  1  0  0  0  0
 10  3  1  0  0  0  0
 10 12  1  0  0  0  0
 11 10  2  0  0  0  0
 13 17  1  1  0  0  0
 13  1  1  0  0  0  0
 16 19  1  0  0  0  0
 16 18  1  0  0  0  0
 18 15  1  1  0  0  0
 18 21  1  0  0  0  0
 19 20  1  0  0  0  0
 20 13  1  0  0  0  0
 21 13  1  0  0  0  0
 21 14  2  0  0  0  0
 22 26  1  0  0  0  0
 23 27  1  0  0  0  0
 24 25  1  0  0  0  0
 24 23  2  0  0  0  0
 25 22  2  0  0  0  0
 27 26  2  0  0  0  0
M  END
>  <MODEL>
8

>  <REMARK>
 VINA RESULT:      -7.6      2.445      6.449
  Name = 
  3 active torsions:
  status: ('A' for Active; 'I' for Inactive)
    1  A    between atoms: C_1  and  C_15
    2  A    between atoms: C_2  and  C_15
    3  A    between atoms: C_9  and  C_15
                            x       y       z     vdW  Elec       q    Type
                         _______ _______ _______ _____ _____    ______ ____

>  <TORSDO>
F 3

$$$$
=
 OpenBabel11052418223D

 27 30  0  0  1  0  0  0  0  0999 V2000
  191.2240  174.8110  144.9560 C   0  0  1  0  0  3  0  0  0  0  0  0
  190.0360  175.7330  144.8580 C   0  0  0  0  0  0  0  0  0  0  0  0
  186.6940  178.4280  144.4990 C   0  0  0  0  0  2  0  0  0  0  0  0
  184.2050  178.2680  144.6410 O   0  0  0  0  0  1  0  0  0  0  0  0
  189.9740  176.6480  143.8000 C   0  0  0  0  0  3  0  0  0  0  0  0
  186.8160  176.5430  146.7120 C   0  0  0  0  0  2  0  0  0  0  0  0
  185.5030  176.9880  146.1290 C   0  0  0  0  0  3  0  0  0  0  0  0
  188.9960  175.6950  145.8000 C   0  0  0  0  0  3  0  0  0  0  0  0
  185.4430  177.8640  145.1190 C   0  0  0  0  0  0  0  0  0  0  0  0
  187.8480  177.4730  144.6130 C   0  0  0  0  0  0  0  0  0  0  0  0
  187.9030  176.5550  145.6770 C   0  0  0  0  0  0  0  0  0  0  0  0
  188.8870  177.5190  143.6790 C   0  0  0  0  0  3  0  0  0  0  0  0
  191.2580  173.5930  143.9880 C   0  0  2  0  0  0  0  0  0  0  0  0
  189.3120  172.4060  144.6730 O   0  0  0  0  0  0  0  0  0  0  0  0
  188.0630  173.9500  142.5340 O   0  0  0  0  0  1  0  0  0  0  0  0
  190.0290  173.4640  141.2570 C   0  0  0  0  0  2  0  0  0  0  0  0
  192.1560  172.5140  144.5790 C   0  0  0  0  0  1  0  0  0  0  0  0
  189.1430  173.0730  142.4350 C   0  0  1  0  0  3  0  0  0  0  0  0
  190.9900  174.5690  141.6440 C   0  0  0  0  0  2  0  0  0  0  0  0
  191.9500  174.0130  142.6810 C   0  0  0  0  0  2  0  0  0  0  0  0
  189.8710  172.9900  143.7570 C   0  0  0  0  0  0  0  0  0  0  0  0
  194.9400  176.8730  145.6590 C   0  0  0  0  0  3  0  0  0  0  0  0
  192.5270  175.5300  145.1810 C   0  0  0  0  0  0  0  0  0  0  0  0
  193.4260  175.7620  144.1300 C   0  0  0  0  0  3  0  0  0  0  0  0
  194.6290  176.4310  144.3690 C   0  0  0  0  0  3  0  0  0  0  0  0
  194.0450  176.6470  146.7090 C   0  0  0  0  0  3  0  0  0  0  0  0
  192.8410  175.9780  146.4690 C   0  0  0  0  0  3  0  0  0  0  0  0
  1  2  1  6  0  0  0
  1 23  1  0  0  0  0
  2  8  1  0  0  0  0
  3 10  1  0  0  0  0
  3  9  1  0  0  0  0
  4  9  1  0  0  0  0
  5  2  2  0  0  0  0
  7  6  1  0  0  0  0
  9  7  2  0  0  0  0
 10 11  1  0  0  0  0
 11  8  2  0  0  0  0
 11  6  1  0  0  0  0
 12  5  1  0  0  0  0
 12 10  2  0  0  0  0
 13 17  1  1  0  0  0
 13  1  1  0  0  0  0
 16 19  1  0  0  0  0
 16 18  1  0  0  0  0
 18 15  1  1  0  0  0
 18 21  1  0  0  0  0
 19 20  1  0  0  0  0
 20 13  1  0  0  0  0
 21 13  1  0  0  0  0
 21 14  2  0  0  0  0
 22 26  1  0  0  0  0
 23 27  1  0  0  0  0
 24 25  1  0  0  0  0
 24 23  2  0  0  0  0
 25 22  2  0  0  0  0
 27 26  2  0  0  0  0
M  END
>  <MODEL>
9

>  <REMARK>
 VINA RESULT:      -7.5      2.421      6.137
  Name = 
  3 active torsions:
  status: ('A' for Active; 'I' for Inactive)
    1  A    between atoms: C_1  and  C_15
    2  A    between atoms: C_2  and  C_15
    3  A    between atoms: C_9  and  C_15
                            x       y       z     vdW  Elec       q    Type
                         _______ _______ _______ _____ _____    ______ ____

>  <TORSDO>
F 3

$$$$
