=
 OpenBabel11052420273D

 34 38  0  0  1  0  0  0  0  0999 V2000
  188.5910  177.2410  145.0400 C   0  0  2  0  0  3  0  0  0  0  0  0
  187.9150  176.1050  141.6680 C   0  0  0  0  0  3  0  0  0  0  0  0
  186.8540  178.4160  142.5120 S   0  0  0  0  0  0  0  0  0  0  0  0
  186.2550  177.7360  146.2370 N   0  0  0  0  0  0  0  0  0  0  0  0
  186.2360  177.3570  147.6370 C   0  0  0  0  0  1  0  0  0  0  0  0
  186.3860  178.1890  144.2050 C   0  0  0  0  0  0  0  0  0  0  0  0
  187.2100  177.6990  145.2310 C   0  0  0  0  0  0  0  0  0  0  0  0
  185.0850  178.2370  145.1900 S   0  0  0  0  0  0  0  0  0  0  0  0
  188.7050  174.8790  141.4780 C   0  0  0  0  0  3  0  0  0  0  0  0
  189.9160  174.5710  141.9540 C   0  0  0  0  0  0  0  0  0  0  0  0
  190.7550  175.4670  142.7740 C   0  0  0  0  0  3  0  0  0  0  0  0
  188.0260  177.0270  142.6210 C   0  0  1  0  0  3  0  0  0  0  0  0
  190.3590  176.4550  143.5710 C   0  0  0  0  0  3  0  0  0  0  0  0
  188.9740  176.8970  143.7840 C   0  0  0  0  0  0  0  0  0  0  0  0
  190.4990  173.2760  141.5510 C   0  0  0  0  0  0  0  0  0  0  0  0
  189.6760  172.1940  141.2510 O   0  0  0  0  0  0  0  0  0  0  0  0
  191.7480  173.1340  141.4780 O   0  0  0  0  0  1  0  0  0  0  0  0
  189.6380  175.8750  146.9080 C   0  0  0  0  0  0  0  0  0  0  0  0
  189.4840  177.0790  146.1520 N   0  0  0  0  0  2  0  0  0  0  0  0
  188.7890  174.9480  146.8260 O   0  0  0  0  0  0  0  0  0  0  0  0
  190.8170  175.7170  147.8060 C   0  0  0  0  0  2  0  0  0  0  0  0
  194.1490  176.8310  146.3860 C   0  0  0  0  0  3  0  0  0  0  0  0
  192.3210  174.7280  146.0680 C   0  0  0  0  0  3  0  0  0  0  0  0
  195.8140  174.8560  143.7290 C   0  0  0  0  0  0  0  0  0  0  0  0
  195.5610  175.8630  144.6710 C   0  0  0  0  0  3  0  0  0  0  0  0
  194.4020  175.8250  145.4500 C   0  0  0  0  0  0  0  0  0  0  0  0
  193.7310  173.7620  144.3520 C   0  0  0  0  0  3  0  0  0  0  0  0
  193.4810  174.7660  145.2910 C   0  0  0  0  0  0  0  0  0  0  0  0
  194.8930  173.8070  143.5750 C   0  0  0  0  0  3  0  0  0  0  0  0
  192.0750  175.7360  147.0070 C   0  0  0  0  0  0  0  0  0  0  0  0
  192.9860  176.7880  147.1610 C   0  0  0  0  0  3  0  0  0  0  0  0
  197.0360  174.9030  142.9120 C   0  0  0  0  0  0  0  0  0  0  0  0
  197.3700  173.9140  142.2060 O   0  0  0  0  0  0  0  0  0  0  0  0
  197.8340  176.0410  142.9080 O   0  0  0  0  0  1  0  0  0  0  0  0
  1  7  1  0  0  0  0
  1 19  1  1  0  0  0
  3 12  1  0  0  0  0
  3  6  1  0  0  0  0
  4  5  1  0  0  0  0
  6  8  1  0  0  0  0
  6  7  2  0  0  0  0
  7  4  1  0  0  0  0
  8  4  1  0  0  0  0
  9  2  2  0  0  0  0
  9 10  1  0  0  0  0
 10 11  2  0  0  0  0
 11 13  1  0  0  0  0
 12  2  1  1  0  0  0
 12 14  1  0  0  0  0
 13 14  2  0  0  0  0
 14  1  1  0  0  0  0
 15 10  1  0  0  0  0
 16 15  2  0  0  0  0
 17 15  1  0  0  0  0
 18 21  1  0  0  0  0
 19 18  1  0  0  0  0
 20 18  2  0  0  0  0
 22 31  1  0  0  0  0
 23 30  1  0  0  0  0
 24 25  2  0  0  0  0
 25 26  1  0  0  0  0
 26 22  2  0  0  0  0
 27 28  1  0  0  0  0
 28 26  1  0  0  0  0
 28 23  2  0  0  0  0
 29 24  1  0  0  0  0
 29 27  2  0  0  0  0
 30 31  2  0  0  0  0
 30 21  1  0  0  0  0
 32 24  1  0  0  0  0
 33 32  2  0  0  0  0
 34 32  1  0  0  0  0
M  END
>  <MODEL>
1

>  <REMARK>
 VINA RESULT:      -8.0      0.000      0.000
  Name = 
  5 active torsions:
  status: ('A' for Active; 'I' for Inactive)
    1  A    between atoms: C_1  and  N_9
    2  A    between atoms: C_3  and  C_25
    3  A    between atoms: C_7  and  C_11
    4  A    between atoms: C_8  and  C_18
    5  A    between atoms: C_18  and  C_30
                            x       y       z     vdW  Elec       q    Type
                         _______ _______ _______ _____ _____    ______ ____

>  <TORSDO>
F 5

$$$$
=
 OpenBabel11052420273D

 34 38  0  0  1  0  0  0  0  0999 V2000
  193.3810  175.3290  142.5190 C   0  0  2  0  0  3  0  0  0  0  0  0
  194.8390  176.2300  145.7100 C   0  0  0  0  0  3  0  0  0  0  0  0
  196.3180  176.4350  143.4860 S   0  0  0  0  0  0  0  0  0  0  0  0
  194.9870  173.5490  141.3410 N   0  0  0  0  0  0  0  0  0  0  0  0
  194.2670  172.5150  140.6210 C   0  0  0  0  0  1  0  0  0  0  0  0
  195.9060  175.0550  142.4550 C   0  0  0  0  0  0  0  0  0  0  0  0
  194.6120  174.6690  142.0710 C   0  0  0  0  0  0  0  0  0  0  0  0
  196.5740  173.7500  141.7350 S   0  0  0  0  0  0  0  0  0  0  0  0
  193.7640  176.1070  146.7050 C   0  0  0  0  0  2  0  0  0  0  0  0
  192.4580  176.3690  146.5780 C   0  0  0  0  0  0  0  0  0  0  0  0
  191.8180  176.8970  145.3580 C   0  0  0  0  0  3  0  0  0  0  0  0
  194.7440  176.2710  144.3830 C   0  0  0  0  0  0  0  0  0  0  0  0
  192.2250  176.7670  144.0990 C   0  0  0  0  0  3  0  0  0  0  0  0
  193.4430  176.0830  143.6470 C   0  0  0  0  0  0  0  0  0  0  0  0
  191.6100  176.2070  147.7750 C   0  0  0  0  0  0  0  0  0  0  0  0
  191.4110  177.2700  148.6500 O   0  0  0  0  0  1  0  0  0  0  0  0
  191.0570  175.1020  148.0190 O   0  0  0  0  0  0  0  0  0  0  0  0
  191.2130  174.0640  142.1290 C   0  0  0  0  0  0  0  0  0  0  0  0
  192.1320  175.1200  141.8410 N   0  0  0  0  0  2  0  0  0  0  0  0
  191.5670  173.0690  142.8160 O   0  0  0  0  0  0  0  0  0  0  0  0
  189.8190  174.1420  141.6080 C   0  0  0  0  0  2  0  0  0  0  0  0
  187.5130  176.9680  142.6360 C   0  0  0  0  0  3  0  0  0  0  0  0
  189.0490  174.9570  143.8450 C   0  0  0  0  0  3  0  0  0  0  0  0
  186.8560  177.6490  146.2180 C   0  0  0  0  0  0  0  0  0  0  0  0
  186.8200  177.7540  144.8210 C   0  0  0  0  0  3  0  0  0  0  0  0
  187.5470  176.8610  144.0280 C   0  0  0  0  0  0  0  0  0  0  0  0
  188.3580  175.7440  146.0300 C   0  0  0  0  0  3  0  0  0  0  0  0
  188.3200  175.8480  144.6370 C   0  0  0  0  0  0  0  0  0  0  0  0
  187.6280  176.6400  146.8160 C   0  0  0  0  0  3  0  0  0  0  0  0
  189.0080  175.0660  142.4500 C   0  0  0  0  0  0  0  0  0  0  0  0
  188.2450  176.0740  141.8480 C   0  0  0  0  0  3  0  0  0  0  0  0
  186.0890  178.5920  147.0470 C   0  0  0  0  0  0  0  0  0  0  0  0
  184.9130  178.9110  146.7280 O   0  0  0  0  0  0  0  0  0  0  0  0
  186.6550  179.1400  148.1920 O   0  0  0  0  0  1  0  0  0  0  0  0
  1 19  1  1  0  0  0
  1 14  1  0  0  0  0
  2  9  1  0  0  0  0
  3 12  1  0  0  0  0
  4  8  1  0  0  0  0
  4  7  1  0  0  0  0
  5  4  1  0  0  0  0
  6  3  1  0  0  0  0
  7  6  2  0  0  0  0
  7  1  1  0  0  0  0
  8  6  1  0  0  0  0
 10  9  1  0  0  0  0
 10 15  1  0  0  0  0
 11 10  2  0  0  0  0
 12  2  2  0  0  0  0
 13 11  1  0  0  0  0
 14 13  2  0  0  0  0
 14 12  1  0  0  0  0
 15 17  2  0  0  0  0
 15 16  1  0  0  0  0
 18 20  2  0  0  0  0
 19 18  1  0  0  0  0
 21 18  1  0  0  0  0
 21 30  1  0  0  0  0
 22 26  1  0  0  0  0
 23 28  1  0  0  0  0
 24 29  1  0  0  0  0
 24 32  1  0  0  0  0
 25 24  2  0  0  0  0
 26 28  2  0  0  0  0
 26 25  1  0  0  0  0
 27 29  2  0  0  0  0
 28 27  1  0  0  0  0
 30 23  2  0  0  0  0
 31 30  1  0  0  0  0
 31 22  2  0  0  0  0
 32 34  1  0  0  0  0
 33 32  2  0  0  0  0
M  END
>  <MODEL>
2

>  <REMARK>
 VINA RESULT:      -8.0      3.669      8.211
  Name = 
  5 active torsions:
  status: ('A' for Active; 'I' for Inactive)
    1  A    between atoms: C_1  and  N_9
    2  A    between atoms: C_3  and  C_25
    3  A    between atoms: C_7  and  C_11
    4  A    between atoms: C_8  and  C_18
    5  A    between atoms: C_18  and  C_30
                            x       y       z     vdW  Elec       q    Type
                         _______ _______ _______ _____ _____    ______ ____

>  <TORSDO>
F 5

$$$$
=
 OpenBabel11052420273D

 34 38  0  0  1  0  0  0  0  0999 V2000
  191.8200  173.9640  145.0790 C   0  0  2  0  0  3  0  0  0  0  0  0
  191.6020  172.4520  141.7950 C   0  0  0  0  0  3  0  0  0  0  0  0
  193.1720  171.3320  143.6550 S   0  0  0  0  0  0  0  0  0  0  0  0
  194.3990  174.3730  145.6400 N   0  0  0  0  0  0  0  0  0  0  0  0
  194.6400  175.6110  146.3570 C   0  0  0  0  0  1  0  0  0  0  0  0
  193.9310  172.6500  144.5610 C   0  0  0  0  0  0  0  0  0  0  0  0
  193.2650  173.7300  145.1610 C   0  0  0  0  0  0  0  0  0  0  0  0
  195.3960  173.2630  144.9430 S   0  0  0  0  0  0  0  0  0  0  0  0
  190.6030  173.2290  141.0480 C   0  0  0  0  0  3  0  0  0  0  0  0
  189.4790  173.8080  141.4860 C   0  0  0  0  0  0  0  0  0  0  0  0
  188.9820  173.7420  142.8740 C   0  0  0  0  0  3  0  0  0  0  0  0
  191.8380  172.4410  143.1050 C   0  0  1  0  0  3  0  0  0  0  0  0
  189.6860  173.5640  143.9870 C   0  0  0  0  0  3  0  0  0  0  0  0
  191.1380  173.3580  144.0730 C   0  0  0  0  0  0  0  0  0  0  0  0
  188.6260  174.4840  140.4900 C   0  0  0  0  0  0  0  0  0  0  0  0
  188.6020  174.0500  139.1680 O   0  0  0  0  0  0  0  0  0  0  0  0
  187.9100  175.4650  140.8250 O   0  0  0  0  0  1  0  0  0  0  0  0
  191.0560  176.2800  145.7870 C   0  0  0  0  0  0  0  0  0  0  0  0
  191.1570  174.8670  145.9770 N   0  0  0  0  0  2  0  0  0  0  0  0
  191.7880  176.8740  144.9510 O   0  0  0  0  0  0  0  0  0  0  0  0
  190.0710  177.0610  146.5890 C   0  0  0  0  0  2  0  0  0  0  0  0
  186.3940  176.9070  145.6860 C   0  0  0  0  0  3  0  0  0  0  0  0
  188.8170  177.7120  144.5240 C   0  0  0  0  0  3  0  0  0  0  0  0
  185.2310  178.0160  142.3470 C   0  0  0  0  0  0  0  0  0  0  0  0
  185.2190  177.5140  143.6560 C   0  0  0  0  0  3  0  0  0  0  0  0
  186.4070  177.4110  144.3830 C   0  0  0  0  0  0  0  0  0  0  0  0
  187.6420  178.3160  142.4940 C   0  0  0  0  0  3  0  0  0  0  0  0
  187.6280  177.8170  143.7990 C   0  0  0  0  0  0  0  0  0  0  0  0
  186.4480  178.4150  141.7720 C   0  0  0  0  0  3  0  0  0  0  0  0
  188.7970  177.2110  145.8310 C   0  0  0  0  0  0  0  0  0  0  0  0
  187.5880  176.8050  146.4080 C   0  0  0  0  0  3  0  0  0  0  0  0
  183.9770  178.1210  141.5870 C   0  0  0  0  0  0  0  0  0  0  0  0
  182.8760  178.2540  142.1860 O   0  0  0  0  0  1  0  0  0  0  0  0
  183.9930  178.0750  140.1980 O   0  0  0  0  0  0  0  0  0  0  0  0
  1  7  1  0  0  0  0
  1 19  1  6  0  0  0
  3  6  1  0  0  0  0
  4  5  1  0  0  0  0
  6  8  1  0  0  0  0
  6  7  2  0  0  0  0
  7  4  1  0  0  0  0
  8  4  1  0  0  0  0
  9 10  1  0  0  0  0
  9  2  2  0  0  0  0
 10 11  2  0  0  0  0
 11 13  1  0  0  0  0
 12  2  1  6  0  0  0
 12  3  1  0  0  0  0
 12 14  1  0  0  0  0
 13 14  2  0  0  0  0
 14  1  1  0  0  0  0
 15 17  1  0  0  0  0
 15 10  1  0  0  0  0
 16 15  2  0  0  0  0
 18 19  1  0  0  0  0
 18 21  1  0  0  0  0
 20 18  2  0  0  0  0
 22 31  1  0  0  0  0
 23 30  1  0  0  0  0
 24 25  2  0  0  0  0
 25 26  1  0  0  0  0
 26 22  2  0  0  0  0
 27 28  1  0  0  0  0
 28 26  1  0  0  0  0
 28 23  2  0  0  0  0
 29 24  1  0  0  0  0
 29 27  2  0  0  0  0
 30 31  2  0  0  0  0
 30 21  1  0  0  0  0
 32 33  1  0  0  0  0
 32 24  1  0  0  0  0
 34 32  2  0  0  0  0
M  END
>  <MODEL>
3

>  <REMARK>
 VINA RESULT:      -7.8      3.748      7.582
  Name = 
  5 active torsions:
  status: ('A' for Active; 'I' for Inactive)
    1  A    between atoms: C_1  and  N_9
    2  A    between atoms: C_3  and  C_25
    3  A    between atoms: C_7  and  C_11
    4  A    between atoms: C_8  and  C_18
    5  A    between atoms: C_18  and  C_30
                            x       y       z     vdW  Elec       q    Type
                         _______ _______ _______ _____ _____    ______ ____

>  <TORSDO>
F 5

$$$$
=
 OpenBabel11052420273D

 34 38  0  0  1  0  0  0  0  0999 V2000
  187.5590  177.5660  143.2580 C   0  0  2  0  0  3  0  0  0  0  0  0
  187.8710  175.2140  140.5210 C   0  0  0  0  0  3  0  0  0  0  0  0
  186.5830  177.5280  140.1220 S   0  0  0  0  0  0  0  0  0  0  0  0
  184.9740  178.1770  143.5410 N   0  0  0  0  0  0  0  0  0  0  0  0
  184.5700  178.3310  144.9260 C   0  0  0  0  0  1  0  0  0  0  0  0
  185.6630  177.8750  141.5950 C   0  0  0  0  0  0  0  0  0  0  0  0
  186.1740  177.8930  142.9030 C   0  0  0  0  0  0  0  0  0  0  0  0
  184.1370  178.1200  142.1230 S   0  0  0  0  0  0  0  0  0  0  0  0
  188.7010  174.1070  141.0200 C   0  0  0  0  0  3  0  0  0  0  0  0
  189.7360  174.1400  141.8670 C   0  0  0  0  0  0  0  0  0  0  0  0
  190.2970  175.3650  142.4670 C   0  0  0  0  0  3  0  0  0  0  0  0
  187.6970  176.4250  141.0450 C   0  0  1  0  0  3  0  0  0  0  0  0
  189.6790  176.5200  142.6980 C   0  0  0  0  0  3  0  0  0  0  0  0
  188.2840  176.8390  142.3690 C   0  0  0  0  0  0  0  0  0  0  0  0
  190.4270  172.8660  142.1510 C   0  0  0  0  0  0  0  0  0  0  0  0
  191.7880  172.7300  141.8990 O   0  0  0  0  0  0  0  0  0  0  0  0
  189.7900  171.8870  142.6230 O   0  0  0  0  0  1  0  0  0  0  0  0
  188.0290  177.1230  145.7140 C   0  0  0  0  0  0  0  0  0  0  0  0
  188.1080  177.9270  144.5340 N   0  0  0  0  0  2  0  0  0  0  0  0
  187.2230  176.1570  145.7850 O   0  0  0  0  0  0  0  0  0  0  0  0
  188.9120  177.4320  146.8740 C   0  0  0  0  0  2  0  0  0  0  0  0
  191.8490  175.1200  147.5000 C   0  0  0  0  0  3  0  0  0  0  0  0
  191.0990  177.1340  145.6970 C   0  0  0  0  0  3  0  0  0  0  0  0
  194.8540  175.2730  145.3370 C   0  0  0  0  0  0  0  0  0  0  0  0
  193.9730  174.8880  146.3570 C   0  0  0  0  0  3  0  0  0  0  0  0
  192.7240  175.5030  146.4810 C   0  0  0  0  0  0  0  0  0  0  0  0
  193.2240  176.9030  144.5570 C   0  0  0  0  0  3  0  0  0  0  0  0
  192.3460  176.5170  145.5730 C   0  0  0  0  0  0  0  0  0  0  0  0
  194.4720  176.2830  144.4390 C   0  0  0  0  0  3  0  0  0  0  0  0
  190.2240  176.7440  146.7170 C   0  0  0  0  0  0  0  0  0  0  0  0
  190.6010  175.7420  147.6190 C   0  0  0  0  0  3  0  0  0  0  0  0
  196.1670  174.6220  145.2140 C   0  0  0  0  0  0  0  0  0  0  0  0
  196.4910  173.6860  145.9930 O   0  0  0  0  0  1  0  0  0  0  0  0
  197.0630  175.0310  144.2330 O   0  0  0  0  0  0  0  0  0  0  0  0
  1 19  1  1  0  0  0
  2  9  2  0  0  0  0
  3 12  1  0  0  0  0
  3  6  1  0  0  0  0
  4  5  1  0  0  0  0
  6  8  1  0  0  0  0
  6  7  2  0  0  0  0
  7  1  1  0  0  0  0
  7  4  1  0  0  0  0
  8  4  1  0  0  0  0
  9 10  1  0  0  0  0
 10 15  1  0  0  0  0
 10 11  2  0  0  0  0
 11 13  1  0  0  0  0
 12  2  1  1  0  0  0
 12 14  1  0  0  0  0
 14 13  2  0  0  0  0
 14  1  1  0  0  0  0
 15 17  1  0  0  0  0
 16 15  2  0  0  0  0
 18 20  2  0  0  0  0
 18 21  1  0  0  0  0
 19 18  1  0  0  0  0
 22 31  1  0  0  0  0
 23 30  1  0  0  0  0
 24 25  2  0  0  0  0
 25 26  1  0  0  0  0
 26 22  2  0  0  0  0
 27 28  1  0  0  0  0
 28 23  2  0  0  0  0
 28 26  1  0  0  0  0
 29 27  2  0  0  0  0
 29 24  1  0  0  0  0
 30 21  1  0  0  0  0
 30 31  2  0  0  0  0
 32 24  1  0  0  0  0
 32 33  1  0  0  0  0
 34 32  2  0  0  0  0
M  END
>  <MODEL>
4

>  <REMARK>
 VINA RESULT:      -7.8      1.683      2.363
  Name = 
  5 active torsions:
  status: ('A' for Active; 'I' for Inactive)
    1  A    between atoms: C_1  and  N_9
    2  A    between atoms: C_3  and  C_25
    3  A    between atoms: C_7  and  C_11
    4  A    between atoms: C_8  and  C_18
    5  A    between atoms: C_18  and  C_30
                            x       y       z     vdW  Elec       q    Type
                         _______ _______ _______ _____ _____    ______ ____

>  <TORSDO>
F 5

$$$$
=
 OpenBabel11052420273D

 34 38  0  0  1  0  0  0  0  0999 V2000
  192.9770  172.6580  144.7800 C   0  0  2  0  0  3  0  0  0  0  0  0
  191.1480  170.6300  142.4000 C   0  0  0  0  0  3  0  0  0  0  0  0
  193.0490  169.4930  143.9070 S   0  0  0  0  0  0  0  0  0  0  0  0
  195.5880  172.3360  144.3170 N   0  0  0  0  0  0  0  0  0  0  0  0
  196.3550  173.5560  144.4850 C   0  0  0  0  0  1  0  0  0  0  0  0
  194.3710  170.6620  144.0520 C   0  0  0  0  0  0  0  0  0  0  0  0
  194.2490  172.0000  144.4600 C   0  0  0  0  0  0  0  0  0  0  0  0
  195.9600  170.8440  143.7250 S   0  0  0  0  0  0  0  0  0  0  0  0
  190.1250  171.5060  141.8100 C   0  0  0  0  0  3  0  0  0  0  0  0
  189.4230  172.4920  142.3810 C   0  0  0  0  0  0  0  0  0  0  0  0
  189.5200  172.8850  143.8000 C   0  0  0  0  0  3  0  0  0  0  0  0
  191.8790  170.8240  143.4960 C   0  0  1  0  0  3  0  0  0  0  0  0
  190.5540  172.7340  144.6220 C   0  0  0  0  0  3  0  0  0  0  0  0
  191.8380  172.1010  144.2950 C   0  0  0  0  0  0  0  0  0  0  0  0
  188.4100  173.1760  141.5530 C   0  0  0  0  0  0  0  0  0  0  0  0
  187.7210  174.2780  142.0490 O   0  0  0  0  0  1  0  0  0  0  0  0
  188.1560  172.7670  140.3890 O   0  0  0  0  0  0  0  0  0  0  0  0
  193.0570  175.1930  144.9200 C   0  0  0  0  0  0  0  0  0  0  0  0
  192.9390  173.8950  145.5080 N   0  0  0  0  0  2  0  0  0  0  0  0
  193.4860  175.3330  143.7440 O   0  0  0  0  0  0  0  0  0  0  0  0
  192.6680  176.3950  145.7110 C   0  0  0  0  0  2  0  0  0  0  0  0
  189.6650  177.9970  144.0440 C   0  0  0  0  0  3  0  0  0  0  0  0
  190.2230  176.3430  146.2400 C   0  0  0  0  0  3  0  0  0  0  0  0
  186.2670  177.5250  145.4440 C   0  0  0  0  0  0  0  0  0  0  0  0
  187.3100  177.9550  144.6120 C   0  0  0  0  0  3  0  0  0  0  0  0
  188.6260  177.5650  144.8720 C   0  0  0  0  0  0  0  0  0  0  0  0
  187.8690  176.3040  146.8080 C   0  0  0  0  0  3  0  0  0  0  0  0
  188.9080  176.7320  145.9780 C   0  0  0  0  0  0  0  0  0  0  0  0
  186.5540  176.6990  146.5410 C   0  0  0  0  0  3  0  0  0  0  0  0
  191.2610  176.7760  145.4050 C   0  0  0  0  0  0  0  0  0  0  0  0
  190.9810  177.6050  144.3120 C   0  0  0  0  0  3  0  0  0  0  0  0
  184.8840  177.9400  145.1640 C   0  0  0  0  0  0  0  0  0  0  0  0
  184.4740  178.0360  143.9760 O   0  0  0  0  0  0  0  0  0  0  0  0
  184.0130  178.2300  146.2080 O   0  0  0  0  0  1  0  0  0  0  0  0
  1 19  1  6  0  0  0
  3  6  1  0  0  0  0
  4  7  1  0  0  0  0
  4  5  1  0  0  0  0
  6  7  2  0  0  0  0
  7  1  1  0  0  0  0
  8  6  1  0  0  0  0
  8  4  1  0  0  0  0
  9 10  1  0  0  0  0
  9  2  2  0  0  0  0
 10 11  2  0  0  0  0
 11 13  1  0  0  0  0
 12  2  1  6  0  0  0
 12  3  1  0  0  0  0
 12 14  1  0  0  0  0
 14 13  2  0  0  0  0
 14  1  1  0  0  0  0
 15 16  1  0  0  0  0
 15 10  1  0  0  0  0
 17 15  2  0  0  0  0
 18 19  1  0  0  0  0
 18 21  1  0  0  0  0
 20 18  2  0  0  0  0
 22 31  2  0  0  0  0
 22 26  1  0  0  0  0
 24 29  1  0  0  0  0
 25 26  1  0  0  0  0
 25 24  2  0  0  0  0
 26 28  2  0  0  0  0
 28 23  1  0  0  0  0
 28 27  1  0  0  0  0
 29 27  2  0  0  0  0
 30 21  1  0  0  0  0
 30 23  2  0  0  0  0
 31 30  1  0  0  0  0
 32 24  1  0  0  0  0
 32 34  1  0  0  0  0
 33 32  2  0  0  0  0
M  END
>  <MODEL>
5

>  <REMARK>
 VINA RESULT:      -7.6      3.964      7.737
  Name = 
  5 active torsions:
  status: ('A' for Active; 'I' for Inactive)
    1  A    between atoms: C_1  and  N_9
    2  A    between atoms: C_3  and  C_25
    3  A    between atoms: C_7  and  C_11
    4  A    between atoms: C_8  and  C_18
    5  A    between atoms: C_18  and  C_30
                            x       y       z     vdW  Elec       q    Type
                         _______ _______ _______ _____ _____    ______ ____

>  <TORSDO>
F 5

$$$$
=
 OpenBabel11052420273D

 34 38  0  0  1  0  0  0  0  0999 V2000
  193.0780  172.5170  144.8020 C   0  0  2  0  0  3  0  0  0  0  0  0
  191.0930  170.7120  142.3680 C   0  0  0  0  0  3  0  0  0  0  0  0
  192.9310  169.3920  143.8020 S   0  0  0  0  0  0  0  0  0  0  0  0
  195.6560  172.0430  144.2910 N   0  0  0  0  0  0  0  0  0  0  0  0
  196.5040  173.2020  144.4980 C   0  0  0  0  0  1  0  0  0  0  0  0
  194.3280  170.4650  143.9750 C   0  0  0  0  0  0  0  0  0  0  0  0
  194.2990  171.7900  144.4380 C   0  0  0  0  0  0  0  0  0  0  0  0
  195.9230  170.5560  143.6340 S   0  0  0  0  0  0  0  0  0  0  0  0
  190.1240  171.6770  141.8280 C   0  0  0  0  0  3  0  0  0  0  0  0
  189.4940  172.6820  142.4470 C   0  0  0  0  0  0  0  0  0  0  0  0
  189.6320  173.0100  143.8790 C   0  0  0  0  0  3  0  0  0  0  0  0
  191.8470  170.8130  143.4600 C   0  0  1  0  0  3  0  0  0  0  0  0
  190.6630  172.7580  144.6800 C   0  0  0  0  0  3  0  0  0  0  0  0
  191.8990  172.0550  144.3110 C   0  0  0  0  0  0  0  0  0  0  0  0
  188.5190  173.4640  141.6620 C   0  0  0  0  0  0  0  0  0  0  0  0
  188.0940  173.0160  140.4160 O   0  0  0  0  0  0  0  0  0  0  0  0
  188.0630  174.5480  142.1110 O   0  0  0  0  0  1  0  0  0  0  0  0
  193.3180  175.0330  145.0430 C   0  0  0  0  0  0  0  0  0  0  0  0
  193.1290  173.7220  145.5800 N   0  0  0  0  0  2  0  0  0  0  0  0
  193.7350  175.1950  143.8650 O   0  0  0  0  0  0  0  0  0  0  0  0
  193.0190  176.2230  145.8880 C   0  0  0  0  0  2  0  0  0  0  0  0
  189.4760  176.0980  147.2280 C   0  0  0  0  0  3  0  0  0  0  0  0
  190.8360  177.0090  144.9500 C   0  0  0  0  0  3  0  0  0  0  0  0
  186.6610  177.4320  145.2220 C   0  0  0  0  0  0  0  0  0  0  0  0
  187.3770  176.8370  146.2700 C   0  0  0  0  0  3  0  0  0  0  0  0
  188.7640  176.6940  146.1840 C   0  0  0  0  0  0  0  0  0  0  0  0
  188.7370  177.7450  143.9920 C   0  0  0  0  0  3  0  0  0  0  0  0
  189.4500  177.1530  145.0370 C   0  0  0  0  0  0  0  0  0  0  0  0
  187.3490  177.8840  144.0850 C   0  0  0  0  0  3  0  0  0  0  0  0
  191.5460  176.4150  146.0010 C   0  0  0  0  0  0  0  0  0  0  0  0
  190.8650  175.9560  147.1350 C   0  0  0  0  0  3  0  0  0  0  0  0
  185.2000  177.5780  145.3180 C   0  0  0  0  0  0  0  0  0  0  0  0
  184.5270  177.9340  144.3150 O   0  0  0  0  0  0  0  0  0  0  0  0
  184.5480  177.3240  146.5190 O   0  0  0  0  0  1  0  0  0  0  0  0
  1 19  1  6  0  0  0
  3  6  1  0  0  0  0
  4  7  1  0  0  0  0
  4  5  1  0  0  0  0
  6  7  2  0  0  0  0
  7  1  1  0  0  0  0
  8  6  1  0  0  0  0
  8  4  1  0  0  0  0
  9  2  2  0  0  0  0
  9 10  1  0  0  0  0
 10 11  2  0  0  0  0
 11 13  1  0  0  0  0
 12  2  1  6  0  0  0
 12  3  1  0  0  0  0
 12 14  1  0  0  0  0
 14 13  2  0  0  0  0
 14  1  1  0  0  0  0
 15 17  1  0  0  0  0
 15 10  1  0  0  0  0
 16 15  2  0  0  0  0
 18 19  1  0  0  0  0
 18 21  1  0  0  0  0
 20 18  2  0  0  0  0
 21 30  1  0  0  0  0
 23 28  2  0  0  0  0
 23 30  1  0  0  0  0
 24 32  1  0  0  0  0
 24 25  2  0  0  0  0
 26 25  1  0  0  0  0
 26 22  2  0  0  0  0
 27 29  2  0  0  0  0
 27 28  1  0  0  0  0
 28 26  1  0  0  0  0
 29 24  1  0  0  0  0
 30 31  2  0  0  0  0
 31 22  1  0  0  0  0
 32 34  1  0  0  0  0
 33 32  2  0  0  0  0
M  END
>  <MODEL>
6

>  <REMARK>
 VINA RESULT:      -7.5      3.934      7.637
  Name = 
  5 active torsions:
  status: ('A' for Active; 'I' for Inactive)
    1  A    between atoms: C_1  and  N_9
    2  A    between atoms: C_3  and  C_25
    3  A    between atoms: C_7  and  C_11
    4  A    between atoms: C_8  and  C_18
    5  A    between atoms: C_18  and  C_30
                            x       y       z     vdW  Elec       q    Type
                         _______ _______ _______ _____ _____    ______ ____

>  <TORSDO>
F 5

$$$$
=
 OpenBabel11052420273D

 34 38  0  0  1  0  0  0  0  0999 V2000
  191.0260  174.0970  143.9990 C   0  0  2  0  0  3  0  0  0  0  0  0
  190.6760  171.6850  141.3200 C   0  0  0  0  0  3  0  0  0  0  0  0
  191.6520  170.8880  143.6840 S   0  0  0  0  0  0  0  0  0  0  0  0
  193.5440  173.9980  144.8860 N   0  0  0  0  0  0  0  0  0  0  0  0
  194.0770  175.3000  145.2410 C   0  0  0  0  0  1  0  0  0  0  0  0
  192.6840  172.1930  144.2900 C   0  0  0  0  0  0  0  0  0  0  0  0
  192.3200  173.5440  144.4130 C   0  0  0  0  0  0  0  0  0  0  0  0
  194.2220  172.5040  144.7420 S   0  0  0  0  0  0  0  0  0  0  0  0
  190.0320  172.3950  140.2050 C   0  0  0  0  0  3  0  0  0  0  0  0
  189.0990  173.3530  140.2380 C   0  0  0  0  0  0  0  0  0  0  0  0
  188.4750  173.8830  141.4660 C   0  0  0  0  0  3  0  0  0  0  0  0
  190.7730  172.0510  142.5960 C   0  0  1  0  0  3  0  0  0  0  0  0
  188.9850  173.9130  142.6940 C   0  0  0  0  0  3  0  0  0  0  0  0
  190.2920  173.3850  143.1050 C   0  0  0  0  0  0  0  0  0  0  0  0
  188.5870  173.8520  138.9470 C   0  0  0  0  0  0  0  0  0  0  0  0
  187.8150  175.0090  138.8930 O   0  0  0  0  0  1  0  0  0  0  0  0
  188.8400  173.2350  137.8790 O   0  0  0  0  0  0  0  0  0  0  0  0
  190.9610  176.6320  143.8660 C   0  0  0  0  0  0  0  0  0  0  0  0
  190.5840  175.3840  144.4540 N   0  0  0  0  0  2  0  0  0  0  0  0
  191.9380  176.7040  143.0740 O   0  0  0  0  0  0  0  0  0  0  0  0
  190.1890  177.8630  144.1970 C   0  0  0  0  0  2  0  0  0  0  0  0
  187.6450  177.7470  141.3910 C   0  0  0  0  0  3  0  0  0  0  0  0
  187.6950  178.0590  144.1780 C   0  0  0  0  0  3  0  0  0  0  0  0
  184.0350  178.1780  142.1090 C   0  0  0  0  0  0  0  0  0  0  0  0
  185.2330  177.9800  141.4080 C   0  0  0  0  0  3  0  0  0  0  0  0
  186.4510  177.9400  142.0910 C   0  0  0  0  0  0  0  0  0  0  0  0
  185.2840  178.2950  144.1940 C   0  0  0  0  0  3  0  0  0  0  0  0
  186.4770  178.0970  143.4950 C   0  0  0  0  0  0  0  0  0  0  0  0
  184.0680  178.3350  143.5040 C   0  0  0  0  0  3  0  0  0  0  0  0
  188.8870  177.8610  143.4720 C   0  0  0  0  0  0  0  0  0  0  0  0
  188.8610  177.7100  142.0800 C   0  0  0  0  0  3  0  0  0  0  0  0
  182.7560  178.2200  141.3840 C   0  0  0  0  0  0  0  0  0  0  0  0
  181.7200  178.6710  141.9410 O   0  0  0  0  0  1  0  0  0  0  0  0
  182.6780  177.7620  140.0730 O   0  0  0  0  0  0  0  0  0  0  0  0
  1  7  1  0  0  0  0
  1 19  1  6  0  0  0
  3  6  1  0  0  0  0
  4  5  1  0  0  0  0
  6  7  2  0  0  0  0
  6  8  1  0  0  0  0
  7  4  1  0  0  0  0
  8  4  1  0  0  0  0
  9 10  1  0  0  0  0
  9  2  2  0  0  0  0
 10 11  2  0  0  0  0
 11 13  1  0  0  0  0
 12  2  1  6  0  0  0
 12 14  1  0  0  0  0
 12  3  1  0  0  0  0
 13 14  2  0  0  0  0
 14  1  1  0  0  0  0
 15 10  1  0  0  0  0
 16 15  1  0  0  0  0
 17 15  2  0  0  0  0
 18 21  1  0  0  0  0
 18 19  1  0  0  0  0
 20 18  2  0  0  0  0
 22 31  2  0  0  0  0
 22 26  1  0  0  0  0
 24 29  1  0  0  0  0
 25 26  1  0  0  0  0
 25 24  2  0  0  0  0
 26 28  2  0  0  0  0
 28 23  1  0  0  0  0
 28 27  1  0  0  0  0
 29 27  2  0  0  0  0
 30 23  2  0  0  0  0
 30 21  1  0  0  0  0
 31 30  1  0  0  0  0
 32 33  1  0  0  0  0
 32 24  1  0  0  0  0
 34 32  2  0  0  0  0
M  END
>  <MODEL>
7

>  <REMARK>
 VINA RESULT:      -7.3      3.907      8.119
  Name = 
  5 active torsions:
  status: ('A' for Active; 'I' for Inactive)
    1  A    between atoms: C_1  and  N_9
    2  A    between atoms: C_3  and  C_25
    3  A    between atoms: C_7  and  C_11
    4  A    between atoms: C_8  and  C_18
    5  A    between atoms: C_18  and  C_30
                            x       y       z     vdW  Elec       q    Type
                         _______ _______ _______ _____ _____    ______ ____

>  <TORSDO>
F 5

$$$$
=
 OpenBabel11052420273D

 34 38  0  0  1  0  0  0  0  0999 V2000
  189.6260  176.2440  143.0980 C   0  0  2  0  0  3  0  0  0  0  0  0
  189.3700  175.4870  146.6310 C   0  0  0  0  0  3  0  0  0  0  0  0
  191.7060  175.1110  145.3730 S   0  0  0  0  0  0  0  0  0  0  0  0
  190.5910  174.0890  141.8500 N   0  0  0  0  0  0  0  0  0  0  0  0
  189.9920  173.8640  140.5480 C   0  0  0  0  0  1  0  0  0  0  0  0
  191.3350  174.4850  143.7590 C   0  0  0  0  0  0  0  0  0  0  0  0
  190.4420  175.0540  142.8370 C   0  0  0  0  0  0  0  0  0  0  0  0
  191.6030  173.1950  142.7940 S   0  0  0  0  0  0  0  0  0  0  0  0
  188.0160  175.8850  147.0420 C   0  0  0  0  0  2  0  0  0  0  0  0
  187.2730  176.9150  146.6230 C   0  0  0  0  0  0  0  0  0  0  0  0
  187.7080  177.9260  145.6400 C   0  0  0  0  0  3  0  0  0  0  0  0
  190.0300  175.8040  145.5190 C   0  0  0  0  0  0  0  0  0  0  0  0
  188.6110  177.7910  144.6740 C   0  0  0  0  0  3  0  0  0  0  0  0
  189.4100  176.5910  144.3930 C   0  0  0  0  0  0  0  0  0  0  0  0
  185.9550  177.1090  147.2590 C   0  0  0  0  0  0  0  0  0  0  0  0
  184.8380  176.4210  146.7940 O   0  0  0  0  0  0  0  0  0  0  0  0
  185.8250  177.9020  148.2280 O   0  0  0  0  0  1  0  0  0  0  0  0
  187.6920  176.7150  141.5200 C   0  0  0  0  0  0  0  0  0  0  0  0
  189.0030  176.9730  142.0290 N   0  0  0  0  0  2  0  0  0  0  0  0
  187.0930  175.6400  141.7910 O   0  0  0  0  0  0  0  0  0  0  0  0
  187.0260  177.7320  140.6580 C   0  0  0  0  0  2  0  0  0  0  0  0
  184.2920  178.7740  143.0650 C   0  0  0  0  0  3  0  0  0  0  0  0
  184.5430  177.9130  140.4080 C   0  0  0  0  0  3  0  0  0  0  0  0
  180.7420  178.7470  142.0020 C   0  0  0  0  0  0  0  0  0  0  0  0
  181.8870  178.9000  142.7970 C   0  0  0  0  0  3  0  0  0  0  0  0
  183.1520  178.6240  142.2720 C   0  0  0  0  0  0  0  0  0  0  0  0
  182.1390  178.0370  140.1410 C   0  0  0  0  0  3  0  0  0  0  0  0
  183.2790  178.1910  140.9330 C   0  0  0  0  0  0  0  0  0  0  0  0
  180.8760  178.3150  140.6730 C   0  0  0  0  0  3  0  0  0  0  0  0
  185.6830  178.0690  141.2060 C   0  0  0  0  0  0  0  0  0  0  0  0
  185.5550  178.4940  142.5340 C   0  0  0  0  0  3  0  0  0  0  0  0
  179.4130  179.0390  142.5620 C   0  0  0  0  0  0  0  0  0  0  0  0
  178.4970  179.4940  141.8270 O   0  0  0  0  0  0  0  0  0  0  0  0
  179.1550  178.8130  143.9090 O   0  0  0  0  0  1  0  0  0  0  0  0
  1 19  1  1  0  0  0
  1 14  1  0  0  0  0
  2  9  1  0  0  0  0
  3 12  1  0  0  0  0
  4  8  1  0  0  0  0
  4  7  1  0  0  0  0
  5  4  1  0  0  0  0
  6  3  1  0  0  0  0
  7  1  1  0  0  0  0
  7  6  2  0  0  0  0
  8  6  1  0  0  0  0
 10  9  1  0  0  0  0
 10 15  1  0  0  0  0
 11 10  2  0  0  0  0
 12  2  2  0  0  0  0
 13 11  1  0  0  0  0
 14 13  2  0  0  0  0
 14 12  1  0  0  0  0
 15 17  1  0  0  0  0
 16 15  2  0  0  0  0
 18 20  2  0  0  0  0
 18 19  1  0  0  0  0
 21 30  1  0  0  0  0
 21 18  1  0  0  0  0
 23 28  2  0  0  0  0
 23 30  1  0  0  0  0
 24 32  1  0  0  0  0
 24 25  2  0  0  0  0
 26 25  1  0  0  0  0
 26 22  2  0  0  0  0
 27 29  2  0  0  0  0
 27 28  1  0  0  0  0
 28 26  1  0  0  0  0
 29 24  1  0  0  0  0
 30 31  2  0  0  0  0
 31 22  1  0  0  0  0
 32 34  1  0  0  0  0
 33 32  2  0  0  0  0
M  END
>  <MODEL>
8

>  <REMARK>
 VINA RESULT:      -7.2      4.665     10.013
  Name = 
  5 active torsions:
  status: ('A' for Active; 'I' for Inactive)
    1  A    between atoms: C_1  and  N_9
    2  A    between atoms: C_3  and  C_25
    3  A    between atoms: C_7  and  C_11
    4  A    between atoms: C_8  and  C_18
    5  A    between atoms: C_18  and  C_30
                            x       y       z     vdW  Elec       q    Type
                         _______ _______ _______ _____ _____    ______ ____

>  <TORSDO>
F 5

$$$$
=
 OpenBabel11052420273D

 34 38  0  0  1  0  0  0  0  0999 V2000
  186.7180  176.3980  143.9470 C   0  0  2  0  0  3  0  0  0  0  0  0
  188.2350  177.7050  146.9650 C   0  0  0  0  0  3  0  0  0  0  0  0
  185.5660  177.5460  146.8000 S   0  0  0  0  0  0  0  0  0  0  0  0
  184.9310  178.1800  143.0730 N   0  0  0  0  0  0  0  0  0  0  0  0
  184.8920  178.2910  141.6270 C   0  0  0  0  0  1  0  0  0  0  0  0
  185.1190  177.9700  145.1400 C   0  0  0  0  0  0  0  0  0  0  0  0
  185.6520  177.4040  143.9710 C   0  0  0  0  0  0  0  0  0  0  0  0
  184.2370  179.0490  144.2880 S   0  0  0  0  0  0  0  0  0  0  0  0
  189.6890  177.5720  146.7880 C   0  0  0  0  0  2  0  0  0  0  0  0
  190.3820  176.6100  146.1700 C   0  0  0  0  0  0  0  0  0  0  0  0
  189.7900  175.4110  145.5450 C   0  0  0  0  0  3  0  0  0  0  0  0
  187.2560  177.1320  146.2680 C   0  0  0  0  0  0  0  0  0  0  0  0
  188.5650  175.2680  145.0500 C   0  0  0  0  0  3  0  0  0  0  0  0
  187.5050  176.2840  145.0480 C   0  0  0  0  0  0  0  0  0  0  0  0
  191.8550  176.7060  146.1950 C   0  0  0  0  0  0  0  0  0  0  0  0
  192.5620  177.0230  145.0390 O   0  0  0  0  0  0  0  0  0  0  0  0
  192.4890  176.4990  147.2630 O   0  0  0  0  0  1  0  0  0  0  0  0
  187.8310  176.0180  141.6950 C   0  0  0  0  0  0  0  0  0  0  0  0
  186.9810  175.6150  142.7720 N   0  0  0  0  0  2  0  0  0  0  0  0
  188.1930  177.2190  141.5730 O   0  0  0  0  0  0  0  0  0  0  0  0
  188.2930  175.0050  140.7060 C   0  0  0  0  0  2  0  0  0  0  0  0
  189.6920  171.7470  142.0450 C   0  0  0  0  0  3  0  0  0  0  0  0
  190.3720  174.4680  141.9900 C   0  0  0  0  0  3  0  0  0  0  0  0
  192.8690  171.7100  143.9520 C   0  0  0  0  0  0  0  0  0  0  0  0
  191.6950  171.2720  143.3220 C   0  0  0  0  0  3  0  0  0  0  0  0
  190.8620  172.1840  142.6690 C   0  0  0  0  0  0  0  0  0  0  0  0
  192.3730  173.9930  143.2690 C   0  0  0  0  0  3  0  0  0  0  0  0
  191.2050  173.5550  142.6410 C   0  0  0  0  0  0  0  0  0  0  0  0
  193.2020  173.0740  143.9210 C   0  0  0  0  0  3  0  0  0  0  0  0
  189.2020  174.0240  141.3630 C   0  0  0  0  0  0  0  0  0  0  0  0
  188.8610  172.6660  141.3950 C   0  0  0  0  0  3  0  0  0  0  0  0
  193.7410  170.7440  144.6380 C   0  0  0  0  0  0  0  0  0  0  0  0
  193.4590  169.5160  144.6350 O   0  0  0  0  0  0  0  0  0  0  0  0
  194.8860  171.1770  145.2950 O   0  0  0  0  0  1  0  0  0  0  0  0
  1 19  1  6  0  0  0
  1  7  1  0  0  0  0
  1 14  1  0  0  0  0
  4  7  1  0  0  0  0
  4  8  1  0  0  0  0
  5  4  1  0  0  0  0
  6  3  1  0  0  0  0
  7  6  2  0  0  0  0
  8  6  1  0  0  0  0
  9  2  1  0  0  0  0
 10 15  1  0  0  0  0
 10  9  1  0  0  0  0
 11 10  2  0  0  0  0
 12  3  1  0  0  0  0
 12  2  2  0  0  0  0
 13 11  1  0  0  0  0
 14 13  2  0  0  0  0
 14 12  1  0  0  0  0
 15 17  1  0  0  0  0
 16 15  2  0  0  0  0
 18 19  1  0  0  0  0
 20 18  2  0  0  0  0
 21 30  1  0  0  0  0
 21 18  1  0  0  0  0
 22 26  1  0  0  0  0
 23 28  1  0  0  0  0
 24 32  1  0  0  0  0
 25 24  2  0  0  0  0
 26 25  1  0  0  0  0
 27 29  2  0  0  0  0
 28 26  2  0  0  0  0
 28 27  1  0  0  0  0
 29 24  1  0  0  0  0
 30 31  1  0  0  0  0
 30 23  2  0  0  0  0
 31 22  2  0  0  0  0
 32 34  1  0  0  0  0
 33 32  2  0  0  0  0
M  END
>  <MODEL>
9

>  <REMARK>
 VINA RESULT:      -7.2      2.833      5.119
  Name = 
  5 active torsions:
  status: ('A' for Active; 'I' for Inactive)
    1  A    between atoms: C_1  and  N_9
    2  A    between atoms: C_3  and  C_25
    3  A    between atoms: C_7  and  C_11
    4  A    between atoms: C_8  and  C_18
    5  A    between atoms: C_18  and  C_30
                            x       y       z     vdW  Elec       q    Type
                         _______ _______ _______ _____ _____    ______ ____

>  <TORSDO>
F 5

$$$$
