=
 OpenBabel11052418343D

 27 31  0  0  1  0  0  0  0  0999 V2000
  187.7010  175.9580  143.4490 C   0  0  0  0  0  3  0  0  0  0  0  0
  188.9380  176.7440  145.3920 C   0  0  0  0  0  0  0  0  0  0  0  0
  191.2620  175.0120  142.8890 C   0  0  0  0  0  2  0  0  0  0  0  0
  189.1730  177.3820  146.6410 N   0  0  0  0  0  2  0  0  0  0  0  0
  189.8930  174.3490  140.9250 C   0  0  2  0  0  3  0  0  0  0  0  0
  187.7630  176.7260  144.7250 C   0  0  0  0  0  0  0  0  0  0  0  0
  191.1480  176.1290  145.7190 C   0  0  0  0  0  0  0  0  0  0  0  0
  188.7690  175.3350  142.9310 C   0  0  0  0  0  0  0  0  0  0  0  0
  190.1020  176.0490  144.8870 C   0  0  0  0  0  0  0  0  0  0  0  0
  191.0020  173.9050  141.8760 C   0  0  0  0  0  2  0  0  0  0  0  0
  190.8370  177.1220  147.1920 S   0  0  0  0  0  0  0  0  0  0  0  0
  188.5860  174.5090  141.6920 C   0  0  0  0  0  2  0  0  0  0  0  0
  190.0430  175.3600  143.6190 N   0  0  0  0  0  0  0  0  0  0  0  0
  192.4040  173.9900  145.8010 C   0  0  0  0  0  3  0  0  0  0  0  0
  194.7720  173.9280  145.2900 C   0  0  0  0  0  3  0  0  0  0  0  0
  194.7630  175.3100  145.0640 C   0  0  0  0  0  3  0  0  0  0  0  0
  193.5770  176.0330  145.2110 C   0  0  0  0  0  3  0  0  0  0  0  0
  192.3940  175.3730  145.5720 C   0  0  0  0  0  0  0  0  0  0  0  0
  193.5920  173.2690  145.6610 C   0  0  0  0  0  3  0  0  0  0  0  0
  184.1800  178.7210  146.0440 C   0  0  0  0  0  3  0  0  0  0  0  0
  186.5260  177.4080  145.2060 C   0  0  0  0  0  0  0  0  0  0  0  0
  185.6730  176.8200  146.1590 C   0  0  0  0  0  3  0  0  0  0  0  0
  184.5110  177.4730  146.5800 C   0  0  0  0  0  3  0  0  0  0  0  0
  185.0160  179.3190  145.0980 C   0  0  0  0  0  3  0  0  0  0  0  0
  186.1810  178.6690  144.6850 C   0  0  0  0  0  3  0  0  0  0  0  0
  188.2980  172.9340  139.7440 N   0  0  0  0  0  1  0  0  0  0  0  0
  189.6980  173.3210  139.8250 C   0  0  0  0  0  2  0  0  0  0  0  0
  1  6  1  0  0  0  0
  2  4  1  0  0  0  0
  3 13  1  0  0  0  0
  4 11  1  0  0  0  0
  5 27  1  6  0  0  0
  5 12  1  0  0  0  0
  5 10  1  0  0  0  0
  6 21  1  0  0  0  0
  6  2  2  0  0  0  0
  7 11  1  0  0  0  0
  8  1  2  0  0  0  0
  8 13  1  0  0  0  0
  9  2  1  0  0  0  0
  9  7  2  0  0  0  0
 10  3  1  0  0  0  0
 12  8  1  0  0  0  0
 13  9  1  0  0  0  0
 15 19  2  0  0  0  0
 16 17  2  0  0  0  0
 16 15  1  0  0  0  0
 17 18  1  0  0  0  0
 18  7  1  0  0  0  0
 18 14  2  0  0  0  0
 19 14  1  0  0  0  0
 20 23  1  0  0  0  0
 21 22  1  0  0  0  0
 22 23  2  0  0  0  0
 24 20  2  0  0  0  0
 25 24  1  0  0  0  0
 25 21  2  0  0  0  0
 26 27  1  0  0  0  0
M  END
>  <MODEL>
1

>  <REMARK>
 VINA RESULT:      -7.7      0.000      0.000
  Name = 
  3 active torsions:
  status: ('A' for Active; 'I' for Inactive)
    1  A    between atoms: C_9  and  C_15
    2  A    between atoms: C_13  and  C_22
    3  A    between atoms: C_14  and  C_17
                            x       y       z     vdW  Elec       q    Type
                         _______ _______ _______ _____ _____    ______ ____

>  <TORSDO>
F 3

$$$$
=
 OpenBabel11052418343D

 27 31  0  0  1  0  0  0  0  0999 V2000
  192.4320  173.8000  143.3890 C   0  0  0  0  0  3  0  0  0  0  0  0
  192.0020  174.7260  145.5990 C   0  0  0  0  0  0  0  0  0  0  0  0
  188.8420  174.8040  143.4350 C   0  0  0  0  0  2  0  0  0  0  0  0
  192.2580  175.1180  146.9410 N   0  0  0  0  0  2  0  0  0  0  0  0
  189.3960  173.7490  141.2550 C   0  0  2  0  0  3  0  0  0  0  0  0
  192.8680  174.0810  144.7870 C   0  0  0  0  0  0  0  0  0  0  0  0
  190.0060  175.8090  146.0620 C   0  0  0  0  0  0  0  0  0  0  0  0
  191.2110  174.1210  142.9380 C   0  0  0  0  0  0  0  0  0  0  0  0
  190.6900  175.1270  145.1360 C   0  0  0  0  0  0  0  0  0  0  0  0
  188.6600  174.9050  141.9270 C   0  0  0  0  0  2  0  0  0  0  0  0
  190.8750  175.9830  147.6330 S   0  0  0  0  0  0  0  0  0  0  0  0
  190.8970  173.8840  141.4900 C   0  0  0  0  0  2  0  0  0  0  0  0
  190.2600  174.7940  143.7980 N   0  0  0  0  0  0  0  0  0  0  0  0
  187.5910  176.1280  146.5350 C   0  0  0  0  0  3  0  0  0  0  0  0
  186.3200  177.8330  145.3750 C   0  0  0  0  0  3  0  0  0  0  0  0
  187.4660  178.2090  144.6630 C   0  0  0  0  0  3  0  0  0  0  0  0
  188.6730  177.5410  144.8820 C   0  0  0  0  0  3  0  0  0  0  0  0
  188.7400  176.5040  145.8250 C   0  0  0  0  0  0  0  0  0  0  0  0
  186.3820  176.7910  146.3090 C   0  0  0  0  0  3  0  0  0  0  0  0
  196.8160  172.8050  145.9440 C   0  0  0  0  0  3  0  0  0  0  0  0
  194.2380  173.6600  145.2030 C   0  0  0  0  0  0  0  0  0  0  0  0
  195.2780  174.5890  145.3900 C   0  0  0  0  0  3  0  0  0  0  0  0
  196.5570  174.1660  145.7630 C   0  0  0  0  0  3  0  0  0  0  0  0
  195.7940  171.8690  145.7630 C   0  0  0  0  0  3  0  0  0  0  0  0
  194.5150  172.2940  145.3980 C   0  0  0  0  0  3  0  0  0  0  0  0
  188.1910  172.6880  139.4210 N   0  0  0  0  0  1  0  0  0  0  0  0
  189.1280  173.7480  139.7610 C   0  0  0  0  0  2  0  0  0  0  0  0
  1  6  1  0  0  0  0
  2  4  1  0  0  0  0
  3 13  1  0  0  0  0
  4 11  1  0  0  0  0
  5 27  1  6  0  0  0
  5 12  1  0  0  0  0
  5 10  1  0  0  0  0
  6 21  1  0  0  0  0
  6  2  2  0  0  0  0
  7 11  1  0  0  0  0
  8  1  2  0  0  0  0
  8 13  1  0  0  0  0
  9  2  1  0  0  0  0
  9  7  2  0  0  0  0
 10  3  1  0  0  0  0
 12  8  1  0  0  0  0
 13  9  1  0  0  0  0
 15 19  2  0  0  0  0
 16 17  2  0  0  0  0
 16 15  1  0  0  0  0
 17 18  1  0  0  0  0
 18  7  1  0  0  0  0
 18 14  2  0  0  0  0
 19 14  1  0  0  0  0
 21 22  2  0  0  0  0
 21 25  1  0  0  0  0
 22 23  1  0  0  0  0
 23 20  2  0  0  0  0
 24 20  1  0  0  0  0
 25 24  2  0  0  0  0
 26 27  1  0  0  0  0
M  END
>  <MODEL>
2

>  <REMARK>
 VINA RESULT:      -7.1      1.394      6.690
  Name = 
  3 active torsions:
  status: ('A' for Active; 'I' for Inactive)
    1  A    between atoms: C_9  and  C_15
    2  A    between atoms: C_13  and  C_22
    3  A    between atoms: C_14  and  C_17
                            x       y       z     vdW  Elec       q    Type
                         _______ _______ _______ _____ _____    ______ ____

>  <TORSDO>
F 3

$$$$
=
 OpenBabel11052418343D

 27 31  0  0  1  0  0  0  0  0999 V2000
  189.4970  176.9060  145.3450 C   0  0  0  0  0  3  0  0  0  0  0  0
  188.3750  175.6180  143.6110 C   0  0  0  0  0  0  0  0  0  0  0  0
  191.9170  174.2990  144.2330 C   0  0  0  0  0  2  0  0  0  0  0  0
  187.3320  175.2010  142.7400 N   0  0  0  0  0  2  0  0  0  0  0  0
  192.9050  175.6350  146.0800 C   0  0  2  0  0  3  0  0  0  0  0  0
  188.2730  176.5720  144.5630 C   0  0  0  0  0  0  0  0  0  0  0  0
  189.5440  174.0740  142.3390 C   0  0  0  0  0  0  0  0  0  0  0  0
  190.6610  176.2670  145.1670 C   0  0  0  0  0  0  0  0  0  0  0  0
  189.6260  174.9350  143.3600 C   0  0  0  0  0  0  0  0  0  0  0  0
  193.1780  174.9980  144.7190 C   0  0  0  0  0  2  0  0  0  0  0  0
  187.8990  173.9610  141.6080 S   0  0  0  0  0  0  0  0  0  0  0  0
  191.8620  176.7380  145.9350 C   0  0  0  0  0  2  0  0  0  0  0  0
  190.7870  175.2270  144.1680 N   0  0  0  0  0  0  0  0  0  0  0  0
  191.5610  174.0850  140.8940 C   0  0  0  0  0  3  0  0  0  0  0  0
  192.8640  172.0670  140.5750 C   0  0  0  0  0  3  0  0  0  0  0  0
  191.9870  171.3650  141.4110 C   0  0  0  0  0  3  0  0  0  0  0  0
  190.8940  172.0200  141.9830 C   0  0  0  0  0  3  0  0  0  0  0  0
  190.6840  173.3830  141.7320 C   0  0  0  0  0  0  0  0  0  0  0  0
  192.6490  173.4270  140.3140 C   0  0  0  0  0  3  0  0  0  0  0  0
  184.6500  178.7190  145.4720 C   0  0  0  0  0  3  0  0  0  0  0  0
  187.0160  177.3220  144.8520 C   0  0  0  0  0  0  0  0  0  0  0  0
  186.7080  178.5370  144.2120 C   0  0  0  0  0  3  0  0  0  0  0  0
  185.5310  179.2280  144.5150 C   0  0  0  0  0  3  0  0  0  0  0  0
  184.9410  177.5130  146.1170 C   0  0  0  0  0  3  0  0  0  0  0  0
  186.1130  176.8200  145.8070 C   0  0  0  0  0  3  0  0  0  0  0  0
  194.5940  177.3790  145.8590 N   0  0  0  0  0  1  0  0  0  0  0  0
  194.1790  176.2310  146.6510 C   0  0  0  0  0  2  0  0  0  0  0  0
  2  6  2  0  0  0  0
  3 10  1  0  0  0  0
  4  2  1  0  0  0  0
  5 27  1  6  0  0  0
  6 21  1  0  0  0  0
  6  1  1  0  0  0  0
  7  9  2  0  0  0  0
  8  1  2  0  0  0  0
  8 12  1  0  0  0  0
  9  2  1  0  0  0  0
  9 13  1  0  0  0  0
 10  5  1  0  0  0  0
 11  7  1  0  0  0  0
 11  4  1  0  0  0  0
 12  5  1  0  0  0  0
 13  3  1  0  0  0  0
 13  8  1  0  0  0  0
 14 18  1  0  0  0  0
 15 16  2  0  0  0  0
 16 17  1  0  0  0  0
 18 17  2  0  0  0  0
 18  7  1  0  0  0  0
 19 15  1  0  0  0  0
 19 14  2  0  0  0  0
 20 24  1  0  0  0  0
 21 25  1  0  0  0  0
 22 23  1  0  0  0  0
 22 21  2  0  0  0  0
 23 20  2  0  0  0  0
 25 24  2  0  0  0  0
 26 27  1  0  0  0  0
M  END
>  <MODEL>
3

>  <REMARK>
 VINA RESULT:      -7.1      2.200      4.634
  Name = 
  3 active torsions:
  status: ('A' for Active; 'I' for Inactive)
    1  A    between atoms: C_9  and  C_15
    2  A    between atoms: C_13  and  C_22
    3  A    between atoms: C_14  and  C_17
                            x       y       z     vdW  Elec       q    Type
                         _______ _______ _______ _____ _____    ______ ____

>  <TORSDO>
F 3

$$$$
=
 OpenBabel11052418343D

 27 31  0  0  1  0  0  0  0  0999 V2000
  190.7990  174.7370  143.9800 C   0  0  0  0  0  3  0  0  0  0  0  0
  188.9360  175.3660  142.5450 C   0  0  0  0  0  0  0  0  0  0  0  0
  188.9980  177.4910  145.7310 C   0  0  0  0  0  2  0  0  0  0  0  0
  188.0840  175.3630  141.4070 N   0  0  0  0  0  2  0  0  0  0  0  0
  190.9910  176.8120  147.0500 C   0  0  2  0  0  3  0  0  0  0  0  0
  190.0650  174.6370  142.6860 C   0  0  0  0  0  0  0  0  0  0  0  0
  187.2920  176.8110  143.3030 C   0  0  0  0  0  0  0  0  0  0  0  0
  190.4050  175.5500  144.9690 C   0  0  0  0  0  0  0  0  0  0  0  0
  188.4550  176.2240  143.6070 C   0  0  0  0  0  0  0  0  0  0  0  0
  189.5130  177.1870  147.1310 C   0  0  0  0  0  2  0  0  0  0  0  0
  186.6850  176.4240  141.6490 S   0  0  0  0  0  0  0  0  0  0  0  0
  191.1540  175.5130  146.2700 C   0  0  0  0  0  2  0  0  0  0  0  0
  189.2100  176.3570  144.8300 N   0  0  0  0  0  0  0  0  0  0  0  0
  185.8190  176.9220  145.2980 C   0  0  0  0  0  3  0  0  0  0  0  0
  184.9040  179.0380  146.0420 C   0  0  0  0  0  3  0  0  0  0  0  0
  185.5520  179.6930  144.9880 C   0  0  0  0  0  3  0  0  0  0  0  0
  186.3290  178.9630  144.0860 C   0  0  0  0  0  3  0  0  0  0  0  0
  186.4700  177.5770  144.2430 C   0  0  0  0  0  0  0  0  0  0  0  0
  185.0350  177.6510  146.1950 C   0  0  0  0  0  3  0  0  0  0  0  0
  191.6750  172.0190  139.6670 C   0  0  0  0  0  3  0  0  0  0  0  0
  190.5980  173.7220  141.6350 C   0  0  0  0  0  0  0  0  0  0  0  0
  190.0400  172.4520  141.3980 C   0  0  0  0  0  3  0  0  0  0  0  0
  190.5700  171.6080  140.4180 C   0  0  0  0  0  3  0  0  0  0  0  0
  192.2400  173.2780  139.8890 C   0  0  0  0  0  3  0  0  0  0  0  0
  191.7040  174.1230  140.8630 C   0  0  0  0  0  3  0  0  0  0  0  0
  191.5660  177.8950  149.1570 N   0  0  0  0  0  1  0  0  0  0  0  0
  191.5670  176.6280  148.4430 C   0  0  0  0  0  2  0  0  0  0  0  0
  1  8  2  0  0  0  0
  2  6  2  0  0  0  0
  2  9  1  0  0  0  0
  3 10  1  0  0  0  0
  4 11  1  0  0  0  0
  4  2  1  0  0  0  0
  5 10  1  0  0  0  0
  5 27  1  1  0  0  0
  6  1  1  0  0  0  0
  7  9  2  0  0  0  0
  7 18  1  0  0  0  0
  8 12  1  0  0  0  0
  9 13  1  0  0  0  0
 11  7  1  0  0  0  0
 12  5  1  0  0  0  0
 13  8  1  0  0  0  0
 13  3  1  0  0  0  0
 14 19  1  0  0  0  0
 15 19  2  0  0  0  0
 16 15  1  0  0  0  0
 17 18  1  0  0  0  0
 17 16  2  0  0  0  0
 18 14  2  0  0  0  0
 20 24  2  0  0  0  0
 20 23  1  0  0  0  0
 21  6  1  0  0  0  0
 22 21  1  0  0  0  0
 23 22  2  0  0  0  0
 24 25  1  0  0  0  0
 25 21  2  0  0  0  0
 27 26  1  0  0  0  0
M  END
>  <MODEL>
4

>  <REMARK>
 VINA RESULT:      -6.8      2.249      7.481
  Name = 
  3 active torsions:
  status: ('A' for Active; 'I' for Inactive)
    1  A    between atoms: C_9  and  C_15
    2  A    between atoms: C_13  and  C_22
    3  A    between atoms: C_14  and  C_17
                            x       y       z     vdW  Elec       q    Type
                         _______ _______ _______ _____ _____    ______ ____

>  <TORSDO>
F 3

$$$$
=
 OpenBabel11052418343D

 27 31  0  0  1  0  0  0  0  0999 V2000
  189.5390  174.1890  142.5210 C   0  0  0  0  0  3  0  0  0  0  0  0
  188.1350  175.5360  141.0580 C   0  0  0  0  0  0  0  0  0  0  0  0
  188.2380  176.9990  144.5960 C   0  0  0  0  0  2  0  0  0  0  0  0
  187.4940  175.9570  139.8610 N   0  0  0  0  0  2  0  0  0  0  0  0
  189.7720  175.5890  145.9490 C   0  0  2  0  0  3  0  0  0  0  0  0
  189.0100  174.5120  141.1650 C   0  0  0  0  0  0  0  0  0  0  0  0
  186.8080  177.2300  141.9180 C   0  0  0  0  0  0  0  0  0  0  0  0
  189.2140  174.9030  143.6080 C   0  0  0  0  0  0  0  0  0  0  0  0
  187.7270  176.3030  142.2160 C   0  0  0  0  0  0  0  0  0  0  0  0
  188.4400  176.3360  145.9510 C   0  0  0  0  0  2  0  0  0  0  0  0
  186.3850  177.3050  140.1660 S   0  0  0  0  0  0  0  0  0  0  0  0
  189.7220  174.4440  144.9440 C   0  0  0  0  0  2  0  0  0  0  0  0
  188.2950  176.0170  143.5120 N   0  0  0  0  0  0  0  0  0  0  0  0
  185.0620  177.4240  143.6710 C   0  0  0  0  0  3  0  0  0  0  0  0
  184.6630  179.5370  144.7880 C   0  0  0  0  0  3  0  0  0  0  0  0
  185.6690  180.1370  144.0200 C   0  0  0  0  0  3  0  0  0  0  0  0
  186.3670  179.3830  143.0740 C   0  0  0  0  0  3  0  0  0  0  0  0
  186.0710  178.0230  142.9030 C   0  0  0  0  0  0  0  0  0  0  0  0
  184.3580  178.1800  144.6110 C   0  0  0  0  0  3  0  0  0  0  0  0
  190.3500  172.0790  137.8720 C   0  0  0  0  0  3  0  0  0  0  0  0
  189.4510  173.6750  140.0110 C   0  0  0  0  0  0  0  0  0  0  0  0
  188.5520  172.8780  139.2790 C   0  0  0  0  0  3  0  0  0  0  0  0
  188.9960  172.0900  138.2140 C   0  0  0  0  0  3  0  0  0  0  0  0
  191.2570  172.8650  138.5870 C   0  0  0  0  0  3  0  0  0  0  0  0
  190.8110  173.6590  139.6470 C   0  0  0  0  0  3  0  0  0  0  0  0
  188.8730  174.3890  147.8710 N   0  0  0  0  0  1  0  0  0  0  0  0
  190.0630  175.0240  147.3280 C   0  0  0  0  0  2  0  0  0  0  0  0
  1  8  2  0  0  0  0
  2  6  2  0  0  0  0
  2  9  1  0  0  0  0
  3 10  1  0  0  0  0
  4 11  1  0  0  0  0
  4  2  1  0  0  0  0
  5 10  1  0  0  0  0
  5 27  1  1  0  0  0
  6  1  1  0  0  0  0
  7  9  2  0  0  0  0
  7 18  1  0  0  0  0
  8 12  1  0  0  0  0
  9 13  1  0  0  0  0
 11  7  1  0  0  0  0
 12  5  1  0  0  0  0
 13  8  1  0  0  0  0
 13  3  1  0  0  0  0
 14 19  1  0  0  0  0
 16 15  1  0  0  0  0
 17 16  2  0  0  0  0
 18 17  1  0  0  0  0
 18 14  2  0  0  0  0
 19 15  2  0  0  0  0
 20 23  2  0  0  0  0
 20 24  1  0  0  0  0
 21  6  1  0  0  0  0
 22 21  2  0  0  0  0
 23 22  1  0  0  0  0
 24 25  2  0  0  0  0
 25 21  1  0  0  0  0
 27 26  1  0  0  0  0
M  END
>  <MODEL>
5

>  <REMARK>
 VINA RESULT:      -6.7      2.897      7.596
  Name = 
  3 active torsions:
  status: ('A' for Active; 'I' for Inactive)
    1  A    between atoms: C_9  and  C_15
    2  A    between atoms: C_13  and  C_22
    3  A    between atoms: C_14  and  C_17
                            x       y       z     vdW  Elec       q    Type
                         _______ _______ _______ _____ _____    ______ ____

>  <TORSDO>
F 3

$$$$
=
 OpenBabel11052418343D

 27 31  0  0  1  0  0  0  0  0999 V2000
  188.3730  174.4870  142.0040 C   0  0  0  0  0  3  0  0  0  0  0  0
  189.4020  176.5440  142.8010 C   0  0  0  0  0  0  0  0  0  0  0  0
  191.9480  173.6850  142.6920 C   0  0  0  0  0  2  0  0  0  0  0  0
  189.5110  177.9160  143.1600 N   0  0  0  0  0  2  0  0  0  0  0  0
  190.7940  171.6840  141.7770 C   0  0  2  0  0  3  0  0  0  0  0  0
  188.3110  175.9540  142.2650 C   0  0  0  0  0  0  0  0  0  0  0  0
  191.5420  176.5320  143.6890 C   0  0  0  0  0  0  0  0  0  0  0  0
  189.4760  173.7610  142.2370 C   0  0  0  0  0  0  0  0  0  0  0  0
  190.5970  175.7860  143.1060 C   0  0  0  0  0  0  0  0  0  0  0  0
  191.7740  172.1790  142.8370 C   0  0  0  0  0  2  0  0  0  0  0  0
  191.0930  178.2690  143.8740 S   0  0  0  0  0  0  0  0  0  0  0  0
  189.4120  172.2750  142.0310 C   0  0  0  0  0  2  0  0  0  0  0  0
  190.6630  174.3790  142.7900 N   0  0  0  0  0  0  0  0  0  0  0  0
  193.9740  176.0530  143.5550 C   0  0  0  0  0  3  0  0  0  0  0  0
  195.1310  175.0130  145.4120 C   0  0  0  0  0  3  0  0  0  0  0  0
  193.9340  174.9670  146.1370 C   0  0  0  0  0  3  0  0  0  0  0  0
  192.7560  175.4570  145.5700 C   0  0  0  0  0  3  0  0  0  0  0  0
  192.7750  176.0090  144.2810 C   0  0  0  0  0  0  0  0  0  0  0  0
  195.1500  175.5540  144.1200 C   0  0  0  0  0  3  0  0  0  0  0  0
  184.6610  178.0800  141.4220 C   0  0  0  0  0  3  0  0  0  0  0  0
  187.0470  176.6800  141.9490 C   0  0  0  0  0  0  0  0  0  0  0  0
  186.8000  177.2280  140.6770 C   0  0  0  0  0  3  0  0  0  0  0  0
  185.6130  177.9190  140.4120 C   0  0  0  0  0  3  0  0  0  0  0  0
  184.8900  177.5410  142.6900 C   0  0  0  0  0  3  0  0  0  0  0  0
  186.0720  176.8440  142.9510 C   0  0  0  0  0  3  0  0  0  0  0  0
  190.8220  169.6270  140.4680 N   0  0  0  0  0  1  0  0  0  0  0  0
  190.6970  170.1690  141.8120 C   0  0  0  0  0  2  0  0  0  0  0  0
  1  8  2  0  0  0  0
  1  6  1  0  0  0  0
  2  9  1  0  0  0  0
  2  4  1  0  0  0  0
  3 13  1  0  0  0  0
  3 10  1  0  0  0  0
  4 11  1  0  0  0  0
  5 27  1  1  0  0  0
  5 12  1  0  0  0  0
  5 10  1  0  0  0  0
  6  2  2  0  0  0  0
  7 11  1  0  0  0  0
  7 18  1  0  0  0  0
  8 13  1  0  0  0  0
  9  7  2  0  0  0  0
 12  8  1  0  0  0  0
 13  9  1  0  0  0  0
 14 19  2  0  0  0  0
 14 18  1  0  0  0  0
 15 16  2  0  0  0  0
 17 16  1  0  0  0  0
 18 17  2  0  0  0  0
 19 15  1  0  0  0  0
 20 24  1  0  0  0  0
 21  6  1  0  0  0  0
 21 25  1  0  0  0  0
 22 21  2  0  0  0  0
 23 22  1  0  0  0  0
 23 20  2  0  0  0  0
 24 25  2  0  0  0  0
 26 27  1  0  0  0  0
M  END
>  <MODEL>
6

>  <REMARK>
 VINA RESULT:      -6.6      2.323      3.097
  Name = 
  3 active torsions:
  status: ('A' for Active; 'I' for Inactive)
    1  A    between atoms: C_9  and  C_15
    2  A    between atoms: C_13  and  C_22
    3  A    between atoms: C_14  and  C_17
                            x       y       z     vdW  Elec       q    Type
                         _______ _______ _______ _____ _____    ______ ____

>  <TORSDO>
F 3

$$$$
=
 OpenBabel11052418343D

 27 31  0  0  1  0  0  0  0  0999 V2000
  188.6410  174.5800  140.1570 C   0  0  0  0  0  3  0  0  0  0  0  0
  190.0980  173.2350  141.5680 C   0  0  0  0  0  0  0  0  0  0  0  0
  188.0940  175.7450  143.6550 C   0  0  0  0  0  2  0  0  0  0  0  0
  191.0430  172.2320  141.9170 N   0  0  0  0  0  2  0  0  0  0  0  0
  186.5890  176.9780  142.1090 C   0  0  2  0  0  3  0  0  0  0  0  0
  189.5840  173.4400  140.3350 C   0  0  0  0  0  0  0  0  0  0  0  0
  190.4020  173.7660  143.8030 C   0  0  0  0  0  0  0  0  0  0  0  0
  188.2580  175.3640  141.1740 C   0  0  0  0  0  0  0  0  0  0  0  0
  189.7420  174.0870  142.6840 C   0  0  0  0  0  0  0  0  0  0  0  0
  187.5260  177.1150  143.3060 C   0  0  0  0  0  2  0  0  0  0  0  0
  191.4920  172.3400  143.6280 S   0  0  0  0  0  0  0  0  0  0  0  0
  187.3790  176.5440  140.8790 C   0  0  0  0  0  2  0  0  0  0  0  0
  188.7800  175.1480  142.5080 N   0  0  0  0  0  0  0  0  0  0  0  0
  191.1960  175.7060  145.1320 C   0  0  0  0  0  3  0  0  0  0  0  0
  190.3830  176.0770  147.3840 C   0  0  0  0  0  3  0  0  0  0  0  0
  189.5860  174.9300  147.2890 C   0  0  0  0  0  3  0  0  0  0  0  0
  189.5970  174.1680  146.1180 C   0  0  0  0  0  3  0  0  0  0  0  0
  190.3960  174.5590  145.0340 C   0  0  0  0  0  0  0  0  0  0  0  0
  191.1910  176.4630  146.3050 C   0  0  0  0  0  3  0  0  0  0  0  0
  190.6510  171.0650  136.9030 C   0  0  0  0  0  3  0  0  0  0  0  0
  189.9290  172.6080  139.1460 C   0  0  0  0  0  0  0  0  0  0  0  0
  189.3810  171.3280  138.9460 C   0  0  0  0  0  3  0  0  0  0  0  0
  189.7340  170.5630  137.8300 C   0  0  0  0  0  3  0  0  0  0  0  0
  191.2040  172.3350  137.0860 C   0  0  0  0  0  3  0  0  0  0  0  0
  190.8440  173.1020  138.1960 C   0  0  0  0  0  3  0  0  0  0  0  0
  185.8270  179.1030  143.0280 N   0  0  0  0  0  1  0  0  0  0  0  0
  185.9070  178.3030  141.8160 C   0  0  0  0  0  2  0  0  0  0  0  0
  1  6  1  0  0  0  0
  1  8  2  0  0  0  0
  2  4  1  0  0  0  0
  2  9  1  0  0  0  0
  4 11  1  0  0  0  0
  5 27  1  6  0  0  0
  5 10  1  0  0  0  0
  6  2  2  0  0  0  0
  7 18  1  0  0  0  0
  8 13  1  0  0  0  0
  9  7  2  0  0  0  0
 10  3  1  0  0  0  0
 11  7  1  0  0  0  0
 12  8  1  0  0  0  0
 12  5  1  0  0  0  0
 13  9  1  0  0  0  0
 13  3  1  0  0  0  0
 14 19  1  0  0  0  0
 16 15  1  0  0  0  0
 17 16  2  0  0  0  0
 18 14  2  0  0  0  0
 18 17  1  0  0  0  0
 19 15  2  0  0  0  0
 20 24  2  0  0  0  0
 20 23  1  0  0  0  0
 21  6  1  0  0  0  0
 22 21  1  0  0  0  0
 23 22  2  0  0  0  0
 24 25  1  0  0  0  0
 25 21  2  0  0  0  0
 27 26  1  0  0  0  0
M  END
>  <MODEL>
7

>  <REMARK>
 VINA RESULT:      -6.4      2.857      6.676
  Name = 
  3 active torsions:
  status: ('A' for Active; 'I' for Inactive)
    1  A    between atoms: C_9  and  C_15
    2  A    between atoms: C_13  and  C_22
    3  A    between atoms: C_14  and  C_17
                            x       y       z     vdW  Elec       q    Type
                         _______ _______ _______ _____ _____    ______ ____

>  <TORSDO>
F 3

$$$$
=
 OpenBabel11052418343D

 27 31  0  0  1  0  0  0  0  0999 V2000
  188.4020  177.0110  144.5140 C   0  0  0  0  0  3  0  0  0  0  0  0
  188.4570  175.2650  142.8190 C   0  0  0  0  0  0  0  0  0  0  0  0
  190.9000  174.4950  145.6660 C   0  0  0  0  0  2  0  0  0  0  0  0
  188.1070  174.5610  141.6350 N   0  0  0  0  0  2  0  0  0  0  0  0
  190.6730  176.2980  147.3610 C   0  0  2  0  0  3  0  0  0  0  0  0
  187.8570  176.3870  143.2750 C   0  0  0  0  0  0  0  0  0  0  0  0
  190.0820  173.6140  142.8690 C   0  0  0  0  0  0  0  0  0  0  0  0
  189.4210  176.4760  145.2010 C   0  0  0  0  0  0  0  0  0  0  0  0
  189.5870  174.6810  143.5090 C   0  0  0  0  0  0  0  0  0  0  0  0
  191.6650  175.4140  146.6090 C   0  0  0  0  0  2  0  0  0  0  0  0
  189.1750  173.1720  141.3740 S   0  0  0  0  0  0  0  0  0  0  0  0
  189.9620  177.2260  146.3830 C   0  0  0  0  0  2  0  0  0  0  0  0
  190.0640  175.2620  144.7410 N   0  0  0  0  0  0  0  0  0  0  0  0
  192.5620  173.5120  142.8820 C   0  0  0  0  0  3  0  0  0  0  0  0
  193.7160  171.6370  143.8900 C   0  0  0  0  0  3  0  0  0  0  0  0
  192.4870  171.0560  144.2270 C   0  0  0  0  0  3  0  0  0  0  0  0
  191.2950  171.7000  143.8860 C   0  0  0  0  0  3  0  0  0  0  0  0
  191.3300  172.9340  143.2190 C   0  0  0  0  0  0  0  0  0  0  0  0
  193.7530  172.8640  143.2150 C   0  0  0  0  0  3  0  0  0  0  0  0
  184.5070  178.3210  141.3800 C   0  0  0  0  0  3  0  0  0  0  0  0
  186.7030  177.0450  142.5960 C   0  0  0  0  0  0  0  0  0  0  0  0
  186.7790  177.4980  141.2660 C   0  0  0  0  0  3  0  0  0  0  0  0
  185.6880  178.1260  140.6590 C   0  0  0  0  0  3  0  0  0  0  0  0
  184.4140  177.8770  142.7010 C   0  0  0  0  0  3  0  0  0  0  0  0
  185.5020  177.2410  143.3030 C   0  0  0  0  0  3  0  0  0  0  0  0
  190.5820  178.2840  148.7710 N   0  0  0  0  0  1  0  0  0  0  0  0
  191.3950  177.1360  148.4020 C   0  0  0  0  0  2  0  0  0  0  0  0
  1  8  2  0  0  0  0
  2  6  2  0  0  0  0
  2  9  1  0  0  0  0
  3 10  1  0  0  0  0
  4  2  1  0  0  0  0
  5 27  1  1  0  0  0
  6  1  1  0  0  0  0
  7 18  1  0  0  0  0
  7  9  2  0  0  0  0
  8 12  1  0  0  0  0
  9 13  1  0  0  0  0
 10  5  1  0  0  0  0
 11  4  1  0  0  0  0
 11  7  1  0  0  0  0
 12  5  1  0  0  0  0
 13  8  1  0  0  0  0
 13  3  1  0  0  0  0
 14 19  2  0  0  0  0
 14 18  1  0  0  0  0
 15 16  2  0  0  0  0
 17 16  1  0  0  0  0
 18 17  2  0  0  0  0
 19 15  1  0  0  0  0
 20 24  1  0  0  0  0
 21  6  1  0  0  0  0
 21 25  1  0  0  0  0
 22 21  2  0  0  0  0
 23 22  1  0  0  0  0
 23 20  2  0  0  0  0
 24 25  2  0  0  0  0
 27 26  1  0  0  0  0
M  END
>  <MODEL>
8

>  <REMARK>
 VINA RESULT:      -6.4      2.569      4.848
  Name = 
  3 active torsions:
  status: ('A' for Active; 'I' for Inactive)
    1  A    between atoms: C_9  and  C_15
    2  A    between atoms: C_13  and  C_22
    3  A    between atoms: C_14  and  C_17
                            x       y       z     vdW  Elec       q    Type
                         _______ _______ _______ _____ _____    ______ ____

>  <TORSDO>
F 3

$$$$
=
 OpenBabel11052418343D

 27 31  0  0  1  0  0  0  0  0999 V2000
  188.1870  175.2340  142.7440 C   0  0  0  0  0  3  0  0  0  0  0  0
  189.9030  176.2130  144.1660 C   0  0  0  0  0  0  0  0  0  0  0  0
  191.4660  174.1040  141.3770 C   0  0  0  0  0  2  0  0  0  0  0  0
  190.4660  176.9920  145.2130 N   0  0  0  0  0  2  0  0  0  0  0  0
  189.6170  173.2480  139.9540 C   0  0  2  0  0  3  0  0  0  0  0  0
  188.5920  176.1530  143.8460 C   0  0  0  0  0  0  0  0  0  0  0  0
  192.1190  175.5680  143.9650 C   0  0  0  0  0  0  0  0  0  0  0  0
  189.0760  174.5150  142.0440 C   0  0  0  0  0  0  0  0  0  0  0  0
  190.8880  175.4200  143.4610 C   0  0  0  0  0  0  0  0  0  0  0  0
  190.9420  172.8890  140.6230 C   0  0  0  0  0  2  0  0  0  0  0  0
  192.2170  176.7470  145.3260 S   0  0  0  0  0  0  0  0  0  0  0  0
  188.5650  173.5470  141.0160 C   0  0  0  0  0  2  0  0  0  0  0  0
  190.4880  174.5820  142.3560 N   0  0  0  0  0  0  0  0  0  0  0  0
  194.2290  175.2680  142.6920 C   0  0  0  0  0  3  0  0  0  0  0  0
  195.4990  173.2130  142.8730 C   0  0  0  0  0  3  0  0  0  0  0  0
  194.5510  172.7010  143.7680 C   0  0  0  0  0  3  0  0  0  0  0  0
  193.4400  173.4690  144.1200 C   0  0  0  0  0  3  0  0  0  0  0  0
  193.2800  174.7570  143.5890 C   0  0  0  0  0  0  0  0  0  0  0  0
  195.3360  174.4950  142.3320 C   0  0  0  0  0  3  0  0  0  0  0  0
  185.4940  178.4140  145.8090 C   0  0  0  0  0  3  0  0  0  0  0  0
  187.5300  176.9300  144.5490 C   0  0  0  0  0  0  0  0  0  0  0  0
  187.0140  176.5310  145.7960 C   0  0  0  0  0  3  0  0  0  0  0  0
  186.0080  177.2700  146.4250 C   0  0  0  0  0  3  0  0  0  0  0  0
  185.9960  178.8250  144.5710 C   0  0  0  0  0  3  0  0  0  0  0  0
  187.0070  178.0910  143.9480 C   0  0  0  0  0  3  0  0  0  0  0  0
  190.2660  171.3480  138.5710 N   0  0  0  0  0  1  0  0  0  0  0  0
  189.1330  172.0980  139.0890 C   0  0  0  0  0  2  0  0  0  0  0  0
  1  6  1  0  0  0  0
  2  4  1  0  0  0  0
  3 13  1  0  0  0  0
  4 11  1  0  0  0  0
  5 27  1  1  0  0  0
  5 10  1  0  0  0  0
  5 12  1  0  0  0  0
  6  2  2  0  0  0  0
  6 21  1  0  0  0  0
  7 11  1  0  0  0  0
  8 13  1  0  0  0  0
  8  1  2  0  0  0  0
  9  7  2  0  0  0  0
  9  2  1  0  0  0  0
 10  3  1  0  0  0  0
 12  8  1  0  0  0  0
 13  9  1  0  0  0  0
 14 18  1  0  0  0  0
 15 16  2  0  0  0  0
 16 17  1  0  0  0  0
 18  7  1  0  0  0  0
 18 17  2  0  0  0  0
 19 14  2  0  0  0  0
 19 15  1  0  0  0  0
 20 23  1  0  0  0  0
 21 22  1  0  0  0  0
 22 23  2  0  0  0  0
 24 20  2  0  0  0  0
 25 21  2  0  0  0  0
 25 24  1  0  0  0  0
 26 27  1  0  0  0  0
M  END
>  <MODEL>
9

>  <REMARK>
 VINA RESULT:      -6.4      1.590      2.068
  Name = 
  3 active torsions:
  status: ('A' for Active; 'I' for Inactive)
    1  A    between atoms: C_9  and  C_15
    2  A    between atoms: C_13  and  C_22
    3  A    between atoms: C_14  and  C_17
                            x       y       z     vdW  Elec       q    Type
                         _______ _______ _______ _____ _____    ______ ____

>  <TORSDO>
F 3

$$$$
