=
 OpenBabel11052418223D

 27 31  0  0  0  0  0  0  0  0999 V2000
  190.4790  175.6190  143.2450 C   0  0  0  0  0  0  0  0  0  0  0  0
  189.8810  176.5010  145.1790 C   0  0  0  0  0  0  0  0  0  0  0  0
  189.1610  175.9490  143.1350 N   0  0  0  0  0  0  0  0  0  0  0  0
  186.2710  178.0850  146.4890 C   0  0  0  0  0  3  0  0  0  0  0  0
  183.8690  178.6660  146.1380 C   0  0  0  0  0  1  0  0  0  0  0  0
  189.7720  177.0300  146.4640 C   0  0  0  0  0  3  0  0  0  0  0  0
  186.4410  177.0410  143.8900 C   0  0  0  0  0  3  0  0  0  0  0  0
  188.4090  174.5410  139.9660 O   0  0  0  0  0  0  0  0  0  0  0  0
  185.2370  177.5770  144.3560 C   0  0  0  0  0  3  0  0  0  0  0  0
  188.7600  173.4200  141.9450 O   0  0  0  0  0  0  0  0  0  0  0  0
  188.8110  176.4980  144.3190 C   0  0  0  0  0  0  0  0  0  0  0  0
  190.9640  175.9440  144.5190 C   0  0  0  0  0  0  0  0  0  0  0  0
  185.1520  178.0980  145.6500 C   0  0  0  0  0  0  0  0  0  0  0  0
  187.4810  177.5510  146.0350 C   0  0  0  0  0  0  0  0  0  0  0  0
  191.2550  174.8900  142.1850 C   0  0  0  0  0  2  0  0  0  0  0  0
  187.5700  177.0230  144.7190 C   0  0  0  0  0  0  0  0  0  0  0  0
  188.4760  174.5750  141.2230 C   0  0  0  0  0  0  0  0  0  0  0  0
  188.5710  177.5400  146.8600 N   0  0  0  0  0  0  0  0  0  0  0  0
  189.8780  172.6230  141.5920 C   0  0  0  0  0  2  0  0  0  0  0  0
  191.3360  173.1080  142.5810 S   0  0  0  0  0  0  0  0  0  0  0  0
  188.3200  175.8760  141.9340 C   0  0  0  0  0  2  0  0  0  0  0  0
  194.9270  175.3830  146.0850 C   0  0  0  0  0  3  0  0  0  0  0  0
  192.3360  175.7510  145.0550 C   0  0  0  0  0  0  0  0  0  0  0  0
  192.7120  174.5250  145.6260 C   0  0  0  0  0  3  0  0  0  0  0  0
  193.9990  174.3400  146.1380 C   0  0  0  0  0  3  0  0  0  0  0  0
  194.5660  176.6090  145.5220 C   0  0  0  0  0  3  0  0  0  0  0  0
  193.2780  176.7910  145.0120 C   0  0  0  0  0  3  0  0  0  0  0  0
  1 12  2  0  0  0  0
  2  6  1  0  0  0  0
  3  1  1  0  0  0  0
  3 11  1  0  0  0  0
  6 18  2  0  0  0  0
  7  9  2  0  0  0  0
  7 16  1  0  0  0  0
  8 17  2  0  0  0  0
  9 13  1  0  0  0  0
 11 16  1  0  0  0  0
 11  2  2  0  0  0  0
 12 23  1  0  0  0  0
 12  2  1  0  0  0  0
 13  5  1  0  0  0  0
 13  4  2  0  0  0  0
 14  4  1  0  0  0  0
 14 18  1  0  0  0  0
 15 20  1  0  0  0  0
 15  1  1  0  0  0  0
 16 14  2  0  0  0  0
 17 21  1  0  0  0  0
 17 10  1  0  0  0  0
 19 10  1  0  0  0  0
 19 20  1  0  0  0  0
 21  3  1  0  0  0  0
 22 25  1  0  0  0  0
 23 24  1  0  0  0  0
 24 25  2  0  0  0  0
 26 22  2  0  0  0  0
 27 23  2  0  0  0  0
 27 26  1  0  0  0  0
M  END
>  <MODEL>
1

>  <REMARK>
 VINA RESULT:      -8.5      0.000      0.000
  Name = 
  1 active torsions:
  status: ('A' for Active; 'I' for Inactive)
    1  A    between atoms: C_9  and  C_15
                            x       y       z     vdW  Elec       q    Type
                         _______ _______ _______ _____ _____    ______ ____

>  <TORSDO>
F 1

$$$$
=
 OpenBabel11052418223D

 27 31  0  0  0  0  0  0  0  0999 V2000
  187.6670  175.8810  143.8580 C   0  0  0  0  0  0  0  0  0  0  0  0
  188.8710  176.7010  145.5180 C   0  0  0  0  0  0  0  0  0  0  0  0
  188.9270  175.3820  143.7130 N   0  0  0  0  0  0  0  0  0  0  0  0
  192.8430  176.1320  146.5870 C   0  0  0  0  0  3  0  0  0  0  0  0
  195.0960  175.1220  146.2190 C   0  0  0  0  0  1  0  0  0  0  0  0
  189.3890  177.3270  146.6500 C   0  0  0  0  0  3  0  0  0  0  0  0
  191.8460  174.8400  144.3050 C   0  0  0  0  0  3  0  0  0  0  0  0
  188.6120  173.7430  140.5820 O   0  0  0  0  0  0  0  0  0  0  0  0
  193.1800  174.6680  144.6840 C   0  0  0  0  0  3  0  0  0  0  0  0
  188.7190  176.0090  140.9680 O   0  0  0  0  0  0  0  0  0  0  0  0
  189.6490  175.8810  144.7410 C   0  0  0  0  0  0  0  0  0  0  0  0
  187.5940  176.7210  144.9780 C   0  0  0  0  0  0  0  0  0  0  0  0
  193.6770  175.3100  145.8220 C   0  0  0  0  0  0  0  0  0  0  0  0
  191.5080  176.3130  146.2190 C   0  0  0  0  0  0  0  0  0  0  0  0
  186.5540  175.6560  142.8740 C   0  0  0  0  0  2  0  0  0  0  0  0
  190.9990  175.6590  145.0630 C   0  0  0  0  0  0  0  0  0  0  0  0
  188.9050  174.6870  141.3620 C   0  0  0  0  0  0  0  0  0  0  0  0
  190.6980  177.1180  146.9700 N   0  0  0  0  0  0  0  0  0  0  0  0
  187.4720  176.4190  140.4320 C   0  0  0  0  0  2  0  0  0  0  0  0
  186.4080  177.0940  141.7540 S   0  0  0  0  0  0  0  0  0  0  0  0
  189.3850  174.3830  142.7400 C   0  0  0  0  0  2  0  0  0  0  0  0
  184.1740  178.8620  146.4570 C   0  0  0  0  0  3  0  0  0  0  0  0
  186.4160  177.4650  145.4920 C   0  0  0  0  0  0  0  0  0  0  0  0
  185.5330  176.8600  146.4000 C   0  0  0  0  0  3  0  0  0  0  0  0
  184.4180  177.5540  146.8810 C   0  0  0  0  0  3  0  0  0  0  0  0
  185.0440  179.4750  145.5520 C   0  0  0  0  0  3  0  0  0  0  0  0
  186.1560  178.7790  145.0720 C   0  0  0  0  0  3  0  0  0  0  0  0
  1 12  2  0  0  0  0
  2  6  1  0  0  0  0
  3  1  1  0  0  0  0
  3 11  1  0  0  0  0
  6 18  2  0  0  0  0
  7  9  2  0  0  0  0
  7 16  1  0  0  0  0
  8 17  2  0  0  0  0
  9 13  1  0  0  0  0
 10 17  1  0  0  0  0
 11 16  1  0  0  0  0
 11  2  2  0  0  0  0
 12 23  1  0  0  0  0
 12  2  1  0  0  0  0
 13  5  1  0  0  0  0
 13  4  2  0  0  0  0
 14  4  1  0  0  0  0
 14 18  1  0  0  0  0
 15  1  1  0  0  0  0
 16 14  2  0  0  0  0
 17 21  1  0  0  0  0
 19 10  1  0  0  0  0
 19 20  1  0  0  0  0
 20 15  1  0  0  0  0
 21  3  1  0  0  0  0
 22 25  1  0  0  0  0
 23 24  1  0  0  0  0
 24 25  2  0  0  0  0
 26 22  2  0  0  0  0
 27 23  2  0  0  0  0
 27 26  1  0  0  0  0
M  END
>  <MODEL>
2

>  <REMARK>
 VINA RESULT:      -8.4      1.783      6.118
  Name = 
  1 active torsions:
  status: ('A' for Active; 'I' for Inactive)
    1  A    between atoms: C_9  and  C_15
                            x       y       z     vdW  Elec       q    Type
                         _______ _______ _______ _____ _____    ______ ____

>  <TORSDO>
F 1

$$$$
=
 OpenBabel11052418223D

 27 31  0  0  0  0  0  0  0  0999 V2000
  189.5730  177.0120  144.5020 C   0  0  0  0  0  0  0  0  0  0  0  0
  188.3240  175.8130  143.1300 C   0  0  0  0  0  0  0  0  0  0  0  0
  190.4270  176.2820  143.7300 N   0  0  0  0  0  0  0  0  0  0  0  0
  189.3260  173.1440  140.1100 C   0  0  0  0  0  3  0  0  0  0  0  0
  191.0040  171.8920  138.7490 C   0  0  0  0  0  1  0  0  0  0  0  0
  187.3250  175.1970  142.3790 C   0  0  0  0  0  3  0  0  0  0  0  0
  191.3750  174.3650  141.5880 C   0  0  0  0  0  3  0  0  0  0  0  0
  193.5180  177.0420  145.2980 O   0  0  0  0  0  0  0  0  0  0  0  0
  191.6850  173.4600  140.5680 C   0  0  0  0  0  3  0  0  0  0  0  0
  191.8440  175.6790  146.0960 O   0  0  0  0  0  0  0  0  0  0  0  0
  189.6520  175.5630  142.8880 C   0  0  0  0  0  0  0  0  0  0  0  0
  188.2410  176.7380  144.1590 C   0  0  0  0  0  0  0  0  0  0  0  0
  190.6660  172.8530  139.8310 C   0  0  0  0  0  0  0  0  0  0  0  0
  189.0020  174.0460  141.1270 C   0  0  0  0  0  0  0  0  0  0  0  0
  190.0080  177.8860  145.6430 C   0  0  0  0  0  2  0  0  0  0  0  0
  190.0380  174.6670  141.8760 C   0  0  0  0  0  0  0  0  0  0  0  0
  192.4800  176.3670  145.0670 C   0  0  0  0  0  0  0  0  0  0  0  0
  187.6920  174.3250  141.3960 N   0  0  0  0  0  0  0  0  0  0  0  0
  191.5200  176.3520  147.3010 C   0  0  0  0  0  2  0  0  0  0  0  0
  189.8110  176.9940  147.2260 S   0  0  0  0  0  0  0  0  0  0  0  0
  191.8920  176.3640  143.6970 C   0  0  0  0  0  2  0  0  0  0  0  0
  184.6750  178.4120  145.8750 C   0  0  0  0  0  3  0  0  0  0  0  0
  187.0050  177.3120  144.7500 C   0  0  0  0  0  0  0  0  0  0  0  0
  186.5290  178.5630  144.3280 C   0  0  0  0  0  3  0  0  0  0  0  0
  185.3700  179.1110  144.8860 C   0  0  0  0  0  3  0  0  0  0  0  0
  185.1380  177.1670  146.3060 C   0  0  0  0  0  3  0  0  0  0  0  0
  186.2980  176.6220  145.7470 C   0  0  0  0  0  3  0  0  0  0  0  0
  1 15  1  0  0  0  0
  2 12  1  0  0  0  0
  3  1  1  0  0  0  0
  4 14  1  0  0  0  0
  5 13  1  0  0  0  0
  6  2  2  0  0  0  0
  7 16  1  0  0  0  0
  9  7  2  0  0  0  0
 10 19  1  0  0  0  0
 11  2  1  0  0  0  0
 11  3  1  0  0  0  0
 12  1  2  0  0  0  0
 12 23  1  0  0  0  0
 13  4  2  0  0  0  0
 13  9  1  0  0  0  0
 14 18  2  0  0  0  0
 14 16  1  0  0  0  0
 15 20  1  0  0  0  0
 16 11  2  0  0  0  0
 17  8  2  0  0  0  0
 17 10  1  0  0  0  0
 18  6  1  0  0  0  0
 20 19  1  0  0  0  0
 21  3  1  0  0  0  0
 21 17  1  0  0  0  0
 22 26  1  0  0  0  0
 23 27  1  0  0  0  0
 24 23  2  0  0  0  0
 24 25  1  0  0  0  0
 25 22  2  0  0  0  0
 27 26  2  0  0  0  0
M  END
>  <MODEL>
3

>  <REMARK>
 VINA RESULT:      -7.8      2.608      6.861
  Name = 
  1 active torsions:
  status: ('A' for Active; 'I' for Inactive)
    1  A    between atoms: C_9  and  C_15
                            x       y       z     vdW  Elec       q    Type
                         _______ _______ _______ _____ _____    ______ ____

>  <TORSDO>
F 1

$$$$
=
 OpenBabel11052418223D

 27 31  0  0  0  0  0  0  0  0999 V2000
  190.2850  174.4100  144.6530 C   0  0  0  0  0  0  0  0  0  0  0  0
  188.6290  175.1340  143.3830 C   0  0  0  0  0  0  0  0  0  0  0  0
  189.5180  175.2220  145.4330 N   0  0  0  0  0  0  0  0  0  0  0  0
  185.3950  177.6040  144.2120 C   0  0  0  0  0  3  0  0  0  0  0  0
  184.0660  179.0400  145.7630 C   0  0  0  0  0  1  0  0  0  0  0  0
  187.6930  175.4200  142.3910 C   0  0  0  0  0  3  0  0  0  0  0  0
  187.2460  177.0510  146.2470 C   0  0  0  0  0  3  0  0  0  0  0  0
  191.5090  175.3610  148.3670 O   0  0  0  0  0  0  0  0  0  0  0  0
  186.1510  177.8820  146.4990 C   0  0  0  0  0  3  0  0  0  0  0  0
  191.9190  176.3910  146.3500 O   0  0  0  0  0  0  0  0  0  0  0  0
  188.5020  175.6480  144.6490 C   0  0  0  0  0  0  0  0  0  0  0  0
  189.7610  174.3350  143.3540 C   0  0  0  0  0  0  0  0  0  0  0  0
  185.2280  178.1570  145.4870 C   0  0  0  0  0  0  0  0  0  0  0  0
  186.4860  176.7720  143.9470 C   0  0  0  0  0  0  0  0  0  0  0  0
  191.5790  173.7900  145.0990 C   0  0  0  0  0  2  0  0  0  0  0  0
  187.4250  176.4890  144.9760 C   0  0  0  0  0  0  0  0  0  0  0  0
  191.0730  175.7540  147.2530 C   0  0  0  0  0  0  0  0  0  0  0  0
  186.6440  176.2360  142.7000 N   0  0  0  0  0  0  0  0  0  0  0  0
  193.1630  175.8030  146.0100 C   0  0  0  0  0  2  0  0  0  0  0  0
  192.9900  174.7870  144.5010 S   0  0  0  0  0  0  0  0  0  0  0  0
  189.6600  175.4700  146.8730 C   0  0  0  0  0  2  0  0  0  0  0  0
  191.2880  172.1020  140.0150 C   0  0  0  0  0  3  0  0  0  0  0  0
  190.2860  173.5670  142.1960 C   0  0  0  0  0  0  0  0  0  0  0  0
  189.9410  172.2180  142.0220 C   0  0  0  0  0  3  0  0  0  0  0  0
  190.4380  171.4880  140.9380 C   0  0  0  0  0  3  0  0  0  0  0  0
  191.6420  173.4440  140.1780 C   0  0  0  0  0  3  0  0  0  0  0  0
  191.1440  174.1700  141.2630 C   0  0  0  0  0  3  0  0  0  0  0  0
  1 15  1  0  0  0  0
  1  3  1  0  0  0  0
  2 11  1  0  0  0  0
  3 21  1  0  0  0  0
  4 13  2  0  0  0  0
  6 18  1  0  0  0  0
  6  2  2  0  0  0  0
  7  9  2  0  0  0  0
 10 17  1  0  0  0  0
 11 16  2  0  0  0  0
 11  3  1  0  0  0  0
 12  2  1  0  0  0  0
 12  1  2  0  0  0  0
 13  5  1  0  0  0  0
 13  9  1  0  0  0  0
 14  4  1  0  0  0  0
 14 16  1  0  0  0  0
 16  7  1  0  0  0  0
 17  8  2  0  0  0  0
 18 14  2  0  0  0  0
 19 10  1  0  0  0  0
 20 15  1  0  0  0  0
 20 19  1  0  0  0  0
 21 17  1  0  0  0  0
 22 26  2  0  0  0  0
 22 25  1  0  0  0  0
 23 12  1  0  0  0  0
 24 23  1  0  0  0  0
 25 24  2  0  0  0  0
 26 27  1  0  0  0  0
 27 23  2  0  0  0  0
M  END
>  <MODEL>
4

>  <REMARK>
 VINA RESULT:      -7.7      2.363      4.583
  Name = 
  1 active torsions:
  status: ('A' for Active; 'I' for Inactive)
    1  A    between atoms: C_9  and  C_15
                            x       y       z     vdW  Elec       q    Type
                         _______ _______ _______ _____ _____    ______ ____

>  <TORSDO>
F 1

$$$$
=
 OpenBabel11052418223D

 27 31  0  0  0  0  0  0  0  0999 V2000
  189.5290  174.4360  143.6170 C   0  0  0  0  0  0  0  0  0  0  0  0
  190.8210  175.5930  144.9850 C   0  0  0  0  0  0  0  0  0  0  0  0
  190.7560  173.8430  143.5930 N   0  0  0  0  0  0  0  0  0  0  0  0
  194.7850  175.0920  146.1170 C   0  0  0  0  0  3  0  0  0  0  0  0
  196.9690  173.8890  146.0020 C   0  0  0  0  0  1  0  0  0  0  0  0
  191.4030  176.4650  145.9030 C   0  0  0  0  0  3  0  0  0  0  0  0
  193.6570  173.3050  144.2720 C   0  0  0  0  0  3  0  0  0  0  0  0
  190.2670  171.4560  141.0140 O   0  0  0  0  0  0  0  0  0  0  0  0
  194.9900  173.1610  144.6670 C   0  0  0  0  0  3  0  0  0  0  0  0
  190.5060  173.7330  140.7830 O   0  0  0  0  0  0  0  0  0  0  0  0
  191.5330  174.5520  144.4430 C   0  0  0  0  0  0  0  0  0  0  0  0
  189.5330  175.5450  144.4750 C   0  0  0  0  0  0  0  0  0  0  0  0
  195.5520  174.0490  145.5870 C   0  0  0  0  0  0  0  0  0  0  0  0
  193.4520  175.2480  145.7300 C   0  0  0  0  0  0  0  0  0  0  0  0
  188.3790  174.0260  142.7420 C   0  0  0  0  0  2  0  0  0  0  0  0
  192.8770  174.3430  144.7960 C   0  0  0  0  0  0  0  0  0  0  0  0
  190.6310  172.5540  141.5120 C   0  0  0  0  0  0  0  0  0  0  0  0
  192.7080  176.2700  146.2510 N   0  0  0  0  0  0  0  0  0  0  0  0
  189.2690  174.0600  140.1730 C   0  0  0  0  0  2  0  0  0  0  0  0
  188.2790  175.1220  141.2830 S   0  0  0  0  0  0  0  0  0  0  0  0
  191.1320  172.5970  142.9150 C   0  0  0  0  0  2  0  0  0  0  0  0
  186.2760  178.2000  145.3770 C   0  0  0  0  0  3  0  0  0  0  0  0
  188.4110  176.4670  144.7870 C   0  0  0  0  0  0  0  0  0  0  0  0
  187.6270  176.2720  145.9350 C   0  0  0  0  0  3  0  0  0  0  0  0
  186.5660  177.1320  146.2300 C   0  0  0  0  0  3  0  0  0  0  0  0
  187.0460  178.4050  144.2300 C   0  0  0  0  0  3  0  0  0  0  0  0
  188.1060  177.5420  143.9380 C   0  0  0  0  0  3  0  0  0  0  0  0
  1 12  2  0  0  0  0
  2  6  1  0  0  0  0
  3  1  1  0  0  0  0
  3 11  1  0  0  0  0
  6 18  2  0  0  0  0
  7  9  2  0  0  0  0
  7 16  1  0  0  0  0
  8 17  2  0  0  0  0
  9 13  1  0  0  0  0
 10 17  1  0  0  0  0
 11 16  1  0  0  0  0
 11  2  2  0  0  0  0
 12 23  1  0  0  0  0
 12  2  1  0  0  0  0
 13  5  1  0  0  0  0
 13  4  2  0  0  0  0
 14  4  1  0  0  0  0
 14 18  1  0  0  0  0
 15  1  1  0  0  0  0
 16 14  2  0  0  0  0
 17 21  1  0  0  0  0
 19 10  1  0  0  0  0
 19 20  1  0  0  0  0
 20 15  1  0  0  0  0
 21  3  1  0  0  0  0
 22 25  1  0  0  0  0
 23 24  1  0  0  0  0
 24 25  2  0  0  0  0
 26 22  2  0  0  0  0
 27 26  1  0  0  0  0
 27 23  2  0  0  0  0
M  END
>  <MODEL>
5

>  <REMARK>
 VINA RESULT:      -7.5      1.899      6.272
  Name = 
  1 active torsions:
  status: ('A' for Active; 'I' for Inactive)
    1  A    between atoms: C_9  and  C_15
                            x       y       z     vdW  Elec       q    Type
                         _______ _______ _______ _____ _____    ______ ____

>  <TORSDO>
F 1

$$$$
=
 OpenBabel11052418223D

 27 31  0  0  0  0  0  0  0  0999 V2000
  189.2620  175.7700  143.2440 C   0  0  0  0  0  0  0  0  0  0  0  0
  187.9870  176.8840  144.6630 C   0  0  0  0  0  0  0  0  0  0  0  0
  188.1240  176.1020  142.5720 N   0  0  0  0  0  0  0  0  0  0  0  0
  184.2600  178.6600  144.2130 C   0  0  0  0  0  3  0  0  0  0  0  0
  182.2450  179.2280  142.8530 C   0  0  0  0  0  1  0  0  0  0  0  0
  187.4010  177.5630  145.7290 C   0  0  0  0  0  3  0  0  0  0  0  0
  185.4020  177.3130  142.0320 C   0  0  0  0  0  3  0  0  0  0  0  0
  188.6320  174.3380  139.5360 O   0  0  0  0  0  0  0  0  0  0  0  0
  184.1470  177.9160  141.9090 C   0  0  0  0  0  3  0  0  0  0  0  0
  188.0850  173.4550  141.5900 O   0  0  0  0  0  0  0  0  0  0  0  0
  187.3590  176.7930  143.4460 C   0  0  0  0  0  0  0  0  0  0  0  0
  189.2090  176.2380  144.5650 C   0  0  0  0  0  0  0  0  0  0  0  0
  183.5790  178.5890  142.9930 C   0  0  0  0  0  0  0  0  0  0  0  0
  185.5150  178.0610  144.3500 C   0  0  0  0  0  0  0  0  0  0  0  0
  190.3540  174.9100  142.6750 C   0  0  0  0  0  2  0  0  0  0  0  0
  186.0960  177.3790  143.2470 C   0  0  0  0  0  0  0  0  0  0  0  0
  188.1870  174.5200  140.7000 C   0  0  0  0  0  0  0  0  0  0  0  0
  186.1760  178.1330  145.5450 N   0  0  0  0  0  0  0  0  0  0  0  0
  189.2000  172.6070  141.8090 C   0  0  0  0  0  2  0  0  0  0  0  0
  190.1600  173.1860  143.2510 S   0  0  0  0  0  0  0  0  0  0  0  0
  187.8370  175.8980  141.1470 C   0  0  0  0  0  2  0  0  0  0  0  0
  192.1810  175.8050  147.6380 C   0  0  0  0  0  3  0  0  0  0  0  0
  190.2330  176.0910  145.6310 C   0  0  0  0  0  0  0  0  0  0  0  0
  191.5290  176.6000  145.4490 C   0  0  0  0  0  3  0  0  0  0  0  0
  192.4980  176.4590  146.4460 C   0  0  0  0  0  3  0  0  0  0  0  0
  190.8970  175.2910  147.8320 C   0  0  0  0  0  3  0  0  0  0  0  0
  189.9300  175.4330  146.8330 C   0  0  0  0  0  3  0  0  0  0  0  0
  1 12  2  0  0  0  0
  2  6  1  0  0  0  0
  3  1  1  0  0  0  0
  3 11  1  0  0  0  0
  4 14  1  0  0  0  0
  5 13  1  0  0  0  0
  7 16  1  0  0  0  0
  8 17  2  0  0  0  0
  9  7  2  0  0  0  0
  9 13  1  0  0  0  0
 10 19  1  0  0  0  0
 11  2  2  0  0  0  0
 12  2  1  0  0  0  0
 12 23  1  0  0  0  0
 13  4  2  0  0  0  0
 14 18  1  0  0  0  0
 15  1  1  0  0  0  0
 15 20  1  0  0  0  0
 16 11  1  0  0  0  0
 16 14  2  0  0  0  0
 17 21  1  0  0  0  0
 17 10  1  0  0  0  0
 18  6  2  0  0  0  0
 19 20  1  0  0  0  0
 21  3  1  0  0  0  0
 22 26  1  0  0  0  0
 23 27  1  0  0  0  0
 24 23  2  0  0  0  0
 24 25  1  0  0  0  0
 25 22  2  0  0  0  0
 27 26  2  0  0  0  0
M  END
>  <MODEL>
6

>  <REMARK>
 VINA RESULT:      -7.4      1.626      2.386
  Name = 
  1 active torsions:
  status: ('A' for Active; 'I' for Inactive)
    1  A    between atoms: C_9  and  C_15
                            x       y       z     vdW  Elec       q    Type
                         _______ _______ _______ _____ _____    ______ ____

>  <TORSDO>
F 1

$$$$
=
 OpenBabel11052418223D

 27 31  0  0  0  0  0  0  0  0999 V2000
  190.1370  176.1490  144.4210 C   0  0  0  0  0  0  0  0  0  0  0  0
  189.0540  174.6740  143.1850 C   0  0  0  0  0  0  0  0  0  0  0  0
  190.9530  175.0640  144.3000 N   0  0  0  0  0  0  0  0  0  0  0  0
  190.1310  170.9050  141.8110 C   0  0  0  0  0  3  0  0  0  0  0  0
  191.7380  169.0020  141.6460 C   0  0  0  0  0  1  0  0  0  0  0  0
  188.1800  173.9440  142.3820 C   0  0  0  0  0  3  0  0  0  0  0  0
  191.9310  172.3380  143.4180 C   0  0  0  0  0  3  0  0  0  0  0  0
  193.5710  175.9790  146.5130 O   0  0  0  0  0  0  0  0  0  0  0  0
  192.2670  171.0670  142.9460 C   0  0  0  0  0  3  0  0  0  0  0  0
  191.4480  175.2880  147.0700 O   0  0  0  0  0  0  0  0  0  0  0  0
  190.2850  174.1750  143.5320 C   0  0  0  0  0  0  0  0  0  0  0  0
  188.9300  175.9380  143.7400 C   0  0  0  0  0  0  0  0  0  0  0  0
  191.3720  170.3530  142.1440 C   0  0  0  0  0  0  0  0  0  0  0  0
  189.7820  172.1750  142.2780 C   0  0  0  0  0  0  0  0  0  0  0  0
  190.4480  177.3440  145.2770 C   0  0  0  0  0  2  0  0  0  0  0  0
  190.6920  172.9040  143.0910 C   0  0  0  0  0  0  0  0  0  0  0  0
  192.5010  175.4110  146.1690 C   0  0  0  0  0  0  0  0  0  0  0  0
  188.5670  172.7100  141.9500 N   0  0  0  0  0  0  0  0  0  0  0  0
  190.9870  176.4270  147.7780 C   0  0  0  0  0  2  0  0  0  0  0  0
  189.5930  177.2030  146.8860 S   0  0  0  0  0  0  0  0  0  0  0  0
  192.3380  174.9320  144.7670 C   0  0  0  0  0  2  0  0  0  0  0  0
  185.5660  178.5890  143.3910 C   0  0  0  0  0  3  0  0  0  0  0  0
  187.7710  176.8590  143.6200 C   0  0  0  0  0  0  0  0  0  0  0  0
  186.7100  176.7910  144.5370 C   0  0  0  0  0  3  0  0  0  0  0  0
  185.6130  177.6510  144.4240 C   0  0  0  0  0  3  0  0  0  0  0  0
  186.6130  178.6660  142.4700 C   0  0  0  0  0  3  0  0  0  0  0  0
  187.7080  177.8040  142.5850 C   0  0  0  0  0  3  0  0  0  0  0  0
  1 15  1  0  0  0  0
  2 11  1  0  0  0  0
  2 12  1  0  0  0  0
  3  1  1  0  0  0  0
  3 21  1  0  0  0  0
  4 13  2  0  0  0  0
  4 14  1  0  0  0  0
  5 13  1  0  0  0  0
  6  2  2  0  0  0  0
  9  7  2  0  0  0  0
 10 19  1  0  0  0  0
 11  3  1  0  0  0  0
 12  1  2  0  0  0  0
 13  9  1  0  0  0  0
 14 16  1  0  0  0  0
 15 20  1  0  0  0  0
 16  7  1  0  0  0  0
 16 11  2  0  0  0  0
 17  8  2  0  0  0  0
 17 10  1  0  0  0  0
 18 14  2  0  0  0  0
 18  6  1  0  0  0  0
 20 19  1  0  0  0  0
 21 17  1  0  0  0  0
 22 25  1  0  0  0  0
 23 12  1  0  0  0  0
 23 24  1  0  0  0  0
 25 24  2  0  0  0  0
 26 27  1  0  0  0  0
 26 22  2  0  0  0  0
 27 23  2  0  0  0  0
M  END
>  <MODEL>
7

>  <REMARK>
 VINA RESULT:      -7.1      2.852      7.090
  Name = 
  1 active torsions:
  status: ('A' for Active; 'I' for Inactive)
    1  A    between atoms: C_9  and  C_15
                            x       y       z     vdW  Elec       q    Type
                         _______ _______ _______ _____ _____    ______ ____

>  <TORSDO>
F 1

$$$$
=
 OpenBabel11052418223D

 27 31  0  0  0  0  0  0  0  0999 V2000
  191.2250  176.0810  143.5970 C   0  0  0  0  0  0  0  0  0  0  0  0
  189.6170  174.8510  142.7140 C   0  0  0  0  0  0  0  0  0  0  0  0
  191.7840  175.3850  142.5670 N   0  0  0  0  0  0  0  0  0  0  0  0
  189.5990  172.2400  139.4840 C   0  0  0  0  0  3  0  0  0  0  0  0
  190.7440  171.0560  137.6080 C   0  0  0  0  0  1  0  0  0  0  0  0
  188.4390  174.2080  142.3390 C   0  0  0  0  0  3  0  0  0  0  0  0
  191.9950  173.5180  140.1940 C   0  0  0  0  0  3  0  0  0  0  0  0
  195.2020  176.2360  142.9950 O   0  0  0  0  0  0  0  0  0  0  0  0
  191.9620  172.6320  139.1130 C   0  0  0  0  0  3  0  0  0  0  0  0
  193.9430  174.8120  144.2930 O   0  0  0  0  0  0  0  0  0  0  0  0
  190.7870  174.6480  142.0270 C   0  0  0  0  0  0  0  0  0  0  0  0
  189.8650  175.7650  143.7260 C   0  0  0  0  0  0  0  0  0  0  0  0
  190.7700  171.9960  138.7580 C   0  0  0  0  0  0  0  0  0  0  0  0
  189.6180  173.1230  140.5670 C   0  0  0  0  0  0  0  0  0  0  0  0
  192.0010  176.9600  144.5370 C   0  0  0  0  0  2  0  0  0  0  0  0
  190.8300  173.7730  140.9280 C   0  0  0  0  0  0  0  0  0  0  0  0
  194.1670  175.5280  143.1210 C   0  0  0  0  0  0  0  0  0  0  0  0
  188.4710  173.3570  141.2740 N   0  0  0  0  0  0  0  0  0  0  0  0
  194.0320  175.4640  145.5480 C   0  0  0  0  0  2  0  0  0  0  0  0
  192.3830  176.0500  146.0750 S   0  0  0  0  0  0  0  0  0  0  0  0
  193.1460  175.5160  142.0360 C   0  0  0  0  0  2  0  0  0  0  0  0
  187.0370  177.2780  146.5860 C   0  0  0  0  0  3  0  0  0  0  0  0
  188.8910  176.2940  144.7150 C   0  0  0  0  0  0  0  0  0  0  0  0
  188.7220  175.6600  145.9560 C   0  0  0  0  0  3  0  0  0  0  0  0
  187.8010  176.1490  146.8870 C   0  0  0  0  0  3  0  0  0  0  0  0
  187.1930  177.9170  145.3540 C   0  0  0  0  0  3  0  0  0  0  0  0
  188.1130  177.4260  144.4240 C   0  0  0  0  0  3  0  0  0  0  0  0
  1 12  2  0  0  0  0
  1 15  1  0  0  0  0
  2 12  1  0  0  0  0
  3  1  1  0  0  0  0
  4 14  1  0  0  0  0
  5 13  1  0  0  0  0
  6  2  1  0  0  0  0
  7 16  1  0  0  0  0
  8 17  2  0  0  0  0
  9  7  2  0  0  0  0
 10 19  1  0  0  0  0
 11  3  1  0  0  0  0
 11  2  2  0  0  0  0
 12 23  1  0  0  0  0
 13  9  1  0  0  0  0
 13  4  2  0  0  0  0
 14 16  2  0  0  0  0
 14 18  1  0  0  0  0
 15 20  1  0  0  0  0
 16 11  1  0  0  0  0
 17 10  1  0  0  0  0
 18  6  2  0  0  0  0
 19 20  1  0  0  0  0
 21  3  1  0  0  0  0
 21 17  1  0  0  0  0
 22 25  1  0  0  0  0
 23 24  1  0  0  0  0
 24 25  2  0  0  0  0
 26 22  2  0  0  0  0
 27 23  2  0  0  0  0
 27 26  1  0  0  0  0
M  END
>  <MODEL>
8

>  <REMARK>
 VINA RESULT:      -6.9      2.749      6.631
  Name = 
  1 active torsions:
  status: ('A' for Active; 'I' for Inactive)
    1  A    between atoms: C_9  and  C_15
                            x       y       z     vdW  Elec       q    Type
                         _______ _______ _______ _____ _____    ______ ____

>  <TORSDO>
F 1

$$$$
=
 OpenBabel11052418223D

 27 31  0  0  0  0  0  0  0  0999 V2000
  188.4350  176.5610  144.0370 C   0  0  0  0  0  0  0  0  0  0  0  0
  188.3940  174.9500  142.5250 C   0  0  0  0  0  0  0  0  0  0  0  0
  189.3420  175.6240  144.4360 N   0  0  0  0  0  0  0  0  0  0  0  0
  190.5710  171.4290  142.1870 C   0  0  0  0  0  3  0  0  0  0  0  0
  192.2830  169.8150  143.0190 C   0  0  0  0  0  1  0  0  0  0  0  0
  188.1910  174.1020  141.4380 C   0  0  0  0  0  3  0  0  0  0  0  0
  191.0240  173.1080  144.3900 C   0  0  0  0  0  3  0  0  0  0  0  0
  190.2380  176.9130  147.6180 O   0  0  0  0  0  0  0  0  0  0  0  0
  191.7410  171.9160  144.2540 C   0  0  0  0  0  3  0  0  0  0  0  0
  188.2670  175.8790  147.0340 O   0  0  0  0  0  0  0  0  0  0  0  0
  189.3160  174.6520  143.4970 C   0  0  0  0  0  0  0  0  0  0  0  0
  187.8140  176.1680  142.8430 C   0  0  0  0  0  0  0  0  0  0  0  0
  191.5170  171.0800  143.1570 C   0  0  0  0  0  0  0  0  0  0  0  0
  189.8480  172.6180  142.3110 C   0  0  0  0  0  0  0  0  0  0  0  0
  188.0710  177.7760  144.8410 C   0  0  0  0  0  2  0  0  0  0  0  0
  190.0760  173.4710  143.4250 C   0  0  0  0  0  0  0  0  0  0  0  0
  189.6050  176.1850  146.8080 C   0  0  0  0  0  0  0  0  0  0  0  0
  188.9240  172.9540  141.3610 N   0  0  0  0  0  0  0  0  0  0  0  0
  187.3420  176.9160  147.3140 C   0  0  0  0  0  2  0  0  0  0  0  0
  186.5300  177.4700  145.7750 S   0  0  0  0  0  0  0  0  0  0  0  0
  190.2760  175.7100  145.5650 C   0  0  0  0  0  2  0  0  0  0  0  0
  184.7850  178.2460  140.6130 C   0  0  0  0  0  3  0  0  0  0  0  0
  186.7710  176.8910  142.0710 C   0  0  0  0  0  0  0  0  0  0  0  0
  185.5470  177.2270  142.6710 C   0  0  0  0  0  3  0  0  0  0  0  0
  184.5590  177.9010  141.9470 C   0  0  0  0  0  3  0  0  0  0  0  0
  185.9970  177.9160  140.0030 C   0  0  0  0  0  3  0  0  0  0  0  0
  186.9820  177.2410  140.7290 C   0  0  0  0  0  3  0  0  0  0  0  0
  1  3  1  0  0  0  0
  1 15  1  0  0  0  0
  2 12  1  0  0  0  0
  2 11  1  0  0  0  0
  3 21  1  0  0  0  0
  4 14  1  0  0  0  0
  4 13  2  0  0  0  0
  5 13  1  0  0  0  0
  6  2  2  0  0  0  0
  9  7  2  0  0  0  0
 10 19  1  0  0  0  0
 11  3  1  0  0  0  0
 12  1  2  0  0  0  0
 13  9  1  0  0  0  0
 14 16  1  0  0  0  0
 15 20  1  0  0  0  0
 16 11  2  0  0  0  0
 16  7  1  0  0  0  0
 17 10  1  0  0  0  0
 17  8  2  0  0  0  0
 18  6  1  0  0  0  0
 18 14  2  0  0  0  0
 20 19  1  0  0  0  0
 21 17  1  0  0  0  0
 22 25  1  0  0  0  0
 23 24  1  0  0  0  0
 23 12  1  0  0  0  0
 25 24  2  0  0  0  0
 26 22  2  0  0  0  0
 26 27  1  0  0  0  0
 27 23  2  0  0  0  0
M  END
>  <MODEL>
9

>  <REMARK>
 VINA RESULT:      -6.8      3.185      7.343
  Name = 
  1 active torsions:
  status: ('A' for Active; 'I' for Inactive)
    1  A    between atoms: C_9  and  C_15
                            x       y       z     vdW  Elec       q    Type
                         _______ _______ _______ _____ _____    ______ ____

>  <TORSDO>
F 1

$$$$
