=
 OpenBabel11052420293D

 34 38  0  0  1  0  0  0  0  0999 V2000
  190.8730  175.8080  144.1190 C   0  0  2  0  0  3  0  0  0  0  0  0
  187.7310  176.8990  146.2290 C   0  0  0  0  0  2  0  0  0  0  0  0
  190.2850  176.9290  146.8790 C   0  0  0  0  0  2  0  0  0  0  0  0
  193.2420  176.1530  144.9540 N   0  0  0  0  0  2  0  0  0  0  0  0
  193.7970  176.2300  146.3010 C   0  0  0  0  0  2  0  0  0  0  0  0
  191.4310  176.0750  146.5040 N   0  0  1  0  0  0  0  0  0  0  0  0
  191.8220  176.4450  145.1460 C   0  0  2  0  0  3  0  0  0  0  0  0
  192.6230  176.4000  147.2630 C   0  0  0  0  0  2  0  0  0  0  0  0
  186.7930  177.0680  145.0240 C   0  0  0  0  0  2  0  0  0  0  0  0
  187.4950  177.8360  143.8740 C   0  0  1  0  0  3  0  0  0  0  0  0
  189.7190  178.1270  142.7390 C   0  0  0  0  0  1  0  0  0  0  0  0
  189.1940  176.9510  145.7850 C   0  0  1  0  0  3  0  0  0  0  0  0
  188.7540  177.1030  143.3300 C   0  0  1  0  0  3  0  0  0  0  0  0
  189.4180  176.2410  144.4310 C   0  0  1  0  0  3  0  0  0  0  0  0
  186.5300  178.3010  142.7770 C   0  0  1  0  0  3  0  0  0  0  0  0
  185.6510  177.1700  142.2600 C   0  0  0  0  0  1  0  0  0  0  0  0
  185.7230  179.3530  143.2360 O   0  0  0  0  0  1  0  0  0  0  0  0
  190.9620  174.2820  143.8780 C   0  0  1  0  0  3  0  0  0  0  0  0
  189.6540  173.6040  144.2520 C   0  0  0  0  0  1  0  0  0  0  0  0
  191.5720  173.7490  142.2230 S   0  0  0  0  0  0  0  0  0  0  0  0
  190.2760  171.6760  138.8770 C   0  0  0  0  0  2  0  0  0  0  0  0
  190.1200  172.7130  141.6930 C   0  0  1  0  0  3  0  0  0  0  0  0
  188.0190  174.6870  138.4640 C   0  0  0  0  0  0  0  0  0  0  0  0
  188.8060  173.5650  138.1920 C   0  0  0  0  0  3  0  0  0  0  0  0
  189.4720  172.8870  139.2300 C   0  0  0  0  0  0  0  0  0  0  0  0
  190.6640  170.4720  142.3330 O   0  0  0  0  0  0  0  0  0  0  0  0
  188.5730  174.4840  140.8180 C   0  0  0  0  0  3  0  0  0  0  0  0
  189.3790  173.3690  140.5570 C   0  0  0  0  0  0  0  0  0  0  0  0
  187.8830  175.1260  139.7850 C   0  0  0  0  0  3  0  0  0  0  0  0
  190.4220  171.2700  141.3860 C   0  0  0  0  0  0  0  0  0  0  0  0
  190.4410  170.7870  140.0330 N   0  0  0  0  0  2  0  0  0  0  0  0
  187.3670  175.4100  137.3620 C   0  0  0  0  0  0  0  0  0  0  0  0
  186.1750  176.1030  137.5860 O   0  0  0  0  0  1  0  0  0  0  0  0
  187.8790  175.3810  136.2090 O   0  0  0  0  0  0  0  0  0  0  0  0
  1 18  1  1  0  0  0
  1 14  1  0  0  0  0
  1  7  1  0  0  0  0
  4  5  1  0  0  0  0
  5  8  1  0  0  0  0
  6  3  1  1  0  0  0
  6  8  1  0  0  0  0
  7  4  1  6  0  0  0
  7  6  1  0  0  0  0
  9  2  1  0  0  0  0
 10 15  1  6  0  0  0
 10  9  1  0  0  0  0
 12  2  1  1  0  0  0
 12  3  1  0  0  0  0
 13 11  1  1  0  0  0
 13 10  1  0  0  0  0
 13 14  1  0  0  0  0
 14 12  1  0  0  0  0
 15 17  1  0  0  0  0
 16 15  1  0  0  0  0
 18 19  1  0  0  0  0
 20 18  1  0  0  0  0
 21 25  1  0  0  0  0
 21 31  1  0  0  0  0
 22 20  1  0  0  0  0
 23 29  1  0  0  0  0
 24 23  2  0  0  0  0
 24 25  1  0  0  0  0
 25 28  2  0  0  0  0
 28 27  1  0  0  0  0
 28 22  1  0  0  0  0
 29 27  2  0  0  0  0
 30 22  1  0  0  0  0
 30 26  2  0  0  0  0
 31 30  1  0  0  0  0
 32 33  1  0  0  0  0
 32 23  1  0  0  0  0
 34 32  2  0  0  0  0
M  END
>  <MODEL>
1

>  <REMARK>
 VINA RESULT:      -7.3      0.000      0.000
  Name = 
  5 active torsions:
  status: ('A' for Active; 'I' for Inactive)
    1  A    between atoms: C_1  and  C_8
    2  A    between atoms: C_3  and  C_25
    3  A    between atoms: C_6  and  S_17
    4  A    between atoms: C_7  and  C_11
    5  A    between atoms: C_8  and  S_17
                            x       y       z     vdW  Elec       q    Type
                         _______ _______ _______ _____ _____    ______ ____

>  <TORSDO>
F 5

$$$$
=
 OpenBabel11052420293D

 34 38  0  0  1  0  0  0  0  0999 V2000
  192.5410  175.4790  143.7700 C   0  0  2  0  0  3  0  0  0  0  0  0
  191.5860  175.4310  147.5910 C   0  0  0  0  0  2  0  0  0  0  0  0
  193.9460  175.7120  146.4510 C   0  0  0  0  0  2  0  0  0  0  0  0
  194.8970  175.9780  142.9760 N   0  0  0  0  0  2  0  0  0  0  0  0
  196.1970  175.7850  143.6090 C   0  0  0  0  0  2  0  0  0  0  0  0
  194.5280  175.1910  145.1970 N   0  0  1  0  0  0  0  0  0  0  0  0
  193.9600  175.9690  144.0990 C   0  0  2  0  0  3  0  0  0  0  0  0
  195.9420  175.4960  145.0850 C   0  0  0  0  0  2  0  0  0  0  0  0
  190.1000  175.7560  147.3770 C   0  0  0  0  0  2  0  0  0  0  0  0
  189.9220  176.9080  146.3540 C   0  0  1  0  0  3  0  0  0  0  0  0
  190.8840  177.8570  144.2330 C   0  0  0  0  0  1  0  0  0  0  0  0
  192.4090  175.8420  146.3680 C   0  0  1  0  0  3  0  0  0  0  0  0
  190.4860  176.5660  144.9460 C   0  0  1  0  0  3  0  0  0  0  0  0
  191.6630  175.5650  145.0440 C   0  0  1  0  0  3  0  0  0  0  0  0
  188.5000  177.4810  146.3260 C   0  0  1  0  0  3  0  0  0  0  0  0
  187.4700  176.4540  145.8760 C   0  0  0  0  0  1  0  0  0  0  0  0
  188.1410  177.9880  147.5850 O   0  0  0  0  0  1  0  0  0  0  0  0
  192.3770  174.1090  143.0690 C   0  0  1  0  0  3  0  0  0  0  0  0
  191.4660  173.2000  143.8800 C   0  0  0  0  0  1  0  0  0  0  0  0
  191.9080  174.1510  141.2880 S   0  0  0  0  0  0  0  0  0  0  0  0
  188.5120  173.7500  138.9460 C   0  0  0  0  0  2  0  0  0  0  0  0
  190.1950  173.4350  141.4150 C   0  0  1  0  0  3  0  0  0  0  0  0
  187.2610  176.6030  141.0980 C   0  0  0  0  0  0  0  0  0  0  0  0
  187.4520  175.7270  140.0260 C   0  0  0  0  0  3  0  0  0  0  0  0
  188.3760  174.6700  140.1180 C   0  0  0  0  0  0  0  0  0  0  0  0
  190.4030  171.1500  140.7370 O   0  0  0  0  0  0  0  0  0  0  0  0
  188.9390  175.3880  142.3650 C   0  0  0  0  0  3  0  0  0  0  0  0
  189.1520  174.5150  141.2910 C   0  0  0  0  0  0  0  0  0  0  0  0
  187.9880  176.4110  142.2780 C   0  0  0  0  0  3  0  0  0  0  0  0
  189.8970  172.2800  140.4960 C   0  0  0  0  0  0  0  0  0  0  0  0
  189.0480  172.4450  139.3490 N   0  0  0  0  0  2  0  0  0  0  0  0
  186.3240  177.7290  140.9690 C   0  0  0  0  0  0  0  0  0  0  0  0
  186.2620  178.7070  141.9630 O   0  0  0  0  0  1  0  0  0  0  0  0
  185.5620  177.7910  139.9660 O   0  0  0  0  0  0  0  0  0  0  0  0
  1 18  1  1  0  0  0
  1  7  1  0  0  0  0
  1 14  1  0  0  0  0
  4  5  1  0  0  0  0
  5  8  1  0  0  0  0
  6  8  1  1  0  0  0
  6  3  1  0  0  0  0
  7  4  1  6  0  0  0
  7  6  1  0  0  0  0
  9  2  1  0  0  0  0
 10 15  1  6  0  0  0
 10  9  1  0  0  0  0
 12  3  1  6  0  0  0
 12  2  1  0  0  0  0
 13 11  1  1  0  0  0
 13 14  1  0  0  0  0
 13 10  1  0  0  0  0
 14 12  1  0  0  0  0
 15 17  1  0  0  0  0
 16 15  1  0  0  0  0
 18 19  1  0  0  0  0
 20 22  1  0  0  0  0
 20 18  1  0  0  0  0
 21 31  1  0  0  0  0
 21 25  1  0  0  0  0
 23 29  1  0  0  0  0
 24 25  1  0  0  0  0
 24 23  2  0  0  0  0
 25 28  2  0  0  0  0
 28 22  1  0  0  0  0
 28 27  1  0  0  0  0
 29 27  2  0  0  0  0
 30 26  2  0  0  0  0
 30 22  1  0  0  0  0
 31 30  1  0  0  0  0
 32 23  1  0  0  0  0
 32 33  1  0  0  0  0
 34 32  2  0  0  0  0
M  END
>  <MODEL>
2

>  <REMARK>
 VINA RESULT:      -7.3      1.863      3.192
  Name = 
  5 active torsions:
  status: ('A' for Active; 'I' for Inactive)
    1  A    between atoms: C_1  and  C_8
    2  A    between atoms: C_3  and  C_25
    3  A    between atoms: C_6  and  S_17
    4  A    between atoms: C_7  and  C_11
    5  A    between atoms: C_8  and  S_17
                            x       y       z     vdW  Elec       q    Type
                         _______ _______ _______ _____ _____    ______ ____

>  <TORSDO>
F 5

$$$$
=
 OpenBabel11052420293D

 34 38  0  0  1  0  0  0  0  0999 V2000
  191.9270  175.0700  143.0930 C   0  0  2  0  0  3  0  0  0  0  0  0
  194.5480  173.3280  145.4620 C   0  0  0  0  0  2  0  0  0  0  0  0
  192.4830  172.2950  144.1910 C   0  0  0  0  0  2  0  0  0  0  0  0
  190.1570  173.7540  141.8420 N   0  0  0  0  0  2  0  0  0  0  0  0
  189.4990  172.4860  142.1380 C   0  0  0  0  0  2  0  0  0  0  0  0
  191.1650  172.8370  143.8000 N   0  0  1  0  0  0  0  0  0  0  0  0
  191.3790  173.7060  142.6450 C   0  0  2  0  0  3  0  0  0  0  0  0
  190.2960  171.8130  143.2520 C   0  0  0  0  0  2  0  0  0  0  0  0
  195.6190  174.4220  145.3290 C   0  0  0  0  0  2  0  0  0  0  0  0
  195.7950  174.8540  143.8510 C   0  0  1  0  0  3  0  0  0  0  0  0
  194.5160  175.2370  141.7200 C   0  0  0  0  0  1  0  0  0  0  0  0
  193.5570  173.3990  144.2970 C   0  0  1  0  0  3  0  0  0  0  0  0
  194.5000  175.4530  143.2320 C   0  0  1  0  0  3  0  0  0  0  0  0
  193.2360  174.8560  143.8950 C   0  0  1  0  0  3  0  0  0  0  0  0
  197.0450  175.7090  143.6130 C   0  0  1  0  0  3  0  0  0  0  0  0
  197.8950  175.1860  142.4630 C   0  0  0  0  0  1  0  0  0  0  0  0
  196.6950  177.0460  143.3700 O   0  0  0  0  0  1  0  0  0  0  0  0
  190.9750  176.0450  143.8260 C   0  0  1  0  0  3  0  0  0  0  0  0
  191.6720  176.6730  145.0240 C   0  0  0  0  0  1  0  0  0  0  0  0
  190.1240  177.3010  142.7820 S   0  0  0  0  0  0  0  0  0  0  0  0
  186.2170  178.6290  142.4000 C   0  0  0  0  0  2  0  0  0  0  0  0
  188.3980  176.6080  142.8320 C   0  0  1  0  0  3  0  0  0  0  0  0
  186.2360  178.3120  146.1730 C   0  0  0  0  0  0  0  0  0  0  0  0
  185.9370  178.7270  144.8730 C   0  0  0  0  0  3  0  0  0  0  0  0
  186.6030  178.1620  143.7680 C   0  0  0  0  0  0  0  0  0  0  0  0
  187.9200  175.9140  140.5920 O   0  0  0  0  0  0  0  0  0  0  0  0
  187.8940  176.7780  145.2840 C   0  0  0  0  0  3  0  0  0  0  0  0
  187.6160  177.1970  143.9770 C   0  0  0  0  0  0  0  0  0  0  0  0
  187.1970  177.3150  146.3720 C   0  0  0  0  0  3  0  0  0  0  0  0
  187.6220  176.6860  141.5440 C   0  0  0  0  0  0  0  0  0  0  0  0
  186.5490  177.6280  141.3800 N   0  0  0  0  0  2  0  0  0  0  0  0
  185.5630  178.9430  147.3180 C   0  0  0  0  0  0  0  0  0  0  0  0
  186.2160  179.9310  148.0580 O   0  0  0  0  0  1  0  0  0  0  0  0
  184.4020  178.5700  147.6390 O   0  0  0  0  0  0  0  0  0  0  0  0
  1 18  1  1  0  0  0
  1 14  1  0  0  0  0
  4  5  1  0  0  0  0
  5  8  1  0  0  0  0
  6  8  1  6  0  0  0
  6  3  1  0  0  0  0
  7  4  1  1  0  0  0
  7  1  1  0  0  0  0
  7  6  1  0  0  0  0
  9  2  1  0  0  0  0
 10 15  1  1  0  0  0
 10  9  1  0  0  0  0
 12  3  1  1  0  0  0
 12  2  1  0  0  0  0
 13 11  1  6  0  0  0
 13 10  1  0  0  0  0
 13 14  1  0  0  0  0
 14 12  1  0  0  0  0
 16 15  1  0  0  0  0
 17 15  1  0  0  0  0
 18 19  1  0  0  0  0
 20 22  1  0  0  0  0
 20 18  1  0  0  0  0
 21 25  1  0  0  0  0
 22 28  1  0  0  0  0
 23 29  1  0  0  0  0
 23 32  1  0  0  0  0
 24 23  2  0  0  0  0
 25 28  2  0  0  0  0
 25 24  1  0  0  0  0
 26 30  2  0  0  0  0
 27 29  2  0  0  0  0
 28 27  1  0  0  0  0
 30 22  1  0  0  0  0
 31 30  1  0  0  0  0
 31 21  1  0  0  0  0
 32 34  2  0  0  0  0
 32 33  1  0  0  0  0
M  END
>  <MODEL>
3

>  <REMARK>
 VINA RESULT:      -7.2      3.414      7.480
  Name = 
  5 active torsions:
  status: ('A' for Active; 'I' for Inactive)
    1  A    between atoms: C_1  and  C_8
    2  A    between atoms: C_3  and  C_25
    3  A    between atoms: C_6  and  S_17
    4  A    between atoms: C_7  and  C_11
    5  A    between atoms: C_8  and  S_17
                            x       y       z     vdW  Elec       q    Type
                         _______ _______ _______ _____ _____    ______ ____

>  <TORSDO>
F 5

$$$$
=
 OpenBabel11052420293D

 34 38  0  0  1  0  0  0  0  0999 V2000
  191.6400  174.1580  144.6720 C   0  0  2  0  0  3  0  0  0  0  0  0
  194.4590  176.8640  145.1660 C   0  0  0  0  0  2  0  0  0  0  0  0
  192.2770  176.4310  146.5800 C   0  0  0  0  0  2  0  0  0  0  0  0
  189.7510  173.8590  146.3370 N   0  0  0  0  0  2  0  0  0  0  0  0
  189.1150  174.7910  147.2620 C   0  0  0  0  0  2  0  0  0  0  0  0
  190.9320  175.9290  146.2300 N   0  0  1  0  0  0  0  0  0  0  0  0
  191.0420  174.4840  146.0490 C   0  0  2  0  0  3  0  0  0  0  0  0
  190.0080  176.0250  147.3450 C   0  0  0  0  0  2  0  0  0  0  0  0
  195.5200  176.1270  144.3350 C   0  0  0  0  0  2  0  0  0  0  0  0
  195.5610  174.6190  144.6910 C   0  0  1  0  0  3  0  0  0  0  0  0
  194.0900  172.6830  145.3330 C   0  0  0  0  0  1  0  0  0  0  0  0
  193.3640  175.8970  145.6220 C   0  0  1  0  0  3  0  0  0  0  0  0
  194.2170  173.8880  144.4040 C   0  0  1  0  0  3  0  0  0  0  0  0
  193.0170  174.8560  144.5340 C   0  0  1  0  0  3  0  0  0  0  0  0
  196.7890  173.8940  144.1280 C   0  0  1  0  0  3  0  0  0  0  0  0
  197.0180  174.2010  142.6540 C   0  0  0  0  0  1  0  0  0  0  0  0
  197.9400  174.2200  144.8620 O   0  0  0  0  0  1  0  0  0  0  0  0
  190.7680  174.3890  143.4150 C   0  0  1  0  0  3  0  0  0  0  0  0
  189.6240  173.3880  143.3650 C   0  0  0  0  0  1  0  0  0  0  0  0
  190.1910  176.1140  143.1230 S   0  0  0  0  0  0  0  0  0  0  0  0
  186.8800  178.1320  141.6610 C   0  0  0  0  0  2  0  0  0  0  0  0
  188.4140  175.7650  142.6960 C   0  0  1  0  0  3  0  0  0  0  0  0
  185.8120  178.0520  145.2930 C   0  0  0  0  0  0  0  0  0  0  0  0
  185.9650  178.4340  143.9570 C   0  0  0  0  0  3  0  0  0  0  0  0
  186.7800  177.6870  143.0860 C   0  0  0  0  0  0  0  0  0  0  0  0
  188.4330  175.0360  140.4170 O   0  0  0  0  0  0  0  0  0  0  0  0
  187.3090  176.1790  144.9100 C   0  0  0  0  0  3  0  0  0  0  0  0
  187.4850  176.5610  143.5740 C   0  0  0  0  0  0  0  0  0  0  0  0
  186.4640  176.9050  145.7580 C   0  0  0  0  0  3  0  0  0  0  0  0
  188.0480  175.9090  141.2430 C   0  0  0  0  0  0  0  0  0  0  0  0
  187.2700  177.0250  140.7800 N   0  0  0  0  0  2  0  0  0  0  0  0
  184.9930  178.8690  146.2000 C   0  0  0  0  0  0  0  0  0  0  0  0
  185.5540  179.4040  147.3620 O   0  0  0  0  0  1  0  0  0  0  0  0
  183.7750  179.0640  145.9340 O   0  0  0  0  0  0  0  0  0  0  0  0
  1 18  1  6  0  0  0
  1  7  1  0  0  0  0
  4  5  1  0  0  0  0
  5  8  1  0  0  0  0
  6  3  1  1  0  0  0
  6  8  1  0  0  0  0
  7  6  1  0  0  0  0
  7  4  1  6  0  0  0
  9 10  1  0  0  0  0
  9  2  1  0  0  0  0
 10 15  1  6  0  0  0
 12  2  1  6  0  0  0
 12  3  1  0  0  0  0
 13 14  1  0  0  0  0
 13 10  1  0  0  0  0
 13 11  1  1  0  0  0
 14  1  1  0  0  0  0
 14 12  1  0  0  0  0
 15 17  1  0  0  0  0
 16 15  1  0  0  0  0
 19 18  1  0  0  0  0
 20 18  1  0  0  0  0
 21 25  1  0  0  0  0
 22 20  1  0  0  0  0
 22 28  1  0  0  0  0
 23 29  1  0  0  0  0
 23 32  1  0  0  0  0
 24 23  2  0  0  0  0
 25 28  2  0  0  0  0
 25 24  1  0  0  0  0
 26 30  2  0  0  0  0
 27 29  2  0  0  0  0
 28 27  1  0  0  0  0
 30 22  1  0  0  0  0
 31 30  1  0  0  0  0
 31 21  1  0  0  0  0
 32 33  1  0  0  0  0
 34 32  2  0  0  0  0
M  END
>  <MODEL>
4

>  <REMARK>
 VINA RESULT:      -7.1      3.022      6.888
  Name = 
  5 active torsions:
  status: ('A' for Active; 'I' for Inactive)
    1  A    between atoms: C_1  and  C_8
    2  A    between atoms: C_3  and  C_25
    3  A    between atoms: C_6  and  S_17
    4  A    between atoms: C_7  and  C_11
    5  A    between atoms: C_8  and  S_17
                            x       y       z     vdW  Elec       q    Type
                         _______ _______ _______ _____ _____    ______ ____

>  <TORSDO>
F 5

$$$$
=
 OpenBabel11052420293D

 34 38  0  0  1  0  0  0  0  0999 V2000
  190.8350  175.0670  142.7370 C   0  0  2  0  0  3  0  0  0  0  0  0
  189.6910  173.6550  146.2310 C   0  0  0  0  0  2  0  0  0  0  0  0
  190.8060  172.4050  144.1960 C   0  0  0  0  0  2  0  0  0  0  0  0
  192.0760  173.6410  141.0470 N   0  0  0  0  0  2  0  0  0  0  0  0
  192.0810  172.2020  140.8060 C   0  0  0  0  0  2  0  0  0  0  0  0
  190.7440  172.6060  142.7330 N   0  0  1  0  0  0  0  0  0  0  0  0
  191.5800  173.7620  142.4180 C   0  0  2  0  0  3  0  0  0  0  0  0
  191.4130  171.5410  142.0090 C   0  0  0  0  0  2  0  0  0  0  0  0
  189.6710  175.0160  146.9430 C   0  0  0  0  0  2  0  0  0  0  0  0
  190.9400  175.8410  146.6060 C   0  0  1  0  0  3  0  0  0  0  0  0
  192.5510  176.3480  144.7440 C   0  0  0  0  0  1  0  0  0  0  0  0
  190.5600  173.7170  144.9730 C   0  0  1  0  0  3  0  0  0  0  0  0
  191.0760  176.1590  145.0900 C   0  0  1  0  0  3  0  0  0  0  0  0
  190.4080  175.0620  144.2270 C   0  0  1  0  0  3  0  0  0  0  0  0
  191.1270  177.0640  147.5120 C   0  0  1  0  0  3  0  0  0  0  0  0
  189.8550  177.8920  147.6380 C   0  0  0  0  0  1  0  0  0  0  0  0
  191.5660  176.6770  148.7880 O   0  0  0  0  0  1  0  0  0  0  0  0
  189.6610  175.4910  141.8210 C   0  0  1  0  0  3  0  0  0  0  0  0
  188.5140  174.4970  141.9280 C   0  0  0  0  0  1  0  0  0  0  0  0
  189.0860  177.2330  141.9800 S   0  0  0  0  0  0  0  0  0  0  0  0
  185.6380  179.3880  142.7850 C   0  0  0  0  0  2  0  0  0  0  0  0
  187.2700  176.9240  142.2430 C   0  0  1  0  0  3  0  0  0  0  0  0
  186.1690  178.0330  146.2800 C   0  0  0  0  0  0  0  0  0  0  0  0
  185.7850  178.8470  145.2110 C   0  0  0  0  0  3  0  0  0  0  0  0
  186.1030  178.4890  143.8870 C   0  0  0  0  0  0  0  0  0  0  0  0
  186.2850  176.9960  140.0640 O   0  0  0  0  0  0  0  0  0  0  0  0
  187.2180  176.5020  144.7160 C   0  0  0  0  0  3  0  0  0  0  0  0
  186.8550  177.3170  143.6360 C   0  0  0  0  0  0  0  0  0  0  0  0
  186.8620  176.8460  146.0250 C   0  0  0  0  0  3  0  0  0  0  0  0
  186.3470  177.5160  141.2110 C   0  0  0  0  0  0  0  0  0  0  0  0
  185.5390  178.6660  141.5110 N   0  0  0  0  0  2  0  0  0  0  0  0
  185.8680  178.4450  147.6600 C   0  0  0  0  0  0  0  0  0  0  0  0
  185.9420  179.7920  148.0220 O   0  0  0  0  0  0  0  0  0  0  0  0
  185.5660  177.5710  148.5170 O   0  0  0  0  0  1  0  0  0  0  0  0
  1 18  1  6  0  0  0
  1 14  1  0  0  0  0
  2  9  1  0  0  0  0
  5  4  1  0  0  0  0
  5  8  1  0  0  0  0
  6  8  1  6  0  0  0
  6  3  1  0  0  0  0
  7  4  1  6  0  0  0
  7  6  1  0  0  0  0
  7  1  1  0  0  0  0
 10  9  1  0  0  0  0
 10 15  1  1  0  0  0
 12  3  1  6  0  0  0
 12  2  1  0  0  0  0
 13 11  1  6  0  0  0
 13 10  1  0  0  0  0
 14 12  1  0  0  0  0
 14 13  1  0  0  0  0
 15 16  1  0  0  0  0
 15 17  1  0  0  0  0
 18 19  1  0  0  0  0
 18 20  1  0  0  0  0
 20 22  1  0  0  0  0
 21 25  1  0  0  0  0
 22 28  1  0  0  0  0
 23 32  1  0  0  0  0
 24 23  2  0  0  0  0
 25 24  1  0  0  0  0
 26 30  2  0  0  0  0
 27 29  2  0  0  0  0
 28 25  2  0  0  0  0
 28 27  1  0  0  0  0
 29 23  1  0  0  0  0
 30 31  1  0  0  0  0
 30 22  1  0  0  0  0
 31 21  1  0  0  0  0
 32 33  2  0  0  0  0
 32 34  1  0  0  0  0
M  END
>  <MODEL>
5

>  <REMARK>
 VINA RESULT:      -7.0      2.986      6.741
  Name = 
  5 active torsions:
  status: ('A' for Active; 'I' for Inactive)
    1  A    between atoms: C_1  and  C_8
    2  A    between atoms: C_3  and  C_25
    3  A    between atoms: C_6  and  S_17
    4  A    between atoms: C_7  and  C_11
    5  A    between atoms: C_8  and  S_17
                            x       y       z     vdW  Elec       q    Type
                         _______ _______ _______ _____ _____    ______ ____

>  <TORSDO>
F 5

$$$$
=
 OpenBabel11052420293D

 34 38  0  0  1  0  0  0  0  0999 V2000
  190.4010  175.9690  144.3890 C   0  0  2  0  0  3  0  0  0  0  0  0
  187.3670  177.0870  146.6390 C   0  0  0  0  0  2  0  0  0  0  0  0
  189.9480  177.1010  147.1690 C   0  0  0  0  0  2  0  0  0  0  0  0
  192.8080  176.3000  145.1120 N   0  0  0  0  0  2  0  0  0  0  0  0
  193.4250  176.3770  146.4320 C   0  0  0  0  0  2  0  0  0  0  0  0
  191.0700  176.2380  146.7440 N   0  0  1  0  0  0  0  0  0  0  0  0
  191.4000  176.6030  145.3680 C   0  0  2  0  0  3  0  0  0  0  0  0
  192.2990  176.5580  147.4460 C   0  0  0  0  0  2  0  0  0  0  0  0
  186.3750  177.2590  145.4770 C   0  0  0  0  0  2  0  0  0  0  0  0
  187.0280  178.0190  144.2940 C   0  0  1  0  0  3  0  0  0  0  0  0
  189.2000  178.2930  143.0560 C   0  0  0  0  0  1  0  0  0  0  0  0
  188.8090  177.1280  146.1280 C   0  0  1  0  0  3  0  0  0  0  0  0
  188.2560  177.2760  143.6950 C   0  0  1  0  0  3  0  0  0  0  0  0
  188.9640  176.4130  144.7670 C   0  0  1  0  0  3  0  0  0  0  0  0
  186.0170  178.4880  143.2410 C   0  0  1  0  0  3  0  0  0  0  0  0
  184.8240  177.5480  143.1250 C   0  0  0  0  0  1  0  0  0  0  0  0
  185.5680  179.7870  143.5250 O   0  0  0  0  0  1  0  0  0  0  0  0
  190.4690  174.4420  144.1480 C   0  0  1  0  0  3  0  0  0  0  0  0
  189.7070  173.6950  145.2330 C   0  0  0  0  0  1  0  0  0  0  0  0
  190.0220  173.8580  142.4590 S   0  0  0  0  0  0  0  0  0  0  0  0
  192.9710  171.9000  144.6150 C   0  0  0  0  0  2  0  0  0  0  0  0
  191.4590  172.7170  142.1500 C   0  0  1  0  0  3  0  0  0  0  0  0
  195.1510  174.6840  143.2620 C   0  0  0  0  0  0  0  0  0  0  0  0
  194.6360  173.6710  144.0760 C   0  0  0  0  0  3  0  0  0  0  0  0
  193.4550  172.9940  143.7170 C   0  0  0  0  0  0  0  0  0  0  0  0
  190.5480  170.5050  142.2210 O   0  0  0  0  0  0  0  0  0  0  0  0
  193.2940  174.3750  141.7300 C   0  0  0  0  0  3  0  0  0  0  0  0
  192.7570  173.3710  142.5440 C   0  0  0  0  0  0  0  0  0  0  0  0
  194.4910  175.0140  142.0740 C   0  0  0  0  0  3  0  0  0  0  0  0
  191.3400  171.3380  142.7420 C   0  0  0  0  0  0  0  0  0  0  0  0
  192.1120  170.9550  143.8920 N   0  0  0  0  0  2  0  0  0  0  0  0
  196.3620  175.4110  143.6750 C   0  0  0  0  0  0  0  0  0  0  0  0
  196.4960  176.7700  143.3840 O   0  0  0  0  0  0  0  0  0  0  0  0
  197.2860  174.7920  144.2700 O   0  0  0  0  0  1  0  0  0  0  0  0
  1 18  1  1  0  0  0
  1 14  1  0  0  0  0
  1  7  1  0  0  0  0
  4  5  1  0  0  0  0
  5  8  1  0  0  0  0
  6  3  1  1  0  0  0
  6  8  1  0  0  0  0
  7  4  1  6  0  0  0
  7  6  1  0  0  0  0
  9  2  1  0  0  0  0
 10 15  1  6  0  0  0
 10  9  1  0  0  0  0
 12  2  1  1  0  0  0
 12  3  1  0  0  0  0
 13 11  1  1  0  0  0
 13 10  1  0  0  0  0
 13 14  1  0  0  0  0
 14 12  1  0  0  0  0
 15 17  1  0  0  0  0
 16 15  1  0  0  0  0
 18 19  1  0  0  0  0
 20 18  1  0  0  0  0
 22 20  1  0  0  0  0
 22 28  1  0  0  0  0
 22 30  1  0  0  0  0
 23 32  1  0  0  0  0
 23 24  1  0  0  0  0
 25 24  2  0  0  0  0
 25 21  1  0  0  0  0
 26 30  2  0  0  0  0
 27 29  1  0  0  0  0
 27 28  2  0  0  0  0
 28 25  1  0  0  0  0
 29 23  2  0  0  0  0
 30 31  1  0  0  0  0
 31 21  1  0  0  0  0
 32 34  1  0  0  0  0
 33 32  2  0  0  0  0
M  END
>  <MODEL>
6

>  <REMARK>
 VINA RESULT:      -7.0      3.030      4.710
  Name = 
  5 active torsions:
  status: ('A' for Active; 'I' for Inactive)
    1  A    between atoms: C_1  and  C_8
    2  A    between atoms: C_3  and  C_25
    3  A    between atoms: C_6  and  S_17
    4  A    between atoms: C_7  and  C_11
    5  A    between atoms: C_8  and  S_17
                            x       y       z     vdW  Elec       q    Type
                         _______ _______ _______ _____ _____    ______ ____

>  <TORSDO>
F 5

$$$$
=
 OpenBabel11052420293D

 34 38  0  0  1  0  0  0  0  0999 V2000
  189.9640  175.9700  143.4190 C   0  0  2  0  0  3  0  0  0  0  0  0
  186.4950  177.8360  143.4170 C   0  0  0  0  0  2  0  0  0  0  0  0
  187.3550  175.8840  141.8690 C   0  0  0  0  0  2  0  0  0  0  0  0
  190.4210  173.9730  141.9250 N   0  0  0  0  0  2  0  0  0  0  0  0
  189.8680  173.5790  140.6340 C   0  0  0  0  0  2  0  0  0  0  0  0
  188.6920  175.5160  141.3590 N   0  0  1  0  0  0  0  0  0  0  0  0
  189.4220  174.8970  142.4630 C   0  0  2  0  0  3  0  0  0  0  0  0
  188.6280  174.4350  140.3930 C   0  0  0  0  0  2  0  0  0  0  0  0
  186.6170  178.3800  144.8490 C   0  0  0  0  0  2  0  0  0  0  0  0
  187.1190  177.2820  145.8220 C   0  0  1  0  0  3  0  0  0  0  0  0
  188.6720  175.3100  145.9720 C   0  0  0  0  0  1  0  0  0  0  0  0
  187.4340  176.6450  143.2100 C   0  0  1  0  0  3  0  0  0  0  0  0
  188.5300  176.7390  145.4540 C   0  0  1  0  0  3  0  0  0  0  0  0
  188.7870  176.8390  143.9310 C   0  0  1  0  0  3  0  0  0  0  0  0
  186.9720  177.6660  147.2990 C   0  0  1  0  0  3  0  0  0  0  0  0
  186.2870  179.0130  147.4820 C   0  0  0  0  0  1  0  0  0  0  0  0
  186.2660  176.6780  148.0030 O   0  0  0  0  0  1  0  0  0  0  0  0
  191.1450  176.8510  142.9490 C   0  0  1  0  0  3  0  0  0  0  0  0
  191.1010  178.2120  143.6260 C   0  0  0  0  0  1  0  0  0  0  0  0
  192.8200  176.0880  143.0330 S   0  0  0  0  0  0  0  0  0  0  0  0
  195.3900  174.4080  145.8180 C   0  0  0  0  0  2  0  0  0  0  0  0
  192.7710  175.4570  144.7830 C   0  0  1  0  0  3  0  0  0  0  0  0
  193.6180  171.2120  144.8290 C   0  0  0  0  0  0  0  0  0  0  0  0
  194.5870  172.1150  145.2760 C   0  0  0  0  0  3  0  0  0  0  0  0
  194.3210  173.4970  145.3020 C   0  0  0  0  0  0  0  0  0  0  0  0
  193.2180  177.3590  146.1640 O   0  0  0  0  0  0  0  0  0  0  0  0
  192.1110  173.0670  144.4020 C   0  0  0  0  0  3  0  0  0  0  0  0
  193.0790  173.9840  144.8310 C   0  0  0  0  0  0  0  0  0  0  0  0
  192.3690  171.6920  144.4190 C   0  0  0  0  0  3  0  0  0  0  0  0
  193.6020  176.2210  145.7800 C   0  0  0  0  0  0  0  0  0  0  0  0
  194.8260  175.6760  146.2980 N   0  0  0  0  0  2  0  0  0  0  0  0
  193.9270  169.7750  144.7670 C   0  0  0  0  0  0  0  0  0  0  0  0
  192.8950  168.8380  144.6880 O   0  0  0  0  0  0  0  0  0  0  0  0
  195.1290  169.3960  144.8090 O   0  0  0  0  0  1  0  0  0  0  0  0
  1 18  1  6  0  0  0
  1 14  1  0  0  0  0
  2  9  1  0  0  0  0
  5  4  1  0  0  0  0
  6  8  1  6  0  0  0
  6  3  1  0  0  0  0
  6  7  1  0  0  0  0
  7  4  1  6  0  0  0
  7  1  1  0  0  0  0
  8  5  1  0  0  0  0
  9 10  1  0  0  0  0
 10 15  1  1  0  0  0
 12  3  1  6  0  0  0
 12  2  1  0  0  0  0
 12 14  1  0  0  0  0
 13 10  1  0  0  0  0
 13 11  1  6  0  0  0
 14 13  1  0  0  0  0
 15 16  1  0  0  0  0
 15 17  1  0  0  0  0
 18 20  1  0  0  0  0
 18 19  1  0  0  0  0
 20 22  1  0  0  0  0
 21 31  1  0  0  0  0
 22 28  1  0  0  0  0
 22 30  1  0  0  0  0
 23 24  1  0  0  0  0
 24 25  2  0  0  0  0
 25 21  1  0  0  0  0
 27 29  1  0  0  0  0
 27 28  2  0  0  0  0
 28 25  1  0  0  0  0
 29 23  2  0  0  0  0
 30 26  2  0  0  0  0
 30 31  1  0  0  0  0
 32 34  1  0  0  0  0
 32 23  1  0  0  0  0
 33 32  2  0  0  0  0
M  END
>  <MODEL>
7

>  <REMARK>
 VINA RESULT:      -6.8      3.400      6.634
  Name = 
  5 active torsions:
  status: ('A' for Active; 'I' for Inactive)
    1  A    between atoms: C_1  and  C_8
    2  A    between atoms: C_3  and  C_25
    3  A    between atoms: C_6  and  S_17
    4  A    between atoms: C_7  and  C_11
    5  A    between atoms: C_8  and  S_17
                            x       y       z     vdW  Elec       q    Type
                         _______ _______ _______ _____ _____    ______ ____

>  <TORSDO>
F 5

$$$$
=
 OpenBabel11052420293D

 34 38  0  0  1  0  0  0  0  0999 V2000
  192.8170  173.3720  144.0760 C   0  0  2  0  0  3  0  0  0  0  0  0
  191.3980  171.4390  140.9520 C   0  0  0  0  0  2  0  0  0  0  0  0
  193.1320  170.6490  142.7730 C   0  0  0  0  0  2  0  0  0  0  0  0
  194.3330  172.2580  145.7760 N   0  0  0  0  0  2  0  0  0  0  0  0
  195.2680  171.1440  145.6620 C   0  0  0  0  0  2  0  0  0  0  0  0
  194.1490  171.3620  143.5730 N   0  0  1  0  0  0  0  0  0  0  0  0
  193.4420  172.0830  144.6300 C   0  0  2  0  0  3  0  0  0  0  0  0
  194.9810  170.4490  144.3340 C   0  0  0  0  0  2  0  0  0  0  0  0
  190.1580  172.3290  140.7770 C   0  0  0  0  0  2  0  0  0  0  0  0
  189.4660  172.5970  142.1380 C   0  0  1  0  0  3  0  0  0  0  0  0
  189.9490  172.9980  144.5730 C   0  0  0  0  0  1  0  0  0  0  0  0
  191.9590  171.5690  142.3700 C   0  0  1  0  0  3  0  0  0  0  0  0
  190.3820  173.3430  143.1510 C   0  0  1  0  0  3  0  0  0  0  0  0
  191.8740  173.0190  142.8980 C   0  0  1  0  0  3  0  0  0  0  0  0
  188.0700  173.2150  141.9990 C   0  0  1  0  0  3  0  0  0  0  0  0
  188.1030  174.7360  142.0350 C   0  0  0  0  0  1  0  0  0  0  0  0
  187.4500  172.7840  140.8160 O   0  0  0  0  0  1  0  0  0  0  0  0
  193.7540  174.5480  143.7090 C   0  0  1  0  0  3  0  0  0  0  0  0
  194.9430  174.0520  142.9020 C   0  0  0  0  0  1  0  0  0  0  0  0
  192.9580  176.0200  142.9390 S   0  0  0  0  0  0  0  0  0  0  0  0
  191.8970  175.4940  146.9100 C   0  0  0  0  0  2  0  0  0  0  0  0
  192.6950  177.0490  144.4660 C   0  0  1  0  0  3  0  0  0  0  0  0
  188.5540  176.7980  145.7030 C   0  0  0  0  0  0  0  0  0  0  0  0
  189.5360  176.1230  146.4340 C   0  0  0  0  0  3  0  0  0  0  0  0
  190.8930  176.2170  146.0700 C   0  0  0  0  0  0  0  0  0  0  0  0
  194.8420  177.2030  145.5130 O   0  0  0  0  0  0  0  0  0  0  0  0
  190.2730  177.6520  144.2170 C   0  0  0  0  0  3  0  0  0  0  0  0
  191.2640  176.9670  144.9290 C   0  0  0  0  0  0  0  0  0  0  0  0
  188.9310  177.5850  144.6110 C   0  0  0  0  0  3  0  0  0  0  0  0
  193.6510  176.7940  145.6010 C   0  0  0  0  0  0  0  0  0  0  0  0
  193.2320  176.0910  146.7820 N   0  0  0  0  0  2  0  0  0  0  0  0
  187.1370  176.6530  146.0700 C   0  0  0  0  0  0  0  0  0  0  0  0
  186.1490  176.6990  145.0840 O   0  0  0  0  0  0  0  0  0  0  0  0
  186.8200  176.5100  147.2820 O   0  0  0  0  0  1  0  0  0  0  0  0
  1 18  1  6  0  0  0
  1  7  1  0  0  0  0
  5  4  1  0  0  0  0
  6  3  1  6  0  0  0
  6  8  1  0  0  0  0
  6  7  1  0  0  0  0
  7  4  1  1  0  0  0
  8  5  1  0  0  0  0
  9  2  1  0  0  0  0
  9 10  1  0  0  0  0
 10 15  1  6  0  0  0
 10 13  1  0  0  0  0
 12  2  1  6  0  0  0
 12  3  1  0  0  0  0
 12 14  1  0  0  0  0
 13 11  1  1  0  0  0
 14 13  1  0  0  0  0
 14  1  1  0  0  0  0
 15 16  1  0  0  0  0
 17 15  1  0  0  0  0
 19 18  1  0  0  0  0
 20 18  1  0  0  0  0
 20 22  1  0  0  0  0
 22 28  1  0  0  0  0
 22 30  1  0  0  0  0
 23 32  1  0  0  0  0
 23 24  1  0  0  0  0
 25 24  2  0  0  0  0
 25 21  1  0  0  0  0
 26 30  2  0  0  0  0
 27 29  1  0  0  0  0
 27 28  2  0  0  0  0
 28 25  1  0  0  0  0
 29 23  2  0  0  0  0
 30 31  1  0  0  0  0
 31 21  1  0  0  0  0
 32 34  1  0  0  0  0
 33 32  2  0  0  0  0
M  END
>  <MODEL>
8

>  <REMARK>
 VINA RESULT:      -6.8      3.064      6.660
  Name = 
  5 active torsions:
  status: ('A' for Active; 'I' for Inactive)
    1  A    between atoms: C_1  and  C_8
    2  A    between atoms: C_3  and  C_25
    3  A    between atoms: C_6  and  S_17
    4  A    between atoms: C_7  and  C_11
    5  A    between atoms: C_8  and  S_17
                            x       y       z     vdW  Elec       q    Type
                         _______ _______ _______ _____ _____    ______ ____

>  <TORSDO>
F 5

$$$$
=
 OpenBabel11052420293D

 34 38  0  0  1  0  0  0  0  0999 V2000
  189.3650  176.0230  144.0090 C   0  0  2  0  0  3  0  0  0  0  0  0
  185.6780  177.3930  143.7970 C   0  0  0  0  0  2  0  0  0  0  0  0
  186.7740  175.3230  142.5880 C   0  0  0  0  0  2  0  0  0  0  0  0
  190.0680  173.8670  142.8750 N   0  0  0  0  0  2  0  0  0  0  0  0
  189.5590  173.1790  141.6930 C   0  0  0  0  0  2  0  0  0  0  0  0
  188.1430  175.0460  142.1060 N   0  0  1  0  0  0  0  0  0  0  0  0
  188.9610  174.7340  143.2750 C   0  0  2  0  0  3  0  0  0  0  0  0
  188.2130  173.8110  141.3480 C   0  0  0  0  0  2  0  0  0  0  0  0
  185.7420  178.1960  145.1050 C   0  0  0  0  0  2  0  0  0  0  0  0
  186.3960  177.3650  146.2390 C   0  0  1  0  0  3  0  0  0  0  0  0
  188.2000  175.6690  146.6800 C   0  0  0  0  0  1  0  0  0  0  0  0
  186.7650  176.3160  143.7710 C   0  0  1  0  0  3  0  0  0  0  0  0
  187.8630  176.9520  145.9240 C   0  0  1  0  0  3  0  0  0  0  0  0
  188.0880  176.8100  144.4000 C   0  0  1  0  0  3  0  0  0  0  0  0
  186.2150  177.9850  147.6290 C   0  0  1  0  0  3  0  0  0  0  0  0
  187.3360  178.9530  147.9820 C   0  0  0  0  0  1  0  0  0  0  0  0
  184.9780  178.6400  147.7260 O   0  0  0  0  0  1  0  0  0  0  0  0
  190.4130  176.9500  143.3500 C   0  0  1  0  0  3  0  0  0  0  0  0
  189.7390  178.1650  142.7310 C   0  0  0  0  0  1  0  0  0  0  0  0
  191.8630  177.4150  144.3870 S   0  0  0  0  0  0  0  0  0  0  0  0
  195.6170  175.8210  145.1220 C   0  0  0  0  0  2  0  0  0  0  0  0
  192.6720  175.7460  144.5310 C   0  0  1  0  0  3  0  0  0  0  0  0
  195.5980  175.2650  141.3770 C   0  0  0  0  0  0  0  0  0  0  0  0
  196.0260  175.4870  142.6880 C   0  0  0  0  0  3  0  0  0  0  0  0
  195.0940  175.6130  143.7360 C   0  0  0  0  0  0  0  0  0  0  0  0
  192.4340  175.1130  146.8260 O   0  0  0  0  0  0  0  0  0  0  0  0
  193.2940  175.3170  142.1380 C   0  0  0  0  0  3  0  0  0  0  0  0
  193.7080  175.5570  143.4540 C   0  0  0  0  0  0  0  0  0  0  0  0
  194.2290  175.1520  141.1110 C   0  0  0  0  0  3  0  0  0  0  0  0
  193.2260  175.4000  145.8880 C   0  0  0  0  0  0  0  0  0  0  0  0
  194.6420  175.3940  146.1320 N   0  0  0  0  0  2  0  0  0  0  0  0
  196.5840  175.1800  140.2880 C   0  0  0  0  0  0  0  0  0  0  0  0
  197.9380  175.0050  140.5810 O   0  0  0  0  0  1  0  0  0  0  0  0
  196.2000  175.2890  139.0920 O   0  0  0  0  0  0  0  0  0  0  0  0
  1 18  1  6  0  0  0
  1 14  1  0  0  0  0
  2  9  1  0  0  0  0
  5  4  1  0  0  0  0
  6  8  1  6  0  0  0
  6  3  1  0  0  0  0
  6  7  1  0  0  0  0
  7  4  1  6  0  0  0
  7  1  1  0  0  0  0
  8  5  1  0  0  0  0
  9 10  1  0  0  0  0
 10 15  1  1  0  0  0
 12  3  1  6  0  0  0
 12  2  1  0  0  0  0
 12 14  1  0  0  0  0
 13 10  1  0  0  0  0
 13 11  1  1  0  0  0
 14 13  1  0  0  0  0
 15 17  1  0  0  0  0
 15 16  1  0  0  0  0
 18 20  1  0  0  0  0
 19 18  1  0  0  0  0
 20 22  1  0  0  0  0
 21 31  1  0  0  0  0
 22 30  1  0  0  0  0
 23 24  1  0  0  0  0
 24 25  2  0  0  0  0
 25 21  1  0  0  0  0
 27 28  2  0  0  0  0
 28 25  1  0  0  0  0
 28 22  1  0  0  0  0
 29 23  2  0  0  0  0
 29 27  1  0  0  0  0
 30 31  1  0  0  0  0
 30 26  2  0  0  0  0
 32 33  1  0  0  0  0
 32 23  1  0  0  0  0
 34 32  2  0  0  0  0
M  END
>  <MODEL>
9

>  <REMARK>
 VINA RESULT:      -6.8      3.659      6.188
  Name = 
  5 active torsions:
  status: ('A' for Active; 'I' for Inactive)
    1  A    between atoms: C_1  and  C_8
    2  A    between atoms: C_3  and  C_25
    3  A    between atoms: C_6  and  S_17
    4  A    between atoms: C_7  and  C_11
    5  A    between atoms: C_8  and  S_17
                            x       y       z     vdW  Elec       q    Type
                         _______ _______ _______ _____ _____    ______ ____

>  <TORSDO>
F 5

$$$$
