=
 OpenBabel11052421173D

 43 48  0  0  1  0  0  0  0  0999 V2000
  190.9500  170.7760  142.4440 C   0  0  0  0  0  0  0  0  0  0  0  0
  188.5110  175.1540  141.9570 N   0  0  2  0  0  0  0  0  0  0  0  0
  190.5290  177.2470  142.7210 C   0  0  1  0  0  3  0  0  0  0  0  0
  189.6830  172.6020  141.6030 C   0  0  0  0  0  0  0  0  0  0  0  0
  191.4480  171.5650  143.4830 C   0  0  0  0  0  3  0  0  0  0  0  0
  191.3450  169.4130  142.3360 N   0  0  0  0  0  1  0  0  0  0  0  0
  190.1520  173.4260  142.6440 C   0  0  0  0  0  0  0  0  0  0  0  0
  190.0810  171.3030  141.5390 N   0  0  0  0  0  0  0  0  0  0  0  0
  191.0460  172.8970  143.5790 C   0  0  0  0  0  3  0  0  0  0  0  0
  190.8770  175.8040  142.3380 C   0  0  0  0  0  2  0  0  0  0  0  0
  189.7370  174.8700  142.7340 C   0  0  1  0  0  3  0  0  0  0  0  0
  188.6510  174.6350  140.5940 C   0  0  0  0  0  2  0  0  0  0  0  0
  188.2010  176.5940  141.8420 C   0  0  2  0  0  3  0  0  0  0  0  0
  189.0170  177.5090  142.7720 C   0  0  0  0  0  2  0  0  0  0  0  0
  188.6720  173.1100  140.6200 C   0  0  0  0  0  2  0  0  0  0  0  0
  191.1620  177.6340  144.0600 C   0  0  2  0  0  3  0  0  0  0  0  0
  191.3360  179.0170  144.1250 O   0  0  0  0  0  1  0  0  0  0  0  0
  193.7770  174.9920  144.9180 N   0  0  0  0  0  2  0  0  0  0  0  0
  192.4490  176.9710  144.2310 N   0  0  0  0  0  2  0  0  0  0  0  0
  192.6060  175.8010  145.0390 C   0  0  0  0  0  0  0  0  0  0  0  0
  191.7110  175.4750  145.8610 O   0  0  0  0  0  0  0  0  0  0  0  0
  194.7720  175.2130  143.8780 C   0  0  1  0  0  3  0  0  0  0  0  0
  196.5850  174.3650  141.8200 O   0  0  0  0  0  0  0  0  0  0  0  0
  196.1460  174.6020  144.2060 C   0  0  2  0  0  3  0  0  0  0  0  0
  194.2630  174.7110  142.5320 C   0  0  0  0  0  2  0  0  0  0  0  0
  195.3370  174.9320  141.4600 C   0  0  1  0  0  3  0  0  0  0  0  0
  197.0550  174.9520  143.0180 C   0  0  0  0  0  2  0  0  0  0  0  0
  195.4540  176.3930  141.0410 C   0  0  0  0  0  1  0  0  0  0  0  0
  196.1090  173.0790  144.4590 C   0  0  0  0  0  3  0  0  0  0  0  0
  196.4770  170.6670  146.1090 C   0  0  0  0  0  2  0  0  0  0  0  0
  195.0890  171.2180  145.8000 C   0  0  0  0  0  2  0  0  0  0  0  0
  197.4470  171.0190  144.9850 C   0  0  0  0  0  2  0  0  0  0  0  0
  195.1550  172.7300  145.6050 C   0  0  0  0  0  2  0  0  0  0  0  0
  197.5020  172.5320  144.7970 C   0  0  0  0  0  2  0  0  0  0  0  0
  186.7030  176.8320  142.0540 C   0  0  0  0  0  2  0  0  0  0  0  0
  186.6780  177.1530  145.9060 C   0  0  0  0  0  2  0  0  0  0  0  0
  185.9620  178.4800  146.0070 C   0  0  0  0  0  0  0  0  0  0  0  0
  186.0620  178.6620  143.5720 C   0  0  0  0  0  3  0  0  0  0  0  0
  186.3510  176.4340  144.5930 C   0  0  0  0  0  2  0  0  0  0  0  0
  186.3920  177.3740  143.4170 C   0  0  0  0  0  0  0  0  0  0  0  0
  185.7400  179.2010  144.9050 C   0  0  0  0  0  3  0  0  0  0  0  0
  185.6110  179.0590  147.3090 C   0  0  0  0  0  3  0  0  0  0  0  0
  186.5300  179.4590  148.1800 C   0  0  0  0  0  2  0  0  0  0  0  0
  1  5  1  0  0  0  0
  2 12  1  6  0  0  0
  2 11  1  0  0  0  0
  3 14  1  0  0  0  0
  3 16  1  1  0  0  0
  4  7  2  0  0  0  0
  5  9  2  0  0  0  0
  6  1  1  0  0  0  0
  7 11  1  0  0  0  0
  7  9  1  0  0  0  0
  8  4  1  0  0  0  0
  8  1  2  0  0  0  0
 10  3  1  0  0  0  0
 11 10  1  6  0  0  0
 12 15  1  0  0  0  0
 13  2  1  0  0  0  0
 13 35  1  1  0  0  0
 13 14  1  0  0  0  0
 15  4  1  0  0  0  0
 16 17  1  6  0  0  0
 16 19  1  0  0  0  0
 18 20  1  0  0  0  0
 19 20  1  0  0  0  0
 20 21  2  0  0  0  0
 22 24  1  0  0  0  0
 22 18  1  1  0  0  0
 23 27  1  0  0  0  0
 24 29  1  6  0  0  0
 25 22  1  0  0  0  0
 26 28  1  1  0  0  0
 26 23  1  0  0  0  0
 26 25  1  0  0  0  0
 27 24  1  0  0  0  0
 29 34  1  0  0  0  0
 29 33  1  0  0  0  0
 31 30  1  0  0  0  0
 32 30  1  0  0  0  0
 33 31  1  0  0  0  0
 34 32  1  0  0  0  0
 35 40  1  0  0  0  0
 36 37  1  0  0  0  0
 37 42  1  0  0  0  0
 38 41  1  0  0  0  0
 39 36  1  0  0  0  0
 40 38  2  0  0  0  0
 40 39  1  0  0  0  0
 41 37  2  0  0  0  0
 42 43  2  0  0  0  0
M  END
>  <MODEL>
1

>  <REMARK>
 VINA RESULT:      -8.5      0.000      0.000
  Name = 
  7 active torsions:
  status: ('A' for Active; 'I' for Inactive)
    1  A    between atoms: C_1  and  C_34
    2  A    between atoms: C_1  and  C_35
    3  A    between atoms: C_2  and  N_6
    4  A    between atoms: C_2  and  C_13
    5  A    between atoms: N_3  and  C_4
    6  A    between atoms: C_11  and  C_14
    7  A    between atoms: C_19  and  C_25
                            x       y       z     vdW  Elec       q    Type
                         _______ _______ _______ _____ _____    ______ ____

>  <TORSDO>
F 7

$$$$
=
 OpenBabel11052421173D

 43 48  0  0  1  0  0  0  0  0999 V2000
  195.7750  176.3400  142.9090 C   0  0  0  0  0  0  0  0  0  0  0  0
  191.7810  175.4740  145.8490 N   0  0  2  0  0  0  0  0  0  0  0  0
  190.3950  173.1220  144.5900 C   0  0  1  0  0  3  0  0  0  0  0  0
  194.3600  175.9130  144.7690 C   0  0  0  0  0  0  0  0  0  0  0  0
  194.7750  175.9370  142.0210 C   0  0  0  0  0  3  0  0  0  0  0  0
  197.0340  176.7750  142.4080 N   0  0  0  0  0  1  0  0  0  0  0  0
  193.3220  175.5120  143.9060 C   0  0  0  0  0  0  0  0  0  0  0  0
  195.5470  176.3280  144.2500 N   0  0  0  0  0  0  0  0  0  0  0  0
  193.5440  175.5200  142.5270 C   0  0  0  0  0  3  0  0  0  0  0  0
  191.8450  173.5290  144.3070 C   0  0  0  0  0  2  0  0  0  0  0  0
  192.0010  175.0400  144.4520 C   0  0  1  0  0  3  0  0  0  0  0  0
  192.9460  175.1340  146.6680 C   0  0  0  0  0  2  0  0  0  0  0  0
  190.6050  174.8470  146.4870 C   0  0  2  0  0  3  0  0  0  0  0  0
  189.6660  174.0990  145.5230 C   0  0  0  0  0  2  0  0  0  0  0  0
  194.1410  175.9850  146.2500 C   0  0  0  0  0  2  0  0  0  0  0  0
  189.5990  172.9630  143.2920 C   0  0  2  0  0  3  0  0  0  0  0  0
  188.6460  171.9550  143.4350 O   0  0  0  0  0  1  0  0  0  0  0  0
  191.5830  173.2770  140.0480 N   0  0  0  0  0  2  0  0  0  0  0  0
  190.4870  172.6420  142.1810 N   0  0  0  0  0  2  0  0  0  0  0  0
  190.4940  173.3950  140.9650 C   0  0  0  0  0  0  0  0  0  0  0  0
  189.5390  174.1700  140.6940 O   0  0  0  0  0  0  0  0  0  0  0  0
  192.7920  172.5320  140.3690 C   0  0  1  0  0  3  0  0  0  0  0  0
  194.9180  170.6900  139.7910 O   0  0  0  0  0  0  0  0  0  0  0  0
  192.5800  171.0080  140.4070 C   0  0  2  0  0  3  0  0  0  0  0  0
  193.9190  172.8980  139.4110 C   0  0  0  0  0  2  0  0  0  0  0  0
  195.1730  172.0840  139.7530 C   0  0  1  0  0  3  0  0  0  0  0  0
  193.9440  170.4030  140.7760 C   0  0  0  0  0  2  0  0  0  0  0  0
  195.8730  172.5870  141.0090 C   0  0  0  0  0  1  0  0  0  0  0  0
  192.0410  170.4180  139.0850 C   0  0  0  0  0  3  0  0  0  0  0  0
  190.6530  168.3790  137.4760 C   0  0  0  0  0  2  0  0  0  0  0  0
  190.0010  169.7200  137.7980 C   0  0  0  0  0  2  0  0  0  0  0  0
  192.1710  168.5240  137.4400 C   0  0  0  0  0  2  0  0  0  0  0  0
  190.5200  170.2480  139.1330 C   0  0  0  0  0  2  0  0  0  0  0  0
  192.6770  169.0570  138.7770 C   0  0  0  0  0  2  0  0  0  0  0  0
  189.8150  175.8910  147.2830 C   0  0  0  0  0  2  0  0  0  0  0  0
  188.1800  177.6660  144.2640 C   0  0  0  0  0  2  0  0  0  0  0  0
  186.7700  177.7450  144.7990 C   0  0  0  0  0  0  0  0  0  0  0  0
  187.4750  176.4060  146.7170 C   0  0  0  0  0  3  0  0  0  0  0  0
  189.2080  177.5630  145.3960 C   0  0  0  0  0  2  0  0  0  0  0  0
  188.7750  176.5840  146.4550 C   0  0  0  0  0  0  0  0  0  0  0  0
  186.4460  177.0940  145.9190 C   0  0  0  0  0  3  0  0  0  0  0  0
  185.7070  178.4250  144.0480 C   0  0  0  0  0  3  0  0  0  0  0  0
  185.4980  179.7330  144.1380 C   0  0  0  0  0  2  0  0  0  0  0  0
  1  8  1  0  0  0  0
  2 13  1  0  0  0  0
  2 12  1  1  0  0  0
  3 16  1  6  0  0  0
  3 14  1  0  0  0  0
  4 15  1  0  0  0  0
  5  9  1  0  0  0  0
  5  1  2  0  0  0  0
  6  1  1  0  0  0  0
  7 11  1  0  0  0  0
  7  4  1  0  0  0  0
  8  4  2  0  0  0  0
  9  7  2  0  0  0  0
 10  3  1  0  0  0  0
 11 10  1  1  0  0  0
 11  2  1  0  0  0  0
 13 35  1  6  0  0  0
 14 13  1  0  0  0  0
 15 12  1  0  0  0  0
 16 17  1  1  0  0  0
 18 20  1  0  0  0  0
 19 16  1  0  0  0  0
 20 19  1  0  0  0  0
 21 20  2  0  0  0  0
 22 18  1  6  0  0  0
 22 24  1  0  0  0  0
 23 27  1  0  0  0  0
 24 29  1  6  0  0  0
 24 27  1  0  0  0  0
 25 26  1  0  0  0  0
 25 22  1  0  0  0  0
 26 23  1  0  0  0  0
 26 28  1  1  0  0  0
 29 33  1  0  0  0  0
 30 31  1  0  0  0  0
 31 33  1  0  0  0  0
 32 30  1  0  0  0  0
 32 34  1  0  0  0  0
 34 29  1  0  0  0  0
 36 37  1  0  0  0  0
 36 39  1  0  0  0  0
 37 41  2  0  0  0  0
 39 40  1  0  0  0  0
 40 38  2  0  0  0  0
 40 35  1  0  0  0  0
 41 38  1  0  0  0  0
 42 43  2  0  0  0  0
 42 37  1  0  0  0  0
M  END
>  <MODEL>
2

>  <REMARK>
 VINA RESULT:      -8.3      2.953      5.948
  Name = 
  7 active torsions:
  status: ('A' for Active; 'I' for Inactive)
    1  A    between atoms: C_1  and  C_34
    2  A    between atoms: C_1  and  C_35
    3  A    between atoms: C_2  and  N_6
    4  A    between atoms: C_2  and  C_13
    5  A    between atoms: N_3  and  C_4
    6  A    between atoms: C_11  and  C_14
    7  A    between atoms: C_19  and  C_25
                            x       y       z     vdW  Elec       q    Type
                         _______ _______ _______ _____ _____    ______ ____

>  <TORSDO>
F 7

$$$$
=
 OpenBabel11052421173D

 43 48  0  0  1  0  0  0  0  0999 V2000
  195.9490  176.3460  143.2000 C   0  0  0  0  0  0  0  0  0  0  0  0
  191.7670  175.4250  145.8500 N   0  0  2  0  0  0  0  0  0  0  0  0
  190.3920  173.2020  144.3670 C   0  0  1  0  0  3  0  0  0  0  0  0
  194.4160  175.8490  144.9470 C   0  0  0  0  0  0  0  0  0  0  0  0
  194.9910  176.0310  142.2340 C   0  0  0  0  0  3  0  0  0  0  0  0
  197.2470  176.7710  142.8000 N   0  0  0  0  0  1  0  0  0  0  0  0
  193.4190  175.5360  144.0030 C   0  0  0  0  0  0  0  0  0  0  0  0
  195.6430  176.2570  144.5230 N   0  0  0  0  0  0  0  0  0  0  0  0
  193.7210  175.6220  142.6420 C   0  0  0  0  0  3  0  0  0  0  0  0
  191.8660  173.5790  144.1930 C   0  0  0  0  0  2  0  0  0  0  0  0
  192.0560  175.0730  144.4430 C   0  0  1  0  0  3  0  0  0  0  0  0
  192.8730  174.9970  146.7100 C   0  0  0  0  0  2  0  0  0  0  0  0
  190.5390  174.7970  146.3800 C   0  0  2  0  0  3  0  0  0  0  0  0
  189.6370  174.1410  145.3190 C   0  0  0  0  0  2  0  0  0  0  0  0
  194.1130  175.8350  146.4150 C   0  0  0  0  0  2  0  0  0  0  0  0
  189.6680  173.1490  143.0180 C   0  0  2  0  0  3  0  0  0  0  0  0
  188.6580  172.1880  143.0540 O   0  0  0  0  0  1  0  0  0  0  0  0
  191.4930  171.2460  140.2610 N   0  0  0  0  0  2  0  0  0  0  0  0
  190.6030  172.8350  141.9450 N   0  0  0  0  0  2  0  0  0  0  0  0
  190.8480  171.4950  141.5110 C   0  0  0  0  0  0  0  0  0  0  0  0
  190.4940  170.5220  142.2290 O   0  0  0  0  0  0  0  0  0  0  0  0
  191.7790  172.3090  139.3090 C   0  0  1  0  0  3  0  0  0  0  0  0
  193.4420  173.7260  137.4450 O   0  0  0  0  0  0  0  0  0  0  0  0
  192.8900  173.2670  139.7750 C   0  0  2  0  0  3  0  0  0  0  0  0
  192.1050  171.7290  137.9370 C   0  0  0  0  0  2  0  0  0  0  0  0
  192.4260  172.8650  136.9590 C   0  0  1  0  0  3  0  0  0  0  0  0
  193.0330  174.3170  138.6630 C   0  0  0  0  0  2  0  0  0  0  0  0
  191.1800  173.6220  136.5110 C   0  0  0  0  0  1  0  0  0  0  0  0
  194.2360  172.5680  140.0670 C   0  0  0  0  0  3  0  0  0  0  0  0
  196.8660  172.3440  141.3750 C   0  0  0  0  0  2  0  0  0  0  0  0
  195.6830  171.4860  141.8110 C   0  0  0  0  0  2  0  0  0  0  0  0
  196.7390  172.7070  139.8980 C   0  0  0  0  0  2  0  0  0  0  0  0
  194.3740  172.2280  141.5540 C   0  0  0  0  0  2  0  0  0  0  0  0
  195.4250  173.4440  139.6530 C   0  0  0  0  0  2  0  0  0  0  0  0
  189.7340  175.8140  147.1950 C   0  0  0  0  0  2  0  0  0  0  0  0
  188.0900  177.6310  144.2060 C   0  0  0  0  0  2  0  0  0  0  0  0
  186.6790  177.6900  144.7400 C   0  0  0  0  0  0  0  0  0  0  0  0
  187.3910  176.3210  146.6350 C   0  0  0  0  0  3  0  0  0  0  0  0
  189.1170  177.5150  145.3370 C   0  0  0  0  0  2  0  0  0  0  0  0
  188.6900  176.5140  146.3780 C   0  0  0  0  0  0  0  0  0  0  0  0
  186.3580  177.0160  145.8480 C   0  0  0  0  0  3  0  0  0  0  0  0
  185.6120  178.3750  144.0000 C   0  0  0  0  0  3  0  0  0  0  0  0
  185.5880  179.6940  143.8450 C   0  0  0  0  0  2  0  0  0  0  0  0
  1  8  1  0  0  0  0
  2 13  1  0  0  0  0
  2 12  1  1  0  0  0
  3 16  1  6  0  0  0
  3 14  1  0  0  0  0
  4 15  1  0  0  0  0
  5  9  1  0  0  0  0
  5  1  2  0  0  0  0
  6  1  1  0  0  0  0
  7 11  1  0  0  0  0
  7  4  1  0  0  0  0
  8  4  2  0  0  0  0
  9  7  2  0  0  0  0
 10  3  1  0  0  0  0
 11 10  1  1  0  0  0
 11  2  1  0  0  0  0
 13 35  1  6  0  0  0
 14 13  1  0  0  0  0
 15 12  1  0  0  0  0
 16 17  1  1  0  0  0
 18 20  1  0  0  0  0
 19 16  1  0  0  0  0
 20 19  1  0  0  0  0
 20 21  2  0  0  0  0
 22 24  1  0  0  0  0
 22 18  1  1  0  0  0
 23 27  1  0  0  0  0
 24 29  1  6  0  0  0
 25 22  1  0  0  0  0
 26 28  1  1  0  0  0
 26 23  1  0  0  0  0
 26 25  1  0  0  0  0
 27 24  1  0  0  0  0
 29 33  1  0  0  0  0
 30 31  1  0  0  0  0
 32 30  1  0  0  0  0
 33 31  1  0  0  0  0
 34 32  1  0  0  0  0
 34 29  1  0  0  0  0
 36 37  1  0  0  0  0
 36 39  1  0  0  0  0
 37 41  2  0  0  0  0
 39 40  1  0  0  0  0
 40 38  2  0  0  0  0
 40 35  1  0  0  0  0
 41 38  1  0  0  0  0
 42 37  1  0  0  0  0
 43 42  2  0  0  0  0
M  END
>  <MODEL>
3

>  <REMARK>
 VINA RESULT:      -8.0      2.880      5.477
  Name = 
  7 active torsions:
  status: ('A' for Active; 'I' for Inactive)
    1  A    between atoms: C_1  and  C_34
    2  A    between atoms: C_1  and  C_35
    3  A    between atoms: C_2  and  N_6
    4  A    between atoms: C_2  and  C_13
    5  A    between atoms: N_3  and  C_4
    6  A    between atoms: C_11  and  C_14
    7  A    between atoms: C_19  and  C_25
                            x       y       z     vdW  Elec       q    Type
                         _______ _______ _______ _____ _____    ______ ____

>  <TORSDO>
F 7

$$$$
=
 OpenBabel11052421173D

 43 48  0  0  1  0  0  0  0  0999 V2000
  187.0960  177.4760  141.3430 C   0  0  0  0  0  0  0  0  0  0  0  0
  189.8970  173.5070  142.6650 N   0  0  2  0  0  0  0  0  0  0  0  0
  190.7690  174.0860  145.4830 C   0  0  1  0  0  3  0  0  0  0  0  0
  187.8710  175.2730  141.7770 C   0  0  0  0  0  0  0  0  0  0  0  0
  188.1030  178.0180  142.1440 C   0  0  0  0  0  3  0  0  0  0  0  0
  186.1660  178.3370  140.6960 N   0  0  0  0  0  1  0  0  0  0  0  0
  188.9080  175.7800  142.5820 C   0  0  0  0  0  0  0  0  0  0  0  0
  187.0060  176.1300  141.1710 N   0  0  0  0  0  0  0  0  0  0  0  0
  189.0110  177.1610  142.7670 C   0  0  0  0  0  3  0  0  0  0  0  0
  189.6050  174.7860  144.7730 C   0  0  0  0  0  2  0  0  0  0  0  0
  189.8740  174.8550  143.2730 C   0  0  1  0  0  3  0  0  0  0  0  0
  188.5310  172.9930  142.5380 C   0  0  0  0  0  2  0  0  0  0  0  0
  190.6620  172.5150  143.4480 C   0  0  2  0  0  3  0  0  0  0  0  0
  191.5270  173.1070  144.5760 C   0  0  0  0  0  2  0  0  0  0  0  0
  187.7660  173.8040  141.4980 C   0  0  0  0  0  2  0  0  0  0  0  0
  191.7500  175.1020  146.0750 C   0  0  2  0  0  3  0  0  0  0  0  0
  191.4110  176.3910  145.6620 O   0  0  0  0  0  1  0  0  0  0  0  0
  195.5620  174.9800  146.0210 N   0  0  0  0  0  2  0  0  0  0  0  0
  193.1140  174.7990  145.6620 N   0  0  0  0  0  2  0  0  0  0  0  0
  194.2450  175.5090  146.1770 C   0  0  0  0  0  0  0  0  0  0  0  0
  194.0860  176.6060  146.7730 O   0  0  0  0  0  0  0  0  0  0  0  0
  195.8070  173.6450  145.4920 C   0  0  1  0  0  3  0  0  0  0  0  0
  197.1630  171.7370  143.8290 O   0  0  0  0  0  0  0  0  0  0  0  0
  195.5050  173.5180  143.9880 C   0  0  2  0  0  3  0  0  0  0  0  0
  197.2320  173.1980  145.7980 C   0  0  0  0  0  2  0  0  0  0  0  0
  197.4720  171.8030  145.2110 C   0  0  1  0  0  3  0  0  0  0  0  0
  195.8010  172.0550  143.6220 C   0  0  0  0  0  2  0  0  0  0  0  0
  196.7930  170.7030  146.0170 C   0  0  0  0  0  1  0  0  0  0  0  0
  196.3130  174.4940  143.1040 C   0  0  0  0  0  3  0  0  0  0  0  0
  196.8090  176.0300  140.6400 C   0  0  0  0  0  2  0  0  0  0  0  0
  196.3180  176.7060  141.9160 C   0  0  0  0  0  2  0  0  0  0  0  0
  197.6250  174.7870  140.9810 C   0  0  0  0  0  2  0  0  0  0  0  0
  195.4840  175.7290  142.7400 C   0  0  0  0  0  2  0  0  0  0  0  0
  196.7820  173.8200  141.8080 C   0  0  0  0  0  2  0  0  0  0  0  0
  191.5270  171.6590  142.5180 C   0  0  0  0  0  2  0  0  0  0  0  0
  191.4250  173.3340  139.0360 C   0  0  0  0  0  2  0  0  0  0  0  0
  192.7890  173.9820  139.0700 C   0  0  0  0  0  0  0  0  0  0  0  0
  193.0220  173.2580  141.3910 C   0  0  0  0  0  3  0  0  0  0  0  0
  191.3530  172.1230  139.9720 C   0  0  0  0  0  2  0  0  0  0  0  0
  191.9900  172.4100  141.3070 C   0  0  0  0  0  0  0  0  0  0  0  0
  193.4950  173.9890  140.2030 C   0  0  0  0  0  3  0  0  0  0  0  0
  193.3120  174.7160  137.9110 C   0  0  0  0  0  3  0  0  0  0  0  0
  194.6050  174.9780  137.7590 C   0  0  0  0  0  2  0  0  0  0  0  0
  1  5  1  0  0  0  0
  2 12  1  1  0  0  0
  2 11  1  0  0  0  0
  2 13  1  0  0  0  0
  3 16  1  6  0  0  0
  4  7  2  0  0  0  0
  5  9  2  0  0  0  0
  6  1  1  0  0  0  0
  7  9  1  0  0  0  0
  7 11  1  0  0  0  0
  8  1  2  0  0  0  0
  8  4  1  0  0  0  0
 10  3  1  0  0  0  0
 11 10  1  1  0  0  0
 13 35  1  6  0  0  0
 13 14  1  0  0  0  0
 14  3  1  0  0  0  0
 15  4  1  0  0  0  0
 15 12  1  0  0  0  0
 16 17  1  6  0  0  0
 18 20  1  0  0  0  0
 19 16  1  0  0  0  0
 19 20  1  0  0  0  0
 20 21  2  0  0  0  0
 22 25  1  0  0  0  0
 22 18  1  6  0  0  0
 23 26  1  0  0  0  0
 24 29  1  6  0  0  0
 24 22  1  0  0  0  0
 26 25  1  0  0  0  0
 26 28  1  1  0  0  0
 27 23  1  0  0  0  0
 27 24  1  0  0  0  0
 30 32  1  0  0  0  0
 30 31  1  0  0  0  0
 31 33  1  0  0  0  0
 32 34  1  0  0  0  0
 33 29  1  0  0  0  0
 34 29  1  0  0  0  0
 36 37  1  0  0  0  0
 36 39  1  0  0  0  0
 37 41  2  0  0  0  0
 39 40  1  0  0  0  0
 40 38  2  0  0  0  0
 40 35  1  0  0  0  0
 41 38  1  0  0  0  0
 42 37  1  0  0  0  0
 43 42  2  0  0  0  0
M  END
>  <MODEL>
4

>  <REMARK>
 VINA RESULT:      -8.0      2.414      6.232
  Name = 
  7 active torsions:
  status: ('A' for Active; 'I' for Inactive)
    1  A    between atoms: C_1  and  C_34
    2  A    between atoms: C_1  and  C_35
    3  A    between atoms: C_2  and  N_6
    4  A    between atoms: C_2  and  C_13
    5  A    between atoms: N_3  and  C_4
    6  A    between atoms: C_11  and  C_14
    7  A    between atoms: C_19  and  C_25
                            x       y       z     vdW  Elec       q    Type
                         _______ _______ _______ _____ _____    ______ ____

>  <TORSDO>
F 7

$$$$
=
 OpenBabel11052421173D

 43 48  0  0  1  0  0  0  0  0999 V2000
  193.5110  176.7790  145.8340 C   0  0  0  0  0  0  0  0  0  0  0  0
  189.5000  175.8590  142.9330 N   0  0  2  0  0  0  0  0  0  0  0  0
  190.3460  173.5920  141.1480 C   0  0  1  0  0  3  0  0  0  0  0  0
  191.3180  176.2960  145.0570 C   0  0  0  0  0  0  0  0  0  0  0  0
  194.0550  176.4350  144.5940 C   0  0  0  0  0  3  0  0  0  0  0  0
  194.3660  177.2110  146.8870 N   0  0  0  0  0  1  0  0  0  0  0  0
  191.8260  175.9540  143.7900 C   0  0  0  0  0  0  0  0  0  0  0  0
  192.1680  176.7100  146.0360 N   0  0  0  0  0  0  0  0  0  0  0  0
  193.2040  176.0180  143.5700 C   0  0  0  0  0  3  0  0  0  0  0  0
  191.0540  173.9830  142.4490 C   0  0  0  0  0  2  0  0  0  0  0  0
  190.9110  175.4830  142.6920 C   0  0  1  0  0  3  0  0  0  0  0  0
  189.1010  175.4600  144.2840 C   0  0  0  0  0  2  0  0  0  0  0  0
  188.5490  175.2270  141.9950 C   0  0  2  0  0  3  0  0  0  0  0  0
  189.1960  174.5400  140.7790 C   0  0  0  0  0  2  0  0  0  0  0  0
  189.8410  176.3060  145.3150 C   0  0  0  0  0  2  0  0  0  0  0  0
  191.3340  173.5060  139.9820 C   0  0  2  0  0  3  0  0  0  0  0  0
  191.0950  172.3510  139.2360 O   0  0  0  0  0  1  0  0  0  0  0  0
  194.8530  172.3070  140.8380 N   0  0  0  0  0  2  0  0  0  0  0  0
  192.7070  173.4960  140.4710 N   0  0  0  0  0  2  0  0  0  0  0  0
  193.4320  172.2830  140.6910 C   0  0  0  0  0  0  0  0  0  0  0  0
  192.8230  171.1830  140.7540 O   0  0  0  0  0  0  0  0  0  0  0  0
  195.6380  173.5120  140.6130 C   0  0  1  0  0  3  0  0  0  0  0  0
  197.9010  175.2310  141.0210 O   0  0  0  0  0  0  0  0  0  0  0  0
  195.7710  174.3990  141.8650 C   0  0  2  0  0  3  0  0  0  0  0  0
  197.0100  173.1630  140.0490 C   0  0  0  0  0  2  0  0  0  0  0  0
  197.8260  174.4450  139.8440 C   0  0  1  0  0  3  0  0  0  0  0  0
  196.6030  175.6150  141.4310 C   0  0  0  0  0  2  0  0  0  0  0  0
  197.3640  175.2450  138.6320 C   0  0  0  0  0  1  0  0  0  0  0  0
  196.4080  173.6810  143.0740 C   0  0  0  0  0  3  0  0  0  0  0  0
  196.8120  173.2130  145.9550 C   0  0  0  0  0  2  0  0  0  0  0  0
  195.9990  172.2490  145.0960 C   0  0  0  0  0  2  0  0  0  0  0  0
  197.8680  173.9140  145.1060 C   0  0  0  0  0  2  0  0  0  0  0  0
  195.3440  173.0010  143.9400 C   0  0  0  0  0  2  0  0  0  0  0  0
  197.2020  174.6580  143.9520 C   0  0  0  0  0  2  0  0  0  0  0  0
  187.5080  176.2480  141.5280 C   0  0  0  0  0  2  0  0  0  0  0  0
  185.8620  176.7960  144.9830 C   0  0  0  0  0  2  0  0  0  0  0  0
  185.7210  178.2990  144.9180 C   0  0  0  0  0  0  0  0  0  0  0  0
  186.9700  178.2760  142.8180 C   0  0  0  0  0  3  0  0  0  0  0  0
  185.9270  176.1750  143.5830 C   0  0  0  0  0  2  0  0  0  0  0  0
  186.8370  176.9520  142.6690 C   0  0  0  0  0  0  0  0  0  0  0  0
  186.3020  178.9790  143.9270 C   0  0  0  0  0  3  0  0  0  0  0  0
  185.0580  179.0490  145.9920 C   0  0  0  0  0  3  0  0  0  0  0  0
  185.0720  178.6430  147.2560 C   0  0  0  0  0  2  0  0  0  0  0  0
  1  8  1  0  0  0  0
  1  6  1  0  0  0  0
  2 12  1  1  0  0  0
  3 16  1  6  0  0  0
  3 10  1  0  0  0  0
  4 15  1  0  0  0  0
  4  8  2  0  0  0  0
  5  1  2  0  0  0  0
  7  4  1  0  0  0  0
  9  7  2  0  0  0  0
  9  5  1  0  0  0  0
 11 10  1  1  0  0  0
 11  2  1  0  0  0  0
 11  7  1  0  0  0  0
 12 15  1  0  0  0  0
 13 35  1  6  0  0  0
 13  2  1  0  0  0  0
 14  3  1  0  0  0  0
 14 13  1  0  0  0  0
 16 17  1  1  0  0  0
 16 19  1  0  0  0  0
 19 20  1  0  0  0  0
 20 21  2  0  0  0  0
 20 18  1  0  0  0  0
 22 18  1  1  0  0  0
 22 24  1  0  0  0  0
 23 27  1  0  0  0  0
 24 29  1  1  0  0  0
 25 22  1  0  0  0  0
 26 28  1  6  0  0  0
 26 25  1  0  0  0  0
 26 23  1  0  0  0  0
 27 24  1  0  0  0  0
 29 33  1  0  0  0  0
 29 34  1  0  0  0  0
 31 30  1  0  0  0  0
 32 30  1  0  0  0  0
 33 31  1  0  0  0  0
 34 32  1  0  0  0  0
 35 40  1  0  0  0  0
 37 36  1  0  0  0  0
 37 42  1  0  0  0  0
 38 41  1  0  0  0  0
 39 36  1  0  0  0  0
 40 38  2  0  0  0  0
 40 39  1  0  0  0  0
 41 37  2  0  0  0  0
 42 43  2  0  0  0  0
M  END
>  <MODEL>
5

>  <REMARK>
 VINA RESULT:      -8.0      2.352      4.053
  Name = 
  7 active torsions:
  status: ('A' for Active; 'I' for Inactive)
    1  A    between atoms: C_1  and  C_34
    2  A    between atoms: C_1  and  C_35
    3  A    between atoms: C_2  and  N_6
    4  A    between atoms: C_2  and  C_13
    5  A    between atoms: N_3  and  C_4
    6  A    between atoms: C_11  and  C_14
    7  A    between atoms: C_19  and  C_25
                            x       y       z     vdW  Elec       q    Type
                         _______ _______ _______ _____ _____    ______ ____

>  <TORSDO>
F 7

$$$$
=
 OpenBabel11052421173D

 43 48  0  0  1  0  0  0  0  0999 V2000
  196.6450  175.8440  143.2500 C   0  0  0  0  0  0  0  0  0  0  0  0
  191.6990  175.1610  143.8940 N   0  0  2  0  0  0  0  0  0  0  0  0
  191.4100  172.2550  144.6050 C   0  0  1  0  0  3  0  0  0  0  0  0
  194.3900  176.0310  143.9760 C   0  0  0  0  0  0  0  0  0  0  0  0
  196.4080  174.5590  142.7570 C   0  0  0  0  0  3  0  0  0  0  0  0
  197.9410  176.4210  143.1310 N   0  0  0  0  0  1  0  0  0  0  0  0
  194.1080  174.7440  143.4790 C   0  0  0  0  0  0  0  0  0  0  0  0
  195.6410  176.5490  143.8370 N   0  0  0  0  0  0  0  0  0  0  0  0
  195.1320  174.0090  142.8760 C   0  0  0  0  0  3  0  0  0  0  0  0
  192.7220  173.0420  144.6860 C   0  0  0  0  0  2  0  0  0  0  0  0
  192.7370  174.1420  143.6280 C   0  0  1  0  0  3  0  0  0  0  0  0
  192.1180  176.0250  145.0000 C   0  0  0  0  0  2  0  0  0  0  0  0
  190.3870  174.5900  144.2640 C   0  0  2  0  0  3  0  0  0  0  0  0
  190.2490  173.0750  144.0260 C   0  0  0  0  0  2  0  0  0  0  0  0
  193.3060  176.8780  144.5700 C   0  0  0  0  0  2  0  0  0  0  0  0
  191.5830  170.9680  143.7930 C   0  0  2  0  0  3  0  0  0  0  0  0
  192.8730  170.4650  143.9630 O   0  0  0  0  0  1  0  0  0  0  0  0
  190.2740  170.5710  140.2320 N   0  0  0  0  0  2  0  0  0  0  0  0
  191.3380  171.2160  142.3780 N   0  0  0  0  0  2  0  0  0  0  0  0
  190.8140  170.2120  141.5050 C   0  0  0  0  0  0  0  0  0  0  0  0
  190.8240  169.0020  141.8530 O   0  0  0  0  0  0  0  0  0  0  0  0
  190.0790  171.9580  139.8330 C   0  0  1  0  0  3  0  0  0  0  0  0
  189.2020  174.0320  138.0520 O   0  0  0  0  0  0  0  0  0  0  0  0
  190.8910  172.3570  138.5880 C   0  0  2  0  0  3  0  0  0  0  0  0
  188.5980  172.2570  139.6340 C   0  0  0  0  0  2  0  0  0  0  0  0
  188.4210  173.7140  139.1910 C   0  0  1  0  0  3  0  0  0  0  0  0
  190.5740  173.8390  138.3370 C   0  0  0  0  0  2  0  0  0  0  0  0
  188.6200  174.7020  140.3350 C   0  0  0  0  0  1  0  0  0  0  0  0
  190.5860  171.4970  137.3420 C   0  0  0  0  0  3  0  0  0  0  0  0
  191.1920  170.4080  134.6730 C   0  0  0  0  0  2  0  0  0  0  0  0
  191.3100  169.5510  135.9290 C   0  0  0  0  0  2  0  0  0  0  0  0
  190.1360  171.4910  134.8700 C   0  0  0  0  0  2  0  0  0  0  0  0
  191.6600  170.4260  137.1300 C   0  0  0  0  0  2  0  0  0  0  0  0
  190.4950  172.3570  136.0750 C   0  0  0  0  0  2  0  0  0  0  0  0
  189.2620  175.3380  143.5420 C   0  0  0  0  0  2  0  0  0  0  0  0
  185.9680  176.8100  144.9300 C   0  0  0  0  0  2  0  0  0  0  0  0
  186.4380  177.1020  146.3350 C   0  0  0  0  0  0  0  0  0  0  0  0
  188.5490  175.9910  145.8070 C   0  0  0  0  0  3  0  0  0  0  0  0
  187.1370  176.7720  143.9400 C   0  0  0  0  0  2  0  0  0  0  0  0
  188.3090  176.0020  144.4900 C   0  0  0  0  0  0  0  0  0  0  0  0
  187.6270  176.6540  146.7450 C   0  0  0  0  0  3  0  0  0  0  0  0
  185.5630  177.7660  147.3090 C   0  0  0  0  0  3  0  0  0  0  0  0
  184.3710  178.2510  146.9790 C   0  0  0  0  0  2  0  0  0  0  0  0
  1  8  1  0  0  0  0
  2 13  1  0  0  0  0
  2 12  1  1  0  0  0
  3 16  1  6  0  0  0
  3 10  1  0  0  0  0
  4 15  1  0  0  0  0
  5  9  1  0  0  0  0
  5  1  2  0  0  0  0
  6  1  1  0  0  0  0
  7 11  1  0  0  0  0
  7  4  1  0  0  0  0
  8  4  2  0  0  0  0
  9  7  2  0  0  0  0
 11  2  1  0  0  0  0
 11 10  1  1  0  0  0
 13 35  1  6  0  0  0
 14 13  1  0  0  0  0
 14  3  1  0  0  0  0
 15 12  1  0  0  0  0
 16 17  1  6  0  0  0
 18 20  1  0  0  0  0
 19 16  1  0  0  0  0
 20 21  2  0  0  0  0
 20 19  1  0  0  0  0
 22 18  1  6  0  0  0
 23 27  1  0  0  0  0
 23 26  1  0  0  0  0
 24 29  1  6  0  0  0
 24 22  1  0  0  0  0
 25 22  1  0  0  0  0
 26 25  1  0  0  0  0
 26 28  1  1  0  0  0
 27 24  1  0  0  0  0
 30 32  1  0  0  0  0
 30 31  1  0  0  0  0
 31 33  1  0  0  0  0
 32 34  1  0  0  0  0
 33 29  1  0  0  0  0
 34 29  1  0  0  0  0
 35 40  1  0  0  0  0
 36 37  1  0  0  0  0
 37 41  2  0  0  0  0
 37 42  1  0  0  0  0
 38 41  1  0  0  0  0
 39 40  1  0  0  0  0
 39 36  1  0  0  0  0
 40 38  2  0  0  0  0
 43 42  2  0  0  0  0
M  END
>  <MODEL>
6

>  <REMARK>
 VINA RESULT:      -7.9      3.263      6.862
  Name = 
  7 active torsions:
  status: ('A' for Active; 'I' for Inactive)
    1  A    between atoms: C_1  and  C_34
    2  A    between atoms: C_1  and  C_35
    3  A    between atoms: C_2  and  N_6
    4  A    between atoms: C_2  and  C_13
    5  A    between atoms: N_3  and  C_4
    6  A    between atoms: C_11  and  C_14
    7  A    between atoms: C_19  and  C_25
                            x       y       z     vdW  Elec       q    Type
                         _______ _______ _______ _____ _____    ______ ____

>  <TORSDO>
F 7

$$$$
=
 OpenBabel11052421173D

 43 48  0  0  1  0  0  0  0  0999 V2000
  191.3570  171.3840  141.6520 C   0  0  0  0  0  0  0  0  0  0  0  0
  195.1060  173.1500  144.5120 N   0  0  2  0  0  0  0  0  0  0  0  0
  193.7760  175.0180  146.4550 C   0  0  1  0  0  3  0  0  0  0  0  0
  193.2420  171.5660  143.0880 C   0  0  0  0  0  0  0  0  0  0  0  0
  190.9990  172.7090  141.9090 C   0  0  0  0  0  3  0  0  0  0  0  0
  190.5670  170.5940  140.7710 N   0  0  0  0  0  1  0  0  0  0  0  0
  192.9220  172.9100  143.3610 C   0  0  0  0  0  0  0  0  0  0  0  0
  192.4640  170.8470  142.2340 N   0  0  0  0  0  0  0  0  0  0  0  0
  191.7870  173.4720  142.7710 C   0  0  0  0  0  3  0  0  0  0  0  0
  193.0420  173.9500  145.6370 C   0  0  0  0  0  2  0  0  0  0  0  0
  193.7590  173.7270  144.3080 C   0  0  1  0  0  3  0  0  0  0  0  0
  194.9950  171.7290  144.8520 C   0  0  0  0  0  2  0  0  0  0  0  0
  195.8710  173.7970  145.5980 C   0  0  2  0  0  3  0  0  0  0  0  0
  195.2700  175.1150  146.1180 C   0  0  0  0  0  2  0  0  0  0  0  0
  194.4870  170.9460  143.6470 C   0  0  0  0  0  2  0  0  0  0  0  0
  193.1220  176.3930  146.2880 C   0  0  2  0  0  3  0  0  0  0  0  0
  193.3430  177.1690  147.4260 O   0  0  0  0  0  1  0  0  0  0  0  0
  189.3560  176.9340  146.5610 N   0  0  0  0  0  2  0  0  0  0  0  0
  191.6890  176.2560  146.0610 N   0  0  0  0  0  2  0  0  0  0  0  0
  190.7170  176.7840  146.9680 C   0  0  0  0  0  0  0  0  0  0  0  0
  191.0550  177.1210  148.1330 O   0  0  0  0  0  0  0  0  0  0  0  0
  188.9270  176.7230  145.1860 C   0  0  1  0  0  3  0  0  0  0  0  0
  187.4790  177.4000  142.8010 O   0  0  0  0  0  0  0  0  0  0  0  0
  187.4170  176.4590  145.0500 C   0  0  2  0  0  3  0  0  0  0  0  0
  189.3550  177.8890  144.3030 C   0  0  0  0  0  2  0  0  0  0  0  0
  188.8720  177.6550  142.8680 C   0  0  1  0  0  3  0  0  0  0  0  0
  187.1620  176.2430  143.5500 C   0  0  0  0  0  2  0  0  0  0  0  0
  189.6960  176.6020  142.1360 C   0  0  0  0  0  1  0  0  0  0  0  0
  186.5310  177.5910  145.6140 C   0  0  0  0  0  3  0  0  0  0  0  0
  184.0690  178.6640  146.8260 C   0  0  0  0  0  2  0  0  0  0  0  0
  185.3500  178.4960  147.6370 C   0  0  0  0  0  2  0  0  0  0  0  0
  184.4030  178.9010  145.3560 C   0  0  0  0  0  2  0  0  0  0  0  0
  186.1750  177.3380  147.0820 C   0  0  0  0  0  2  0  0  0  0  0  0
  185.2310  177.7400  144.8140 C   0  0  0  0  0  2  0  0  0  0  0  0
  197.3230  174.0180  145.1630 C   0  0  0  0  0  2  0  0  0  0  0  0
  197.4050  173.7140  141.3110 C   0  0  0  0  0  2  0  0  0  0  0  0
  197.4850  175.1860  140.9810 C   0  0  0  0  0  0  0  0  0  0  0  0
  197.1920  175.6840  143.3540 C   0  0  0  0  0  3  0  0  0  0  0  0
  197.9410  173.4210  142.7160 C   0  0  0  0  0  2  0  0  0  0  0  0
  197.4400  174.4220  143.7240 C   0  0  0  0  0  0  0  0  0  0  0  0
  197.3190  176.0940  141.9460 C   0  0  0  0  0  3  0  0  0  0  0  0
  197.6190  175.6490  139.5940 C   0  0  0  0  0  3  0  0  0  0  0  0
  197.7970  174.8130  138.5790 C   0  0  0  0  0  2  0  0  0  0  0  0
  1  5  2  0  0  0  0
  1  8  1  0  0  0  0
  2 12  1  1  0  0  0
  2 13  1  0  0  0  0
  3 16  1  6  0  0  0
  4  7  1  0  0  0  0
  4 15  1  0  0  0  0
  5  9  1  0  0  0  0
  6  1  1  0  0  0  0
  7 11  1  0  0  0  0
  8  4  2  0  0  0  0
  9  7  2  0  0  0  0
 10  3  1  0  0  0  0
 11  2  1  0  0  0  0
 11 10  1  1  0  0  0
 13 35  1  6  0  0  0
 13 14  1  0  0  0  0
 14  3  1  0  0  0  0
 15 12  1  0  0  0  0
 16 17  1  1  0  0  0
 18 20  1  0  0  0  0
 19 16  1  0  0  0  0
 19 20  1  0  0  0  0
 20 21  2  0  0  0  0
 22 18  1  1  0  0  0
 23 26  1  0  0  0  0
 23 27  1  0  0  0  0
 24 22  1  0  0  0  0
 24 29  1  6  0  0  0
 25 22  1  0  0  0  0
 26 28  1  1  0  0  0
 26 25  1  0  0  0  0
 27 24  1  0  0  0  0
 29 33  1  0  0  0  0
 30 31  1  0  0  0  0
 32 30  1  0  0  0  0
 33 31  1  0  0  0  0
 34 32  1  0  0  0  0
 34 29  1  0  0  0  0
 36 39  1  0  0  0  0
 37 36  1  0  0  0  0
 37 41  2  0  0  0  0
 38 40  2  0  0  0  0
 39 40  1  0  0  0  0
 40 35  1  0  0  0  0
 41 38  1  0  0  0  0
 42 37  1  0  0  0  0
 43 42  2  0  0  0  0
M  END
>  <MODEL>
7

>  <REMARK>
 VINA RESULT:      -7.9      2.203      8.878
  Name = 
  7 active torsions:
  status: ('A' for Active; 'I' for Inactive)
    1  A    between atoms: C_1  and  C_34
    2  A    between atoms: C_1  and  C_35
    3  A    between atoms: C_2  and  N_6
    4  A    between atoms: C_2  and  C_13
    5  A    between atoms: N_3  and  C_4
    6  A    between atoms: C_11  and  C_14
    7  A    between atoms: C_19  and  C_25
                            x       y       z     vdW  Elec       q    Type
                         _______ _______ _______ _____ _____    ______ ____

>  <TORSDO>
F 7

$$$$
=
 OpenBabel11052421173D

 43 48  0  0  1  0  0  0  0  0999 V2000
  191.0010  176.8960  147.5330 C   0  0  0  0  0  0  0  0  0  0  0  0
  188.0610  177.0290  143.4480 N   0  0  2  0  0  0  0  0  0  0  0  0
  188.6040  174.4370  142.0250 C   0  0  1  0  0  3  0  0  0  0  0  0
  189.1430  177.0730  146.0630 C   0  0  0  0  0  0  0  0  0  0  0  0
  191.7590  176.2660  146.5420 C   0  0  0  0  0  3  0  0  0  0  0  0
  191.5700  177.1350  148.8150 N   0  0  0  0  0  1  0  0  0  0  0  0
  189.8780  176.4540  145.0340 C   0  0  0  0  0  0  0  0  0  0  0  0
  189.7250  177.2880  147.2730 N   0  0  0  0  0  0  0  0  0  0  0  0
  191.1900  176.0440  145.2880 C   0  0  0  0  0  3  0  0  0  0  0  0
  188.9510  174.7110  143.4920 C   0  0  0  0  0  2  0  0  0  0  0  0
  189.2580  176.1930  143.6880 C   0  0  1  0  0  3  0  0  0  0  0  0
  187.1420  176.9240  144.5840 C   0  0  0  0  0  2  0  0  0  0  0  0
  187.3010  176.6450  142.2400 C   0  0  2  0  0  3  0  0  0  0  0  0
  188.0270  175.6630  141.3030 C   0  0  0  0  0  2  0  0  0  0  0  0
  187.7580  177.5870  145.8110 C   0  0  0  0  0  2  0  0  0  0  0  0
  189.8200  173.9140  141.2550 C   0  0  2  0  0  3  0  0  0  0  0  0
  189.4660  172.7900  140.5070 O   0  0  0  0  0  1  0  0  0  0  0  0
  192.8970  172.2090  142.7320 N   0  0  0  0  0  2  0  0  0  0  0  0
  190.9000  173.5700  142.1720 N   0  0  0  0  0  2  0  0  0  0  0  0
  191.6520  172.3590  142.0480 C   0  0  0  0  0  0  0  0  0  0  0  0
  191.2210  171.4160  141.3340 O   0  0  0  0  0  0  0  0  0  0  0  0
  193.5350  173.3120  143.4380 C   0  0  1  0  0  3  0  0  0  0  0  0
  195.7460  174.6220  144.7160 O   0  0  0  0  0  0  0  0  0  0  0  0
  193.9800  172.9480  144.8650 C   0  0  2  0  0  3  0  0  0  0  0  0
  194.7030  173.8640  142.6300 C   0  0  0  0  0  2  0  0  0  0  0  0
  195.3720  175.0050  143.4040 C   0  0  1  0  0  3  0  0  0  0  0  0
  194.6030  174.2250  145.4490 C   0  0  0  0  0  2  0  0  0  0  0  0
  194.5520  176.2900  143.3790 C   0  0  0  0  0  1  0  0  0  0  0  0
  194.9650  171.7600  144.9290 C   0  0  0  0  0  3  0  0  0  0  0  0
  196.5160  169.6890  146.3370 C   0  0  0  0  0  2  0  0  0  0  0  0
  195.2700  169.3410  145.5290 C   0  0  0  0  0  2  0  0  0  0  0  0
  197.1860  170.9340  145.7650 C   0  0  0  0  0  2  0  0  0  0  0  0
  194.2990  170.5180  145.5290 C   0  0  0  0  0  2  0  0  0  0  0  0
  196.2040  172.1030  145.7660 C   0  0  0  0  0  2  0  0  0  0  0  0
  186.8770  177.8950  141.4620 C   0  0  0  0  0  2  0  0  0  0  0  0
  183.2250  177.8380  140.1970 C   0  0  0  0  0  2  0  0  0  0  0  0
  182.5500  178.2910  141.4700 C   0  0  0  0  0  0  0  0  0  0  0  0
  184.7110  178.1720  142.6010 C   0  0  0  0  0  3  0  0  0  0  0  0
  184.6840  178.3010  140.1370 C   0  0  0  0  0  2  0  0  0  0  0  0
  185.3910  178.0910  141.4510 C   0  0  0  0  0  0  0  0  0  0  0  0
  183.2530  178.3800  142.6010 C   0  0  0  0  0  3  0  0  0  0  0  0
  181.1000  178.5200  141.5230 C   0  0  0  0  0  3  0  0  0  0  0  0
  180.3070  178.3000  140.4820 C   0  0  0  0  0  2  0  0  0  0  0  0
  1  6  1  0  0  0  0
  2 11  1  0  0  0  0
  2 12  1  1  0  0  0
  3 16  1  6  0  0  0
  3 10  1  0  0  0  0
  4  8  2  0  0  0  0
  5  1  2  0  0  0  0
  7  9  2  0  0  0  0
  7  4  1  0  0  0  0
  8  1  1  0  0  0  0
  9  5  1  0  0  0  0
 11 10  1  1  0  0  0
 11  7  1  0  0  0  0
 12 15  1  0  0  0  0
 13 35  1  6  0  0  0
 13  2  1  0  0  0  0
 14  3  1  0  0  0  0
 14 13  1  0  0  0  0
 15  4  1  0  0  0  0
 16 17  1  1  0  0  0
 16 19  1  0  0  0  0
 20 19  1  0  0  0  0
 20 18  1  0  0  0  0
 21 20  2  0  0  0  0
 22 18  1  6  0  0  0
 22 24  1  0  0  0  0
 23 27  1  0  0  0  0
 24 29  1  6  0  0  0
 24 27  1  0  0  0  0
 25 26  1  0  0  0  0
 25 22  1  0  0  0  0
 26 28  1  1  0  0  0
 26 23  1  0  0  0  0
 29 33  1  0  0  0  0
 29 34  1  0  0  0  0
 31 33  1  0  0  0  0
 31 30  1  0  0  0  0
 32 34  1  0  0  0  0
 32 30  1  0  0  0  0
 36 37  1  0  0  0  0
 37 42  1  0  0  0  0
 37 41  2  0  0  0  0
 39 36  1  0  0  0  0
 39 40  1  0  0  0  0
 40 35  1  0  0  0  0
 40 38  2  0  0  0  0
 41 38  1  0  0  0  0
 43 42  2  0  0  0  0
M  END
>  <MODEL>
8

>  <REMARK>
 VINA RESULT:      -7.9      2.811      4.701
  Name = 
  7 active torsions:
  status: ('A' for Active; 'I' for Inactive)
    1  A    between atoms: C_1  and  C_34
    2  A    between atoms: C_1  and  C_35
    3  A    between atoms: C_2  and  N_6
    4  A    between atoms: C_2  and  C_13
    5  A    between atoms: N_3  and  C_4
    6  A    between atoms: C_11  and  C_14
    7  A    between atoms: C_19  and  C_25
                            x       y       z     vdW  Elec       q    Type
                         _______ _______ _______ _____ _____    ______ ____

>  <TORSDO>
F 7

$$$$
=
 OpenBabel11052421173D

 43 48  0  0  1  0  0  0  0  0999 V2000
  188.7620  173.2370  140.2750 C   0  0  0  0  0  0  0  0  0  0  0  0
  192.0000  172.8810  144.1140 N   0  0  2  0  0  0  0  0  0  0  0  0
  191.3390  175.2110  145.8950 C   0  0  1  0  0  3  0  0  0  0  0  0
  190.0360  172.4540  142.1220 C   0  0  0  0  0  0  0  0  0  0  0  0
  189.0680  174.5630  140.5920 C   0  0  0  0  0  3  0  0  0  0  0  0
  187.9420  172.9490  139.1480 N   0  0  0  0  0  1  0  0  0  0  0  0
  190.3770  173.7760  142.4660 C   0  0  0  0  0  0  0  0  0  0  0  0
  189.2530  172.2210  141.0330 N   0  0  0  0  0  0  0  0  0  0  0  0
  189.8780  174.8290  141.6950 C   0  0  0  0  0  3  0  0  0  0  0  0
  190.4100  174.6560  144.8110 C   0  0  0  0  0  2  0  0  0  0  0  0
  191.2330  174.0650  143.6700 C   0  0  1  0  0  3  0  0  0  0  0  0
  191.1050  171.7290  144.2530 C   0  0  0  0  0  2  0  0  0  0  0  0
  192.6740  173.0650  145.4160 C   0  0  2  0  0  3  0  0  0  0  0  0
  192.7070  174.5160  145.9300 C   0  0  0  0  0  2  0  0  0  0  0  0
  190.6040  171.2930  142.8810 C   0  0  0  0  0  2  0  0  0  0  0  0
  191.5360  176.7220  145.7390 C   0  0  2  0  0  3  0  0  0  0  0  0
  192.0620  177.2600  146.9140 O   0  0  0  0  0  1  0  0  0  0  0  0
  188.4770  177.9270  143.8050 N   0  0  0  0  0  2  0  0  0  0  0  0
  190.2710  177.3750  145.4260 N   0  0  0  0  0  2  0  0  0  0  0  0
  189.8400  177.6040  144.0820 C   0  0  0  0  0  0  0  0  0  0  0  0
  190.6610  177.5200  143.1310 O   0  0  0  0  0  0  0  0  0  0  0  0
  187.4430  177.8800  144.8290 C   0  0  1  0  0  3  0  0  0  0  0  0
  184.8830  177.1110  145.8770 O   0  0  0  0  0  0  0  0  0  0  0  0
  186.1470  178.6060  144.4250 C   0  0  2  0  0  3  0  0  0  0  0  0
  187.1530  176.4400  145.2340 C   0  0  0  0  0  2  0  0  0  0  0  0
  186.0450  176.4140  146.2930 C   0  0  1  0  0  3  0  0  0  0  0  0
  185.1960  178.4660  145.6230 C   0  0  0  0  0  2  0  0  0  0  0  0
  186.5370  176.8600  147.6650 C   0  0  0  0  0  1  0  0  0  0  0  0
  185.5050  178.0640  143.1290 C   0  0  0  0  0  3  0  0  0  0  0  0
  184.2580  178.3580  140.4770 C   0  0  0  0  0  2  0  0  0  0  0  0
  185.6970  177.8770  140.6320 C   0  0  0  0  0  2  0  0  0  0  0  0
  183.4370  177.9750  141.7050 C   0  0  0  0  0  2  0  0  0  0  0  0
  186.3150  178.4720  141.8950 C   0  0  0  0  0  2  0  0  0  0  0  0
  184.0670  178.5710  142.9610 C   0  0  0  0  0  2  0  0  0  0  0  0
  194.0950  172.4960  145.3610 C   0  0  0  0  0  2  0  0  0  0  0  0
  197.1830  174.5260  144.2260 C   0  0  0  0  0  2  0  0  0  0  0  0
  196.8240  174.6650  142.7660 C   0  0  0  0  0  0  0  0  0  0  0  0
  194.9170  173.1850  143.1440 C   0  0  0  0  0  3  0  0  0  0  0  0
  195.9400  174.2990  145.0940 C   0  0  0  0  0  2  0  0  0  0  0  0
  195.0030  173.2950  144.4750 C   0  0  0  0  0  0  0  0  0  0  0  0
  195.7940  173.9780  142.2650 C   0  0  0  0  0  3  0  0  0  0  0  0
  197.6590  175.4490  141.8470 C   0  0  0  0  0  3  0  0  0  0  0  0
  197.9410  175.0380  140.6160 C   0  0  0  0  0  2  0  0  0  0  0  0
  1  5  2  0  0  0  0
  1  8  1  0  0  0  0
  2 12  1  1  0  0  0
  2 13  1  0  0  0  0
  3 16  1  6  0  0  0
  3 14  1  0  0  0  0
  4  7  1  0  0  0  0
  4 15  1  0  0  0  0
  5  9  1  0  0  0  0
  6  1  1  0  0  0  0
  7 11  1  0  0  0  0
  8  4  2  0  0  0  0
  9  7  2  0  0  0  0
 10  3  1  0  0  0  0
 11  2  1  0  0  0  0
 11 10  1  1  0  0  0
 13 35  1  6  0  0  0
 13 14  1  0  0  0  0
 15 12  1  0  0  0  0
 16 17  1  1  0  0  0
 18 20  1  0  0  0  0
 19 16  1  0  0  0  0
 20 19  1  0  0  0  0
 21 20  2  0  0  0  0
 22 18  1  6  0  0  0
 22 25  1  0  0  0  0
 23 26  1  0  0  0  0
 24 29  1  6  0  0  0
 24 22  1  0  0  0  0
 24 27  1  0  0  0  0
 25 26  1  0  0  0  0
 26 28  1  1  0  0  0
 27 23  1  0  0  0  0
 30 31  1  0  0  0  0
 30 32  1  0  0  0  0
 31 33  1  0  0  0  0
 32 34  1  0  0  0  0
 33 29  1  0  0  0  0
 34 29  1  0  0  0  0
 36 39  1  0  0  0  0
 37 36  1  0  0  0  0
 38 40  2  0  0  0  0
 40 39  1  0  0  0  0
 40 35  1  0  0  0  0
 41 37  2  0  0  0  0
 41 38  1  0  0  0  0
 42 37  1  0  0  0  0
 43 42  2  0  0  0  0
M  END
>  <MODEL>
9

>  <REMARK>
 VINA RESULT:      -7.8      2.063      8.948
  Name = 
  7 active torsions:
  status: ('A' for Active; 'I' for Inactive)
    1  A    between atoms: C_1  and  C_34
    2  A    between atoms: C_1  and  C_35
    3  A    between atoms: C_2  and  N_6
    4  A    between atoms: C_2  and  C_13
    5  A    between atoms: N_3  and  C_4
    6  A    between atoms: C_11  and  C_14
    7  A    between atoms: C_19  and  C_25
                            x       y       z     vdW  Elec       q    Type
                         _______ _______ _______ _____ _____    ______ ____

>  <TORSDO>
F 7

$$$$
