=
 OpenBabel11052420373D

 34 41  0  0  1  0  0  0  0  0999 V2000
  191.2520  173.8570  144.9320 C   0  0  2  0  0  3  0  0  0  0  0  0
  191.9000  174.1160  141.1830 C   0  0  0  0  0  3  0  0  0  0  0  0
  192.7990  175.3550  143.1190 C   0  0  0  0  0  2  0  0  0  0  0  0
  190.9780  176.3110  145.4150 C   0  0  2  0  0  3  0  0  0  0  0  0
  190.3440  174.9380  145.5460 C   0  0  0  0  0  2  0  0  0  0  0  0
  193.0680  175.0910  146.3020 C   0  0  1  0  0  3  0  0  0  0  0  0
  194.8230  175.4440  146.1570 S   0  0  0  0  0  0  0  0  0  0  0  0
  192.2760  176.4060  146.2220 C   0  0  0  0  0  2  0  0  0  0  0  0
  193.5380  174.4260  143.9750 N   0  0  2  0  0  0  0  0  0  0  0  0
  192.7630  174.1020  145.1860 C   0  0  2  0  0  3  0  0  0  0  0  0
  194.7730  175.0970  144.3670 C   0  0  0  0  0  2  0  0  0  0  0  0
  190.9880  173.6010  140.3490 C   0  0  0  0  0  3  0  0  0  0  0  0
  189.5190  173.5420  140.6650 C   0  0  2  0  0  3  0  0  0  0  0  0
  189.2720  172.6190  141.8550 C   0  0  0  0  0  2  0  0  0  0  0  0
  191.5530  174.6900  142.5230 C   0  0  2  0  0  3  0  0  0  0  0  0
  189.4920  173.3490  143.1730 C   0  0  0  0  0  2  0  0  0  0  0  0
  190.9750  173.5980  143.4430 C   0  0  2  0  0  3  0  0  0  0  0  0
  188.7970  173.0450  139.5020 N   0  0  0  0  0  0  0  0  0  0  0  0
  188.1920  174.2090  138.8290 C   0  0  0  0  0  2  0  0  0  0  0  0
  189.4270  173.6390  138.3120 C   0  0  0  0  0  2  0  0  0  0  0  0
  189.9950  177.3920  145.8330 C   0  0  0  0  0  2  0  0  0  0  0  0
  188.2400  177.7050  142.4740 C   0  0  0  0  0  3  0  0  0  0  0  0
  187.5830  177.7150  145.2290 C   0  0  0  0  0  3  0  0  0  0  0  0
  185.5380  178.1210  140.8250 C   0  0  0  0  0  3  0  0  0  0  0  0
  183.4170  178.2580  142.6840 N   0  0  0  0  0  0  0  0  0  0  0  0
  185.7270  178.0760  142.1380 C   0  0  0  0  0  0  0  0  0  0  0  0
  183.1350  178.2670  141.3250 O   0  0  0  0  0  0  0  0  0  0  0  0
  186.9280  177.8620  142.9090 C   0  0  0  0  0  0  0  0  0  0  0  0
  184.1530  178.4470  140.3190 C   0  0  0  0  0  2  0  0  0  0  0  0
  185.1280  178.0850  144.4940 C   0  0  0  0  0  2  0  0  0  0  0  0
  186.5970  177.8740  144.2570 C   0  0  0  0  0  0  0  0  0  0  0  0
  184.6470  178.2030  143.0810 C   0  0  0  0  0  0  0  0  0  0  0  0
  188.9150  177.5360  144.8140 C   0  0  0  0  0  0  0  0  0  0  0  0
  189.2390  177.5380  143.4450 C   0  0  0  0  0  3  0  0  0  0  0  0
  1 10  1  0  0  0  0
  1  5  1  6  0  0  0
  2 15  1  0  0  0  0
  4  5  1  0  0  0  0
  4 21  1  1  0  0  0
  4  8  1  0  0  0  0
  6  8  1  6  0  0  0
  7  6  1  0  0  0  0
  9  3  1  6  0  0  0
  9 11  1  0  0  0  0
  9 10  1  0  0  0  0
 10  6  1  0  0  0  0
 11  7  1  0  0  0  0
 12 13  1  0  0  0  0
 12  2  2  0  0  0  0
 13 14  1  0  0  0  0
 14 16  1  0  0  0  0
 15  3  1  0  0  0  0
 15 17  1  0  0  0  0
 16 17  1  0  0  0  0
 17  1  1  0  0  0  0
 18 13  1  0  0  0  0
 19 18  1  0  0  0  0
 20 19  1  0  0  0  0
 20 18  1  0  0  0  0
 22 28  2  0  0  0  0
 22 34  1  0  0  0  0
 24 26  2  0  0  0  0
 25 32  2  0  0  0  0
 26 28  1  0  0  0  0
 26 32  1  0  0  0  0
 27 25  1  0  0  0  0
 28 31  1  0  0  0  0
 29 24  1  0  0  0  0
 29 27  1  0  0  0  0
 31 30  1  0  0  0  0
 31 23  2  0  0  0  0
 32 30  1  0  0  0  0
 33 23  1  0  0  0  0
 33 21  1  0  0  0  0
 34 33  2  0  0  0  0
M  END
>  <MODEL>
1

>  <REMARK>
 VINA RESULT:      -9.2      0.000      0.000
  Name = 
  3 active torsions:
  status: ('A' for Active; 'I' for Inactive)
    1  A    between atoms: N_3  and  C_25
    2  A    between atoms: C_8  and  C_18
    3  A    between atoms: C_18  and  C_30
                            x       y       z     vdW  Elec       q    Type
                         _______ _______ _______ _____ _____    ______ ____

>  <TORSDO>
F 3

$$$$
=
 OpenBabel11052420373D

 34 41  0  0  1  0  0  0  0  0999 V2000
  191.2290  173.7620  145.0370 C   0  0  2  0  0  3  0  0  0  0  0  0
  191.5990  174.3060  141.2810 C   0  0  0  0  0  3  0  0  0  0  0  0
  192.6390  175.4000  143.2330 C   0  0  0  0  0  2  0  0  0  0  0  0
  190.9930  176.1720  145.7230 C   0  0  2  0  0  3  0  0  0  0  0  0
  190.3700  174.7890  145.7960 C   0  0  0  0  0  2  0  0  0  0  0  0
  193.1420  174.8990  146.3590 C   0  0  1  0  0  3  0  0  0  0  0  0
  194.8820  175.2710  146.1120 S   0  0  0  0  0  0  0  0  0  0  0  0
  192.3480  176.2120  146.4360 C   0  0  0  0  0  2  0  0  0  0  0  0
  193.4390  174.4130  143.9600 N   0  0  2  0  0  0  0  0  0  0  0  0
  192.7560  173.9950  145.1960 C   0  0  2  0  0  3  0  0  0  0  0  0
  194.7000  175.0600  144.3090 C   0  0  0  0  0  2  0  0  0  0  0  0
  190.6280  173.8510  140.4790 C   0  0  0  0  0  3  0  0  0  0  0  0
  189.1860  173.7610  140.8970 C   0  0  2  0  0  3  0  0  0  0  0  0
  189.0280  172.7490  142.0290 C   0  0  0  0  0  2  0  0  0  0  0  0
  191.3520  174.7760  142.6830 C   0  0  2  0  0  3  0  0  0  0  0  0
  189.3440  173.3790  143.3790 C   0  0  0  0  0  2  0  0  0  0  0  0
  190.8430  173.6150  143.5570 C   0  0  2  0  0  3  0  0  0  0  0  0
  188.3790  173.3490  139.7570 N   0  0  0  0  0  0  0  0  0  0  0  0
  187.9450  174.5740  139.0600 C   0  0  0  0  0  2  0  0  0  0  0  0
  189.0730  173.8140  138.5440 C   0  0  0  0  0  2  0  0  0  0  0  0
  190.0440  177.2130  146.2920 C   0  0  0  0  0  2  0  0  0  0  0  0
  186.4880  177.7600  145.0610 C   0  0  0  0  0  3  0  0  0  0  0  0
  189.0810  177.3810  143.9840 C   0  0  0  0  0  3  0  0  0  0  0  0
  184.4530  178.0610  142.6200 C   0  0  0  0  0  3  0  0  0  0  0  0
  185.9580  177.9410  140.2340 N   0  0  0  0  0  0  0  0  0  0  0  0
  185.7630  177.8500  142.6050 C   0  0  0  0  0  0  0  0  0  0  0  0
  184.5970  178.2100  140.1700 O   0  0  0  0  0  0  0  0  0  0  0  0
  186.7100  177.7380  143.6870 C   0  0  0  0  0  0  0  0  0  0  0  0
  183.7170  178.0470  141.3010 C   0  0  0  0  0  2  0  0  0  0  0  0
  187.9740  177.5320  141.6470 C   0  0  0  0  0  2  0  0  0  0  0  0
  187.9760  177.5470  143.1500 C   0  0  0  0  0  0  0  0  0  0  0  0
  186.5150  177.7350  141.3830 C   0  0  0  0  0  0  0  0  0  0  0  0
  188.8850  177.4180  145.3760 C   0  0  0  0  0  0  0  0  0  0  0  0
  187.5950  177.6000  145.9080 C   0  0  0  0  0  3  0  0  0  0  0  0
  1 10  1  0  0  0  0
  1  5  1  6  0  0  0
  2 15  1  0  0  0  0
  4  5  1  0  0  0  0
  4 21  1  1  0  0  0
  4  8  1  0  0  0  0
  6  8  1  6  0  0  0
  7  6  1  0  0  0  0
  9  3  1  1  0  0  0
  9 11  1  0  0  0  0
  9 10  1  0  0  0  0
 10  6  1  0  0  0  0
 11  7  1  0  0  0  0
 12 13  1  0  0  0  0
 12  2  2  0  0  0  0
 13 14  1  0  0  0  0
 14 16  1  0  0  0  0
 15  3  1  0  0  0  0
 15 17  1  0  0  0  0
 16 17  1  0  0  0  0
 17  1  1  0  0  0  0
 18 13  1  0  0  0  0
 19 18  1  0  0  0  0
 20 19  1  0  0  0  0
 20 18  1  0  0  0  0
 22 34  1  0  0  0  0
 23 33  1  0  0  0  0
 25 32  2  0  0  0  0
 26 24  2  0  0  0  0
 26 28  1  0  0  0  0
 27 25  1  0  0  0  0
 27 29  1  0  0  0  0
 28 22  2  0  0  0  0
 29 24  1  0  0  0  0
 30 31  1  0  0  0  0
 31 28  1  0  0  0  0
 31 23  2  0  0  0  0
 32 30  1  0  0  0  0
 32 26  1  0  0  0  0
 33 34  2  0  0  0  0
 33 21  1  0  0  0  0
M  END
>  <MODEL>
2

>  <REMARK>
 VINA RESULT:      -9.2      0.885      1.477
  Name = 
  3 active torsions:
  status: ('A' for Active; 'I' for Inactive)
    1  A    between atoms: N_3  and  C_25
    2  A    between atoms: C_8  and  C_18
    3  A    between atoms: C_18  and  C_30
                            x       y       z     vdW  Elec       q    Type
                         _______ _______ _______ _____ _____    ______ ____

>  <TORSDO>
F 3

$$$$
=
 OpenBabel11052420373D

 34 41  0  0  1  0  0  0  0  0999 V2000
  193.7620  172.6960  144.5980 C   0  0  2  0  0  3  0  0  0  0  0  0
  192.3090  173.7740  141.2410 C   0  0  0  0  0  3  0  0  0  0  0  0
  194.3750  174.3950  142.4380 C   0  0  0  0  0  2  0  0  0  0  0  0
  194.3780  174.9770  145.4660 C   0  0  2  0  0  3  0  0  0  0  0  0
  193.6160  173.6970  145.7590 C   0  0  0  0  0  2  0  0  0  0  0  0
  196.2590  173.3420  144.8080 C   0  0  1  0  0  3  0  0  0  0  0  0
  197.6790  173.5110  143.7200 S   0  0  0  0  0  0  0  0  0  0  0  0
  195.8850  174.7210  145.3740 C   0  0  0  0  0  2  0  0  0  0  0  0
  195.2180  173.2070  142.5770 N   0  0  2  0  0  0  0  0  0  0  0  0
  195.1760  172.6940  143.9570 C   0  0  2  0  0  3  0  0  0  0  0  0
  196.5850  173.6140  142.2640 C   0  0  0  0  0  2  0  0  0  0  0  0
  191.0000  173.5860  141.0310 C   0  0  0  0  0  3  0  0  0  0  0  0
  189.9730  173.6260  142.1290 C   0  0  2  0  0  3  0  0  0  0  0  0
  190.2040  172.4780  143.1080 C   0  0  0  0  0  2  0  0  0  0  0  0
  192.8910  174.0450  142.5950 C   0  0  2  0  0  3  0  0  0  0  0  0
  191.2680  172.8380  144.1370 C   0  0  0  0  0  2  0  0  0  0  0  0
  192.6690  172.8390  143.5270 C   0  0  2  0  0  3  0  0  0  0  0  0
  188.6430  173.5120  141.5470 N   0  0  0  0  0  0  0  0  0  0  0  0
  187.8800  174.7050  141.9590 C   0  0  0  0  0  2  0  0  0  0  0  0
  188.4710  174.6510  140.6300 C   0  0  0  0  0  2  0  0  0  0  0  0
  194.0650  176.0330  146.5120 C   0  0  0  0  0  2  0  0  0  0  0  0
  190.4960  176.7570  147.6030 C   0  0  0  0  0  3  0  0  0  0  0  0
  192.0220  176.6900  145.2180 C   0  0  0  0  0  3  0  0  0  0  0  0
  187.5030  177.5490  146.8240 C   0  0  0  0  0  3  0  0  0  0  0  0
  187.4370  178.0010  144.0380 N   0  0  0  0  0  0  0  0  0  0  0  0
  188.5610  177.3770  146.0420 C   0  0  0  0  0  0  0  0  0  0  0  0
  186.3000  178.2450  144.7950 O   0  0  0  0  0  0  0  0  0  0  0  0
  189.9270  177.0480  146.3660 C   0  0  0  0  0  0  0  0  0  0  0  0
  186.1690  177.8130  146.1660 C   0  0  0  0  0  2  0  0  0  0  0  0
  189.8420  177.3330  143.9760 C   0  0  0  0  0  2  0  0  0  0  0  0
  190.6660  177.0120  145.1920 C   0  0  0  0  0  0  0  0  0  0  0  0
  188.5060  177.5560  144.6150 C   0  0  0  0  0  0  0  0  0  0  0  0
  192.6240  176.4100  146.4580 C   0  0  0  0  0  0  0  0  0  0  0  0
  191.8610  176.4380  147.6400 C   0  0  0  0  0  3  0  0  0  0  0  0
  1  5  1  1  0  0  0
  2 15  1  0  0  0  0
  3  9  1  0  0  0  0
  3 15  1  0  0  0  0
  4  5  1  0  0  0  0
  4 21  1  1  0  0  0
  6  8  1  6  0  0  0
  7  6  1  0  0  0  0
  8  4  1  0  0  0  0
  9 11  1  1  0  0  0
  9 10  1  0  0  0  0
 10  1  1  0  0  0  0
 10  6  1  0  0  0  0
 11  7  1  0  0  0  0
 12  2  2  0  0  0  0
 12 13  1  0  0  0  0
 13 14  1  0  0  0  0
 14 16  1  0  0  0  0
 15 17  1  0  0  0  0
 17 16  1  0  0  0  0
 17  1  1  0  0  0  0
 18 19  1  0  0  0  0
 18 13  1  0  0  0  0
 20 18  1  0  0  0  0
 20 19  1  0  0  0  0
 22 34  1  0  0  0  0
 23 33  1  0  0  0  0
 25 32  2  0  0  0  0
 25 27  1  0  0  0  0
 26 28  1  0  0  0  0
 26 24  2  0  0  0  0
 27 29  1  0  0  0  0
 28 22  2  0  0  0  0
 29 24  1  0  0  0  0
 30 32  1  0  0  0  0
 30 31  1  0  0  0  0
 31 23  2  0  0  0  0
 31 28  1  0  0  0  0
 32 26  1  0  0  0  0
 33 21  1  0  0  0  0
 33 34  2  0  0  0  0
M  END
>  <MODEL>
3

>  <REMARK>
 VINA RESULT:      -8.7      2.413      3.791
  Name = 
  3 active torsions:
  status: ('A' for Active; 'I' for Inactive)
    1  A    between atoms: N_3  and  C_25
    2  A    between atoms: C_8  and  C_18
    3  A    between atoms: C_18  and  C_30
                            x       y       z     vdW  Elec       q    Type
                         _______ _______ _______ _____ _____    ______ ____

>  <TORSDO>
F 3

$$$$
=
 OpenBabel11052420373D

 34 41  0  0  1  0  0  0  0  0999 V2000
  192.9660  173.0590  144.7360 C   0  0  2  0  0  3  0  0  0  0  0  0
  192.3980  173.9390  141.0690 C   0  0  0  0  0  3  0  0  0  0  0  0
  193.9660  174.8050  142.7670 C   0  0  0  0  0  2  0  0  0  0  0  0
  193.0600  175.4010  145.6530 C   0  0  2  0  0  3  0  0  0  0  0  0
  192.3930  174.0420  145.7720 C   0  0  0  0  0  2  0  0  0  0  0  0
  195.2180  173.9930  145.6040 C   0  0  1  0  0  3  0  0  0  0  0  0
  196.8570  174.3210  144.9460 S   0  0  0  0  0  0  0  0  0  0  0  0
  194.5510  175.3230  145.9910 C   0  0  0  0  0  2  0  0  0  0  0  0
  194.8630  173.7240  143.1790 N   0  0  2  0  0  0  0  0  0  0  0  0
  194.4940  173.2180  144.5130 C   0  0  2  0  0  3  0  0  0  0  0  0
  196.2090  174.2860  143.2410 C   0  0  0  0  0  2  0  0  0  0  0  0
  191.2290  173.5980  140.5130 C   0  0  0  0  0  3  0  0  0  0  0  0
  189.9390  173.5240  141.2820 C   0  0  2  0  0  3  0  0  0  0  0  0
  190.0130  172.4170  142.3310 C   0  0  0  0  0  2  0  0  0  0  0  0
  192.5460  174.2840  142.5200 C   0  0  2  0  0  3  0  0  0  0  0  0
  190.7010  172.9050  143.5990 C   0  0  0  0  0  2  0  0  0  0  0  0
  192.2070  173.0660  143.4010 C   0  0  2  0  0  3  0  0  0  0  0  0
  188.8450  173.2520  140.3600 N   0  0  0  0  0  0  0  0  0  0  0  0
  188.2600  174.5500  139.9760 C   0  0  0  0  0  2  0  0  0  0  0  0
  189.1900  173.8850  139.0770 C   0  0  0  0  0  2  0  0  0  0  0  0
  192.3520  176.4200  146.5310 C   0  0  0  0  0  2  0  0  0  0  0  0
  189.7400  177.7100  144.0870 C   0  0  0  0  0  3  0  0  0  0  0  0
  189.8610  176.6350  146.7050 C   0  0  0  0  0  3  0  0  0  0  0  0
  186.6820  178.3550  143.4380 C   0  0  0  0  0  3  0  0  0  0  0  0
  185.1470  177.5400  145.6640 N   0  0  0  0  0  0  0  0  0  0  0  0
  187.2230  177.8600  144.5440 C   0  0  0  0  0  0  0  0  0  0  0  0
  184.5040  178.0070  144.5260 O   0  0  0  0  0  0  0  0  0  0  0  0
  188.5930  177.5330  144.8560 C   0  0  0  0  0  0  0  0  0  0  0  0
  185.2040  178.6670  143.4500 C   0  0  0  0  0  2  0  0  0  0  0  0
  187.2900  176.9370  146.7920 C   0  0  0  0  0  2  0  0  0  0  0  0
  188.6430  177.0120  146.1420 C   0  0  0  0  0  0  0  0  0  0  0  0
  186.4390  177.4990  145.6960 C   0  0  0  0  0  0  0  0  0  0  0  0
  191.0330  176.7870  145.9420 C   0  0  0  0  0  0  0  0  0  0  0  0
  190.9690  177.3280  144.6440 C   0  0  0  0  0  3  0  0  0  0  0  0
  1  5  1  1  0  0  0
  2 15  1  0  0  0  0
  4  5  1  0  0  0  0
  4  8  1  0  0  0  0
  4 21  1  1  0  0  0
  6  8  1  6  0  0  0
  7  6  1  0  0  0  0
  9  3  1  1  0  0  0
  9 11  1  0  0  0  0
  9 10  1  0  0  0  0
 10  1  1  0  0  0  0
 10  6  1  0  0  0  0
 11  7  1  0  0  0  0
 12  2  2  0  0  0  0
 12 13  1  0  0  0  0
 13 14  1  0  0  0  0
 14 16  1  0  0  0  0
 15  3  1  0  0  0  0
 15 17  1  0  0  0  0
 17 16  1  0  0  0  0
 17  1  1  0  0  0  0
 18 13  1  0  0  0  0
 19 18  1  0  0  0  0
 20 19  1  0  0  0  0
 20 18  1  0  0  0  0
 22 34  2  0  0  0  0
 22 28  1  0  0  0  0
 24 29  1  0  0  0  0
 24 26  2  0  0  0  0
 25 32  2  0  0  0  0
 26 28  1  0  0  0  0
 26 32  1  0  0  0  0
 27 25  1  0  0  0  0
 28 31  2  0  0  0  0
 29 27  1  0  0  0  0
 31 23  1  0  0  0  0
 31 30  1  0  0  0  0
 32 30  1  0  0  0  0
 33 21  1  0  0  0  0
 33 23  2  0  0  0  0
 34 33  1  0  0  0  0
M  END
>  <MODEL>
4

>  <REMARK>
 VINA RESULT:      -8.5      1.578      2.274
  Name = 
  3 active torsions:
  status: ('A' for Active; 'I' for Inactive)
    1  A    between atoms: N_3  and  C_25
    2  A    between atoms: C_8  and  C_18
    3  A    between atoms: C_18  and  C_30
                            x       y       z     vdW  Elec       q    Type
                         _______ _______ _______ _____ _____    ______ ____

>  <TORSDO>
F 3

$$$$
=
 OpenBabel11052420373D

 34 41  0  0  1  0  0  0  0  0999 V2000
  191.1370  173.3950  144.2260 C   0  0  2  0  0  3  0  0  0  0  0  0
  191.7150  172.5580  140.5510 C   0  0  0  0  0  3  0  0  0  0  0  0
  193.1710  173.5380  142.2850 C   0  0  0  0  0  2  0  0  0  0  0  0
  192.1450  175.7010  144.2280 C   0  0  2  0  0  3  0  0  0  0  0  0
  190.9120  174.8800  144.5630 C   0  0  0  0  0  2  0  0  0  0  0  0
  193.3670  173.8040  145.4740 C   0  0  1  0  0  3  0  0  0  0  0  0
  195.0580  173.2020  145.3940 S   0  0  0  0  0  0  0  0  0  0  0  0
  193.3400  175.2930  145.0950 C   0  0  0  0  0  2  0  0  0  0  0  0
  193.3700  172.5530  143.3490 N   0  0  2  0  0  0  0  0  0  0  0  0
  192.5750  172.9010  144.5390 C   0  0  2  0  0  3  0  0  0  0  0  0
  194.7870  172.5830  143.7000 C   0  0  0  0  0  2  0  0  0  0  0  0
  190.6430  172.4130  139.7610 C   0  0  0  0  0  3  0  0  0  0  0  0
  189.3530  173.1550  139.9750 C   0  0  2  0  0  3  0  0  0  0  0  0
  188.7120  172.7300  141.2940 C   0  0  0  0  0  2  0  0  0  0  0  0
  191.7430  173.4790  141.7330 C   0  0  2  0  0  3  0  0  0  0  0  0
  189.3070  173.4960  142.4680 C   0  0  0  0  0  2  0  0  0  0  0  0
  190.7230  173.0220  142.7940 C   0  0  2  0  0  3  0  0  0  0  0  0
  188.4440  172.8660  138.8740 N   0  0  0  0  0  0  0  0  0  0  0  0
  188.1950  174.1350  138.1650 C   0  0  0  0  0  2  0  0  0  0  0  0
  189.1570  173.1860  137.6270 C   0  0  0  0  0  2  0  0  0  0  0  0
  191.8490  177.1850  144.3660 C   0  0  0  0  0  2  0  0  0  0  0  0
  188.7170  177.3740  146.5140 C   0  0  0  0  0  3  0  0  0  0  0  0
  189.4700  177.7390  143.8080 C   0  0  0  0  0  3  0  0  0  0  0  0
  185.5760  177.8970  146.7320 C   0  0  0  0  0  3  0  0  0  0  0  0
  184.6530  178.6360  144.1680 N   0  0  0  0  0  0  0  0  0  0  0  0
  186.3650  177.9330  145.6660 C   0  0  0  0  0  0  0  0  0  0  0  0
  183.7760  178.6650  145.2430 O   0  0  0  0  0  0  0  0  0  0  0  0
  187.7870  177.7300  145.5410 C   0  0  0  0  0  0  0  0  0  0  0  0
  184.0910  178.0760  146.5220 C   0  0  0  0  0  2  0  0  0  0  0  0
  186.9760  178.2580  143.3360 C   0  0  0  0  0  2  0  0  0  0  0  0
  188.1460  177.9050  144.2120 C   0  0  0  0  0  0  0  0  0  0  0  0
  185.8770  178.2570  144.3510 C   0  0  0  0  0  0  0  0  0  0  0  0
  190.4320  177.3980  144.7750 C   0  0  0  0  0  0  0  0  0  0  0  0
  190.0530  177.2110  146.1180 C   0  0  0  0  0  3  0  0  0  0  0  0
  1 10  1  0  0  0  0
  1  5  1  6  0  0  0
  2 15  1  0  0  0  0
  4 21  1  1  0  0  0
  4  5  1  0  0  0  0
  4  8  1  0  0  0  0
  6  8  1  6  0  0  0
  7  6  1  0  0  0  0
  9  3  1  6  0  0  0
  9 11  1  0  0  0  0
  9 10  1  0  0  0  0
 10  6  1  0  0  0  0
 11  7  1  0  0  0  0
 12 13  1  0  0  0  0
 12  2  2  0  0  0  0
 13 14  1  0  0  0  0
 14 16  1  0  0  0  0
 15  3  1  0  0  0  0
 15 17  1  0  0  0  0
 16 17  1  0  0  0  0
 17  1  1  0  0  0  0
 18 13  1  0  0  0  0
 19 18  1  0  0  0  0
 20 19  1  0  0  0  0
 20 18  1  0  0  0  0
 21 33  1  0  0  0  0
 23 31  2  0  0  0  0
 23 33  1  0  0  0  0
 25 32  2  0  0  0  0
 25 27  1  0  0  0  0
 26 24  2  0  0  0  0
 27 29  1  0  0  0  0
 28 26  1  0  0  0  0
 28 22  2  0  0  0  0
 29 24  1  0  0  0  0
 30 31  1  0  0  0  0
 30 32  1  0  0  0  0
 31 28  1  0  0  0  0
 32 26  1  0  0  0  0
 33 34  2  0  0  0  0
 34 22  1  0  0  0  0
M  END
>  <MODEL>
5

>  <REMARK>
 VINA RESULT:      -7.7      1.625      2.469
  Name = 
  3 active torsions:
  status: ('A' for Active; 'I' for Inactive)
    1  A    between atoms: N_3  and  C_25
    2  A    between atoms: C_8  and  C_18
    3  A    between atoms: C_18  and  C_30
                            x       y       z     vdW  Elec       q    Type
                         _______ _______ _______ _____ _____    ______ ____

>  <TORSDO>
F 3

$$$$
=
 OpenBabel11052420373D

 34 41  0  0  1  0  0  0  0  0999 V2000
  189.6800  176.7570  142.6830 C   0  0  2  0  0  3  0  0  0  0  0  0
  188.5730  173.2100  141.8250 C   0  0  0  0  0  3  0  0  0  0  0  0
  187.6710  174.9080  143.3710 C   0  0  0  0  0  2  0  0  0  0  0  0
  189.5150  176.5830  145.1880 C   0  0  2  0  0  3  0  0  0  0  0  0
  190.4190  176.9380  144.0210 C   0  0  0  0  0  2  0  0  0  0  0  0
  187.8220  178.0620  143.9260 C   0  0  1  0  0  3  0  0  0  0  0  0
  186.0270  178.1200  143.9370 S   0  0  0  0  0  0  0  0  0  0  0  0
  188.3230  177.5410  145.2820 C   0  0  0  0  0  2  0  0  0  0  0  0
  187.2330  176.0700  142.5970 N   0  0  2  0  0  0  0  0  0  0  0  0
  188.1880  177.1830  142.7380 C   0  0  2  0  0  3  0  0  0  0  0  0
  185.9420  176.4820  143.1380 C   0  0  0  0  0  2  0  0  0  0  0  0
  189.4680  172.3890  141.2610 C   0  0  0  0  0  3  0  0  0  0  0  0
  190.9460  172.4700  141.5290 C   0  0  2  0  0  3  0  0  0  0  0  0
  191.5040  173.7920  141.0090 C   0  0  0  0  0  2  0  0  0  0  0  0
  188.9490  174.2990  142.7840 C   0  0  2  0  0  3  0  0  0  0  0  0
  191.2950  174.9130  142.0180 C   0  0  0  0  0  2  0  0  0  0  0  0
  189.8320  175.3500  142.0850 C   0  0  2  0  0  3  0  0  0  0  0  0
  191.6160  171.3610  140.8640 N   0  0  0  0  0  0  0  0  0  0  0  0
  192.2280  170.5250  141.9120 C   0  0  0  0  0  2  0  0  0  0  0  0
  190.9620  170.1230  141.3180 C   0  0  0  0  0  2  0  0  0  0  0  0
  190.3040  176.5640  146.4870 C   0  0  0  0  0  2  0  0  0  0  0  0
  194.0330  175.8190  146.4940 C   0  0  0  0  0  3  0  0  0  0  0  0
  191.6160  174.5860  145.6820 C   0  0  0  0  0  3  0  0  0  0  0  0
  196.4300  173.8420  145.7630 C   0  0  0  0  0  3  0  0  0  0  0  0
  195.3010  171.5070  144.6470 N   0  0  0  0  0  0  0  0  0  0  0  0
  195.1280  173.7010  145.5560 C   0  0  0  0  0  0  0  0  0  0  0  0
  196.6690  171.5620  144.8740 O   0  0  0  0  0  0  0  0  0  0  0  0
  194.0210  174.5610  145.8990 C   0  0  0  0  0  0  0  0  0  0  0  0
  197.3560  172.7870  145.2050 C   0  0  0  0  0  2  0  0  0  0  0  0
  193.0720  172.6110  144.8510 C   0  0  0  0  0  2  0  0  0  0  0  0
  192.8420  173.9510  145.4920 C   0  0  0  0  0  0  0  0  0  0  0  0
  194.5640  172.5300  144.9350 C   0  0  0  0  0  0  0  0  0  0  0  0
  191.5990  175.8500  146.2980 C   0  0  0  0  0  0  0  0  0  0  0  0
  192.8030  176.4620  146.6940 C   0  0  0  0  0  3  0  0  0  0  0  0
  1 10  1  0  0  0  0
  1  5  1  1  0  0  0
  2 15  1  0  0  0  0
  4  8  1  0  0  0  0
  4 21  1  1  0  0  0
  5  4  1  0  0  0  0
  6  7  1  0  0  0  0
  6  8  1  1  0  0  0
  9 10  1  0  0  0  0
  9 11  1  1  0  0  0
  9  3  1  0  0  0  0
 10  6  1  0  0  0  0
 11  7  1  0  0  0  0
 12 13  1  0  0  0  0
 12  2  2  0  0  0  0
 14 13  1  0  0  0  0
 14 16  1  0  0  0  0
 15  3  1  0  0  0  0
 16 17  1  0  0  0  0
 17  1  1  0  0  0  0
 17 15  1  0  0  0  0
 18 20  1  0  0  0  0
 18 13  1  0  0  0  0
 18 19  1  0  0  0  0
 20 19  1  0  0  0  0
 22 34  1  0  0  0  0
 23 33  1  0  0  0  0
 25 27  1  0  0  0  0
 25 32  2  0  0  0  0
 26 24  2  0  0  0  0
 26 28  1  0  0  0  0
 27 29  1  0  0  0  0
 28 22  2  0  0  0  0
 29 24  1  0  0  0  0
 30 32  1  0  0  0  0
 30 31  1  0  0  0  0
 31 23  2  0  0  0  0
 31 28  1  0  0  0  0
 32 26  1  0  0  0  0
 33 21  1  0  0  0  0
 33 34  2  0  0  0  0
M  END
>  <MODEL>
6

>  <REMARK>
 VINA RESULT:      -7.7      3.681      7.474
  Name = 
  3 active torsions:
  status: ('A' for Active; 'I' for Inactive)
    1  A    between atoms: N_3  and  C_25
    2  A    between atoms: C_8  and  C_18
    3  A    between atoms: C_18  and  C_30
                            x       y       z     vdW  Elec       q    Type
                         _______ _______ _______ _____ _____    ______ ____

>  <TORSDO>
F 3

$$$$
=
 OpenBabel11052420373D

 34 41  0  0  1  0  0  0  0  0999 V2000
  190.5430  176.0190  143.3000 C   0  0  2  0  0  3  0  0  0  0  0  0
  189.4910  172.3770  143.7230 C   0  0  0  0  0  3  0  0  0  0  0  0
  189.9730  174.1720  145.3470 C   0  0  0  0  0  2  0  0  0  0  0  0
  192.3900  176.0550  145.0080 C   0  0  2  0  0  3  0  0  0  0  0  0
  192.0260  176.3370  143.5620 C   0  0  0  0  0  2  0  0  0  0  0  0
  190.2230  177.3650  145.4870 C   0  0  1  0  0  3  0  0  0  0  0  0
  189.0990  177.3660  146.8880 S   0  0  0  0  0  0  0  0  0  0  0  0
  191.6310  176.9780  145.9660 C   0  0  0  0  0  2  0  0  0  0  0  0
  188.9980  175.2490  145.1670 N   0  0  2  0  0  0  0  0  0  0  0  0
  189.6110  176.4000  144.4810 C   0  0  2  0  0  3  0  0  0  0  0  0
  188.5690  175.6640  146.4990 C   0  0  0  0  0  2  0  0  0  0  0  0
  189.6890  171.5410  142.6970 C   0  0  0  0  0  3  0  0  0  0  0  0
  190.8180  171.6910  141.7140 C   0  0  2  0  0  3  0  0  0  0  0  0
  190.6520  172.9820  140.9150 C   0  0  0  0  0  2  0  0  0  0  0  0
  190.3740  173.5560  144.0020 C   0  0  2  0  0  3  0  0  0  0  0  0
  191.2040  174.1780  141.6800 C   0  0  0  0  0  2  0  0  0  0  0  0
  190.2990  174.5710  142.8470 C   0  0  2  0  0  3  0  0  0  0  0  0
  190.8210  170.5520  140.8070 N   0  0  0  0  0  0  0  0  0  0  0  0
  192.0650  169.7990  141.0520 C   0  0  0  0  0  2  0  0  0  0  0  0
  190.8160  169.3360  141.6380 C   0  0  0  0  0  2  0  0  0  0  0  0
  193.8920  176.1720  145.2110 C   0  0  0  0  0  2  0  0  0  0  0  0
  196.4500  173.4430  145.8950 C   0  0  0  0  0  3  0  0  0  0  0  0
  193.7370  173.6720  145.1160 C   0  0  0  0  0  3  0  0  0  0  0  0
  197.1730  170.3360  146.0120 C   0  0  0  0  0  3  0  0  0  0  0  0
  194.8280  168.8910  145.3910 N   0  0  0  0  0  0  0  0  0  0  0  0
  196.0310  170.9250  145.6790 C   0  0  0  0  0  0  0  0  0  0  0  0
  195.9720  168.2030  145.7730 O   0  0  0  0  0  0  0  0  0  0  0  0
  195.6670  172.3200  145.6440 C   0  0  0  0  0  0  0  0  0  0  0  0
  197.2660  168.8350  145.8670 C   0  0  0  0  0  2  0  0  0  0  0  0
  193.6990  171.0840  145.0130 C   0  0  0  0  0  2  0  0  0  0  0  0
  194.3380  172.4230  145.2560 C   0  0  0  0  0  0  0  0  0  0  0  0
  194.8550  170.1810  145.3100 C   0  0  0  0  0  0  0  0  0  0  0  0
  194.5010  174.8220  145.3820 C   0  0  0  0  0  0  0  0  0  0  0  0
  195.8510  174.7050  145.7630 C   0  0  0  0  0  3  0  0  0  0  0  0
  1  5  1  1  0  0  0
  1 10  1  0  0  0  0
  2 15  1  0  0  0  0
  4 21  1  6  0  0  0
  4  8  1  0  0  0  0
  5  4  1  0  0  0  0
  6  8  1  1  0  0  0
  6  7  1  0  0  0  0
  9  3  1  1  0  0  0
  9 11  1  0  0  0  0
 10  9  1  0  0  0  0
 10  6  1  0  0  0  0
 11  7  1  0  0  0  0
 12  2  2  0  0  0  0
 13 12  1  0  0  0  0
 14 16  1  0  0  0  0
 14 13  1  0  0  0  0
 15  3  1  0  0  0  0
 16 17  1  0  0  0  0
 17  1  1  0  0  0  0
 17 15  1  0  0  0  0
 18 19  1  0  0  0  0
 18 20  1  0  0  0  0
 18 13  1  0  0  0  0
 19 20  1  0  0  0  0
 21 33  1  0  0  0  0
 23 31  2  0  0  0  0
 23 33  1  0  0  0  0
 25 27  1  0  0  0  0
 26 24  2  0  0  0  0
 27 29  1  0  0  0  0
 28 26  1  0  0  0  0
 28 22  2  0  0  0  0
 29 24  1  0  0  0  0
 30 31  1  0  0  0  0
 30 32  1  0  0  0  0
 31 28  1  0  0  0  0
 32 25  2  0  0  0  0
 32 26  1  0  0  0  0
 33 34  2  0  0  0  0
 34 22  1  0  0  0  0
M  END
>  <MODEL>
7

>  <REMARK>
 VINA RESULT:      -7.6      4.356      8.158
  Name = 
  3 active torsions:
  status: ('A' for Active; 'I' for Inactive)
    1  A    between atoms: N_3  and  C_25
    2  A    between atoms: C_8  and  C_18
    3  A    between atoms: C_18  and  C_30
                            x       y       z     vdW  Elec       q    Type
                         _______ _______ _______ _____ _____    ______ ____

>  <TORSDO>
F 3

$$$$
=
 OpenBabel11052420373D

 34 41  0  0  1  0  0  0  0  0999 V2000
  196.4300  174.0340  144.6760 C   0  0  2  0  0  3  0  0  0  0  0  0
  194.4510  170.8750  143.8720 C   0  0  0  0  0  3  0  0  0  0  0  0
  194.0300  173.2640  143.4200 C   0  0  0  0  0  2  0  0  0  0  0  0
  194.5290  175.4280  145.5580 C   0  0  2  0  0  3  0  0  0  0  0  0
  195.9160  174.8830  145.8520 C   0  0  0  0  0  2  0  0  0  0  0  0
  195.5940  176.0600  143.2980 C   0  0  1  0  0  3  0  0  0  0  0  0
  194.8880  176.3540  141.6720 S   0  0  0  0  0  0  0  0  0  0  0  0
  194.5510  176.3980  144.3740 C   0  0  0  0  0  2  0  0  0  0  0  0
  195.0810  173.7720  142.5360 N   0  0  2  0  0  0  0  0  0  0  0  0
  196.0380  174.6030  143.2850 C   0  0  2  0  0  3  0  0  0  0  0  0
  194.4260  174.5950  141.5240 C   0  0  0  0  0  2  0  0  0  0  0  0
  194.7140  169.7690  144.5790 C   0  0  0  0  0  3  0  0  0  0  0  0
  195.1810  169.7950  146.0090 C   0  0  2  0  0  3  0  0  0  0  0  0
  196.5580  170.4470  146.1020 C   0  0  0  0  0  2  0  0  0  0  0  0
  194.5930  172.2580  144.4310 C   0  0  2  0  0  3  0  0  0  0  0  0
  196.4460  171.9650  146.1480 C   0  0  0  0  0  2  0  0  0  0  0  0
  196.0630  172.5470  144.7870 C   0  0  2  0  0  3  0  0  0  0  0  0
  195.2510  168.4310  146.5170 N   0  0  0  0  0  0  0  0  0  0  0  0
  195.1950  168.5070  147.9880 C   0  0  0  0  0  2  0  0  0  0  0  0
  193.9940  168.1720  147.2380 C   0  0  0  0  0  2  0  0  0  0  0  0
  193.9440  176.0880  146.7960 C   0  0  0  0  0  2  0  0  0  0  0  0
  190.2060  175.7500  147.4070 C   0  0  0  0  0  3  0  0  0  0  0  0
  191.9590  177.0120  145.5750 C   0  0  0  0  0  3  0  0  0  0  0  0
  187.2150  176.4270  146.5200 C   0  0  0  0  0  3  0  0  0  0  0  0
  187.3570  178.1290  144.2720 N   0  0  0  0  0  0  0  0  0  0  0  0
  188.3630  176.7820  145.9570 C   0  0  0  0  0  0  0  0  0  0  0  0
  186.1200  177.8400  144.8310 O   0  0  0  0  0  0  0  0  0  0  0  0
  189.7260  176.5150  146.3490 C   0  0  0  0  0  0  0  0  0  0  0  0
  185.9340  176.7990  145.8130 C   0  0  0  0  0  2  0  0  0  0  0  0
  189.8390  177.8820  144.3690 C   0  0  0  0  0  2  0  0  0  0  0  0
  190.5770  177.1330  145.4430 C   0  0  0  0  0  0  0  0  0  0  0  0
  188.4260  177.6050  144.7770 C   0  0  0  0  0  0  0  0  0  0  0  0
  192.4700  176.2590  146.6470 C   0  0  0  0  0  0  0  0  0  0  0  0
  191.5960  175.6280  147.5510 C   0  0  0  0  0  3  0  0  0  0  0  0
  1 17  1  0  0  0  0
  1  5  1  1  0  0  0
  2 15  1  0  0  0  0
  2 12  2  0  0  0  0
  3 15  1  0  0  0  0
  4  5  1  0  0  0  0
  4 21  1  1  0  0  0
  6  8  1  1  0  0  0
  7  6  1  0  0  0  0
  8  4  1  0  0  0  0
  9 11  1  6  0  0  0
  9 10  1  0  0  0  0
  9  3  1  0  0  0  0
 10  6  1  0  0  0  0
 10  1  1  0  0  0  0
 11  7  1  0  0  0  0
 12 13  1  0  0  0  0
 13 14  1  0  0  0  0
 13 18  1  0  0  0  0
 14 16  1  0  0  0  0
 15 17  1  0  0  0  0
 17 16  1  0  0  0  0
 18 20  1  0  0  0  0
 18 19  1  0  0  0  0
 20 19  1  0  0  0  0
 22 34  1  0  0  0  0
 23 33  1  0  0  0  0
 25 32  2  0  0  0  0
 25 27  1  0  0  0  0
 26 28  1  0  0  0  0
 26 24  2  0  0  0  0
 27 29  1  0  0  0  0
 28 22  2  0  0  0  0
 29 24  1  0  0  0  0
 30 32  1  0  0  0  0
 30 31  1  0  0  0  0
 31 23  2  0  0  0  0
 31 28  1  0  0  0  0
 32 26  1  0  0  0  0
 33 21  1  0  0  0  0
 33 34  2  0  0  0  0
M  END
>  <MODEL>
8

>  <REMARK>
 VINA RESULT:      -7.5      3.616      5.982
  Name = 
  3 active torsions:
  status: ('A' for Active; 'I' for Inactive)
    1  A    between atoms: N_3  and  C_25
    2  A    between atoms: C_8  and  C_18
    3  A    between atoms: C_18  and  C_30
                            x       y       z     vdW  Elec       q    Type
                         _______ _______ _______ _____ _____    ______ ____

>  <TORSDO>
F 3

$$$$
=
 OpenBabel11052420373D

 34 41  0  0  1  0  0  0  0  0999 V2000
  191.8890  173.3390  141.1150 C   0  0  2  0  0  3  0  0  0  0  0  0
  190.9580  173.0550  144.8030 C   0  0  0  0  0  3  0  0  0  0  0  0
  190.1830  171.8530  142.7910 C   0  0  0  0  0  2  0  0  0  0  0  0
  189.5600  173.3340  140.1600 C   0  0  2  0  0  3  0  0  0  0  0  0
  190.8840  174.0750  140.2110 C   0  0  0  0  0  2  0  0  0  0  0  0
  191.0740  171.2860  139.7650 C   0  0  1  0  0  3  0  0  0  0  0  0
  190.8260  169.5300  140.0470 S   0  0  0  0  0  0  0  0  0  0  0  0
  189.7160  171.9570  139.5090 C   0  0  0  0  0  2  0  0  0  0  0  0
  191.3100  171.1190  142.2140 N   0  0  2  0  0  0  0  0  0  0  0  0
  191.8050  171.7930  141.0010 C   0  0  2  0  0  3  0  0  0  0  0  0
  190.8160  169.7930  141.8530 C   0  0  0  0  0  2  0  0  0  0  0  0
  191.2350  174.0900  145.6040 C   0  0  0  0  0  3  0  0  0  0  0  0
  191.2490  175.5180  145.1340 C   0  0  2  0  0  3  0  0  0  0  0  0
  192.3650  175.7270  144.1140 C   0  0  0  0  0  2  0  0  0  0  0  0
  190.6300  173.2090  143.3480 C   0  0  2  0  0  3  0  0  0  0  0  0
  191.9210  175.3080  142.7190 C   0  0  0  0  0  2  0  0  0  0  0  0
  191.8350  173.7880  142.5830 C   0  0  2  0  0  3  0  0  0  0  0  0
  191.4600  176.3980  146.2750 N   0  0  0  0  0  0  0  0  0  0  0  0
  190.2170  177.1660  146.4750 C   0  0  0  0  0  2  0  0  0  0  0  0
  190.4890  176.0070  147.3110 C   0  0  0  0  0  2  0  0  0  0  0  0
  188.5130  174.1660  139.4390 C   0  0  0  0  0  2  0  0  0  0  0  0
  186.6910  177.2600  140.6900 C   0  0  0  0  0  3  0  0  0  0  0  0
  188.1200  175.0550  141.7490 C   0  0  0  0  0  3  0  0  0  0  0  0
  185.7630  179.0870  143.1380 C   0  0  0  0  0  3  0  0  0  0  0  0
  186.6060  177.8200  145.5160 N   0  0  0  0  0  0  0  0  0  0  0  0
  186.4710  177.9650  143.1440 C   0  0  0  0  0  0  0  0  0  0  0  0
  185.8300  178.9690  145.5930 O   0  0  0  0  0  0  0  0  0  0  0  0
  186.8810  177.1050  142.0600 C   0  0  0  0  0  0  0  0  0  0  0  0
  185.5660  179.8090  144.4500 C   0  0  0  0  0  2  0  0  0  0  0  0
  187.6880  176.0830  144.0870 C   0  0  0  0  0  2  0  0  0  0  0  0
  187.5840  176.0310  142.5880 C   0  0  0  0  0  0  0  0  0  0  0  0
  186.9450  177.3550  144.3580 C   0  0  0  0  0  0  0  0  0  0  0  0
  187.9260  175.1790  140.3620 C   0  0  0  0  0  0  0  0  0  0  0  0
  187.2210  176.2790  139.8390 C   0  0  0  0  0  3  0  0  0  0  0  0
  1  5  1  6  0  0  0
  1 17  1  0  0  0  0
  2 12  2  0  0  0  0
  3 15  1  0  0  0  0
  4 21  1  6  0  0  0
  4  5  1  0  0  0  0
  6  8  1  1  0  0  0
  6  7  1  0  0  0  0
  6 10  1  0  0  0  0
  7 11  1  0  0  0  0
  8  4  1  0  0  0  0
  9 11  1  6  0  0  0
  9  3  1  0  0  0  0
 10  1  1  0  0  0  0
 10  9  1  0  0  0  0
 13 12  1  0  0  0  0
 13 18  1  0  0  0  0
 14 13  1  0  0  0  0
 15  2  1  0  0  0  0
 16 14  1  0  0  0  0
 17 16  1  0  0  0  0
 17 15  1  0  0  0  0
 18 19  1  0  0  0  0
 18 20  1  0  0  0  0
 19 20  1  0  0  0  0
 21 33  1  0  0  0  0
 22 28  1  0  0  0  0
 23 31  1  0  0  0  0
 24 26  2  0  0  0  0
 24 29  1  0  0  0  0
 25 27  1  0  0  0  0
 26 32  1  0  0  0  0
 28 31  2  0  0  0  0
 28 26  1  0  0  0  0
 29 27  1  0  0  0  0
 30 32  1  0  0  0  0
 31 30  1  0  0  0  0
 32 25  2  0  0  0  0
 33 23  2  0  0  0  0
 34 33  1  0  0  0  0
 34 22  2  0  0  0  0
M  END
>  <MODEL>
9

>  <REMARK>
 VINA RESULT:      -7.4      2.617      5.349
  Name = 
  3 active torsions:
  status: ('A' for Active; 'I' for Inactive)
    1  A    between atoms: N_3  and  C_25
    2  A    between atoms: C_8  and  C_18
    3  A    between atoms: C_18  and  C_30
                            x       y       z     vdW  Elec       q    Type
                         _______ _______ _______ _____ _____    ______ ____

>  <TORSDO>
F 3

$$$$
