=
 OpenBabel11052417313D

 25 28  0  0  1  0  0  0  0  0999 V2000
  186.3940  177.5760  143.9680 C   0  0  0  0  0  0  0  0  0  0  0  0
  185.8910  178.1840  142.7000 C   0  0  0  0  0  0  0  0  0  0  0  0
  188.0790  176.2500  142.8610 C   0  0  0  0  0  3  0  0  0  0  0  0
  186.1980  177.8830  145.2360 C   0  0  0  0  0  0  0  0  0  0  0  0
  186.2220  178.2160  147.9880 C   0  0  0  0  0  3  0  0  0  0  0  0
  187.4660  176.6050  141.6020 N   0  0  0  0  0  0  0  0  0  0  0  0
  187.1310  177.1990  146.0100 C   0  0  0  0  0  0  0  0  0  0  0  0
  187.1580  177.3490  147.3960 C   0  0  0  0  0  3  0  0  0  0  0  0
  185.7560  177.6260  140.2200 C   0  0  0  0  0  0  0  0  0  0  0  0
  186.4230  177.3300  138.9210 C   0  0  0  0  0  1  0  0  0  0  0  0
  184.4280  178.2380  142.6490 N   0  0  0  0  0  0  0  0  0  0  0  0
  185.2920  178.9210  147.1950 C   0  0  0  0  0  3  0  0  0  0  0  0
  187.5300  176.7000  143.9840 C   0  0  0  0  0  0  0  0  0  0  0  0
  187.9640  176.4760  145.3230 N   0  0  0  0  0  0  0  0  0  0  0  0
  184.4760  178.0070  140.2380 C   0  0  0  0  0  3  0  0  0  0  0  0
  185.2760  178.7620  145.8000 C   0  0  0  0  0  3  0  0  0  0  0  0
  183.7710  178.2340  141.5210 C   0  0  0  0  0  0  0  0  0  0  0  0
  186.4530  177.4320  141.5010 C   0  0  1  0  0  3  0  0  0  0  0  0
  182.3140  178.3730  141.5110 C   0  0  0  0  0  3  0  0  0  0  0  0
  181.6310  178.1950  140.4260 N   0  0  0  0  0  0  0  0  0  0  0  0
  180.1830  178.3400  140.4220 C   0  0  0  0  0  2  0  0  0  0  0  0
  179.6240  178.2370  141.8350 C   0  0  0  0  0  2  0  0  0  0  0  0
  178.5620  177.1950  141.9190 C   0  0  0  0  0  0  0  0  0  0  0  0
  177.9320  176.7500  140.7650 O   0  0  0  0  0  0  0  0  0  0  0  0
  178.2210  176.7290  143.0370 O   0  0  0  0  0  1  0  0  0  0  0  0
  1 13  1  0  0  0  0
  1  4  1  0  0  0  0
  2  1  2  0  0  0  0
  3 13  1  0  0  0  0
  4 16  2  0  0  0  0
  4  7  1  0  0  0  0
  6  3  2  0  0  0  0
  7  8  2  0  0  0  0
  8  5  1  0  0  0  0
  9 15  2  0  0  0  0
 10  9  1  0  0  0  0
 11  2  1  0  0  0  0
 12  5  2  0  0  0  0
 13 14  2  0  0  0  0
 14  7  1  0  0  0  0
 15 17  1  0  0  0  0
 16 12  1  0  0  0  0
 17 11  2  0  0  0  0
 18  9  1  1  0  0  0
 18  6  1  0  0  0  0
 18  2  1  0  0  0  0
 19 17  1  0  0  0  0
 20 19  2  0  0  0  0
 21 20  1  0  0  0  0
 21 22  1  0  0  0  0
 22 23  1  0  0  0  0
 23 25  1  0  0  0  0
 24 23  2  0  0  0  0
M  END
>  <MODEL>
1

>  <REMARK>
 VINA RESULT:      -7.6      0.000      0.000
  Name = 
  4 active torsions:
  status: ('A' for Active; 'I' for Inactive)
    1  A    between atoms: C_2  and  C_25
    2  A    between atoms: C_6  and  C_23
    3  A    between atoms: N_15  and  C_21
    4  A    between atoms: C_21  and  C_25
                            x       y       z     vdW  Elec       q    Type
                         _______ _______ _______ _____ _____    ______ ____

>  <TORSDO>
F 4

$$$$
=
 OpenBabel11052417313D

 25 28  0  0  1  0  0  0  0  0999 V2000
  186.5300  176.8750  143.2740 C   0  0  0  0  0  0  0  0  0  0  0  0
  187.4080  175.6720  143.1610 C   0  0  0  0  0  0  0  0  0  0  0  0
  186.4610  177.2570  140.8930 C   0  0  0  0  0  3  0  0  0  0  0  0
  185.8140  177.3580  144.2720 C   0  0  0  0  0  0  0  0  0  0  0  0
  184.0590  178.6580  145.9790 C   0  0  0  0  0  3  0  0  0  0  0  0
  187.5070  176.2720  140.7500 N   0  0  0  0  0  0  0  0  0  0  0  0
  184.9440  178.3220  143.7700 C   0  0  2  0  0  3  0  0  0  0  0  0
  184.0560  178.9910  144.6120 C   0  0  0  0  0  3  0  0  0  0  0  0
  189.1660  174.7160  141.5880 C   0  0  0  0  0  0  0  0  0  0  0  0
  189.5580  174.1870  140.2520 C   0  0  0  0  0  1  0  0  0  0  0  0
  188.4710  175.6600  144.1690 N   0  0  0  0  0  0  0  0  0  0  0  0
  184.9300  177.6660  146.4760 C   0  0  0  0  0  3  0  0  0  0  0  0
  186.0290  177.5540  142.1140 C   0  0  0  0  0  0  0  0  0  0  0  0
  185.0170  178.4860  142.4830 N   0  0  0  0  0  0  0  0  0  0  0  0
  189.9350  174.4670  142.6520 C   0  0  0  0  0  3  0  0  0  0  0  0
  185.8190  176.9980  145.6180 C   0  0  0  0  0  3  0  0  0  0  0  0
  189.6050  175.0450  143.9760 C   0  0  0  0  0  0  0  0  0  0  0  0
  187.9860  175.5780  141.7550 C   0  0  0  0  0  0  0  0  0  0  0  0
  190.6080  174.9850  145.0410 C   0  0  0  0  0  3  0  0  0  0  0  0
  190.7830  175.9780  145.8520 N   0  0  0  0  0  0  0  0  0  0  0  0
  191.7850  175.9140  146.9050 C   0  0  0  0  0  2  0  0  0  0  0  0
  192.9580  175.0360  146.4860 C   0  0  0  0  0  2  0  0  0  0  0  0
  194.2310  175.8110  146.4630 C   0  0  0  0  0  0  0  0  0  0  0  0
  194.2410  177.1410  146.8630 O   0  0  0  0  0  1  0  0  0  0  0  0
  195.2930  175.2690  146.0630 O   0  0  0  0  0  0  0  0  0  0  0  0
  1  4  2  0  0  0  0
  2  1  1  0  0  0  0
  2 11  1  0  0  0  0
  3 13  1  0  0  0  0
  4 16  1  0  0  0  0
  5 12  1  0  0  0  0
  6  3  2  0  0  0  0
  6 18  1  0  0  0  0
  7  4  1  0  0  0  0
  7  8  1  6  0  0  0
  8  5  2  0  0  0  0
  9 18  1  0  0  0  0
  9 15  2  0  0  0  0
 10  9  1  0  0  0  0
 13 14  2  0  0  0  0
 13  1  1  0  0  0  0
 14  7  1  0  0  0  0
 15 17  1  0  0  0  0
 16 12  2  0  0  0  0
 17 11  2  0  0  0  0
 17 19  1  0  0  0  0
 18  2  2  0  0  0  0
 19 20  2  0  0  0  0
 20 21  1  0  0  0  0
 22 21  1  0  0  0  0
 23 22  1  0  0  0  0
 23 24  1  0  0  0  0
 25 23  2  0  0  0  0
M  END
>  <MODEL>
2

>  <REMARK>
 VINA RESULT:      -7.4      5.501      8.349
  Name = 
  4 active torsions:
  status: ('A' for Active; 'I' for Inactive)
    1  A    between atoms: C_2  and  C_25
    2  A    between atoms: C_6  and  C_23
    3  A    between atoms: N_15  and  C_21
    4  A    between atoms: C_21  and  C_25
                            x       y       z     vdW  Elec       q    Type
                         _______ _______ _______ _____ _____    ______ ____

>  <TORSDO>
F 4

$$$$
=
 OpenBabel11052417313D

 25 28  0  0  1  0  0  0  0  0999 V2000
  187.0470  177.0660  143.3500 C   0  0  0  0  0  0  0  0  0  0  0  0
  187.5350  175.7120  142.9530 C   0  0  0  0  0  0  0  0  0  0  0  0
  186.6890  177.7890  141.0750 C   0  0  0  0  0  3  0  0  0  0  0  0
  186.6640  177.5650  144.5100 C   0  0  0  0  0  0  0  0  0  0  0  0
  185.6360  179.0030  146.6440 C   0  0  0  0  0  3  0  0  0  0  0  0
  187.3900  176.6050  140.6370 N   0  0  0  0  0  0  0  0  0  0  0  0
  186.0160  178.7760  144.2830 C   0  0  2  0  0  3  0  0  0  0  0  0
  185.4960  179.5180  145.3420 C   0  0  0  0  0  3  0  0  0  0  0  0
  188.6820  174.5820  140.9810 C   0  0  0  0  0  0  0  0  0  0  0  0
  188.6880  174.1690  139.5500 C   0  0  0  0  0  1  0  0  0  0  0  0
  188.7070  175.2920  143.7250 N   0  0  0  0  0  0  0  0  0  0  0  0
  186.2760  177.7660  146.8640 C   0  0  0  0  0  3  0  0  0  0  0  0
  186.5630  178.0070  142.3800 C   0  0  0  0  0  0  0  0  0  0  0  0
  185.9160  179.0980  143.0280 N   0  0  0  0  0  0  0  0  0  0  0  0
  189.5200  174.0020  141.8430 C   0  0  0  0  0  3  0  0  0  0  0  0
  186.7950  177.0280  145.7880 C   0  0  0  0  0  3  0  0  0  0  0  0
  189.5840  174.4490  143.2540 C   0  0  0  0  0  0  0  0  0  0  0  0
  187.8240  175.6780  141.4580 C   0  0  0  0  0  0  0  0  0  0  0  0
  190.6960  173.9910  144.0890 C   0  0  0  0  0  3  0  0  0  0  0  0
  191.6500  174.7940  144.4340 N   0  0  0  0  0  0  0  0  0  0  0  0
  192.7550  174.3320  145.2600 C   0  0  0  0  0  2  0  0  0  0  0  0
  192.9170  175.2140  146.4910 C   0  0  0  0  0  2  0  0  0  0  0  0
  194.2280  175.9250  146.4760 C   0  0  0  0  0  0  0  0  0  0  0  0
  195.3840  175.2410  146.1260 O   0  0  0  0  0  0  0  0  0  0  0  0
  194.2910  177.1390  146.7980 O   0  0  0  0  0  1  0  0  0  0  0  0
  1  4  2  0  0  0  0
  2  1  1  0  0  0  0
  2 11  1  0  0  0  0
  3 13  1  0  0  0  0
  4 16  1  0  0  0  0
  5 12  1  0  0  0  0
  6  3  2  0  0  0  0
  6 18  1  0  0  0  0
  7  4  1  0  0  0  0
  7  8  1  6  0  0  0
  8  5  2  0  0  0  0
  9 18  1  0  0  0  0
  9 15  2  0  0  0  0
 10  9  1  0  0  0  0
 13 14  2  0  0  0  0
 13  1  1  0  0  0  0
 14  7  1  0  0  0  0
 15 17  1  0  0  0  0
 16 12  2  0  0  0  0
 17 11  2  0  0  0  0
 17 19  1  0  0  0  0
 18  2  2  0  0  0  0
 19 20  2  0  0  0  0
 20 21  1  0  0  0  0
 21 22  1  0  0  0  0
 23 22  1  0  0  0  0
 23 25  1  0  0  0  0
 24 23  2  0  0  0  0
M  END
>  <MODEL>
3

>  <REMARK>
 VINA RESULT:      -7.4      5.701      8.335
  Name = 
  4 active torsions:
  status: ('A' for Active; 'I' for Inactive)
    1  A    between atoms: C_2  and  C_25
    2  A    between atoms: C_6  and  C_23
    3  A    between atoms: N_15  and  C_21
    4  A    between atoms: C_21  and  C_25
                            x       y       z     vdW  Elec       q    Type
                         _______ _______ _______ _____ _____    ______ ____

>  <TORSDO>
F 4

$$$$
=
 OpenBabel11052417313D

 25 28  0  0  1  0  0  0  0  0999 V2000
  186.9860  176.9670  144.4510 C   0  0  0  0  0  0  0  0  0  0  0  0
  188.1440  176.0410  144.2720 C   0  0  0  0  0  0  0  0  0  0  0  0
  186.2180  176.7150  142.1770 C   0  0  0  0  0  3  0  0  0  0  0  0
  186.4200  177.4800  145.5260 C   0  0  0  0  0  0  0  0  0  0  0  0
  184.8180  178.6660  147.4520 C   0  0  0  0  0  3  0  0  0  0  0  0
  187.4540  176.0280  141.8840 N   0  0  0  0  0  0  0  0  0  0  0  0
  185.1940  178.0330  145.1660 C   0  0  2  0  0  3  0  0  0  0  0  0
  184.3750  178.6380  146.1170 C   0  0  0  0  0  3  0  0  0  0  0  0
  189.6730  175.2100  142.4150 C   0  0  0  0  0  0  0  0  0  0  0  0
  189.8730  174.4860  141.1280 C   0  0  0  0  0  1  0  0  0  0  0  0
  189.3680  176.5530  144.8930 N   0  0  0  0  0  0  0  0  0  0  0  0
  186.0520  178.0870  147.8130 C   0  0  0  0  0  3  0  0  0  0  0  0
  186.0270  177.1840  143.4050 C   0  0  0  0  0  0  0  0  0  0  0  0
  184.8940  177.8860  143.9090 N   0  0  0  0  0  0  0  0  0  0  0  0
  190.7170  175.4390  143.2160 C   0  0  0  0  0  3  0  0  0  0  0  0
  186.8680  177.4790  146.8450 C   0  0  0  0  0  3  0  0  0  0  0  0
  190.5550  176.2220  144.4630 C   0  0  0  0  0  0  0  0  0  0  0  0
  188.3590  175.7530  142.7920 C   0  0  0  0  0  0  0  0  0  0  0  0
  191.7530  176.6880  145.1630 C   0  0  0  0  0  3  0  0  0  0  0  0
  192.3500  175.9470  146.0400 N   0  0  0  0  0  0  0  0  0  0  0  0
  193.5370  176.4190  146.7360 C   0  0  0  0  0  2  0  0  0  0  0  0
  194.4870  177.1200  145.7730 C   0  0  0  0  0  2  0  0  0  0  0  0
  195.3300  176.1370  145.0350 C   0  0  0  0  0  0  0  0  0  0  0  0
  195.6770  174.9330  145.6340 O   0  0  0  0  0  1  0  0  0  0  0  0
  195.7430  176.4030  143.8770 O   0  0  0  0  0  0  0  0  0  0  0  0
  1  4  2  0  0  0  0
  2  1  1  0  0  0  0
  2 11  1  0  0  0  0
  3 13  1  0  0  0  0
  4 16  1  0  0  0  0
  5 12  1  0  0  0  0
  6  3  2  0  0  0  0
  6 18  1  0  0  0  0
  7  4  1  0  0  0  0
  7  8  1  1  0  0  0
  8  5  2  0  0  0  0
  9 18  1  0  0  0  0
  9 15  2  0  0  0  0
 10  9  1  0  0  0  0
 13 14  2  0  0  0  0
 13  1  1  0  0  0  0
 14  7  1  0  0  0  0
 15 17  1  0  0  0  0
 16 12  2  0  0  0  0
 17 11  2  0  0  0  0
 17 19  1  0  0  0  0
 18  2  2  0  0  0  0
 19 20  2  0  0  0  0
 20 21  1  0  0  0  0
 22 21  1  0  0  0  0
 23 24  1  0  0  0  0
 23 22  1  0  0  0  0
 25 23  2  0  0  0  0
M  END
>  <MODEL>
4

>  <REMARK>
 VINA RESULT:      -7.1      5.856      8.769
  Name = 
  4 active torsions:
  status: ('A' for Active; 'I' for Inactive)
    1  A    between atoms: C_2  and  C_25
    2  A    between atoms: C_6  and  C_23
    3  A    between atoms: N_15  and  C_21
    4  A    between atoms: C_21  and  C_25
                            x       y       z     vdW  Elec       q    Type
                         _______ _______ _______ _____ _____    ______ ____

>  <TORSDO>
F 4

$$$$
=
 OpenBabel11052417313D

 25 28  0  0  0  0  0  0  0  0999 V2000
  187.3760  176.6340  145.2590 C   0  0  0  0  0  0  0  0  0  0  0  0
  188.5680  176.3170  144.4180 C   0  0  0  0  0  0  0  0  0  0  0  0
  188.3270  175.6850  147.2630 C   0  0  0  0  0  3  0  0  0  0  0  0
  186.3310  177.4140  145.0560 C   0  0  0  0  0  0  0  0  0  0  0  0
  184.0690  179.0130  145.1660 C   0  0  0  0  0  3  0  0  0  0  0  0
  189.3800  175.1300  146.4460 N   0  0  0  0  0  0  0  0  0  0  0  0
  185.6680  177.5960  146.2660 C   0  0  0  0  0  0  0  0  0  0  0  0
  184.5260  178.3920  146.3430 C   0  0  0  0  0  3  0  0  0  0  0  0
  190.4730  174.6300  144.3410 C   0  0  0  0  0  0  0  0  0  0  0  0
  191.6890  174.0210  144.9490 C   0  0  0  0  0  1  0  0  0  0  0  0
  188.1980  175.7850  143.1040 N   0  0  0  0  0  2  0  0  0  0  0  0
  184.7580  178.8390  143.9480 C   0  0  0  0  0  3  0  0  0  0  0  0
  187.3590  176.3760  146.6700 C   0  0  0  0  0  0  0  0  0  0  0  0
  186.2340  177.0050  147.2760 N   0  0  0  0  0  0  0  0  0  0  0  0
  190.2250  174.4590  143.0400 C   0  0  0  0  0  3  0  0  0  0  0  0
  185.9080  178.0360  143.8830 C   0  0  0  0  0  3  0  0  0  0  0  0
  188.9850  174.9920  142.4290 C   0  0  0  0  0  0  0  0  0  0  0  0
  189.4890  175.3550  145.1580 C   0  0  0  0  0  0  0  0  0  0  0  0
  188.6150  174.5500  141.0840 C   0  0  0  0  0  3  0  0  0  0  0  0
  188.5540  173.2920  140.7840 N   0  0  0  0  0  0  0  0  0  0  0  0
  188.1900  172.8590  139.4440 C   0  0  0  0  0  2  0  0  0  0  0  0
  189.3000  173.1790  138.4510 C   0  0  0  0  0  2  0  0  0  0  0  0
  188.8450  174.1680  137.4320 C   0  0  0  0  0  0  0  0  0  0  0  0
  187.6740  174.8860  137.6370 O   0  0  0  0  0  1  0  0  0  0  0  0
  189.5090  174.3410  136.3780 O   0  0  0  0  0  0  0  0  0  0  0  0
  1 13  1  0  0  0  0
  2 18  1  0  0  0  0
  2  1  2  0  0  0  0
  4  1  1  0  0  0  0
  4  7  1  0  0  0  0
  5  8  1  0  0  0  0
  6  3  2  0  0  0  0
  7  8  2  0  0  0  0
  7 14  1  0  0  0  0
  9 10  1  0  0  0  0
  9 18  2  0  0  0  0
 11  2  1  0  0  0  0
 12  5  2  0  0  0  0
 13  3  1  0  0  0  0
 13 14  2  0  0  0  0
 15  9  1  0  0  0  0
 16 12  1  0  0  0  0
 16  4  2  0  0  0  0
 17 15  2  0  0  0  0
 17 11  1  0  0  0  0
 18  6  1  0  0  0  0
 19 17  1  0  0  0  0
 20 19  2  0  0  0  0
 21 20  1  0  0  0  0
 22 21  1  0  0  0  0
 23 24  1  0  0  0  0
 23 22  1  0  0  0  0
 25 23  2  0  0  0  0
M  END
>  <MODEL>
5

>  <REMARK>
 VINA RESULT:      -6.9      4.517      6.802
  Name = 
  4 active torsions:
  status: ('A' for Active; 'I' for Inactive)
    1  A    between atoms: C_2  and  C_25
    2  A    between atoms: C_6  and  C_23
    3  A    between atoms: N_15  and  C_21
    4  A    between atoms: C_21  and  C_25
                            x       y       z     vdW  Elec       q    Type
                         _______ _______ _______ _____ _____    ______ ____

>  <TORSDO>
F 4

$$$$
=
 OpenBabel11052417313D

 25 28  0  0  1  0  0  0  0  0999 V2000
  188.2440  176.2950  144.0060 C   0  0  0  0  0  0  0  0  0  0  0  0
  186.9330  176.6070  144.6520 C   0  0  2  0  0  3  0  0  0  0  0  0
  189.5460  177.2610  145.7940 C   0  0  0  0  0  3  0  0  0  0  0  0
  188.5680  175.5130  142.9940 C   0  0  0  0  0  0  0  0  0  0  0  0
  189.7540  173.9140  141.0660 C   0  0  0  0  0  3  0  0  0  0  0  0
  188.3220  177.8100  146.3280 N   0  0  0  0  0  0  0  0  0  0  0  0
  189.9490  175.3400  142.9890 C   0  0  0  0  0  0  0  0  0  0  0  0
  190.5660  174.5440  142.0260 C   0  0  0  0  0  3  0  0  0  0  0  0
  185.9470  178.2940  146.2830 C   0  0  0  0  0  0  0  0  0  0  0  0
  185.8980  178.9090  147.6390 C   0  0  0  0  0  1  0  0  0  0  0  0
  185.9510  177.1290  143.6990 N   0  0  0  0  0  0  0  0  0  0  0  0
  188.3530  174.0790  141.0890 C   0  0  0  0  0  3  0  0  0  0  0  0
  189.4900  176.5640  144.6630 C   0  0  0  0  0  0  0  0  0  0  0  0
  190.5630  175.9390  143.9660 N   0  0  0  0  0  0  0  0  0  0  0  0
  184.9200  178.4550  145.4440 C   0  0  0  0  0  3  0  0  0  0  0  0
  187.7430  174.8820  142.0660 C   0  0  0  0  0  3  0  0  0  0  0  0
  184.9780  177.9170  144.0650 C   0  0  0  0  0  0  0  0  0  0  0  0
  187.1390  177.5740  145.8100 C   0  0  0  0  0  0  0  0  0  0  0  0
  183.9690  178.3490  143.0960 C   0  0  0  0  0  3  0  0  0  0  0  0
  183.9820  177.9170  141.8770 N   0  0  0  0  0  0  0  0  0  0  0  0
  182.9800  178.3540  140.9170 C   0  0  0  0  0  2  0  0  0  0  0  0
  181.5930  178.3610  141.5480 C   0  0  0  0  0  2  0  0  0  0  0  0
  180.5670  178.8620  140.5890 C   0  0  0  0  0  0  0  0  0  0  0  0
  179.8960  177.9710  139.7630 O   0  0  0  0  0  0  0  0  0  0  0  0
  180.3210  180.0930  140.5130 O   0  0  0  0  0  1  0  0  0  0  0  0
  1  2  1  0  0  0  0
  1 13  1  0  0  0  0
  2 11  1  6  0  0  0
  2 18  1  0  0  0  0
  3  6  1  0  0  0  0
  4  1  2  0  0  0  0
  5 12  1  0  0  0  0
  5  8  2  0  0  0  0
  7  4  1  0  0  0  0
  7 14  2  0  0  0  0
  8  7  1  0  0  0  0
  9 10  1  0  0  0  0
 11 17  2  0  0  0  0
 12 16  2  0  0  0  0
 13  3  2  0  0  0  0
 14 13  1  0  0  0  0
 15  9  2  0  0  0  0
 16  4  1  0  0  0  0
 17 15  1  0  0  0  0
 18  9  1  0  0  0  0
 18  6  2  0  0  0  0
 19 17  1  0  0  0  0
 20 19  2  0  0  0  0
 21 22  1  0  0  0  0
 21 20  1  0  0  0  0
 23 22  1  0  0  0  0
 24 23  2  0  0  0  0
 25 23  1  0  0  0  0
M  END
>  <MODEL>
6

>  <REMARK>
 VINA RESULT:      -6.9      2.018      4.768
  Name = 
  4 active torsions:
  status: ('A' for Active; 'I' for Inactive)
    1  A    between atoms: C_2  and  C_25
    2  A    between atoms: C_6  and  C_23
    3  A    between atoms: N_15  and  C_21
    4  A    between atoms: C_21  and  C_25
                            x       y       z     vdW  Elec       q    Type
                         _______ _______ _______ _____ _____    ______ ____

>  <TORSDO>
F 4

$$$$
=
 OpenBabel11052417313D

 25 28  0  0  1  0  0  0  0  0999 V2000
  187.4340  177.4530  144.3660 C   0  0  0  0  0  0  0  0  0  0  0  0
  188.8970  177.5870  144.6360 C   0  0  2  0  0  3  0  0  0  0  0  0
  186.8650  177.1180  146.6870 C   0  0  0  0  0  3  0  0  0  0  0  0
  186.7020  177.7250  143.3030 C   0  0  0  0  0  0  0  0  0  0  0  0
  184.7460  178.2710  141.4170 C   0  0  0  0  0  3  0  0  0  0  0  0
  188.2760  176.9810  146.9660 N   0  0  0  0  0  0  0  0  0  0  0  0
  185.3590  177.7080  143.6700 C   0  0  0  0  0  0  0  0  0  0  0  0
  184.3590  177.9750  142.7360 C   0  0  0  0  0  3  0  0  0  0  0  0
  190.6150  176.8180  146.3500 C   0  0  0  0  0  0  0  0  0  0  0  0
  191.1320  176.8000  147.7470 C   0  0  0  0  0  1  0  0  0  0  0  0
  189.7140  176.8580  143.6630 N   0  0  0  0  0  0  0  0  0  0  0  0
  186.1090  178.3040  141.0560 C   0  0  0  0  0  3  0  0  0  0  0  0
  186.4820  177.3120  145.4290 C   0  0  0  0  0  0  0  0  0  0  0  0
  185.1570  177.4720  144.9320 N   0  0  0  0  0  0  0  0  0  0  0  0
  191.4170  176.4680  145.3410 C   0  0  0  0  0  3  0  0  0  0  0  0
  187.1070  178.0340  142.0070 C   0  0  0  0  0  3  0  0  0  0  0  0
  190.9030  176.4060  143.9530 C   0  0  0  0  0  0  0  0  0  0  0  0
  189.2090  177.1380  146.0580 C   0  0  0  0  0  0  0  0  0  0  0  0
  191.7200  175.7560  142.9270 C   0  0  0  0  0  3  0  0  0  0  0  0
  193.0060  175.9020  142.9010 N   0  0  0  0  0  0  0  0  0  0  0  0
  193.8120  175.2570  141.8760 C   0  0  0  0  0  2  0  0  0  0  0  0
  195.2480  175.0770  142.3490 C   0  0  0  0  0  2  0  0  0  0  0  0
  195.9620  176.3840  142.4140 C   0  0  0  0  0  0  0  0  0  0  0  0
  196.3560  176.8990  143.6410 O   0  0  0  0  0  1  0  0  0  0  0  0
  196.1930  177.0300  141.3600 O   0  0  0  0  0  0  0  0  0  0  0  0
  1  2  1  0  0  0  0
  1 13  1  0  0  0  0
  2 11  1  6  0  0  0
  2 18  1  0  0  0  0
  3  6  1  0  0  0  0
  4  7  1  0  0  0  0
  4  1  2  0  0  0  0
  5  8  2  0  0  0  0
  7 14  2  0  0  0  0
  8  7  1  0  0  0  0
  9 10  1  0  0  0  0
 11 17  2  0  0  0  0
 12  5  1  0  0  0  0
 12 16  2  0  0  0  0
 13  3  2  0  0  0  0
 14 13  1  0  0  0  0
 15  9  2  0  0  0  0
 16  4  1  0  0  0  0
 17 15  1  0  0  0  0
 18  9  1  0  0  0  0
 18  6  2  0  0  0  0
 19 17  1  0  0  0  0
 20 19  2  0  0  0  0
 21 22  1  0  0  0  0
 21 20  1  0  0  0  0
 22 23  1  0  0  0  0
 23 24  1  0  0  0  0
 25 23  2  0  0  0  0
M  END
>  <MODEL>
7

>  <REMARK>
 VINA RESULT:      -6.8      6.120      9.474
  Name = 
  4 active torsions:
  status: ('A' for Active; 'I' for Inactive)
    1  A    between atoms: C_2  and  C_25
    2  A    between atoms: C_6  and  C_23
    3  A    between atoms: N_15  and  C_21
    4  A    between atoms: C_21  and  C_25
                            x       y       z     vdW  Elec       q    Type
                         _______ _______ _______ _____ _____    ______ ____

>  <TORSDO>
F 4

$$$$
=
 OpenBabel11052417313D

 25 28  0  0  1  0  0  0  0  0999 V2000
  186.6560  177.5980  143.8880 C   0  0  0  0  0  0  0  0  0  0  0  0
  188.1350  177.5470  144.0870 C   0  0  2  0  0  3  0  0  0  0  0  0
  186.1740  177.7750  146.2460 C   0  0  0  0  0  3  0  0  0  0  0  0
  185.9130  177.7880  142.8140 C   0  0  0  0  0  0  0  0  0  0  0  0
  183.9570  178.2890  140.9150 C   0  0  0  0  0  3  0  0  0  0  0  0
  187.5620  177.4710  146.5060 N   0  0  0  0  0  0  0  0  0  0  0  0
  184.6060  178.0480  143.2160 C   0  0  0  0  0  0  0  0  0  0  0  0
  183.6060  178.2980  142.2770 C   0  0  0  0  0  3  0  0  0  0  0  0
  189.8120  176.8360  145.8650 C   0  0  0  0  0  0  0  0  0  0  0  0
  190.3990  176.9860  147.2260 C   0  0  0  0  0  1  0  0  0  0  0  0
  188.7770  176.5370  143.2430 N   0  0  0  0  0  0  0  0  0  0  0  0
  185.2880  178.0440  140.5170 C   0  0  0  0  0  3  0  0  0  0  0  0
  185.7540  177.8000  144.9860 C   0  0  0  0  0  0  0  0  0  0  0  0
  184.4420  178.0750  144.5050 N   0  0  0  0  0  0  0  0  0  0  0  0
  190.4950  176.1900  144.9160 C   0  0  0  0  0  3  0  0  0  0  0  0
  186.2870  177.7940  141.4720 C   0  0  0  0  0  3  0  0  0  0  0  0
  189.9010  175.9630  143.5780 C   0  0  0  0  0  0  0  0  0  0  0  0
  188.4560  177.3150  145.5580 C   0  0  0  0  0  0  0  0  0  0  0  0
  190.5530  175.0210  142.6670 C   0  0  0  0  0  3  0  0  0  0  0  0
  189.8900  174.0580  142.1120 N   0  0  0  0  0  0  0  0  0  0  0  0
  190.5450  173.1220  141.2110 C   0  0  0  0  0  2  0  0  0  0  0  0
  190.1850  173.4220  139.7610 C   0  0  0  0  0  2  0  0  0  0  0  0
  188.7150  173.6060  139.5980 C   0  0  0  0  0  0  0  0  0  0  0  0
  188.1920  174.8770  139.4060 O   0  0  0  0  0  0  0  0  0  0  0  0
  187.9450  172.6120  139.6520 O   0  0  0  0  0  1  0  0  0  0  0  0
  1  2  1  0  0  0  0
  1 13  1  0  0  0  0
  2 11  1  6  0  0  0
  2 18  1  0  0  0  0
  3  6  1  0  0  0  0
  4  7  1  0  0  0  0
  4  1  2  0  0  0  0
  5  8  2  0  0  0  0
  7 14  2  0  0  0  0
  8  7  1  0  0  0  0
  9 10  1  0  0  0  0
 11 17  2  0  0  0  0
 12  5  1  0  0  0  0
 12 16  2  0  0  0  0
 13  3  2  0  0  0  0
 14 13  1  0  0  0  0
 15  9  2  0  0  0  0
 16  4  1  0  0  0  0
 17 15  1  0  0  0  0
 18  9  1  0  0  0  0
 18  6  2  0  0  0  0
 19 17  1  0  0  0  0
 20 19  2  0  0  0  0
 21 20  1  0  0  0  0
 22 21  1  0  0  0  0
 23 25  1  0  0  0  0
 23 22  1  0  0  0  0
 24 23  2  0  0  0  0
M  END
>  <MODEL>
8

>  <REMARK>
 VINA RESULT:      -6.8      3.788      7.308
  Name = 
  4 active torsions:
  status: ('A' for Active; 'I' for Inactive)
    1  A    between atoms: C_2  and  C_25
    2  A    between atoms: C_6  and  C_23
    3  A    between atoms: N_15  and  C_21
    4  A    between atoms: C_21  and  C_25
                            x       y       z     vdW  Elec       q    Type
                         _______ _______ _______ _____ _____    ______ ____

>  <TORSDO>
F 4

$$$$
=
 OpenBabel11052417313D

 25 28  0  0  0  0  0  0  0  0999 V2000
  187.7650  177.4140  145.2480 C   0  0  0  0  0  0  0  0  0  0  0  0
  188.7230  177.2630  144.1130 C   0  0  0  0  0  0  0  0  0  0  0  0
  189.4610  177.1120  146.9390 C   0  0  0  0  0  3  0  0  0  0  0  0
  186.5230  177.8540  145.3060 C   0  0  0  0  0  0  0  0  0  0  0  0
  184.0080  178.8200  145.9600 C   0  0  0  0  0  3  0  0  0  0  0  0
  190.3680  176.7050  145.8920 N   0  0  0  0  0  0  0  0  0  0  0  0
  186.1900  178.0760  146.6390 C   0  0  0  0  0  0  0  0  0  0  0  0
  184.9290  178.5570  146.9910 C   0  0  0  0  0  3  0  0  0  0  0  0
  190.9460  176.1290  143.6090 C   0  0  0  0  0  0  0  0  0  0  0  0
  192.4050  175.9670  143.8650 C   0  0  0  0  0  1  0  0  0  0  0  0
  188.1860  176.4280  143.0360 N   0  0  0  0  0  2  0  0  0  0  0  0
  184.3600  178.6100  144.6110 C   0  0  0  0  0  3  0  0  0  0  0  0
  188.2090  177.4180  146.6130 C   0  0  0  0  0  0  0  0  0  0  0  0
  187.1570  177.8390  147.4750 N   0  0  0  0  0  0  0  0  0  0  0  0
  190.4170  175.6700  142.4720 C   0  0  0  0  0  3  0  0  0  0  0  0
  185.6340  178.1260  144.2690 C   0  0  0  0  0  3  0  0  0  0  0  0
  188.9580  175.7520  142.2290 C   0  0  0  0  0  0  0  0  0  0  0  0
  190.0520  176.7160  144.6190 C   0  0  0  0  0  0  0  0  0  0  0  0
  188.3850  174.9960  141.1140 C   0  0  0  0  0  3  0  0  0  0  0  0
  189.0860  174.1260  140.4640 N   0  0  0  0  0  0  0  0  0  0  0  0
  188.5120  173.3810  139.3530 C   0  0  0  0  0  2  0  0  0  0  0  0
  189.3510  172.1490  139.0350 C   0  0  0  0  0  2  0  0  0  0  0  0
  190.7620  172.5220  138.7330 C   0  0  0  0  0  0  0  0  0  0  0  0
  191.7830  172.1210  139.5840 O   0  0  0  0  0  1  0  0  0  0  0  0
  191.0280  173.2140  137.7170 O   0  0  0  0  0  0  0  0  0  0  0  0
  1  4  1  0  0  0  0
  1 13  1  0  0  0  0
  2 18  1  0  0  0  0
  2  1  2  0  0  0  0
  4  7  1  0  0  0  0
  5  8  1  0  0  0  0
  6  3  2  0  0  0  0
  7  8  2  0  0  0  0
  7 14  1  0  0  0  0
  9 10  1  0  0  0  0
  9 18  2  0  0  0  0
 11  2  1  0  0  0  0
 12  5  2  0  0  0  0
 13  3  1  0  0  0  0
 13 14  2  0  0  0  0
 15  9  1  0  0  0  0
 16 12  1  0  0  0  0
 16  4  2  0  0  0  0
 17 15  2  0  0  0  0
 17 11  1  0  0  0  0
 18  6  1  0  0  0  0
 19 17  1  0  0  0  0
 20 19  2  0  0  0  0
 21 20  1  0  0  0  0
 22 21  1  0  0  0  0
 23 22  1  0  0  0  0
 23 24  1  0  0  0  0
 25 23  2  0  0  0  0
M  END
>  <MODEL>
9

>  <REMARK>
 VINA RESULT:      -6.7      5.203      7.162
  Name = 
  4 active torsions:
  status: ('A' for Active; 'I' for Inactive)
    1  A    between atoms: C_2  and  C_25
    2  A    between atoms: C_6  and  C_23
    3  A    between atoms: N_15  and  C_21
    4  A    between atoms: C_21  and  C_25
                            x       y       z     vdW  Elec       q    Type
                         _______ _______ _______ _____ _____    ______ ____

>  <TORSDO>
F 4

$$$$
