=
 OpenBabel11052417333D

 25 29  0  0  1  0  0  0  0  0999 V2000
  189.9560  176.0450  145.2950 C   0  0  0  0  0  0  0  0  0  0  0  0
  190.1270  175.4020  146.4430 C   0  0  0  0  0  0  0  0  0  0  0  0
  189.1400  174.5140  147.1170 C   0  0  0  0  0  1  0  0  0  0  0  0
  191.1840  176.8310  144.9730 C   0  0  0  0  0  2  0  0  0  0  0  0
  192.1150  176.5350  146.1540 C   0  0  1  0  0  3  0  0  0  0  0  0
  191.3730  175.6530  146.9820 O   0  0  0  0  0  0  0  0  0  0  0  0
  187.5840  176.7170  144.5790 C   0  0  0  0  0  0  0  0  0  0  0  0
  186.9920  175.6990  142.5380 C   0  0  0  0  0  3  0  0  0  0  0  0
  187.0690  177.7370  145.5230 C   0  0  1  0  0  3  0  0  0  0  0  0
  184.6990  178.3970  147.0210 C   0  0  0  0  0  3  0  0  0  0  0  0
  188.5430  175.1590  142.9700 S   0  0  0  0  0  0  0  0  0  0  0  0
  185.7140  177.9760  144.8890 C   0  0  0  0  0  0  0  0  0  0  0  0
  184.6330  178.5540  145.6920 C   0  0  0  0  0  3  0  0  0  0  0  0
  185.8030  177.6200  147.6450 C   0  0  0  0  0  3  0  0  0  0  0  0
  186.6740  176.5680  143.5710 C   0  0  0  0  0  0  0  0  0  0  0  0
  185.4940  177.3220  143.7860 N   0  0  0  0  0  0  0  0  0  0  0  0
  186.8820  177.2500  146.9370 C   0  0  0  0  0  3  0  0  0  0  0  0
  188.7620  176.0070  144.4230 C   0  0  0  0  0  0  0  0  0  0  0  0
  195.3920  176.0070  144.3100 C   0  0  0  0  0  0  0  0  0  0  0  0
  193.3720  175.8770  145.6840 C   0  0  0  0  0  0  0  0  0  0  0  0
  194.3980  176.6410  144.9390 C   0  0  0  0  0  3  0  0  0  0  0  0
  196.6050  176.9290  143.4500 Cl  0  0  0  0  0  0  0  0  0  0  0  0
  193.5600  174.5760  145.9310 C   0  0  0  0  0  3  0  0  0  0  0  0
  195.4150  174.5020  144.2550 C   0  0  0  0  0  2  0  0  0  0  0  0
  194.8490  173.9020  145.5450 C   0  0  0  0  0  2  0  0  0  0  0  0
  1  2  2  0  0  0  0
  2  6  1  0  0  0  0
  2  3  1  0  0  0  0
  4  1  1  0  0  0  0
  4  5  1  0  0  0  0
  5 20  1  6  0  0  0
  5  6  1  0  0  0  0
  7  9  1  0  0  0  0
  8 11  1  0  0  0  0
  8 15  2  0  0  0  0
  9 17  1  1  0  0  0
 10 14  1  0  0  0  0
 11 18  1  0  0  0  0
 12  9  1  0  0  0  0
 12 13  1  0  0  0  0
 13 10  2  0  0  0  0
 15 16  1  0  0  0  0
 15  7  1  0  0  0  0
 16 12  2  0  0  0  0
 17 14  2  0  0  0  0
 18  7  2  0  0  0  0
 18  1  1  0  0  0  0
 19 21  2  0  0  0  0
 20 23  2  0  0  0  0
 21 20  1  0  0  0  0
 22 19  1  0  0  0  0
 24 19  1  0  0  0  0
 24 25  1  0  0  0  0
 25 23  1  0  0  0  0
M  END
>  <MODEL>
1

>  <REMARK>
 VINA RESULT:      -8.5      0.000      0.000
  Name = 
  2 active torsions:
  status: ('A' for Active; 'I' for Inactive)
    1  A    between atoms: C_3  and  C_24
    2  A    between atoms: C_6  and  C_20
                            x       y       z     vdW  Elec       q    Type
                         _______ _______ _______ _____ _____    ______ ____

>  <TORSDO>
F 2

$$$$
=
 OpenBabel11052417333D

 25 29  0  0  1  0  0  0  0  0999 V2000
  189.8850  176.0140  145.4420 C   0  0  0  0  0  0  0  0  0  0  0  0
  190.0150  175.3790  146.6000 C   0  0  0  0  0  0  0  0  0  0  0  0
  188.9870  174.5340  147.2680 C   0  0  0  0  0  1  0  0  0  0  0  0
  191.1450  176.7530  145.1330 C   0  0  0  0  0  2  0  0  0  0  0  0
  192.0460  176.4390  146.3310 C   0  0  1  0  0  3  0  0  0  0  0  0
  191.2600  175.5920  147.1570 O   0  0  0  0  0  0  0  0  0  0  0  0
  187.5420  176.7460  144.6900 C   0  0  0  0  0  0  0  0  0  0  0  0
  186.9580  175.7470  142.6380 C   0  0  0  0  0  3  0  0  0  0  0  0
  187.0380  177.7770  145.6280 C   0  0  1  0  0  3  0  0  0  0  0  0
  184.6610  178.4940  147.0890 C   0  0  0  0  0  3  0  0  0  0  0  0
  188.4880  175.1670  143.0930 S   0  0  0  0  0  0  0  0  0  0  0  0
  185.7000  178.0510  144.9720 C   0  0  0  0  0  0  0  0  0  0  0  0
  184.6210  178.6540  145.7590 C   0  0  0  0  0  3  0  0  0  0  0  0
  185.7350  177.6880  147.7290 C   0  0  0  0  0  3  0  0  0  0  0  0
  186.6450  176.6220  143.6670 C   0  0  0  0  0  0  0  0  0  0  0  0
  185.4810  177.4040  143.8650 N   0  0  0  0  0  0  0  0  0  0  0  0
  186.8160  177.2930  147.0380 C   0  0  0  0  0  3  0  0  0  0  0  0
  188.7050  176.0070  144.5510 C   0  0  0  0  0  0  0  0  0  0  0  0
  194.5100  173.6230  145.6850 C   0  0  0  0  0  0  0  0  0  0  0  0
  193.2860  175.7320  145.8900 C   0  0  0  0  0  0  0  0  0  0  0  0
  193.3420  174.2530  145.8370 C   0  0  0  0  0  3  0  0  0  0  0  0
  194.5520  171.8760  145.6090 Cl  0  0  0  0  0  0  0  0  0  0  0  0
  194.3620  176.4500  145.5500 C   0  0  0  0  0  3  0  0  0  0  0  0
  195.7970  174.4050  145.6810 C   0  0  0  0  0  2  0  0  0  0  0  0
  195.5990  175.7740  145.0230 C   0  0  0  0  0  2  0  0  0  0  0  0
  1  2  2  0  0  0  0
  2  6  1  0  0  0  0
  2  3  1  0  0  0  0
  4  1  1  0  0  0  0
  4  5  1  0  0  0  0
  5 20  1  6  0  0  0
  5  6  1  0  0  0  0
  7  9  1  0  0  0  0
  8 11  1  0  0  0  0
  8 15  2  0  0  0  0
  9 17  1  1  0  0  0
 10 14  1  0  0  0  0
 11 18  1  0  0  0  0
 12  9  1  0  0  0  0
 12 13  1  0  0  0  0
 13 10  2  0  0  0  0
 15 16  1  0  0  0  0
 15  7  1  0  0  0  0
 16 12  2  0  0  0  0
 17 14  2  0  0  0  0
 18  7  2  0  0  0  0
 18  1  1  0  0  0  0
 19 21  2  0  0  0  0
 21 20  1  0  0  0  0
 22 19  1  0  0  0  0
 23 20  2  0  0  0  0
 24 19  1  0  0  0  0
 25 23  1  0  0  0  0
 25 24  1  0  0  0  0
M  END
>  <MODEL>
2

>  <REMARK>
 VINA RESULT:      -8.4      1.240      1.571
  Name = 
  2 active torsions:
  status: ('A' for Active; 'I' for Inactive)
    1  A    between atoms: C_3  and  C_24
    2  A    between atoms: C_6  and  C_20
                            x       y       z     vdW  Elec       q    Type
                         _______ _______ _______ _____ _____    ______ ____

>  <TORSDO>
F 2

$$$$
=
 OpenBabel11052417333D

 25 29  0  0  1  0  0  0  0  0999 V2000
  189.2070  176.2410  144.1050 C   0  0  0  0  0  0  0  0  0  0  0  0
  189.5590  174.9730  143.9340 C   0  0  0  0  0  0  0  0  0  0  0  0
  189.0000  174.0260  142.9300 C   0  0  0  0  0  1  0  0  0  0  0  0
  190.0040  176.8350  145.2190 C   0  0  0  0  0  2  0  0  0  0  0  0
  190.8910  175.6740  145.6810 C   0  0  1  0  0  3  0  0  0  0  0  0
  190.5410  174.5950  144.8280 O   0  0  0  0  0  0  0  0  0  0  0  0
  187.1200  177.7080  143.8170 C   0  0  0  0  0  0  0  0  0  0  0  0
  186.7930  178.2860  141.5570 C   0  0  0  0  0  3  0  0  0  0  0  0
  186.5760  178.0350  145.1560 C   0  0  1  0  0  3  0  0  0  0  0  0
  184.0740  178.1600  146.5800 C   0  0  0  0  0  3  0  0  0  0  0  0
  188.1520  177.2710  141.6530 S   0  0  0  0  0  0  0  0  0  0  0  0
  185.4080  178.8980  144.7270 C   0  0  0  0  0  0  0  0  0  0  0  0
  184.2810  179.0950  145.6420 C   0  0  0  0  0  3  0  0  0  0  0  0
  184.9300  176.9450  146.6470 C   0  0  0  0  0  3  0  0  0  0  0  0
  186.4040  178.4010  142.8830 C   0  0  0  0  0  0  0  0  0  0  0  0
  185.3140  179.1090  143.4460 N   0  0  0  0  0  0  0  0  0  0  0  0
  186.0650  176.8510  145.9360 C   0  0  0  0  0  3  0  0  0  0  0  0
  188.2030  176.9990  143.3270 C   0  0  0  0  0  0  0  0  0  0  0  0
  194.3010  176.0940  144.0650 C   0  0  0  0  0  0  0  0  0  0  0  0
  192.3370  176.0190  145.5210 C   0  0  0  0  0  0  0  0  0  0  0  0
  192.9720  176.0330  144.1840 C   0  0  0  0  0  3  0  0  0  0  0  0
  195.0310  176.1270  142.4750 Cl  0  0  0  0  0  0  0  0  0  0  0  0
  193.0650  176.3040  146.6060 C   0  0  0  0  0  3  0  0  0  0  0  0
  195.1750  176.0340  145.2900 C   0  0  0  0  0  2  0  0  0  0  0  0
  194.5010  176.7340  146.4730 C   0  0  0  0  0  2  0  0  0  0  0  0
  1  4  1  0  0  0  0
  2  1  2  0  0  0  0
  2  6  1  0  0  0  0
  3  2  1  0  0  0  0
  4  5  1  0  0  0  0
  5 20  1  6  0  0  0
  6  5  1  0  0  0  0
  7  9  1  0  0  0  0
  8 11  1  0  0  0  0
  8 15  2  0  0  0  0
  9 17  1  6  0  0  0
 10 14  1  0  0  0  0
 11 18  1  0  0  0  0
 12  9  1  0  0  0  0
 12 13  1  0  0  0  0
 13 10  2  0  0  0  0
 15 16  1  0  0  0  0
 15  7  1  0  0  0  0
 16 12  2  0  0  0  0
 17 14  2  0  0  0  0
 18  7  2  0  0  0  0
 18  1  1  0  0  0  0
 19 21  2  0  0  0  0
 19 24  1  0  0  0  0
 20 23  2  0  0  0  0
 21 20  1  0  0  0  0
 22 19  1  0  0  0  0
 24 25  1  0  0  0  0
 25 23  1  0  0  0  0
M  END
>  <MODEL>
3

>  <REMARK>
 VINA RESULT:      -8.3      1.553      1.946
  Name = 
  2 active torsions:
  status: ('A' for Active; 'I' for Inactive)
    1  A    between atoms: C_3  and  C_24
    2  A    between atoms: C_6  and  C_20
                            x       y       z     vdW  Elec       q    Type
                         _______ _______ _______ _____ _____    ______ ____

>  <TORSDO>
F 2

$$$$
=
 OpenBabel11052417333D

 25 29  0  0  1  0  0  0  0  0999 V2000
  190.1570  175.5880  145.1700 C   0  0  0  0  0  0  0  0  0  0  0  0
  190.4280  176.8610  144.9130 C   0  0  0  0  0  0  0  0  0  0  0  0
  191.4260  177.3750  143.9340 C   0  0  0  0  0  1  0  0  0  0  0  0
  189.0990  175.5040  146.2200 C   0  0  0  0  0  2  0  0  0  0  0  0
  188.7980  176.9720  146.5400 C   0  0  1  0  0  3  0  0  0  0  0  0
  189.6580  177.7090  145.6840 O   0  0  0  0  0  0  0  0  0  0  0  0
  192.0010  173.8390  144.8070 C   0  0  0  0  0  0  0  0  0  0  0  0
  191.3410  172.2240  143.2240 C   0  0  0  0  0  3  0  0  0  0  0  0
  193.1000  174.0940  145.7690 C   0  0  1  0  0  3  0  0  0  0  0  0
  195.9740  174.2450  145.8860 C   0  0  0  0  0  3  0  0  0  0  0  0
  190.0960  173.3720  143.3610 S   0  0  0  0  0  0  0  0  0  0  0  0
  194.0170  172.9530  145.3800 C   0  0  0  0  0  0  0  0  0  0  0  0
  195.4420  173.0270  145.7120 C   0  0  0  0  0  3  0  0  0  0  0  0
  195.1540  175.4710  145.6940 C   0  0  0  0  0  3  0  0  0  0  0  0
  192.2800  172.6830  144.1350 C   0  0  0  0  0  0  0  0  0  0  0  0
  193.5520  172.1540  144.4640 N   0  0  0  0  0  0  0  0  0  0  0  0
  193.8180  175.4050  145.5730 C   0  0  0  0  0  3  0  0  0  0  0  0
  190.7670  174.4020  144.5310 C   0  0  0  0  0  0  0  0  0  0  0  0
  185.7590  178.7910  145.1710 C   0  0  0  0  0  0  0  0  0  0  0  0
  187.3680  177.2940  146.2450 C   0  0  0  0  0  0  0  0  0  0  0  0
  187.0110  178.3330  145.2530 C   0  0  0  0  0  3  0  0  0  0  0  0
  185.3540  180.0060  143.9790 Cl  0  0  0  0  0  0  0  0  0  0  0  0
  186.4020  176.6410  146.9010 C   0  0  0  0  0  3  0  0  0  0  0  0
  184.7210  178.3410  146.1640 C   0  0  0  0  0  2  0  0  0  0  0  0
  184.9540  176.8830  146.5700 C   0  0  0  0  0  2  0  0  0  0  0  0
  1  4  1  0  0  0  0
  2  1  2  0  0  0  0
  2  6  1  0  0  0  0
  3  2  1  0  0  0  0
  4  5  1  0  0  0  0
  5 20  1  6  0  0  0
  6  5  1  0  0  0  0
  7  9  1  0  0  0  0
  8 11  1  0  0  0  0
  8 15  2  0  0  0  0
  9 17  1  6  0  0  0
 11 18  1  0  0  0  0
 12 13  1  0  0  0  0
 12  9  1  0  0  0  0
 13 10  2  0  0  0  0
 14 10  1  0  0  0  0
 15 16  1  0  0  0  0
 15  7  1  0  0  0  0
 16 12  2  0  0  0  0
 17 14  2  0  0  0  0
 18  7  2  0  0  0  0
 18  1  1  0  0  0  0
 19 21  2  0  0  0  0
 19 24  1  0  0  0  0
 20 23  2  0  0  0  0
 21 20  1  0  0  0  0
 22 19  1  0  0  0  0
 24 25  1  0  0  0  0
 25 23  1  0  0  0  0
M  END
>  <MODEL>
4

>  <REMARK>
 VINA RESULT:      -8.0      3.448      7.704
  Name = 
  2 active torsions:
  status: ('A' for Active; 'I' for Inactive)
    1  A    between atoms: C_3  and  C_24
    2  A    between atoms: C_6  and  C_20
                            x       y       z     vdW  Elec       q    Type
                         _______ _______ _______ _____ _____    ______ ____

>  <TORSDO>
F 2

$$$$
=
 OpenBabel11052417333D

 25 29  0  0  1  0  0  0  0  0999 V2000
  187.0560  176.5050  142.3450 C   0  0  0  0  0  0  0  0  0  0  0  0
  188.2110  176.9470  141.8640 C   0  0  0  0  0  0  0  0  0  0  0  0
  188.5770  178.3660  141.6000 C   0  0  0  0  0  1  0  0  0  0  0  0
  187.0970  175.0170  142.4540 C   0  0  0  0  0  2  0  0  0  0  0  0
  188.4950  174.6590  141.9410 C   0  0  1  0  0  3  0  0  0  0  0  0
  189.0870  175.9090  141.6160 O   0  0  0  0  0  0  0  0  0  0  0  0
  185.6670  177.9320  143.9650 C   0  0  0  0  0  0  0  0  0  0  0  0
  183.7300  178.7660  142.9160 C   0  0  0  0  0  3  0  0  0  0  0  0
  186.4160  178.0790  145.2360 C   0  0  1  0  0  3  0  0  0  0  0  0
  186.0200  177.9570  148.0870 C   0  0  0  0  0  3  0  0  0  0  0  0
  184.5580  177.7890  141.8000 S   0  0  0  0  0  0  0  0  0  0  0  0
  185.4300  178.9520  145.9850 C   0  0  0  0  0  0  0  0  0  0  0  0
  185.4780  179.0040  147.4480 C   0  0  0  0  0  3  0  0  0  0  0  0
  186.5030  176.7690  147.3320 C   0  0  0  0  0  3  0  0  0  0  0  0
  184.5460  178.7090  144.0350 C   0  0  0  0  0  0  0  0  0  0  0  0
  184.3790  179.3110  145.3060 N   0  0  0  0  0  0  0  0  0  0  0  0
  186.6290  176.7950  145.9960 C   0  0  0  0  0  3  0  0  0  0  0  0
  185.8880  177.3200  142.7430 C   0  0  0  0  0  0  0  0  0  0  0  0
  190.3920  174.0990  145.1830 C   0  0  0  0  0  0  0  0  0  0  0  0
  189.2880  173.9680  143.0040 C   0  0  0  0  0  0  0  0  0  0  0  0
  189.4890  174.5930  144.3300 C   0  0  0  0  0  3  0  0  0  0  0  0
  190.6020  174.8410  146.7530 Cl  0  0  0  0  0  0  0  0  0  0  0  0
  189.8310  172.7740  142.7410 C   0  0  0  0  0  3  0  0  0  0  0  0
  191.2950  172.9710  144.7600 C   0  0  0  0  0  2  0  0  0  0  0  0
  190.5640  172.0140  143.8140 C   0  0  0  0  0  2  0  0  0  0  0  0
  1  4  1  0  0  0  0
  1 18  1  0  0  0  0
  2  1  2  0  0  0  0
  3  2  1  0  0  0  0
  5  4  1  0  0  0  0
  5 20  1  1  0  0  0
  6  2  1  0  0  0  0
  6  5  1  0  0  0  0
  7 15  1  0  0  0  0
  7  9  1  0  0  0  0
  8 15  2  0  0  0  0
  9 12  1  0  0  0  0
  9 17  1  1  0  0  0
 11 18  1  0  0  0  0
 11  8  1  0  0  0  0
 12 13  1  0  0  0  0
 13 10  2  0  0  0  0
 14 10  1  0  0  0  0
 15 16  1  0  0  0  0
 16 12  2  0  0  0  0
 17 14  2  0  0  0  0
 18  7  2  0  0  0  0
 19 22  1  0  0  0  0
 20 21  1  0  0  0  0
 21 19  2  0  0  0  0
 23 20  2  0  0  0  0
 23 25  1  0  0  0  0
 24 19  1  0  0  0  0
 25 24  1  0  0  0  0
M  END
>  <MODEL>
5

>  <REMARK>
 VINA RESULT:      -8.0      3.242      4.406
  Name = 
  2 active torsions:
  status: ('A' for Active; 'I' for Inactive)
    1  A    between atoms: C_3  and  C_24
    2  A    between atoms: C_6  and  C_20
                            x       y       z     vdW  Elec       q    Type
                         _______ _______ _______ _____ _____    ______ ____

>  <TORSDO>
F 2

$$$$
=
 OpenBabel11052417333D

 25 29  0  0  1  0  0  0  0  0999 V2000
  188.8530  176.0980  142.6820 C   0  0  0  0  0  0  0  0  0  0  0  0
  187.7930  175.4310  142.2430 C   0  0  0  0  0  0  0  0  0  0  0  0
  187.7130  173.9680  141.9780 C   0  0  0  0  0  1  0  0  0  0  0  0
  188.5160  177.5460  142.8080 C   0  0  0  0  0  2  0  0  0  0  0  0
  187.0540  177.6130  142.3550 C   0  0  1  0  0  3  0  0  0  0  0  0
  186.7160  176.2700  142.0400 O   0  0  0  0  0  0  0  0  0  0  0  0
  190.7040  175.3360  144.2900 C   0  0  0  0  0  0  0  0  0  0  0  0
  192.5130  174.3880  143.1160 C   0  0  0  0  0  3  0  0  0  0  0  0
  190.2300  175.5120  145.6830 C   0  0  1  0  0  3  0  0  0  0  0  0
  191.1220  176.5100  148.2350 C   0  0  0  0  0  3  0  0  0  0  0  0
  191.3650  174.9180  141.9820 S   0  0  0  0  0  0  0  0  0  0  0  0
  191.4500  174.9860  146.4110 C   0  0  0  0  0  0  0  0  0  0  0  0
  191.6790  175.3680  147.8070 C   0  0  0  0  0  3  0  0  0  0  0  0
  190.3460  177.3760  147.3070 C   0  0  0  0  0  3  0  0  0  0  0  0
  191.9170  174.7090  144.3260 C   0  0  0  0  0  0  0  0  0  0  0  0
  192.3980  174.5280  145.6460 N   0  0  0  0  0  0  0  0  0  0  0  0
  189.9820  176.9430  146.0890 C   0  0  0  0  0  3  0  0  0  0  0  0
  190.1780  175.5360  143.0250 C   0  0  0  0  0  0  0  0  0  0  0  0
  185.8440  178.4420  145.8570 C   0  0  0  0  0  0  0  0  0  0  0  0
  186.1820  178.1270  143.4540 C   0  0  0  0  0  0  0  0  0  0  0  0
  186.6860  178.2230  144.8430 C   0  0  0  0  0  3  0  0  0  0  0  0
  186.4620  178.5690  147.4880 Cl  0  0  0  0  0  0  0  0  0  0  0  0
  184.9260  178.4910  143.1760 C   0  0  0  0  0  3  0  0  0  0  0  0
  184.3590  178.4790  145.6130 C   0  0  0  0  0  2  0  0  0  0  0  0
  184.0480  179.0890  144.2430 C   0  0  0  0  0  2  0  0  0  0  0  0
  1  4  1  0  0  0  0
  1 18  1  0  0  0  0
  2  1  2  0  0  0  0
  3  2  1  0  0  0  0
  5  4  1  0  0  0  0
  5 20  1  1  0  0  0
  6  2  1  0  0  0  0
  6  5  1  0  0  0  0
  7 15  1  0  0  0  0
  7  9  1  0  0  0  0
  8 15  2  0  0  0  0
  9 17  1  1  0  0  0
  9 12  1  0  0  0  0
 11 18  1  0  0  0  0
 11  8  1  0  0  0  0
 12 13  1  0  0  0  0
 13 10  2  0  0  0  0
 14 10  1  0  0  0  0
 15 16  1  0  0  0  0
 16 12  2  0  0  0  0
 17 14  2  0  0  0  0
 18  7  2  0  0  0  0
 19 22  1  0  0  0  0
 20 21  1  0  0  0  0
 21 19  2  0  0  0  0
 23 20  2  0  0  0  0
 23 25  1  0  0  0  0
 24 19  1  0  0  0  0
 25 24  1  0  0  0  0
M  END
>  <MODEL>
6

>  <REMARK>
 VINA RESULT:      -7.9      3.586      7.033
  Name = 
  2 active torsions:
  status: ('A' for Active; 'I' for Inactive)
    1  A    between atoms: C_3  and  C_24
    2  A    between atoms: C_6  and  C_20
                            x       y       z     vdW  Elec       q    Type
                         _______ _______ _______ _____ _____    ______ ____

>  <TORSDO>
F 2

$$$$
=
 OpenBabel11052417333D

 25 29  0  0  1  0  0  0  0  0999 V2000
  189.4200  176.4480  144.5230 C   0  0  0  0  0  0  0  0  0  0  0  0
  188.9350  175.6720  143.5630 C   0  0  0  0  0  0  0  0  0  0  0  0
  189.2940  174.2500  143.3050 C   0  0  0  0  0  1  0  0  0  0  0  0
  188.8040  177.8050  144.4300 C   0  0  0  0  0  2  0  0  0  0  0  0
  187.8650  177.6870  143.2260 C   0  0  1  0  0  3  0  0  0  0  0  0
  188.0200  176.3480  142.7800 O   0  0  0  0  0  0  0  0  0  0  0  0
  191.7810  176.1890  145.4980 C   0  0  0  0  0  0  0  0  0  0  0  0
  191.7040  175.3860  147.7110 C   0  0  0  0  0  3  0  0  0  0  0  0
  192.7620  176.7240  144.5240 C   0  0  1  0  0  3  0  0  0  0  0  0
  195.3000  176.0730  143.3260 C   0  0  0  0  0  3  0  0  0  0  0  0
  190.1130  175.4720  147.1230 S   0  0  0  0  0  0  0  0  0  0  0  0
  194.0300  176.4850  145.3190 C   0  0  0  0  0  0  0  0  0  0  0  0
  195.3170  176.4150  144.6210 C   0  0  0  0  0  3  0  0  0  0  0  0
  194.0240  175.7280  142.6430 C   0  0  0  0  0  3  0  0  0  0  0  0
  192.4510  175.8520  146.6400 C   0  0  0  0  0  0  0  0  0  0  0  0
  193.8540  176.0000  146.5130 N   0  0  0  0  0  0  0  0  0  0  0  0
  192.8360  175.9670  143.2220 C   0  0  0  0  0  3  0  0  0  0  0  0
  190.4040  176.0690  145.5620 C   0  0  0  0  0  0  0  0  0  0  0  0
  184.1390  178.3640  142.9480 C   0  0  0  0  0  0  0  0  0  0  0  0
  186.4490  177.9400  143.6330 C   0  0  0  0  0  0  0  0  0  0  0  0
  185.3520  177.8990  142.6390 C   0  0  0  0  0  3  0  0  0  0  0  0
  182.8520  178.2900  141.7650 Cl  0  0  0  0  0  0  0  0  0  0  0  0
  186.1770  178.2210  144.9120 C   0  0  0  0  0  3  0  0  0  0  0  0
  183.9020  179.0410  144.2720 C   0  0  0  0  0  2  0  0  0  0  0  0
  184.7540  178.4000  145.3710 C   0  0  0  0  0  2  0  0  0  0  0  0
  1 18  1  0  0  0  0
  2  1  2  0  0  0  0
  3  2  1  0  0  0  0
  4  1  1  0  0  0  0
  5 20  1  1  0  0  0
  5  4  1  0  0  0  0
  6  5  1  0  0  0  0
  6  2  1  0  0  0  0
  7 18  2  0  0  0  0
  7 15  1  0  0  0  0
  9 17  1  6  0  0  0
  9 12  1  0  0  0  0
  9  7  1  0  0  0  0
 10 13  2  0  0  0  0
 11  8  1  0  0  0  0
 12 16  2  0  0  0  0
 13 12  1  0  0  0  0
 14 17  2  0  0  0  0
 14 10  1  0  0  0  0
 15  8  2  0  0  0  0
 16 15  1  0  0  0  0
 18 11  1  0  0  0  0
 19 24  1  0  0  0  0
 20 23  2  0  0  0  0
 21 19  2  0  0  0  0
 21 20  1  0  0  0  0
 22 19  1  0  0  0  0
 23 25  1  0  0  0  0
 24 25  1  0  0  0  0
M  END
>  <MODEL>
7

>  <REMARK>
 VINA RESULT:      -7.8      3.870      8.063
  Name = 
  2 active torsions:
  status: ('A' for Active; 'I' for Inactive)
    1  A    between atoms: C_3  and  C_24
    2  A    between atoms: C_6  and  C_20
                            x       y       z     vdW  Elec       q    Type
                         _______ _______ _______ _____ _____    ______ ____

>  <TORSDO>
F 2

$$$$
=
 OpenBabel11052417333D

 25 29  0  0  1  0  0  0  0  0999 V2000
  189.3190  176.2970  143.6700 C   0  0  0  0  0  0  0  0  0  0  0  0
  188.9670  175.4340  142.7250 C   0  0  0  0  0  0  0  0  0  0  0  0
  189.1810  173.9600  142.7460 C   0  0  0  0  0  1  0  0  0  0  0  0
  188.9280  177.6770  143.2580 C   0  0  0  0  0  2  0  0  0  0  0  0
  188.2820  177.4690  141.8840 C   0  0  1  0  0  3  0  0  0  0  0  0
  188.3550  176.0690  141.6630 O   0  0  0  0  0  0  0  0  0  0  0  0
  191.2990  176.2180  145.3020 C   0  0  0  0  0  0  0  0  0  0  0  0
  190.6370  175.3850  147.4030 C   0  0  0  0  0  3  0  0  0  0  0  0
  192.4780  176.8420  144.6550 C   0  0  1  0  0  3  0  0  0  0  0  0
  195.3010  176.4140  144.2690 C   0  0  0  0  0  3  0  0  0  0  0  0
  189.2890  175.3490  146.3700 S   0  0  0  0  0  0  0  0  0  0  0  0
  193.4690  176.6980  145.7920 C   0  0  0  0  0  0  0  0  0  0  0  0
  194.9050  176.7410  145.5070 C   0  0  0  0  0  3  0  0  0  0  0  0
  194.3150  175.9740  143.2440 C   0  0  0  0  0  3  0  0  0  0  0  0
  191.6260  175.9230  146.5950 C   0  0  0  0  0  0  0  0  0  0  0  0
  192.9870  176.1860  146.8870 N   0  0  0  0  0  0  0  0  0  0  0  0
  192.9940  176.1100  143.4430 C   0  0  0  0  0  3  0  0  0  0  0  0
  189.9790  175.9870  144.9570 C   0  0  0  0  0  0  0  0  0  0  0  0
  184.9370  178.6920  143.2020 C   0  0  0  0  0  0  0  0  0  0  0  0
  186.8580  177.9230  141.8960 C   0  0  0  0  0  0  0  0  0  0  0  0
  186.2590  178.5190  143.1120 C   0  0  0  0  0  3  0  0  0  0  0  0
  184.2510  179.4140  144.6400 Cl  0  0  0  0  0  0  0  0  0  0  0  0
  186.1160  177.7730  140.7930 C   0  0  0  0  0  3  0  0  0  0  0  0
  184.0300  178.1780  142.1150 C   0  0  0  0  0  2  0  0  0  0  0  0
  184.7040  178.2930  140.7450 C   0  0  0  0  0  2  0  0  0  0  0  0
  1 18  1  0  0  0  0
  2  3  1  0  0  0  0
  2  1  2  0  0  0  0
  4  1  1  0  0  0  0
  5 20  1  1  0  0  0
  5  4  1  0  0  0  0
  6  5  1  0  0  0  0
  6  2  1  0  0  0  0
  7 15  1  0  0  0  0
  9 17  1  6  0  0  0
  9  7  1  0  0  0  0
  9 12  1  0  0  0  0
 10 13  2  0  0  0  0
 11  8  1  0  0  0  0
 12 16  2  0  0  0  0
 13 12  1  0  0  0  0
 14 17  2  0  0  0  0
 14 10  1  0  0  0  0
 15 16  1  0  0  0  0
 15  8  2  0  0  0  0
 18  7  2  0  0  0  0
 18 11  1  0  0  0  0
 19 22  1  0  0  0  0
 20 21  1  0  0  0  0
 21 19  2  0  0  0  0
 23 20  2  0  0  0  0
 24 19  1  0  0  0  0
 25 23  1  0  0  0  0
 25 24  1  0  0  0  0
M  END
>  <MODEL>
8

>  <REMARK>
 VINA RESULT:      -7.7      3.910      7.882
  Name = 
  2 active torsions:
  status: ('A' for Active; 'I' for Inactive)
    1  A    between atoms: C_3  and  C_24
    2  A    between atoms: C_6  and  C_20
                            x       y       z     vdW  Elec       q    Type
                         _______ _______ _______ _____ _____    ______ ____

>  <TORSDO>
F 2

$$$$
=
 OpenBabel11052417333D

 25 29  0  0  1  0  0  0  0  0999 V2000
  189.1340  176.7220  146.7020 C   0  0  0  0  0  0  0  0  0  0  0  0
  189.4780  175.5630  147.2490 C   0  0  0  0  0  0  0  0  0  0  0  0
  188.5580  174.4590  147.6420 C   0  0  0  0  0  1  0  0  0  0  0  0
  190.3550  177.5470  146.4690 C   0  0  0  0  0  2  0  0  0  0  0  0
  191.4900  176.6590  146.9870 C   0  0  1  0  0  3  0  0  0  0  0  0
  190.8440  175.4760  147.4320 O   0  0  0  0  0  0  0  0  0  0  0  0
  187.1850  177.1540  145.0880 C   0  0  0  0  0  0  0  0  0  0  0  0
  185.2820  177.9270  146.2410 C   0  0  0  0  0  3  0  0  0  0  0  0
  187.5780  176.7050  143.7310 C   0  0  1  0  0  3  0  0  0  0  0  0
  187.4820  177.5620  140.9820 C   0  0  0  0  0  3  0  0  0  0  0  0
  186.5370  177.7240  147.3670 S   0  0  0  0  0  0  0  0  0  0  0  0
  186.2940  177.0340  142.9980 C   0  0  0  0  0  0  0  0  0  0  0  0
  186.3170  177.2090  141.5430 C   0  0  0  0  0  3  0  0  0  0  0  0
  188.6880  177.8130  141.8170 C   0  0  0  0  0  3  0  0  0  0  0  0
  185.8720  177.5300  145.0510 C   0  0  0  0  0  0  0  0  0  0  0  0
  185.3310  177.4930  143.7430 N   0  0  0  0  0  0  0  0  0  0  0  0
  188.7180  177.4770  143.1170 C   0  0  0  0  0  3  0  0  0  0  0  0
  187.7690  177.1650  146.3420 C   0  0  0  0  0  0  0  0  0  0  0  0
  194.6640  175.5020  145.2520 C   0  0  0  0  0  0  0  0  0  0  0  0
  192.4580  176.3440  145.8920 C   0  0  0  0  0  0  0  0  0  0  0  0
  193.6890  175.5690  146.1640 C   0  0  0  0  0  3  0  0  0  0  0  0
  196.1040  174.5670  145.5870 Cl  0  0  0  0  0  0  0  0  0  0  0  0
  192.2080  176.7830  144.6530 C   0  0  0  0  0  3  0  0  0  0  0  0
  194.5710  176.3080  143.9840 C   0  0  0  0  0  2  0  0  0  0  0  0
  193.1180  176.4150  143.5120 C   0  0  0  0  0  2  0  0  0  0  0  0
  1  2  2  0  0  0  0
  2  6  1  0  0  0  0
  2  3  1  0  0  0  0
  4  1  1  0  0  0  0
  4  5  1  0  0  0  0
  5 20  1  6  0  0  0
  5  6  1  0  0  0  0
  7 18  2  0  0  0  0
  8 11  1  0  0  0  0
  9 17  1  6  0  0  0
  9  7  1  0  0  0  0
 10 13  2  0  0  0  0
 10 14  1  0  0  0  0
 12  9  1  0  0  0  0
 12 16  2  0  0  0  0
 13 12  1  0  0  0  0
 14 17  2  0  0  0  0
 15  7  1  0  0  0  0
 15  8  2  0  0  0  0
 16 15  1  0  0  0  0
 18  1  1  0  0  0  0
 18 11  1  0  0  0  0
 19 22  1  0  0  0  0
 19 21  2  0  0  0  0
 20 21  1  0  0  0  0
 23 20  2  0  0  0  0
 24 19  1  0  0  0  0
 25 24  1  0  0  0  0
 25 23  1  0  0  0  0
M  END
>  <MODEL>
9

>  <REMARK>
 VINA RESULT:      -7.7      1.832      3.165
  Name = 
  2 active torsions:
  status: ('A' for Active; 'I' for Inactive)
    1  A    between atoms: C_3  and  C_24
    2  A    between atoms: C_6  and  C_20
                            x       y       z     vdW  Elec       q    Type
                         _______ _______ _______ _____ _____    ______ ____

>  <TORSDO>
F 2

$$$$
