=
 OpenBabel11052420343D

 34 39  0  0  1  0  0  0  0  0999 V2000
  194.3070  172.5170  142.3800 C   0  0  1  0  0  3  0  0  0  0  0  0
  196.7070  173.2800  145.3270 C   0  0  0  0  0  2  0  0  0  0  0  0
  197.0260  173.3610  142.7600 C   0  0  0  0  0  2  0  0  0  0  0  0
  192.1150  173.6390  142.5120 N   0  0  0  0  0  0  0  0  0  0  0  0
  192.7840  172.3530  142.3080 C   0  0  0  0  0  2  0  0  0  0  0  0
  193.9450  174.8930  141.4600 C   0  0  2  0  0  3  0  0  0  0  0  0
  194.2370  175.6780  142.6510 N   0  0  0  0  0  1  0  0  0  0  0  0
  192.4580  174.5500  141.4170 C   0  0  0  0  0  2  0  0  0  0  0  0
  196.2660  173.8910  141.5730 C   0  0  0  0  0  0  0  0  0  0  0  0
  194.7930  173.6080  141.4020 C   0  0  1  0  0  3  0  0  0  0  0  0
  196.8630  174.5260  140.7180 O   0  0  0  0  0  0  0  0  0  0  0  0
  196.0810  174.4210  146.1450 C   0  0  0  0  0  2  0  0  0  0  0  0
  194.6580  174.8290  145.7230 C   0  0  1  0  0  3  0  0  0  0  0  0
  193.6540  173.6680  145.8360 C   0  0  0  0  0  2  0  0  0  0  0  0
  196.1250  173.1280  143.9470 C   0  0  0  0  0  0  0  0  0  0  0  0
  193.9900  172.4280  144.9950 C   0  0  0  0  0  2  0  0  0  0  0  0
  194.8440  172.7240  143.7830 C   0  0  0  0  0  0  0  0  0  0  0  0
  194.1770  176.0490  146.5150 C   0  0  0  0  0  3  0  0  0  0  0  0
  194.6280  177.3400  145.8530 C   0  0  0  0  0  1  0  0  0  0  0  0
  192.6600  176.0750  146.6050 C   0  0  0  0  0  1  0  0  0  0  0  0
  190.6600  173.4500  142.5740 C   0  0  0  0  0  2  0  0  0  0  0  0
  189.4470  174.4730  145.9850 N   0  0  0  0  0  0  0  0  0  0  0  0
  189.2940  175.3570  143.3930 N   0  0  0  0  0  0  0  0  0  0  0  0
  187.3940  177.4830  146.4260 C   0  0  0  0  0  0  0  0  0  0  0  0
  188.1190  176.3200  146.7270 C   0  0  0  0  0  3  0  0  0  0  0  0
  188.7510  175.6060  145.7080 C   0  0  0  0  0  0  0  0  0  0  0  0
  187.9670  177.2280  144.0760 C   0  0  0  0  0  3  0  0  0  0  0  0
  188.6740  176.0610  144.3750 C   0  0  0  0  0  0  0  0  0  0  0  0
  187.3340  177.9390  145.1000 C   0  0  0  0  0  3  0  0  0  0  0  0
  189.9870  174.2200  143.6760 C   0  0  0  0  0  0  0  0  0  0  0  0
  190.0660  173.7720  144.9990 C   0  0  0  0  0  3  0  0  0  0  0  0
  186.7520  178.2760  147.5220 C   0  0  1  0  0  3  0  0  0  0  0  0
  185.6560  179.0910  146.9990 C   0  0  0  0  0  2  0  0  0  0  0  0
  185.3570  177.8400  147.7060 N   0  0  0  0  0  2  0  0  0  0  0  0
  1  5  1  1  0  0  0
  1 17  1  0  0  0  0
  2 12  1  0  0  0  0
  3 15  1  0  0  0  0
  4 21  1  0  0  0  0
  5  4  1  0  0  0  0
  6  7  1  1  0  0  0
  8  6  1  0  0  0  0
  8  4  1  0  0  0  0
  9  3  1  0  0  0  0
 10  6  1  0  0  0  0
 10  9  1  1  0  0  0
 10  1  1  0  0  0  0
 11  9  2  0  0  0  0
 13 14  1  0  0  0  0
 13 12  1  0  0  0  0
 13 18  1  1  0  0  0
 15  2  1  0  0  0  0
 16 14  1  0  0  0  0
 17 15  2  0  0  0  0
 17 16  1  0  0  0  0
 18 20  1  0  0  0  0
 19 18  1  0  0  0  0
 21 30  1  0  0  0  0
 23 30  2  0  0  0  0
 23 28  1  0  0  0  0
 24 25  1  0  0  0  0
 26 22  1  0  0  0  0
 26 25  2  0  0  0  0
 27 28  2  0  0  0  0
 27 29  1  0  0  0  0
 28 26  1  0  0  0  0
 29 24  2  0  0  0  0
 30 31  1  0  0  0  0
 31 22  2  0  0  0  0
 32 24  1  6  0  0  0
 32 34  1  0  0  0  0
 33 32  1  0  0  0  0
 33 34  1  0  0  0  0
M  END
>  <MODEL>
1

>  <REMARK>
 VINA RESULT:      -7.9      0.000      0.000
  Name = 
  4 active torsions:
  status: ('A' for Active; 'I' for Inactive)
    1  A    between atoms: C_3  and  C_25
    2  A    between atoms: C_7  and  C_11
    3  A    between atoms: N_8  and  C_18
    4  A    between atoms: C_18  and  C_30
                            x       y       z     vdW  Elec       q    Type
                         _______ _______ _______ _____ _____    ______ ____

>  <TORSDO>
F 4

$$$$
=
 OpenBabel11052420343D

 34 39  0  0  1  0  0  0  0  0999 V2000
  193.9840  172.5000  142.3740 C   0  0  1  0  0  3  0  0  0  0  0  0
  196.1070  173.9050  145.2970 C   0  0  0  0  0  2  0  0  0  0  0  0
  196.5250  173.7860  142.7450 C   0  0  0  0  0  2  0  0  0  0  0  0
  191.6440  173.2780  142.3250 N   0  0  0  0  0  0  0  0  0  0  0  0
  192.5080  172.0960  142.2740 C   0  0  0  0  0  2  0  0  0  0  0  0
  193.3090  174.6920  141.2050 C   0  0  2  0  0  3  0  0  0  0  0  0
  193.4260  175.6230  142.3180 N   0  0  0  0  0  1  0  0  0  0  0  0
  191.8950  174.1210  141.1540 C   0  0  0  0  0  2  0  0  0  0  0  0
  195.7480  174.0760  141.4890 C   0  0  0  0  0  0  0  0  0  0  0  0
  194.3430  173.5530  141.3040 C   0  0  1  0  0  3  0  0  0  0  0  0
  196.2790  174.7100  140.5910 O   0  0  0  0  0  0  0  0  0  0  0  0
  195.2800  175.0090  145.9750 C   0  0  0  0  0  2  0  0  0  0  0  0
  193.8330  175.1500  145.4720 C   0  0  1  0  0  3  0  0  0  0  0  0
  193.0110  173.8640  145.6740 C   0  0  0  0  0  2  0  0  0  0  0  0
  195.6170  173.5330  143.9230 C   0  0  0  0  0  0  0  0  0  0  0  0
  193.5680  172.6160  144.9730 C   0  0  0  0  0  2  0  0  0  0  0  0
  194.4200  172.9220  143.7630 C   0  0  0  0  0  0  0  0  0  0  0  0
  193.1380  176.3510  146.1210 C   0  0  0  0  0  3  0  0  0  0  0  0
  192.1340  175.8990  147.1670 C   0  0  0  0  0  1  0  0  0  0  0  0
  194.1470  177.2600  146.8020 C   0  0  0  0  0  1  0  0  0  0  0  0
  190.2330  172.8720  142.3640 C   0  0  0  0  0  2  0  0  0  0  0  0
  187.3570  175.2900  142.1720 N   0  0  0  0  0  0  0  0  0  0  0  0
  189.4670  174.7260  143.8310 N   0  0  0  0  0  0  0  0  0  0  0  0
  186.8690  177.8410  144.7660 C   0  0  0  0  0  0  0  0  0  0  0  0
  186.6630  177.0740  143.6080 C   0  0  0  0  0  3  0  0  0  0  0  0
  187.5390  176.0330  143.2950 C   0  0  0  0  0  0  0  0  0  0  0  0
  188.8190  176.4920  145.3090 C   0  0  0  0  0  3  0  0  0  0  0  0
  188.6230  175.7420  144.1480 C   0  0  0  0  0  0  0  0  0  0  0  0
  187.9400  177.5350  145.6190 C   0  0  0  0  0  3  0  0  0  0  0  0
  189.2830  173.9870  142.7030 C   0  0  0  0  0  0  0  0  0  0  0  0
  188.2050  174.2750  141.8590 C   0  0  0  0  0  3  0  0  0  0  0  0
  185.9060  178.9290  145.1290 C   0  0  1  0  0  3  0  0  0  0  0  0
  184.6030  178.6970  144.5080 C   0  0  0  0  0  2  0  0  0  0  0  0
  184.7990  178.3740  145.9260 N   0  0  0  0  0  2  0  0  0  0  0  0
  1  5  1  1  0  0  0
  1 17  1  0  0  0  0
  2 12  1  0  0  0  0
  3 15  1  0  0  0  0
  4 21  1  0  0  0  0
  5  4  1  0  0  0  0
  6 10  1  0  0  0  0
  6  7  1  1  0  0  0
  8  6  1  0  0  0  0
  8  4  1  0  0  0  0
  9  3  1  0  0  0  0
 10  9  1  1  0  0  0
 10  1  1  0  0  0  0
 11  9  2  0  0  0  0
 13 14  1  0  0  0  0
 13 12  1  0  0  0  0
 13 18  1  1  0  0  0
 15  2  1  0  0  0  0
 16 14  1  0  0  0  0
 17 15  2  0  0  0  0
 17 16  1  0  0  0  0
 18 20  1  0  0  0  0
 18 19  1  0  0  0  0
 21 30  1  0  0  0  0
 22 26  1  0  0  0  0
 23 28  1  0  0  0  0
 24 29  1  0  0  0  0
 25 24  2  0  0  0  0
 26 25  1  0  0  0  0
 26 28  2  0  0  0  0
 27 29  2  0  0  0  0
 28 27  1  0  0  0  0
 30 23  2  0  0  0  0
 31 22  2  0  0  0  0
 31 30  1  0  0  0  0
 32 24  1  6  0  0  0
 32 34  1  0  0  0  0
 33 32  1  0  0  0  0
 33 34  1  0  0  0  0
M  END
>  <MODEL>
2

>  <REMARK>
 VINA RESULT:      -7.7      1.145      1.745
  Name = 
  4 active torsions:
  status: ('A' for Active; 'I' for Inactive)
    1  A    between atoms: C_3  and  C_25
    2  A    between atoms: C_7  and  C_11
    3  A    between atoms: N_8  and  C_18
    4  A    between atoms: C_18  and  C_30
                            x       y       z     vdW  Elec       q    Type
                         _______ _______ _______ _____ _____    ______ ____

>  <TORSDO>
F 4

$$$$
=
 OpenBabel11052420343D

 34 39  0  0  1  0  0  0  0  0999 V2000
  194.9200  174.3380  142.9310 C   0  0  1  0  0  3  0  0  0  0  0  0
  192.8940  171.5540  141.1510 C   0  0  0  0  0  2  0  0  0  0  0  0
  195.2140  171.5520  142.2980 C   0  0  0  0  0  2  0  0  0  0  0  0
  193.6680  175.5990  144.6410 N   0  0  0  0  0  0  0  0  0  0  0  0
  194.5250  175.7220  143.4600 C   0  0  0  0  0  2  0  0  0  0  0  0
  194.7660  173.5270  145.3690 C   0  0  2  0  0  3  0  0  0  0  0  0
  193.5500  172.7300  145.2980 N   0  0  0  0  0  1  0  0  0  0  0  0
  194.4200  174.9690  145.7300 C   0  0  0  0  0  2  0  0  0  0  0  0
  195.8060  172.0650  143.5840 C   0  0  0  0  0  0  0  0  0  0  0  0
  195.5560  173.4800  144.0460 C   0  0  1  0  0  3  0  0  0  0  0  0
  196.5320  171.3350  144.2400 O   0  0  0  0  0  0  0  0  0  0  0  0
  191.5670  171.3950  141.9110 C   0  0  0  0  0  2  0  0  0  0  0  0
  191.3100  172.4400  143.0110 C   0  0  1  0  0  3  0  0  0  0  0  0
  191.2780  173.8780  142.4620 C   0  0  0  0  0  2  0  0  0  0  0  0
  193.9550  172.2920  141.9240 C   0  0  0  0  0  0  0  0  0  0  0  0
  192.5630  174.3360  141.7550 C   0  0  0  0  0  2  0  0  0  0  0  0
  193.8060  173.6070  142.2100 C   0  0  0  0  0  0  0  0  0  0  0  0
  190.0270  172.1210  143.7850 C   0  0  0  0  0  3  0  0  0  0  0  0
  189.8500  173.0690  144.9590 C   0  0  0  0  0  1  0  0  0  0  0  0
  188.8050  172.2520  142.8910 C   0  0  0  0  0  1  0  0  0  0  0  0
  193.1870  176.9220  145.0590 C   0  0  0  0  0  2  0  0  0  0  0  0
  189.8730  177.8950  143.5690 N   0  0  0  0  0  0  0  0  0  0  0  0
  190.8410  176.7300  145.8550 N   0  0  0  0  0  0  0  0  0  0  0  0
  186.7440  177.3080  145.3960 C   0  0  0  0  0  0  0  0  0  0  0  0
  187.6300  177.7010  144.3810 C   0  0  0  0  0  3  0  0  0  0  0  0
  189.0040  177.5100  144.5390 C   0  0  0  0  0  0  0  0  0  0  0  0
  188.6210  176.5020  146.7180 C   0  0  0  0  0  3  0  0  0  0  0  0
  189.5020  176.9100  145.7140 C   0  0  0  0  0  0  0  0  0  0  0  0
  187.2450  176.6970  146.5560 C   0  0  0  0  0  3  0  0  0  0  0  0
  191.7070  177.1220  144.8810 C   0  0  0  0  0  0  0  0  0  0  0  0
  191.2120  177.7140  143.7150 C   0  0  0  0  0  3  0  0  0  0  0  0
  185.2670  177.4700  145.2110 C   0  0  1  0  0  3  0  0  0  0  0  0
  184.6040  177.6810  146.4970 C   0  0  0  0  0  2  0  0  0  0  0  0
  184.8560  178.8260  145.6130 N   0  0  0  0  0  2  0  0  0  0  0  0
  1  5  1  1  0  0  0
  1 10  1  0  0  0  0
  2 12  1  0  0  0  0
  2 15  1  0  0  0  0
  3  9  1  0  0  0  0
  4 21  1  0  0  0  0
  4  8  1  0  0  0  0
  5  4  1  0  0  0  0
  6  7  1  6  0  0  0
  6  8  1  0  0  0  0
  9 11  2  0  0  0  0
 10  9  1  6  0  0  0
 10  6  1  0  0  0  0
 12 13  1  0  0  0  0
 13 18  1  6  0  0  0
 14 13  1  0  0  0  0
 15 17  2  0  0  0  0
 15  3  1  0  0  0  0
 16 17  1  0  0  0  0
 16 14  1  0  0  0  0
 17  1  1  0  0  0  0
 18 19  1  0  0  0  0
 20 18  1  0  0  0  0
 22 31  2  0  0  0  0
 22 26  1  0  0  0  0
 24 29  1  0  0  0  0
 25 26  1  0  0  0  0
 25 24  2  0  0  0  0
 26 28  2  0  0  0  0
 28 23  1  0  0  0  0
 28 27  1  0  0  0  0
 29 27  2  0  0  0  0
 30 21  1  0  0  0  0
 30 23  2  0  0  0  0
 31 30  1  0  0  0  0
 32 24  1  1  0  0  0
 32 34  1  0  0  0  0
 32 33  1  0  0  0  0
 34 33  1  0  0  0  0
M  END
>  <MODEL>
3

>  <REMARK>
 VINA RESULT:      -7.6      1.873      3.989
  Name = 
  4 active torsions:
  status: ('A' for Active; 'I' for Inactive)
    1  A    between atoms: C_3  and  C_25
    2  A    between atoms: C_7  and  C_11
    3  A    between atoms: N_8  and  C_18
    4  A    between atoms: C_18  and  C_30
                            x       y       z     vdW  Elec       q    Type
                         _______ _______ _______ _____ _____    ______ ____

>  <TORSDO>
F 4

$$$$
=
 OpenBabel11052420343D

 34 39  0  0  1  0  0  0  0  0999 V2000
  195.5490  175.7690  143.1720 C   0  0  1  0  0  3  0  0  0  0  0  0
  193.5830  174.5360  140.0660 C   0  0  0  0  0  2  0  0  0  0  0  0
  196.0100  174.1200  140.8660 C   0  0  0  0  0  2  0  0  0  0  0  0
  194.3940  175.4440  145.3260 N   0  0  0  0  0  0  0  0  0  0  0  0
  195.0980  176.4160  144.4870 C   0  0  0  0  0  2  0  0  0  0  0  0
  195.7420  173.5680  144.4930 C   0  0  2  0  0  3  0  0  0  0  0  0
  194.5990  172.8450  143.9550 N   0  0  0  0  0  1  0  0  0  0  0  0
  195.3160  174.3740  145.7170 C   0  0  0  0  0  2  0  0  0  0  0  0
  196.6960  173.7600  142.1570 C   0  0  0  0  0  0  0  0  0  0  0  0
  196.3780  174.4940  143.4380 C   0  0  1  0  0  3  0  0  0  0  0  0
  197.5520  172.8900  142.1560 O   0  0  0  0  0  0  0  0  0  0  0  0
  192.3690  173.7430  140.5780 C   0  0  0  0  0  2  0  0  0  0  0  0
  192.1490  173.7870  142.1000 C   0  0  1  0  0  3  0  0  0  0  0  0
  191.9310  175.2180  142.6230 C   0  0  0  0  0  2  0  0  0  0  0  0
  194.6570  174.7430  141.1020 C   0  0  0  0  0  0  0  0  0  0  0  0
  193.0830  176.1960  142.3490 C   0  0  0  0  0  2  0  0  0  0  0  0
  194.4280  175.5270  142.1810 C   0  0  0  0  0  0  0  0  0  0  0  0
  190.9940  172.8700  142.5160 C   0  0  0  0  0  3  0  0  0  0  0  0
  189.9980  173.6130  143.3910 C   0  0  0  0  0  1  0  0  0  0  0  0
  190.2480  172.3480  141.3000 C   0  0  0  0  0  1  0  0  0  0  0  0
  193.8510  176.1050  146.5200 C   0  0  0  0  0  2  0  0  0  0  0  0
  190.3170  175.4630  147.6390 N   0  0  0  0  0  0  0  0  0  0  0  0
  191.6340  176.8050  145.6420 N   0  0  0  0  0  0  0  0  0  0  0  0
  187.4740  176.8410  145.7710 C   0  0  0  0  0  0  0  0  0  0  0  0
  188.2040  176.1510  146.7510 C   0  0  0  0  0  3  0  0  0  0  0  0
  189.5990  176.1360  146.7030 C   0  0  0  0  0  0  0  0  0  0  0  0
  189.5520  177.5300  144.7110 C   0  0  0  0  0  3  0  0  0  0  0  0
  190.2760  176.8270  145.6770 C   0  0  0  0  0  0  0  0  0  0  0  0
  188.1550  177.5400  144.7630 C   0  0  0  0  0  3  0  0  0  0  0  0
  192.3490  176.1260  146.5800 C   0  0  0  0  0  0  0  0  0  0  0  0
  191.6750  175.4430  147.5990 C   0  0  0  0  0  3  0  0  0  0  0  0
  185.9790  176.8970  145.8450 C   0  0  1  0  0  3  0  0  0  0  0  0
  185.5370  177.1630  147.2130 C   0  0  0  0  0  2  0  0  0  0  0  0
  185.5450  178.2510  146.2290 N   0  0  0  0  0  2  0  0  0  0  0  0
  1 10  1  0  0  0  0
  1  5  1  1  0  0  0
  2 12  1  0  0  0  0
  2 15  1  0  0  0  0
  3 15  1  0  0  0  0
  3  9  1  0  0  0  0
  4  8  1  0  0  0  0
  4 21  1  0  0  0  0
  5  4  1  0  0  0  0
  6  7  1  6  0  0  0
  6  8  1  0  0  0  0
 10  9  1  6  0  0  0
 10  6  1  0  0  0  0
 11  9  2  0  0  0  0
 12 13  1  0  0  0  0
 13 18  1  6  0  0  0
 13 14  1  0  0  0  0
 15 17  2  0  0  0  0
 16 14  1  0  0  0  0
 17 16  1  0  0  0  0
 17  1  1  0  0  0  0
 18 19  1  0  0  0  0
 20 18  1  0  0  0  0
 21 30  1  0  0  0  0
 23 28  2  0  0  0  0
 23 30  1  0  0  0  0
 24 25  2  0  0  0  0
 26 25  1  0  0  0  0
 26 22  2  0  0  0  0
 27 29  2  0  0  0  0
 27 28  1  0  0  0  0
 28 26  1  0  0  0  0
 29 24  1  0  0  0  0
 30 31  2  0  0  0  0
 31 22  1  0  0  0  0
 32 24  1  1  0  0  0
 32 34  1  0  0  0  0
 32 33  1  0  0  0  0
 34 33  1  0  0  0  0
M  END
>  <MODEL>
4

>  <REMARK>
 VINA RESULT:      -7.6      1.603      3.907
  Name = 
  4 active torsions:
  status: ('A' for Active; 'I' for Inactive)
    1  A    between atoms: C_3  and  C_25
    2  A    between atoms: C_7  and  C_11
    3  A    between atoms: N_8  and  C_18
    4  A    between atoms: C_18  and  C_30
                            x       y       z     vdW  Elec       q    Type
                         _______ _______ _______ _____ _____    ______ ____

>  <TORSDO>
F 4

$$$$
=
 OpenBabel11052420343D

 34 39  0  0  1  0  0  0  0  0999 V2000
  192.1990  171.8790  142.4320 C   0  0  1  0  0  3  0  0  0  0  0  0
  193.7100  173.1140  145.7810 C   0  0  0  0  0  2  0  0  0  0  0  0
  194.7960  172.2180  143.6090 C   0  0  0  0  0  2  0  0  0  0  0  0
  190.5510  173.4050  141.4130 N   0  0  0  0  0  0  0  0  0  0  0  0
  190.8000  172.0200  141.8180 C   0  0  0  0  0  2  0  0  0  0  0  0
  192.9130  173.7990  140.8730 C   0  0  2  0  0  3  0  0  0  0  0  0
  193.0680  174.8730  141.8430 N   0  0  0  0  0  1  0  0  0  0  0  0
  191.4810  173.7790  140.3450 C   0  0  0  0  0  2  0  0  0  0  0  0
  194.6420  172.4420  142.1280 C   0  0  0  0  0  0  0  0  0  0  0  0
  193.2800  172.4290  141.4770 C   0  0  1  0  0  3  0  0  0  0  0  0
  195.6390  172.5960  141.4410 O   0  0  0  0  0  0  0  0  0  0  0  0
  193.2670  174.5740  145.9730 C   0  0  0  0  0  2  0  0  0  0  0  0
  192.2480  175.0930  144.9440 C   0  0  1  0  0  3  0  0  0  0  0  0
  190.9400  174.2820  144.9490 C   0  0  0  0  0  2  0  0  0  0  0  0
  193.5550  172.6110  144.3700 C   0  0  0  0  0  0  0  0  0  0  0  0
  191.0980  172.7840  144.6480 C   0  0  0  0  0  2  0  0  0  0  0  0
  192.3240  172.4500  143.8300 C   0  0  0  0  0  0  0  0  0  0  0  0
  191.9680  176.5860  145.1490 C   0  0  0  0  0  3  0  0  0  0  0  0
  191.3000  177.1870  143.9250 C   0  0  0  0  0  1  0  0  0  0  0  0
  191.0500  176.8080  146.3400 C   0  0  0  0  0  1  0  0  0  0  0  0
  189.1640  173.5560  140.9520 C   0  0  0  0  0  2  0  0  0  0  0  0
  187.1640  176.7320  141.2070 N   0  0  0  0  0  0  0  0  0  0  0  0
  188.4480  174.9660  142.8680 N   0  0  0  0  0  0  0  0  0  0  0  0
  186.5170  178.2900  144.4670 C   0  0  0  0  0  0  0  0  0  0  0  0
  186.5060  178.0660  143.0820 C   0  0  0  0  0  3  0  0  0  0  0  0
  187.1580  176.9530  142.5470 C   0  0  0  0  0  0  0  0  0  0  0  0
  187.8150  176.2560  144.7810 C   0  0  0  0  0  3  0  0  0  0  0  0
  187.8180  176.0450  143.4010 C   0  0  0  0  0  0  0  0  0  0  0  0
  187.1620  177.3730  145.3120 C   0  0  0  0  0  3  0  0  0  0  0  0
  188.4540  174.7510  141.5240 C   0  0  0  0  0  0  0  0  0  0  0  0
  187.7960  175.6510  140.6790 C   0  0  0  0  0  3  0  0  0  0  0  0
  185.7810  179.4570  145.0480 C   0  0  1  0  0  3  0  0  0  0  0  0
  184.5680  179.7380  144.2820 C   0  0  0  0  0  2  0  0  0  0  0  0
  184.4700  179.0200  145.5580 N   0  0  0  0  0  2  0  0  0  0  0  0
  1  5  1  6  0  0  0
  1 17  1  0  0  0  0
  2 12  1  0  0  0  0
  3 15  1  0  0  0  0
  4  5  1  0  0  0  0
  6 10  1  0  0  0  0
  6  7  1  1  0  0  0
  8  6  1  0  0  0  0
  8  4  1  0  0  0  0
  9  3  1  0  0  0  0
 10  9  1  1  0  0  0
 10  1  1  0  0  0  0
 11  9  2  0  0  0  0
 13 14  1  0  0  0  0
 13 18  1  1  0  0  0
 13 12  1  0  0  0  0
 15  2  1  0  0  0  0
 16 14  1  0  0  0  0
 17 15  2  0  0  0  0
 17 16  1  0  0  0  0
 18 20  1  0  0  0  0
 19 18  1  0  0  0  0
 21  4  1  0  0  0  0
 21 30  1  0  0  0  0
 22 26  1  0  0  0  0
 23 28  1  0  0  0  0
 24 29  1  0  0  0  0
 25 24  2  0  0  0  0
 26 25  1  0  0  0  0
 26 28  2  0  0  0  0
 27 29  2  0  0  0  0
 28 27  1  0  0  0  0
 30 23  2  0  0  0  0
 31 22  2  0  0  0  0
 31 30  1  0  0  0  0
 32 24  1  6  0  0  0
 32 34  1  0  0  0  0
 33 32  1  0  0  0  0
 33 34  1  0  0  0  0
M  END
>  <MODEL>
5

>  <REMARK>
 VINA RESULT:      -7.4      1.846      2.774
  Name = 
  4 active torsions:
  status: ('A' for Active; 'I' for Inactive)
    1  A    between atoms: C_3  and  C_25
    2  A    between atoms: C_7  and  C_11
    3  A    between atoms: N_8  and  C_18
    4  A    between atoms: C_18  and  C_30
                            x       y       z     vdW  Elec       q    Type
                         _______ _______ _______ _____ _____    ______ ____

>  <TORSDO>
F 4

$$$$
=
 OpenBabel11052420343D

 34 39  0  0  1  0  0  0  0  0999 V2000
  189.7160  174.2320  144.6440 C   0  0  1  0  0  3  0  0  0  0  0  0
  193.2790  173.1860  145.7590 C   0  0  0  0  0  2  0  0  0  0  0  0
  191.6280  172.1760  144.0400 C   0  0  0  0  0  2  0  0  0  0  0  0
  189.4800  176.6070  144.0250 N   0  0  0  0  0  0  0  0  0  0  0  0
  188.9150  175.5250  144.8350 C   0  0  0  0  0  2  0  0  0  0  0  0
  190.2110  175.0660  142.2590 C   0  0  2  0  0  3  0  0  0  0  0  0
  191.6190  175.4080  142.3940 N   0  0  0  0  0  1  0  0  0  0  0  0
  189.3480  176.2770  142.6040 C   0  0  0  0  0  2  0  0  0  0  0  0
  190.7450  172.6850  142.9320 C   0  0  0  0  0  0  0  0  0  0  0  0
  189.8290  173.8660  143.1480 C   0  0  1  0  0  3  0  0  0  0  0  0
  190.7420  172.1070  141.8570 O   0  0  0  0  0  0  0  0  0  0  0  0
  194.2200  174.3610  145.4490 C   0  0  0  0  0  2  0  0  0  0  0  0
  193.5270  175.6500  144.9700 C   0  0  1  0  0  3  0  0  0  0  0  0
  192.5350  176.2050  146.0070 C   0  0  0  0  0  2  0  0  0  0  0  0
  191.9580  173.2560  145.0390 C   0  0  0  0  0  0  0  0  0  0  0  0
  191.3970  175.2510  146.3990 C   0  0  0  0  0  2  0  0  0  0  0  0
  191.0640  174.2270  145.3380 C   0  0  0  0  0  0  0  0  0  0  0  0
  194.5560  176.7130  144.5720 C   0  0  0  0  0  3  0  0  0  0  0  0
  194.8510  177.6460  145.7350 C   0  0  0  0  0  1  0  0  0  0  0  0
  195.8650  176.0710  144.1440 C   0  0  0  0  0  1  0  0  0  0  0  0
  188.7900  177.8710  144.3160 C   0  0  0  0  0  2  0  0  0  0  0  0
  185.0290  177.8980  144.2220 N   0  0  0  0  0  0  0  0  0  0  0  0
  187.1350  178.0630  142.4730 N   0  0  0  0  0  0  0  0  0  0  0  0
  183.2300  178.1940  141.0370 C   0  0  0  0  0  0  0  0  0  0  0  0
  183.4720  178.0730  142.4140 C   0  0  0  0  0  3  0  0  0  0  0  0
  184.7820  178.0250  142.8930 C   0  0  0  0  0  0  0  0  0  0  0  0
  185.6270  178.2490  140.6250 C   0  0  0  0  0  3  0  0  0  0  0  0
  185.8650  178.1110  141.9940 C   0  0  0  0  0  0  0  0  0  0  0  0
  184.3120  178.2960  140.1490 C   0  0  0  0  0  3  0  0  0  0  0  0
  187.3770  177.9310  143.8060 C   0  0  0  0  0  0  0  0  0  0  0  0
  186.3020  177.8490  144.6970 C   0  0  0  0  0  3  0  0  0  0  0  0
  181.8260  178.2920  140.5240 C   0  0  1  0  0  3  0  0  0  0  0  0
  180.8760  178.4000  141.6300 C   0  0  0  0  0  2  0  0  0  0  0  0
  181.2530  179.6020  140.8770 N   0  0  0  0  0  2  0  0  0  0  0  0
  1  5  1  6  0  0  0
  1 17  1  0  0  0  0
  3 15  1  0  0  0  0
  4 21  1  0  0  0  0
  4  5  1  0  0  0  0
  6  7  1  1  0  0  0
  6  8  1  0  0  0  0
  6 10  1  0  0  0  0
  8  4  1  0  0  0  0
  9  3  1  0  0  0  0
 10  9  1  1  0  0  0
 10  1  1  0  0  0  0
 11  9  2  0  0  0  0
 12  2  1  0  0  0  0
 13 18  1  1  0  0  0
 13 12  1  0  0  0  0
 13 14  1  0  0  0  0
 14 16  1  0  0  0  0
 15 17  2  0  0  0  0
 15  2  1  0  0  0  0
 17 16  1  0  0  0  0
 18 19  1  0  0  0  0
 20 18  1  0  0  0  0
 22 31  1  0  0  0  0
 23 30  1  0  0  0  0
 24 25  2  0  0  0  0
 25 26  1  0  0  0  0
 26 22  2  0  0  0  0
 27 28  1  0  0  0  0
 28 23  2  0  0  0  0
 28 26  1  0  0  0  0
 29 27  2  0  0  0  0
 29 24  1  0  0  0  0
 30 21  1  0  0  0  0
 30 31  2  0  0  0  0
 32 34  1  0  0  0  0
 32 24  1  1  0  0  0
 32 33  1  0  0  0  0
 34 33  1  0  0  0  0
M  END
>  <MODEL>
6

>  <REMARK>
 VINA RESULT:      -7.2      3.448      5.030
  Name = 
  4 active torsions:
  status: ('A' for Active; 'I' for Inactive)
    1  A    between atoms: C_3  and  C_25
    2  A    between atoms: C_7  and  C_11
    3  A    between atoms: N_8  and  C_18
    4  A    between atoms: C_18  and  C_30
                            x       y       z     vdW  Elec       q    Type
                         _______ _______ _______ _____ _____    ______ ____

>  <TORSDO>
F 4

$$$$
=
 OpenBabel11052420343D

 34 39  0  0  1  0  0  0  0  0999 V2000
  193.8890  175.0110  142.9020 C   0  0  1  0  0  3  0  0  0  0  0  0
  197.2920  173.1990  142.4930 C   0  0  0  0  0  2  0  0  0  0  0  0
  196.6770  175.6950  142.7970 C   0  0  0  0  0  2  0  0  0  0  0  0
  192.4080  174.0570  144.6280 N   0  0  0  0  0  0  0  0  0  0  0  0
  192.4830  174.4990  143.2330 C   0  0  0  0  0  2  0  0  0  0  0  0
  194.0470  175.7280  145.3700 C   0  0  2  0  0  3  0  0  0  0  0  0
  194.9930  174.7380  145.8640 N   0  0  0  0  0  1  0  0  0  0  0  0
  192.6220  175.2010  145.5170 C   0  0  0  0  0  2  0  0  0  0  0  0
  195.7700  176.5040  143.6860 C   0  0  0  0  0  0  0  0  0  0  0  0
  194.3310  176.1020  143.9010 C   0  0  1  0  0  3  0  0  0  0  0  0
  196.1970  177.5230  144.2050 O   0  0  0  0  0  0  0  0  0  0  0  0
  197.4260  172.2060  143.6590 C   0  0  0  0  0  2  0  0  0  0  0  0
  196.1740  172.0560  144.5420 C   0  0  1  0  0  3  0  0  0  0  0  0
  194.9490  171.5680  143.7490 C   0  0  0  0  0  2  0  0  0  0  0  0
  196.2400  174.2550  142.7090 C   0  0  0  0  0  0  0  0  0  0  0  0
  194.5210  172.4730  142.5840 C   0  0  0  0  0  2  0  0  0  0  0  0
  194.9290  173.9190  142.7500 C   0  0  0  0  0  0  0  0  0  0  0  0
  196.4510  171.1420  145.7400 C   0  0  0  0  0  3  0  0  0  0  0  0
  195.2040  170.3690  146.1340 C   0  0  0  0  0  1  0  0  0  0  0  0
  197.5430  170.1360  145.4160 C   0  0  0  0  0  1  0  0  0  0  0  0
  191.1000  173.4460  144.8970 C   0  0  0  0  0  2  0  0  0  0  0  0
  188.7610  175.2980  147.1880 N   0  0  0  0  0  0  0  0  0  0  0  0
  189.4600  175.2770  144.5360 N   0  0  0  0  0  0  0  0  0  0  0  0
  186.5570  177.9330  145.8960 C   0  0  0  0  0  0  0  0  0  0  0  0
  187.1840  177.0530  146.7920 C   0  0  0  0  0  3  0  0  0  0  0  0
  188.1540  176.1610  146.3330 C   0  0  0  0  0  0  0  0  0  0  0  0
  187.9040  177.0370  144.0800 C   0  0  0  0  0  3  0  0  0  0  0  0
  188.5140  176.1510  144.9700 C   0  0  0  0  0  0  0  0  0  0  0  0
  186.9320  177.9290  144.5440 C   0  0  0  0  0  3  0  0  0  0  0  0
  190.0620  174.4110  145.3970 C   0  0  0  0  0  0  0  0  0  0  0  0
  189.7060  174.4250  146.7490 C   0  0  0  0  0  3  0  0  0  0  0  0
  185.5490  178.9230  146.3930 C   0  0  1  0  0  3  0  0  0  0  0  0
  184.4360  179.0450  145.4520 C   0  0  0  0  0  2  0  0  0  0  0  0
  184.2720  178.2420  146.6700 N   0  0  0  0  0  2  0  0  0  0  0  0
  1  5  1  1  0  0  0
  1 10  1  0  0  0  0
  2 15  1  0  0  0  0
  2 12  1  0  0  0  0
  3  9  1  0  0  0  0
  4 21  1  0  0  0  0
  4  8  1  0  0  0  0
  5  4  1  0  0  0  0
  6  8  1  0  0  0  0
  6  7  1  6  0  0  0
  9 11  2  0  0  0  0
 10  9  1  1  0  0  0
 10  6  1  0  0  0  0
 12 13  1  0  0  0  0
 13 18  1  1  0  0  0
 14 13  1  0  0  0  0
 15 17  2  0  0  0  0
 15  3  1  0  0  0  0
 16 17  1  0  0  0  0
 16 14  1  0  0  0  0
 17  1  1  0  0  0  0
 18 19  1  0  0  0  0
 20 18  1  0  0  0  0
 21 30  1  0  0  0  0
 23 28  2  0  0  0  0
 23 30  1  0  0  0  0
 24 25  2  0  0  0  0
 26 25  1  0  0  0  0
 26 22  2  0  0  0  0
 27 29  2  0  0  0  0
 27 28  1  0  0  0  0
 28 26  1  0  0  0  0
 29 24  1  0  0  0  0
 30 31  2  0  0  0  0
 31 22  1  0  0  0  0
 32 24  1  6  0  0  0
 32 34  1  0  0  0  0
 33 32  1  0  0  0  0
 33 34  1  0  0  0  0
M  END
>  <MODEL>
7

>  <REMARK>
 VINA RESULT:      -7.2      1.823      3.150
  Name = 
  4 active torsions:
  status: ('A' for Active; 'I' for Inactive)
    1  A    between atoms: C_3  and  C_25
    2  A    between atoms: C_7  and  C_11
    3  A    between atoms: N_8  and  C_18
    4  A    between atoms: C_18  and  C_30
                            x       y       z     vdW  Elec       q    Type
                         _______ _______ _______ _____ _____    ______ ____

>  <TORSDO>
F 4

$$$$
=
 OpenBabel11052420343D

 34 39  0  0  1  0  0  0  0  0999 V2000
  194.0550  175.6370  143.5890 C   0  0  1  0  0  3  0  0  0  0  0  0
  192.6860  173.5000  140.6590 C   0  0  0  0  0  2  0  0  0  0  0  0
  195.0000  173.5850  141.8150 C   0  0  0  0  0  2  0  0  0  0  0  0
  192.6380  175.6580  145.6070 N   0  0  0  0  0  0  0  0  0  0  0  0
  193.3590  176.4990  144.6490 C   0  0  0  0  0  2  0  0  0  0  0  0
  194.2660  173.8310  145.4120 C   0  0  2  0  0  3  0  0  0  0  0  0
  193.2880  172.8660  144.9310 N   0  0  0  0  0  1  0  0  0  0  0  0
  193.5920  174.8290  146.3490 C   0  0  0  0  0  2  0  0  0  0  0  0
  195.5240  173.6140  143.2260 C   0  0  0  0  0  0  0  0  0  0  0  0
  194.9550  174.5700  144.2480 C   0  0  1  0  0  3  0  0  0  0  0  0
  196.4510  172.8820  143.5340 O   0  0  0  0  0  0  0  0  0  0  0  0
  191.4930  172.6940  141.1980 C   0  0  0  0  0  2  0  0  0  0  0  0
  191.0510  173.0490  142.6290 C   0  0  1  0  0  3  0  0  0  0  0  0
  190.6240  174.5210  142.7650 C   0  0  0  0  0  2  0  0  0  0  0  0
  193.5730  174.0680  141.7350 C   0  0  0  0  0  0  0  0  0  0  0  0
  191.7040  175.5520  142.4030 C   0  0  0  0  0  2  0  0  0  0  0  0
  193.1170  175.0390  142.5600 C   0  0  0  0  0  0  0  0  0  0  0  0
  189.9420  172.1090  143.1130 C   0  0  0  0  0  3  0  0  0  0  0  0
  189.6940  172.2820  144.6010 C   0  0  0  0  0  1  0  0  0  0  0  0
  188.6370  172.3880  142.3850 C   0  0  0  0  0  1  0  0  0  0  0  0
  191.8660  176.4950  146.5360 C   0  0  0  0  0  2  0  0  0  0  0  0
  188.1880  177.2750  146.4090 N   0  0  0  0  0  0  0  0  0  0  0  0
  190.3430  177.2230  144.7130 N   0  0  0  0  0  0  0  0  0  0  0  0
  186.5880  178.2900  143.2660 C   0  0  0  0  0  0  0  0  0  0  0  0
  186.7560  177.9640  144.6210 C   0  0  0  0  0  3  0  0  0  0  0  0
  188.0150  177.6020  145.1030 C   0  0  0  0  0  0  0  0  0  0  0  0
  188.9620  177.9180  142.8870 C   0  0  0  0  0  3  0  0  0  0  0  0
  189.1230  177.5770  144.2310 C   0  0  0  0  0  0  0  0  0  0  0  0
  187.6990  178.2790  142.4080 C   0  0  0  0  0  3  0  0  0  0  0  0
  190.5100  176.8920  146.0230 C   0  0  0  0  0  0  0  0  0  0  0  0
  189.4110  176.9210  146.8870 C   0  0  0  0  0  3  0  0  0  0  0  0
  185.2480  178.7220  142.7550 C   0  0  1  0  0  3  0  0  0  0  0  0
  185.0700  178.3170  141.3620 C   0  0  0  0  0  2  0  0  0  0  0  0
  184.4310  177.5410  142.4310 N   0  0  0  0  0  2  0  0  0  0  0  0
  1 10  1  0  0  0  0
  1  5  1  1  0  0  0
  2 12  1  0  0  0  0
  2 15  1  0  0  0  0
  3  9  1  0  0  0  0
  4  8  1  0  0  0  0
  4 21  1  0  0  0  0
  5  4  1  0  0  0  0
  6  7  1  6  0  0  0
  6  8  1  0  0  0  0
  9 11  2  0  0  0  0
 10  9  1  6  0  0  0
 10  6  1  0  0  0  0
 12 13  1  0  0  0  0
 13 14  1  0  0  0  0
 13 18  1  6  0  0  0
 15  3  1  0  0  0  0
 15 17  2  0  0  0  0
 16 17  1  0  0  0  0
 16 14  1  0  0  0  0
 17  1  1  0  0  0  0
 18 19  1  0  0  0  0
 20 18  1  0  0  0  0
 22 31  1  0  0  0  0
 23 30  1  0  0  0  0
 24 25  2  0  0  0  0
 25 26  1  0  0  0  0
 26 22  2  0  0  0  0
 27 28  1  0  0  0  0
 28 23  2  0  0  0  0
 28 26  1  0  0  0  0
 29 27  2  0  0  0  0
 29 24  1  0  0  0  0
 30 21  1  0  0  0  0
 30 31  2  0  0  0  0
 32 24  1  1  0  0  0
 33 34  1  0  0  0  0
 33 32  1  0  0  0  0
 34 32  1  0  0  0  0
M  END
>  <MODEL>
8

>  <REMARK>
 VINA RESULT:      -7.1      2.166      4.361
  Name = 
  4 active torsions:
  status: ('A' for Active; 'I' for Inactive)
    1  A    between atoms: C_3  and  C_25
    2  A    between atoms: C_7  and  C_11
    3  A    between atoms: N_8  and  C_18
    4  A    between atoms: C_18  and  C_30
                            x       y       z     vdW  Elec       q    Type
                         _______ _______ _______ _____ _____    ______ ____

>  <TORSDO>
F 4

$$$$
=
 OpenBabel11052420343D

 34 39  0  0  1  0  0  0  0  0999 V2000
  192.3900  174.0470  145.5150 C   0  0  1  0  0  3  0  0  0  0  0  0
  190.7530  176.8630  147.6180 C   0  0  0  0  0  2  0  0  0  0  0  0
  193.1890  176.4690  146.8360 C   0  0  0  0  0  2  0  0  0  0  0  0
  191.2390  173.5340  143.3950 N   0  0  0  0  0  0  0  0  0  0  0  0
  191.7970  172.9530  144.6180 C   0  0  0  0  0  2  0  0  0  0  0  0
  192.9050  175.3370  143.3470 C   0  0  2  0  0  3  0  0  0  0  0  0
  191.9160  176.4010  143.4400 N   0  0  0  0  0  1  0  0  0  0  0  0
  192.3130  174.1420  142.6050 C   0  0  0  0  0  2  0  0  0  0  0  0
  193.8860  176.0820  145.5580 C   0  0  0  0  0  0  0  0  0  0  0  0
  193.4100  174.9070  144.7390 C   0  0  1  0  0  3  0  0  0  0  0  0
  194.8740  176.7050  145.2050 O   0  0  0  0  0  0  0  0  0  0  0  0
  189.6730  177.5190  146.7430 C   0  0  0  0  0  2  0  0  0  0  0  0
  189.4010  176.8210  145.3990 C   0  0  1  0  0  3  0  0  0  0  0  0
  188.9330  175.3660  145.5750 C   0  0  0  0  0  2  0  0  0  0  0  0
  191.7450  176.0350  146.8430 C   0  0  0  0  0  0  0  0  0  0  0  0
  189.9130  174.4490  146.3200 C   0  0  0  0  0  2  0  0  0  0  0  0
  191.3550  174.8930  146.2310 C   0  0  0  0  0  0  0  0  0  0  0  0
  188.4020  177.6200  144.5550 C   0  0  0  0  0  3  0  0  0  0  0  0
  188.0010  176.8470  143.3100 C   0  0  0  0  0  1  0  0  0  0  0  0
  187.1400  177.9210  145.3460 C   0  0  0  0  0  1  0  0  0  0  0  0
  190.5560  172.4980  142.6080 C   0  0  0  0  0  2  0  0  0  0  0  0
  188.6040  174.1600  139.8550 N   0  0  0  0  0  0  0  0  0  0  0  0
  190.8240  172.5750  140.1390 N   0  0  0  0  0  0  0  0  0  0  0  0
  189.6140  173.7900  136.3460 C   0  0  0  0  0  0  0  0  0  0  0  0
  188.8930  174.1950  137.4800 C   0  0  0  0  0  3  0  0  0  0  0  0
  189.2990  173.7830  138.7510 C   0  0  0  0  0  0  0  0  0  0  0  0
  191.1690  172.5790  137.7720 C   0  0  0  0  0  3  0  0  0  0  0  0
  190.4400  172.9690  138.8970 C   0  0  0  0  0  0  0  0  0  0  0  0
  190.7590  172.9940  136.5000 C   0  0  0  0  0  3  0  0  0  0  0  0
  190.1220  172.9520  141.2420 C   0  0  0  0  0  0  0  0  0  0  0  0
  188.9900  173.7620  141.0960 C   0  0  0  0  0  3  0  0  0  0  0  0
  189.2090  174.2680  134.9860 C   0  0  1  0  0  3  0  0  0  0  0  0
  188.3190  175.4230  135.0860 C   0  0  0  0  0  2  0  0  0  0  0  0
  189.7340  175.6250  134.7540 N   0  0  0  0  0  2  0  0  0  0  0  0
  1  5  1  6  0  0  0
  1 17  1  0  0  0  0
  3 15  1  0  0  0  0
  4  5  1  0  0  0  0
  6  7  1  1  0  0  0
  6 10  1  0  0  0  0
  8  6  1  0  0  0  0
  8  4  1  0  0  0  0
  9  3  1  0  0  0  0
 10  1  1  0  0  0  0
 10  9  1  1  0  0  0
 11  9  2  0  0  0  0
 12  2  1  0  0  0  0
 13 18  1  1  0  0  0
 13 14  1  0  0  0  0
 13 12  1  0  0  0  0
 14 16  1  0  0  0  0
 15  2  1  0  0  0  0
 17 16  1  0  0  0  0
 17 15  2  0  0  0  0
 18 20  1  0  0  0  0
 19 18  1  0  0  0  0
 21  4  1  0  0  0  0
 22 31  1  0  0  0  0
 23 30  1  0  0  0  0
 24 29  1  0  0  0  0
 24 25  2  0  0  0  0
 25 26  1  0  0  0  0
 26 28  1  0  0  0  0
 26 22  2  0  0  0  0
 27 28  1  0  0  0  0
 28 23  2  0  0  0  0
 29 27  2  0  0  0  0
 30 21  1  0  0  0  0
 31 30  2  0  0  0  0
 32 33  1  0  0  0  0
 32 24  1  1  0  0  0
 34 32  1  0  0  0  0
 34 33  1  0  0  0  0
M  END
>  <MODEL>
9

>  <REMARK>
 VINA RESULT:      -7.1      3.528      6.905
  Name = 
  4 active torsions:
  status: ('A' for Active; 'I' for Inactive)
    1  A    between atoms: C_3  and  C_25
    2  A    between atoms: C_7  and  C_11
    3  A    between atoms: N_8  and  C_18
    4  A    between atoms: C_18  and  C_30
                            x       y       z     vdW  Elec       q    Type
                         _______ _______ _______ _____ _____    ______ ____

>  <TORSDO>
F 4

$$$$
