=
 OpenBabel11052420263D

 34 39  0  0  0  0  0  0  0  0999 V2000
  187.1590  176.9650  144.4250 C   0  0  0  0  0  0  0  0  0  0  0  0
  185.7160  178.1880  141.1760 C   0  0  0  0  0  3  0  0  0  0  0  0
  185.2500  179.1000  143.5250 S   0  0  0  0  0  0  0  0  0  0  0  0
  188.2550  175.9590  146.4000 C   0  0  0  0  0  0  0  0  0  0  0  0
  188.0330  176.0080  145.0010 C   0  0  0  0  0  3  0  0  0  0  0  0
  186.7470  177.7940  146.6850 C   0  0  0  0  0  0  0  0  0  0  0  0
  185.9720  178.7990  147.2390 C   0  0  0  0  0  3  0  0  0  0  0  0
  187.6000  176.8610  147.2630 C   0  0  0  0  0  3  0  0  0  0  0  0
  185.7080  178.7960  145.1040 C   0  0  0  0  0  0  0  0  0  0  0  0
  186.5460  177.8350  145.3420 C   0  0  0  0  0  0  0  0  0  0  0  0
  185.3130  179.4320  146.2290 N   0  0  0  0  0  0  0  0  0  0  0  0
  186.1420  177.4930  139.9580 C   0  0  0  0  0  3  0  0  0  0  0  0
  186.9780  176.4700  139.8040 C   0  0  0  0  0  0  0  0  0  0  0  0
  187.6810  175.7980  140.9000 C   0  0  0  0  0  3  0  0  0  0  0  0
  186.0270  178.0130  142.4600 C   0  0  0  0  0  0  0  0  0  0  0  0
  187.6520  176.0340  142.2060 C   0  0  0  0  0  3  0  0  0  0  0  0
  186.9170  177.0350  143.0110 C   0  0  0  0  0  0  0  0  0  0  0  0
  187.2220  175.9720  138.4340 C   0  0  0  0  0  0  0  0  0  0  0  0
  186.8290  176.6280  137.4320 O   0  0  0  0  0  0  0  0  0  0  0  0
  187.9040  174.7370  138.2270 N   0  0  0  0  0  1  0  0  0  0  0  0
  189.1590  174.9180  146.9680 C   0  0  0  0  0  2  0  0  0  0  0  0
  192.6600  176.3700  146.9380 C   0  0  0  0  0  3  0  0  0  0  0  0
  191.1280  174.5360  145.4700 C   0  0  0  0  0  3  0  0  0  0  0  0
  195.0980  175.3450  144.3410 C   0  0  0  0  0  0  0  0  0  0  0  0
  194.5370  175.9900  145.4530 C   0  0  0  0  0  3  0  0  0  0  0  0
  193.2190  175.7250  145.8320 C   0  0  0  0  0  0  0  0  0  0  0  0
  193.0040  174.1590  143.9830 C   0  0  0  0  0  3  0  0  0  0  0  0
  192.4470  174.8010  145.0910 C   0  0  0  0  0  0  0  0  0  0  0  0
  194.3240  174.4300  143.6110 C   0  0  0  0  0  3  0  0  0  0  0  0
  190.5760  175.1810  146.5810 C   0  0  0  0  0  0  0  0  0  0  0  0
  191.3400  176.1000  147.3110 C   0  0  0  0  0  3  0  0  0  0  0  0
  196.4870  175.6300  143.9480 C   0  0  0  0  0  0  0  0  0  0  0  0
  197.3710  174.7360  144.0350 O   0  0  0  0  0  1  0  0  0  0  0  0
  196.8370  176.8890  143.4760 O   0  0  0  0  0  0  0  0  0  0  0  0
  1  5  1  0  0  0  0
  1 10  1  0  0  0  0
  2 15  2  0  0  0  0
  3  9  1  0  0  0  0
  4 21  1  0  0  0  0
  4  8  1  0  0  0  0
  5  4  2  0  0  0  0
  6  7  1  0  0  0  0
  6  8  2  0  0  0  0
  9 10  2  0  0  0  0
  9 11  1  0  0  0  0
 10  6  1  0  0  0  0
 11  7  2  0  0  0  0
 12  2  1  0  0  0  0
 13 12  2  0  0  0  0
 13 14  1  0  0  0  0
 14 16  2  0  0  0  0
 15 17  1  0  0  0  0
 15  3  1  0  0  0  0
 16 17  1  0  0  0  0
 17  1  2  0  0  0  0
 18 13  1  0  0  0  0
 19 18  2  0  0  0  0
 20 18  1  0  0  0  0
 22 31  1  0  0  0  0
 23 30  1  0  0  0  0
 24 25  2  0  0  0  0
 25 26  1  0  0  0  0
 26 22  2  0  0  0  0
 27 28  1  0  0  0  0
 28 23  2  0  0  0  0
 28 26  1  0  0  0  0
 29 27  2  0  0  0  0
 29 24  1  0  0  0  0
 30 21  1  0  0  0  0
 30 31  2  0  0  0  0
 32 33  1  0  0  0  0
 32 24  1  0  0  0  0
 34 32  2  0  0  0  0
M  END
>  <MODEL>
1

>  <REMARK>
 VINA RESULT:      -9.1      0.000      0.000
  Name = 
  4 active torsions:
  status: ('A' for Active; 'I' for Inactive)
    1  A    between atoms: C_3  and  C_25
    2  A    between atoms: C_7  and  C_11
    3  A    between atoms: C_8  and  C_18
    4  A    between atoms: C_18  and  C_30
                            x       y       z     vdW  Elec       q    Type
                         _______ _______ _______ _____ _____    ______ ____

>  <TORSDO>
F 4

$$$$
=
 OpenBabel11052420263D

 34 39  0  0  0  0  0  0  0  0999 V2000
  187.1580  176.8420  143.6010 C   0  0  0  0  0  0  0  0  0  0  0  0
  186.5480  177.0570  139.8970 C   0  0  0  0  0  3  0  0  0  0  0  0
  185.6620  178.6330  141.7120 S   0  0  0  0  0  0  0  0  0  0  0  0
  187.7210  176.4580  145.9770 C   0  0  0  0  0  0  0  0  0  0  0  0
  187.8090  176.0910  144.6110 C   0  0  0  0  0  3  0  0  0  0  0  0
  186.3360  178.3110  145.3690 C   0  0  0  0  0  0  0  0  0  0  0  0
  185.5410  179.4440  145.4190 C   0  0  0  0  0  3  0  0  0  0  0  0
  186.9690  177.5840  146.3710 C   0  0  0  0  0  3  0  0  0  0  0  0
  185.7430  178.8090  143.3730 C   0  0  0  0  0  0  0  0  0  0  0  0
  186.4330  177.9520  144.0630 C   0  0  0  0  0  0  0  0  0  0  0  0
  185.1670  179.7550  144.1470 N   0  0  0  0  0  0  0  0  0  0  0  0
  187.1700  176.0270  139.0610 C   0  0  0  0  0  3  0  0  0  0  0  0
  187.9380  174.9960  139.4030 C   0  0  0  0  0  0  0  0  0  0  0  0
  188.3330  174.6730  140.7770 C   0  0  0  0  0  3  0  0  0  0  0  0
  186.5620  177.2700  141.2120 C   0  0  0  0  0  0  0  0  0  0  0  0
  188.0430  175.2870  141.9170 C   0  0  0  0  0  3  0  0  0  0  0  0
  187.2330  176.4910  142.2100 C   0  0  0  0  0  0  0  0  0  0  0  0
  188.4300  174.1090  138.3290 C   0  0  0  0  0  0  0  0  0  0  0  0
  188.3860  174.4740  137.1230 O   0  0  0  0  0  0  0  0  0  0  0  0
  188.9630  172.8240  138.6420 N   0  0  0  0  0  1  0  0  0  0  0  0
  188.3970  175.6230  147.0120 C   0  0  0  0  0  2  0  0  0  0  0  0
  191.2820  173.7070  145.4700 C   0  0  0  0  0  3  0  0  0  0  0  0
  190.8570  176.0780  146.9070 C   0  0  0  0  0  3  0  0  0  0  0  0
  194.7480  174.9920  145.7360 C   0  0  0  0  0  0  0  0  0  0  0  0
  193.6590  174.1710  145.4080 C   0  0  0  0  0  3  0  0  0  0  0  0
  192.3650  174.5270  145.7950 C   0  0  0  0  0  0  0  0  0  0  0  0
  193.2350  176.5400  146.8470 C   0  0  0  0  0  3  0  0  0  0  0  0
  192.1520  175.7220  146.5190 C   0  0  0  0  0  0  0  0  0  0  0  0
  194.5270  176.1760  146.4560 C   0  0  0  0  0  3  0  0  0  0  0  0
  189.7750  175.2550  146.5750 C   0  0  0  0  0  0  0  0  0  0  0  0
  189.9890  174.0700  145.8610 C   0  0  0  0  0  3  0  0  0  0  0  0
  196.1080  174.6100  145.3260 C   0  0  0  0  0  0  0  0  0  0  0  0
  196.6060  175.0680  144.2620 O   0  0  0  0  0  0  0  0  0  0  0  0
  196.8580  173.7410  146.1090 O   0  0  0  0  0  1  0  0  0  0  0  0
  1 10  1  0  0  0  0
  1  5  1  0  0  0  0
  2 15  2  0  0  0  0
  3  9  1  0  0  0  0
  4  8  1  0  0  0  0
  4 21  1  0  0  0  0
  5  4  2  0  0  0  0
  6  7  1  0  0  0  0
  6  8  2  0  0  0  0
  9 10  2  0  0  0  0
  9 11  1  0  0  0  0
 10  6  1  0  0  0  0
 11  7  2  0  0  0  0
 12 13  2  0  0  0  0
 12  2  1  0  0  0  0
 13 14  1  0  0  0  0
 14 16  2  0  0  0  0
 15  3  1  0  0  0  0
 15 17  1  0  0  0  0
 16 17  1  0  0  0  0
 17  1  2  0  0  0  0
 18 20  1  0  0  0  0
 18 13  1  0  0  0  0
 19 18  2  0  0  0  0
 22 26  2  0  0  0  0
 22 31  1  0  0  0  0
 24 29  1  0  0  0  0
 25 24  2  0  0  0  0
 25 26  1  0  0  0  0
 26 28  1  0  0  0  0
 28 27  1  0  0  0  0
 28 23  2  0  0  0  0
 29 27  2  0  0  0  0
 30 23  1  0  0  0  0
 30 21  1  0  0  0  0
 31 30  2  0  0  0  0
 32 24  1  0  0  0  0
 32 34  1  0  0  0  0
 33 32  2  0  0  0  0
M  END
>  <MODEL>
2

>  <REMARK>
 VINA RESULT:      -9.0      1.295      2.020
  Name = 
  4 active torsions:
  status: ('A' for Active; 'I' for Inactive)
    1  A    between atoms: C_3  and  C_25
    2  A    between atoms: C_7  and  C_11
    3  A    between atoms: C_8  and  C_18
    4  A    between atoms: C_18  and  C_30
                            x       y       z     vdW  Elec       q    Type
                         _______ _______ _______ _____ _____    ______ ____

>  <TORSDO>
F 4

$$$$
=
 OpenBabel11052420263D

 34 39  0  0  0  0  0  0  0  0999 V2000
  191.6540  175.2210  144.2180 C   0  0  0  0  0  0  0  0  0  0  0  0
  192.3810  173.5440  140.9320 C   0  0  0  0  0  3  0  0  0  0  0  0
  194.0470  174.0930  142.8000 S   0  0  0  0  0  0  0  0  0  0  0  0
  190.8920  176.3380  146.2880 C   0  0  0  0  0  0  0  0  0  0  0  0
  190.6240  175.7930  145.0070 C   0  0  0  0  0  3  0  0  0  0  0  0
  193.2010  175.7690  146.0260 C   0  0  0  0  0  0  0  0  0  0  0  0
  194.5590  175.6080  146.2430 C   0  0  0  0  0  3  0  0  0  0  0  0
  192.2020  176.3340  146.8110 C   0  0  0  0  0  3  0  0  0  0  0  0
  194.0480  174.8000  144.3150 C   0  0  0  0  0  0  0  0  0  0  0  0
  192.9310  175.2450  144.8020 C   0  0  0  0  0  0  0  0  0  0  0  0
  195.0930  174.9920  145.1520 N   0  0  0  0  0  0  0  0  0  0  0  0
  191.2480  173.3420  140.0260 C   0  0  0  0  0  3  0  0  0  0  0  0
  189.9660  173.6630  140.1740 C   0  0  0  0  0  0  0  0  0  0  0  0
  189.4050  174.3250  141.3540 C   0  0  0  0  0  3  0  0  0  0  0  0
  192.4700  174.0920  142.1440 C   0  0  0  0  0  0  0  0  0  0  0  0
  189.9990  174.7300  142.4700 C   0  0  0  0  0  3  0  0  0  0  0  0
  191.4080  174.6620  142.9180 C   0  0  0  0  0  0  0  0  0  0  0  0
  189.0350  173.3300  139.0750 C   0  0  0  0  0  0  0  0  0  0  0  0
  187.9850  172.6700  139.3000 O   0  0  0  0  0  0  0  0  0  0  0  0
  189.3140  173.7520  137.7420 N   0  0  0  0  0  1  0  0  0  0  0  0
  189.7860  176.9570  147.0740 C   0  0  0  0  0  2  0  0  0  0  0  0
  186.1700  176.9720  145.9350 C   0  0  0  0  0  3  0  0  0  0  0  0
  188.7060  177.5900  144.9050 C   0  0  0  0  0  3  0  0  0  0  0  0
  185.2890  178.0260  142.4920 C   0  0  0  0  0  0  0  0  0  0  0  0
  185.1640  177.5730  143.8130 C   0  0  0  0  0  3  0  0  0  0  0  0
  186.2950  177.4270  144.6190 C   0  0  0  0  0  0  0  0  0  0  0  0
  187.6980  178.1870  142.7840 C   0  0  0  0  0  3  0  0  0  0  0  0
  187.5730  177.7370  144.1000 C   0  0  0  0  0  0  0  0  0  0  0  0
  186.5600  178.3320  141.9850 C   0  0  0  0  0  3  0  0  0  0  0  0
  188.5730  177.1400  146.2230 C   0  0  0  0  0  0  0  0  0  0  0  0
  187.3080  176.8270  146.7350 C   0  0  0  0  0  3  0  0  0  0  0  0
  184.0920  178.1780  141.6500 C   0  0  0  0  0  0  0  0  0  0  0  0
  182.9460  178.2280  142.1720 O   0  0  0  0  0  1  0  0  0  0  0  0
  184.2140  178.2700  140.2690 O   0  0  0  0  0  0  0  0  0  0  0  0
  1 10  1  0  0  0  0
  1  5  1  0  0  0  0
  2 15  2  0  0  0  0
  3  9  1  0  0  0  0
  4  8  1  0  0  0  0
  4 21  1  0  0  0  0
  5  4  2  0  0  0  0
  6  7  1  0  0  0  0
  6  8  2  0  0  0  0
  9 10  2  0  0  0  0
  9 11  1  0  0  0  0
 10  6  1  0  0  0  0
 11  7  2  0  0  0  0
 12 13  2  0  0  0  0
 12  2  1  0  0  0  0
 13 14  1  0  0  0  0
 14 16  2  0  0  0  0
 15  3  1  0  0  0  0
 15 17  1  0  0  0  0
 16 17  1  0  0  0  0
 17  1  2  0  0  0  0
 18 19  2  0  0  0  0
 18 13  1  0  0  0  0
 20 18  1  0  0  0  0
 22 31  1  0  0  0  0
 23 30  1  0  0  0  0
 24 25  2  0  0  0  0
 25 26  1  0  0  0  0
 26 22  2  0  0  0  0
 27 28  1  0  0  0  0
 28 26  1  0  0  0  0
 28 23  2  0  0  0  0
 29 24  1  0  0  0  0
 29 27  2  0  0  0  0
 30 31  2  0  0  0  0
 30 21  1  0  0  0  0
 32 33  1  0  0  0  0
 32 24  1  0  0  0  0
 34 32  2  0  0  0  0
M  END
>  <MODEL>
3

>  <REMARK>
 VINA RESULT:      -8.8      3.998      7.393
  Name = 
  4 active torsions:
  status: ('A' for Active; 'I' for Inactive)
    1  A    between atoms: C_3  and  C_25
    2  A    between atoms: C_7  and  C_11
    3  A    between atoms: C_8  and  C_18
    4  A    between atoms: C_18  and  C_30
                            x       y       z     vdW  Elec       q    Type
                         _______ _______ _______ _____ _____    ______ ____

>  <TORSDO>
F 4

$$$$
=
 OpenBabel11052420263D

 34 39  0  0  0  0  0  0  0  0999 V2000
  193.3420  175.0550  142.9770 C   0  0  0  0  0  0  0  0  0  0  0  0
  192.7490  174.0480  139.4030 C   0  0  0  0  0  3  0  0  0  0  0  0
  194.7930  175.2650  140.3570 S   0  0  0  0  0  0  0  0  0  0  0  0
  193.4660  175.5960  145.3860 C   0  0  0  0  0  0  0  0  0  0  0  0
  192.7830  175.0350  144.2800 C   0  0  0  0  0  3  0  0  0  0  0  0
  195.2650  176.2160  143.9350 C   0  0  0  0  0  0  0  0  0  0  0  0
  196.4570  176.7200  143.4420 C   0  0  0  0  0  3  0  0  0  0  0  0
  194.7280  176.2040  145.2170 C   0  0  0  0  0  3  0  0  0  0  0  0
  195.3420  175.8330  141.8300 C   0  0  0  0  0  0  0  0  0  0  0  0
  194.6020  175.6690  142.8830 C   0  0  0  0  0  0  0  0  0  0  0  0
  196.5000  176.4740  142.1040 N   0  0  0  0  0  0  0  0  0  0  0  0
  191.4900  173.3580  139.1090 C   0  0  0  0  0  3  0  0  0  0  0  0
  190.4910  173.0170  139.9190 C   0  0  0  0  0  0  0  0  0  0  0  0
  190.4570  173.2880  141.3580 C   0  0  0  0  0  3  0  0  0  0  0  0
  193.2610  174.5290  140.5360 C   0  0  0  0  0  0  0  0  0  0  0  0
  191.3500  173.8900  142.1360 C   0  0  0  0  0  3  0  0  0  0  0  0
  192.6690  174.4920  141.8400 C   0  0  0  0  0  0  0  0  0  0  0  0
  189.3290  172.3170  139.3320 C   0  0  0  0  0  0  0  0  0  0  0  0
  188.1540  172.6800  139.6080 O   0  0  0  0  0  0  0  0  0  0  0  0
  189.5230  171.2180  138.4460 N   0  0  0  0  0  1  0  0  0  0  0  0
  192.8290  175.5810  146.7340 C   0  0  0  0  0  2  0  0  0  0  0  0
  189.0970  175.2760  147.3240 C   0  0  0  0  0  3  0  0  0  0  0  0
  190.8610  176.7180  145.6860 C   0  0  0  0  0  3  0  0  0  0  0  0
  186.7090  177.2940  145.3330 C   0  0  0  0  0  0  0  0  0  0  0  0
  187.2160  176.3820  146.2700 C   0  0  0  0  0  3  0  0  0  0  0  0
  188.5930  176.1870  146.3910 C   0  0  0  0  0  0  0  0  0  0  0  0
  188.9780  177.8210  144.6320 C   0  0  0  0  0  3  0  0  0  0  0  0
  189.4820  176.9140  145.5660 C   0  0  0  0  0  0  0  0  0  0  0  0
  187.5980  178.0110  144.5170 C   0  0  0  0  0  3  0  0  0  0  0  0
  191.3590  175.8080  146.6250 C   0  0  0  0  0  0  0  0  0  0  0  0
  190.4780  175.0860  147.4380 C   0  0  0  0  0  3  0  0  0  0  0  0
  185.2570  177.4940  145.2110 C   0  0  0  0  0  0  0  0  0  0  0  0
  184.7270  177.6540  144.0780 O   0  0  0  0  0  0  0  0  0  0  0  0
  184.4540  177.5070  146.3450 O   0  0  0  0  0  1  0  0  0  0  0  0
  1  5  1  0  0  0  0
  2 15  2  0  0  0  0
  3 15  1  0  0  0  0
  3  9  1  0  0  0  0
  4 21  1  0  0  0  0
  5  4  2  0  0  0  0
  6  8  2  0  0  0  0
  7  6  1  0  0  0  0
  8  4  1  0  0  0  0
  9 11  1  0  0  0  0
  9 10  2  0  0  0  0
 10  1  1  0  0  0  0
 10  6  1  0  0  0  0
 11  7  2  0  0  0  0
 12  2  1  0  0  0  0
 12 13  2  0  0  0  0
 13 14  1  0  0  0  0
 14 16  2  0  0  0  0
 15 17  1  0  0  0  0
 17 16  1  0  0  0  0
 17  1  2  0  0  0  0
 18 19  2  0  0  0  0
 18 13  1  0  0  0  0
 20 18  1  0  0  0  0
 22 31  1  0  0  0  0
 23 30  1  0  0  0  0
 24 25  2  0  0  0  0
 25 26  1  0  0  0  0
 26 22  2  0  0  0  0
 27 28  1  0  0  0  0
 28 23  2  0  0  0  0
 28 26  1  0  0  0  0
 29 27  2  0  0  0  0
 29 24  1  0  0  0  0
 30 21  1  0  0  0  0
 30 31  2  0  0  0  0
 32 24  1  0  0  0  0
 32 34  1  0  0  0  0
 33 32  2  0  0  0  0
M  END
>  <MODEL>
4

>  <REMARK>
 VINA RESULT:      -8.5      4.393      7.488
  Name = 
  4 active torsions:
  status: ('A' for Active; 'I' for Inactive)
    1  A    between atoms: C_3  and  C_25
    2  A    between atoms: C_7  and  C_11
    3  A    between atoms: C_8  and  C_18
    4  A    between atoms: C_18  and  C_30
                            x       y       z     vdW  Elec       q    Type
                         _______ _______ _______ _____ _____    ______ ____

>  <TORSDO>
F 4

$$$$
=
 OpenBabel11052420263D

 34 39  0  0  0  0  0  0  0  0999 V2000
  187.2420  176.7530  143.5460 C   0  0  0  0  0  0  0  0  0  0  0  0
  186.7250  176.8880  139.8240 C   0  0  0  0  0  3  0  0  0  0  0  0
  185.8360  178.5320  141.5780 S   0  0  0  0  0  0  0  0  0  0  0  0
  187.7380  176.4150  145.9440 C   0  0  0  0  0  0  0  0  0  0  0  0
  187.8490  176.0110  144.5900 C   0  0  0  0  0  3  0  0  0  0  0  0
  186.4160  178.2870  145.2560 C   0  0  0  0  0  0  0  0  0  0  0  0
  185.6490  179.4400  145.2590 C   0  0  0  0  0  3  0  0  0  0  0  0
  187.0060  177.5700  146.2910 C   0  0  0  0  0  3  0  0  0  0  0  0
  185.8830  178.7480  143.2350 C   0  0  0  0  0  0  0  0  0  0  0  0
  186.5340  177.8920  143.9620 C   0  0  0  0  0  0  0  0  0  0  0  0
  185.3130  179.7280  143.9710 N   0  0  0  0  0  0  0  0  0  0  0  0
  187.3400  175.8220  139.0300 C   0  0  0  0  0  3  0  0  0  0  0  0
  188.0730  174.7810  139.4160 C   0  0  0  0  0  0  0  0  0  0  0  0
  188.4280  174.4830  140.8060 C   0  0  0  0  0  3  0  0  0  0  0  0
  186.7130  177.1340  141.1340 C   0  0  0  0  0  0  0  0  0  0  0  0
  188.1260  175.1340  141.9230 C   0  0  0  0  0  3  0  0  0  0  0  0
  187.3400  176.3640  142.1670 C   0  0  0  0  0  0  0  0  0  0  0  0
  188.5680  173.8550  138.3760 C   0  0  0  0  0  0  0  0  0  0  0  0
  188.5290  174.1770  137.1580 O   0  0  0  0  0  0  0  0  0  0  0  0
  189.0960  172.5810  138.7380 N   0  0  0  0  0  1  0  0  0  0  0  0
  188.3680  175.5910  147.0150 C   0  0  0  0  0  2  0  0  0  0  0  0
  192.1210  176.1250  147.0800 C   0  0  0  0  0  3  0  0  0  0  0  0
  190.2590  174.3960  145.8910 C   0  0  0  0  0  3  0  0  0  0  0  0
  194.3640  173.9410  145.0960 C   0  0  0  0  0  0  0  0  0  0  0  0
  193.9220  174.9560  145.9570 C   0  0  0  0  0  3  0  0  0  0  0  0
  192.5600  175.1110  146.2240 C   0  0  0  0  0  0  0  0  0  0  0  0
  192.0610  173.2300  144.7660 C   0  0  0  0  0  3  0  0  0  0  0  0
  191.6220  174.2400  145.6250 C   0  0  0  0  0  0  0  0  0  0  0  0
  193.4260  173.0810  144.5040 C   0  0  0  0  0  3  0  0  0  0  0  0
  189.8260  175.4090  146.7530 C   0  0  0  0  0  0  0  0  0  0  0  0
  190.7550  176.2750  147.3420 C   0  0  0  0  0  3  0  0  0  0  0  0
  195.8000  173.7840  144.8190 C   0  0  0  0  0  0  0  0  0  0  0  0
  196.1890  173.1590  143.7960 O   0  0  0  0  0  0  0  0  0  0  0  0
  196.7440  174.3250  145.6840 O   0  0  0  0  0  1  0  0  0  0  0  0
  1 10  1  0  0  0  0
  1  5  1  0  0  0  0
  2 15  2  0  0  0  0
  3  9  1  0  0  0  0
  4  8  1  0  0  0  0
  4 21  1  0  0  0  0
  5  4  2  0  0  0  0
  6  7  1  0  0  0  0
  6  8  2  0  0  0  0
  9 10  2  0  0  0  0
  9 11  1  0  0  0  0
 10  6  1  0  0  0  0
 11  7  2  0  0  0  0
 12 13  2  0  0  0  0
 12  2  1  0  0  0  0
 13 14  1  0  0  0  0
 14 16  2  0  0  0  0
 15  3  1  0  0  0  0
 15 17  1  0  0  0  0
 16 17  1  0  0  0  0
 17  1  2  0  0  0  0
 18 20  1  0  0  0  0
 18 13  1  0  0  0  0
 19 18  2  0  0  0  0
 22 31  1  0  0  0  0
 23 30  1  0  0  0  0
 24 25  2  0  0  0  0
 25 26  1  0  0  0  0
 26 22  2  0  0  0  0
 27 28  1  0  0  0  0
 28 23  2  0  0  0  0
 28 26  1  0  0  0  0
 29 27  2  0  0  0  0
 29 24  1  0  0  0  0
 30 21  1  0  0  0  0
 30 31  2  0  0  0  0
 32 24  1  0  0  0  0
 32 34  1  0  0  0  0
 33 32  2  0  0  0  0
M  END
>  <MODEL>
5

>  <REMARK>
 VINA RESULT:      -8.5      1.462      1.756
  Name = 
  4 active torsions:
  status: ('A' for Active; 'I' for Inactive)
    1  A    between atoms: C_3  and  C_25
    2  A    between atoms: C_7  and  C_11
    3  A    between atoms: C_8  and  C_18
    4  A    between atoms: C_18  and  C_30
                            x       y       z     vdW  Elec       q    Type
                         _______ _______ _______ _____ _____    ______ ____

>  <TORSDO>
F 4

$$$$
=
 OpenBabel11052420263D

 34 39  0  0  0  0  0  0  0  0999 V2000
  193.1620  174.2130  143.8280 C   0  0  0  0  0  0  0  0  0  0  0  0
  193.0550  172.4010  140.5350 C   0  0  0  0  0  3  0  0  0  0  0  0
  195.1230  172.9260  141.9540 S   0  0  0  0  0  0  0  0  0  0  0  0
  192.9360  175.4300  145.9680 C   0  0  0  0  0  0  0  0  0  0  0  0
  192.3630  174.8600  144.8040 C   0  0  0  0  0  3  0  0  0  0  0  0
  195.1010  174.7410  145.2150 C   0  0  0  0  0  0  0  0  0  0  0  0
  196.4650  174.5210  145.1260 C   0  0  0  0  0  3  0  0  0  0  0  0
  194.3300  175.3780  146.1810 C   0  0  0  0  0  3  0  0  0  0  0  0
  195.4970  173.6800  143.3990 C   0  0  0  0  0  0  0  0  0  0  0  0
  194.5380  174.1930  144.1070 C   0  0  0  0  0  0  0  0  0  0  0  0
  196.7110  173.8460  143.9690 N   0  0  0  0  0  0  0  0  0  0  0  0
  191.7380  172.2260  139.9170 C   0  0  0  0  0  3  0  0  0  0  0  0
  190.5370  172.6130  140.3370 C   0  0  0  0  0  0  0  0  0  0  0  0
  190.2860  173.3390  141.5850 C   0  0  0  0  0  3  0  0  0  0  0  0
  193.4390  172.9820  141.6710 C   0  0  0  0  0  0  0  0  0  0  0  0
  191.1340  173.7490  142.5200 C   0  0  0  0  0  3  0  0  0  0  0  0
  192.6040  173.6270  142.6410 C   0  0  0  0  0  0  0  0  0  0  0  0
  189.3680  172.2930  139.4920 C   0  0  0  0  0  0  0  0  0  0  0  0
  189.4890  171.5470  138.4830 O   0  0  0  0  0  0  0  0  0  0  0  0
  188.0830  172.8260  139.8060 N   0  0  0  0  0  1  0  0  0  0  0  0
  192.0640  176.1270  146.9560 C   0  0  0  0  0  2  0  0  0  0  0  0
  189.6670  177.8040  144.5450 C   0  0  0  0  0  3  0  0  0  0  0  0
  189.5660  176.2780  146.8980 C   0  0  0  0  0  3  0  0  0  0  0  0
  186.0080  177.6400  145.1150 C   0  0  0  0  0  0  0  0  0  0  0  0
  187.2480  177.9460  144.5340 C   0  0  0  0  0  3  0  0  0  0  0  0
  188.4320  177.4960  145.1220 C   0  0  0  0  0  0  0  0  0  0  0  0
  187.1470  176.4250  146.8870 C   0  0  0  0  0  3  0  0  0  0  0  0
  188.3810  176.7280  146.3080 C   0  0  0  0  0  0  0  0  0  0  0  0
  185.9660  176.8790  146.2920 C   0  0  0  0  0  3  0  0  0  0  0  0
  190.7990  176.5850  146.3120 C   0  0  0  0  0  0  0  0  0  0  0  0
  190.8490  177.3500  145.1400 C   0  0  0  0  0  3  0  0  0  0  0  0
  184.7650  178.1180  144.4890 C   0  0  0  0  0  0  0  0  0  0  0  0
  184.4950  177.8180  143.2960 O   0  0  0  0  0  0  0  0  0  0  0  0
  183.8750  178.9050  145.2110 O   0  0  0  0  0  1  0  0  0  0  0  0
  1 10  1  0  0  0  0
  1  5  1  0  0  0  0
  2 15  2  0  0  0  0
  3  9  1  0  0  0  0
  4  8  1  0  0  0  0
  4 21  1  0  0  0  0
  5  4  2  0  0  0  0
  6  8  2  0  0  0  0
  7  6  1  0  0  0  0
  9 11  1  0  0  0  0
  9 10  2  0  0  0  0
 10  6  1  0  0  0  0
 11  7  2  0  0  0  0
 12 13  2  0  0  0  0
 12  2  1  0  0  0  0
 13 14  1  0  0  0  0
 14 16  2  0  0  0  0
 15  3  1  0  0  0  0
 15 17  1  0  0  0  0
 16 17  1  0  0  0  0
 17  1  2  0  0  0  0
 18 20  1  0  0  0  0
 18 13  1  0  0  0  0
 19 18  2  0  0  0  0
 22 26  2  0  0  0  0
 22 31  1  0  0  0  0
 24 29  1  0  0  0  0
 25 24  2  0  0  0  0
 25 26  1  0  0  0  0
 26 28  1  0  0  0  0
 28 27  1  0  0  0  0
 28 23  2  0  0  0  0
 29 27  2  0  0  0  0
 30 23  1  0  0  0  0
 30 21  1  0  0  0  0
 31 30  2  0  0  0  0
 32 24  1  0  0  0  0
 32 34  1  0  0  0  0
 33 32  2  0  0  0  0
M  END
>  <MODEL>
6

>  <REMARK>
 VINA RESULT:      -8.3      4.252      7.878
  Name = 
  4 active torsions:
  status: ('A' for Active; 'I' for Inactive)
    1  A    between atoms: C_3  and  C_25
    2  A    between atoms: C_7  and  C_11
    3  A    between atoms: C_8  and  C_18
    4  A    between atoms: C_18  and  C_30
                            x       y       z     vdW  Elec       q    Type
                         _______ _______ _______ _____ _____    ______ ____

>  <TORSDO>
F 4

$$$$
=
 OpenBabel11052420263D

 34 39  0  0  0  0  0  0  0  0999 V2000
  191.9440  174.6140  144.5760 C   0  0  0  0  0  0  0  0  0  0  0  0
  193.5890  173.2900  141.4650 C   0  0  0  0  0  3  0  0  0  0  0  0
  194.6300  174.8070  143.2480 S   0  0  0  0  0  0  0  0  0  0  0  0
  190.6190  175.3380  146.5330 C   0  0  0  0  0  0  0  0  0  0  0  0
  190.7360  174.6210  145.3170 C   0  0  0  0  0  3  0  0  0  0  0  0
  192.8880  176.0620  146.3010 C   0  0  0  0  0  0  0  0  0  0  0  0
  194.1140  176.6680  146.5170 C   0  0  0  0  0  3  0  0  0  0  0  0
  191.7090  176.0780  147.0380 C   0  0  0  0  0  3  0  0  0  0  0  0
  194.1910  175.5410  144.6850 C   0  0  0  0  0  0  0  0  0  0  0  0
  192.9880  175.3660  145.1390 C   0  0  0  0  0  0  0  0  0  0  0  0
  194.9390  176.3330  145.4860 N   0  0  0  0  0  0  0  0  0  0  0  0
  192.7750  172.4360  140.5970 C   0  0  0  0  0  3  0  0  0  0  0  0
  191.5120  172.0380  140.7280 C   0  0  0  0  0  0  0  0  0  0  0  0
  190.6360  172.4050  141.8430 C   0  0  0  0  0  3  0  0  0  0  0  0
  193.3220  173.9090  142.6140 C   0  0  0  0  0  0  0  0  0  0  0  0
  190.8770  173.1630  142.9060 C   0  0  0  0  0  3  0  0  0  0  0  0
  192.0870  173.8950  143.3410 C   0  0  0  0  0  0  0  0  0  0  0  0
  190.9470  171.1640  139.6790 C   0  0  0  0  0  0  0  0  0  0  0  0
  189.7750  171.3470  139.2530 O   0  0  0  0  0  0  0  0  0  0  0  0
  191.7200  170.0970  139.1350 N   0  0  0  0  0  1  0  0  0  0  0  0
  189.3210  175.3430  147.2670 C   0  0  0  0  0  2  0  0  0  0  0  0
  186.0480  176.9660  146.2520 C   0  0  0  0  0  3  0  0  0  0  0  0
  188.3970  176.0220  145.0410 C   0  0  0  0  0  3  0  0  0  0  0  0
  185.3260  177.6660  142.6840 C   0  0  0  0  0  0  0  0  0  0  0  0
  185.1790  177.5890  144.0770 C   0  0  0  0  0  3  0  0  0  0  0  0
  186.1960  177.0440  144.8640 C   0  0  0  0  0  0  0  0  0  0  0  0
  187.5250  176.6440  142.8670 C   0  0  0  0  0  3  0  0  0  0  0  0
  187.3790  176.5690  144.2540 C   0  0  0  0  0  0  0  0  0  0  0  0
  186.5030  177.1910  142.0870 C   0  0  0  0  0  3  0  0  0  0  0  0
  188.2450  175.9510  146.4300 C   0  0  0  0  0  0  0  0  0  0  0  0
  187.0710  176.4180  147.0330 C   0  0  0  0  0  3  0  0  0  0  0  0
  184.2500  178.2410  141.8620 C   0  0  0  0  0  0  0  0  0  0  0  0
  184.4930  178.6690  140.7020 O   0  0  0  0  0  0  0  0  0  0  0  0
  182.9540  178.3170  142.3570 O   0  0  0  0  0  1  0  0  0  0  0  0
  1 10  1  0  0  0  0
  1  5  1  0  0  0  0
  2 15  2  0  0  0  0
  3  9  1  0  0  0  0
  4  8  1  0  0  0  0
  4 21  1  0  0  0  0
  5  4  2  0  0  0  0
  6  7  1  0  0  0  0
  6  8  2  0  0  0  0
  9 10  2  0  0  0  0
  9 11  1  0  0  0  0
 10  6  1  0  0  0  0
 11  7  2  0  0  0  0
 12 13  2  0  0  0  0
 12  2  1  0  0  0  0
 13 14  1  0  0  0  0
 14 16  2  0  0  0  0
 15  3  1  0  0  0  0
 15 17  1  0  0  0  0
 16 17  1  0  0  0  0
 17  1  2  0  0  0  0
 18 13  1  0  0  0  0
 19 18  2  0  0  0  0
 20 18  1  0  0  0  0
 22 31  1  0  0  0  0
 23 30  1  0  0  0  0
 24 25  2  0  0  0  0
 25 26  1  0  0  0  0
 26 22  2  0  0  0  0
 27 28  1  0  0  0  0
 28 26  1  0  0  0  0
 28 23  2  0  0  0  0
 29 24  1  0  0  0  0
 29 27  2  0  0  0  0
 30 31  2  0  0  0  0
 30 21  1  0  0  0  0
 32 34  1  0  0  0  0
 32 24  1  0  0  0  0
 33 32  2  0  0  0  0
M  END
>  <MODEL>
7

>  <REMARK>
 VINA RESULT:      -8.2      3.896      7.644
  Name = 
  4 active torsions:
  status: ('A' for Active; 'I' for Inactive)
    1  A    between atoms: C_3  and  C_25
    2  A    between atoms: C_7  and  C_11
    3  A    between atoms: C_8  and  C_18
    4  A    between atoms: C_18  and  C_30
                            x       y       z     vdW  Elec       q    Type
                         _______ _______ _______ _____ _____    ______ ____

>  <TORSDO>
F 4

$$$$
=
 OpenBabel11052420263D

 34 39  0  0  0  0  0  0  0  0999 V2000
  189.0390  176.0320  144.5240 C   0  0  0  0  0  0  0  0  0  0  0  0
  187.9830  175.0210  141.0600 C   0  0  0  0  0  3  0  0  0  0  0  0
  186.6510  176.4180  142.7460 S   0  0  0  0  0  0  0  0  0  0  0  0
  189.9860  176.5480  146.7490 C   0  0  0  0  0  0  0  0  0  0  0  0
  190.0860  175.9360  145.4750 C   0  0  0  0  0  3  0  0  0  0  0  0
  187.8100  177.3550  146.1680 C   0  0  0  0  0  0  0  0  0  0  0  0
  186.5730  177.9760  146.2060 C   0  0  0  0  0  3  0  0  0  0  0  0
  188.8280  177.2680  147.1100 C   0  0  0  0  0  3  0  0  0  0  0  0
  186.8250  177.0170  144.2980 C   0  0  0  0  0  0  0  0  0  0  0  0
  187.9200  176.7680  144.9480 C   0  0  0  0  0  0  0  0  0  0  0  0
  185.9510  177.7570  145.0150 N   0  0  0  0  0  0  0  0  0  0  0  0
  188.9300  174.2150  140.2870 C   0  0  0  0  0  3  0  0  0  0  0  0
  190.1390  173.7650  140.6140 C   0  0  0  0  0  0  0  0  0  0  0  0
  190.7960  174.0090  141.9010 C   0  0  0  0  0  3  0  0  0  0  0  0
  188.0400  175.5350  142.2880 C   0  0  0  0  0  0  0  0  0  0  0  0
  190.3740  174.6860  142.9620 C   0  0  0  0  0  3  0  0  0  0  0  0
  189.1170  175.4210  143.2270 C   0  0  0  0  0  0  0  0  0  0  0  0
  190.8760  172.9640  139.6160 C   0  0  0  0  0  0  0  0  0  0  0  0
  191.4640  171.9000  139.9530 O   0  0  0  0  0  0  0  0  0  0  0  0
  190.9350  173.3840  138.2550 N   0  0  0  0  0  1  0  0  0  0  0  0
  191.0980  176.3980  147.7310 C   0  0  0  0  0  2  0  0  0  0  0  0
  194.5670  176.4560  146.2010 C   0  0  0  0  0  3  0  0  0  0  0  0
  192.4530  174.6460  146.5630 C   0  0  0  0  0  3  0  0  0  0  0  0
  195.9510  173.4300  144.5690 C   0  0  0  0  0  0  0  0  0  0  0  0
  195.8380  174.7400  145.0560 C   0  0  0  0  0  3  0  0  0  0  0  0
  194.6790  175.1490  145.7190 C   0  0  0  0  0  0  0  0  0  0  0  0
  193.7250  172.9330  145.4150 C   0  0  0  0  0  3  0  0  0  0  0  0
  193.6140  174.2370  145.9000 C   0  0  0  0  0  0  0  0  0  0  0  0
  194.8890  172.5310  144.7530 C   0  0  0  0  0  3  0  0  0  0  0  0
  192.3480  175.9540  147.0480 C   0  0  0  0  0  0  0  0  0  0  0  0
  193.4020  176.8580  146.8630 C   0  0  0  0  0  3  0  0  0  0  0  0
  197.1760  173.0060  143.8720 C   0  0  0  0  0  0  0  0  0  0  0  0
  197.5460  173.5920  142.8190 O   0  0  0  0  0  0  0  0  0  0  0  0
  197.9380  171.9560  144.3700 O   0  0  0  0  0  1  0  0  0  0  0  0
  1 10  1  0  0  0  0
  1  5  1  0  0  0  0
  2 15  2  0  0  0  0
  3  9  1  0  0  0  0
  4  8  1  0  0  0  0
  4 21  1  0  0  0  0
  5  4  2  0  0  0  0
  6  7  1  0  0  0  0
  6  8  2  0  0  0  0
  9 10  2  0  0  0  0
  9 11  1  0  0  0  0
 10  6  1  0  0  0  0
 11  7  2  0  0  0  0
 12 13  2  0  0  0  0
 12  2  1  0  0  0  0
 13 14  1  0  0  0  0
 14 16  2  0  0  0  0
 15  3  1  0  0  0  0
 15 17  1  0  0  0  0
 16 17  1  0  0  0  0
 17  1  2  0  0  0  0
 18 19  2  0  0  0  0
 18 13  1  0  0  0  0
 20 18  1  0  0  0  0
 22 31  1  0  0  0  0
 23 30  1  0  0  0  0
 24 29  1  0  0  0  0
 24 25  2  0  0  0  0
 25 26  1  0  0  0  0
 26 28  1  0  0  0  0
 26 22  2  0  0  0  0
 27 28  1  0  0  0  0
 28 23  2  0  0  0  0
 29 27  2  0  0  0  0
 30 21  1  0  0  0  0
 31 30  2  0  0  0  0
 32 34  1  0  0  0  0
 32 24  1  0  0  0  0
 33 32  2  0  0  0  0
M  END
>  <MODEL>
8

>  <REMARK>
 VINA RESULT:      -8.1      2.312      2.969
  Name = 
  4 active torsions:
  status: ('A' for Active; 'I' for Inactive)
    1  A    between atoms: C_3  and  C_25
    2  A    between atoms: C_7  and  C_11
    3  A    between atoms: C_8  and  C_18
    4  A    between atoms: C_18  and  C_30
                            x       y       z     vdW  Elec       q    Type
                         _______ _______ _______ _____ _____    ______ ____

>  <TORSDO>
F 4

$$$$
=
 OpenBabel11052420263D

 34 39  0  0  0  0  0  0  0  0999 V2000
  191.9980  173.4560  143.4710 C   0  0  0  0  0  0  0  0  0  0  0  0
  191.2050  171.2990  140.4950 C   0  0  0  0  0  3  0  0  0  0  0  0
  192.7300  170.7210  142.4710 S   0  0  0  0  0  0  0  0  0  0  0  0
  192.3420  175.0780  145.3040 C   0  0  0  0  0  0  0  0  0  0  0  0
  191.7500  174.7170  144.0690 C   0  0  0  0  0  3  0  0  0  0  0  0
  193.4440  172.9550  145.3740 C   0  0  0  0  0  0  0  0  0  0  0  0
  194.2240  171.8790  145.7630 C   0  0  0  0  0  3  0  0  0  0  0  0
  193.2100  174.1890  145.9720 C   0  0  0  0  0  3  0  0  0  0  0  0
  193.2700  171.4230  143.8900 C   0  0  0  0  0  0  0  0  0  0  0  0
  192.8650  172.6190  144.1930 C   0  0  0  0  0  0  0  0  0  0  0  0
  194.1090  170.9080  144.8150 N   0  0  0  0  0  0  0  0  0  0  0  0
  190.2980  171.8620  139.4910 C   0  0  0  0  0  3  0  0  0  0  0  0
  189.6890  173.0440  139.4540 C   0  0  0  0  0  0  0  0  0  0  0  0
  189.8210  174.0800  140.4820 C   0  0  0  0  0  3  0  0  0  0  0  0
  191.6810  171.7840  141.6410 C   0  0  0  0  0  0  0  0  0  0  0  0
  190.5240  174.0820  141.6080 C   0  0  0  0  0  3  0  0  0  0  0  0
  191.4090  173.0660  142.2200 C   0  0  0  0  0  0  0  0  0  0  0  0
  188.8180  173.3420  138.2990 C   0  0  0  0  0  0  0  0  0  0  0  0
  188.8600  172.6270  137.2610 O   0  0  0  0  0  0  0  0  0  0  0  0
  187.9150  174.4440  138.3420 N   0  0  0  0  0  1  0  0  0  0  0  0
  192.0790  176.4270  145.8850 C   0  0  0  0  0  2  0  0  0  0  0  0
  188.4420  176.8110  146.8860 C   0  0  0  0  0  3  0  0  0  0  0  0
  190.0650  177.2400  144.6380 C   0  0  0  0  0  3  0  0  0  0  0  0
  185.9480  178.0770  144.4540 C   0  0  0  0  0  0  0  0  0  0  0  0
  186.5130  177.5840  145.6390 C   0  0  0  0  0  3  0  0  0  0  0  0
  187.8800  177.3050  145.7050 C   0  0  0  0  0  0  0  0  0  0  0  0
  188.1350  178.0100  143.3920 C   0  0  0  0  0  3  0  0  0  0  0  0
  188.6980  177.5200  144.5720 C   0  0  0  0  0  0  0  0  0  0  0  0
  186.7660  178.2870  143.3340 C   0  0  0  0  0  3  0  0  0  0  0  0
  190.6230  176.7510  145.8240 C   0  0  0  0  0  0  0  0  0  0  0  0
  189.8120  176.5330  146.9440 C   0  0  0  0  0  3  0  0  0  0  0  0
  184.5070  178.3690  144.3920 C   0  0  0  0  0  0  0  0  0  0  0  0
  183.8930  178.3210  143.2930 O   0  0  0  0  0  0  0  0  0  0  0  0
  183.8090  178.6990  145.5470 O   0  0  0  0  0  1  0  0  0  0  0  0
  1  5  1  0  0  0  0
  1 10  1  0  0  0  0
  2 15  2  0  0  0  0
  3  9  1  0  0  0  0
  4 21  1  0  0  0  0
  4  8  1  0  0  0  0
  5  4  2  0  0  0  0
  6  7  1  0  0  0  0
  6  8  2  0  0  0  0
  9 10  2  0  0  0  0
  9 11  1  0  0  0  0
 10  6  1  0  0  0  0
 11  7  2  0  0  0  0
 12  2  1  0  0  0  0
 13 12  2  0  0  0  0
 13 14  1  0  0  0  0
 14 16  2  0  0  0  0
 15 17  1  0  0  0  0
 15  3  1  0  0  0  0
 16 17  1  0  0  0  0
 17  1  2  0  0  0  0
 18 20  1  0  0  0  0
 18 13  1  0  0  0  0
 19 18  2  0  0  0  0
 22 31  1  0  0  0  0
 23 30  1  0  0  0  0
 24 25  2  0  0  0  0
 25 26  1  0  0  0  0
 26 22  2  0  0  0  0
 27 28  1  0  0  0  0
 28 23  2  0  0  0  0
 28 26  1  0  0  0  0
 29 27  2  0  0  0  0
 29 24  1  0  0  0  0
 30 21  1  0  0  0  0
 30 31  2  0  0  0  0
 32 24  1  0  0  0  0
 32 34  1  0  0  0  0
 33 32  2  0  0  0  0
M  END
>  <MODEL>
9

>  <REMARK>
 VINA RESULT:      -7.9      4.222      7.584
  Name = 
  4 active torsions:
  status: ('A' for Active; 'I' for Inactive)
    1  A    between atoms: C_3  and  C_25
    2  A    between atoms: C_7  and  C_11
    3  A    between atoms: C_8  and  C_18
    4  A    between atoms: C_18  and  C_30
                            x       y       z     vdW  Elec       q    Type
                         _______ _______ _______ _____ _____    ______ ____

>  <TORSDO>
F 4

$$$$
