=
 OpenBabel11052420073D

 37 43  0  0  1  0  0  0  0  0999 V2000
  191.9200  175.3270  142.3750 C   0  0  0  0  0  2  0  0  0  0  0  0
  188.8800  175.2940  146.4140 C   0  0  0  0  0  0  0  0  0  0  0  0
  191.9210  173.8710  141.9350 C   0  0  1  0  0  3  0  0  0  0  0  0
  187.9930  175.2630  142.6270 C   0  0  1  0  0  3  0  0  0  0  0  0
  189.0120  174.8560  144.9800 C   0  0  1  0  0  3  0  0  0  0  0  0
  188.7990  173.1100  140.9650 O   0  0  0  0  0  0  0  0  0  0  0  0
  193.9910  173.2250  143.2710 C   0  0  0  0  0  2  0  0  0  0  0  0
  187.9620  175.6000  144.1280 C   0  0  1  0  0  3  0  0  0  0  0  0
  191.1170  173.7280  140.6580 C   0  0  0  0  0  2  0  0  0  0  0  0
  191.5940  175.1520  145.4310 C   0  0  2  0  0  3  0  0  0  0  0  0
  192.9980  174.6120  145.0780 C   0  0  2  0  0  3  0  0  0  0  0  0
  188.2820  176.6420  146.6950 C   0  0  0  0  0  2  0  0  0  0  0  0
  193.3040  173.2430  141.8940 C   0  0  0  0  0  2  0  0  0  0  0  0
  193.0160  173.2170  144.4550 C   0  0  0  0  0  2  0  0  0  0  0  0
  189.6900  174.1980  140.9380 C   0  0  2  0  0  0  0  0  0  0  0  0
  188.5340  176.3870  141.7380 C   0  0  0  0  0  2  0  0  0  0  0  0
  189.0200  174.4130  147.4000 C   0  0  0  0  0  2  0  0  0  0  0  0
  190.4580  174.8740  144.3980 C   0  0  2  0  0  3  0  0  0  0  0  0
  187.7910  177.1030  144.4820 C   0  0  2  0  0  3  0  0  0  0  0  0
  189.4200  175.2140  142.0840 C   0  0  1  0  0  0  0  0  0  0  0  0
  188.6910  173.9900  139.8670 C   0  0  0  0  0  2  0  0  0  0  0  0
  190.5740  175.6070  143.0410 C   0  0  2  0  0  3  0  0  0  0  0  0
  188.5290  177.5190  145.6180 O   0  0  0  0  0  0  0  0  0  0  0  0
  185.3350  176.6490  144.6710 O   0  0  0  0  0  1  0  0  0  0  0  0
  186.3410  177.6140  144.5210 C   0  0  1  0  0  0  0  0  0  0  0  0
  184.5680  178.7610  143.0990 C   0  0  0  0  0  1  0  0  0  0  0  0
  186.0850  178.9630  145.1870 C   0  0  1  0  0  3  0  0  0  0  0  0
  185.9920  178.8170  143.6490 C   0  0  1  0  0  3  0  0  0  0  0  0
  184.9350  178.5750  147.3590 C   0  0  0  0  0  1  0  0  0  0  0  0
  184.7470  179.0200  145.9230 C   0  0  0  0  0  2  0  0  0  0  0  0
  191.6310  176.6090  145.9300 C   0  0  0  0  0  2  0  0  0  0  0  0
  192.0580  176.7570  147.3860 C   0  0  0  0  0  2  0  0  0  0  0  0
  191.0300  177.5520  148.1670 C   0  0  0  0  0  2  0  0  0  0  0  0
  191.5930  177.9130  149.5240 C   0  0  0  0  0  1  0  0  0  0  0  0
  193.9620  174.6810  146.2650 C   0  0  0  0  0  2  0  0  0  0  0  0
  195.3070  175.2700  145.8770 C   0  0  0  0  0  2  0  0  0  0  0  0
  195.1020  176.3800  144.8670 C   0  0  0  0  0  1  0  0  0  0  0  0
  1 22  1  0  0  0  0
  2 12  1  0  0  0  0
  2 17  2  0  0  0  0
  3  9  1  6  0  0  0
  3  1  1  0  0  0  0
  4 16  1  6  0  0  0
  4  8  1  0  0  0  0
  5  2  1  1  0  0  0
  7 14  1  0  0  0  0
  8 19  1  0  0  0  0
  8  5  1  0  0  0  0
  9 15  1  0  0  0  0
 10 31  1  0  0  0  0
 11 10  1  0  0  0  0
 11 35  1  0  0  0  0
 13  3  1  0  0  0  0
 13  7  1  0  0  0  0
 14 11  1  0  0  0  0
 15  6  1  0  0  0  0
 15 20  1  0  0  0  0
 16 20  1  0  0  0  0
 18  5  1  0  0  0  0
 18 10  1  0  0  0  0
 19 25  1  0  0  0  0
 19 23  1  0  0  0  0
 20  4  1  0  0  0  0
 20 22  1  0  0  0  0
 21 15  1  0  0  0  0
 21  6  1  0  0  0  0
 22 18  1  0  0  0  0
 23 12  1  0  0  0  0
 25 24  1  0  0  0  0
 25 27  1  0  0  0  0
 26 28  1  0  0  0  0
 27 30  1  0  0  0  0
 28 25  1  0  0  0  0
 28 27  1  0  0  0  0
 30 29  1  0  0  0  0
 31 32  1  0  0  0  0
 32 33  1  0  0  0  0
 33 34  1  0  0  0  0
 36 35  1  0  0  0  0
 37 36  1  0  0  0  0
M  END
>  <MODEL>
1

>  <REMARK>
 VINA RESULT:      -8.0      0.000      0.000
  Name = 
  7 active torsions:
  status: ('A' for Active; 'I' for Inactive)
    1  A    between atoms: C_3  and  C_32
    2  A    between atoms: C_8  and  C_31
    3  A    between atoms: C_9  and  C_13
    4  A    between atoms: C_9  and  C_16
    5  A    between atoms: C_13  and  C_20
    6  A    between atoms: C_18  and  C_35
    7  A    between atoms: C_21  and  C_32
                            x       y       z     vdW  Elec       q    Type
                         _______ _______ _______ _____ _____    ______ ____

>  <TORSDO>
F 7

$$$$
=
 OpenBabel11052420073D

 37 43  0  0  1  0  0  0  0  0999 V2000
  191.8750  174.7480  142.1700 C   0  0  0  0  0  2  0  0  0  0  0  0
  188.9920  175.3220  146.2830 C   0  0  0  0  0  0  0  0  0  0  0  0
  191.8100  173.2500  141.9130 C   0  0  1  0  0  3  0  0  0  0  0  0
  187.9600  174.8640  142.5610 C   0  0  1  0  0  3  0  0  0  0  0  0
  189.0540  174.7090  144.9100 C   0  0  1  0  0  3  0  0  0  0  0  0
  188.6300  172.4950  141.1500 O   0  0  0  0  0  0  0  0  0  0  0  0
  193.9070  172.6940  143.2480 C   0  0  0  0  0  2  0  0  0  0  0  0
  187.9990  175.3830  144.0100 C   0  0  1  0  0  3  0  0  0  0  0  0
  190.9540  172.9830  140.6910 C   0  0  0  0  0  2  0  0  0  0  0  0
  191.6600  174.9590  145.2340 C   0  0  2  0  0  3  0  0  0  0  0  0
  193.0310  174.3270  144.9030 C   0  0  2  0  0  3  0  0  0  0  0  0
  188.4510  176.7170  146.4160 C   0  0  0  0  0  2  0  0  0  0  0  0
  193.1690  172.5700  141.9030 C   0  0  0  0  0  2  0  0  0  0  0  0
  192.9790  172.8670  144.4560 C   0  0  0  0  0  2  0  0  0  0  0  0
  189.5550  173.5380  140.9600 C   0  0  2  0  0  0  0  0  0  0  0  0
  188.5040  175.8490  141.5230 C   0  0  0  0  0  2  0  0  0  0  0  0
  189.1400  174.5640  147.3650 C   0  0  0  0  0  2  0  0  0  0  0  0
  190.4770  174.6000  144.2820 C   0  0  2  0  0  3  0  0  0  0  0  0
  187.8910  176.9230  144.1810 C   0  0  2  0  0  3  0  0  0  0  0  0
  189.3640  174.6950  141.9810 C   0  0  1  0  0  0  0  0  0  0  0  0
  188.5090  173.2390  139.9570 C   0  0  0  0  0  2  0  0  0  0  0  0
  190.5650  175.1580  142.8420 C   0  0  2  0  0  3  0  0  0  0  0  0
  188.6860  177.4460  145.2320 O   0  0  0  0  0  0  0  0  0  0  0  0
  185.4330  176.5920  144.5250 O   0  0  0  0  0  1  0  0  0  0  0  0
  186.4620  177.4890  144.2060 C   0  0  1  0  0  0  0  0  0  0  0  0
  184.6670  178.5010  142.7100 C   0  0  0  0  0  1  0  0  0  0  0  0
  186.2800  178.9240  144.6910 C   0  0  1  0  0  3  0  0  0  0  0  0
  186.1150  178.5760  143.1920 C   0  0  1  0  0  3  0  0  0  0  0  0
  185.2270  178.9430  146.9470 C   0  0  0  0  0  1  0  0  0  0  0  0
  184.9770  179.1310  145.4640 C   0  0  0  0  0  2  0  0  0  0  0  0
  191.7660  176.4630  145.5480 C   0  0  0  0  0  2  0  0  0  0  0  0
  192.4330  177.2830  144.4490 C   0  0  0  0  0  2  0  0  0  0  0  0
  191.6240  178.5270  144.1410 C   0  0  0  0  0  2  0  0  0  0  0  0
  190.9130  178.3550  142.8170 C   0  0  0  0  0  1  0  0  0  0  0  0
  194.0410  174.5040  146.0390 C   0  0  0  0  0  2  0  0  0  0  0  0
  195.3410  175.1260  145.5580 C   0  0  0  0  0  2  0  0  0  0  0  0
  196.4720  174.1320  145.7260 C   0  0  0  0  0  1  0  0  0  0  0  0
  1 22  1  0  0  0  0
  2 12  1  0  0  0  0
  2 17  2  0  0  0  0
  3  9  1  6  0  0  0
  3  1  1  0  0  0  0
  4 16  1  6  0  0  0
  4  8  1  0  0  0  0
  5  2  1  1  0  0  0
  7 14  1  0  0  0  0
  8 19  1  0  0  0  0
  8  5  1  0  0  0  0
  9 15  1  0  0  0  0
 10 31  1  0  0  0  0
 11 10  1  0  0  0  0
 11 35  1  0  0  0  0
 13  3  1  0  0  0  0
 13  7  1  0  0  0  0
 14 11  1  0  0  0  0
 15  6  1  0  0  0  0
 15 20  1  0  0  0  0
 16 20  1  0  0  0  0
 18  5  1  0  0  0  0
 18 10  1  0  0  0  0
 19 25  1  0  0  0  0
 19 23  1  0  0  0  0
 20  4  1  0  0  0  0
 20 22  1  0  0  0  0
 21 15  1  0  0  0  0
 21  6  1  0  0  0  0
 22 18  1  0  0  0  0
 23 12  1  0  0  0  0
 25 24  1  0  0  0  0
 25 27  1  0  0  0  0
 26 28  1  0  0  0  0
 27 30  1  0  0  0  0
 28 25  1  0  0  0  0
 28 27  1  0  0  0  0
 30 29  1  0  0  0  0
 32 31  1  0  0  0  0
 33 32  1  0  0  0  0
 34 33  1  0  0  0  0
 36 37  1  0  0  0  0
 36 35  1  0  0  0  0
M  END
>  <MODEL>
2

>  <REMARK>
 VINA RESULT:      -7.9      1.038      1.538
  Name = 
  7 active torsions:
  status: ('A' for Active; 'I' for Inactive)
    1  A    between atoms: C_3  and  C_32
    2  A    between atoms: C_8  and  C_31
    3  A    between atoms: C_9  and  C_13
    4  A    between atoms: C_9  and  C_16
    5  A    between atoms: C_13  and  C_20
    6  A    between atoms: C_18  and  C_35
    7  A    between atoms: C_21  and  C_32
                            x       y       z     vdW  Elec       q    Type
                         _______ _______ _______ _____ _____    ______ ____

>  <TORSDO>
F 7

$$$$
=
 OpenBabel11052420073D

 37 43  0  0  1  0  0  0  0  0999 V2000
  191.7930  174.7620  142.1520 C   0  0  0  0  0  2  0  0  0  0  0  0
  189.0140  175.3840  146.3280 C   0  0  0  0  0  0  0  0  0  0  0  0
  191.6390  173.2780  141.8560 C   0  0  1  0  0  3  0  0  0  0  0  0
  187.8980  175.0890  142.6140 C   0  0  1  0  0  3  0  0  0  0  0  0
  189.0190  174.8060  144.9380 C   0  0  1  0  0  3  0  0  0  0  0  0
  188.4090  172.7270  141.1280 O   0  0  0  0  0  0  0  0  0  0  0  0
  193.7210  172.5680  143.1380 C   0  0  0  0  0  2  0  0  0  0  0  0
  187.9890  175.5640  144.0750 C   0  0  1  0  0  3  0  0  0  0  0  0
  190.7500  173.0950  140.6420 C   0  0  0  0  0  2  0  0  0  0  0  0
  191.6400  174.9000  145.2230 C   0  0  2  0  0  3  0  0  0  0  0  0
  192.9670  174.2010  144.8520 C   0  0  2  0  0  3  0  0  0  0  0  0
  188.5550  176.8030  146.5090 C   0  0  0  0  0  2  0  0  0  0  0  0
  192.9570  172.5230  141.8030 C   0  0  0  0  0  2  0  0  0  0  0  0
  192.8240  172.7590  144.3660 C   0  0  0  0  0  2  0  0  0  0  0  0
  189.3890  173.7200  140.9500 C   0  0  2  0  0  0  0  0  0  0  0  0
  188.4810  176.0710  141.5930 C   0  0  0  0  0  2  0  0  0  0  0  0
  189.1350  174.5880  147.3870 C   0  0  0  0  0  2  0  0  0  0  0  0
  190.4230  174.6350  144.2830 C   0  0  2  0  0  3  0  0  0  0  0  0
  187.9720  177.1020  144.2900 C   0  0  2  0  0  3  0  0  0  0  0  0
  189.2800  174.8570  142.0050 C   0  0  1  0  0  0  0  0  0  0  0  0
  188.3120  173.5090  139.9580 C   0  0  0  0  0  2  0  0  0  0  0  0
  190.5200  175.2270  142.8570 C   0  0  2  0  0  3  0  0  0  0  0  0
  188.8120  177.5500  145.3400 O   0  0  0  0  0  0  0  0  0  0  0  0
  186.5320  179.1480  144.4020 O   0  0  0  0  0  1  0  0  0  0  0  0
  186.5780  177.7480  144.3550 C   0  0  1  0  0  0  0  0  0  0  0  0
  184.5210  177.9600  145.8400 C   0  0  0  0  0  1  0  0  0  0  0  0
  185.4460  177.0610  143.5950 C   0  0  1  0  0  3  0  0  0  0  0  0
  185.4960  177.0140  145.1410 C   0  0  1  0  0  3  0  0  0  0  0  0
  184.6970  178.2030  141.5150 C   0  0  0  0  0  1  0  0  0  0  0  0
  184.4430  178.0490  143.0000 C   0  0  0  0  0  2  0  0  0  0  0  0
  191.8360  176.3860  145.5760 C   0  0  0  0  0  2  0  0  0  0  0  0
  192.5500  177.1930  144.4970 C   0  0  0  0  0  2  0  0  0  0  0  0
  191.8100  178.4860  144.2160 C   0  0  0  0  0  2  0  0  0  0  0  0
  191.0680  178.3700  142.9030 C   0  0  0  0  0  1  0  0  0  0  0  0
  194.0030  174.2880  145.9740 C   0  0  0  0  0  2  0  0  0  0  0  0
  195.3040  174.9160  145.5040 C   0  0  0  0  0  2  0  0  0  0  0  0
  196.4640  174.0110  145.8650 C   0  0  0  0  0  1  0  0  0  0  0  0
  1 22  1  0  0  0  0
  2 12  1  0  0  0  0
  2 17  2  0  0  0  0
  3  9  1  6  0  0  0
  3  1  1  0  0  0  0
  4 16  1  6  0  0  0
  4  8  1  0  0  0  0
  5  2  1  1  0  0  0
  7 14  1  0  0  0  0
  8 19  1  0  0  0  0
  8  5  1  0  0  0  0
  9 15  1  0  0  0  0
 10 31  1  0  0  0  0
 11 10  1  0  0  0  0
 11 35  1  0  0  0  0
 13  3  1  0  0  0  0
 13  7  1  0  0  0  0
 14 11  1  0  0  0  0
 15  6  1  0  0  0  0
 15 20  1  0  0  0  0
 16 20  1  0  0  0  0
 18  5  1  0  0  0  0
 18 10  1  0  0  0  0
 19 25  1  0  0  0  0
 19 23  1  0  0  0  0
 20  4  1  0  0  0  0
 20 22  1  0  0  0  0
 21 15  1  0  0  0  0
 21  6  1  0  0  0  0
 22 18  1  0  0  0  0
 23 12  1  0  0  0  0
 25 24  1  0  0  0  0
 25 28  1  0  0  0  0
 27 25  1  0  0  0  0
 27 28  1  0  0  0  0
 28 26  1  0  0  0  0
 29 30  1  0  0  0  0
 30 27  1  0  0  0  0
 32 31  1  0  0  0  0
 33 32  1  0  0  0  0
 34 33  1  0  0  0  0
 36 37  1  0  0  0  0
 36 35  1  0  0  0  0
M  END
>  <MODEL>
3

>  <REMARK>
 VINA RESULT:      -7.8      1.224      2.058
  Name = 
  7 active torsions:
  status: ('A' for Active; 'I' for Inactive)
    1  A    between atoms: C_3  and  C_32
    2  A    between atoms: C_8  and  C_31
    3  A    between atoms: C_9  and  C_13
    4  A    between atoms: C_9  and  C_16
    5  A    between atoms: C_13  and  C_20
    6  A    between atoms: C_18  and  C_35
    7  A    between atoms: C_21  and  C_32
                            x       y       z     vdW  Elec       q    Type
                         _______ _______ _______ _____ _____    ______ ____

>  <TORSDO>
F 7

$$$$
=
 OpenBabel11052420073D

 37 43  0  0  1  0  0  0  0  0999 V2000
  191.1600  173.6890  144.7830 C   0  0  0  0  0  2  0  0  0  0  0  0
  188.4970  177.4080  142.6310 C   0  0  0  0  0  0  0  0  0  0  0  0
  192.4990  174.3500  145.0740 C   0  0  1  0  0  3  0  0  0  0  0  0
  189.2820  176.7560  146.3840 C   0  0  1  0  0  3  0  0  0  0  0  0
  189.3670  177.0490  143.8060 C   0  0  1  0  0  3  0  0  0  0  0  0
  191.9570  176.7740  147.3310 O   0  0  0  0  0  0  0  0  0  0  0  0
  193.5920  173.6320  142.8880 C   0  0  0  0  0  2  0  0  0  0  0  0
  188.5230  177.1180  145.0950 C   0  0  1  0  0  3  0  0  0  0  0  0
  192.6350  174.5820  146.5650 C   0  0  0  0  0  2  0  0  0  0  0  0
  190.1990  175.1080  142.2260 C   0  0  2  0  0  3  0  0  0  0  0  0
  191.4170  174.2340  141.8480 C   0  0  2  0  0  3  0  0  0  0  0  0
  187.0150  177.1980  142.7510 C   0  0  0  0  0  2  0  0  0  0  0  0
  193.6820  173.6510  144.4240 C   0  0  0  0  0  2  0  0  0  0  0  0
  192.7710  174.7840  142.2960 C   0  0  0  0  0  2  0  0  0  0  0  0
  191.4880  175.4870  147.0130 C   0  0  2  0  0  0  0  0  0  0  0  0
  188.8880  175.4070  146.9920 C   0  0  0  0  0  2  0  0  0  0  0  0
  188.9830  178.1440  141.6360 C   0  0  0  0  0  2  0  0  0  0  0  0
  190.2150  175.7510  143.6480 C   0  0  2  0  0  3  0  0  0  0  0  0
  187.0920  176.5280  144.9640 C   0  0  2  0  0  3  0  0  0  0  0  0
  190.1660  175.5230  146.1950 C   0  0  1  0  0  0  0  0  0  0  0  0
  191.5210  175.9750  148.4090 C   0  0  0  0  0  2  0  0  0  0  0  0
  190.0870  174.7750  144.8410 C   0  0  2  0  0  3  0  0  0  0  0  0
  186.7430  176.1420  143.6460 O   0  0  0  0  0  0  0  0  0  0  0  0
  185.0480  176.6240  146.4080 O   0  0  0  0  0  1  0  0  0  0  0  0
  185.9750  177.3410  145.6380 C   0  0  1  0  0  0  0  0  0  0  0  0
  183.9380  178.7800  145.1270 C   0  0  0  0  0  1  0  0  0  0  0  0
  186.3220  178.7420  146.1340 C   0  0  1  0  0  3  0  0  0  0  0  0
  185.4290  178.5510  144.8850 C   0  0  1  0  0  3  0  0  0  0  0  0
  186.5840  179.3530  148.5330 C   0  0  0  0  0  1  0  0  0  0  0  0
  185.5850  179.1200  147.4190 C   0  0  0  0  0  2  0  0  0  0  0  0
  188.8600  174.4380  141.8660 C   0  0  0  0  0  2  0  0  0  0  0  0
  188.4260  174.6530  140.4210 C   0  0  0  0  0  2  0  0  0  0  0  0
  188.0870  173.3310  139.7600 C   0  0  0  0  0  2  0  0  0  0  0  0
  188.3480  173.4250  138.2730 C   0  0  0  0  0  1  0  0  0  0  0  0
  191.4450  173.8920  140.3570 C   0  0  0  0  0  2  0  0  0  0  0  0
  191.7020  172.4140  140.1130 C   0  0  0  0  0  2  0  0  0  0  0  0
  191.0430  171.5980  141.2060 C   0  0  0  0  0  1  0  0  0  0  0  0
  1 22  1  0  0  0  0
  1  3  1  0  0  0  0
  2 12  1  0  0  0  0
  3 13  1  1  0  0  0
  3  9  1  0  0  0  0
  4 16  1  1  0  0  0
  5  2  1  6  0  0  0
  5  8  1  0  0  0  0
  6 21  1  0  0  0  0
  7 13  1  0  0  0  0
  8  4  1  0  0  0  0
  9 15  1  0  0  0  0
 10 18  1  0  0  0  0
 11 10  1  0  0  0  0
 11 14  1  0  0  0  0
 12 23  1  0  0  0  0
 14  7  1  0  0  0  0
 15  6  1  0  0  0  0
 15 21  1  0  0  0  0
 17  2  2  0  0  0  0
 18  5  1  0  0  0  0
 18 22  1  0  0  0  0
 19  8  1  0  0  0  0
 19 25  1  0  0  0  0
 20  4  1  0  0  0  0
 20 16  1  0  0  0  0
 20 15  1  0  0  0  0
 22 20  1  0  0  0  0
 23 19  1  0  0  0  0
 25 27  1  0  0  0  0
 25 24  1  0  0  0  0
 27 30  1  0  0  0  0
 28 26  1  0  0  0  0
 28 25  1  0  0  0  0
 28 27  1  0  0  0  0
 30 29  1  0  0  0  0
 31 10  1  0  0  0  0
 32 31  1  0  0  0  0
 33 32  1  0  0  0  0
 34 33  1  0  0  0  0
 35 11  1  0  0  0  0
 36 35  1  0  0  0  0
 36 37  1  0  0  0  0
M  END
>  <MODEL>
4

>  <REMARK>
 VINA RESULT:      -7.7      1.599      5.144
  Name = 
  7 active torsions:
  status: ('A' for Active; 'I' for Inactive)
    1  A    between atoms: C_3  and  C_32
    2  A    between atoms: C_8  and  C_31
    3  A    between atoms: C_9  and  C_13
    4  A    between atoms: C_9  and  C_16
    5  A    between atoms: C_13  and  C_20
    6  A    between atoms: C_18  and  C_35
    7  A    between atoms: C_21  and  C_32
                            x       y       z     vdW  Elec       q    Type
                         _______ _______ _______ _____ _____    ______ ____

>  <TORSDO>
F 7

$$$$
=
 OpenBabel11052420073D

 37 43  0  0  1  0  0  0  0  0999 V2000
  192.2280  176.7980  145.1230 C   0  0  0  0  0  2  0  0  0  0  0  0
  189.9850  172.7590  143.0710 C   0  0  0  0  0  0  0  0  0  0  0  0
  193.0140  176.2010  146.2810 C   0  0  1  0  0  3  0  0  0  0  0  0
  193.6450  174.0250  142.7150 C   0  0  1  0  0  3  0  0  0  0  0  0
  191.2970  173.3110  143.5600 C   0  0  1  0  0  3  0  0  0  0  0  0
  195.3540  174.1800  144.9750 O   0  0  0  0  0  0  0  0  0  0  0  0
  191.1820  176.5560  148.0130 C   0  0  0  0  0  2  0  0  0  0  0  0
  192.2610  173.4510  142.3640 C   0  0  1  0  0  3  0  0  0  0  0  0
  194.4940  176.2190  145.9500 C   0  0  0  0  0  2  0  0  0  0  0  0
  189.7590  174.9710  144.9170 C   0  0  2  0  0  3  0  0  0  0  0  0
  189.6370  175.7770  146.2300 C   0  0  2  0  0  3  0  0  0  0  0  0
  189.6130  172.9760  141.6330 C   0  0  0  0  0  2  0  0  0  0  0  0
  192.6550  176.7910  147.6350 C   0  0  0  0  0  2  0  0  0  0  0  0
  190.5580  175.3170  147.3590 C   0  0  0  0  0  2  0  0  0  0  0  0
  194.7080  175.3940  144.6810 C   0  0  2  0  0  0  0  0  0  0  0  0
  193.8820  175.4540  142.2160 C   0  0  0  0  0  2  0  0  0  0  0  0
  189.3160  171.8710  143.8010 C   0  0  0  0  0  2  0  0  0  0  0  0
  191.2010  174.5710  144.4740 C   0  0  2  0  0  3  0  0  0  0  0  0
  191.6080  174.0020  141.0680 C   0  0  2  0  0  3  0  0  0  0  0  0
  193.5420  175.2160  143.6680 C   0  0  1  0  0  0  0  0  0  0  0  0
  196.1060  175.1430  144.2700 C   0  0  0  0  0  2  0  0  0  0  0  0
  192.1270  175.7300  144.0350 C   0  0  2  0  0  3  0  0  0  0  0  0
  190.2020  174.1640  141.1510 O   0  0  0  0  0  0  0  0  0  0  0  0
  192.3110  171.9340  139.8440 O   0  0  0  0  0  1  0  0  0  0  0  0
  192.0290  173.3050  139.7640 C   0  0  1  0  0  0  0  0  0  0  0  0
  193.8780  173.2450  138.0150 C   0  0  0  0  0  1  0  0  0  0  0  0
  191.3880  173.7870  138.4660 C   0  0  1  0  0  3  0  0  0  0  0  0
  192.8700  174.1060  138.7740 C   0  0  1  0  0  3  0  0  0  0  0  0
  189.6910  172.2610  137.4710 C   0  0  0  0  0  1  0  0  0  0  0  0
  191.1530  172.6580  137.4620 C   0  0  0  0  0  2  0  0  0  0  0  0
  188.9060  175.5640  143.7800 C   0  0  0  0  0  2  0  0  0  0  0  0
  189.0780  177.0670  143.5930 C   0  0  0  0  0  2  0  0  0  0  0  0
  187.7610  177.7130  143.2090 C   0  0  0  0  0  2  0  0  0  0  0  0
  186.6820  176.6560  143.1270 C   0  0  0  0  0  1  0  0  0  0  0  0
  188.1910  175.8690  146.7220 C   0  0  0  0  0  2  0  0  0  0  0  0
  187.7330  177.3080  146.8880 C   0  0  0  0  0  2  0  0  0  0  0  0
  186.2240  177.3750  146.7850 C   0  0  0  0  0  1  0  0  0  0  0  0
  2 17  2  0  0  0  0
  3  1  1  6  0  0  0
  3 13  1  0  0  0  0
  4 16  1  6  0  0  0
  4 20  1  0  0  0  0
  5  2  1  6  0  0  0
  5 18  1  0  0  0  0
  8  4  1  0  0  0  0
  8  5  1  0  0  0  0
  9  3  1  0  0  0  0
 10 11  1  0  0  0  0
 11 35  1  0  0  0  0
 11 14  1  0  0  0  0
 12  2  1  0  0  0  0
 13  7  1  0  0  0  0
 14  7  1  0  0  0  0
 15  6  1  0  0  0  0
 15  9  1  0  0  0  0
 16 20  1  0  0  0  0
 18 10  1  0  0  0  0
 19 23  1  0  0  0  0
 19  8  1  0  0  0  0
 20 22  1  0  0  0  0
 20 15  1  0  0  0  0
 21 15  1  0  0  0  0
 21  6  1  0  0  0  0
 22 18  1  0  0  0  0
 22  1  1  0  0  0  0
 23 12  1  0  0  0  0
 25 24  1  0  0  0  0
 25 19  1  0  0  0  0
 26 28  1  0  0  0  0
 27 28  1  0  0  0  0
 27 25  1  0  0  0  0
 28 25  1  0  0  0  0
 30 29  1  0  0  0  0
 30 27  1  0  0  0  0
 31 10  1  0  0  0  0
 32 31  1  0  0  0  0
 33 32  1  0  0  0  0
 34 33  1  0  0  0  0
 35 36  1  0  0  0  0
 37 36  1  0  0  0  0
M  END
>  <MODEL>
5

>  <REMARK>
 VINA RESULT:      -7.3      2.252      6.955
  Name = 
  7 active torsions:
  status: ('A' for Active; 'I' for Inactive)
    1  A    between atoms: C_3  and  C_32
    2  A    between atoms: C_8  and  C_31
    3  A    between atoms: C_9  and  C_13
    4  A    between atoms: C_9  and  C_16
    5  A    between atoms: C_13  and  C_20
    6  A    between atoms: C_18  and  C_35
    7  A    between atoms: C_21  and  C_32
                            x       y       z     vdW  Elec       q    Type
                         _______ _______ _______ _____ _____    ______ ____

>  <TORSDO>
F 7

$$$$
=
 OpenBabel11052420073D

 37 43  0  0  1  0  0  0  0  0999 V2000
  189.4580  177.7540  145.2680 C   0  0  0  0  0  2  0  0  0  0  0  0
  189.9940  173.0470  143.5050 C   0  0  0  0  0  0  0  0  0  0  0  0
  188.7750  177.5410  146.6100 C   0  0  1  0  0  3  0  0  0  0  0  0
  192.0950  174.9690  146.1530 C   0  0  1  0  0  3  0  0  0  0  0  0
  190.2090  173.9360  144.7000 C   0  0  1  0  0  3  0  0  0  0  0  0
  190.9150  175.8590  148.5750 O   0  0  0  0  0  0  0  0  0  0  0  0
  186.4070  177.7950  145.7090 C   0  0  0  0  0  2  0  0  0  0  0  0
  191.7230  174.0670  144.9630 C   0  0  1  0  0  3  0  0  0  0  0  0
  189.7620  177.8100  147.7290 C   0  0  0  0  0  2  0  0  0  0  0  0
  188.3810  175.4440  143.5410 C   0  0  2  0  0  3  0  0  0  0  0  0
  187.2110  176.4190  143.8020 C   0  0  2  0  0  3  0  0  0  0  0  0
  191.0990  172.9330  142.4930 C   0  0  0  0  0  2  0  0  0  0  0  0
  187.4450  178.2640  146.7430 C   0  0  0  0  0  2  0  0  0  0  0  0
  186.6240  176.3610  145.2120 C   0  0  0  0  0  2  0  0  0  0  0  0
  190.9360  176.8440  147.5710 C   0  0  2  0  0  0  0  0  0  0  0  0
  192.7240  176.3080  145.7590 C   0  0  0  0  0  2  0  0  0  0  0  0
  188.9890  172.1770  143.4870 C   0  0  0  0  0  2  0  0  0  0  0  0
  189.4270  175.2840  144.6880 C   0  0  2  0  0  3  0  0  0  0  0  0
  192.5890  174.2410  143.6850 C   0  0  2  0  0  3  0  0  0  0  0  0
  191.2720  176.2560  146.1710 C   0  0  1  0  0  0  0  0  0  0  0  0
  191.9410  176.8230  148.6550 C   0  0  0  0  0  2  0  0  0  0  0  0
  190.3120  176.5190  144.9830 C   0  0  2  0  0  3  0  0  0  0  0  0
  191.8640  174.1180  142.4730 O   0  0  0  0  0  0  0  0  0  0  0  0
  194.6840  173.5490  142.5010 O   0  0  0  0  0  1  0  0  0  0  0  0
  193.8980  173.4350  143.6560 C   0  0  1  0  0  0  0  0  0  0  0  0
  194.8010  171.0550  143.6350 C   0  0  0  0  0  1  0  0  0  0  0  0
  194.6530  173.2670  144.9710 C   0  0  1  0  0  3  0  0  0  0  0  0
  193.9030  172.0710  144.3390 C   0  0  1  0  0  3  0  0  0  0  0  0
  196.8470  173.4090  146.1380 C   0  0  0  0  0  1  0  0  0  0  0  0
  196.1710  173.2610  144.7910 C   0  0  0  0  0  2  0  0  0  0  0  0
  189.0150  175.6440  142.1520 C   0  0  0  0  0  2  0  0  0  0  0  0
  188.1580  175.1340  140.9980 C   0  0  0  0  0  2  0  0  0  0  0  0
  188.9570  174.2060  140.1050 C   0  0  0  0  0  2  0  0  0  0  0  0
  188.1930  172.9160  139.9030 C   0  0  0  0  0  1  0  0  0  0  0  0
  186.1030  176.2900  142.7550 C   0  0  0  0  0  2  0  0  0  0  0  0
  185.6030  177.6440  142.2800 C   0  0  0  0  0  2  0  0  0  0  0  0
  186.7620  178.6150  142.2070 C   0  0  0  0  0  1  0  0  0  0  0  0
  3  1  1  6  0  0  0
  3 13  1  0  0  0  0
  3  9  1  0  0  0  0
  4 16  1  6  0  0  0
  4 20  1  0  0  0  0
  5  2  1  6  0  0  0
  5  8  1  0  0  0  0
  6 21  1  0  0  0  0
  7 13  1  0  0  0  0
  8  4  1  0  0  0  0
 10 11  1  0  0  0  0
 10 18  1  0  0  0  0
 11 14  1  0  0  0  0
 12  2  1  0  0  0  0
 14  7  1  0  0  0  0
 15  9  1  0  0  0  0
 15  6  1  0  0  0  0
 15 21  1  0  0  0  0
 16 20  1  0  0  0  0
 17  2  2  0  0  0  0
 18  5  1  0  0  0  0
 18 22  1  0  0  0  0
 19  8  1  0  0  0  0
 20 15  1  0  0  0  0
 22  1  1  0  0  0  0
 22 20  1  0  0  0  0
 23 12  1  0  0  0  0
 23 19  1  0  0  0  0
 24 25  1  0  0  0  0
 25 19  1  0  0  0  0
 25 28  1  0  0  0  0
 25 27  1  0  0  0  0
 26 28  1  0  0  0  0
 28 27  1  0  0  0  0
 30 27  1  0  0  0  0
 30 29  1  0  0  0  0
 31 10  1  0  0  0  0
 32 31  1  0  0  0  0
 33 32  1  0  0  0  0
 34 33  1  0  0  0  0
 35 11  1  0  0  0  0
 36 35  1  0  0  0  0
 37 36  1  0  0  0  0
M  END
>  <MODEL>
6

>  <REMARK>
 VINA RESULT:      -7.1      2.049      7.926
  Name = 
  7 active torsions:
  status: ('A' for Active; 'I' for Inactive)
    1  A    between atoms: C_3  and  C_32
    2  A    between atoms: C_8  and  C_31
    3  A    between atoms: C_9  and  C_13
    4  A    between atoms: C_9  and  C_16
    5  A    between atoms: C_13  and  C_20
    6  A    between atoms: C_18  and  C_35
    7  A    between atoms: C_21  and  C_32
                            x       y       z     vdW  Elec       q    Type
                         _______ _______ _______ _____ _____    ______ ____

>  <TORSDO>
F 7

$$$$
=
 OpenBabel11052420073D

 37 43  0  0  1  0  0  0  0  0999 V2000
  190.6760  176.9170  144.3980 C   0  0  0  0  0  2  0  0  0  0  0  0
  188.4370  173.0610  142.0150 C   0  0  0  0  0  0  0  0  0  0  0  0
  190.9670  176.3450  145.7770 C   0  0  1  0  0  3  0  0  0  0  0  0
  192.2070  173.7000  142.7250 C   0  0  1  0  0  3  0  0  0  0  0  0
  189.6260  173.4580  142.8490 C   0  0  1  0  0  3  0  0  0  0  0  0
  193.1780  173.8500  145.3870 O   0  0  0  0  0  0  0  0  0  0  0  0
  188.8030  177.1750  146.8330 C   0  0  0  0  0  2  0  0  0  0  0  0
  190.9060  173.3090  142.0020 C   0  0  1  0  0  3  0  0  0  0  0  0
  192.4550  176.0970  145.9180 C   0  0  0  0  0  2  0  0  0  0  0  0
  188.0870  175.4800  143.5570 C   0  0  2  0  0  3  0  0  0  0  0  0
  187.7340  176.4420  144.7140 C   0  0  2  0  0  3  0  0  0  0  0  0
  188.5480  173.1650  140.5210 C   0  0  0  0  0  2  0  0  0  0  0  0
  190.3400  177.1350  146.9140 C   0  0  0  0  0  2  0  0  0  0  0  0
  188.1850  175.9800  146.0990 C   0  0  0  0  0  2  0  0  0  0  0  0
  192.8780  175.1070  144.8320 C   0  0  2  0  0  0  0  0  0  0  0  0
  192.8350  175.0070  142.2330 C   0  0  0  0  0  2  0  0  0  0  0  0
  187.4340  172.3780  142.5580 C   0  0  0  0  0  2  0  0  0  0  0  0
  189.4970  174.8150  143.6060 C   0  0  2  0  0  3  0  0  0  0  0  0
  190.7730  173.8000  140.5350 C   0  0  2  0  0  3  0  0  0  0  0  0
  192.0480  174.9940  143.5220 C   0  0  1  0  0  0  0  0  0  0  0  0
  194.2650  174.5970  144.8890 C   0  0  0  0  0  2  0  0  0  0  0  0
  190.7050  175.7590  143.4020 C   0  0  2  0  0  3  0  0  0  0  0  0
  189.4580  174.1850  140.1700 O   0  0  0  0  0  0  0  0  0  0  0  0
  191.4630  171.5250  139.7470 O   0  0  0  0  0  1  0  0  0  0  0  0
  191.4230  172.9000  139.4720 C   0  0  1  0  0  0  0  0  0  0  0  0
  193.6480  172.4010  138.3380 C   0  0  0  0  0  1  0  0  0  0  0  0
  191.2380  173.2890  138.0080 C   0  0  1  0  0  3  0  0  0  0  0  0
  192.6120  173.4650  138.6990 C   0  0  1  0  0  3  0  0  0  0  0  0
  189.6720  171.8820  136.6810 C   0  0  0  0  0  1  0  0  0  0  0  0
  191.1200  172.0800  137.0800 C   0  0  0  0  0  2  0  0  0  0  0  0
  187.7260  176.0620  142.1770 C   0  0  0  0  0  2  0  0  0  0  0  0
  188.2120  177.4910  141.9580 C   0  0  0  0  0  2  0  0  0  0  0  0
  187.0730  178.3800  141.4990 C   0  0  0  0  0  2  0  0  0  0  0  0
  186.0770  177.5600  140.7090 C   0  0  0  0  0  1  0  0  0  0  0  0
  186.2490  176.8120  144.7290 C   0  0  0  0  0  2  0  0  0  0  0  0
  186.0310  178.2940  144.9860 C   0  0  0  0  0  2  0  0  0  0  0  0
  184.7080  178.7230  144.3870 C   0  0  0  0  0  1  0  0  0  0  0  0
  2 17  2  0  0  0  0
  3  1  1  6  0  0  0
  3  9  1  0  0  0  0
  3 13  1  0  0  0  0
  4 16  1  6  0  0  0
  4 20  1  0  0  0  0
  5  2  1  6  0  0  0
  5 18  1  0  0  0  0
  7 13  1  0  0  0  0
  8  4  1  0  0  0  0
  8  5  1  0  0  0  0
 10 18  1  0  0  0  0
 10 11  1  0  0  0  0
 11 35  1  0  0  0  0
 11 14  1  0  0  0  0
 12  2  1  0  0  0  0
 14  7  1  0  0  0  0
 15 21  1  0  0  0  0
 15  6  1  0  0  0  0
 15  9  1  0  0  0  0
 16 20  1  0  0  0  0
 19  8  1  0  0  0  0
 20 15  1  0  0  0  0
 21  6  1  0  0  0  0
 22 20  1  0  0  0  0
 22 18  1  0  0  0  0
 22  1  1  0  0  0  0
 23 12  1  0  0  0  0
 23 19  1  0  0  0  0
 25 24  1  0  0  0  0
 25 19  1  0  0  0  0
 26 28  1  0  0  0  0
 27 28  1  0  0  0  0
 27 25  1  0  0  0  0
 28 25  1  0  0  0  0
 29 30  1  0  0  0  0
 30 27  1  0  0  0  0
 31 10  1  0  0  0  0
 32 31  1  0  0  0  0
 33 32  1  0  0  0  0
 34 33  1  0  0  0  0
 35 36  1  0  0  0  0
 37 36  1  0  0  0  0
M  END
>  <MODEL>
7

>  <REMARK>
 VINA RESULT:      -7.0      2.100      7.377
  Name = 
  7 active torsions:
  status: ('A' for Active; 'I' for Inactive)
    1  A    between atoms: C_3  and  C_32
    2  A    between atoms: C_8  and  C_31
    3  A    between atoms: C_9  and  C_13
    4  A    between atoms: C_9  and  C_16
    5  A    between atoms: C_13  and  C_20
    6  A    between atoms: C_18  and  C_35
    7  A    between atoms: C_21  and  C_32
                            x       y       z     vdW  Elec       q    Type
                         _______ _______ _______ _____ _____    ______ ____

>  <TORSDO>
F 7

$$$$
=
 OpenBabel11052420073D

 37 43  0  0  1  0  0  0  0  0999 V2000
  189.0060  177.9690  145.4760 C   0  0  0  0  0  2  0  0  0  0  0  0
  189.5340  173.8600  142.5800 C   0  0  0  0  0  0  0  0  0  0  0  0
  188.5110  177.3970  146.7950 C   0  0  1  0  0  3  0  0  0  0  0  0
  191.8630  175.2650  145.3590 C   0  0  1  0  0  3  0  0  0  0  0  0
  189.8570  174.4590  143.9220 C   0  0  1  0  0  3  0  0  0  0  0  0
  190.9610  175.4710  148.0410 O   0  0  0  0  0  0  0  0  0  0  0  0
  186.0380  177.6740  146.2550 C   0  0  0  0  0  2  0  0  0  0  0  0
  191.3850  174.6410  144.0360 C   0  0  1  0  0  3  0  0  0  0  0  0
  189.6190  177.4720  147.8270 C   0  0  0  0  0  2  0  0  0  0  0  0
  187.8270  176.0520  143.3750 C   0  0  2  0  0  3  0  0  0  0  0  0
  186.6550  176.8470  143.9940 C   0  0  2  0  0  3  0  0  0  0  0  0
  190.5040  174.0710  141.4530 C   0  0  0  0  0  2  0  0  0  0  0  0
  187.1760  177.9660  147.2480 C   0  0  0  0  0  2  0  0  0  0  0  0
  186.2560  176.4160  145.4060 C   0  0  0  0  0  2  0  0  0  0  0  0
  190.8070  176.6620  147.3090 C   0  0  2  0  0  0  0  0  0  0  0  0
  192.3720  176.7030  145.2320 C   0  0  0  0  0  2  0  0  0  0  0  0
  188.5760  172.9440  142.4660 C   0  0  0  0  0  2  0  0  0  0  0  0
  189.0180  175.7090  144.3240 C   0  0  2  0  0  3  0  0  0  0  0  0
  192.0710  175.1740  142.7490 C   0  0  2  0  0  3  0  0  0  0  0  0
  190.9890  176.4460  145.7800 C   0  0  1  0  0  0  0  0  0  0  0  0
  191.9430  176.4660  148.2360 C   0  0  0  0  0  2  0  0  0  0  0  0
  189.8730  176.9040  144.8070 C   0  0  2  0  0  3  0  0  0  0  0  0
  191.2040  175.2820  141.6330 O   0  0  0  0  0  0  0  0  0  0  0  0
  193.5070  173.1250  142.6360 O   0  0  0  0  0  1  0  0  0  0  0  0
  193.4020  174.4990  142.3780 C   0  0  1  0  0  0  0  0  0  0  0  0
  195.8780  174.4630  142.9700 C   0  0  0  0  0  1  0  0  0  0  0  0
  194.1310  175.0100  141.1390 C   0  0  1  0  0  3  0  0  0  0  0  0
  194.6800  175.3150  142.5540 C   0  0  1  0  0  3  0  0  0  0  0  0
  195.2600  174.4050  139.0050 C   0  0  0  0  0  1  0  0  0  0  0  0
  194.8590  173.9030  140.3770 C   0  0  0  0  0  2  0  0  0  0  0  0
  188.2680  176.6190  142.0130 C   0  0  0  0  0  2  0  0  0  0  0  0
  187.4420  176.1160  140.8340 C   0  0  0  0  0  2  0  0  0  0  0  0
  186.9580  177.2740  139.9840 C   0  0  0  0  0  2  0  0  0  0  0  0
  186.6890  176.7930  138.5760 C   0  0  0  0  0  1  0  0  0  0  0  0
  185.4300  176.8820  143.0790 C   0  0  0  0  0  2  0  0  0  0  0  0
  184.8760  178.2880  142.9170 C   0  0  0  0  0  2  0  0  0  0  0  0
  185.9830  179.2970  143.1380 C   0  0  0  0  0  1  0  0  0  0  0  0
  3  1  1  6  0  0  0
  3 13  1  0  0  0  0
  3  9  1  0  0  0  0
  4 16  1  6  0  0  0
  4 20  1  0  0  0  0
  5  2  1  6  0  0  0
  5  8  1  0  0  0  0
  5 18  1  0  0  0  0
  6 21  1  0  0  0  0
  7 13  1  0  0  0  0
  8  4  1  0  0  0  0
 10 11  1  0  0  0  0
 10 18  1  0  0  0  0
 11 14  1  0  0  0  0
 12 23  1  0  0  0  0
 12  2  1  0  0  0  0
 14  7  1  0  0  0  0
 15  9  1  0  0  0  0
 15  6  1  0  0  0  0
 15 21  1  0  0  0  0
 16 20  1  0  0  0  0
 17  2  2  0  0  0  0
 18 22  1  0  0  0  0
 19  8  1  0  0  0  0
 20 15  1  0  0  0  0
 22  1  1  0  0  0  0
 22 20  1  0  0  0  0
 23 19  1  0  0  0  0
 25 28  1  0  0  0  0
 25 24  1  0  0  0  0
 25 19  1  0  0  0  0
 27 25  1  0  0  0  0
 27 28  1  0  0  0  0
 28 26  1  0  0  0  0
 29 30  1  0  0  0  0
 30 27  1  0  0  0  0
 31 10  1  0  0  0  0
 32 31  1  0  0  0  0
 33 32  1  0  0  0  0
 34 33  1  0  0  0  0
 35 11  1  0  0  0  0
 36 35  1  0  0  0  0
 36 37  1  0  0  0  0
M  END
>  <MODEL>
8

>  <REMARK>
 VINA RESULT:      -6.9      2.057      7.929
  Name = 
  7 active torsions:
  status: ('A' for Active; 'I' for Inactive)
    1  A    between atoms: C_3  and  C_32
    2  A    between atoms: C_8  and  C_31
    3  A    between atoms: C_9  and  C_13
    4  A    between atoms: C_9  and  C_16
    5  A    between atoms: C_13  and  C_20
    6  A    between atoms: C_18  and  C_35
    7  A    between atoms: C_21  and  C_32
                            x       y       z     vdW  Elec       q    Type
                         _______ _______ _______ _____ _____    ______ ____

>  <TORSDO>
F 7

$$$$
=
 OpenBabel11052420073D

 37 43  0  0  1  0  0  0  0  0999 V2000
  188.2560  174.4450  142.0510 C   0  0  0  0  0  2  0  0  0  0  0  0
  193.0010  174.5000  143.7930 C   0  0  0  0  0  0  0  0  0  0  0  0
  188.3490  175.2690  140.7760 C   0  0  1  0  0  3  0  0  0  0  0  0
  191.4130  172.3660  140.9550 C   0  0  1  0  0  3  0  0  0  0  0  0
  192.1480  174.2550  142.5770 C   0  0  1  0  0  3  0  0  0  0  0  0
  190.3310  173.6020  138.6420 O   0  0  0  0  0  0  0  0  0  0  0  0
  187.7330  177.4790  141.8820 C   0  0  0  0  0  2  0  0  0  0  0  0
  192.2530  172.7680  142.1800 C   0  0  1  0  0  3  0  0  0  0  0  0
  188.2300  174.3550  139.5730 C   0  0  0  0  0  2  0  0  0  0  0  0
  190.3800  175.7130  143.8830 C   0  0  2  0  0  3  0  0  0  0  0  0
  189.2320  176.7350  143.7190 C   0  0  2  0  0  3  0  0  0  0  0  0
  193.2930  173.3420  144.7030 C   0  0  0  0  0  2  0  0  0  0  0  0
  187.4250  176.4760  140.7560 C   0  0  0  0  0  2  0  0  0  0  0  0
  189.1870  177.4470  142.3670 C   0  0  0  0  0  2  0  0  0  0  0  0
  189.3690  173.3380  139.6330 C   0  0  2  0  0  0  0  0  0  0  0  0
  190.1910  171.5030  141.2830 C   0  0  0  0  0  2  0  0  0  0  0  0
  193.7030  175.6240  143.9050 C   0  0  0  0  0  2  0  0  0  0  0  0
  190.6940  174.8110  142.6480 C   0  0  2  0  0  3  0  0  0  0  0  0
  192.2270  171.7760  143.3750 C   0  0  2  0  0  3  0  0  0  0  0  0
  190.0120  172.9760  141.0020 C   0  0  1  0  0  0  0  0  0  0  0  0
  189.5390  172.4480  138.4640 C   0  0  0  0  0  2  0  0  0  0  0  0
  189.6110  173.7740  142.2680 C   0  0  2  0  0  3  0  0  0  0  0  0
  192.2440  172.4010  144.6470 O   0  0  0  0  0  0  0  0  0  0  0  0
  194.4760  170.8920  142.7190 O   0  0  0  0  0  1  0  0  0  0  0  0
  193.2280  170.6130  143.2940 C   0  0  1  0  0  0  0  0  0  0  0  0
  193.6010  168.3450  142.1970 C   0  0  0  0  0  1  0  0  0  0  0  0
  193.2230  169.5960  144.4320 C   0  0  1  0  0  3  0  0  0  0  0  0
  192.6690  169.2160  143.0380 C   0  0  1  0  0  3  0  0  0  0  0  0
  195.1450  169.7220  146.0090 C   0  0  0  0  0  1  0  0  0  0  0  0
  194.6160  169.0560  144.7550 C   0  0  0  0  0  2  0  0  0  0  0  0
  190.2920  174.9360  145.2090 C   0  0  0  0  0  2  0  0  0  0  0  0
  191.0470  175.5870  146.3630 C   0  0  0  0  0  2  0  0  0  0  0  0
  190.3590  175.3020  147.6830 C   0  0  0  0  0  2  0  0  0  0  0  0
  189.0590  174.5720  147.4300 C   0  0  0  0  0  1  0  0  0  0  0  0
  189.1930  177.7530  144.8620 C   0  0  0  0  0  2  0  0  0  0  0  0
  187.7910  177.9350  145.4190 C   0  0  0  0  0  2  0  0  0  0  0  0
  187.0230  176.6350  145.2960 C   0  0  0  0  0  1  0  0  0  0  0  0
  1 22  1  0  0  0  0
  2 17  2  0  0  0  0
  2 12  1  0  0  0  0
  3  9  1  6  0  0  0
  3  1  1  0  0  0  0
  4 20  1  0  0  0  0
  4 16  1  1  0  0  0
  4  8  1  0  0  0  0
  5 18  1  0  0  0  0
  5  2  1  1  0  0  0
  6 15  1  0  0  0  0
  7 14  1  0  0  0  0
  8  5  1  0  0  0  0
  8 19  1  0  0  0  0
  9 15  1  0  0  0  0
 10 31  1  0  0  0  0
 11 10  1  0  0  0  0
 11 35  1  0  0  0  0
 13  3  1  0  0  0  0
 13  7  1  0  0  0  0
 14 11  1  0  0  0  0
 15 20  1  0  0  0  0
 18 10  1  0  0  0  0
 19 23  1  0  0  0  0
 20 16  1  0  0  0  0
 20 22  1  0  0  0  0
 21  6  1  0  0  0  0
 21 15  1  0  0  0  0
 22 18  1  0  0  0  0
 23 12  1  0  0  0  0
 24 25  1  0  0  0  0
 25 19  1  0  0  0  0
 25 27  1  0  0  0  0
 26 28  1  0  0  0  0
 27 30  1  0  0  0  0
 28 25  1  0  0  0  0
 28 27  1  0  0  0  0
 30 29  1  0  0  0  0
 31 32  1  0  0  0  0
 32 33  1  0  0  0  0
 34 33  1  0  0  0  0
 35 36  1  0  0  0  0
 37 36  1  0  0  0  0
M  END
>  <MODEL>
9

>  <REMARK>
 VINA RESULT:      -6.9      2.504      6.959
  Name = 
  7 active torsions:
  status: ('A' for Active; 'I' for Inactive)
    1  A    between atoms: C_3  and  C_32
    2  A    between atoms: C_8  and  C_31
    3  A    between atoms: C_9  and  C_13
    4  A    between atoms: C_9  and  C_16
    5  A    between atoms: C_13  and  C_20
    6  A    between atoms: C_18  and  C_35
    7  A    between atoms: C_21  and  C_32
                            x       y       z     vdW  Elec       q    Type
                         _______ _______ _______ _____ _____    ______ ____

>  <TORSDO>
F 7

$$$$
