=
 OpenBabel11052419003D

 34 39  0  0  1  0  0  0  0  0999 V2000
  192.3400  176.3360  146.4640 C   0  0  0  0  0  0  0  0  0  0  0  0
  193.1080  174.4860  145.0800 C   0  0  0  0  0  0  0  0  0  0  0  0
  190.7290  175.3220  144.9330 C   0  0  0  0  0  0  0  0  0  0  0  0
  188.8700  174.3990  143.4630 C   0  0  2  0  0  3  0  0  0  0  0  0
  193.6460  176.5350  146.9160 C   0  0  0  0  0  3  0  0  0  0  0  0
  194.4050  174.7000  145.5540 C   0  0  0  0  0  3  0  0  0  0  0  0
  191.1870  174.7110  142.5830 C   0  0  0  0  0  3  0  0  0  0  0  0
  192.0580  175.3720  145.4560 C   0  0  0  0  0  0  0  0  0  0  0  0
  190.7650  174.2550  141.2190 C   0  0  0  0  0  2  0  0  0  0  0  0
  188.4670  173.9430  142.0530 C   0  0  0  0  0  2  0  0  0  0  0  0
  194.6820  175.7380  146.4400 C   0  0  0  0  0  3  0  0  0  0  0  0
  189.6920  176.0120  145.6010 C   0  0  0  0  0  0  0  0  0  0  0  0
  191.3140  177.0660  147.0580 C   0  0  0  0  0  3  0  0  0  0  0  0
  192.8490  172.9340  144.2890 Cl  0  0  0  0  0  0  0  0  0  0  0  0
  188.1160  175.5370  143.8060 O   0  0  0  0  0  0  0  0  0  0  0  0
  188.2450  175.7390  145.1970 C   0  0  2  0  0  3  0  0  0  0  0  0
  189.6170  173.2600  141.3260 C   0  0  1  0  0  3  0  0  0  0  0  0
  190.3440  174.7270  143.6270 C   0  0  0  0  0  0  0  0  0  0  0  0
  189.9960  176.8750  146.6610 C   0  0  0  0  0  3  0  0  0  0  0  0
  186.0400  178.8220  145.1550 C   0  0  0  0  0  0  0  0  0  0  0  0
  185.4710  178.7830  146.4310 C   0  0  0  0  0  3  0  0  0  0  0  0
  187.2850  176.8020  145.6430 C   0  0  0  0  0  0  0  0  0  0  0  0
  185.8060  177.7520  147.3150 C   0  0  0  0  0  3  0  0  0  0  0  0
  186.9440  177.8330  144.7610 C   0  0  0  0  0  3  0  0  0  0  0  0
  186.7100  176.7620  146.9220 C   0  0  0  0  0  3  0  0  0  0  0  0
  185.6170  180.1110  144.0490 Cl  0  0  0  0  0  0  0  0  0  0  0  0
  189.1830  172.8640  139.9990 N   0  0  0  0  0  2  0  0  0  0  0  0
  188.6090  173.9960  139.4020 N   0  0  0  0  0  2  0  0  0  0  0  0
  189.2870  172.8250  137.3710 C   0  0  0  0  0  2  0  0  0  0  0  0
  187.0150  175.6070  137.3230 N   0  0  0  0  0  2  0  0  0  0  0  0
  188.0170  174.7980  137.2260 C   0  0  0  0  0  0  0  0  0  0  0  0
  189.7980  173.6960  136.2170 C   0  0  0  0  0  3  0  0  0  0  0  0
  188.1710  173.5990  138.0730 C   0  0  2  0  0  3  0  0  0  0  0  0
  188.9070  174.8370  136.1330 N   0  0  0  0  0  0  0  0  0  0  0  0
  1  5  2  0  0  0  0
  1 13  1  0  0  0  0
  2  8  2  0  0  0  0
  2  6  1  0  0  0  0
  3  8  1  0  0  0  0
  3 12  2  0  0  0  0
  4 10  1  6  0  0  0
  4 18  1  0  0  0  0
  4 15  1  0  0  0  0
  6 11  2  0  0  0  0
  7 18  2  0  0  0  0
  8  1  1  0  0  0  0
  9 17  1  0  0  0  0
  9  7  1  0  0  0  0
 11  5  1  0  0  0  0
 12 19  1  0  0  0  0
 14  2  1  0  0  0  0
 15 16  1  0  0  0  0
 16 12  1  0  0  0  0
 16 22  1  6  0  0  0
 17 27  1  6  0  0  0
 17 10  1  0  0  0  0
 18  3  1  0  0  0  0
 19 13  2  0  0  0  0
 20 21  1  0  0  0  0
 21 23  2  0  0  0  0
 22 25  2  0  0  0  0
 24 20  2  0  0  0  0
 24 22  1  0  0  0  0
 25 23  1  0  0  0  0
 26 20  1  0  0  0  0
 28 27  1  0  0  0  0
 29 33  1  0  0  0  0
 31 30  2  0  0  0  0
 31 33  1  0  0  0  0
 32 29  1  0  0  0  0
 33 28  1  1  0  0  0
 34 32  2  0  0  0  0
 34 31  1  0  0  0  0
M  END
>  <MODEL>
1

>  <REMARK>
 VINA RESULT:      -8.6      0.000      0.000
  Name = 
  4 active torsions:
  status: ('A' for Active; 'I' for Inactive)
    1  A    between atoms: N_3  and  N_13
    2  A    between atoms: N_3  and  C_29
    3  A    between atoms: C_12  and  C_28
    4  A    between atoms: N_13  and  C_33
                            x       y       z     vdW  Elec       q    Type
                         _______ _______ _______ _____ _____    ______ ____

>  <TORSDO>
F 4

$$$$
=
 OpenBabel11052419003D

 34 39  0  0  1  0  0  0  0  0999 V2000
  191.4580  176.2840  145.9480 C   0  0  0  0  0  0  0  0  0  0  0  0
  192.2740  174.1770  145.0420 C   0  0  0  0  0  0  0  0  0  0  0  0
  190.1070  175.1890  144.2330 C   0  0  0  0  0  0  0  0  0  0  0  0
  188.5120  174.2160  142.5070 C   0  0  2  0  0  3  0  0  0  0  0  0
  192.6480  176.4350  146.6620 C   0  0  0  0  0  3  0  0  0  0  0  0
  193.4540  174.3470  145.7720 C   0  0  0  0  0  3  0  0  0  0  0  0
  190.9850  174.1760  142.1580 C   0  0  0  0  0  3  0  0  0  0  0  0
  191.2860  175.2020  145.0400 C   0  0  0  0  0  0  0  0  0  0  0  0
  190.8180  173.5510  140.8070 C   0  0  0  0  0  2  0  0  0  0  0  0
  188.3730  173.5810  141.1150 C   0  0  0  0  0  2  0  0  0  0  0  0
  193.6570  175.4830  146.5520 C   0  0  0  0  0  3  0  0  0  0  0  0
  189.0420  176.0660  144.5430 C   0  0  0  0  0  0  0  0  0  0  0  0
  190.4250  177.1880  146.1830 C   0  0  0  0  0  3  0  0  0  0  0  0
  192.0050  172.5490  144.4270 Cl  0  0  0  0  0  0  0  0  0  0  0  0
  187.8480  175.4570  142.5100 O   0  0  0  0  0  0  0  0  0  0  0  0
  187.6950  175.8630  143.8530 C   0  0  2  0  0  3  0  0  0  0  0  0
  189.5600  172.6910  140.7760 C   0  0  1  0  0  3  0  0  0  0  0  0
  189.9450  174.4320  142.9650 C   0  0  0  0  0  0  0  0  0  0  0  0
  189.2120  177.0550  145.5200 C   0  0  0  0  0  3  0  0  0  0  0  0
  185.0810  178.3240  145.0720 C   0  0  0  0  0  0  0  0  0  0  0  0
  185.1370  179.3110  144.0840 C   0  0  0  0  0  3  0  0  0  0  0  0
  186.7990  177.0650  143.9160 C   0  0  0  0  0  0  0  0  0  0  0  0
  186.0260  179.1790  143.0120 C   0  0  0  0  0  3  0  0  0  0  0  0
  185.9120  177.2030  144.9890 C   0  0  0  0  0  3  0  0  0  0  0  0
  186.8570  178.0590  142.9280 C   0  0  0  0  0  3  0  0  0  0  0  0
  183.9710  178.4920  146.4140 Cl  0  0  0  0  0  0  0  0  0  0  0  0
  189.3800  172.1310  139.4480 N   0  0  0  0  0  2  0  0  0  0  0  0
  189.9160  173.0540  138.5380 N   0  0  0  0  0  2  0  0  0  0  0  0
  189.9160  172.7240  136.1210 C   0  0  0  0  0  2  0  0  0  0  0  0
  187.6060  174.9310  137.7640 N   0  0  0  0  0  2  0  0  0  0  0  0
  188.5590  174.3850  137.0850 C   0  0  0  0  0  0  0  0  0  0  0  0
  189.9410  173.9920  135.2580 C   0  0  0  0  0  3  0  0  0  0  0  0
  189.0680  173.0270  137.3570 C   0  0  2  0  0  3  0  0  0  0  0  0
  189.0100  174.9240  135.8620 N   0  0  0  0  0  0  0  0  0  0  0  0
  1 13  1  0  0  0  0
  1  5  2  0  0  0  0
  2  6  1  0  0  0  0
  3 12  2  0  0  0  0
  3  8  1  0  0  0  0
  4 10  1  6  0  0  0
  4 15  1  0  0  0  0
  4 18  1  0  0  0  0
  6 11  2  0  0  0  0
  7 18  2  0  0  0  0
  8  2  2  0  0  0  0
  8  1  1  0  0  0  0
  9  7  1  0  0  0  0
 11  5  1  0  0  0  0
 12 19  1  0  0  0  0
 14  2  1  0  0  0  0
 15 16  1  0  0  0  0
 16 22  1  6  0  0  0
 16 12  1  0  0  0  0
 17 27  1  6  0  0  0
 17  9  1  0  0  0  0
 17 10  1  0  0  0  0
 18  3  1  0  0  0  0
 19 13  2  0  0  0  0
 20 26  1  0  0  0  0
 21 20  2  0  0  0  0
 22 24  2  0  0  0  0
 23 21  1  0  0  0  0
 24 20  1  0  0  0  0
 25 23  2  0  0  0  0
 25 22  1  0  0  0  0
 28 27  1  0  0  0  0
 29 33  1  0  0  0  0
 31 33  1  0  0  0  0
 31 30  2  0  0  0  0
 32 34  2  0  0  0  0
 32 29  1  0  0  0  0
 33 28  1  1  0  0  0
 34 31  1  0  0  0  0
M  END
>  <MODEL>
2

>  <REMARK>
 VINA RESULT:      -8.4      1.249      1.651
  Name = 
  4 active torsions:
  status: ('A' for Active; 'I' for Inactive)
    1  A    between atoms: N_3  and  N_13
    2  A    between atoms: N_3  and  C_29
    3  A    between atoms: C_12  and  C_28
    4  A    between atoms: N_13  and  C_33
                            x       y       z     vdW  Elec       q    Type
                         _______ _______ _______ _____ _____    ______ ____

>  <TORSDO>
F 4

$$$$
=
 OpenBabel11052419003D

 34 39  0  0  1  0  0  0  0  0999 V2000
  186.4600  177.6950  142.8760 C   0  0  0  0  0  0  0  0  0  0  0  0
  187.0880  177.9170  145.2180 C   0  0  0  0  0  0  0  0  0  0  0  0
  188.2490  176.2560  143.7110 C   0  0  0  0  0  0  0  0  0  0  0  0
  190.0900  174.6260  144.3590 C   0  0  2  0  0  3  0  0  0  0  0  0
  185.6100  178.7950  143.0030 C   0  0  0  0  0  3  0  0  0  0  0  0
  186.2240  179.0110  145.3220 C   0  0  0  0  0  3  0  0  0  0  0  0
  190.1070  176.9910  145.1630 C   0  0  0  0  0  3  0  0  0  0  0  0
  187.2980  177.2940  143.9540 C   0  0  0  0  0  0  0  0  0  0  0  0
  191.4170  176.7800  145.8600 C   0  0  0  0  0  2  0  0  0  0  0  0
  191.4360  174.4430  145.0770 C   0  0  0  0  0  2  0  0  0  0  0  0
  185.5130  179.4700  144.2160 C   0  0  0  0  0  3  0  0  0  0  0  0
  188.1500  175.4840  142.5300 C   0  0  0  0  0  0  0  0  0  0  0  0
  186.4320  176.9690  141.6880 C   0  0  0  0  0  3  0  0  0  0  0  0
  187.6070  177.2270  146.7530 Cl  0  0  0  0  0  0  0  0  0  0  0  0
  190.2700  174.3760  142.9860 O   0  0  0  0  0  0  0  0  0  0  0  0
  188.9930  174.2180  142.4040 C   0  0  2  0  0  3  0  0  0  0  0  0
  191.5480  175.3300  146.3090 C   0  0  1  0  0  3  0  0  0  0  0  0
  189.4660  176.0010  144.5240 C   0  0  0  0  0  0  0  0  0  0  0  0
  187.2370  175.8480  141.5320 C   0  0  0  0  0  3  0  0  0  0  0  0
  190.5070  173.4740  139.0080 C   0  0  0  0  0  0  0  0  0  0  0  0
  189.4590  172.8040  138.3710 C   0  0  0  0  0  3  0  0  0  0  0  0
  189.1400  173.7310  140.9930 C   0  0  0  0  0  0  0  0  0  0  0  0
  188.2510  172.5940  139.0430 C   0  0  0  0  0  3  0  0  0  0  0  0
  190.3490  173.9360  140.3180 C   0  0  0  0  0  3  0  0  0  0  0  0
  188.0910  173.0550  140.3520 C   0  0  0  0  0  3  0  0  0  0  0  0
  192.0190  173.7340  138.1670 Cl  0  0  0  0  0  0  0  0  0  0  0  0
  192.8410  175.1240  146.9370 N   0  0  0  0  0  2  0  0  0  0  0  0
  193.7000  174.6230  145.9480 N   0  0  0  0  0  2  0  0  0  0  0  0
  194.8940  176.5580  145.0610 C   0  0  0  0  0  2  0  0  0  0  0  0
  196.5900  173.6000  146.1920 N   0  0  0  0  0  2  0  0  0  0  0  0
  196.0550  174.5650  145.5230 C   0  0  0  0  0  0  0  0  0  0  0  0
  195.9230  176.2800  143.9590 C   0  0  0  0  0  3  0  0  0  0  0  0
  194.9380  175.3820  146.0380 C   0  0  2  0  0  3  0  0  0  0  0  0
  196.6580  175.0980  144.3650 N   0  0  0  0  0  0  0  0  0  0  0  0
  1  5  2  0  0  0  0
  1  8  1  0  0  0  0
  2  6  1  0  0  0  0
  2 14  1  0  0  0  0
  3  8  1  0  0  0  0
  3 18  1  0  0  0  0
  4 18  1  0  0  0  0
  4 10  1  1  0  0  0
  5 11  1  0  0  0  0
  7  9  1  0  0  0  0
  8  2  2  0  0  0  0
  9 17  1  0  0  0  0
 10 17  1  0  0  0  0
 11  6  2  0  0  0  0
 12  3  2  0  0  0  0
 13  1  1  0  0  0  0
 15  4  1  0  0  0  0
 16 22  1  6  0  0  0
 16 12  1  0  0  0  0
 16 15  1  0  0  0  0
 17 27  1  6  0  0  0
 18  7  2  0  0  0  0
 19 13  2  0  0  0  0
 19 12  1  0  0  0  0
 20 24  1  0  0  0  0
 21 20  2  0  0  0  0
 21 23  1  0  0  0  0
 23 25  2  0  0  0  0
 24 22  2  0  0  0  0
 25 22  1  0  0  0  0
 26 20  1  0  0  0  0
 28 27  1  0  0  0  0
 29 33  1  0  0  0  0
 31 33  1  0  0  0  0
 31 30  2  0  0  0  0
 32 34  2  0  0  0  0
 32 29  1  0  0  0  0
 33 28  1  6  0  0  0
 34 31  1  0  0  0  0
M  END
>  <MODEL>
3

>  <REMARK>
 VINA RESULT:      -8.4      3.792      7.911
  Name = 
  4 active torsions:
  status: ('A' for Active; 'I' for Inactive)
    1  A    between atoms: N_3  and  N_13
    2  A    between atoms: N_3  and  C_29
    3  A    between atoms: C_12  and  C_28
    4  A    between atoms: N_13  and  C_33
                            x       y       z     vdW  Elec       q    Type
                         _______ _______ _______ _____ _____    ______ ____

>  <TORSDO>
F 4

$$$$
=
 OpenBabel11052419003D

 34 39  0  0  1  0  0  0  0  0999 V2000
  191.3990  176.1900  145.8440 C   0  0  0  0  0  0  0  0  0  0  0  0
  192.1780  174.0940  144.8820 C   0  0  0  0  0  0  0  0  0  0  0  0
  190.0210  175.1590  144.1110 C   0  0  0  0  0  0  0  0  0  0  0  0
  188.4020  174.2530  142.3720 C   0  0  2  0  0  3  0  0  0  0  0  0
  192.5960  176.3060  146.5540 C   0  0  0  0  0  3  0  0  0  0  0  0
  193.3640  174.2280  145.6080 C   0  0  0  0  0  3  0  0  0  0  0  0
  190.8720  174.1840  142.0070 C   0  0  0  0  0  3  0  0  0  0  0  0
  191.2050  175.1340  144.9110 C   0  0  0  0  0  0  0  0  0  0  0  0
  190.6870  173.5940  140.6420 C   0  0  0  0  0  2  0  0  0  0  0  0
  188.2440  173.6540  140.9660 C   0  0  0  0  0  2  0  0  0  0  0  0
  193.5890  175.3410  146.4140 C   0  0  0  0  0  3  0  0  0  0  0  0
  188.9710  176.0440  144.4490 C   0  0  0  0  0  0  0  0  0  0  0  0
  190.3810  177.1040  146.1080 C   0  0  0  0  0  3  0  0  0  0  0  0
  191.8800  172.4860  144.2280 Cl  0  0  0  0  0  0  0  0  0  0  0  0
  187.7570  175.5030  142.4090 O   0  0  0  0  0  0  0  0  0  0  0  0
  187.6180  175.8790  143.7630 C   0  0  2  0  0  3  0  0  0  0  0  0
  189.4160  172.7550  140.5970 C   0  0  1  0  0  3  0  0  0  0  0  0
  189.8400  174.4360  142.8260 C   0  0  0  0  0  0  0  0  0  0  0  0
  189.1630  177.0060  145.4490 C   0  0  0  0  0  3  0  0  0  0  0  0
  185.0170  178.3270  145.0340 C   0  0  0  0  0  0  0  0  0  0  0  0
  185.1130  179.3580  144.0940 C   0  0  0  0  0  3  0  0  0  0  0  0
  186.7410  177.0920  143.8610 C   0  0  0  0  0  0  0  0  0  0  0  0
  186.0250  179.2590  143.0380 C   0  0  0  0  0  3  0  0  0  0  0  0
  185.8300  177.1960  144.9180 C   0  0  0  0  0  3  0  0  0  0  0  0
  186.8390  178.1300  142.9220 C   0  0  0  0  0  3  0  0  0  0  0  0
  183.8770  178.4520  146.3560 Cl  0  0  0  0  0  0  0  0  0  0  0  0
  189.2190  172.2310  139.2570 N   0  0  0  0  0  2  0  0  0  0  0  0
  190.2930  171.3670  138.9950 N   0  0  0  0  0  2  0  0  0  0  0  0
  190.4000  168.9360  138.8050 C   0  0  0  0  0  2  0  0  0  0  0  0
  189.6660  171.0570  136.0000 N   0  0  0  0  0  2  0  0  0  0  0  0
  190.1850  170.2620  136.8750 C   0  0  0  0  0  0  0  0  0  0  0  0
  191.2790  168.3760  137.6800 C   0  0  0  0  0  3  0  0  0  0  0  0
  189.7500  170.2190  138.2850 C   0  0  2  0  0  3  0  0  0  0  0  0
  191.0160  169.1840  136.5060 N   0  0  0  0  0  0  0  0  0  0  0  0
  1 13  1  0  0  0  0
  1  5  2  0  0  0  0
  2  8  2  0  0  0  0
  2  6  1  0  0  0  0
  3 12  2  0  0  0  0
  3  8  1  0  0  0  0
  4 10  1  6  0  0  0
  4 15  1  0  0  0  0
  4 18  1  0  0  0  0
  6 11  2  0  0  0  0
  7 18  2  0  0  0  0
  8  1  1  0  0  0  0
  9  7  1  0  0  0  0
 11  5  1  0  0  0  0
 12 19  1  0  0  0  0
 14  2  1  0  0  0  0
 15 16  1  0  0  0  0
 16 22  1  6  0  0  0
 16 12  1  0  0  0  0
 17 27  1  6  0  0  0
 17  9  1  0  0  0  0
 17 10  1  0  0  0  0
 18  3  1  0  0  0  0
 19 13  2  0  0  0  0
 20 26  1  0  0  0  0
 21 20  2  0  0  0  0
 22 24  2  0  0  0  0
 23 21  1  0  0  0  0
 24 20  1  0  0  0  0
 25 23  2  0  0  0  0
 25 22  1  0  0  0  0
 28 27  1  0  0  0  0
 30 31  2  0  0  0  0
 31 33  1  0  0  0  0
 32 29  1  0  0  0  0
 33 29  1  0  0  0  0
 33 28  1  1  0  0  0
 34 31  1  0  0  0  0
 34 32  2  0  0  0  0
M  END
>  <MODEL>
4

>  <REMARK>
 VINA RESULT:      -8.2      2.110      2.741
  Name = 
  4 active torsions:
  status: ('A' for Active; 'I' for Inactive)
    1  A    between atoms: N_3  and  N_13
    2  A    between atoms: N_3  and  C_29
    3  A    between atoms: C_12  and  C_28
    4  A    between atoms: N_13  and  C_33
                            x       y       z     vdW  Elec       q    Type
                         _______ _______ _______ _____ _____    ______ ____

>  <TORSDO>
F 4

$$$$
=
 OpenBabel11052419003D

 34 39  0  0  1  0  0  0  0  0999 V2000
  187.8440  176.9680  146.3360 C   0  0  0  0  0  0  0  0  0  0  0  0
  186.3680  176.7960  144.4090 C   0  0  0  0  0  0  0  0  0  0  0  0
  188.7910  176.1030  144.2570 C   0  0  0  0  0  0  0  0  0  0  0  0
  190.0090  175.2290  142.2030 C   0  0  2  0  0  3  0  0  0  0  0  0
  186.7560  177.3220  147.1350 C   0  0  0  0  0  3  0  0  0  0  0  0
  185.2950  177.1600  145.2280 C   0  0  0  0  0  3  0  0  0  0  0  0
  187.7090  174.4450  142.7800 C   0  0  0  0  0  3  0  0  0  0  0  0
  187.6590  176.5960  144.9760 C   0  0  0  0  0  0  0  0  0  0  0  0
  187.7040  173.4970  141.6200 C   0  0  0  0  0  2  0  0  0  0  0  0
  189.9770  174.2430  141.0250 C   0  0  0  0  0  2  0  0  0  0  0  0
  185.4780  177.3890  146.5890 C   0  0  0  0  0  3  0  0  0  0  0  0
  190.0850  176.2560  144.8080 C   0  0  0  0  0  0  0  0  0  0  0  0
  189.1220  177.0370  146.8880 C   0  0  0  0  0  3  0  0  0  0  0  0
  186.0600  176.9160  142.6790 Cl  0  0  0  0  0  0  0  0  0  0  0  0
  191.0750  174.8870  143.0540 O   0  0  0  0  0  0  0  0  0  0  0  0
  191.2990  175.9740  143.9270 C   0  0  2  0  0  3  0  0  0  0  0  0
  188.5660  174.0440  140.4890 C   0  0  1  0  0  3  0  0  0  0  0  0
  188.7310  175.2800  143.0230 C   0  0  0  0  0  0  0  0  0  0  0  0
  190.2350  176.7260  146.1180 C   0  0  0  0  0  3  0  0  0  0  0  0
  194.2320  174.2150  145.5640 C   0  0  0  0  0  0  0  0  0  0  0  0
  194.9400  175.2910  146.1090 C   0  0  0  0  0  3  0  0  0  0  0  0
  192.5640  175.7470  144.7000 C   0  0  0  0  0  0  0  0  0  0  0  0
  194.4630  176.5950  145.9490 C   0  0  0  0  0  3  0  0  0  0  0  0
  193.0470  174.4430  144.8600 C   0  0  0  0  0  3  0  0  0  0  0  0
  193.2780  176.8240  145.2450 C   0  0  0  0  0  3  0  0  0  0  0  0
  194.8310  172.5830  145.7630 Cl  0  0  0  0  0  0  0  0  0  0  0  0
  188.5970  173.0950  139.3900 N   0  0  0  0  0  2  0  0  0  0  0  0
  188.1930  173.7890  138.2400 N   0  0  0  0  0  2  0  0  0  0  0  0
  190.2750  172.6410  137.6850 C   0  0  0  0  0  2  0  0  0  0  0  0
  188.7980  175.1040  135.5260 N   0  0  0  0  0  2  0  0  0  0  0  0
  189.5220  174.4280  136.3550 C   0  0  0  0  0  0  0  0  0  0  0  0
  191.4570  173.5290  137.2770 C   0  0  0  0  0  3  0  0  0  0  0  0
  189.0020  173.2910  137.1380 C   0  0  2  0  0  3  0  0  0  0  0  0
  190.9270  174.5420  136.3850 N   0  0  0  0  0  0  0  0  0  0  0  0
  1 13  1  0  0  0  0
  1  5  2  0  0  0  0
  2  8  2  0  0  0  0
  2  6  1  0  0  0  0
  3 12  2  0  0  0  0
  3  8  1  0  0  0  0
  4 10  1  6  0  0  0
  4 18  1  0  0  0  0
  4 15  1  0  0  0  0
  6 11  2  0  0  0  0
  7 18  2  0  0  0  0
  8  1  1  0  0  0  0
  9  7  1  0  0  0  0
 11  5  1  0  0  0  0
 12 19  1  0  0  0  0
 14  2  1  0  0  0  0
 15 16  1  0  0  0  0
 16 22  1  1  0  0  0
 16 12  1  0  0  0  0
 17 27  1  6  0  0  0
 17 10  1  0  0  0  0
 17  9  1  0  0  0  0
 18  3  1  0  0  0  0
 19 13  2  0  0  0  0
 20 26  1  0  0  0  0
 20 21  1  0  0  0  0
 22 24  1  0  0  0  0
 22 25  2  0  0  0  0
 23 21  2  0  0  0  0
 24 20  2  0  0  0  0
 25 23  1  0  0  0  0
 28 27  1  0  0  0  0
 30 31  2  0  0  0  0
 31 34  1  0  0  0  0
 31 33  1  0  0  0  0
 32 29  1  0  0  0  0
 33 29  1  0  0  0  0
 33 28  1  1  0  0  0
 34 32  2  0  0  0  0
M  END
>  <MODEL>
5

>  <REMARK>
 VINA RESULT:      -8.1      1.434      5.449
  Name = 
  4 active torsions:
  status: ('A' for Active; 'I' for Inactive)
    1  A    between atoms: N_3  and  N_13
    2  A    between atoms: N_3  and  C_29
    3  A    between atoms: C_12  and  C_28
    4  A    between atoms: N_13  and  C_33
                            x       y       z     vdW  Elec       q    Type
                         _______ _______ _______ _____ _____    ______ ____

>  <TORSDO>
F 4

$$$$
=
 OpenBabel11052419003D

 34 39  0  0  1  0  0  0  0  0999 V2000
  188.0710  176.7050  146.2460 C   0  0  0  0  0  0  0  0  0  0  0  0
  186.6180  176.5470  144.3000 C   0  0  0  0  0  0  0  0  0  0  0  0
  189.0530  175.8940  144.1620 C   0  0  0  0  0  0  0  0  0  0  0  0
  190.3060  175.0770  142.1050 C   0  0  2  0  0  3  0  0  0  0  0  0
  186.9690  177.0270  147.0400 C   0  0  0  0  0  3  0  0  0  0  0  0
  185.5310  176.8790  145.1130 C   0  0  0  0  0  3  0  0  0  0  0  0
  188.0120  174.2480  142.6430 C   0  0  0  0  0  3  0  0  0  0  0  0
  187.9060  176.3560  144.8770 C   0  0  0  0  0  0  0  0  0  0  0  0
  188.0340  173.3220  141.4650 C   0  0  0  0  0  2  0  0  0  0  0  0
  190.3020  174.1120  140.9100 C   0  0  0  0  0  2  0  0  0  0  0  0
  185.6960  177.0860  146.4810 C   0  0  0  0  0  3  0  0  0  0  0  0
  190.3380  176.0550  144.7300 C   0  0  0  0  0  0  0  0  0  0  0  0
  189.3410  176.7830  146.8130 C   0  0  0  0  0  3  0  0  0  0  0  0
  186.3280  176.6950  142.5690 Cl  0  0  0  0  0  0  0  0  0  0  0  0
  191.3680  174.7340  142.9620 O   0  0  0  0  0  0  0  0  0  0  0  0
  191.5660  175.8080  143.8570 C   0  0  2  0  0  3  0  0  0  0  0  0
  188.9000  173.9020  140.3540 C   0  0  1  0  0  3  0  0  0  0  0  0
  189.0190  175.0930  142.9120 C   0  0  0  0  0  0  0  0  0  0  0  0
  190.4680  176.5030  146.0500 C   0  0  0  0  0  3  0  0  0  0  0  0
  194.5230  174.0670  145.4700 C   0  0  0  0  0  0  0  0  0  0  0  0
  195.1940  175.1400  146.0660 C   0  0  0  0  0  3  0  0  0  0  0  0
  192.8260  175.5850  144.6400 C   0  0  0  0  0  0  0  0  0  0  0  0
  194.6840  176.4360  145.9480 C   0  0  0  0  0  3  0  0  0  0  0  0
  193.3420  174.2900  144.7570 C   0  0  0  0  0  3  0  0  0  0  0  0
  193.5030  176.6600  145.2360 C   0  0  0  0  0  3  0  0  0  0  0  0
  195.1640  172.4460  145.6150 Cl  0  0  0  0  0  0  0  0  0  0  0  0
  188.9570  172.9750  139.2380 N   0  0  0  0  0  2  0  0  0  0  0  0
  189.6100  171.8220  139.6980 N   0  0  0  0  0  2  0  0  0  0  0  0
  189.6750  170.3670  137.7390 C   0  0  0  0  0  2  0  0  0  0  0  0
  192.5760  171.0090  139.7590 N   0  0  0  0  0  2  0  0  0  0  0  0
  191.5430  170.5180  139.1590 C   0  0  0  0  0  0  0  0  0  0  0  0
  190.2990  168.9810  137.9380 C   0  0  0  0  0  3  0  0  0  0  0  0
  190.4550  171.3520  138.6120 C   0  0  2  0  0  3  0  0  0  0  0  0
  191.4920  169.1730  138.7380 N   0  0  0  0  0  0  0  0  0  0  0  0
  1 13  1  0  0  0  0
  1  5  2  0  0  0  0
  2  8  2  0  0  0  0
  2  6  1  0  0  0  0
  3 12  2  0  0  0  0
  3  8  1  0  0  0  0
  4 10  1  6  0  0  0
  4 18  1  0  0  0  0
  4 15  1  0  0  0  0
  6 11  2  0  0  0  0
  7 18  2  0  0  0  0
  8  1  1  0  0  0  0
  9  7  1  0  0  0  0
 11  5  1  0  0  0  0
 12 19  1  0  0  0  0
 14  2  1  0  0  0  0
 15 16  1  0  0  0  0
 16 22  1  1  0  0  0
 16 12  1  0  0  0  0
 17 27  1  6  0  0  0
 17 10  1  0  0  0  0
 17  9  1  0  0  0  0
 18  3  1  0  0  0  0
 19 13  2  0  0  0  0
 20 26  1  0  0  0  0
 20 21  1  0  0  0  0
 22 24  1  0  0  0  0
 22 25  2  0  0  0  0
 23 21  2  0  0  0  0
 24 20  2  0  0  0  0
 25 23  1  0  0  0  0
 27 28  1  0  0  0  0
 29 32  1  0  0  0  0
 29 33  1  0  0  0  0
 31 30  2  0  0  0  0
 32 34  2  0  0  0  0
 33 31  1  0  0  0  0
 33 28  1  1  0  0  0
 34 31  1  0  0  0  0
M  END
>  <MODEL>
6

>  <REMARK>
 VINA RESULT:      -7.9      2.014      5.894
  Name = 
  4 active torsions:
  status: ('A' for Active; 'I' for Inactive)
    1  A    between atoms: N_3  and  N_13
    2  A    between atoms: N_3  and  C_29
    3  A    between atoms: C_12  and  C_28
    4  A    between atoms: N_13  and  C_33
                            x       y       z     vdW  Elec       q    Type
                         _______ _______ _______ _____ _____    ______ ____

>  <TORSDO>
F 4

$$$$
=
 OpenBabel11052419003D

 34 39  0  0  1  0  0  0  0  0999 V2000
  191.9270  173.2350  140.5790 C   0  0  0  0  0  0  0  0  0  0  0  0
  189.5710  173.7700  140.8740 C   0  0  0  0  0  0  0  0  0  0  0  0
  191.1700  173.8140  142.8280 C   0  0  0  0  0  0  0  0  0  0  0  0
  190.6110  174.3330  145.2540 C   0  0  2  0  0  3  0  0  0  0  0  0
  191.7390  173.1790  139.1970 C   0  0  0  0  0  3  0  0  0  0  0  0
  189.4050  173.7000  139.4870 C   0  0  0  0  0  3  0  0  0  0  0  0
  189.6570  175.6860  143.3830 C   0  0  0  0  0  3  0  0  0  0  0  0
  190.8700  173.6350  141.4420 C   0  0  0  0  0  0  0  0  0  0  0  0
  188.9630  176.5960  144.3510 C   0  0  0  0  0  2  0  0  0  0  0  0
  189.8930  175.2870  146.2210 C   0  0  0  0  0  2  0  0  0  0  0  0
  190.4860  173.4390  138.6490 C   0  0  0  0  0  3  0  0  0  0  0  0
  192.3990  173.3380  143.3410 C   0  0  0  0  0  0  0  0  0  0  0  0
  193.1600  172.8430  141.0960 C   0  0  0  0  0  3  0  0  0  0  0  0
  188.0780  173.7230  141.8070 Cl  0  0  0  0  0  0  0  0  0  0  0  0
  191.9950  174.3940  145.4970 O   0  0  0  0  0  0  0  0  0  0  0  0
  192.5970  173.2920  144.8530 C   0  0  2  0  0  3  0  0  0  0  0  0
  188.6060  175.8390  145.6240 C   0  0  1  0  0  3  0  0  0  0  0  0
  190.3640  174.6180  143.7820 C   0  0  0  0  0  0  0  0  0  0  0  0
  193.3790  172.8520  142.4670 C   0  0  0  0  0  3  0  0  0  0  0  0
  195.9340  171.8150  145.8830 C   0  0  0  0  0  0  0  0  0  0  0  0
  196.7240  172.9620  146.0130 C   0  0  0  0  0  3  0  0  0  0  0  0
  194.0350  173.1900  145.2690 C   0  0  0  0  0  0  0  0  0  0  0  0
  196.1730  174.2230  145.7690 C   0  0  0  0  0  3  0  0  0  0  0  0
  194.5920  171.9290  145.5100 C   0  0  0  0  0  3  0  0  0  0  0  0
  194.8310  174.3380  145.3960 C   0  0  0  0  0  3  0  0  0  0  0  0
  196.6260  170.2370  146.1860 Cl  0  0  0  0  0  0  0  0  0  0  0  0
  187.9810  176.7410  146.5750 N   0  0  0  0  0  2  0  0  0  0  0  0
  187.2910  177.7080  145.8280 N   0  0  0  0  0  2  0  0  0  0  0  0
  185.3920  177.2720  144.3590 C   0  0  0  0  0  2  0  0  0  0  0  0
  184.9950  178.5540  147.6910 N   0  0  0  0  0  2  0  0  0  0  0  0
  185.0650  178.3630  146.4160 C   0  0  0  0  0  0  0  0  0  0  0  0
  184.3780  178.4100  144.1960 C   0  0  0  0  0  3  0  0  0  0  0  0
  185.8930  177.3060  145.8030 C   0  0  2  0  0  3  0  0  0  0  0  0
  184.1590  178.9640  145.5180 N   0  0  0  0  0  0  0  0  0  0  0  0
  1 13  2  0  0  0  0
  1  8  1  0  0  0  0
  2  8  1  0  0  0  0
  2 14  1  0  0  0  0
  3 12  1  0  0  0  0
  3 18  1  0  0  0  0
  4 15  1  0  0  0  0
  4 10  1  1  0  0  0
  5  1  1  0  0  0  0
  6  2  2  0  0  0  0
  7 18  2  0  0  0  0
  7  9  1  0  0  0  0
  8  3  2  0  0  0  0
  9 17  1  0  0  0  0
 11  5  2  0  0  0  0
 11  6  1  0  0  0  0
 12 16  1  0  0  0  0
 13 19  1  0  0  0  0
 16 22  1  6  0  0  0
 16 15  1  0  0  0  0
 17 10  1  0  0  0  0
 17 27  1  1  0  0  0
 18  4  1  0  0  0  0
 19 12  2  0  0  0  0
 20 21  1  0  0  0  0
 20 26  1  0  0  0  0
 22 25  2  0  0  0  0
 22 24  1  0  0  0  0
 23 21  2  0  0  0  0
 24 20  2  0  0  0  0
 25 23  1  0  0  0  0
 28 27  1  0  0  0  0
 29 33  1  0  0  0  0
 31 30  2  0  0  0  0
 32 29  1  0  0  0  0
 32 34  2  0  0  0  0
 33 28  1  6  0  0  0
 33 31  1  0  0  0  0
 34 31  1  0  0  0  0
M  END
>  <MODEL>
7

>  <REMARK>
 VINA RESULT:      -7.9      3.716      8.087
  Name = 
  4 active torsions:
  status: ('A' for Active; 'I' for Inactive)
    1  A    between atoms: N_3  and  N_13
    2  A    between atoms: N_3  and  C_29
    3  A    between atoms: C_12  and  C_28
    4  A    between atoms: N_13  and  C_33
                            x       y       z     vdW  Elec       q    Type
                         _______ _______ _______ _____ _____    ______ ____

>  <TORSDO>
F 4

$$$$
=
 OpenBabel11052419003D

 34 39  0  0  1  0  0  0  0  0999 V2000
  191.1740  172.7830  140.3270 C   0  0  0  0  0  0  0  0  0  0  0  0
  188.8150  173.1300  140.8160 C   0  0  0  0  0  0  0  0  0  0  0  0
  190.6070  173.9960  142.3700 C   0  0  0  0  0  0  0  0  0  0  0  0
  190.2640  175.2320  144.5660 C   0  0  2  0  0  3  0  0  0  0  0  0
  190.8350  172.2480  139.0830 C   0  0  0  0  0  3  0  0  0  0  0  0
  188.5000  172.5830  139.5690 C   0  0  0  0  0  3  0  0  0  0  0  0
  188.9000  175.7720  142.5450 C   0  0  0  0  0  3  0  0  0  0  0  0
  190.1770  173.3320  141.1800 C   0  0  0  0  0  0  0  0  0  0  0  0
  188.1930  176.8740  143.2750 C   0  0  0  0  0  2  0  0  0  0  0  0
  189.5270  176.3720  145.2860 C   0  0  0  0  0  2  0  0  0  0  0  0
  189.5020  172.1750  138.6920 C   0  0  0  0  0  3  0  0  0  0  0  0
  191.9460  173.8520  142.8010 C   0  0  0  0  0  0  0  0  0  0  0  0
  192.5050  172.7210  140.7350 C   0  0  0  0  0  3  0  0  0  0  0  0
  187.4680  173.2380  141.9450 Cl  0  0  0  0  0  0  0  0  0  0  0  0
  191.6420  175.5190  144.5500 O   0  0  0  0  0  0  0  0  0  0  0  0
  192.3260  174.3360  144.1980 C   0  0  2  0  0  3  0  0  0  0  0  0
  188.1090  176.5520  144.7620 C   0  0  1  0  0  3  0  0  0  0  0  0
  189.8050  174.9810  143.1400 C   0  0  0  0  0  0  0  0  0  0  0  0
  192.8800  173.2110  141.9790 C   0  0  0  0  0  3  0  0  0  0  0  0
  195.9190  173.7290  145.2490 C   0  0  0  0  0  0  0  0  0  0  0  0
  196.5620  174.8540  144.7250 C   0  0  0  0  0  3  0  0  0  0  0  0
  193.8020  174.5340  144.3860 C   0  0  0  0  0  0  0  0  0  0  0  0
  195.8280  175.8190  144.0280 C   0  0  0  0  0  3  0  0  0  0  0  0
  194.5410  173.5680  145.0790 C   0  0  0  0  0  3  0  0  0  0  0  0
  194.4510  175.6590  143.8570 C   0  0  0  0  0  3  0  0  0  0  0  0
  196.8390  172.5210  146.1190 Cl  0  0  0  0  0  0  0  0  0  0  0  0
  187.4690  177.6480  145.4670 N   0  0  0  0  0  2  0  0  0  0  0  0
  186.7390  178.3750  144.5160 N   0  0  0  0  0  2  0  0  0  0  0  0
  186.0450  179.0580  146.7540 C   0  0  0  0  0  2  0  0  0  0  0  0
  183.7990  179.0800  143.9500 N   0  0  0  0  0  2  0  0  0  0  0  0
  184.4500  178.8410  145.0400 C   0  0  0  0  0  0  0  0  0  0  0  0
  184.7680  178.4100  147.3010 C   0  0  0  0  0  3  0  0  0  0  0  0
  185.8500  179.2610  145.2510 C   0  0  2  0  0  3  0  0  0  0  0  0
  183.8070  178.4030  146.2160 N   0  0  0  0  0  0  0  0  0  0  0  0
  1 13  2  0  0  0  0
  1  8  1  0  0  0  0
  2  8  1  0  0  0  0
  2 14  1  0  0  0  0
  3 12  1  0  0  0  0
  3 18  1  0  0  0  0
  4 10  1  6  0  0  0
  5  1  1  0  0  0  0
  6  2  2  0  0  0  0
  7 18  2  0  0  0  0
  7  9  1  0  0  0  0
  8  3  2  0  0  0  0
  9 17  1  0  0  0  0
 11  5  2  0  0  0  0
 11  6  1  0  0  0  0
 12 16  1  0  0  0  0
 13 19  1  0  0  0  0
 15  4  1  0  0  0  0
 16 22  1  6  0  0  0
 16 15  1  0  0  0  0
 17 10  1  0  0  0  0
 17 27  1  1  0  0  0
 18  4  1  0  0  0  0
 19 12  2  0  0  0  0
 20 26  1  0  0  0  0
 21 20  2  0  0  0  0
 22 24  2  0  0  0  0
 23 21  1  0  0  0  0
 24 20  1  0  0  0  0
 25 23  2  0  0  0  0
 25 22  1  0  0  0  0
 28 27  1  0  0  0  0
 29 32  1  0  0  0  0
 30 31  2  0  0  0  0
 31 33  1  0  0  0  0
 31 34  1  0  0  0  0
 33 28  1  6  0  0  0
 33 29  1  0  0  0  0
 34 32  2  0  0  0  0
M  END
>  <MODEL>
8

>  <REMARK>
 VINA RESULT:      -7.8      3.535      8.058
  Name = 
  4 active torsions:
  status: ('A' for Active; 'I' for Inactive)
    1  A    between atoms: N_3  and  N_13
    2  A    between atoms: N_3  and  C_29
    3  A    between atoms: C_12  and  C_28
    4  A    between atoms: N_13  and  C_33
                            x       y       z     vdW  Elec       q    Type
                         _______ _______ _______ _____ _____    ______ ____

>  <TORSDO>
F 4

$$$$
=
 OpenBabel11052419003D

 34 39  0  0  1  0  0  0  0  0999 V2000
  193.7590  174.2400  144.5700 C   0  0  0  0  0  0  0  0  0  0  0  0
  192.6960  176.4240  144.7440 C   0  0  0  0  0  0  0  0  0  0  0  0
  191.6840  174.5920  143.3300 C   0  0  0  0  0  0  0  0  0  0  0  0
  189.5740  174.7370  141.9170 C   0  0  2  0  0  3  0  0  0  0  0  0
  194.6860  174.6180  145.5430 C   0  0  0  0  0  3  0  0  0  0  0  0
  193.6400  176.7810  145.7100 C   0  0  0  0  0  3  0  0  0  0  0  0
  189.6650  175.7060  144.2180 C   0  0  0  0  0  3  0  0  0  0  0  0
  192.6780  175.0980  144.2220 C   0  0  0  0  0  0  0  0  0  0  0  0
  188.2250  176.1140  144.1390 C   0  0  0  0  0  2  0  0  0  0  0  0
  188.0980  175.1610  141.8700 C   0  0  0  0  0  2  0  0  0  0  0  0
  194.6100  175.8750  146.1330 C   0  0  0  0  0  3  0  0  0  0  0  0
  191.9320  173.3960  142.6170 C   0  0  0  0  0  0  0  0  0  0  0  0
  193.9450  173.0270  143.9120 C   0  0  0  0  0  3  0  0  0  0  0  0
  191.7990  177.7680  144.0440 Cl  0  0  0  0  0  0  0  0  0  0  0  0
  189.6510  173.3400  141.7670 O   0  0  0  0  0  0  0  0  0  0  0  0
  190.9920  173.0090  141.4790 C   0  0  2  0  0  3  0  0  0  0  0  0
  187.8400  176.4130  142.6960 C   0  0  1  0  0  3  0  0  0  0  0  0
  190.3050  175.1280  143.1900 C   0  0  0  0  0  0  0  0  0  0  0  0
  193.0650  172.6290  142.9140 C   0  0  0  0  0  3  0  0  0  0  0  0
  191.6650  169.8770  139.4500 C   0  0  0  0  0  0  0  0  0  0  0  0
  191.2930  168.8710  140.3480 C   0  0  0  0  0  3  0  0  0  0  0  0
  191.0820  171.5620  141.0910 C   0  0  0  0  0  0  0  0  0  0  0  0
  190.8170  169.2090  141.6180 C   0  0  0  0  0  3  0  0  0  0  0  0
  191.5610  171.2200  139.8210 C   0  0  0  0  0  3  0  0  0  0  0  0
  190.7130  170.5510  141.9910 C   0  0  0  0  0  3  0  0  0  0  0  0
  192.2630  169.4530  137.8610 Cl  0  0  0  0  0  0  0  0  0  0  0  0
  186.4310  176.7570  142.6240 N   0  0  0  0  0  2  0  0  0  0  0  0
  185.8910  176.5370  143.8990 N   0  0  0  0  0  2  0  0  0  0  0  0
  185.2000  178.7930  143.2770 C   0  0  0  0  0  2  0  0  0  0  0  0
  184.5140  177.3930  146.5130 N   0  0  0  0  0  2  0  0  0  0  0  0
  184.9550  178.0550  145.4960 C   0  0  0  0  0  0  0  0  0  0  0  0
  185.5760  179.9170  144.2510 C   0  0  0  0  0  3  0  0  0  0  0  0
  184.8720  177.5540  144.1100 C   0  0  2  0  0  3  0  0  0  0  0  0
  185.3050  179.4180  145.5840 N   0  0  0  0  0  0  0  0  0  0  0  0
  1  5  2  0  0  0  0
  2  6  1  0  0  0  0
  3  8  1  0  0  0  0
  4 10  1  1  0  0  0
  4 18  1  0  0  0  0
  5 11  1  0  0  0  0
  6 11  2  0  0  0  0
  8  1  1  0  0  0  0
  8  2  2  0  0  0  0
  9  7  1  0  0  0  0
 10 17  1  0  0  0  0
 12 19  1  0  0  0  0
 12  3  2  0  0  0  0
 13  1  1  0  0  0  0
 14  2  1  0  0  0  0
 15  4  1  0  0  0  0
 16 22  1  1  0  0  0
 16 15  1  0  0  0  0
 16 12  1  0  0  0  0
 17 27  1  1  0  0  0
 17  9  1  0  0  0  0
 18  3  1  0  0  0  0
 18  7  2  0  0  0  0
 19 13  2  0  0  0  0
 20 24  2  0  0  0  0
 20 21  1  0  0  0  0
 21 23  2  0  0  0  0
 22 25  2  0  0  0  0
 23 25  1  0  0  0  0
 24 22  1  0  0  0  0
 26 20  1  0  0  0  0
 27 28  1  0  0  0  0
 29 33  1  0  0  0  0
 29 32  1  0  0  0  0
 31 34  1  0  0  0  0
 31 30  2  0  0  0  0
 32 34  2  0  0  0  0
 33 28  1  1  0  0  0
 33 31  1  0  0  0  0
M  END
>  <MODEL>
9

>  <REMARK>
 VINA RESULT:      -7.5      3.578      7.169
  Name = 
  4 active torsions:
  status: ('A' for Active; 'I' for Inactive)
    1  A    between atoms: N_3  and  N_13
    2  A    between atoms: N_3  and  C_29
    3  A    between atoms: C_12  and  C_28
    4  A    between atoms: N_13  and  C_33
                            x       y       z     vdW  Elec       q    Type
                         _______ _______ _______ _____ _____    ______ ____

>  <TORSDO>
F 4

$$$$
