=
 OpenBabel11052419543D

 37 44  0  0  1  0  0  0  0  0999 V2000
  190.4680  173.4200  143.3330 C   0  0  0  0  0  2  0  0  0  0  0  0
  187.3750  176.2220  140.6900 C   0  0  0  0  0  0  0  0  0  0  0  0
  191.9390  173.7580  143.1750 C   0  0  1  0  0  3  0  0  0  0  0  0
  188.8650  177.8860  143.1020 C   0  0  0  0  0  2  0  0  0  0  0  0
  188.1520  174.1150  139.7200 C   0  0  0  0  0  2  0  0  0  0  0  0
  187.8350  175.7390  142.0240 C   0  0  2  0  0  3  0  0  0  0  0  0
  192.8080  172.0960  144.6300 C   0  0  0  0  0  1  0  0  0  0  0  0
  187.5500  175.4760  139.6380 C   0  0  0  0  0  0  0  0  0  0  0  0
  187.7680  176.8120  143.1340 C   0  0  2  0  0  3  0  0  0  0  0  0
  187.1410  176.1560  138.4670 N   0  0  0  0  0  0  0  0  0  0  0  0
  192.0680  174.3180  144.5350 C   0  0  1  0  0  3  0  0  0  0  0  0
  189.1590  173.9800  140.9010 C   0  0  2  0  0  3  0  0  0  0  0  0
  185.2340  177.8670  140.9490 S   0  0  0  0  0  0  0  0  0  0  0  0
  193.0800  173.3950  144.0380 N   0  0  0  0  0  0  0  0  0  0  0  0
  186.7500  177.3220  138.7920 N   0  0  0  0  0  0  0  0  0  0  0  0
  191.9750  175.7700  144.1350 C   0  0  1  0  0  3  0  0  0  0  0  0
  190.2880  177.3150  143.0550 C   0  0  0  0  0  2  0  0  0  0  0  0
  186.8710  177.5460  140.2330 C   0  0  2  0  0  3  0  0  0  0  0  0
  189.1730  175.1230  141.8630 N   0  0  2  0  0  0  0  0  0  0  0  0
  186.3530  177.3410  143.4120 C   0  0  2  0  0  3  0  0  0  0  0  0
  190.4620  176.0200  143.8630 C   0  0  1  0  0  3  0  0  0  0  0  0
  189.7010  174.7820  143.2090 C   0  0  2  0  0  3  0  0  0  0  0  0
  185.9390  178.4950  142.5020 C   0  0  0  0  0  2  0  0  0  0  0  0
  185.7900  178.9900  145.2000 C   0  0  0  0  0  3  0  0  0  0  0  0
  186.1740  177.6880  144.8570 C   0  0  0  0  0  0  0  0  0  0  0  0
  186.3580  176.7320  145.8680 C   0  0  0  0  0  3  0  0  0  0  0  0
  186.3460  176.1550  148.1800 F   0  0  0  0  0  0  0  0  0  0  0  0
  185.7860  178.3830  147.5440 C   0  0  0  0  0  3  0  0  0  0  0  0
  186.1660  177.0800  147.2080 C   0  0  0  0  0  0  0  0  0  0  0  0
  185.5970  179.3380  146.5410 C   0  0  0  0  0  3  0  0  0  0  0  0
  192.4510  176.6550  145.2740 C   0  0  0  0  0  2  0  0  0  0  0  0
  191.7530  176.3460  146.4420 O   0  0  0  0  0  1  0  0  0  0  0  0
  190.5500  173.8150  140.2960 C   0  0  0  0  0  2  0  0  0  0  0  0
  191.7090  171.7720  140.1210 C   0  0  0  0  0  0  0  0  0  0  0  0
  190.6710  172.4880  139.5690 C   0  0  1  0  0  3  0  0  0  0  0  0
  190.2670  171.4690  140.3880 O   0  0  0  0  0  0  0  0  0  0  0  0
  192.9350  171.5440  140.2900 O   0  0  0  0  0  0  0  0  0  0  0  0
  3  1  1  1  0  0  0
  3 14  1  0  0  0  0
  3 11  1  0  0  0  0
  5 12  1  0  0  0  0
  6  2  1  6  0  0  0
  6  9  1  0  0  0  0
  8  5  1  0  0  0  0
  8  2  2  0  0  0  0
  9  4  1  6  0  0  0
  9 20  1  0  0  0  0
 10 15  2  0  0  0  0
 10  8  1  0  0  0  0
 11 14  1  6  0  0  0
 12 33  1  6  0  0  0
 12 19  1  0  0  0  0
 13 23  1  0  0  0  0
 14  7  1  0  0  0  0
 16 11  1  0  0  0  0
 16 31  1  1  0  0  0
 17  4  1  0  0  0  0
 17 21  1  0  0  0  0
 18 15  1  6  0  0  0
 18  2  1  0  0  0  0
 18 13  1  0  0  0  0
 19  6  1  0  0  0  0
 19 22  1  0  0  0  0
 20 25  1  0  0  0  0
 21 16  1  0  0  0  0
 22  1  1  0  0  0  0
 22 21  1  0  0  0  0
 23 20  1  0  0  0  0
 24 30  1  0  0  0  0
 25 24  2  0  0  0  0
 25 26  1  0  0  0  0
 26 29  2  0  0  0  0
 29 28  1  0  0  0  0
 29 27  1  0  0  0  0
 30 28  2  0  0  0  0
 31 32  1  0  0  0  0
 34 37  2  0  0  0  0
 34 36  1  0  0  0  0
 35 34  1  0  0  0  0
 35 33  1  0  0  0  0
 35 36  1  0  0  0  0
M  END
>  <MODEL>
1

>  <REMARK>
 VINA RESULT:      -8.1      0.000      0.000
  Name = 
  4 active torsions:
  status: ('A' for Active; 'I' for Inactive)
    1  A    between atoms: C_6  and  C_31
    2  A    between atoms: C_11  and  C_26
    3  A    between atoms: C_20  and  C_25
    4  A    between atoms: C_21  and  C_25
                            x       y       z     vdW  Elec       q    Type
                         _______ _______ _______ _____ _____    ______ ____

>  <TORSDO>
F 4

$$$$
=
 OpenBabel11052419543D

 37 44  0  0  1  0  0  0  0  0999 V2000
  193.5300  175.6600  141.6120 C   0  0  0  0  0  2  0  0  0  0  0  0
  191.1370  176.2840  145.8880 C   0  0  0  0  0  0  0  0  0  0  0  0
  193.9120  174.2270  141.2900 C   0  0  1  0  0  3  0  0  0  0  0  0
  189.3600  174.6560  143.6530 C   0  0  0  0  0  2  0  0  0  0  0  0
  193.5710  176.5310  145.8700 C   0  0  0  0  0  2  0  0  0  0  0  0
  191.1470  176.4100  144.4020 C   0  0  2  0  0  3  0  0  0  0  0  0
  194.9920  174.6410  139.2160 C   0  0  0  0  0  1  0  0  0  0  0  0
  192.2590  176.3160  146.5460 C   0  0  0  0  0  0  0  0  0  0  0  0
  189.7780  176.1310  143.7420 C   0  0  2  0  0  3  0  0  0  0  0  0
  192.0400  176.0800  147.9230 N   0  0  0  0  0  0  0  0  0  0  0  0
  192.9310  174.0970  140.1930 C   0  0  1  0  0  3  0  0  0  0  0  0
  193.5830  175.9900  144.4100 C   0  0  2  0  0  3  0  0  0  0  0  0
  188.8330  177.2770  146.9200 S   0  0  0  0  0  0  0  0  0  0  0  0
  194.2970  173.6300  139.9970 N   0  0  0  0  0  0  0  0  0  0  0  0
  190.7990  175.8700  148.1050 N   0  0  0  0  0  0  0  0  0  0  0  0
  191.8850  173.3490  140.9830 C   0  0  1  0  0  3  0  0  0  0  0  0
  190.4130  173.7520  143.0000 C   0  0  0  0  0  2  0  0  0  0  0  0
  190.0540  175.9350  146.8480 C   0  0  2  0  0  3  0  0  0  0  0  0
  192.2520  175.5780  143.8690 N   0  0  2  0  0  0  0  0  0  0  0  0
  188.6630  177.0940  144.1760 C   0  0  2  0  0  3  0  0  0  0  0  0
  191.1910  174.4310  141.8630 C   0  0  1  0  0  3  0  0  0  0  0  0
  192.1690  175.5760  142.3860 C   0  0  2  0  0  3  0  0  0  0  0  0
  187.9460  176.6680  145.4550 C   0  0  0  0  0  2  0  0  0  0  0  0
  188.1870  177.5450  141.7660 C   0  0  0  0  0  3  0  0  0  0  0  0
  187.6960  177.3470  143.0620 C   0  0  0  0  0  0  0  0  0  0  0  0
  186.3100  177.3670  143.2860 C   0  0  0  0  0  3  0  0  0  0  0  0
  184.0930  177.6070  142.4440 F   0  0  0  0  0  0  0  0  0  0  0  0
  185.9270  177.7880  140.9330 C   0  0  0  0  0  3  0  0  0  0  0  0
  185.4290  177.5880  142.2230 C   0  0  0  0  0  0  0  0  0  0  0  0
  187.3060  177.7660  140.7040 C   0  0  0  0  0  3  0  0  0  0  0  0
  190.8740  172.7190  140.0410 C   0  0  0  0  0  2  0  0  0  0  0  0
  190.1830  173.7140  139.3480 O   0  0  0  0  0  1  0  0  0  0  0  0
  194.5310  174.7950  144.3750 C   0  0  0  0  0  2  0  0  0  0  0  0
  196.6600  174.2950  145.2510 C   0  0  0  0  0  0  0  0  0  0  0  0
  195.9730  175.2430  144.5270 C   0  0  1  0  0  3  0  0  0  0  0  0
  196.7910  174.4510  143.7670 O   0  0  0  0  0  0  0  0  0  0  0  0
  196.9520  173.7180  146.3300 O   0  0  0  0  0  0  0  0  0  0  0  0
  1 22  1  0  0  0  0
  2  8  2  0  0  0  0
  3  1  1  6  0  0  0
  5  8  1  0  0  0  0
  6  2  1  1  0  0  0
  7 14  1  0  0  0  0
  8 10  1  0  0  0  0
  9  4  1  1  0  0  0
  9 20  1  0  0  0  0
  9  6  1  0  0  0  0
 10 15  2  0  0  0  0
 11 14  1  6  0  0  0
 11 16  1  0  0  0  0
 11  3  1  0  0  0  0
 12 33  1  1  0  0  0
 12  5  1  0  0  0  0
 14  3  1  0  0  0  0
 16 31  1  6  0  0  0
 16 21  1  0  0  0  0
 17  4  1  0  0  0  0
 18  2  1  6  0  0  0
 18 13  1  0  0  0  0
 18 15  1  0  0  0  0
 19  6  1  0  0  0  0
 19 12  1  0  0  0  0
 20 23  1  0  0  0  0
 21 22  1  0  0  0  0
 21 17  1  0  0  0  0
 22 19  1  0  0  0  0
 23 13  1  0  0  0  0
 24 25  1  0  0  0  0
 25 26  2  0  0  0  0
 25 20  1  0  0  0  0
 28 29  2  0  0  0  0
 29 27  1  0  0  0  0
 29 26  1  0  0  0  0
 30 28  1  0  0  0  0
 30 24  2  0  0  0  0
 32 31  1  0  0  0  0
 33 35  1  0  0  0  0
 34 37  2  0  0  0  0
 35 34  1  0  0  0  0
 36 35  1  0  0  0  0
 36 34  1  0  0  0  0
M  END
>  <MODEL>
2

>  <REMARK>
 VINA RESULT:      -7.8      3.196      5.967
  Name = 
  4 active torsions:
  status: ('A' for Active; 'I' for Inactive)
    1  A    between atoms: C_6  and  C_31
    2  A    between atoms: C_11  and  C_26
    3  A    between atoms: C_20  and  C_25
    4  A    between atoms: C_21  and  C_25
                            x       y       z     vdW  Elec       q    Type
                         _______ _______ _______ _____ _____    ______ ____

>  <TORSDO>
F 4

$$$$
=
 OpenBabel11052419543D

 37 44  0  0  1  0  0  0  0  0999 V2000
  186.1790  176.5650  144.0390 C   0  0  0  0  0  2  0  0  0  0  0  0
  190.5440  174.8440  145.5840 C   0  0  0  0  0  0  0  0  0  0  0  0
  186.1510  178.0460  143.7100 C   0  0  1  0  0  3  0  0  0  0  0  0
  190.5700  175.7440  142.4220 C   0  0  0  0  0  2  0  0  0  0  0  0
  188.9240  175.5790  147.2630 C   0  0  0  0  0  2  0  0  0  0  0  0
  189.4390  174.8040  144.5830 C   0  0  2  0  0  3  0  0  0  0  0  0
  183.8640  178.1920  143.0870 C   0  0  0  0  0  1  0  0  0  0  0  0
  190.2980  175.2260  146.8030 C   0  0  0  0  0  0  0  0  0  0  0  0
  189.9160  174.5510  143.1350 C   0  0  2  0  0  3  0  0  0  0  0  0
  191.4900  175.2910  147.5600 N   0  0  0  0  0  0  0  0  0  0  0  0
  186.0250  177.8310  142.2540 C   0  0  1  0  0  3  0  0  0  0  0  0
  188.0410  176.1490  146.1140 C   0  0  2  0  0  3  0  0  0  0  0  0
  192.4260  172.9740  145.0130 S   0  0  0  0  0  0  0  0  0  0  0  0
  185.1690  178.8080  142.9140 N   0  0  0  0  0  0  0  0  0  0  0  0
  192.4660  174.9840  146.8040 N   0  0  0  0  0  0  0  0  0  0  0  0
  187.4770  178.0670  141.9180 C   0  0  1  0  0  3  0  0  0  0  0  0
  189.7190  177.0200  142.4440 C   0  0  0  0  0  2  0  0  0  0  0  0
  192.0180  174.6910  145.4420 C   0  0  2  0  0  3  0  0  0  0  0  0
  188.6190  176.0280  144.7410 N   0  0  2  0  0  0  0  0  0  0  0  0
  190.6310  173.2070  142.9340 C   0  0  2  0  0  3  0  0  0  0  0  0
  188.2090  176.7590  142.3400 C   0  0  1  0  0  3  0  0  0  0  0  0
  187.6140  176.0690  143.6480 C   0  0  2  0  0  3  0  0  0  0  0  0
  192.1250  173.2530  143.2410 C   0  0  0  0  0  2  0  0  0  0  0  0
  191.3120  171.7890  140.9950 C   0  0  0  0  0  3  0  0  0  0  0  0
  190.3670  172.6460  141.5720 C   0  0  0  0  0  0  0  0  0  0  0  0
  189.1850  172.9410  140.8750 C   0  0  0  0  0  3  0  0  0  0  0  0
  187.8160  172.6770  138.9420 F   0  0  0  0  0  0  0  0  0  0  0  0
  189.9070  171.5370  139.0400 C   0  0  0  0  0  3  0  0  0  0  0  0
  188.9570  172.3880  139.6110 C   0  0  0  0  0  0  0  0  0  0  0  0
  191.0840  171.2360  139.7310 C   0  0  0  0  0  3  0  0  0  0  0  0
  187.6360  178.2910  140.4240 C   0  0  0  0  0  2  0  0  0  0  0  0
  186.6890  177.5400  139.7260 O   0  0  0  0  0  1  0  0  0  0  0  0
  187.7870  177.6210  146.4230 C   0  0  0  0  0  2  0  0  0  0  0  0
  185.6330  178.1730  147.2030 C   0  0  0  0  0  0  0  0  0  0  0  0
  186.8790  177.7720  147.6310 C   0  0  1  0  0  3  0  0  0  0  0  0
  185.9430  176.7740  147.6390 O   0  0  0  0  0  0  0  0  0  0  0  0
  184.8350  179.0410  146.7660 O   0  0  0  0  0  0  0  0  0  0  0  0
  2  8  2  0  0  0  0
  3  1  1  1  0  0  0
  4 17  1  0  0  0  0
  6 19  1  0  0  0  0
  6  2  1  1  0  0  0
  8  5  1  0  0  0  0
  8 10  1  0  0  0  0
  9  4  1  1  0  0  0
  9  6  1  0  0  0  0
 11 14  1  6  0  0  0
 11  3  1  0  0  0  0
 12 33  1  1  0  0  0
 12  5  1  0  0  0  0
 14  7  1  0  0  0  0
 14  3  1  0  0  0  0
 15 10  2  0  0  0  0
 16 31  1  6  0  0  0
 16 11  1  0  0  0  0
 16 21  1  0  0  0  0
 18 13  1  1  0  0  0
 18  2  1  0  0  0  0
 18 15  1  0  0  0  0
 19 12  1  0  0  0  0
 20  9  1  0  0  0  0
 20 23  1  0  0  0  0
 21 17  1  0  0  0  0
 21 22  1  0  0  0  0
 22  1  1  0  0  0  0
 22 19  1  0  0  0  0
 23 13  1  0  0  0  0
 24 25  1  0  0  0  0
 25 20  1  0  0  0  0
 26 25  2  0  0  0  0
 27 29  1  0  0  0  0
 28 29  2  0  0  0  0
 28 30  1  0  0  0  0
 29 26  1  0  0  0  0
 30 24  2  0  0  0  0
 32 31  1  0  0  0  0
 33 35  1  0  0  0  0
 34 35  1  0  0  0  0
 34 36  1  0  0  0  0
 35 36  1  0  0  0  0
 37 34  2  0  0  0  0
M  END
>  <MODEL>
3

>  <REMARK>
 VINA RESULT:      -7.7      3.602      8.095
  Name = 
  4 active torsions:
  status: ('A' for Active; 'I' for Inactive)
    1  A    between atoms: C_6  and  C_31
    2  A    between atoms: C_11  and  C_26
    3  A    between atoms: C_20  and  C_25
    4  A    between atoms: C_21  and  C_25
                            x       y       z     vdW  Elec       q    Type
                         _______ _______ _______ _____ _____    ______ ____

>  <TORSDO>
F 4

$$$$
=
 OpenBabel11052419543D

 37 44  0  0  1  0  0  0  0  0999 V2000
  193.0890  175.1320  141.4890 C   0  0  0  0  0  2  0  0  0  0  0  0
  191.0290  176.3580  145.8090 C   0  0  0  0  0  0  0  0  0  0  0  0
  193.3340  173.6480  141.2910 C   0  0  1  0  0  3  0  0  0  0  0  0
  188.9900  174.6830  143.8490 C   0  0  0  0  0  2  0  0  0  0  0  0
  193.4690  176.3940  145.6320 C   0  0  0  0  0  2  0  0  0  0  0  0
  190.9550  176.3420  144.3190 C   0  0  2  0  0  3  0  0  0  0  0  0
  194.3100  173.7700  139.1300 C   0  0  0  0  0  1  0  0  0  0  0  0
  192.1900  176.3570  146.3970 C   0  0  0  0  0  0  0  0  0  0  0  0
  189.5290  176.1200  143.7670 C   0  0  2  0  0  3  0  0  0  0  0  0
  192.0410  176.2700  147.8010 N   0  0  0  0  0  0  0  0  0  0  0  0
  192.2790  173.4980  140.2690 C   0  0  1  0  0  3  0  0  0  0  0  0
  193.3450  175.7190  144.2330 C   0  0  2  0  0  3  0  0  0  0  0  0
  188.8820  177.6370  146.8640 S   0  0  0  0  0  0  0  0  0  0  0  0
  193.5880  172.9000  140.0440 N   0  0  0  0  0  0  0  0  0  0  0  0
  190.8010  176.1860  148.0710 N   0  0  0  0  0  0  0  0  0  0  0  0
  191.2290  172.9210  141.1860 C   0  0  1  0  0  3  0  0  0  0  0  0
  189.9250  173.6360  143.2310 C   0  0  0  0  0  2  0  0  0  0  0  0
  189.9850  176.1950  146.8570 C   0  0  2  0  0  3  0  0  0  0  0  0
  191.9540  175.3720  143.8110 N   0  0  2  0  0  0  0  0  0  0  0  0
  188.5240  177.2110  144.1640 C   0  0  2  0  0  3  0  0  0  0  0  0
  190.6810  174.1350  141.9910 C   0  0  1  0  0  3  0  0  0  0  0  0
  191.7780  175.2370  142.3430 C   0  0  2  0  0  3  0  0  0  0  0  0
  187.8580  176.9700  145.5170 C   0  0  0  0  0  2  0  0  0  0  0  0
  187.9450  177.5610  141.7610 C   0  0  0  0  0  3  0  0  0  0  0  0
  187.5110  177.4390  143.0860 C   0  0  0  0  0  0  0  0  0  0  0  0
  186.1390  177.5090  143.3740 C   0  0  0  0  0  3  0  0  0  0  0  0
  183.8910  177.7740  142.6270 F   0  0  0  0  0  0  0  0  0  0  0  0
  185.6540  177.8310  141.0240 C   0  0  0  0  0  3  0  0  0  0  0  0
  185.2130  177.7060  142.3450 C   0  0  0  0  0  0  0  0  0  0  0  0
  187.0190  177.7580  140.7320 C   0  0  0  0  0  3  0  0  0  0  0  0
  190.1130  172.2930  140.3680 C   0  0  0  0  0  2  0  0  0  0  0  0
  189.3780  173.2870  139.7210 O   0  0  0  0  0  1  0  0  0  0  0  0
  194.1910  174.4490  144.2650 C   0  0  0  0  0  2  0  0  0  0  0  0
  193.4190  172.2850  144.7850 C   0  0  0  0  0  0  0  0  0  0  0  0
  193.7110  173.5050  145.3520 C   0  0  1  0  0  3  0  0  0  0  0  0
  194.6570  172.5440  145.5870 O   0  0  0  0  0  0  0  0  0  0  0  0
  192.6840  171.5250  144.1030 O   0  0  0  0  0  0  0  0  0  0  0  0
  1 22  1  0  0  0  0
  2  8  2  0  0  0  0
  3  1  1  6  0  0  0
  5  8  1  0  0  0  0
  6  2  1  1  0  0  0
  7 14  1  0  0  0  0
  8 10  1  0  0  0  0
  9  4  1  1  0  0  0
  9 20  1  0  0  0  0
  9  6  1  0  0  0  0
 10 15  2  0  0  0  0
 11 14  1  6  0  0  0
 11 16  1  0  0  0  0
 11  3  1  0  0  0  0
 12 33  1  1  0  0  0
 12  5  1  0  0  0  0
 14  3  1  0  0  0  0
 16 31  1  6  0  0  0
 16 21  1  0  0  0  0
 17  4  1  0  0  0  0
 18  2  1  6  0  0  0
 18 13  1  0  0  0  0
 18 15  1  0  0  0  0
 19 12  1  0  0  0  0
 19  6  1  0  0  0  0
 20 23  1  0  0  0  0
 21 22  1  0  0  0  0
 21 17  1  0  0  0  0
 22 19  1  0  0  0  0
 23 13  1  0  0  0  0
 24 25  1  0  0  0  0
 25 26  2  0  0  0  0
 25 20  1  0  0  0  0
 28 29  2  0  0  0  0
 29 27  1  0  0  0  0
 29 26  1  0  0  0  0
 30 28  1  0  0  0  0
 30 24  2  0  0  0  0
 32 31  1  0  0  0  0
 33 35  1  0  0  0  0
 34 35  1  0  0  0  0
 34 36  1  0  0  0  0
 35 36  1  0  0  0  0
 37 34  2  0  0  0  0
M  END
>  <MODEL>
4

>  <REMARK>
 VINA RESULT:      -7.6      3.037      5.614
  Name = 
  4 active torsions:
  status: ('A' for Active; 'I' for Inactive)
    1  A    between atoms: C_6  and  C_31
    2  A    between atoms: C_11  and  C_26
    3  A    between atoms: C_20  and  C_25
    4  A    between atoms: C_21  and  C_25
                            x       y       z     vdW  Elec       q    Type
                         _______ _______ _______ _____ _____    ______ ____

>  <TORSDO>
F 4

$$$$
=
 OpenBabel11052419543D

 37 44  0  0  1  0  0  0  0  0999 V2000
  188.3500  177.4850  144.8880 C   0  0  0  0  0  2  0  0  0  0  0  0
  189.6360  174.5410  141.1360 C   0  0  0  0  0  0  0  0  0  0  0  0
  187.3840  176.8740  145.8850 C   0  0  1  0  0  3  0  0  0  0  0  0
  190.8140  173.5160  144.0290 C   0  0  0  0  0  2  0  0  0  0  0  0
  187.7480  176.0640  140.8250 C   0  0  0  0  0  2  0  0  0  0  0  0
  190.0440  175.3420  142.3260 C   0  0  2  0  0  3  0  0  0  0  0  0
  187.1900  178.7460  147.3330 C   0  0  0  0  0  1  0  0  0  0  0  0
  188.5660  174.8690  140.4720 C   0  0  0  0  0  0  0  0  0  0  0  0
  191.1940  174.7110  143.1420 C   0  0  2  0  0  3  0  0  0  0  0  0
  188.3010  173.9280  139.4510 N   0  0  0  0  0  0  0  0  0  0  0  0
  188.3900  176.7670  146.9610 C   0  0  1  0  0  3  0  0  0  0  0  0
  187.8100  176.4010  142.3440 C   0  0  2  0  0  3  0  0  0  0  0  0
  191.8040  173.4480  139.9260 S   0  0  0  0  0  0  0  0  0  0  0  0
  187.0680  177.2990  147.2630 N   0  0  0  0  0  0  0  0  0  0  0  0
  189.1810  173.0110  139.5070 N   0  0  0  0  0  0  0  0  0  0  0  0
  188.6910  175.3000  146.7720 C   0  0  1  0  0  3  0  0  0  0  0  0
  189.6370  173.7950  144.9730 C   0  0  0  0  0  2  0  0  0  0  0  0
  190.1300  173.2440  140.5970 C   0  0  2  0  0  3  0  0  0  0  0  0
  188.8330  175.6420  143.1260 N   0  0  2  0  0  0  0  0  0  0  0  0
  192.5030  174.5420  142.3570 C   0  0  2  0  0  3  0  0  0  0  0  0
  189.6060  175.2330  145.5140 C   0  0  1  0  0  3  0  0  0  0  0  0
  189.2520  176.3040  144.3880 C   0  0  2  0  0  3  0  0  0  0  0  0
  192.5780  173.2440  141.5580 C   0  0  0  0  0  2  0  0  0  0  0  0
  194.7870  173.8490  143.0880 C   0  0  0  0  0  3  0  0  0  0  0  0
  193.6970  174.7130  143.2430 C   0  0  0  0  0  0  0  0  0  0  0  0
  193.7550  175.7320  144.2060 C   0  0  0  0  0  3  0  0  0  0  0  0
  194.9410  176.8630  145.9360 F   0  0  0  0  0  0  0  0  0  0  0  0
  195.9740  175.0100  144.8490 C   0  0  0  0  0  3  0  0  0  0  0  0
  194.8910  175.8790  145.0080 C   0  0  0  0  0  0  0  0  0  0  0  0
  195.9230  173.9960  143.8900 C   0  0  0  0  0  3  0  0  0  0  0  0
  189.4340  174.7620  147.9830 C   0  0  0  0  0  2  0  0  0  0  0  0
  190.7320  175.2730  148.0130 O   0  0  0  0  0  1  0  0  0  0  0  0
  186.4270  176.1280  142.9280 C   0  0  0  0  0  2  0  0  0  0  0  0
  185.0670  177.9570  143.5230 C   0  0  0  0  0  0  0  0  0  0  0  0
  185.4250  177.1660  142.4550 C   0  0  1  0  0  3  0  0  0  0  0  0
  186.0060  178.4050  142.4460 O   0  0  0  0  0  0  0  0  0  0  0  0
  184.4410  178.1570  144.5960 O   0  0  0  0  0  0  0  0  0  0  0  0
  3  1  1  6  0  0  0
  3 11  1  0  0  0  0
  3 14  1  0  0  0  0
  4 17  1  0  0  0  0
  5 12  1  0  0  0  0
  6  2  1  6  0  0  0
  6 19  1  0  0  0  0
  6  9  1  0  0  0  0
  8  5  1  0  0  0  0
  8  2  2  0  0  0  0
  9  4  1  6  0  0  0
 10 15  2  0  0  0  0
 10  8  1  0  0  0  0
 11 14  1  1  0  0  0
 12 33  1  1  0  0  0
 12 19  1  0  0  0  0
 13 18  1  0  0  0  0
 13 23  1  0  0  0  0
 14  7  1  0  0  0  0
 16 11  1  0  0  0  0
 16 31  1  1  0  0  0
 17 21  1  0  0  0  0
 18 15  1  6  0  0  0
 18  2  1  0  0  0  0
 19 22  1  0  0  0  0
 20  9  1  0  0  0  0
 20 25  1  0  0  0  0
 21 16  1  0  0  0  0
 22  1  1  0  0  0  0
 22 21  1  0  0  0  0
 23 20  1  0  0  0  0
 24 25  2  0  0  0  0
 24 30  1  0  0  0  0
 25 26  1  0  0  0  0
 26 29  2  0  0  0  0
 28 29  1  0  0  0  0
 29 27  1  0  0  0  0
 30 28  2  0  0  0  0
 31 32  1  0  0  0  0
 34 37  2  0  0  0  0
 35 33  1  0  0  0  0
 35 34  1  0  0  0  0
 36 35  1  0  0  0  0
 36 34  1  0  0  0  0
M  END
>  <MODEL>
5

>  <REMARK>
 VINA RESULT:      -7.5      3.422      6.710
  Name = 
  4 active torsions:
  status: ('A' for Active; 'I' for Inactive)
    1  A    between atoms: C_6  and  C_31
    2  A    between atoms: C_11  and  C_26
    3  A    between atoms: C_20  and  C_25
    4  A    between atoms: C_21  and  C_25
                            x       y       z     vdW  Elec       q    Type
                         _______ _______ _______ _____ _____    ______ ____

>  <TORSDO>
F 4

$$$$
=
 OpenBabel11052419543D

 37 44  0  0  1  0  0  0  0  0999 V2000
  194.7240  173.0390  144.7260 C   0  0  0  0  0  2  0  0  0  0  0  0
  191.1730  173.0760  141.2920 C   0  0  0  0  0  0  0  0  0  0  0  0
  195.9400  173.8870  144.4040 C   0  0  1  0  0  3  0  0  0  0  0  0
  191.5100  175.9690  142.8150 C   0  0  0  0  0  2  0  0  0  0  0  0
  192.8610  171.3070  141.2010 C   0  0  0  0  0  2  0  0  0  0  0  0
  191.5940  173.3600  142.6940 C   0  0  2  0  0  3  0  0  0  0  0  0
  197.1890  173.4140  146.3670 C   0  0  0  0  0  1  0  0  0  0  0  0
  191.7800  172.1480  140.6110 C   0  0  0  0  0  0  0  0  0  0  0  0
  190.9440  174.6250  143.2980 C   0  0  2  0  0  3  0  0  0  0  0  0
  191.3030  172.1080  139.2800 N   0  0  0  0  0  0  0  0  0  0  0  0
  195.6390  174.9040  145.4320 C   0  0  1  0  0  3  0  0  0  0  0  0
  193.6580  172.0560  142.3100 C   0  0  2  0  0  3  0  0  0  0  0  0
  188.5370  173.6210  140.9510 S   0  0  0  0  0  0  0  0  0  0  0  0
  196.9960  174.3880  145.3050 N   0  0  0  0  0  0  0  0  0  0  0  0
  190.4330  173.0250  139.1350 N   0  0  0  0  0  0  0  0  0  0  0  0
  195.0280  175.9190  144.4990 C   0  0  1  0  0  3  0  0  0  0  0  0
  193.0330  176.0850  142.9520 C   0  0  0  0  0  2  0  0  0  0  0  0
  190.2490  173.7900  140.3680 C   0  0  2  0  0  3  0  0  0  0  0  0
  193.0750  173.3600  142.7470 N   0  0  2  0  0  0  0  0  0  0  0  0
  189.4130  174.5630  143.3890 C   0  0  2  0  0  3  0  0  0  0  0  0
  193.5970  175.3830  144.1970 C   0  0  1  0  0  3  0  0  0  0  0  0
  193.4990  173.7950  144.1030 C   0  0  2  0  0  3  0  0  0  0  0  0
  188.7030  175.0090  142.1130 C   0  0  0  0  0  2  0  0  0  0  0  0
  189.3110  174.8900  145.8620 C   0  0  0  0  0  3  0  0  0  0  0  0
  188.9060  175.3030  144.5870 C   0  0  0  0  0  0  0  0  0  0  0  0
  188.0560  176.4120  144.4570 C   0  0  0  0  0  3  0  0  0  0  0  0
  186.7920  178.1640  145.4640 F   0  0  0  0  0  0  0  0  0  0  0  0
  188.0180  176.6750  146.8630 C   0  0  0  0  0  3  0  0  0  0  0  0
  187.6120  177.0950  145.5940 C   0  0  0  0  0  0  0  0  0  0  0  0
  188.8680  175.5740  146.9980 C   0  0  0  0  0  3  0  0  0  0  0  0
  194.9400  177.2710  145.1860 C   0  0  0  0  0  2  0  0  0  0  0  0
  194.5570  177.1060  146.5180 O   0  0  0  0  0  1  0  0  0  0  0  0
  195.0680  172.2900  141.7760 C   0  0  0  0  0  2  0  0  0  0  0  0
  196.3970  173.9330  140.7330 C   0  0  0  0  0  0  0  0  0  0  0  0
  195.1000  173.4810  140.8340 C   0  0  1  0  0  3  0  0  0  0  0  0
  195.7180  173.1340  139.6630 O   0  0  0  0  0  0  0  0  0  0  0  0
  197.4000  174.5400  141.1880 O   0  0  0  0  0  0  0  0  0  0  0  0
  3  1  1  1  0  0  0
  3 14  1  0  0  0  0
  3 11  1  0  0  0  0
  4 17  1  0  0  0  0
  5 12  1  0  0  0  0
  6  2  1  6  0  0  0
  6 19  1  0  0  0  0
  6  9  1  0  0  0  0
  8  5  1  0  0  0  0
  8  2  2  0  0  0  0
  9  4  1  6  0  0  0
  9 20  1  0  0  0  0
 10  8  1  0  0  0  0
 11 14  1  6  0  0  0
 12 33  1  6  0  0  0
 12 19  1  0  0  0  0
 13 23  1  0  0  0  0
 14  7  1  0  0  0  0
 15 10  2  0  0  0  0
 16 31  1  1  0  0  0
 16 11  1  0  0  0  0
 17 21  1  0  0  0  0
 18 15  1  6  0  0  0
 18 13  1  0  0  0  0
 18  2  1  0  0  0  0
 19 22  1  0  0  0  0
 20 25  1  0  0  0  0
 21 16  1  0  0  0  0
 22 21  1  0  0  0  0
 22  1  1  0  0  0  0
 23 20  1  0  0  0  0
 24 30  1  0  0  0  0
 25 24  2  0  0  0  0
 26 25  1  0  0  0  0
 26 29  2  0  0  0  0
 27 29  1  0  0  0  0
 28 30  2  0  0  0  0
 29 28  1  0  0  0  0
 31 32  1  0  0  0  0
 34 35  1  0  0  0  0
 34 37  2  0  0  0  0
 35 33  1  0  0  0  0
 36 34  1  0  0  0  0
 36 35  1  0  0  0  0
M  END
>  <MODEL>
6

>  <REMARK>
 VINA RESULT:      -7.2      2.925      4.423
  Name = 
  4 active torsions:
  status: ('A' for Active; 'I' for Inactive)
    1  A    between atoms: C_6  and  C_31
    2  A    between atoms: C_11  and  C_26
    3  A    between atoms: C_20  and  C_25
    4  A    between atoms: C_21  and  C_25
                            x       y       z     vdW  Elec       q    Type
                         _______ _______ _______ _____ _____    ______ ____

>  <TORSDO>
F 4

$$$$
=
 OpenBabel11052419543D

 37 44  0  0  1  0  0  0  0  0999 V2000
  194.2520  175.0280  144.3090 C   0  0  0  0  0  2  0  0  0  0  0  0
  189.4990  175.9920  143.3690 C   0  0  0  0  0  0  0  0  0  0  0  0
  194.5080  174.2080  145.5590 C   0  0  1  0  0  3  0  0  0  0  0  0
  190.2520  172.8100  143.0260 C   0  0  0  0  0  2  0  0  0  0  0  0
  190.7880  177.6330  144.6460 C   0  0  0  0  0  2  0  0  0  0  0  0
  190.7830  175.3680  142.9380 C   0  0  2  0  0  3  0  0  0  0  0  0
  196.8780  174.1420  145.4200 C   0  0  0  0  0  1  0  0  0  0  0  0
  189.5160  177.0150  144.1730 C   0  0  0  0  0  0  0  0  0  0  0  0
  190.6070  174.0370  142.1720 C   0  0  2  0  0  3  0  0  0  0  0  0
  188.2020  177.3880  144.5380 N   0  0  0  0  0  0  0  0  0  0  0  0
  194.9210  173.0010  144.8150 C   0  0  1  0  0  3  0  0  0  0  0  0
  191.9540  176.6030  144.7310 C   0  0  2  0  0  3  0  0  0  0  0  0
  187.5980  175.6940  141.4570 S   0  0  0  0  0  0  0  0  0  0  0  0
  195.7140  173.4520  145.9510 N   0  0  0  0  0  0  0  0  0  0  0  0
  187.3850  176.5820  143.9900 N   0  0  0  0  0  0  0  0  0  0  0  0
  193.6090  172.2660  144.9350 C   0  0  1  0  0  3  0  0  0  0  0  0
  191.2090  172.5780  144.2020 C   0  0  0  0  0  2  0  0  0  0  0  0
  188.0830  175.5650  143.2010 C   0  0  2  0  0  3  0  0  0  0  0  0
  191.6750  175.2690  144.1180 N   0  0  2  0  0  0  0  0  0  0  0  0
  189.8130  174.1660  140.8640 C   0  0  2  0  0  3  0  0  0  0  0  0
  192.6690  172.9390  143.8930 C   0  0  1  0  0  3  0  0  0  0  0  0
  192.8910  174.5090  143.7290 C   0  0  2  0  0  3  0  0  0  0  0  0
  188.3010  174.0680  141.0490 C   0  0  0  0  0  2  0  0  0  0  0  0
  191.5650  173.3990  139.2590 C   0  0  0  0  0  3  0  0  0  0  0  0
  190.3040  173.2000  139.8310 C   0  0  0  0  0  0  0  0  0  0  0  0
  189.5370  172.0900  139.4440 C   0  0  0  0  0  3  0  0  0  0  0  0
  189.2840  170.1250  138.1180 F   0  0  0  0  0  0  0  0  0  0  0  0
  191.2870  171.4020  137.9200 C   0  0  0  0  0  3  0  0  0  0  0  0
  190.0280  171.1940  138.4890 C   0  0  0  0  0  0  0  0  0  0  0  0
  192.0560  172.5040  138.3040 C   0  0  0  0  0  3  0  0  0  0  0  0
  193.8020  170.7990  144.5890 C   0  0  0  0  0  2  0  0  0  0  0  0
  194.5500  170.1680  145.5840 O   0  0  0  0  0  1  0  0  0  0  0  0
  192.2900  176.4170  146.2070 C   0  0  0  0  0  2  0  0  0  0  0  0
  190.4090  175.4820  147.2760 C   0  0  0  0  0  0  0  0  0  0  0  0
  191.0720  176.6720  147.0770 C   0  0  1  0  0  3  0  0  0  0  0  0
  191.2640  176.1320  148.3190 O   0  0  0  0  0  0  0  0  0  0  0  0
  189.6650  174.5470  146.8840 O   0  0  0  0  0  0  0  0  0  0  0  0
  2  8  2  0  0  0  0
  3  1  1  6  0  0  0
  3 14  1  0  0  0  0
  4 17  1  0  0  0  0
  5 12  1  0  0  0  0
  6  2  1  1  0  0  0
  6 19  1  0  0  0  0
  7 14  1  0  0  0  0
  8 10  1  0  0  0  0
  8  5  1  0  0  0  0
  9  6  1  0  0  0  0
  9  4  1  1  0  0  0
 11 16  1  0  0  0  0
 11  3  1  0  0  0  0
 11 14  1  1  0  0  0
 12 33  1  1  0  0  0
 15 10  2  0  0  0  0
 16 31  1  6  0  0  0
 18 13  1  6  0  0  0
 18  2  1  0  0  0  0
 18 15  1  0  0  0  0
 19 12  1  0  0  0  0
 20 23  1  0  0  0  0
 20  9  1  0  0  0  0
 21 17  1  0  0  0  0
 21 16  1  0  0  0  0
 22 21  1  0  0  0  0
 22 19  1  0  0  0  0
 22  1  1  0  0  0  0
 23 13  1  0  0  0  0
 24 25  1  0  0  0  0
 25 20  1  0  0  0  0
 26 25  2  0  0  0  0
 27 29  1  0  0  0  0
 28 30  1  0  0  0  0
 28 29  2  0  0  0  0
 29 26  1  0  0  0  0
 30 24  2  0  0  0  0
 31 32  1  0  0  0  0
 33 35  1  0  0  0  0
 34 36  1  0  0  0  0
 35 34  1  0  0  0  0
 35 36  1  0  0  0  0
 37 34  2  0  0  0  0
M  END
>  <MODEL>
7

>  <REMARK>
 VINA RESULT:      -7.0      3.664      6.808
  Name = 
  4 active torsions:
  status: ('A' for Active; 'I' for Inactive)
    1  A    between atoms: C_6  and  C_31
    2  A    between atoms: C_11  and  C_26
    3  A    between atoms: C_20  and  C_25
    4  A    between atoms: C_21  and  C_25
                            x       y       z     vdW  Elec       q    Type
                         _______ _______ _______ _____ _____    ______ ____

>  <TORSDO>
F 4

$$$$
=
 OpenBabel11052419543D

 37 44  0  0  1  0  0  0  0  0999 V2000
  191.7240  173.9580  139.7990 C   0  0  0  0  0  2  0  0  0  0  0  0
  194.6500  175.9670  143.2350 C   0  0  0  0  0  0  0  0  0  0  0  0
  191.9650  172.4850  139.5280 C   0  0  1  0  0  3  0  0  0  0  0  0
  192.5320  173.7800  144.4760 C   0  0  0  0  0  2  0  0  0  0  0  0
  195.3360  176.1150  140.8910 C   0  0  0  0  0  2  0  0  0  0  0  0
  193.2740  175.6210  142.7750 C   0  0  2  0  0  3  0  0  0  0  0  0
  190.3150  172.1940  137.8450 C   0  0  0  0  0  1  0  0  0  0  0  0
  195.5920  176.1660  142.3600 C   0  0  0  0  0  0  0  0  0  0  0  0
  192.3220  175.1950  143.9160 C   0  0  2  0  0  3  0  0  0  0  0  0
  196.8350  176.3790  142.9990 N   0  0  0  0  0  0  0  0  0  0  0  0
  190.7000  172.0510  140.1530 C   0  0  1  0  0  3  0  0  0  0  0  0
  194.1750  175.1450  140.5230 C   0  0  2  0  0  3  0  0  0  0  0  0
  194.5660  177.3070  145.5920 S   0  0  0  0  0  0  0  0  0  0  0  0
  191.0900  171.5010  138.8610 N   0  0  0  0  0  0  0  0  0  0  0  0
  196.6650  176.2780  144.2560 N   0  0  0  0  0  0  0  0  0  0  0  0
  191.2960  171.6220  141.4710 C   0  0  1  0  0  3  0  0  0  0  0  0
  192.5360  172.6840  143.4030 C   0  0  0  0  0  2  0  0  0  0  0  0
  195.2730  175.9710  144.5870 C   0  0  2  0  0  3  0  0  0  0  0  0
  193.3820  174.6280  141.6800 N   0  0  2  0  0  0  0  0  0  0  0  0
  192.0840  176.2810  144.9750 C   0  0  2  0  0  3  0  0  0  0  0  0
  191.5610  172.9460  142.2470 C   0  0  1  0  0  3  0  0  0  0  0  0
  192.0160  174.1650  141.3250 C   0  0  2  0  0  3  0  0  0  0  0  0
  193.1340  176.3000  146.0820 C   0  0  0  0  0  2  0  0  0  0  0  0
  189.7210  177.0820  145.0480 C   0  0  0  0  0  3  0  0  0  0  0  0
  190.6980  176.2050  145.5330 C   0  0  0  0  0  0  0  0  0  0  0  0
  190.3540  175.2600  146.5120 C   0  0  0  0  0  3  0  0  0  0  0  0
  188.7190  174.2870  147.9480 F   0  0  0  0  0  0  0  0  0  0  0  0
  188.0770  176.0810  146.5170 C   0  0  0  0  0  3  0  0  0  0  0  0
  189.0460  175.2000  147.0030 C   0  0  0  0  0  0  0  0  0  0  0  0
  188.4130  177.0220  145.5390 C   0  0  0  0  0  3  0  0  0  0  0  0
  190.3040  170.7630  142.2360 C   0  0  0  0  0  2  0  0  0  0  0  0
  189.3380  171.5700  142.8380 O   0  0  0  0  0  1  0  0  0  0  0  0
  194.7870  173.9690  139.7690 C   0  0  0  0  0  2  0  0  0  0  0  0
  195.4610  171.8900  140.6500 C   0  0  0  0  0  0  0  0  0  0  0  0
  195.7860  173.2270  140.6390 C   0  0  1  0  0  3  0  0  0  0  0  0
  196.6010  172.4530  139.8580 O   0  0  0  0  0  0  0  0  0  0  0  0
  194.7470  170.9240  141.0230 O   0  0  0  0  0  0  0  0  0  0  0  0
  1 22  1  0  0  0  0
  3  1  1  6  0  0  0
  3 11  1  0  0  0  0
  5  8  1  0  0  0  0
  6  2  1  1  0  0  0
  6  9  1  0  0  0  0
  7 14  1  0  0  0  0
  8 10  1  0  0  0  0
  8  2  2  0  0  0  0
  9  4  1  1  0  0  0
  9 20  1  0  0  0  0
 10 15  2  0  0  0  0
 11 14  1  6  0  0  0
 11 16  1  0  0  0  0
 12 33  1  1  0  0  0
 12  5  1  0  0  0  0
 12 19  1  0  0  0  0
 13 23  1  0  0  0  0
 14  3  1  0  0  0  0
 15 18  1  0  0  0  0
 16 31  1  1  0  0  0
 16 21  1  0  0  0  0
 17  4  1  0  0  0  0
 18  2  1  6  0  0  0
 18 13  1  0  0  0  0
 19  6  1  0  0  0  0
 20 25  1  0  0  0  0
 20 23  1  0  0  0  0
 21 17  1  0  0  0  0
 22 19  1  0  0  0  0
 22 21  1  0  0  0  0
 24 25  2  0  0  0  0
 24 30  1  0  0  0  0
 25 26  1  0  0  0  0
 26 29  2  0  0  0  0
 28 29  1  0  0  0  0
 29 27  1  0  0  0  0
 30 28  2  0  0  0  0
 31 32  1  0  0  0  0
 33 35  1  0  0  0  0
 34 37  2  0  0  0  0
 35 34  1  0  0  0  0
 36 35  1  0  0  0  0
 36 34  1  0  0  0  0
M  END
>  <MODEL>
8

>  <REMARK>
 VINA RESULT:      -6.7      3.706      6.131
  Name = 
  4 active torsions:
  status: ('A' for Active; 'I' for Inactive)
    1  A    between atoms: C_6  and  C_31
    2  A    between atoms: C_11  and  C_26
    3  A    between atoms: C_20  and  C_25
    4  A    between atoms: C_21  and  C_25
                            x       y       z     vdW  Elec       q    Type
                         _______ _______ _______ _____ _____    ______ ____

>  <TORSDO>
F 4

$$$$
=
 OpenBabel11052419543D

 37 44  0  0  1  0  0  0  0  0999 V2000
  192.1220  174.1660  140.1150 C   0  0  0  0  0  2  0  0  0  0  0  0
  194.1960  175.2620  144.4630 C   0  0  0  0  0  0  0  0  0  0  0  0
  191.8990  172.6870  139.8620 C   0  0  1  0  0  3  0  0  0  0  0  0
  191.1490  174.0660  144.7630 C   0  0  0  0  0  2  0  0  0  0  0  0
  195.6530  174.9810  142.5170 C   0  0  0  0  0  2  0  0  0  0  0  0
  193.0370  175.3910  143.5340 C   0  0  2  0  0  3  0  0  0  0  0  0
  190.9430  172.8730  137.6970 C   0  0  0  0  0  1  0  0  0  0  0  0
  195.3870  175.0480  143.9830 C   0  0  0  0  0  0  0  0  0  0  0  0
  191.6650  175.4170  144.2460 C   0  0  2  0  0  3  0  0  0  0  0  0
  196.3210  174.8550  145.0270 N   0  0  0  0  0  0  0  0  0  0  0  0
  190.4300  172.7770  139.9820 C   0  0  1  0  0  3  0  0  0  0  0  0
  194.4240  174.4600  141.7140 C   0  0  2  0  0  3  0  0  0  0  0  0
  193.7900  176.7180  146.7150 S   0  0  0  0  0  0  0  0  0  0  0  0
  191.0170  172.0290  138.8780 N   0  0  0  0  0  0  0  0  0  0  0  0
  195.7050  174.9150  146.1380 N   0  0  0  0  0  0  0  0  0  0  0  0
  190.3400  172.2660  141.3990 C   0  0  1  0  0  3  0  0  0  0  0  0
  191.1300  172.9620  143.6990 C   0  0  0  0  0  2  0  0  0  0  0  0
  194.2730  175.1460  145.9450 C   0  0  2  0  0  3  0  0  0  0  0  0
  193.1530  174.3450  142.4900 N   0  0  2  0  0  0  0  0  0  0  0  0
  191.4820  176.5930  145.2160 C   0  0  2  0  0  3  0  0  0  0  0  0
  190.7760  173.4650  142.2920 C   0  0  1  0  0  3  0  0  0  0  0  0
  191.9240  174.3710  141.6570 C   0  0  2  0  0  3  0  0  0  0  0  0
  192.0180  176.3230  146.6190 C   0  0  0  0  0  2  0  0  0  0  0  0
  189.3870  177.0940  146.4790 C   0  0  0  0  0  3  0  0  0  0  0  0
  190.0580  177.0550  145.2510 C   0  0  0  0  0  0  0  0  0  0  0  0
  189.3940  177.4710  144.0870 C   0  0  0  0  0  3  0  0  0  0  0  0
  187.4340  178.3150  143.0270 F   0  0  0  0  0  0  0  0  0  0  0  0
  187.4050  177.9480  145.3810 C   0  0  0  0  0  3  0  0  0  0  0  0
  188.0700  177.9150  144.1520 C   0  0  0  0  0  0  0  0  0  0  0  0
  188.0630  177.5380  146.5450 C   0  0  0  0  0  3  0  0  0  0  0  0
  188.9080  171.8730  141.7210 C   0  0  0  0  0  2  0  0  0  0  0  0
  188.1090  173.0140  141.8080 O   0  0  0  0  0  1  0  0  0  0  0  0
  194.7950  173.0900  141.1540 C   0  0  0  0  0  2  0  0  0  0  0  0
  194.5450  170.8000  141.6490 C   0  0  0  0  0  0  0  0  0  0  0  0
  194.7400  172.0280  142.2390 C   0  0  1  0  0  3  0  0  0  0  0  0
  195.8660  171.2520  142.1890 O   0  0  0  0  0  0  0  0  0  0  0  0
  193.8200  169.9450  141.0780 O   0  0  0  0  0  0  0  0  0  0  0  0
  1 22  1  0  0  0  0
  3 11  1  0  0  0  0
  3  1  1  6  0  0  0
  5  8  1  0  0  0  0
  6  9  1  0  0  0  0
  6  2  1  1  0  0  0
  7 14  1  0  0  0  0
  8  2  2  0  0  0  0
  8 10  1  0  0  0  0
  9  4  1  1  0  0  0
  9 20  1  0  0  0  0
 10 15  2  0  0  0  0
 11 14  1  6  0  0  0
 11 16  1  0  0  0  0
 12 33  1  1  0  0  0
 12 19  1  0  0  0  0
 12  5  1  0  0  0  0
 14  3  1  0  0  0  0
 16 31  1  1  0  0  0
 16 21  1  0  0  0  0
 17  4  1  0  0  0  0
 18  2  1  6  0  0  0
 18 15  1  0  0  0  0
 18 13  1  0  0  0  0
 19  6  1  0  0  0  0
 20 25  1  0  0  0  0
 20 23  1  0  0  0  0
 21 17  1  0  0  0  0
 22 21  1  0  0  0  0
 22 19  1  0  0  0  0
 23 13  1  0  0  0  0
 24 30  1  0  0  0  0
 25 24  2  0  0  0  0
 26 29  2  0  0  0  0
 26 25  1  0  0  0  0
 27 29  1  0  0  0  0
 28 30  2  0  0  0  0
 29 28  1  0  0  0  0
 31 32  1  0  0  0  0
 33 35  1  0  0  0  0
 34 36  1  0  0  0  0
 34 35  1  0  0  0  0
 36 35  1  0  0  0  0
 37 34  2  0  0  0  0
M  END
>  <MODEL>
9

>  <REMARK>
 VINA RESULT:      -6.6      3.394      6.093
  Name = 
  4 active torsions:
  status: ('A' for Active; 'I' for Inactive)
    1  A    between atoms: C_6  and  C_31
    2  A    between atoms: C_11  and  C_26
    3  A    between atoms: C_20  and  C_25
    4  A    between atoms: C_21  and  C_25
                            x       y       z     vdW  Elec       q    Type
                         _______ _______ _______ _____ _____    ______ ____

>  <TORSDO>
F 4

$$$$
