=
 OpenBabel11052418073D

 28 33  0  0  1  0  0  0  0  0999 V2000
  186.5120  177.0690  144.3620 C   0  0  0  0  0  0  0  0  0  0  0  0
  186.2570  176.7720  145.8260 C   0  0  1  0  0  3  0  0  0  0  0  0
  188.8040  176.5620  146.0150 C   0  0  2  0  0  3  0  0  0  0  0  0
  192.2900  175.7750  144.1690 C   0  0  0  0  0  3  0  0  0  0  0  0
  186.9970  177.8600  140.2290 N   0  0  0  0  0  1  0  0  0  0  0  0
  186.3430  178.8110  146.9860 C   0  0  1  0  0  3  0  0  0  0  0  0
  187.4900  176.8780  146.7280 C   0  0  1  0  0  3  0  0  0  0  0  0
  184.4690  177.1620  147.4680 C   0  0  0  0  0  1  0  0  0  0  0  0
  192.3360  176.3340  147.1730 C   0  0  0  0  0  3  0  0  0  0  0  0
  190.3890  177.3620  144.1200 C   0  0  2  0  0  3  0  0  0  0  0  0
  185.3470  177.8170  146.4060 C   0  0  2  0  0  3  0  0  0  0  0  0
  194.1860  175.5140  145.7140 C   0  0  0  0  0  0  0  0  0  0  0  0
  191.3770  176.4730  144.8600 C   0  0  0  0  0  0  0  0  0  0  0  0
  189.9670  176.7090  146.9940 C   0  0  0  0  0  2  0  0  0  0  0  0
  193.7520  176.1450  146.8040 C   0  0  0  0  0  3  0  0  0  0  0  0
  187.9550  177.6570  142.4860 C   0  0  0  0  0  0  0  0  0  0  0  0
  188.9870  177.4820  144.8030 C   0  0  1  0  0  3  0  0  0  0  0  0
  191.2820  176.4170  146.3470 C   0  0  0  0  0  0  0  0  0  0  0  0
  185.5950  177.2530  142.1210 C   0  0  0  0  0  3  0  0  0  0  0  0
  189.3090  178.0010  141.9510 C   0  0  0  0  0  2  0  0  0  0  0  0
  186.8500  177.5940  141.6210 C   0  0  0  0  0  0  0  0  0  0  0  0
  185.8030  179.6510  148.1350 C   0  0  0  0  0  1  0  0  0  0  0  0
  195.5500  175.4590  145.4620 O   0  0  0  0  0  1  0  0  0  0  0  0
  193.2510  174.8170  144.7860 C   0  0  0  0  0  2  0  0  0  0  0  0
  190.3360  177.0990  142.6060 C   0  0  0  0  0  2  0  0  0  0  0  0
  185.4280  176.9900  143.4790 C   0  0  0  0  0  3  0  0  0  0  0  0
  187.7960  177.3870  143.8630 C   0  0  0  0  0  0  0  0  0  0  0  0
  187.5200  178.1410  147.3600 O   0  0  0  0  0  0  0  0  0  0  0  0
  2  1  1  6  0  0  0
  2 11  1  0  0  0  0
  2  7  1  0  0  0  0
  3  7  1  0  0  0  0
  3 14  1  1  0  0  0
  4 24  1  0  0  0  0
  4 13  2  0  0  0  0
  5 21  1  0  0  0  0
  6 28  1  0  0  0  0
  6 22  1  1  0  0  0
  7 28  1  6  0  0  0
 10 25  1  6  0  0  0
 10 17  1  0  0  0  0
 10 13  1  0  0  0  0
 11  6  1  0  0  0  0
 11  8  1  1  0  0  0
 12 15  2  0  0  0  0
 13 18  1  0  0  0  0
 15  9  1  0  0  0  0
 16 27  2  0  0  0  0
 17 27  1  6  0  0  0
 17  3  1  0  0  0  0
 18 14  1  0  0  0  0
 18  9  2  0  0  0  0
 19 26  1  0  0  0  0
 20 16  1  0  0  0  0
 20 25  1  0  0  0  0
 21 19  2  0  0  0  0
 21 16  1  0  0  0  0
 23 12  1  0  0  0  0
 24 12  1  0  0  0  0
 26  1  2  0  0  0  0
 27  1  1  0  0  0  0
M  END
>  <MODEL>
1

>  <REMARK>
 VINA RESULT:      -8.9      0.000      0.000
  Name = 
  0 active torsions:
  status: ('A' for Active; 'I' for Inactive)
                            x       y       z     vdW  Elec       q    Type
                         _______ _______ _______ _____ _____    ______ ____

>  <TORSDO>
F 0

$$$$
=
 OpenBabel11052418073D

 28 33  0  0  1  0  0  0  0  0999 V2000
  191.6990  175.6890  143.5420 C   0  0  0  0  0  0  0  0  0  0  0  0
  191.8300  176.6250  144.7260 C   0  0  1  0  0  3  0  0  0  0  0  0
  189.3400  177.1100  144.3570 C   0  0  2  0  0  3  0  0  0  0  0  0
  186.2480  177.2090  141.7870 C   0  0  0  0  0  3  0  0  0  0  0  0
  191.5670  173.0700  140.2150 N   0  0  0  0  0  1  0  0  0  0  0  0
  191.3010  175.3990  146.6570 C   0  0  1  0  0  3  0  0  0  0  0  0
  190.5020  177.0630  145.3500 C   0  0  1  0  0  3  0  0  0  0  0  0
  193.3400  176.9170  146.6450 C   0  0  0  0  0  1  0  0  0  0  0  0
  185.7790  178.1530  144.6550 C   0  0  0  0  0  3  0  0  0  0  0  0
  187.8750  175.6390  142.7980 C   0  0  2  0  0  3  0  0  0  0  0  0
  192.4970  175.9110  145.8660 C   0  0  2  0  0  3  0  0  0  0  0  0
  184.2530  178.3300  142.6890 C   0  0  0  0  0  0  0  0  0  0  0  0
  186.9590  176.8510  142.8660 C   0  0  0  0  0  0  0  0  0  0  0  0
  188.0670  177.5430  145.0780 C   0  0  0  0  0  2  0  0  0  0  0  0
  184.4590  178.2590  144.0030 C   0  0  0  0  0  3  0  0  0  0  0  0
  190.4030  174.4020  141.9260 C   0  0  0  0  0  0  0  0  0  0  0  0
  189.1560  175.7420  143.6890 C   0  0  1  0  0  3  0  0  0  0  0  0
  186.8930  177.5990  144.1540 C   0  0  0  0  0  0  0  0  0  0  0  0
  192.8230  174.3860  141.8280 C   0  0  0  0  0  3  0  0  0  0  0  0
  189.0810  173.9580  141.3840 C   0  0  0  0  0  2  0  0  0  0  0  0
  191.5950  173.9540  141.3330 C   0  0  0  0  0  0  0  0  0  0  0  0
  191.5720  175.1650  148.1360 C   0  0  0  0  0  1  0  0  0  0  0  0
  182.9510  178.3710  142.2100 O   0  0  0  0  0  1  0  0  0  0  0  0
  185.3830  178.4210  141.7210 C   0  0  0  0  0  2  0  0  0  0  0  0
  188.1380  175.1450  141.3660 C   0  0  0  0  0  2  0  0  0  0  0  0
  192.8740  175.2490  142.9210 C   0  0  0  0  0  3  0  0  0  0  0  0
  190.4460  175.2790  143.0310 C   0  0  0  0  0  0  0  0  0  0  0  0
  190.2060  176.2610  146.4730 O   0  0  0  0  0  0  0  0  0  0  0  0
  2  1  1  6  0  0  0
  2  7  1  0  0  0  0
  2 11  1  0  0  0  0
  3 14  1  1  0  0  0
  3  7  1  0  0  0  0
  4 13  2  0  0  0  0
  5 21  1  0  0  0  0
  6 22  1  1  0  0  0
  7 28  1  1  0  0  0
 10 25  1  6  0  0  0
 10 13  1  0  0  0  0
 10 17  1  0  0  0  0
 11  8  1  1  0  0  0
 11  6  1  0  0  0  0
 12 15  2  0  0  0  0
 13 18  1  0  0  0  0
 15  9  1  0  0  0  0
 16 27  2  0  0  0  0
 17 27  1  6  0  0  0
 17  3  1  0  0  0  0
 18  9  2  0  0  0  0
 18 14  1  0  0  0  0
 19 26  1  0  0  0  0
 20 16  1  0  0  0  0
 21 19  2  0  0  0  0
 21 16  1  0  0  0  0
 23 12  1  0  0  0  0
 24  4  1  0  0  0  0
 24 12  1  0  0  0  0
 25 20  1  0  0  0  0
 26  1  2  0  0  0  0
 27  1  1  0  0  0  0
 28  6  1  0  0  0  0
M  END
>  <MODEL>
2

>  <REMARK>
 VINA RESULT:      -8.8      2.588      6.581
  Name = 
  0 active torsions:
  status: ('A' for Active; 'I' for Inactive)
                            x       y       z     vdW  Elec       q    Type
                         _______ _______ _______ _____ _____    ______ ____

>  <TORSDO>
F 0

$$$$
=
 OpenBabel11052418073D

 28 33  0  0  1  0  0  0  0  0999 V2000
  188.7130  176.3430  145.5950 C   0  0  0  0  0  0  0  0  0  0  0  0
  189.7200  175.3710  146.1740 C   0  0  1  0  0  3  0  0  0  0  0  0
  189.9400  174.4880  143.7780 C   0  0  2  0  0  3  0  0  0  0  0  0
  188.2350  174.0220  140.1640 C   0  0  0  0  0  3  0  0  0  0  0  0
  185.8250  179.1070  144.1920 N   0  0  0  0  0  1  0  0  0  0  0  0
  191.8410  176.3610  146.0000 C   0  0  1  0  0  3  0  0  0  0  0  0
  190.6070  174.6710  145.1410 C   0  0  1  0  0  3  0  0  0  0  0  0
  191.1540  175.2220  148.1660 C   0  0  0  0  0  1  0  0  0  0  0  0
  191.0120  172.8300  140.6210 C   0  0  0  0  0  3  0  0  0  0  0  0
  188.9650  175.7810  141.7480 C   0  0  2  0  0  3  0  0  0  0  0  0
  190.7250  176.1150  147.0050 C   0  0  2  0  0  3  0  0  0  0  0  0
  189.4850  172.5180  138.6730 C   0  0  0  0  0  0  0  0  0  0  0  0
  189.1320  174.4270  141.0750 C   0  0  0  0  0  0  0  0  0  0  0  0
  190.9070  173.7970  142.8210 C   0  0  0  0  0  2  0  0  0  0  0  0
  190.7050  172.5390  139.2070 C   0  0  0  0  0  3  0  0  0  0  0  0
  187.6220  177.4880  143.7380 C   0  0  0  0  0  0  0  0  0  0  0  0
  189.4890  175.8430  143.2200 C   0  0  1  0  0  3  0  0  0  0  0  0
  190.3080  173.5980  141.4670 C   0  0  0  0  0  0  0  0  0  0  0  0
  186.9200  177.9270  146.0150 C   0  0  0  0  0  3  0  0  0  0  0  0
  187.4800  177.7310  142.2690 C   0  0  0  0  0  2  0  0  0  0  0  0
  186.7990  178.1720  144.6480 C   0  0  0  0  0  0  0  0  0  0  0  0
  193.2200  176.5440  146.6160 C   0  0  0  0  0  1  0  0  0  0  0  0
  189.3470  172.2840  137.3120 O   0  0  0  0  0  1  0  0  0  0  0  0
  188.2600  172.6850  139.5050 C   0  0  0  0  0  2  0  0  0  0  0  0
  187.5740  176.4030  141.5430 C   0  0  0  0  0  2  0  0  0  0  0  0
  187.8670  177.0180  146.4830 C   0  0  0  0  0  3  0  0  0  0  0  0
  188.5800  176.5620  144.2040 C   0  0  0  0  0  0  0  0  0  0  0  0
  191.8480  175.3370  145.0370 O   0  0  0  0  0  0  0  0  0  0  0  0
  1 26  1  0  0  0  0
  2  1  1  6  0  0  0
  2 11  1  0  0  0  0
  3 14  1  6  0  0  0
  3  7  1  0  0  0  0
  4 13  2  0  0  0  0
  5 21  1  0  0  0  0
  6 22  1  1  0  0  0
  6 11  1  0  0  0  0
  7 28  1  6  0  0  0
  7  2  1  0  0  0  0
  9 18  2  0  0  0  0
 10 25  1  1  0  0  0
 10 17  1  0  0  0  0
 11  8  1  1  0  0  0
 12 15  2  0  0  0  0
 12 24  1  0  0  0  0
 13 18  1  0  0  0  0
 13 10  1  0  0  0  0
 15  9  1  0  0  0  0
 16 27  1  0  0  0  0
 16 21  2  0  0  0  0
 17  3  1  0  0  0  0
 17 27  1  1  0  0  0
 18 14  1  0  0  0  0
 19 26  2  0  0  0  0
 20 16  1  0  0  0  0
 21 19  1  0  0  0  0
 23 12  1  0  0  0  0
 24  4  1  0  0  0  0
 25 20  1  0  0  0  0
 27  1  2  0  0  0  0
 28  6  1  0  0  0  0
M  END
>  <MODEL>
3

>  <REMARK>
 VINA RESULT:      -8.5      3.547      5.563
  Name = 
  0 active torsions:
  status: ('A' for Active; 'I' for Inactive)
                            x       y       z     vdW  Elec       q    Type
                         _______ _______ _______ _____ _____    ______ ____

>  <TORSDO>
F 0

$$$$
=
 OpenBabel11052418073D

 28 33  0  0  1  0  0  0  0  0999 V2000
  191.1790  173.6740  143.7280 C   0  0  0  0  0  0  0  0  0  0  0  0
  190.3630  172.8650  142.7400 C   0  0  1  0  0  3  0  0  0  0  0  0
  188.5600  174.6560  143.0760 C   0  0  2  0  0  3  0  0  0  0  0  0
  186.9800  177.4710  145.4750 C   0  0  0  0  0  3  0  0  0  0  0  0
  193.6020  175.7510  146.5130 N   0  0  0  0  0  1  0  0  0  0  0  0
  190.8020  173.7140  140.5970 C   0  0  1  0  0  3  0  0  0  0  0  0
  189.1580  173.6000  142.1460 C   0  0  1  0  0  3  0  0  0  0  0  0
  190.7810  171.2010  140.9790 C   0  0  0  0  0  1  0  0  0  0  0  0
  185.6020  176.9010  142.8080 C   0  0  0  0  0  3  0  0  0  0  0  0
  189.0690  176.9040  144.2730 C   0  0  2  0  0  3  0  0  0  0  0  0
  191.1880  172.5690  141.5220 C   0  0  2  0  0  3  0  0  0  0  0  0
  184.8040  178.3170  144.7010 C   0  0  0  0  0  0  0  0  0  0  0  0
  187.5530  176.9450  144.3830 C   0  0  0  0  0  0  0  0  0  0  0  0
  187.3800  175.3360  142.3880 C   0  0  0  0  0  2  0  0  0  0  0  0
  184.8220  178.0020  143.4060 C   0  0  0  0  0  3  0  0  0  0  0  0
  191.6470  175.6890  145.0200 C   0  0  0  0  0  0  0  0  0  0  0  0
  189.6290  175.6810  143.4750 C   0  0  1  0  0  3  0  0  0  0  0  0
  186.7590  176.3870  143.2510 C   0  0  0  0  0  0  0  0  0  0  0  0
  193.0890  173.7530  145.2260 C   0  0  0  0  0  3  0  0  0  0  0  0
  191.2930  177.0890  145.4110 C   0  0  0  0  0  2  0  0  0  0  0  0
  192.7750  175.0650  145.5770 C   0  0  0  0  0  0  0  0  0  0  0  0
  190.9700  173.4160  139.1130 C   0  0  0  0  0  1  0  0  0  0  0  0
  184.0660  179.4160  145.1180 O   0  0  0  0  0  1  0  0  0  0  0  0
  185.5090  177.4900  145.7200 C   0  0  0  0  0  2  0  0  0  0  0  0
  189.7920  177.1790  145.6010 C   0  0  0  0  0  2  0  0  0  0  0  0
  192.2950  173.0630  144.3120 C   0  0  0  0  0  3  0  0  0  0  0  0
  190.8350  174.9950  144.0970 C   0  0  0  0  0  0  0  0  0  0  0  0
  189.4920  174.1350  140.8830 O   0  0  0  0  0  0  0  0  0  0  0  0
  1 27  2  0  0  0  0
  1 26  1  0  0  0  0
  2  1  1  1  0  0  0
  3 14  1  6  0  0  0
  3 17  1  0  0  0  0
  4 24  1  0  0  0  0
  6 22  1  6  0  0  0
  6 28  1  0  0  0  0
  6 11  1  0  0  0  0
  7 28  1  6  0  0  0
  7  2  1  0  0  0  0
  7  3  1  0  0  0  0
  9 18  2  0  0  0  0
  9 15  1  0  0  0  0
 10 13  1  0  0  0  0
 10 25  1  1  0  0  0
 11  8  1  6  0  0  0
 11  2  1  0  0  0  0
 12 23  1  0  0  0  0
 12 24  1  0  0  0  0
 13  4  2  0  0  0  0
 14 18  1  0  0  0  0
 15 12  2  0  0  0  0
 16 20  1  0  0  0  0
 16 21  2  0  0  0  0
 17 27  1  1  0  0  0
 17 10  1  0  0  0  0
 18 13  1  0  0  0  0
 19 21  1  0  0  0  0
 20 25  1  0  0  0  0
 21  5  1  0  0  0  0
 26 19  2  0  0  0  0
 27 16  1  0  0  0  0
M  END
>  <MODEL>
4

>  <REMARK>
 VINA RESULT:      -8.4      3.448      7.461
  Name = 
  0 active torsions:
  status: ('A' for Active; 'I' for Inactive)
                            x       y       z     vdW  Elec       q    Type
                         _______ _______ _______ _____ _____    ______ ____

>  <TORSDO>
F 0

$$$$
=
 OpenBabel11052418073D

 28 33  0  0  1  0  0  0  0  0999 V2000
  192.5330  175.3040  142.3140 C   0  0  0  0  0  0  0  0  0  0  0  0
  193.2910  176.2490  143.2250 C   0  0  1  0  0  3  0  0  0  0  0  0
  191.0330  176.6180  144.3810 C   0  0  2  0  0  3  0  0  0  0  0  0
  187.0220  176.5650  144.0850 C   0  0  0  0  0  3  0  0  0  0  0  0
  190.5970  172.6700  139.6210 N   0  0  0  0  0  1  0  0  0  0  0  0
  194.0290  175.0070  145.0750 C   0  0  1  0  0  3  0  0  0  0  0  0
  192.5560  176.6290  144.5140 C   0  0  1  0  0  3  0  0  0  0  0  0
  195.6210  176.6170  143.9180 C   0  0  0  0  0  1  0  0  0  0  0  0
  188.2680  177.4970  146.7150 C   0  0  0  0  0  3  0  0  0  0  0  0
  188.9940  175.0760  143.9260 C   0  0  2  0  0  3  0  0  0  0  0  0
  194.5230  175.5700  143.7500 C   0  0  2  0  0  3  0  0  0  0  0  0
  185.8790  177.5970  146.0030 C   0  0  0  0  0  0  0  0  0  0  0  0
  188.2410  176.2450  144.5430 C   0  0  0  0  0  0  0  0  0  0  0  0
  190.3980  176.9950  145.7170 C   0  0  0  0  0  2  0  0  0  0  0  0
  186.8120  177.5410  146.9520 C   0  0  0  0  0  3  0  0  0  0  0  0
  190.5920  173.9520  141.7210 C   0  0  0  0  0  0  0  0  0  0  0  0
  190.5490  175.2410  143.9120 C   0  0  1  0  0  3  0  0  0  0  0  0
  188.9050  176.9940  145.6470 C   0  0  0  0  0  0  0  0  0  0  0  0
  192.5040  174.0480  140.2360 C   0  0  0  0  0  3  0  0  0  0  0  0
  189.2200  173.4470  142.0350 C   0  0  0  0  0  2  0  0  0  0  0  0
  191.2340  173.5580  140.5350 C   0  0  0  0  0  0  0  0  0  0  0  0
  195.1190  174.7910  146.1170 C   0  0  0  0  0  1  0  0  0  0  0  0
  184.5410  177.5770  146.3690 O   0  0  0  0  0  1  0  0  0  0  0  0
  186.2320  177.7360  144.5620 C   0  0  0  0  0  2  0  0  0  0  0  0
  188.3950  174.5890  142.5960 C   0  0  0  0  0  2  0  0  0  0  0  0
  193.1460  174.9160  141.1170 C   0  0  0  0  0  3  0  0  0  0  0  0
  191.2330  174.8350  142.6160 C   0  0  0  0  0  0  0  0  0  0  0  0
  192.9990  175.8170  145.5810 O   0  0  0  0  0  0  0  0  0  0  0  0
  1 27  1  0  0  0  0
  2  1  1  6  0  0  0
  2 11  1  0  0  0  0
  2  7  1  0  0  0  0
  3  7  1  0  0  0  0
  3 14  1  1  0  0  0
  4 13  2  0  0  0  0
  4 24  1  0  0  0  0
  5 21  1  0  0  0  0
  6 28  1  0  0  0  0
  6 22  1  1  0  0  0
  7 28  1  1  0  0  0
  9 15  1  0  0  0  0
 10 25  1  6  0  0  0
 10 13  1  0  0  0  0
 11  8  1  1  0  0  0
 11  6  1  0  0  0  0
 12 23  1  0  0  0  0
 12 15  2  0  0  0  0
 13 18  1  0  0  0  0
 16 20  1  0  0  0  0
 16 27  2  0  0  0  0
 17 27  1  6  0  0  0
 17 10  1  0  0  0  0
 17  3  1  0  0  0  0
 18 14  1  0  0  0  0
 18  9  2  0  0  0  0
 19 21  2  0  0  0  0
 19 26  1  0  0  0  0
 20 25  1  0  0  0  0
 21 16  1  0  0  0  0
 24 12  1  0  0  0  0
 26  1  2  0  0  0  0
M  END
>  <MODEL>
5

>  <REMARK>
 VINA RESULT:      -8.2      2.535      6.736
  Name = 
  0 active torsions:
  status: ('A' for Active; 'I' for Inactive)
                            x       y       z     vdW  Elec       q    Type
                         _______ _______ _______ _____ _____    ______ ____

>  <TORSDO>
F 0

$$$$
=
 OpenBabel11052418073D

 28 33  0  0  1  0  0  0  0  0999 V2000
  187.9310  177.1610  144.2080 C   0  0  0  0  0  0  0  0  0  0  0  0
  188.4010  177.4740  142.8010 C   0  0  1  0  0  3  0  0  0  0  0  0
  190.6220  176.4220  143.5290 C   0  0  2  0  0  3  0  0  0  0  0  0
  193.1210  175.5200  146.5490 C   0  0  0  0  0  3  0  0  0  0  0  0
  186.4390  176.4310  148.1050 N   0  0  0  0  0  1  0  0  0  0  0  0
  187.9510  175.5940  141.4710 C   0  0  1  0  0  3  0  0  0  0  0  0
  189.6770  176.7450  142.3710 C   0  0  1  0  0  3  0  0  0  0  0  0
  187.3800  177.9160  140.6080 C   0  0  0  0  0  1  0  0  0  0  0  0
  194.0000  174.8670  143.6960 C   0  0  0  0  0  3  0  0  0  0  0  0
  190.8340  175.0500  145.7230 C   0  0  2  0  0  3  0  0  0  0  0  0
  187.3950  176.9710  141.8060 C   0  0  2  0  0  3  0  0  0  0  0  0
  195.3370  174.7630  145.8000 C   0  0  0  0  0  0  0  0  0  0  0  0
  192.3140  175.3170  145.4970 C   0  0  0  0  0  0  0  0  0  0  0  0
  191.8500  175.6880  142.9980 C   0  0  0  0  0  2  0  0  0  0  0  0
  195.0950  174.3680  144.5520 C   0  0  0  0  0  3  0  0  0  0  0  0
  188.1350  176.0410  146.3650 C   0  0  0  0  0  0  0  0  0  0  0  0
  189.8980  175.5870  144.5910 C   0  0  1  0  0  3  0  0  0  0  0  0
  192.8090  175.3400  144.0910 C   0  0  0  0  0  0  0  0  0  0  0  0
  186.2840  177.5480  145.9500 C   0  0  0  0  0  3  0  0  0  0  0  0
  188.8710  175.1130  147.2790 C   0  0  0  0  0  2  0  0  0  0  0  0
  186.9550  176.6690  146.7980 C   0  0  0  0  0  0  0  0  0  0  0  0
  187.5470  175.0630  140.1020 C   0  0  0  0  0  1  0  0  0  0  0  0
  196.3700  174.1670  146.5100 O   0  0  0  0  0  1  0  0  0  0  0  0
  194.5660  175.8670  146.4380 C   0  0  0  0  0  2  0  0  0  0  0  0
  190.3580  175.3770  147.1470 C   0  0  0  0  0  2  0  0  0  0  0  0
  186.7700  177.7940  144.6680 C   0  0  0  0  0  3  0  0  0  0  0  0
  188.6360  176.2880  145.0680 C   0  0  0  0  0  0  0  0  0  0  0  0
  189.3480  175.5950  141.6210 O   0  0  0  0  0  0  0  0  0  0  0  0
  1 26  2  0  0  0  0
  1 27  1  0  0  0  0
  2  1  1  1  0  0  0
  3 14  1  6  0  0  0
  3 17  1  0  0  0  0
  6 22  1  6  0  0  0
  6 28  1  0  0  0  0
  6 11  1  0  0  0  0
  7 28  1  1  0  0  0
  7  2  1  0  0  0  0
  7  3  1  0  0  0  0
  9 18  2  0  0  0  0
  9 15  1  0  0  0  0
 10 25  1  1  0  0  0
 11  8  1  6  0  0  0
 11  2  1  0  0  0  0
 12 24  1  0  0  0  0
 12 23  1  0  0  0  0
 13 10  1  0  0  0  0
 13  4  2  0  0  0  0
 14 18  1  0  0  0  0
 15 12  2  0  0  0  0
 16 21  1  0  0  0  0
 16 20  1  0  0  0  0
 17 27  1  1  0  0  0
 17 10  1  0  0  0  0
 18 13  1  0  0  0  0
 19 21  2  0  0  0  0
 21  5  1  0  0  0  0
 24  4  1  0  0  0  0
 25 20  1  0  0  0  0
 26 19  1  0  0  0  0
 27 16  2  0  0  0  0
M  END
>  <MODEL>
6

>  <REMARK>
 VINA RESULT:      -8.2      2.371      4.582
  Name = 
  0 active torsions:
  status: ('A' for Active; 'I' for Inactive)
                            x       y       z     vdW  Elec       q    Type
                         _______ _______ _______ _____ _____    ______ ____

>  <TORSDO>
F 0

$$$$
=
 OpenBabel11052418073D

 28 33  0  0  1  0  0  0  0  0999 V2000
  190.8160  174.1050  141.7650 C   0  0  0  0  0  0  0  0  0  0  0  0
  189.5940  173.3490  141.2840 C   0  0  1  0  0  3  0  0  0  0  0  0
  188.2570  175.0200  142.6940 C   0  0  2  0  0  3  0  0  0  0  0  0
  188.2100  177.5410  145.8290 C   0  0  0  0  0  3  0  0  0  0  0  0
  194.3620  176.0400  143.0380 N   0  0  0  0  0  1  0  0  0  0  0  0
  188.8370  174.4010  139.3280 C   0  0  1  0  0  3  0  0  0  0  0  0
  188.2630  174.0770  141.4910 C   0  0  1  0  0  3  0  0  0  0  0  0
  189.0030  171.8660  139.4140 C   0  0  0  0  0  1  0  0  0  0  0  0
  185.6240  177.1430  144.2510 C   0  0  0  0  0  3  0  0  0  0  0  0
  189.3400  177.1760  143.6560 C   0  0  2  0  0  3  0  0  0  0  0  0
  189.6460  173.1980  139.7910 C   0  0  2  0  0  3  0  0  0  0  0  0
  185.9610  178.3510  146.4080 C   0  0  0  0  0  0  0  0  0  0  0  0
  188.1130  177.1380  144.5530 C   0  0  0  0  0  0  0  0  0  0  0  0
  186.8970  175.7040  142.8040 C   0  0  0  0  0  2  0  0  0  0  0  0
  185.2880  178.1510  145.2750 C   0  0  0  0  0  3  0  0  0  0  0  0
  191.9130  176.0190  142.8060 C   0  0  0  0  0  0  0  0  0  0  0  0
  189.3820  176.0540  142.5670 C   0  0  1  0  0  3  0  0  0  0  0  0
  186.8350  176.6450  143.9630 C   0  0  0  0  0  0  0  0  0  0  0  0
  193.2300  174.1400  142.0280 C   0  0  0  0  0  3  0  0  0  0  0  0
  191.8310  177.3620  143.4590 C   0  0  0  0  0  2  0  0  0  0  0  0
  193.1600  175.4010  142.6180 C   0  0  0  0  0  0  0  0  0  0  0  0
  188.1910  174.2410  137.9580 C   0  0  0  0  0  1  0  0  0  0  0  0
  185.5650  179.3740  147.2570 O   0  0  0  0  0  1  0  0  0  0  0  0
  187.0930  177.4710  146.8140 C   0  0  0  0  0  2  0  0  0  0  0  0
  190.6590  177.3670  144.4210 C   0  0  0  0  0  2  0  0  0  0  0  0
  192.0670  173.4970  141.6090 C   0  0  0  0  0  3  0  0  0  0  0  0
  190.7300  175.3720  142.3880 C   0  0  0  0  0  0  0  0  0  0  0  0
  187.8810  174.7360  140.3020 O   0  0  0  0  0  0  0  0  0  0  0  0
  1 27  1  0  0  0  0
  2  7  1  0  0  0  0
  2  1  1  6  0  0  0
  3 14  1  6  0  0  0
  4 24  1  0  0  0  0
  6 22  1  6  0  0  0
  6 11  1  0  0  0  0
  6 28  1  0  0  0  0
  7 28  1  6  0  0  0
  7  3  1  0  0  0  0
  9 15  1  0  0  0  0
 10 25  1  1  0  0  0
 10 13  1  0  0  0  0
 11  8  1  1  0  0  0
 11  2  1  0  0  0  0
 12 24  1  0  0  0  0
 12 23  1  0  0  0  0
 13  4  2  0  0  0  0
 14 18  1  0  0  0  0
 15 12  2  0  0  0  0
 16 20  1  0  0  0  0
 17 27  1  1  0  0  0
 17  3  1  0  0  0  0
 17 10  1  0  0  0  0
 18  9  2  0  0  0  0
 18 13  1  0  0  0  0
 19 21  2  0  0  0  0
 20 25  1  0  0  0  0
 21 16  1  0  0  0  0
 21  5  1  0  0  0  0
 26  1  2  0  0  0  0
 26 19  1  0  0  0  0
 27 16  2  0  0  0  0
M  END
>  <MODEL>
7

>  <REMARK>
 VINA RESULT:      -8.0      3.447      6.981
  Name = 
  0 active torsions:
  status: ('A' for Active; 'I' for Inactive)
                            x       y       z     vdW  Elec       q    Type
                         _______ _______ _______ _____ _____    ______ ____

>  <TORSDO>
F 0

$$$$
=
 OpenBabel11052418073D

 28 33  0  0  1  0  0  0  0  0999 V2000
  185.7130  177.4560  144.5680 C   0  0  0  0  0  0  0  0  0  0  0  0
  185.7060  177.1020  146.0410 C   0  0  1  0  0  3  0  0  0  0  0  0
  187.9210  175.9080  145.5560 C   0  0  2  0  0  3  0  0  0  0  0  0
  190.2660  174.0760  142.8490 C   0  0  0  0  0  3  0  0  0  0  0  0
  185.5090  178.5030  140.4690 N   0  0  0  0  0  1  0  0  0  0  0  0
  186.8710  178.7910  147.1810 C   0  0  1  0  0  3  0  0  0  0  0  0
  187.0480  176.6140  146.5930 C   0  0  1  0  0  3  0  0  0  0  0  0
  184.6580  177.9430  148.1000 C   0  0  0  0  0  1  0  0  0  0  0  0
  191.2230  174.1990  145.7480 C   0  0  0  0  0  3  0  0  0  0  0  0
  189.2100  176.2640  143.3300 C   0  0  2  0  0  3  0  0  0  0  0  0
  185.4540  178.3360  146.8590 C   0  0  2  0  0  3  0  0  0  0  0  0
  192.1950  172.9180  143.8410 C   0  0  0  0  0  0  0  0  0  0  0  0
  189.8970  174.9800  143.7680 C   0  0  0  0  0  0  0  0  0  0  0  0
  189.2350  175.4750  146.2000 C   0  0  0  0  0  2  0  0  0  0  0  0
  192.3170  173.5280  145.0190 C   0  0  0  0  0  3  0  0  0  0  0  0
  186.7970  177.6710  142.3930 C   0  0  0  0  0  0  0  0  0  0  0  0
  188.1740  176.8290  144.3570 C   0  0  1  0  0  3  0  0  0  0  0  0
  190.1330  174.7820  145.2270 C   0  0  0  0  0  0  0  0  0  0  0  0
  184.4590  178.2530  142.6480 C   0  0  0  0  0  3  0  0  0  0  0  0
  188.0110  177.5310  141.5310 C   0  0  0  0  0  2  0  0  0  0  0  0
  185.5930  178.1440  141.8450 C   0  0  0  0  0  0  0  0  0  0  0  0
  186.9960  179.6260  148.4480 C   0  0  0  0  0  1  0  0  0  0  0  0
  193.3230  172.3740  143.2410 O   0  0  0  0  0  1  0  0  0  0  0  0
  190.8720  172.7540  143.1740 C   0  0  0  0  0  2  0  0  0  0  0  0
  188.7080  176.2300  141.8770 C   0  0  0  0  0  2  0  0  0  0  0  0
  184.5180  177.9090  143.9960 C   0  0  0  0  0  3  0  0  0  0  0  0
  186.8640  177.3150  143.7580 C   0  0  0  0  0  0  0  0  0  0  0  0
  187.7300  177.6800  147.2210 O   0  0  0  0  0  0  0  0  0  0  0  0
  2  1  1  6  0  0  0
  2  7  1  0  0  0  0
  2 11  1  0  0  0  0
  3 14  1  1  0  0  0
  3  7  1  0  0  0  0
  4 24  1  0  0  0  0
  4 13  2  0  0  0  0
  5 21  1  0  0  0  0
  6 28  1  0  0  0  0
  6 22  1  1  0  0  0
  7 28  1  6  0  0  0
 10 25  1  6  0  0  0
 10 13  1  0  0  0  0
 10 17  1  0  0  0  0
 11  6  1  0  0  0  0
 11  8  1  1  0  0  0
 12 15  2  0  0  0  0
 13 18  1  0  0  0  0
 15  9  1  0  0  0  0
 16 27  1  0  0  0  0
 17 27  1  6  0  0  0
 17  3  1  0  0  0  0
 18  9  2  0  0  0  0
 18 14  1  0  0  0  0
 19 26  2  0  0  0  0
 20 25  1  0  0  0  0
 20 16  1  0  0  0  0
 21 16  2  0  0  0  0
 21 19  1  0  0  0  0
 23 12  1  0  0  0  0
 24 12  1  0  0  0  0
 26  1  1  0  0  0  0
 27  1  2  0  0  0  0
M  END
>  <MODEL>
8

>  <REMARK>
 VINA RESULT:      -7.9      1.791      2.043
  Name = 
  0 active torsions:
  status: ('A' for Active; 'I' for Inactive)
                            x       y       z     vdW  Elec       q    Type
                         _______ _______ _______ _____ _____    ______ ____

>  <TORSDO>
F 0

$$$$
=
 OpenBabel11052418073D

 28 33  0  0  1  0  0  0  0  0999 V2000
  188.4640  177.2020  144.5910 C   0  0  0  0  0  0  0  0  0  0  0  0
  187.7760  178.0620  143.5500 C   0  0  1  0  0  3  0  0  0  0  0  0
  188.2990  176.1510  141.9230 C   0  0  2  0  0  3  0  0  0  0  0  0
  190.6590  173.0260  141.0060 C   0  0  0  0  0  3  0  0  0  0  0  0
  190.4000  174.9860  147.6380 N   0  0  0  0  0  1  0  0  0  0  0  0
  185.5080  177.4590  143.5210 C   0  0  1  0  0  3  0  0  0  0  0  0
  187.3840  177.3270  142.2650 C   0  0  1  0  0  3  0  0  0  0  0  0
  186.1620  179.9160  143.5130 C   0  0  0  0  0  1  0  0  0  0  0  0
  188.4410  173.7900  139.0480 C   0  0  0  0  0  3  0  0  0  0  0  0
  189.0980  173.8250  142.7540 C   0  0  2  0  0  3  0  0  0  0  0  0
  186.4460  178.5240  144.0710 C   0  0  2  0  0  3  0  0  0  0  0  0
  190.2940  172.1480  138.7380 C   0  0  0  0  0  0  0  0  0  0  0  0
  189.5340  173.6910  141.3030 C   0  0  0  0  0  0  0  0  0  0  0  0
  187.8160  175.4820  140.6390 C   0  0  0  0  0  2  0  0  0  0  0  0
  189.0710  172.5930  138.4560 C   0  0  0  0  0  3  0  0  0  0  0  0
  189.3900  175.0940  145.3960 C   0  0  0  0  0  0  0  0  0  0  0  0
  188.3370  175.1510  143.0840 C   0  0  1  0  0  3  0  0  0  0  0  0
  188.6730  174.3180  140.2590 C   0  0  0  0  0  0  0  0  0  0  0  0
  189.4870  177.0740  146.7890 C   0  0  0  0  0  3  0  0  0  0  0  0
  189.6910  173.6450  145.1820 C   0  0  0  0  0  2  0  0  0  0  0  0
  189.7510  175.7190  146.6020 C   0  0  0  0  0  0  0  0  0  0  0  0
  184.0660  177.9160  143.3440 C   0  0  0  0  0  1  0  0  0  0  0  0
  190.7390  170.9750  138.1460 O   0  0  0  0  0  1  0  0  0  0  0  0
  191.2190  172.9040  139.6290 C   0  0  0  0  0  2  0  0  0  0  0  0
  190.1950  173.4560  143.7650 C   0  0  0  0  0  2  0  0  0  0  0  0
  188.8520  177.8100  145.7910 C   0  0  0  0  0  3  0  0  0  0  0  0
  188.7510  175.8330  144.3780 C   0  0  0  0  0  0  0  0  0  0  0  0
  186.0270  176.9420  142.3230 O   0  0  0  0  0  0  0  0  0  0  0  0
  1 26  1  0  0  0  0
  2 11  1  0  0  0  0
  2  1  1  1  0  0  0
  3 14  1  6  0  0  0
  3  7  1  0  0  0  0
  3 17  1  0  0  0  0
  4 13  2  0  0  0  0
  6 22  1  6  0  0  0
  6 11  1  0  0  0  0
  7 28  1  1  0  0  0
  7  2  1  0  0  0  0
  9 18  2  0  0  0  0
 10 17  1  0  0  0  0
 10 25  1  1  0  0  0
 11  8  1  6  0  0  0
 12 24  1  0  0  0  0
 13 10  1  0  0  0  0
 15 12  2  0  0  0  0
 15  9  1  0  0  0  0
 16 21  2  0  0  0  0
 17 27  1  1  0  0  0
 18 14  1  0  0  0  0
 18 13  1  0  0  0  0
 20 16  1  0  0  0  0
 21 19  1  0  0  0  0
 21  5  1  0  0  0  0
 23 12  1  0  0  0  0
 24  4  1  0  0  0  0
 25 20  1  0  0  0  0
 26 19  2  0  0  0  0
 27  1  2  0  0  0  0
 27 16  1  0  0  0  0
 28  6  1  0  0  0  0
M  END
>  <MODEL>
9

>  <REMARK>
 VINA RESULT:      -7.8      4.011      5.822
  Name = 
  0 active torsions:
  status: ('A' for Active; 'I' for Inactive)
                            x       y       z     vdW  Elec       q    Type
                         _______ _______ _______ _____ _____    ______ ____

>  <TORSDO>
F 0

$$$$
