=
 OpenBabel11052418273D

 27 29  0  0  1  0  0  0  0  0999 V2000
  187.9730  176.6790  145.3990 N   0  0  0  0  0  0  0  0  0  0  0  0
  184.1350  178.2840  146.4940 C   0  0  0  0  0  2  0  0  0  0  0  0
  186.7920  177.4840  145.7630 C   0  0  1  0  0  3  0  0  0  0  0  0
  185.6650  177.1500  144.9060 N   0  0  0  0  0  2  0  0  0  0  0  0
  184.6550  178.2040  145.0500 C   0  0  0  0  0  2  0  0  0  0  0  0
  185.2960  178.3770  147.5010 C   0  0  0  0  0  2  0  0  0  0  0  0
  186.3490  177.3170  147.2210 C   0  0  0  0  0  2  0  0  0  0  0  0
  188.4630  175.8940  146.5610 C   0  0  0  0  0  2  0  0  0  0  0  0
  191.9480  174.4320  146.0250 C   0  0  0  0  0  3  0  0  0  0  0  0
  192.7450  175.3770  146.6800 C   0  0  0  0  0  3  0  0  0  0  0  0
  189.9590  175.6980  146.5940 C   0  0  0  0  0  0  0  0  0  0  0  0
  189.7530  173.5480  145.2700 C   0  0  0  0  0  1  0  0  0  0  0  0
  192.1500  176.4810  147.3010 C   0  0  0  0  0  3  0  0  0  0  0  0
  190.7600  176.6340  147.2590 C   0  0  0  0  0  3  0  0  0  0  0  0
  190.5610  174.5830  145.9840 C   0  0  0  0  0  0  0  0  0  0  0  0
  188.9880  177.5770  145.0070 N   0  0  0  0  0  2  0  0  0  0  0  0
  189.0420  177.5910  143.5530 C   0  0  0  0  0  2  0  0  0  0  0  0
  192.6650  176.6000  143.1280 C   0  0  0  0  0  3  0  0  0  0  0  0
  193.7180  174.6710  142.1580 O   0  0  0  0  0  1  0  0  0  0  0  0
  191.2990  174.8870  142.0880 C   0  0  0  0  0  0  0  0  0  0  0  0
  191.2260  173.6600  141.4340 O   0  0  0  0  0  1  0  0  0  0  0  0
  190.1290  175.6110  142.4290 C   0  0  0  0  0  0  0  0  0  0  0  0
  192.5610  175.3950  142.4380 C   0  0  0  0  0  0  0  0  0  0  0  0
  190.2580  176.8410  143.0980 C   0  0  0  0  0  0  0  0  0  0  0  0
  191.5190  177.3140  143.4640 C   0  0  0  0  0  3  0  0  0  0  0  0
  188.1730  175.1990  140.9090 C   0  0  0  0  0  1  0  0  0  0  0  0
  188.8260  175.1430  142.1690 O   0  0  0  0  0  0  0  0  0  0  0  0
  1  8  1  0  0  0  0
  2  6  1  0  0  0  0
  3  1  1  6  0  0  0
  3  7  1  0  0  0  0
  4  5  1  0  0  0  0
  4  3  1  0  0  0  0
  5  2  1  0  0  0  0
  7  6  1  0  0  0  0
  8 11  1  0  0  0  0
  9 10  1  0  0  0  0
 10 13  2  0  0  0  0
 11 14  2  0  0  0  0
 12 15  1  0  0  0  0
 14 13  1  0  0  0  0
 15  9  2  0  0  0  0
 15 11  1  0  0  0  0
 16  1  1  0  0  0  0
 17 16  1  0  0  0  0
 18 25  1  0  0  0  0
 19 23  1  0  0  0  0
 20 22  2  0  0  0  0
 20 23  1  0  0  0  0
 21 20  1  0  0  0  0
 22 24  1  0  0  0  0
 23 18  2  0  0  0  0
 24 25  2  0  0  0  0
 24 17  1  0  0  0  0
 26 27  1  0  0  0  0
 27 22  1  0  0  0  0
M  END
>  <MODEL>
1

>  <REMARK>
 VINA RESULT:      -6.5      0.000      0.000
  Name = 
  7 active torsions:
  status: ('A' for Active; 'I' for Inactive)
    1  A    between atoms: C_1  and  N_15
    2  A    between atoms: C_1  and  C_18
    3  A    between atoms: N_2  and  C_6
    4  A    between atoms: N_2  and  N_15
    5  A    between atoms: C_6  and  C_17
    6  A    between atoms: C_9  and  N_15
    7  A    between atoms: C_14  and  O_19
                            x       y       z     vdW  Elec       q    Type
                         _______ _______ _______ _____ _____    ______ ____

>  <TORSDO>
F 7

$$$$
=
 OpenBabel11052418273D

 27 29  0  0  1  0  0  0  0  0999 V2000
  187.7490  176.1230  143.6320 N   0  0  0  0  0  0  0  0  0  0  0  0
  189.5470  173.3160  140.9140 C   0  0  0  0  0  2  0  0  0  0  0  0
  188.1180  175.0160  142.7310 C   0  0  1  0  0  3  0  0  0  0  0  0
  188.5740  175.5330  141.4500 N   0  0  0  0  0  2  0  0  0  0  0  0
  188.5750  174.4270  140.4860 C   0  0  0  0  0  2  0  0  0  0  0  0
  189.2980  172.8860  142.3710 C   0  0  0  0  0  2  0  0  0  0  0  0
  189.2090  174.0940  143.2890 C   0  0  0  0  0  2  0  0  0  0  0  0
  186.3250  176.5050  143.4530 C   0  0  0  0  0  2  0  0  0  0  0  0
  184.1300  178.7010  145.6740 C   0  0  0  0  0  3  0  0  0  0  0  0
  184.5480  178.3050  146.9490 C   0  0  0  0  0  3  0  0  0  0  0  0
  185.6940  177.1450  144.6660 C   0  0  0  0  0  0  0  0  0  0  0  0
  184.2190  178.5850  143.1940 C   0  0  0  0  0  1  0  0  0  0  0  0
  185.5460  177.3340  147.0850 C   0  0  0  0  0  3  0  0  0  0  0  0
  186.1170  176.7620  145.9440 C   0  0  0  0  0  3  0  0  0  0  0  0
  184.7000  178.1310  144.5340 C   0  0  0  0  0  0  0  0  0  0  0  0
  188.5540  177.2290  143.2900 N   0  0  0  0  0  2  0  0  0  0  0  0
  189.1650  177.7380  144.5090 C   0  0  0  0  0  2  0  0  0  0  0  0
  192.7900  176.8000  143.9890 C   0  0  0  0  0  3  0  0  0  0  0  0
  194.3480  175.5420  145.3150 O   0  0  0  0  0  1  0  0  0  0  0  0
  192.0470  175.7770  146.0590 C   0  0  0  0  0  0  0  0  0  0  0  0
  192.3550  175.0280  147.1920 O   0  0  0  0  0  1  0  0  0  0  0  0
  190.7520  176.3180  145.8640 C   0  0  0  0  0  0  0  0  0  0  0  0
  193.0560  176.0210  145.1120 C   0  0  0  0  0  0  0  0  0  0  0  0
  190.4960  177.0760  144.7070 C   0  0  0  0  0  0  0  0  0  0  0  0
  191.5190  177.3310  143.7920 C   0  0  0  0  0  3  0  0  0  0  0  0
  189.0460  174.9520  147.1010 C   0  0  0  0  0  1  0  0  0  0  0  0
  189.7030  176.1730  146.7930 O   0  0  0  0  0  0  0  0  0  0  0  0
  2  6  1  0  0  0  0
  3  7  1  0  0  0  0
  3  1  1  1  0  0  0
  4  3  1  0  0  0  0
  5  2  1  0  0  0  0
  5  4  1  0  0  0  0
  6  7  1  0  0  0  0
  8  1  1  0  0  0  0
  8 11  1  0  0  0  0
  9 10  1  0  0  0  0
 10 13  2  0  0  0  0
 11 14  2  0  0  0  0
 12 15  1  0  0  0  0
 14 13  1  0  0  0  0
 15 11  1  0  0  0  0
 15  9  2  0  0  0  0
 16  1  1  0  0  0  0
 16 17  1  0  0  0  0
 17 24  1  0  0  0  0
 18 23  1  0  0  0  0
 20 21  1  0  0  0  0
 22 20  1  0  0  0  0
 22 27  1  0  0  0  0
 23 19  1  0  0  0  0
 23 20  2  0  0  0  0
 24 22  2  0  0  0  0
 25 18  2  0  0  0  0
 25 24  1  0  0  0  0
 27 26  1  0  0  0  0
M  END
>  <MODEL>
2

>  <REMARK>
 VINA RESULT:      -6.5      2.232      5.483
  Name = 
  7 active torsions:
  status: ('A' for Active; 'I' for Inactive)
    1  A    between atoms: C_1  and  N_15
    2  A    between atoms: C_1  and  C_18
    3  A    between atoms: N_2  and  C_6
    4  A    between atoms: N_2  and  N_15
    5  A    between atoms: C_6  and  C_17
    6  A    between atoms: C_9  and  N_15
    7  A    between atoms: C_14  and  O_19
                            x       y       z     vdW  Elec       q    Type
                         _______ _______ _______ _____ _____    ______ ____

>  <TORSDO>
F 7

$$$$
=
 OpenBabel11052418273D

 27 29  0  0  1  0  0  0  0  0999 V2000
  188.0540  176.6890  145.4160 N   0  0  0  0  0  0  0  0  0  0  0  0
  184.1900  178.1950  146.5610 C   0  0  0  0  0  2  0  0  0  0  0  0
  186.8560  177.4630  145.7890 C   0  0  1  0  0  3  0  0  0  0  0  0
  185.7220  177.0790  144.9620 N   0  0  0  0  0  2  0  0  0  0  0  0
  184.6830  178.1040  145.1070 C   0  0  0  0  0  2  0  0  0  0  0  0
  185.3680  178.3430  147.5410 C   0  0  0  0  0  2  0  0  0  0  0  0
  186.4470  177.3110  147.2590 C   0  0  0  0  0  2  0  0  0  0  0  0
  188.6100  175.9670  146.5880 C   0  0  0  0  0  2  0  0  0  0  0  0
  192.2990  174.9900  146.6770 C   0  0  0  0  0  3  0  0  0  0  0  0
  192.3160  173.9030  145.7970 C   0  0  0  0  0  3  0  0  0  0  0  0
  189.9150  175.2570  146.3210 C   0  0  0  0  0  0  0  0  0  0  0  0
  191.1420  176.8250  147.8870 C   0  0  0  0  0  1  0  0  0  0  0  0
  191.1320  173.4950  145.1710 C   0  0  0  0  0  3  0  0  0  0  0  0
  189.9390  174.1760  145.4320 C   0  0  0  0  0  3  0  0  0  0  0  0
  191.1090  175.6710  146.9380 C   0  0  0  0  0  0  0  0  0  0  0  0
  189.0200  177.6070  144.9560 N   0  0  0  0  0  2  0  0  0  0  0  0
  189.0360  177.5570  143.5020 C   0  0  0  0  0  2  0  0  0  0  0  0
  192.6650  176.5290  143.2410 C   0  0  0  0  0  3  0  0  0  0  0  0
  193.7630  174.7260  142.0960 O   0  0  0  0  0  1  0  0  0  0  0  0
  191.3630  175.0210  141.8570 C   0  0  0  0  0  0  0  0  0  0  0  0
  191.3250  173.9000  141.0310 O   0  0  0  0  0  1  0  0  0  0  0  0
  190.1810  175.7230  142.2000 C   0  0  0  0  0  0  0  0  0  0  0  0
  192.5990  175.4360  142.3800 C   0  0  0  0  0  0  0  0  0  0  0  0
  190.2730  176.8420  143.0460 C   0  0  0  0  0  0  0  0  0  0  0  0
  191.5070  177.2220  143.5790 C   0  0  0  0  0  3  0  0  0  0  0  0
  188.1940  174.1870  142.2200 C   0  0  0  0  0  1  0  0  0  0  0  0
  188.8970  175.3360  141.7690 O   0  0  0  0  0  0  0  0  0  0  0  0
  1  8  1  0  0  0  0
  2  6  1  0  0  0  0
  3  1  1  6  0  0  0
  3  7  1  0  0  0  0
  4  5  1  0  0  0  0
  4  3  1  0  0  0  0
  5  2  1  0  0  0  0
  7  6  1  0  0  0  0
  9 15  1  0  0  0  0
 10  9  2  0  0  0  0
 11  8  1  0  0  0  0
 11 15  2  0  0  0  0
 13 14  2  0  0  0  0
 13 10  1  0  0  0  0
 14 11  1  0  0  0  0
 15 12  1  0  0  0  0
 16  1  1  0  0  0  0
 17 16  1  0  0  0  0
 18 25  1  0  0  0  0
 19 23  1  0  0  0  0
 20 22  2  0  0  0  0
 20 23  1  0  0  0  0
 21 20  1  0  0  0  0
 22 24  1  0  0  0  0
 23 18  2  0  0  0  0
 24 17  1  0  0  0  0
 24 25  2  0  0  0  0
 27 22  1  0  0  0  0
 27 26  1  0  0  0  0
M  END
>  <MODEL>
3

>  <REMARK>
 VINA RESULT:      -6.5      0.567      1.417
  Name = 
  7 active torsions:
  status: ('A' for Active; 'I' for Inactive)
    1  A    between atoms: C_1  and  N_15
    2  A    between atoms: C_1  and  C_18
    3  A    between atoms: N_2  and  C_6
    4  A    between atoms: N_2  and  N_15
    5  A    between atoms: C_6  and  C_17
    6  A    between atoms: C_9  and  N_15
    7  A    between atoms: C_14  and  O_19
                            x       y       z     vdW  Elec       q    Type
                         _______ _______ _______ _____ _____    ______ ____

>  <TORSDO>
F 7

$$$$
=
 OpenBabel11052418273D

 27 29  0  0  1  0  0  0  0  0999 V2000
  189.6280  175.5340  142.9910 N   0  0  0  0  0  0  0  0  0  0  0  0
  189.3140  172.5070  139.9510 C   0  0  0  0  0  2  0  0  0  0  0  0
  189.7270  174.6470  141.8170 C   0  0  1  0  0  3  0  0  0  0  0  0
  189.9060  173.2660  142.2360 N   0  0  0  0  0  2  0  0  0  0  0  0
  190.3620  172.4930  141.0750 C   0  0  0  0  0  2  0  0  0  0  0  0
  188.8690  173.9440  139.6200 C   0  0  0  0  0  2  0  0  0  0  0  0
  188.5130  174.7090  140.8840 C   0  0  0  0  0  2  0  0  0  0  0  0
  189.6740  174.7550  144.2540 C   0  0  0  0  0  2  0  0  0  0  0  0
  191.4110  175.6020  147.5470 C   0  0  0  0  0  3  0  0  0  0  0  0
  192.5930  176.1920  147.0880 C   0  0  0  0  0  3  0  0  0  0  0  0
  190.6840  175.2530  145.2580 C   0  0  0  0  0  0  0  0  0  0  0  0
  189.2080  174.5120  147.1790 C   0  0  0  0  0  1  0  0  0  0  0  0
  192.8200  176.3220  145.7130 C   0  0  0  0  0  3  0  0  0  0  0  0
  191.8630  175.8570  144.8060 C   0  0  0  0  0  3  0  0  0  0  0  0
  190.4550  175.1380  146.6410 C   0  0  0  0  0  0  0  0  0  0  0  0
  188.3830  176.1920  142.9160 N   0  0  0  0  0  2  0  0  0  0  0  0
  188.5520  177.5410  143.4330 C   0  0  0  0  0  2  0  0  0  0  0  0
  186.8620  177.8020  146.8050 C   0  0  0  0  0  3  0  0  0  0  0  0
  184.7850  178.7830  147.5080 O   0  0  0  0  0  1  0  0  0  0  0  0
  185.3830  178.7860  145.1530 C   0  0  0  0  0  0  0  0  0  0  0  0
  184.1960  179.4590  144.8710 O   0  0  0  0  0  1  0  0  0  0  0  0
  186.3150  178.4770  144.1310 C   0  0  0  0  0  0  0  0  0  0  0  0
  185.6650  178.4390  146.4850 C   0  0  0  0  0  0  0  0  0  0  0  0
  187.5030  177.8060  144.4710 C   0  0  0  0  0  0  0  0  0  0  0  0
  187.7790  177.4950  145.8040 C   0  0  0  0  0  3  0  0  0  0  0  0
  185.3030  178.1660  141.8540 C   0  0  0  0  0  1  0  0  0  0  0  0
  186.1370  178.8440  142.7830 O   0  0  0  0  0  0  0  0  0  0  0  0
  1  8  1  0  0  0  0
  2  5  1  0  0  0  0
  3  4  1  0  0  0  0
  3  1  1  1  0  0  0
  5  4  1  0  0  0  0
  6  2  1  0  0  0  0
  6  7  1  0  0  0  0
  7  3  1  0  0  0  0
  8 11  1  0  0  0  0
 10  9  1  0  0  0  0
 11 15  1  0  0  0  0
 13 10  2  0  0  0  0
 14 11  2  0  0  0  0
 14 13  1  0  0  0  0
 15 12  1  0  0  0  0
 15  9  2  0  0  0  0
 16  1  1  0  0  0  0
 16 17  1  0  0  0  0
 17 24  1  0  0  0  0
 20 23  2  0  0  0  0
 21 20  1  0  0  0  0
 22 24  2  0  0  0  0
 22 20  1  0  0  0  0
 23 18  1  0  0  0  0
 23 19  1  0  0  0  0
 24 25  1  0  0  0  0
 25 18  2  0  0  0  0
 26 27  1  0  0  0  0
 27 22  1  0  0  0  0
M  END
>  <MODEL>
4

>  <REMARK>
 VINA RESULT:      -6.4      2.880      5.924
  Name = 
  7 active torsions:
  status: ('A' for Active; 'I' for Inactive)
    1  A    between atoms: C_1  and  N_15
    2  A    between atoms: C_1  and  C_18
    3  A    between atoms: N_2  and  C_6
    4  A    between atoms: N_2  and  N_15
    5  A    between atoms: C_6  and  C_17
    6  A    between atoms: C_9  and  N_15
    7  A    between atoms: C_14  and  O_19
                            x       y       z     vdW  Elec       q    Type
                         _______ _______ _______ _____ _____    ______ ____

>  <TORSDO>
F 7

$$$$
=
 OpenBabel11052418273D

 27 29  0  0  1  0  0  0  0  0999 V2000
  189.1250  175.2710  141.9820 N   0  0  0  0  0  0  0  0  0  0  0  0
  189.5020  172.0130  139.1980 C   0  0  0  0  0  2  0  0  0  0  0  0
  189.1030  174.0060  141.2230 C   0  0  1  0  0  3  0  0  0  0  0  0
  188.6250  174.2340  139.8680 N   0  0  0  0  0  2  0  0  0  0  0  0
  188.2740  172.9340  139.2840 C   0  0  0  0  0  2  0  0  0  0  0  0
  190.2290  171.9230  140.5520 C   0  0  0  0  0  2  0  0  0  0  0  0
  190.4640  173.3060  141.1380 C   0  0  0  0  0  2  0  0  0  0  0  0
  190.3150  175.3420  142.8660 C   0  0  0  0  0  2  0  0  0  0  0  0
  189.6460  176.8690  146.3000 C   0  0  0  0  0  3  0  0  0  0  0  0
  189.3880  175.7250  147.0630 C   0  0  0  0  0  3  0  0  0  0  0  0
  189.9940  175.4930  144.3330 C   0  0  0  0  0  0  0  0  0  0  0  0
  190.2200  178.0110  144.1700 C   0  0  0  0  0  1  0  0  0  0  0  0
  189.4410  174.4610  146.4640 C   0  0  0  0  0  3  0  0  0  0  0  0
  189.7470  174.3510  145.1040 C   0  0  0  0  0  3  0  0  0  0  0  0
  189.9540  176.7600  144.9430 C   0  0  0  0  0  0  0  0  0  0  0  0
  187.9670  175.2970  142.7870 N   0  0  0  0  0  2  0  0  0  0  0  0
  187.0850  176.3360  142.2790 C   0  0  0  0  0  2  0  0  0  0  0  0
  185.7000  176.8410  145.7600 C   0  0  0  0  0  3  0  0  0  0  0  0
  184.1300  178.4150  146.6700 O   0  0  0  0  0  1  0  0  0  0  0  0
  184.6200  178.4400  144.2900 C   0  0  0  0  0  0  0  0  0  0  0  0
  183.7420  179.5110  144.1380 O   0  0  0  0  0  1  0  0  0  0  0  0
  185.3500  177.9250  143.1900 C   0  0  0  0  0  0  0  0  0  0  0  0
  184.7990  177.8860  145.5690 C   0  0  0  0  0  0  0  0  0  0  0  0
  186.2310  176.8490  143.3990 C   0  0  0  0  0  0  0  0  0  0  0  0
  186.4180  176.3320  144.6820 C   0  0  0  0  0  3  0  0  0  0  0  0
  184.2300  178.2100  140.9600 C   0  0  0  0  0  1  0  0  0  0  0  0
  185.2740  178.4630  141.8900 O   0  0  0  0  0  0  0  0  0  0  0  0
  1 16  1  0  0  0  0
  1  8  1  0  0  0  0
  2  5  1  0  0  0  0
  2  6  1  0  0  0  0
  3  1  1  6  0  0  0
  4  3  1  0  0  0  0
  5  4  1  0  0  0  0
  6  7  1  0  0  0  0
  7  3  1  0  0  0  0
  8 11  1  0  0  0  0
  9 10  1  0  0  0  0
 11 15  1  0  0  0  0
 11 14  2  0  0  0  0
 12 15  1  0  0  0  0
 13 10  2  0  0  0  0
 14 13  1  0  0  0  0
 15  9  2  0  0  0  0
 17 16  1  0  0  0  0
 17 24  1  0  0  0  0
 20 23  2  0  0  0  0
 21 20  1  0  0  0  0
 22 24  2  0  0  0  0
 22 20  1  0  0  0  0
 23 18  1  0  0  0  0
 23 19  1  0  0  0  0
 24 25  1  0  0  0  0
 25 18  2  0  0  0  0
 26 27  1  0  0  0  0
 27 22  1  0  0  0  0
M  END
>  <MODEL>
5

>  <REMARK>
 VINA RESULT:      -6.3      3.205      6.467
  Name = 
  7 active torsions:
  status: ('A' for Active; 'I' for Inactive)
    1  A    between atoms: C_1  and  N_15
    2  A    between atoms: C_1  and  C_18
    3  A    between atoms: N_2  and  C_6
    4  A    between atoms: N_2  and  N_15
    5  A    between atoms: C_6  and  C_17
    6  A    between atoms: C_9  and  N_15
    7  A    between atoms: C_14  and  O_19
                            x       y       z     vdW  Elec       q    Type
                         _______ _______ _______ _____ _____    ______ ____

>  <TORSDO>
F 7

$$$$
=
 OpenBabel11052418273D

 27 29  0  0  1  0  0  0  0  0999 V2000
  188.0790  176.0360  144.7940 N   0  0  0  0  0  0  0  0  0  0  0  0
  188.9610  174.3300  140.9440 C   0  0  0  0  0  2  0  0  0  0  0  0
  188.5030  175.7070  143.4200 C   0  0  1  0  0  3  0  0  0  0  0  0
  189.2520  174.4600  143.4040 N   0  0  0  0  0  2  0  0  0  0  0  0
  189.9530  174.3660  142.1190 C   0  0  0  0  0  2  0  0  0  0  0  0
  187.9500  175.4890  141.0320 C   0  0  0  0  0  2  0  0  0  0  0  0
  187.3450  175.5810  142.4230 C   0  0  0  0  0  2  0  0  0  0  0  0
  187.9440  177.5040  144.9740 C   0  0  0  0  0  2  0  0  0  0  0  0
  184.4890  179.0870  144.6120 C   0  0  0  0  0  3  0  0  0  0  0  0
  183.9290  178.8120  145.8640 C   0  0  0  0  0  3  0  0  0  0  0  0
  186.5390  177.9690  145.2700 C   0  0  0  0  0  0  0  0  0  0  0  0
  186.3420  178.9920  142.9600 C   0  0  0  0  0  1  0  0  0  0  0  0
  184.6770  178.1210  146.8250 C   0  0  0  0  0  3  0  0  0  0  0  0
  185.9780  177.7080  146.5250 C   0  0  0  0  0  3  0  0  0  0  0  0
  185.7890  178.6750  144.3120 C   0  0  0  0  0  0  0  0  0  0  0  0
  189.0840  175.5690  145.6660 N   0  0  0  0  0  2  0  0  0  0  0  0
  189.9630  176.6840  145.9820 C   0  0  0  0  0  2  0  0  0  0  0  0
  193.2800  174.9770  146.5910 C   0  0  0  0  0  3  0  0  0  0  0  0
  195.2550  174.7390  145.2460 O   0  0  0  0  0  1  0  0  0  0  0  0
  193.3850  176.0520  144.4200 C   0  0  0  0  0  0  0  0  0  0  0  0
  194.0970  176.2980  143.2480 O   0  0  0  0  0  1  0  0  0  0  0  0
  192.0670  176.5430  144.5970 C   0  0  0  0  0  0  0  0  0  0  0  0
  193.9820  175.2740  145.4260 C   0  0  0  0  0  0  0  0  0  0  0  0
  191.3880  176.2580  145.7940 C   0  0  0  0  0  0  0  0  0  0  0  0
  191.9870  175.4590  146.7710 C   0  0  0  0  0  3  0  0  0  0  0  0
  191.2830  178.6930  143.5630 C   0  0  0  0  0  1  0  0  0  0  0  0
  191.3750  177.2770  143.6140 O   0  0  0  0  0  0  0  0  0  0  0  0
  1  8  1  0  0  0  0
  1 16  1  0  0  0  0
  2  6  1  0  0  0  0
  2  5  1  0  0  0  0
  3  1  1  1  0  0  0
  4  3  1  0  0  0  0
  5  4  1  0  0  0  0
  6  7  1  0  0  0  0
  7  3  1  0  0  0  0
  8 11  1  0  0  0  0
  9 10  1  0  0  0  0
 10 13  2  0  0  0  0
 11 14  2  0  0  0  0
 12 15  1  0  0  0  0
 14 13  1  0  0  0  0
 15  9  2  0  0  0  0
 15 11  1  0  0  0  0
 16 17  1  0  0  0  0
 18 25  1  0  0  0  0
 19 23  1  0  0  0  0
 20 22  2  0  0  0  0
 20 23  1  0  0  0  0
 21 20  1  0  0  0  0
 22 24  1  0  0  0  0
 23 18  2  0  0  0  0
 24 17  1  0  0  0  0
 24 25  2  0  0  0  0
 26 27  1  0  0  0  0
 27 22  1  0  0  0  0
M  END
>  <MODEL>
6

>  <REMARK>
 VINA RESULT:      -6.3      1.867      5.306
  Name = 
  7 active torsions:
  status: ('A' for Active; 'I' for Inactive)
    1  A    between atoms: C_1  and  N_15
    2  A    between atoms: C_1  and  C_18
    3  A    between atoms: N_2  and  C_6
    4  A    between atoms: N_2  and  N_15
    5  A    between atoms: C_6  and  C_17
    6  A    between atoms: C_9  and  N_15
    7  A    between atoms: C_14  and  O_19
                            x       y       z     vdW  Elec       q    Type
                         _______ _______ _______ _____ _____    ______ ____

>  <TORSDO>
F 7

$$$$
=
 OpenBabel11052418273D

 27 29  0  0  1  0  0  0  0  0999 V2000
  187.7400  176.7550  144.3350 N   0  0  0  0  0  0  0  0  0  0  0  0
  184.3050  178.5820  146.1700 C   0  0  0  0  0  2  0  0  0  0  0  0
  186.4140  177.2420  144.7590 C   0  0  1  0  0  3  0  0  0  0  0  0
  186.2120  176.9980  146.1790 N   0  0  0  0  0  2  0  0  0  0  0  0
  184.7830  177.1520  146.4690 C   0  0  0  0  0  2  0  0  0  0  0  0
  184.7140  179.0220  144.7520 C   0  0  0  0  0  2  0  0  0  0  0  0
  186.1850  178.7350  144.4950 C   0  0  0  0  0  2  0  0  0  0  0  0
  188.7860  177.7820  144.5670 C   0  0  0  0  0  2  0  0  0  0  0  0
  192.3790  176.6440  145.1750 C   0  0  0  0  0  3  0  0  0  0  0  0
  192.3280  176.2910  146.5280 C   0  0  0  0  0  3  0  0  0  0  0  0
  190.0340  177.2610  145.2380 C   0  0  0  0  0  0  0  0  0  0  0  0
  191.3430  177.4880  143.0810 C   0  0  0  0  0  1  0  0  0  0  0  0
  191.1280  176.4150  147.2370 C   0  0  0  0  0  3  0  0  0  0  0  0
  189.9860  176.8950  146.5880 C   0  0  0  0  0  3  0  0  0  0  0  0
  191.2390  177.1220  144.5270 C   0  0  0  0  0  0  0  0  0  0  0  0
  187.6670  176.4940  142.9500 N   0  0  0  0  0  2  0  0  0  0  0  0
  187.5950  175.0540  142.7640 C   0  0  0  0  0  2  0  0  0  0  0  0
  190.8270  173.4200  143.8500 C   0  0  0  0  0  3  0  0  0  0  0  0
  192.7330  172.6220  142.6280 O   0  0  0  0  0  1  0  0  0  0  0  0
  190.9140  173.7140  141.4440 C   0  0  0  0  0  0  0  0  0  0  0  0
  191.5960  173.5140  140.2470 O   0  0  0  0  0  1  0  0  0  0  0  0
  189.6350  174.3240  141.4700 C   0  0  0  0  0  0  0  0  0  0  0  0
  191.5010  173.2710  142.6410 C   0  0  0  0  0  0  0  0  0  0  0  0
  188.9850  174.4940  142.7060 C   0  0  0  0  0  0  0  0  0  0  0  0
  189.5720  174.0210  143.8810 C   0  0  0  0  0  3  0  0  0  0  0  0
  188.4090  173.8730  139.3260 C   0  0  0  0  0  1  0  0  0  0  0  0
  188.9510  174.7400  140.3110 O   0  0  0  0  0  0  0  0  0  0  0  0
  1  8  1  0  0  0  0
  2  5  1  0  0  0  0
  3  1  1  1  0  0  0
  3  4  1  0  0  0  0
  4  5  1  0  0  0  0
  6  2  1  0  0  0  0
  7  6  1  0  0  0  0
  7  3  1  0  0  0  0
  8 11  1  0  0  0  0
  9 10  1  0  0  0  0
 10 13  2  0  0  0  0
 11 14  2  0  0  0  0
 12 15  1  0  0  0  0
 14 13  1  0  0  0  0
 15  9  2  0  0  0  0
 15 11  1  0  0  0  0
 16  1  1  0  0  0  0
 17 16  1  0  0  0  0
 18 25  1  0  0  0  0
 19 23  1  0  0  0  0
 20 22  2  0  0  0  0
 20 23  1  0  0  0  0
 21 20  1  0  0  0  0
 22 24  1  0  0  0  0
 23 18  2  0  0  0  0
 24 17  1  0  0  0  0
 24 25  2  0  0  0  0
 26 27  1  0  0  0  0
 27 22  1  0  0  0  0
M  END
>  <MODEL>
7

>  <REMARK>
 VINA RESULT:      -6.2      1.520      2.404
  Name = 
  7 active torsions:
  status: ('A' for Active; 'I' for Inactive)
    1  A    between atoms: C_1  and  N_15
    2  A    between atoms: C_1  and  C_18
    3  A    between atoms: N_2  and  C_6
    4  A    between atoms: N_2  and  N_15
    5  A    between atoms: C_6  and  C_17
    6  A    between atoms: C_9  and  N_15
    7  A    between atoms: C_14  and  O_19
                            x       y       z     vdW  Elec       q    Type
                         _______ _______ _______ _____ _____    ______ ____

>  <TORSDO>
F 7

$$$$
=
 OpenBabel11052418273D

 27 29  0  0  1  0  0  0  0  0999 V2000
  189.7740  175.3880  144.7840 N   0  0  0  0  0  0  0  0  0  0  0  0
  189.2740  172.8190  141.3700 C   0  0  0  0  0  2  0  0  0  0  0  0
  189.3220  174.5260  143.6760 C   0  0  1  0  0  3  0  0  0  0  0  0
  189.8810  174.9850  142.4130 N   0  0  0  0  0  2  0  0  0  0  0  0
  189.1310  174.3490  141.3250 C   0  0  0  0  0  2  0  0  0  0  0  0
  188.9480  172.2690  142.7710 C   0  0  0  0  0  2  0  0  0  0  0  0
  189.6850  173.0470  143.8490 C   0  0  0  0  0  2  0  0  0  0  0  0
  190.5320  174.6060  145.7940 C   0  0  0  0  0  2  0  0  0  0  0  0
  193.6930  176.3770  146.9960 C   0  0  0  0  0  3  0  0  0  0  0  0
  194.6690  175.7600  146.2070 C   0  0  0  0  0  3  0  0  0  0  0  0
  191.9740  175.0220  145.9500 C   0  0  0  0  0  0  0  0  0  0  0  0
  191.3440  176.7050  147.7350 C   0  0  0  0  0  1  0  0  0  0  0  0
  194.2990  174.7780  145.2810 C   0  0  0  0  0  3  0  0  0  0  0  0
  192.9540  174.4170  145.1540 C   0  0  0  0  0  3  0  0  0  0  0  0
  192.3500  176.0180  146.8690 C   0  0  0  0  0  0  0  0  0  0  0  0
  188.6220  175.9170  145.4010 N   0  0  0  0  0  2  0  0  0  0  0  0
  188.5660  177.3410  145.1100 C   0  0  0  0  0  2  0  0  0  0  0  0
  185.8020  177.5520  142.5390 C   0  0  0  0  0  3  0  0  0  0  0  0
  183.5020  178.2260  142.6800 O   0  0  0  0  0  1  0  0  0  0  0  0
  184.9240  178.3760  144.6440 C   0  0  0  0  0  0  0  0  0  0  0  0
  183.8380  178.8570  145.3720 O   0  0  0  0  0  1  0  0  0  0  0  0
  186.1840  178.1610  145.2560 C   0  0  0  0  0  0  0  0  0  0  0  0
  184.7470  178.0720  143.2840 C   0  0  0  0  0  0  0  0  0  0  0  0
  187.2450  177.6640  144.4780 C   0  0  0  0  0  0  0  0  0  0  0  0
  187.0420  177.3410  143.1350 C   0  0  0  0  0  3  0  0  0  0  0  0
  186.0380  177.5090  147.6770 C   0  0  0  0  0  1  0  0  0  0  0  0
  186.4270  178.3820  146.6260 O   0  0  0  0  0  0  0  0  0  0  0  0
  1 16  1  0  0  0  0
  1  8  1  0  0  0  0
  2  6  1  0  0  0  0
  3  7  1  0  0  0  0
  3  1  1  1  0  0  0
  4  3  1  0  0  0  0
  5  2  1  0  0  0  0
  5  4  1  0  0  0  0
  6  7  1  0  0  0  0
  8 11  1  0  0  0  0
 10  9  2  0  0  0  0
 11 15  2  0  0  0  0
 13 10  1  0  0  0  0
 14 13  2  0  0  0  0
 14 11  1  0  0  0  0
 15  9  1  0  0  0  0
 15 12  1  0  0  0  0
 17 16  1  0  0  0  0
 18 25  2  0  0  0  0
 18 23  1  0  0  0  0
 19 23  1  0  0  0  0
 20 22  1  0  0  0  0
 20 21  1  0  0  0  0
 22 27  1  0  0  0  0
 23 20  2  0  0  0  0
 24 17  1  0  0  0  0
 24 22  2  0  0  0  0
 25 24  1  0  0  0  0
 27 26  1  0  0  0  0
M  END
>  <MODEL>
8

>  <REMARK>
 VINA RESULT:      -6.2      3.198      5.846
  Name = 
  7 active torsions:
  status: ('A' for Active; 'I' for Inactive)
    1  A    between atoms: C_1  and  N_15
    2  A    between atoms: C_1  and  C_18
    3  A    between atoms: N_2  and  C_6
    4  A    between atoms: N_2  and  N_15
    5  A    between atoms: C_6  and  C_17
    6  A    between atoms: C_9  and  N_15
    7  A    between atoms: C_14  and  O_19
                            x       y       z     vdW  Elec       q    Type
                         _______ _______ _______ _____ _____    ______ ____

>  <TORSDO>
F 7

$$$$
=
 OpenBabel11052418273D

 27 29  0  0  1  0  0  0  0  0999 V2000
  190.0200  175.1870  144.3750 N   0  0  0  0  0  0  0  0  0  0  0  0
  189.3730  172.6310  140.9750 C   0  0  0  0  0  2  0  0  0  0  0  0
  189.5210  174.3280  143.2850 C   0  0  1  0  0  3  0  0  0  0  0  0
  190.0200  174.7940  142.0000 N   0  0  0  0  0  2  0  0  0  0  0  0
  189.2230  174.1600  140.9440 C   0  0  0  0  0  2  0  0  0  0  0  0
  189.1120  172.0730  142.3870 C   0  0  0  0  0  2  0  0  0  0  0  0
  189.8960  172.8490  143.4340 C   0  0  0  0  0  2  0  0  0  0  0  0
  191.1030  174.5100  145.1340 C   0  0  0  0  0  2  0  0  0  0  0  0
  193.6520  176.7470  146.8860 C   0  0  0  0  0  3  0  0  0  0  0  0
  194.5710  176.9740  145.8560 C   0  0  0  0  0  3  0  0  0  0  0  0
  192.3100  175.3750  145.4020 C   0  0  0  0  0  0  0  0  0  0  0  0
  191.5710  175.7420  147.7970 C   0  0  0  0  0  1  0  0  0  0  0  0
  194.3570  176.4080  144.5940 C   0  0  0  0  0  3  0  0  0  0  0  0
  193.2260  175.6160  144.3720 C   0  0  0  0  0  3  0  0  0  0  0  0
  192.5230  175.9570  146.6650 C   0  0  0  0  0  0  0  0  0  0  0  0
  188.9400  175.4240  145.2500 N   0  0  0  0  0  2  0  0  0  0  0  0
  188.9410  176.8360  145.5970 C   0  0  0  0  0  2  0  0  0  0  0  0
  185.4570  177.7300  146.7620 C   0  0  0  0  0  3  0  0  0  0  0  0
  183.6900  179.0120  145.7620 O   0  0  0  0  0  1  0  0  0  0  0  0
  185.7500  178.6330  144.5300 C   0  0  0  0  0  0  0  0  0  0  0  0
  185.2360  179.3840  143.4750 O   0  0  0  0  0  1  0  0  0  0  0  0
  187.0580  178.0910  144.4800 C   0  0  0  0  0  0  0  0  0  0  0  0
  184.9570  178.4410  145.6740 C   0  0  0  0  0  0  0  0  0  0  0  0
  187.5320  177.3500  145.5770 C   0  0  0  0  0  0  0  0  0  0  0  0
  186.7400  177.1940  146.7170 C   0  0  0  0  0  3  0  0  0  0  0  0
  187.8390  177.6470  142.1350 C   0  0  0  0  0  1  0  0  0  0  0  0
  187.9380  178.2890  143.3980 O   0  0  0  0  0  0  0  0  0  0  0  0
  1  8  1  0  0  0  0
  1 16  1  0  0  0  0
  2  6  1  0  0  0  0
  3  7  1  0  0  0  0
  3  1  1  1  0  0  0
  4  3  1  0  0  0  0
  5  2  1  0  0  0  0
  5  4  1  0  0  0  0
  6  7  1  0  0  0  0
  8 11  1  0  0  0  0
 10  9  2  0  0  0  0
 11 15  2  0  0  0  0
 13 10  1  0  0  0  0
 14 13  2  0  0  0  0
 14 11  1  0  0  0  0
 15  9  1  0  0  0  0
 15 12  1  0  0  0  0
 16 17  1  0  0  0  0
 20 23  1  0  0  0  0
 21 20  1  0  0  0  0
 22 20  2  0  0  0  0
 22 24  1  0  0  0  0
 23 19  1  0  0  0  0
 23 18  2  0  0  0  0
 24 17  1  0  0  0  0
 24 25  2  0  0  0  0
 25 18  1  0  0  0  0
 26 27  1  0  0  0  0
 27 22  1  0  0  0  0
M  END
>  <MODEL>
9

>  <REMARK>
 VINA RESULT:      -6.1      2.632      5.817
  Name = 
  7 active torsions:
  status: ('A' for Active; 'I' for Inactive)
    1  A    between atoms: C_1  and  N_15
    2  A    between atoms: C_1  and  C_18
    3  A    between atoms: N_2  and  C_6
    4  A    between atoms: N_2  and  N_15
    5  A    between atoms: C_6  and  C_17
    6  A    between atoms: C_9  and  N_15
    7  A    between atoms: C_14  and  O_19
                            x       y       z     vdW  Elec       q    Type
                         _______ _______ _______ _____ _____    ______ ____

>  <TORSDO>
F 7

$$$$
