=
 OpenBabel11052418183D

 27 31  0  0  1  0  0  0  0  0999 V2000
  188.5250  176.9920  142.6070 N   0  0  0  0  0  2  0  0  0  0  0  0
  189.1340  176.4720  144.9100 C   0  0  0  0  0  0  0  0  0  0  0  0
  190.5120  175.0680  143.4250 N   0  0  0  0  0  2  0  0  0  0  0  0
  192.3220  176.7330  147.5710 N   0  0  0  0  0  0  0  0  0  0  0  0
  194.6130  177.0970  146.8110 C   0  0  0  0  0  1  0  0  0  0  0  0
  189.0340  177.2810  146.1640 C   0  0  0  0  0  3  0  0  0  0  0  0
  192.6530  176.0880  145.4100 C   0  0  2  0  0  3  0  0  0  0  0  0
  188.9550  172.8280  141.3550 C   0  0  0  0  0  2  0  0  0  0  0  0
  193.3170  176.1120  144.0730 C   0  0  0  0  0  1  0  0  0  0  0  0
  188.2400  173.1250  140.0320 C   0  0  0  0  0  2  0  0  0  0  0  0
  191.3660  175.8810  145.6420 C   0  0  1  0  0  3  0  0  0  0  0  0
  188.0130  176.5180  143.8920 C   0  0  1  0  0  3  0  0  0  0  0  0
  193.2140  176.6190  146.6420 C   0  0  0  0  0  0  0  0  0  0  0  0
  191.0620  176.1950  147.0690 C   0  0  2  0  0  3  0  0  0  0  0  0
  188.8770  175.8660  141.7350 C   0  0  2  0  0  3  0  0  0  0  0  0
  190.2840  175.7990  144.6440 C   0  0  0  0  0  0  0  0  0  0  0  0
  190.0000  173.7310  141.5790 O   0  0  0  0  0  0  0  0  0  0  0  0
  189.9450  177.1970  147.1460 C   0  0  0  0  0  3  0  0  0  0  0  0
  188.1130  174.6160  139.7030 C   0  0  0  0  0  2  0  0  0  0  0  0
  187.6690  175.4570  140.8950 C   0  0  0  0  0  2  0  0  0  0  0  0
  189.4740  174.6570  142.4880 C   0  0  1  0  0  3  0  0  0  0  0  0
  184.5770  178.7760  145.1580 C   0  0  0  0  0  3  0  0  0  0  0  0
  186.8100  177.3120  144.3140 C   0  0  0  0  0  0  0  0  0  0  0  0
  185.9730  176.8040  145.3120 C   0  0  0  0  0  3  0  0  0  0  0  0
  184.8560  177.5340  145.7330 C   0  0  0  0  0  3  0  0  0  0  0  0
  185.4130  179.2920  144.1640 C   0  0  0  0  0  3  0  0  0  0  0  0
  186.5280  178.5630  143.7430 C   0  0  0  0  0  3  0  0  0  0  0  0
  1 12  1  0  0  0  0
  2  6  1  0  0  0  0
  3 16  1  0  0  0  0
  6 18  2  0  0  0  0
  7  9  1  6  0  0  0
  7 11  1  0  0  0  0
  7 13  1  0  0  0  0
  8 17  1  0  0  0  0
 10  8  1  0  0  0  0
 11 16  1  6  0  0  0
 11 14  1  0  0  0  0
 12 23  1  1  0  0  0
 12  2  1  0  0  0  0
 13  5  1  0  0  0  0
 13  4  2  0  0  0  0
 14 18  1  6  0  0  0
 14  4  1  0  0  0  0
 15 20  1  1  0  0  0
 15 21  1  0  0  0  0
 15  1  1  0  0  0  0
 16  2  2  0  0  0  0
 19 10  1  0  0  0  0
 19 20  1  0  0  0  0
 21 17  1  6  0  0  0
 21  3  1  0  0  0  0
 22 25  1  0  0  0  0
 23 24  1  0  0  0  0
 24 25  2  0  0  0  0
 26 22  2  0  0  0  0
 27 26  1  0  0  0  0
 27 23  2  0  0  0  0
M  END
>  <MODEL>
1

>  <REMARK>
 VINA RESULT:      -8.1      0.000      0.000
  Name = 
  1 active torsions:
  status: ('A' for Active; 'I' for Inactive)
    1  A    between atoms: C_9  and  C_15
                            x       y       z     vdW  Elec       q    Type
                         _______ _______ _______ _____ _____    ______ ____

>  <TORSDO>
F 1

$$$$
=
 OpenBabel11052418183D

 27 31  0  0  1  0  0  0  0  0999 V2000
  188.3060  175.4580  145.7140 N   0  0  0  0  0  2  0  0  0  0  0  0
  188.0910  176.1770  143.3950 C   0  0  0  0  0  0  0  0  0  0  0  0
  190.3100  175.1390  143.6640 N   0  0  0  0  0  2  0  0  0  0  0  0
  187.8890  174.6640  139.5230 N   0  0  0  0  0  0  0  0  0  0  0  0
  188.5910  172.3880  138.9870 C   0  0  0  0  0  1  0  0  0  0  0  0
  186.8860  176.3970  142.5360 C   0  0  0  0  0  3  0  0  0  0  0  0
  189.3650  173.8100  141.0360 C   0  0  2  0  0  3  0  0  0  0  0  0
  192.5360  176.5440  145.8560 C   0  0  0  0  0  2  0  0  0  0  0  0
  190.0590  172.7270  141.7940 C   0  0  0  0  0  1  0  0  0  0  0  0
  192.5440  176.4170  147.3830 C   0  0  0  0  0  2  0  0  0  0  0  0
  189.0470  175.0100  141.4990 C   0  0  1  0  0  3  0  0  0  0  0  0
  188.0730  176.6110  144.8450 C   0  0  1  0  0  3  0  0  0  0  0  0
  188.6220  173.6350  139.7990 C   0  0  0  0  0  0  0  0  0  0  0  0
  188.1420  175.6910  140.5270 C   0  0  2  0  0  3  0  0  0  0  0  0
  189.7260  175.3460  146.0690 C   0  0  2  0  0  3  0  0  0  0  0  0
  189.1450  175.4810  142.8920 C   0  0  0  0  0  0  0  0  0  0  0  0
  192.0010  175.3990  145.2550 O   0  0  0  0  0  0  0  0  0  0  0  0
  186.8830  176.1300  141.2210 C   0  0  0  0  0  3  0  0  0  0  0  0
  191.3290  175.6850  147.9630 C   0  0  0  0  0  2  0  0  0  0  0  0
  190.0090  176.1340  147.3460 C   0  0  0  0  0  2  0  0  0  0  0  0
  190.6860  175.7540  144.9310 C   0  0  1  0  0  3  0  0  0  0  0  0
  184.5430  178.7210  146.1070 C   0  0  0  0  0  3  0  0  0  0  0  0
  186.8390  177.3550  145.2660 C   0  0  0  0  0  0  0  0  0  0  0  0
  185.9370  176.7420  146.1420 C   0  0  0  0  0  3  0  0  0  0  0  0
  184.7900  177.4230  146.5610 C   0  0  0  0  0  3  0  0  0  0  0  0
  185.4430  179.3410  145.2360 C   0  0  0  0  0  3  0  0  0  0  0  0
  186.5890  178.6610  144.8160 C   0  0  0  0  0  3  0  0  0  0  0  0
  1 15  1  0  0  0  0
  2 12  1  0  0  0  0
  4 13  2  0  0  0  0
  4 14  1  0  0  0  0
  5 13  1  0  0  0  0
  6  2  1  0  0  0  0
  7 11  1  0  0  0  0
  7  9  1  1  0  0  0
  8 10  1  0  0  0  0
 10 19  1  0  0  0  0
 11 16  1  1  0  0  0
 12 23  1  1  0  0  0
 12  1  1  0  0  0  0
 13  7  1  0  0  0  0
 14 18  1  1  0  0  0
 14 11  1  0  0  0  0
 15 20  1  1  0  0  0
 16  2  2  0  0  0  0
 16  3  1  0  0  0  0
 17  8  1  0  0  0  0
 18  6  2  0  0  0  0
 20 19  1  0  0  0  0
 21  3  1  6  0  0  0
 21 17  1  0  0  0  0
 21 15  1  0  0  0  0
 22 25  1  0  0  0  0
 23 24  1  0  0  0  0
 24 25  2  0  0  0  0
 26 22  2  0  0  0  0
 27 26  1  0  0  0  0
 27 23  2  0  0  0  0
M  END
>  <MODEL>
2

>  <REMARK>
 VINA RESULT:      -8.0      1.707      5.509
  Name = 
  1 active torsions:
  status: ('A' for Active; 'I' for Inactive)
    1  A    between atoms: C_9  and  C_15
                            x       y       z     vdW  Elec       q    Type
                         _______ _______ _______ _____ _____    ______ ____

>  <TORSDO>
F 1

$$$$
=
 OpenBabel11052418183D

 27 31  0  0  1  0  0  0  0  0999 V2000
  188.7290  176.7750  142.1240 N   0  0  0  0  0  2  0  0  0  0  0  0
  189.1620  176.4140  144.4950 C   0  0  0  0  0  0  0  0  0  0  0  0
  190.5540  174.8290  143.2200 N   0  0  0  0  0  2  0  0  0  0  0  0
  192.1850  176.7330  147.3370 N   0  0  0  0  0  0  0  0  0  0  0  0
  194.5360  176.9220  146.7060 C   0  0  0  0  0  1  0  0  0  0  0  0
  189.0280  177.3250  145.6740 C   0  0  0  0  0  3  0  0  0  0  0  0
  192.6170  175.9000  145.2590 C   0  0  2  0  0  3  0  0  0  0  0  0
  189.0110  172.5070  141.2300 C   0  0  0  0  0  2  0  0  0  0  0  0
  193.3650  175.7830  143.9730 C   0  0  0  0  0  1  0  0  0  0  0  0
  188.3990  172.7300  139.8440 C   0  0  0  0  0  2  0  0  0  0  0  0
  191.3090  175.7760  145.4190 C   0  0  1  0  0  3  0  0  0  0  0  0
  188.1120  176.4320  143.4050 C   0  0  1  0  0  3  0  0  0  0  0  0
  193.1270  176.5010  146.4810 C   0  0  0  0  0  0  0  0  0  0  0  0
  190.9330  176.2190  146.7950 C   0  0  2  0  0  3  0  0  0  0  0  0
  189.0740  175.5660  141.3670 C   0  0  2  0  0  3  0  0  0  0  0  0
  190.2890  175.6670  144.3600 C   0  0  0  0  0  0  0  0  0  0  0  0
  190.0870  173.3730  141.4540 O   0  0  0  0  0  0  0  0  0  0  0  0
  189.8690  177.2770  146.7180 C   0  0  0  0  0  3  0  0  0  0  0  0
  188.3730  174.1950  139.3920 C   0  0  0  0  0  2  0  0  0  0  0  0
  187.9010  175.1500  140.4830 C   0  0  0  0  0  2  0  0  0  0  0  0
  189.5560  174.3940  142.2500 C   0  0  1  0  0  3  0  0  0  0  0  0
  184.7320  178.9900  144.1430 C   0  0  0  0  0  3  0  0  0  0  0  0
  186.9300  177.3160  143.6810 C   0  0  0  0  0  0  0  0  0  0  0  0
  186.9570  178.6460  143.2510 C   0  0  0  0  0  3  0  0  0  0  0  0
  185.8610  179.4830  143.4820 C   0  0  0  0  0  3  0  0  0  0  0  0
  184.6980  177.6600  144.5710 C   0  0  0  0  0  3  0  0  0  0  0  0
  185.7930  176.8230  144.3400 C   0  0  0  0  0  3  0  0  0  0  0  0
  1 12  1  0  0  0  0
  2  6  1  0  0  0  0
  3 16  1  0  0  0  0
  6 18  2  0  0  0  0
  7  9  1  6  0  0  0
  7 11  1  0  0  0  0
  7 13  1  0  0  0  0
  8 17  1  0  0  0  0
 10  8  1  0  0  0  0
 11 16  1  6  0  0  0
 11 14  1  0  0  0  0
 12 23  1  1  0  0  0
 12  2  1  0  0  0  0
 13  5  1  0  0  0  0
 13  4  2  0  0  0  0
 14 18  1  6  0  0  0
 14  4  1  0  0  0  0
 15 20  1  1  0  0  0
 15  1  1  0  0  0  0
 15 21  1  0  0  0  0
 16  2  2  0  0  0  0
 19 10  1  0  0  0  0
 19 20  1  0  0  0  0
 21 17  1  6  0  0  0
 21  3  1  0  0  0  0
 22 26  1  0  0  0  0
 23 27  1  0  0  0  0
 24 25  1  0  0  0  0
 24 23  2  0  0  0  0
 25 22  2  0  0  0  0
 27 26  2  0  0  0  0
M  END
>  <MODEL>
3

>  <REMARK>
 VINA RESULT:      -7.6      0.555      1.067
  Name = 
  1 active torsions:
  status: ('A' for Active; 'I' for Inactive)
    1  A    between atoms: C_9  and  C_15
                            x       y       z     vdW  Elec       q    Type
                         _______ _______ _______ _____ _____    ______ ____

>  <TORSDO>
F 1

$$$$
=
 OpenBabel11052418183D

 27 31  0  0  1  0  0  0  0  0999 V2000
  189.7470  175.1580  145.6600 N   0  0  0  0  0  2  0  0  0  0  0  0
  189.0090  175.6380  143.3870 C   0  0  0  0  0  0  0  0  0  0  0  0
  191.3650  174.9240  143.2840 N   0  0  0  0  0  2  0  0  0  0  0  0
  188.3200  173.7810  139.7280 N   0  0  0  0  0  0  0  0  0  0  0  0
  189.2310  171.5770  139.2050 C   0  0  0  0  0  1  0  0  0  0  0  0
  187.6470  175.6240  142.7670 C   0  0  0  0  0  3  0  0  0  0  0  0
  190.1550  173.2610  140.9750 C   0  0  2  0  0  3  0  0  0  0  0  0
  193.7290  176.7910  144.9140 C   0  0  0  0  0  2  0  0  0  0  0  0
  191.1250  172.3470  141.6480 C   0  0  0  0  0  1  0  0  0  0  0  0
  194.0360  176.8000  146.4150 C   0  0  0  0  0  2  0  0  0  0  0  0
  189.7580  174.4440  141.4170 C   0  0  1  0  0  3  0  0  0  0  0  0
  189.1940  176.1900  144.7850 C   0  0  1  0  0  3  0  0  0  0  0  0
  189.2310  172.8830  139.9180 C   0  0  0  0  0  0  0  0  0  0  0  0
  188.6010  174.9160  140.5990 C   0  0  2  0  0  3  0  0  0  0  0  0
  191.2080  175.2620  145.7400 C   0  0  2  0  0  3  0  0  0  0  0  0
  190.0410  175.0430  142.7330 C   0  0  0  0  0  0  0  0  0  0  0  0
  193.2640  175.5390  144.4990 O   0  0  0  0  0  0  0  0  0  0  0  0
  187.4420  175.2460  141.4960 C   0  0  0  0  0  3  0  0  0  0  0  0
  193.0660  175.9690  147.2630 C   0  0  0  0  0  2  0  0  0  0  0  0
  191.6040  176.1880  146.8870 C   0  0  0  0  0  2  0  0  0  0  0  0
  191.8750  175.6910  144.4150 C   0  0  1  0  0  3  0  0  0  0  0  0
  185.6940  177.9350  146.5760 C   0  0  0  0  0  3  0  0  0  0  0  0
  187.9640  176.8020  145.3900 C   0  0  0  0  0  0  0  0  0  0  0  0
  187.4480  176.2660  146.5750 C   0  0  0  0  0  3  0  0  0  0  0  0
  186.3130  176.8300  147.1660 C   0  0  0  0  0  3  0  0  0  0  0  0
  186.2090  178.4790  145.3960 C   0  0  0  0  0  3  0  0  0  0  0  0
  187.3420  177.9150  144.8040 C   0  0  0  0  0  3  0  0  0  0  0  0
  1 15  1  0  0  0  0
  2 12  1  0  0  0  0
  4 13  2  0  0  0  0
  4 14  1  0  0  0  0
  5 13  1  0  0  0  0
  6  2  1  0  0  0  0
  7 11  1  0  0  0  0
  7  9  1  1  0  0  0
  8 10  1  0  0  0  0
 10 19  1  0  0  0  0
 11 16  1  1  0  0  0
 12 23  1  1  0  0  0
 12  1  1  0  0  0  0
 13  7  1  0  0  0  0
 14 11  1  0  0  0  0
 14 18  1  1  0  0  0
 15 20  1  1  0  0  0
 16  3  1  0  0  0  0
 16  2  2  0  0  0  0
 17  8  1  0  0  0  0
 18  6  2  0  0  0  0
 20 19  1  0  0  0  0
 21  3  1  6  0  0  0
 21 17  1  0  0  0  0
 21 15  1  0  0  0  0
 22 25  1  0  0  0  0
 23 24  1  0  0  0  0
 24 25  2  0  0  0  0
 26 22  2  0  0  0  0
 27 23  2  0  0  0  0
 27 26  1  0  0  0  0
M  END
>  <MODEL>
4

>  <REMARK>
 VINA RESULT:      -7.5      1.790      5.584
  Name = 
  1 active torsions:
  status: ('A' for Active; 'I' for Inactive)
    1  A    between atoms: C_9  and  C_15
                            x       y       z     vdW  Elec       q    Type
                         _______ _______ _______ _____ _____    ______ ____

>  <TORSDO>
F 1

$$$$
=
 OpenBabel11052418183D

 27 31  0  0  1  0  0  0  0  0999 V2000
  188.9040  177.1790  143.5480 N   0  0  0  0  0  2  0  0  0  0  0  0
  188.8880  174.7530  143.3200 C   0  0  0  0  0  0  0  0  0  0  0  0
  187.1390  175.6650  141.8430 N   0  0  0  0  0  2  0  0  0  0  0  0
  189.6160  171.7400  140.5430 N   0  0  0  0  0  0  0  0  0  0  0  0
  189.7160  172.1890  138.1460 C   0  0  0  0  0  1  0  0  0  0  0  0
  189.9590  173.7320  143.5430 C   0  0  0  0  0  3  0  0  0  0  0  0
  188.4950  173.6320  139.9470 C   0  0  2  0  0  3  0  0  0  0  0  0
  184.5530  177.4270  143.2370 C   0  0  0  0  0  2  0  0  0  0  0  0
  188.1950  174.8210  139.0950 C   0  0  0  0  0  1  0  0  0  0  0  0
  184.5740  178.8780  143.7280 C   0  0  0  0  0  2  0  0  0  0  0  0
  188.3920  173.5680  141.2660 C   0  0  1  0  0  3  0  0  0  0  0  0
  188.7480  175.9200  144.2740 C   0  0  1  0  0  3  0  0  0  0  0  0
  189.2650  172.4700  139.5360 C   0  0  0  0  0  0  0  0  0  0  0  0
  189.0270  172.3070  141.7510 C   0  0  2  0  0  3  0  0  0  0  0  0
  187.6000  177.7230  143.1530 C   0  0  2  0  0  3  0  0  0  0  0  0
  188.1310  174.6830  142.1930 C   0  0  0  0  0  0  0  0  0  0  0  0
  185.4440  177.2380  142.1740 O   0  0  0  0  0  0  0  0  0  0  0  0
  190.0620  172.6240  142.7930 C   0  0  0  0  0  3  0  0  0  0  0  0
  185.9590  179.5350  143.6990 C   0  0  0  0  0  2  0  0  0  0  0  0
  187.0600  178.6360  144.2520 C   0  0  0  0  0  2  0  0  0  0  0  0
  186.5680  176.6440  142.7600 C   0  0  1  0  0  3  0  0  0  0  0  0
  191.3470  175.7280  147.6970 C   0  0  0  0  0  3  0  0  0  0  0  0
  189.6610  175.8740  145.4660 C   0  0  0  0  0  0  0  0  0  0  0  0
  189.2750  175.1390  146.5920 C   0  0  0  0  0  3  0  0  0  0  0  0
  190.1160  175.0670  147.7070 C   0  0  0  0  0  3  0  0  0  0  0  0
  191.7400  176.4600  146.5730 C   0  0  0  0  0  3  0  0  0  0  0  0
  190.9000  176.5320  145.4580 C   0  0  0  0  0  3  0  0  0  0  0  0
  1 12  1  0  0  0  0
  2  6  1  0  0  0  0
  2 12  1  0  0  0  0
  3 16  1  0  0  0  0
  4 14  1  0  0  0  0
  5 13  1  0  0  0  0
  7  9  1  1  0  0  0
  7 11  1  0  0  0  0
  8 10  1  0  0  0  0
 11 14  1  0  0  0  0
 11 16  1  1  0  0  0
 12 23  1  1  0  0  0
 13  7  1  0  0  0  0
 13  4  2  0  0  0  0
 14 18  1  1  0  0  0
 15  1  1  0  0  0  0
 15 20  1  1  0  0  0
 16  2  2  0  0  0  0
 17 21  1  0  0  0  0
 17  8  1  0  0  0  0
 18  6  2  0  0  0  0
 19 10  1  0  0  0  0
 19 20  1  0  0  0  0
 21  3  1  6  0  0  0
 21 15  1  0  0  0  0
 22 25  1  0  0  0  0
 23 24  1  0  0  0  0
 24 25  2  0  0  0  0
 26 22  2  0  0  0  0
 27 23  2  0  0  0  0
 27 26  1  0  0  0  0
M  END
>  <MODEL>
5

>  <REMARK>
 VINA RESULT:      -7.5      2.156      6.082
  Name = 
  1 active torsions:
  status: ('A' for Active; 'I' for Inactive)
    1  A    between atoms: C_9  and  C_15
                            x       y       z     vdW  Elec       q    Type
                         _______ _______ _______ _____ _____    ______ ____

>  <TORSDO>
F 1

$$$$
=
 OpenBabel11052418183D

 27 31  0  0  1  0  0  0  0  0999 V2000
  190.6050  175.0180  145.4640 N   0  0  0  0  0  2  0  0  0  0  0  0
  189.7890  175.1510  143.1710 C   0  0  0  0  0  0  0  0  0  0  0  0
  192.1860  174.5820  143.0920 N   0  0  0  0  0  2  0  0  0  0  0  0
  189.1500  172.7930  139.8020 N   0  0  0  0  0  0  0  0  0  0  0  0
  190.1970  170.6030  139.5410 C   0  0  0  0  0  1  0  0  0  0  0  0
  188.4190  174.9690  142.5980 C   0  0  0  0  0  3  0  0  0  0  0  0
  191.0430  172.5590  141.0510 C   0  0  2  0  0  3  0  0  0  0  0  0
  194.4520  176.7930  144.3980 C   0  0  0  0  0  2  0  0  0  0  0  0
  192.0850  171.8040  141.8080 C   0  0  0  0  0  1  0  0  0  0  0  0
  194.7880  177.0160  145.8760 C   0  0  0  0  0  2  0  0  0  0  0  0
  190.5760  173.7610  141.3490 C   0  0  1  0  0  3  0  0  0  0  0  0
  189.9660  175.8910  144.4800 C   0  0  1  0  0  3  0  0  0  0  0  0
  190.1240  171.9880  140.0800 C   0  0  0  0  0  0  0  0  0  0  0  0
  189.3730  174.0470  140.5120 C   0  0  2  0  0  3  0  0  0  0  0  0
  192.0570  175.2260  145.4870 C   0  0  2  0  0  3  0  0  0  0  0  0
  190.8450  174.5440  142.5690 C   0  0  0  0  0  0  0  0  0  0  0  0
  194.0640  175.4700  144.1610 O   0  0  0  0  0  0  0  0  0  0  0  0
  188.2130  174.4160  141.3930 C   0  0  0  0  0  3  0  0  0  0  0  0
  193.8940  176.2430  146.8520 C   0  0  0  0  0  2  0  0  0  0  0  0
  192.4140  176.3170  146.4940 C   0  0  0  0  0  2  0  0  0  0  0  0
  192.6660  175.5210  144.0990 C   0  0  1  0  0  3  0  0  0  0  0  0
  186.3470  177.6340  146.0210 C   0  0  0  0  0  3  0  0  0  0  0  0
  188.7110  176.4970  145.0380 C   0  0  0  0  0  0  0  0  0  0  0  0
  188.1260  177.5830  144.3790 C   0  0  0  0  0  3  0  0  0  0  0  0
  186.9470  178.1530  144.8700 C   0  0  0  0  0  3  0  0  0  0  0  0
  186.9240  176.5450  146.6810 C   0  0  0  0  0  3  0  0  0  0  0  0
  188.1020  175.9760  146.1910 C   0  0  0  0  0  3  0  0  0  0  0  0
  1 15  1  0  0  0  0
  2 12  1  0  0  0  0
  4 13  2  0  0  0  0
  4 14  1  0  0  0  0
  5 13  1  0  0  0  0
  6  2  1  0  0  0  0
  7 11  1  0  0  0  0
  7  9  1  1  0  0  0
  8 10  1  0  0  0  0
 10 19  1  0  0  0  0
 11 16  1  1  0  0  0
 12 23  1  1  0  0  0
 12  1  1  0  0  0  0
 13  7  1  0  0  0  0
 14 11  1  0  0  0  0
 14 18  1  1  0  0  0
 15 20  1  1  0  0  0
 16  3  1  0  0  0  0
 16  2  2  0  0  0  0
 17  8  1  0  0  0  0
 18  6  2  0  0  0  0
 20 19  1  0  0  0  0
 21  3  1  6  0  0  0
 21 17  1  0  0  0  0
 21 15  1  0  0  0  0
 22 26  1  0  0  0  0
 23 27  1  0  0  0  0
 24 25  1  0  0  0  0
 24 23  2  0  0  0  0
 25 22  2  0  0  0  0
 27 26  2  0  0  0  0
M  END
>  <MODEL>
6

>  <REMARK>
 VINA RESULT:      -7.3      2.012      5.812
  Name = 
  1 active torsions:
  status: ('A' for Active; 'I' for Inactive)
    1  A    between atoms: C_9  and  C_15
                            x       y       z     vdW  Elec       q    Type
                         _______ _______ _______ _____ _____    ______ ____

>  <TORSDO>
F 1

$$$$
=
 OpenBabel11052418183D

 27 31  0  0  1  0  0  0  0  0999 V2000
  189.8680  176.6720  143.0980 N   0  0  0  0  0  2  0  0  0  0  0  0
  190.0930  174.2460  143.0130 C   0  0  0  0  0  0  0  0  0  0  0  0
  187.9330  174.8440  141.9870 N   0  0  0  0  0  2  0  0  0  0  0  0
  190.4710  171.1050  140.3100 N   0  0  0  0  0  0  0  0  0  0  0  0
  189.9160  171.3610  137.9460 C   0  0  0  0  0  1  0  0  0  0  0  0
  191.3020  173.3660  143.0090 C   0  0  0  0  0  3  0  0  0  0  0  0
  189.0130  172.8140  139.9200 C   0  0  2  0  0  3  0  0  0  0  0  0
  185.5800  176.4360  143.9010 C   0  0  0  0  0  2  0  0  0  0  0  0
  188.3680  173.8890  139.1100 C   0  0  0  0  0  1  0  0  0  0  0  0
  185.5440  177.9170  144.2910 C   0  0  0  0  0  2  0  0  0  0  0  0
  189.2510  172.8490  141.2220 C   0  0  1  0  0  3  0  0  0  0  0  0
  190.0530  175.4680  143.9070 C   0  0  1  0  0  3  0  0  0  0  0  0
  189.7940  171.7080  139.3880 C   0  0  0  0  0  0  0  0  0  0  0  0
  190.1360  171.7070  141.5960 C   0  0  2  0  0  3  0  0  0  0  0  0
  188.4500  177.0420  143.0220 C   0  0  2  0  0  3  0  0  0  0  0  0
  189.0940  174.0040  142.1240 C   0  0  0  0  0  0  0  0  0  0  0  0
  186.1940  176.2540  142.6570 O   0  0  0  0  0  0  0  0  0  0  0  0
  191.3500  172.2160  142.3190 C   0  0  0  0  0  3  0  0  0  0  0  0
  186.7870  178.7110  143.8720 C   0  0  0  0  0  2  0  0  0  0  0  0
  188.0920  177.9810  144.1720 C   0  0  0  0  0  2  0  0  0  0  0  0
  187.4930  175.8310  142.9660 C   0  0  1  0  0  3  0  0  0  0  0  0
  193.4330  175.9550  146.5230 C   0  0  0  0  0  3  0  0  0  0  0  0
  191.2310  175.6170  144.8250 C   0  0  0  0  0  0  0  0  0  0  0  0
  192.2920  176.4450  144.4440 C   0  0  0  0  0  3  0  0  0  0  0  0
  193.3930  176.6130  145.2910 C   0  0  0  0  0  3  0  0  0  0  0  0
  192.3730  175.1300  146.9110 C   0  0  0  0  0  3  0  0  0  0  0  0
  191.2740  174.9620  146.0660 C   0  0  0  0  0  3  0  0  0  0  0  0
  1 12  1  0  0  0  0
  2 12  1  0  0  0  0
  3 16  1  0  0  0  0
  4 14  1  0  0  0  0
  5 13  1  0  0  0  0
  6  2  1  0  0  0  0
  7  9  1  6  0  0  0
  7 11  1  0  0  0  0
  8 10  1  0  0  0  0
 11 14  1  0  0  0  0
 11 16  1  6  0  0  0
 12 23  1  6  0  0  0
 13  7  1  0  0  0  0
 13  4  2  0  0  0  0
 14 18  1  6  0  0  0
 15  1  1  0  0  0  0
 15 20  1  1  0  0  0
 16  2  2  0  0  0  0
 17 21  1  0  0  0  0
 17  8  1  0  0  0  0
 18  6  2  0  0  0  0
 19 20  1  0  0  0  0
 19 10  1  0  0  0  0
 21  3  1  6  0  0  0
 21 15  1  0  0  0  0
 22 26  1  0  0  0  0
 23 27  1  0  0  0  0
 24 23  2  0  0  0  0
 24 25  1  0  0  0  0
 25 22  2  0  0  0  0
 27 26  2  0  0  0  0
M  END
>  <MODEL>
7

>  <REMARK>
 VINA RESULT:      -7.1      1.974      6.447
  Name = 
  1 active torsions:
  status: ('A' for Active; 'I' for Inactive)
    1  A    between atoms: C_9  and  C_15
                            x       y       z     vdW  Elec       q    Type
                         _______ _______ _______ _____ _____    ______ ____

>  <TORSDO>
F 1

$$$$
=
 OpenBabel11052418183D

 27 31  0  0  1  0  0  0  0  0999 V2000
  189.5150  175.2160  144.7640 N   0  0  0  0  0  2  0  0  0  0  0  0
  189.5320  175.1350  142.3280 C   0  0  0  0  0  0  0  0  0  0  0  0
  191.7090  174.3040  143.1290 N   0  0  0  0  0  2  0  0  0  0  0  0
  189.7040  172.4400  139.1620 N   0  0  0  0  0  0  0  0  0  0  0  0
  190.4450  170.1340  139.4670 C   0  0  0  0  0  1  0  0  0  0  0  0
  188.4170  175.0300  141.3350 C   0  0  0  0  0  3  0  0  0  0  0  0
  191.0210  172.1670  141.0020 C   0  0  2  0  0  3  0  0  0  0  0  0
  193.7150  176.4070  144.9410 C   0  0  0  0  0  2  0  0  0  0  0  0
  191.6320  171.4090  142.1330 C   0  0  0  0  0  1  0  0  0  0  0  0
  193.5730  176.7840  146.4190 C   0  0  0  0  0  2  0  0  0  0  0  0
  190.6630  173.4420  141.0160 C   0  0  1  0  0  3  0  0  0  0  0  0
  189.3730  176.0160  143.5490 C   0  0  1  0  0  3  0  0  0  0  0  0
  190.4010  171.5780  139.8260 C   0  0  0  0  0  0  0  0  0  0  0  0
  189.8610  173.7450  139.7940 C   0  0  2  0  0  3  0  0  0  0  0  0
  190.8920  175.2650  145.2680 C   0  0  2  0  0  3  0  0  0  0  0  0
  190.6260  174.3430  142.1820 C   0  0  0  0  0  0  0  0  0  0  0  0
  193.2370  175.1140  144.7000 O   0  0  0  0  0  0  0  0  0  0  0  0
  188.5420  174.3500  140.1860 C   0  0  0  0  0  3  0  0  0  0  0  0
  192.3040  176.2460  147.0900 C   0  0  0  0  0  2  0  0  0  0  0  0
  191.0520  176.4330  146.2390 C   0  0  0  0  0  2  0  0  0  0  0  0
  191.9620  175.3080  144.1550 C   0  0  1  0  0  3  0  0  0  0  0  0
  185.7440  178.3220  143.7140 C   0  0  0  0  0  3  0  0  0  0  0  0
  188.1070  176.8230  143.5850 C   0  0  0  0  0  0  0  0  0  0  0  0
  187.1110  176.4870  144.5090 C   0  0  0  0  0  3  0  0  0  0  0  0
  185.9300  177.2340  144.5730 C   0  0  0  0  0  3  0  0  0  0  0  0
  186.7380  178.6640  142.7930 C   0  0  0  0  0  3  0  0  0  0  0  0
  187.9170  177.9180  142.7290 C   0  0  0  0  0  3  0  0  0  0  0  0
  1 15  1  0  0  0  0
  2 12  1  0  0  0  0
  4 14  1  0  0  0  0
  4 13  2  0  0  0  0
  5 13  1  0  0  0  0
  6  2  1  0  0  0  0
  7 11  1  0  0  0  0
  7  9  1  1  0  0  0
  8 10  1  0  0  0  0
 10 19  1  0  0  0  0
 11 16  1  1  0  0  0
 12 23  1  6  0  0  0
 12  1  1  0  0  0  0
 13  7  1  0  0  0  0
 14 18  1  1  0  0  0
 14 11  1  0  0  0  0
 15 20  1  1  0  0  0
 16  2  2  0  0  0  0
 16  3  1  0  0  0  0
 17  8  1  0  0  0  0
 18  6  2  0  0  0  0
 20 19  1  0  0  0  0
 21  3  1  6  0  0  0
 21 17  1  0  0  0  0
 21 15  1  0  0  0  0
 22 25  1  0  0  0  0
 23 24  1  0  0  0  0
 24 25  2  0  0  0  0
 26 22  2  0  0  0  0
 27 26  1  0  0  0  0
 27 23  2  0  0  0  0
M  END
>  <MODEL>
8

>  <REMARK>
 VINA RESULT:      -7.1      2.030      5.711
  Name = 
  1 active torsions:
  status: ('A' for Active; 'I' for Inactive)
    1  A    between atoms: C_9  and  C_15
                            x       y       z     vdW  Elec       q    Type
                         _______ _______ _______ _____ _____    ______ ____

>  <TORSDO>
F 1

$$$$
=
 OpenBabel11052418183D

 27 31  0  0  1  0  0  0  0  0999 V2000
  191.0560  174.5910  145.0870 N   0  0  0  0  0  2  0  0  0  0  0  0
  190.0870  174.8470  142.8650 C   0  0  0  0  0  0  0  0  0  0  0  0
  192.4460  174.1860  142.5920 N   0  0  0  0  0  2  0  0  0  0  0  0
  189.1120  172.6530  139.4660 N   0  0  0  0  0  0  0  0  0  0  0  0
  190.0430  170.4340  139.0500 C   0  0  0  0  0  1  0  0  0  0  0  0
  188.6740  174.7440  142.3860 C   0  0  0  0  0  3  0  0  0  0  0  0
  191.0760  172.2920  140.5660 C   0  0  2  0  0  3  0  0  0  0  0  0
  194.8920  176.2500  143.8120 C   0  0  0  0  0  2  0  0  0  0  0  0
  192.1350  171.4670  141.2180 C   0  0  0  0  0  1  0  0  0  0  0  0
  195.3410  176.4000  145.2690 C   0  0  0  0  0  2  0  0  0  0  0  0
  190.6830  173.5000  140.9410 C   0  0  1  0  0  3  0  0  0  0  0  0
  190.3880  175.5270  144.1840 C   0  0  1  0  0  3  0  0  0  0  0  0
  190.0670  171.7990  139.6430 C   0  0  0  0  0  0  0  0  0  0  0  0
  189.4380  173.8680  140.2040 C   0  0  2  0  0  3  0  0  0  0  0  0
  192.5140  174.7380  145.0120 C   0  0  2  0  0  3  0  0  0  0  0  0
  191.0710  174.2220  142.1660 C   0  0  0  0  0  0  0  0  0  0  0  0
  194.4310  174.9540  143.5550 O   0  0  0  0  0  0  0  0  0  0  0  0
  188.3600  174.2480  141.1790 C   0  0  0  0  0  3  0  0  0  0  0  0
  194.4850  175.6250  146.2770 C   0  0  0  0  0  2  0  0  0  0  0  0
  192.9880  175.7730  146.0300 C   0  0  0  0  0  2  0  0  0  0  0  0
  193.0360  175.0630  143.5960 C   0  0  1  0  0  3  0  0  0  0  0  0
  187.0160  177.3300  146.1550 C   0  0  0  0  0  3  0  0  0  0  0  0
  189.2020  176.1600  144.8530 C   0  0  0  0  0  0  0  0  0  0  0  0
  188.7190  175.6120  146.0460 C   0  0  0  0  0  3  0  0  0  0  0  0
  187.6260  176.1950  146.6960 C   0  0  0  0  0  3  0  0  0  0  0  0
  187.4980  177.8850  144.9660 C   0  0  0  0  0  3  0  0  0  0  0  0
  188.5890  177.3030  144.3160 C   0  0  0  0  0  3  0  0  0  0  0  0
  2 12  1  0  0  0  0
  4 13  2  0  0  0  0
  4 14  1  0  0  0  0
  5 13  1  0  0  0  0
  6  2  1  0  0  0  0
  7 11  1  0  0  0  0
  7  9  1  1  0  0  0
  8 10  1  0  0  0  0
 10 19  1  0  0  0  0
 11 16  1  1  0  0  0
 12 23  1  1  0  0  0
 12  1  1  0  0  0  0
 13  7  1  0  0  0  0
 14 11  1  0  0  0  0
 14 18  1  1  0  0  0
 15  1  1  0  0  0  0
 15 20  1  1  0  0  0
 16  3  1  0  0  0  0
 16  2  2  0  0  0  0
 17 21  1  0  0  0  0
 17  8  1  0  0  0  0
 18  6  2  0  0  0  0
 20 19  1  0  0  0  0
 21  3  1  6  0  0  0
 21 15  1  0  0  0  0
 22 25  1  0  0  0  0
 23 24  1  0  0  0  0
 24 25  2  0  0  0  0
 26 22  2  0  0  0  0
 27 23  2  0  0  0  0
 27 26  1  0  0  0  0
M  END
>  <MODEL>
9

>  <REMARK>
 VINA RESULT:      -7.1      2.158      5.978
  Name = 
  1 active torsions:
  status: ('A' for Active; 'I' for Inactive)
    1  A    between atoms: C_9  and  C_15
                            x       y       z     vdW  Elec       q    Type
                         _______ _______ _______ _____ _____    ______ ____

>  <TORSDO>
F 1

$$$$
