=
 OpenBabel11052419303D

 55 62  0  0  1  0  0  0  0  0999 V2000
  188.9900  174.3470  140.7630 C   0  0  0  0  0  2  0  0  0  0  0  0
  191.5450  173.3580  142.9190 C   0  0  0  0  0  2  0  0  0  0  0  0
  193.4220  174.6940  143.6330 C   0  0  0  0  0  2  0  0  0  0  0  0
  191.8130  175.8940  146.6000 C   0  0  0  0  0  3  0  0  0  0  0  0
  190.8850  175.5700  147.6100 C   0  0  0  0  0  3  0  0  0  0  0  0
  190.0110  176.7090  145.1920 C   0  0  0  0  0  0  0  0  0  0  0  0
  189.0970  176.4070  146.2190 C   0  0  0  0  0  3  0  0  0  0  0  0
  193.6340  176.1210  144.1570 C   0  0  0  0  0  2  0  0  0  0  0  0
  189.5380  175.8580  147.4170 C   0  0  0  0  0  3  0  0  0  0  0  0
  188.5200  173.2910  138.5690 C   0  0  0  0  0  2  0  0  0  0  0  0
  191.4010  176.4830  145.3870 C   0  0  0  0  0  0  0  0  0  0  0  0
  190.9620  171.9390  139.4760 C   0  0  1  0  0  3  0  0  0  0  0  0
  188.5950  174.3080  142.2360 C   0  0  0  0  0  2  0  0  0  0  0  0
  189.7070  171.9060  140.3590 C   0  0  0  0  0  2  0  0  0  0  0  0
  189.5780  176.5290  142.8120 O   0  0  0  0  0  0  0  0  0  0  0  0
  193.5510  172.6540  141.7980 O   0  0  0  0  0  0  0  0  0  0  0  0
  189.4860  177.3690  143.9500 C   0  0  0  0  0  2  0  0  0  0  0  0
  192.3710  173.3950  141.6460 C   0  0  2  0  0  3  0  0  0  0  0  0
  192.3150  174.6210  142.5790 C   0  0  1  0  0  3  0  0  0  0  0  0
  189.1850  172.2560  137.6880 C   0  0  0  0  0  2  0  0  0  0  0  0
  193.3060  171.3140  141.4520 C   0  0  1  0  0  3  0  0  0  0  0  0
  188.6910  173.0280  140.0760 C   0  0  1  0  0  3  0  0  0  0  0  0
  192.3640  176.9770  144.3520 C   0  0  0  0  0  2  0  0  0  0  0  0
  188.4610  175.7070  142.8460 C   0  0  1  0  0  3  0  0  0  0  0  0
  193.0600  171.1620  139.9280 C   0  0  0  0  0  2  0  0  0  0  0  0
  191.7510  170.7620  139.6580 O   0  0  0  0  0  0  0  0  0  0  0  0
  190.6860  172.1570  137.9730 C   0  0  0  0  0  2  0  0  0  0  0  0
  186.3720  176.8060  143.6600 C   0  0  0  0  0  2  0  0  0  0  0  0
  185.0240  178.1560  142.1390 C   0  0  2  0  0  3  0  0  0  0  0  0
  186.9570  176.9060  141.1880 C   0  0  0  0  0  3  0  0  0  0  0  0
  185.8890  177.7100  140.9270 C   0  0  0  0  0  3  0  0  0  0  0  0
  184.9460  177.0770  143.2090 C   0  0  0  0  0  2  0  0  0  0  0  0
  187.1670  176.4650  142.4540 N   0  0  0  0  0  0  0  0  0  0  0  0
  183.6010  178.6120  141.7440 C   0  0  0  0  0  0  0  0  0  0  0  0
  182.7380  178.6740  142.6390 O   0  0  0  0  0  1  0  0  0  0  0  0
  183.2580  178.6860  140.4350 O   0  0  0  0  0  0  0  0  0  0  0  0
  194.2930  170.4380  141.9280 O   0  0  0  0  0  0  0  0  0  0  0  0
  195.4850  171.0770  141.5420 C   0  0  0  0  0  2  0  0  0  0  0  0
  197.9400  171.1940  141.9860 C   0  0  0  0  0  1  0  0  0  0  0  0
  196.5320  171.2350  142.6830 C   0  0  2  0  0  0  0  0  0  0  0  0
  197.8820  169.5400  143.8880 O   0  0  0  0  0  1  0  0  0  0  0  0
  196.5700  169.9470  143.5620 C   0  0  2  0  0  0  0  0  0  0  0  0
  195.9360  168.8100  143.9710 O   0  0  0  0  0  0  0  0  0  0  0  0
  195.5520  169.9140  144.7500 C   0  0  2  0  0  3  0  0  0  0  0  0
  195.5740  171.4890  145.1630 C   0  0  0  0  0  2  0  0  0  0  0  0
  194.4260  172.1040  145.6330 O   0  0  0  0  0  0  0  0  0  0  0  0
  193.4460  171.4110  145.0250 O   0  0  0  0  0  1  0  0  0  0  0  0
  196.6010  172.6930  143.1580 C   0  0  0  0  0  2  0  0  0  0  0  0
  196.4410  176.7910  141.7750 C   0  0  0  0  0  2  0  0  0  0  0  0
  197.2270  173.9470  142.4880 C   0  0  2  0  0  3  0  0  0  0  0  0
  196.7410  174.5270  139.9880 C   0  0  0  0  0  2  0  0  0  0  0  0
  197.2010  175.6780  140.9100 C   0  0  2  0  0  3  0  0  0  0  0  0
  197.1950  175.1440  143.5490 C   0  0  0  0  0  2  0  0  0  0  0  0
  196.3650  174.4630  141.4290 C   0  0  2  0  0  3  0  0  0  0  0  0
  196.9910  176.6550  143.1380 C   0  0  0  0  0  2  0  0  0  0  0  0
  1 13  1  0  0  0  0
  3  8  1  0  0  0  0
  4  5  1  0  0  0  0
  6 11  1  0  0  0  0
  6  7  2  0  0  0  0
  7  9  1  0  0  0  0
  8 23  1  0  0  0  0
  9  5  2  0  0  0  0
 11  4  2  0  0  0  0
 12 27  1  6  0  0  0
 12 26  1  0  0  0  0
 12 14  1  0  0  0  0
 15 24  1  0  0  0  0
 15 17  1  0  0  0  0
 17  6  1  0  0  0  0
 18 16  1  0  0  0  0
 18 19  1  0  0  0  0
 18  2  1  1  0  0  0
 19  2  1  1  0  0  0
 19  3  1  0  0  0  0
 20 27  1  0  0  0  0
 20 10  1  0  0  0  0
 21 16  1  0  0  0  0
 21 37  1  6  0  0  0
 22 10  1  6  0  0  0
 22 14  1  0  0  0  0
 22  1  1  0  0  0  0
 23 11  1  0  0  0  0
 24 13  1  6  0  0  0
 25 21  1  0  0  0  0
 26 25  1  0  0  0  0
 29 34  1  6  0  0  0
 29 32  1  0  0  0  0
 30 33  1  0  0  0  0
 31 30  2  0  0  0  0
 31 29  1  0  0  0  0
 32 28  1  0  0  0  0
 33 24  1  0  0  0  0
 33 28  1  0  0  0  0
 34 35  1  0  0  0  0
 36 34  2  0  0  0  0
 38 37  1  0  0  0  0
 38 40  1  0  0  0  0
 40 39  1  6  0  0  0
 40 48  1  0  0  0  0
 40 42  1  0  0  0  0
 42 41  1  1  0  0  0
 42 43  1  0  0  0  0
 42 44  1  0  0  0  0
 43 44  1  0  0  0  0
 44 45  1  6  0  0  0
 45 46  1  0  0  0  0
 47 46  1  0  0  0  0
 49 55  1  0  0  0  0
 50 48  1  1  0  0  0
 50 53  1  0  0  0  0
 52 51  1  6  0  0  0
 52 54  1  0  0  0  0
 52 49  1  0  0  0  0
 54 51  1  6  0  0  0
 54 50  1  0  0  0  0
 55 53  1  0  0  0  0
M  END
>  <MODEL>
1

>  <REMARK>
 VINA RESULT:      -7.5      0.000      0.000
  Name = 
  10 active torsions:
  status: ('A' for Active; 'I' for Inactive)
    1  A    between atoms: O_1  and  C_53
    2  A    between atoms: C_6  and  C_20
    3  A    between atoms: O_8  and  C_22
    4  A    between atoms: O_8  and  C_43
    5  A    between atoms: C_10  and  C_32
    6  A    between atoms: C_12  and  C_42
    7  A    between atoms: C_20  and  C_22
    8  A    between atoms: C_20  and  C_42
    9  A    between atoms: C_46  and  C_53
   10  A    between atoms: C_49  and  N_52
                            x       y       z     vdW  Elec       q    Type
                         _______ _______ _______ _____ _____    ______ ____

>  <TORSDO>
F 10

$$$$
=
 OpenBabel11052419303D

 55 62  0  0  1  0  0  0  0  0999 V2000
  191.5110  175.7870  144.1810 C   0  0  0  0  0  2  0  0  0  0  0  0
  192.9760  173.7510  141.7590 C   0  0  0  0  0  2  0  0  0  0  0  0
  192.4990  171.4220  141.3580 C   0  0  0  0  0  2  0  0  0  0  0  0
  190.0090  172.0600  138.8630 C   0  0  0  0  0  3  0  0  0  0  0  0
  189.6180  172.9400  137.8350 C   0  0  0  0  0  3  0  0  0  0  0  0
  188.8470  173.4330  140.4940 C   0  0  0  0  0  0  0  0  0  0  0  0
  188.4390  174.2900  139.4550 C   0  0  0  0  0  3  0  0  0  0  0  0
  191.2410  170.5540  141.2200 C   0  0  0  0  0  2  0  0  0  0  0  0
  188.8120  174.0310  138.1410 C   0  0  0  0  0  3  0  0  0  0  0  0
  192.7490  176.8710  146.0370 C   0  0  0  0  0  2  0  0  0  0  0  0
  189.6200  172.2750  140.2020 C   0  0  0  0  0  0  0  0  0  0  0  0
  194.7850  175.2090  144.7280 C   0  0  1  0  0  3  0  0  0  0  0  0
  191.0020  176.0240  142.7630 C   0  0  0  0  0  2  0  0  0  0  0  0
  194.0290  176.2650  143.9090 C   0  0  0  0  0  2  0  0  0  0  0  0
  189.3970  174.1120  142.7570 O   0  0  0  0  0  0  0  0  0  0  0  0
  194.7620  172.3750  142.5900 O   0  0  0  0  0  0  0  0  0  0  0  0
  188.3530  173.7200  141.8830 C   0  0  0  0  0  2  0  0  0  0  0  0
  193.6330  173.1130  142.9690 C   0  0  2  0  0  3  0  0  0  0  0  0
  192.3250  172.5360  142.3920 C   0  0  1  0  0  3  0  0  0  0  0  0
  194.1550  176.8150  146.5930 C   0  0  0  0  0  2  0  0  0  0  0  0
  195.8870  173.2180  142.5810 C   0  0  1  0  0  3  0  0  0  0  0  0
  192.6780  176.7000  144.5080 C   0  0  1  0  0  3  0  0  0  0  0  0
  189.8870  171.2900  141.2970 C   0  0  0  0  0  2  0  0  0  0  0  0
  189.5900  175.4700  142.5460 C   0  0  1  0  0  3  0  0  0  0  0  0
  196.2840  173.6420  144.0190 C   0  0  0  0  0  2  0  0  0  0  0  0
  196.1040  175.0110  144.2180 O   0  0  0  0  0  0  0  0  0  0  0  0
  194.8470  175.4940  146.2440 C   0  0  0  0  0  2  0  0  0  0  0  0
  187.7870  177.1440  142.1240 C   0  0  0  0  0  2  0  0  0  0  0  0
  186.1450  177.6420  143.8600 C   0  0  2  0  0  3  0  0  0  0  0  0
  188.0450  176.1400  144.4450 C   0  0  0  0  0  3  0  0  0  0  0  0
  186.9370  176.7930  144.8950 C   0  0  0  0  0  3  0  0  0  0  0  0
  187.0640  178.2800  142.8290 C   0  0  0  0  0  2  0  0  0  0  0  0
  188.4540  176.3230  143.1650 N   0  0  0  0  0  0  0  0  0  0  0  0
  185.2480  178.7200  144.5080 C   0  0  0  0  0  0  0  0  0  0  0  0
  185.4140  179.9040  144.1600 O   0  0  0  0  0  0  0  0  0  0  0  0
  184.4990  178.4090  145.5940 O   0  0  0  0  0  1  0  0  0  0  0  0
  196.9650  172.6820  141.8590 O   0  0  0  0  0  0  0  0  0  0  0  0
  197.0740  173.5650  140.7700 C   0  0  0  0  0  2  0  0  0  0  0  0
  197.8920  171.7320  139.2840 C   0  0  0  0  0  1  0  0  0  0  0  0
  196.8490  172.9050  139.3790 C   0  0  2  0  0  0  0  0  0  0  0  0
  197.5430  173.1950  137.0160 O   0  0  0  0  0  1  0  0  0  0  0  0
  197.3330  173.8590  138.2440 C   0  0  2  0  0  0  0  0  0  0  0  0
  197.9400  175.0330  137.9040 O   0  0  0  0  0  0  0  0  0  0  0  0
  196.5680  175.2200  138.1390 C   0  0  2  0  0  3  0  0  0  0  0  0
  195.0740  174.7170  138.5450 C   0  0  0  0  0  2  0  0  0  0  0  0
  193.9580  175.3180  137.9880 O   0  0  0  0  0  0  0  0  0  0  0  0
  194.3280  175.5040  136.7080 O   0  0  0  0  0  1  0  0  0  0  0  0
  195.5870  172.0310  139.3910 C   0  0  0  0  0  2  0  0  0  0  0  0
  192.8720  168.8830  138.1880 C   0  0  0  0  0  2  0  0  0  0  0  0
  195.1590  170.8590  138.4660 C   0  0  2  0  0  3  0  0  0  0  0  0
  195.5560  168.3730  139.1630 C   0  0  0  0  0  2  0  0  0  0  0  0
  194.4550  168.6530  138.1150 C   0  0  2  0  0  3  0  0  0  0  0  0
  193.7470  171.2320  137.8130 C   0  0  0  0  0  2  0  0  0  0  0  0
  194.8250  169.6700  139.2430 C   0  0  2  0  0  3  0  0  0  0  0  0
  192.6400  170.1570  137.4810 C   0  0  0  0  0  2  0  0  0  0  0  0
  1 22  1  0  0  0  0
  2 19  1  0  0  0  0
  4 11  1  0  0  0  0
  5  9  1  0  0  0  0
  5  4  2  0  0  0  0
  6 17  1  0  0  0  0
  7  6  1  0  0  0  0
  8 23  1  0  0  0  0
  8  3  1  0  0  0  0
  9  7  2  0  0  0  0
 10 20  1  0  0  0  0
 11  6  2  0  0  0  0
 11 23  1  0  0  0  0
 12 14  1  6  0  0  0
 12 27  1  0  0  0  0
 13  1  1  0  0  0  0
 16 18  1  0  0  0  0
 17 15  1  0  0  0  0
 18  2  1  6  0  0  0
 19  3  1  6  0  0  0
 19 18  1  0  0  0  0
 21 37  1  1  0  0  0
 21 16  1  0  0  0  0
 21 25  1  0  0  0  0
 22 14  1  1  0  0  0
 22 10  1  0  0  0  0
 24 15  1  0  0  0  0
 24 13  1  1  0  0  0
 24 33  1  0  0  0  0
 25 26  1  0  0  0  0
 26 12  1  0  0  0  0
 27 20  1  0  0  0  0
 28 32  1  0  0  0  0
 28 33  1  0  0  0  0
 29 34  1  1  0  0  0
 29 31  1  0  0  0  0
 30 31  2  0  0  0  0
 32 29  1  0  0  0  0
 33 30  1  0  0  0  0
 34 36  1  0  0  0  0
 35 34  2  0  0  0  0
 38 37  1  0  0  0  0
 40 39  1  6  0  0  0
 40 48  1  0  0  0  0
 40 38  1  0  0  0  0
 42 41  1  6  0  0  0
 42 40  1  0  0  0  0
 43 44  1  0  0  0  0
 43 42  1  0  0  0  0
 44 42  1  0  0  0  0
 44 45  1  1  0  0  0
 46 45  1  0  0  0  0
 47 46  1  0  0  0  0
 50 54  1  0  0  0  0
 50 48  1  1  0  0  0
 52 49  1  1  0  0  0
 52 51  1  0  0  0  0
 52 54  1  0  0  0  0
 53 50  1  0  0  0  0
 54 51  1  6  0  0  0
 55 53  1  0  0  0  0
 55 49  1  0  0  0  0
M  END
>  <MODEL>
2

>  <REMARK>
 VINA RESULT:      -7.5      2.491      6.289
  Name = 
  10 active torsions:
  status: ('A' for Active; 'I' for Inactive)
    1  A    between atoms: O_1  and  C_53
    2  A    between atoms: C_6  and  C_20
    3  A    between atoms: O_8  and  C_22
    4  A    between atoms: O_8  and  C_43
    5  A    between atoms: C_10  and  C_32
    6  A    between atoms: C_12  and  C_42
    7  A    between atoms: C_20  and  C_22
    8  A    between atoms: C_20  and  C_42
    9  A    between atoms: C_46  and  C_53
   10  A    between atoms: C_49  and  N_52
                            x       y       z     vdW  Elec       q    Type
                         _______ _______ _______ _____ _____    ______ ____

>  <TORSDO>
F 10

$$$$
=
 OpenBabel11052419303D

 55 62  0  0  1  0  0  0  0  0999 V2000
  189.0570  175.0130  141.0470 C   0  0  0  0  0  2  0  0  0  0  0  0
  192.1620  173.6710  141.8920 C   0  0  0  0  0  2  0  0  0  0  0  0
  194.2270  174.8860  142.1710 C   0  0  0  0  0  2  0  0  0  0  0  0
  193.8190  175.3450  145.7000 C   0  0  0  0  0  3  0  0  0  0  0  0
  193.2930  174.7750  146.8760 C   0  0  0  0  0  3  0  0  0  0  0  0
  191.6740  176.3830  145.2320 C   0  0  0  0  0  0  0  0  0  0  0  0
  191.1680  175.8300  146.4230 C   0  0  0  0  0  3  0  0  0  0  0  0
  194.6710  176.1710  142.8840 C   0  0  0  0  0  2  0  0  0  0  0  0
  191.9780  175.0470  147.2370 C   0  0  0  0  0  3  0  0  0  0  0  0
  187.7990  174.4470  138.9860 C   0  0  0  0  0  2  0  0  0  0  0  0
  193.0330  176.1710  144.8690 C   0  0  0  0  0  0  0  0  0  0  0  0
  190.3430  173.0200  138.6550 C   0  0  1  0  0  3  0  0  0  0  0  0
  189.2050  174.6380  142.5180 C   0  0  0  0  0  2  0  0  0  0  0  0
  189.4790  172.7480  139.8940 C   0  0  0  0  0  2  0  0  0  0  0  0
  190.4240  176.7130  143.1800 O   0  0  0  0  0  0  0  0  0  0  0  0
  193.6120  173.3040  140.0110 O   0  0  0  0  0  0  0  0  0  0  0  0
  190.7750  177.2790  144.4300 C   0  0  0  0  0  2  0  0  0  0  0  0
  192.4880  174.0160  140.4500 C   0  0  2  0  0  3  0  0  0  0  0  0
  192.8180  175.0050  141.5860 C   0  0  1  0  0  3  0  0  0  0  0  0
  188.0660  173.6560  137.7250 C   0  0  0  0  0  2  0  0  0  0  0  0
  193.2030  172.0650  139.4900 C   0  0  1  0  0  3  0  0  0  0  0  0
  188.4780  173.8670  140.2400 C   0  0  1  0  0  3  0  0  0  0  0  0
  193.5900  176.9150  143.6960 C   0  0  0  0  0  2  0  0  0  0  0  0
  189.3550  175.8630  143.4250 C   0  0  1  0  0  3  0  0  0  0  0  0
  192.4300  172.2410  138.1570 C   0  0  0  0  0  2  0  0  0  0  0  0
  191.0930  171.8620  138.2860 O   0  0  0  0  0  0  0  0  0  0  0  0
  189.5660  173.5520  137.4320 C   0  0  0  0  0  2  0  0  0  0  0  0
  187.5390  176.3720  145.0610 C   0  0  0  0  0  2  0  0  0  0  0  0
  185.9540  178.1720  144.6120 C   0  0  2  0  0  3  0  0  0  0  0  0
  187.5820  177.5780  142.8230 C   0  0  0  0  0  3  0  0  0  0  0  0
  186.5170  178.3520  143.1740 C   0  0  0  0  0  3  0  0  0  0  0  0
  186.0620  176.7310  145.0880 C   0  0  0  0  0  2  0  0  0  0  0  0
  188.0410  176.6400  143.6900 N   0  0  0  0  0  0  0  0  0  0  0  0
  184.5000  178.6720  144.7680 C   0  0  0  0  0  0  0  0  0  0  0  0
  183.8820  179.0010  143.7380 O   0  0  0  0  0  0  0  0  0  0  0  0
  184.0220  178.9810  145.9980 O   0  0  0  0  0  1  0  0  0  0  0  0
  194.2550  171.1420  139.3850 O   0  0  0  0  0  0  0  0  0  0  0  0
  195.1710  171.6090  140.3440 C   0  0  0  0  0  2  0  0  0  0  0  0
  196.9600  170.2830  141.4750 C   0  0  0  0  0  1  0  0  0  0  0  0
  195.4270  170.6270  141.5240 C   0  0  2  0  0  0  0  0  0  0  0  0
  195.6830  168.1670  141.3450 O   0  0  0  0  0  1  0  0  0  0  0  0
  194.7760  169.2420  141.2240 C   0  0  2  0  0  0  0  0  0  0  0  0
  193.7750  168.5460  140.6100 O   0  0  0  0  0  0  0  0  0  0  0  0
  193.3740  169.0030  141.8770 C   0  0  2  0  0  3  0  0  0  0  0  0
  193.5960  169.7950  143.2820 C   0  0  0  0  0  2  0  0  0  0  0  0
  193.1040  169.2710  144.4650 O   0  0  0  0  0  0  0  0  0  0  0  0
  194.2070  168.7720  145.0520 O   0  0  0  0  0  1  0  0  0  0  0  0
  195.4480  171.3800  142.8620 C   0  0  0  0  0  2  0  0  0  0  0  0
  197.1460  173.8180  146.0090 C   0  0  0  0  0  2  0  0  0  0  0  0
  196.6400  171.8980  143.7120 C   0  0  2  0  0  3  0  0  0  0  0  0
  197.7660  174.1990  143.2010 C   0  0  0  0  0  2  0  0  0  0  0  0
  197.9320  173.6250  144.6260 C   0  0  2  0  0  3  0  0  0  0  0  0
  196.3510  171.5350  145.2440 C   0  0  0  0  0  2  0  0  0  0  0  0
  196.6650  173.3560  143.7500 C   0  0  2  0  0  3  0  0  0  0  0  0
  196.8070  172.4500  146.4470 C   0  0  0  0  0  2  0  0  0  0  0  0
  1 13  1  0  0  0  0
  3  8  1  0  0  0  0
  4  5  1  0  0  0  0
  5  9  2  0  0  0  0
  6  7  2  0  0  0  0
  7  9  1  0  0  0  0
  8 23  1  0  0  0  0
 11  6  1  0  0  0  0
 11  4  2  0  0  0  0
 12 27  1  6  0  0  0
 12 14  1  0  0  0  0
 14 22  1  0  0  0  0
 15 24  1  0  0  0  0
 15 17  1  0  0  0  0
 16 18  1  0  0  0  0
 17  6  1  0  0  0  0
 18 19  1  0  0  0  0
 18  2  1  1  0  0  0
 19  2  1  1  0  0  0
 19  3  1  0  0  0  0
 20 10  1  0  0  0  0
 21 37  1  6  0  0  0
 21 16  1  0  0  0  0
 22 10  1  6  0  0  0
 22  1  1  0  0  0  0
 23 11  1  0  0  0  0
 24 13  1  6  0  0  0
 24 33  1  0  0  0  0
 25 26  1  0  0  0  0
 25 21  1  0  0  0  0
 26 12  1  0  0  0  0
 27 20  1  0  0  0  0
 28 32  1  0  0  0  0
 29 34  1  6  0  0  0
 29 32  1  0  0  0  0
 30 31  2  0  0  0  0
 30 33  1  0  0  0  0
 31 29  1  0  0  0  0
 33 28  1  0  0  0  0
 34 36  1  0  0  0  0
 35 34  2  0  0  0  0
 37 38  1  0  0  0  0
 38 40  1  0  0  0  0
 40 39  1  6  0  0  0
 40 48  1  0  0  0  0
 42 41  1  1  0  0  0
 42 40  1  0  0  0  0
 42 44  1  0  0  0  0
 43 42  1  0  0  0  0
 43 44  1  0  0  0  0
 44 45  1  6  0  0  0
 45 46  1  0  0  0  0
 46 47  1  0  0  0  0
 49 55  1  0  0  0  0
 50 48  1  6  0  0  0
 50 54  1  0  0  0  0
 50 53  1  0  0  0  0
 52 51  1  6  0  0  0
 52 49  1  0  0  0  0
 53 55  1  0  0  0  0
 54 51  1  6  0  0  0
 54 52  1  0  0  0  0
M  END
>  <MODEL>
3

>  <REMARK>
 VINA RESULT:      -7.1      1.800      2.559
  Name = 
  10 active torsions:
  status: ('A' for Active; 'I' for Inactive)
    1  A    between atoms: O_1  and  C_53
    2  A    between atoms: C_6  and  C_20
    3  A    between atoms: O_8  and  C_22
    4  A    between atoms: O_8  and  C_43
    5  A    between atoms: C_10  and  C_32
    6  A    between atoms: C_12  and  C_42
    7  A    between atoms: C_20  and  C_22
    8  A    between atoms: C_20  and  C_42
    9  A    between atoms: C_46  and  C_53
   10  A    between atoms: C_49  and  N_52
                            x       y       z     vdW  Elec       q    Type
                         _______ _______ _______ _____ _____    ______ ____

>  <TORSDO>
F 10

$$$$
=
 OpenBabel11052419303D

 55 62  0  0  1  0  0  0  0  0999 V2000
  188.9940  175.0060  140.9580 C   0  0  0  0  0  2  0  0  0  0  0  0
  191.8850  173.8260  142.5090 C   0  0  0  0  0  2  0  0  0  0  0  0
  193.7850  175.1400  143.2030 C   0  0  0  0  0  2  0  0  0  0  0  0
  192.5830  175.6510  146.5380 C   0  0  0  0  0  3  0  0  0  0  0  0
  191.8310  175.0800  147.5850 C   0  0  0  0  0  3  0  0  0  0  0  0
  190.5560  176.5780  145.5760 C   0  0  0  0  0  0  0  0  0  0  0  0
  189.8190  176.0260  146.6410 C   0  0  0  0  0  3  0  0  0  0  0  0
  194.0070  176.4580  143.9580 C   0  0  0  0  0  2  0  0  0  0  0  0
  190.4590  175.2990  147.6380 C   0  0  0  0  0  3  0  0  0  0  0  0
  188.2510  174.3410  138.6870 C   0  0  0  0  0  2  0  0  0  0  0  0
  191.9680  176.4220  145.5300 C   0  0  0  0  0  0  0  0  0  0  0  0
  190.8600  173.0270  138.9710 C   0  0  1  0  0  3  0  0  0  0  0  0
  188.8260  174.6670  142.4360 C   0  0  0  0  0  2  0  0  0  0  0  0
  189.7540  172.7400  139.9950 C   0  0  0  0  0  2  0  0  0  0  0  0
  189.7810  176.8090  143.2890 O   0  0  0  0  0  0  0  0  0  0  0  0
  193.7310  173.4890  141.0080 O   0  0  0  0  0  0  0  0  0  0  0  0
  189.8220  177.4160  144.5690 C   0  0  0  0  0  2  0  0  0  0  0  0
  192.5100  174.1560  141.1660 C   0  0  2  0  0  3  0  0  0  0  0  0
  192.5380  175.1820  142.3170 C   0  0  1  0  0  3  0  0  0  0  0  0
  188.8240  173.5380  137.5400 C   0  0  0  0  0  2  0  0  0  0  0  0
  193.4990  172.2210  140.4470 C   0  0  1  0  0  3  0  0  0  0  0  0
  188.6570  173.8180  140.0770 C   0  0  1  0  0  3  0  0  0  0  0  0
  192.7430  177.1680  144.4870 C   0  0  0  0  0  2  0  0  0  0  0  0
  188.7200  175.9160  143.3170 C   0  0  1  0  0  3  0  0  0  0  0  0
  193.0350  172.3360  138.9710 C   0  0  0  0  0  2  0  0  0  0  0  0
  191.7200  171.8980  138.8120 O   0  0  0  0  0  0  0  0  0  0  0  0
  190.3540  173.4980  137.5910 C   0  0  0  0  0  2  0  0  0  0  0  0
  186.9520  176.9030  141.8560 C   0  0  0  0  0  2  0  0  0  0  0  0
  184.7950  177.5410  142.8020 C   0  0  2  0  0  3  0  0  0  0  0  0
  186.5790  176.7860  144.3680 C   0  0  0  0  0  3  0  0  0  0  0  0
  185.3140  177.2760  144.2440 C   0  0  0  0  0  3  0  0  0  0  0  0
  185.9080  178.0080  141.8750 C   0  0  0  0  0  2  0  0  0  0  0  0
  187.3500  176.6370  143.2610 N   0  0  0  0  0  0  0  0  0  0  0  0
  183.6120  178.5340  142.7490 C   0  0  0  0  0  0  0  0  0  0  0  0
  183.3510  179.1870  143.7770 O   0  0  0  0  0  1  0  0  0  0  0  0
  182.7460  178.4930  141.7070 O   0  0  0  0  0  0  0  0  0  0  0  0
  194.5850  171.3470  140.6050 O   0  0  0  0  0  0  0  0  0  0  0  0
  195.5090  171.8300  139.6620 C   0  0  0  0  0  2  0  0  0  0  0  0
  197.9410  171.2740  139.7850 C   0  0  0  0  0  1  0  0  0  0  0  0
  196.8600  172.3080  140.2690 C   0  0  2  0  0  0  0  0  0  0  0  0
  197.7700  171.0780  142.2200 O   0  0  0  0  0  1  0  0  0  0  0  0
  196.8680  172.0840  141.8130 C   0  0  2  0  0  0  0  0  0  0  0  0
  196.2040  172.2020  142.9990 O   0  0  0  0  0  0  0  0  0  0  0  0
  196.8910  173.3860  142.6810 C   0  0  2  0  0  3  0  0  0  0  0  0
  197.8300  174.3200  141.7340 C   0  0  0  0  0  2  0  0  0  0  0  0
  197.7520  175.6990  141.8160 O   0  0  0  0  0  0  0  0  0  0  0  0
  197.4780  175.9060  143.1170 O   0  0  0  0  0  1  0  0  0  0  0  0
  197.4030  173.5200  139.4980 C   0  0  0  0  0  2  0  0  0  0  0  0
  196.8260  174.7480  135.3890 C   0  0  0  0  0  2  0  0  0  0  0  0
  197.8680  173.6540  138.0220 C   0  0  2  0  0  3  0  0  0  0  0  0
  197.0630  171.9720  136.1940 C   0  0  0  0  0  2  0  0  0  0  0  0
  197.5520  173.3590  135.7200 C   0  0  2  0  0  3  0  0  0  0  0  0
  197.8830  175.2100  137.6470 C   0  0  0  0  0  2  0  0  0  0  0  0
  196.8600  173.1350  137.1040 C   0  0  2  0  0  3  0  0  0  0  0  0
  197.5370  175.7520  136.2050 C   0  0  0  0  0  2  0  0  0  0  0  0
  1 13  1  0  0  0  0
  3  8  1  0  0  0  0
  4  5  1  0  0  0  0
  5  9  2  0  0  0  0
  6  7  2  0  0  0  0
  7  9  1  0  0  0  0
  8 23  1  0  0  0  0
 11  6  1  0  0  0  0
 11  4  2  0  0  0  0
 12 27  1  6  0  0  0
 12 14  1  0  0  0  0
 14 22  1  0  0  0  0
 15 24  1  0  0  0  0
 15 17  1  0  0  0  0
 16 18  1  0  0  0  0
 17  6  1  0  0  0  0
 18 19  1  0  0  0  0
 18  2  1  1  0  0  0
 19  2  1  1  0  0  0
 19  3  1  0  0  0  0
 20 27  1  0  0  0  0
 20 10  1  0  0  0  0
 21 37  1  6  0  0  0
 21 16  1  0  0  0  0
 22 10  1  6  0  0  0
 22  1  1  0  0  0  0
 23 11  1  0  0  0  0
 24 13  1  6  0  0  0
 25 21  1  0  0  0  0
 26 25  1  0  0  0  0
 26 12  1  0  0  0  0
 28 32  1  0  0  0  0
 28 33  1  0  0  0  0
 29 34  1  1  0  0  0
 29 31  1  0  0  0  0
 31 30  2  0  0  0  0
 32 29  1  0  0  0  0
 33 24  1  0  0  0  0
 33 30  1  0  0  0  0
 34 35  1  0  0  0  0
 36 34  2  0  0  0  0
 38 40  1  0  0  0  0
 38 37  1  0  0  0  0
 40 39  1  6  0  0  0
 40 42  1  0  0  0  0
 42 41  1  1  0  0  0
 42 44  1  0  0  0  0
 42 43  1  0  0  0  0
 44 45  1  6  0  0  0
 44 43  1  0  0  0  0
 45 46  1  0  0  0  0
 46 47  1  0  0  0  0
 48 40  1  0  0  0  0
 49 55  1  0  0  0  0
 50 48  1  1  0  0  0
 52 49  1  6  0  0  0
 52 51  1  0  0  0  0
 52 54  1  0  0  0  0
 53 50  1  0  0  0  0
 54 51  1  1  0  0  0
 54 50  1  0  0  0  0
 55 53  1  0  0  0  0
M  END
>  <MODEL>
4

>  <REMARK>
 VINA RESULT:      -6.4      2.011      2.907
  Name = 
  10 active torsions:
  status: ('A' for Active; 'I' for Inactive)
    1  A    between atoms: O_1  and  C_53
    2  A    between atoms: C_6  and  C_20
    3  A    between atoms: O_8  and  C_22
    4  A    between atoms: O_8  and  C_43
    5  A    between atoms: C_10  and  C_32
    6  A    between atoms: C_12  and  C_42
    7  A    between atoms: C_20  and  C_22
    8  A    between atoms: C_20  and  C_42
    9  A    between atoms: C_46  and  C_53
   10  A    between atoms: C_49  and  N_52
                            x       y       z     vdW  Elec       q    Type
                         _______ _______ _______ _____ _____    ______ ____

>  <TORSDO>
F 10

$$$$
=
 OpenBabel11052419303D

 55 62  0  0  1  0  0  0  0  0999 V2000
  189.4860  176.2090  144.3140 C   0  0  0  0  0  2  0  0  0  0  0  0
  191.9630  174.1260  143.0180 C   0  0  0  0  0  2  0  0  0  0  0  0
  191.8100  171.7420  142.6840 C   0  0  0  0  0  2  0  0  0  0  0  0
  190.6880  171.9940  139.2920 C   0  0  0  0  0  3  0  0  0  0  0  0
  190.7680  172.7630  138.1130 C   0  0  0  0  0  3  0  0  0  0  0  0
  188.8640  173.3850  140.0870 C   0  0  0  0  0  0  0  0  0  0  0  0
  188.9350  174.1280  138.8930 C   0  0  0  0  0  3  0  0  0  0  0  0
  190.7830  170.7680  142.0890 C   0  0  0  0  0  2  0  0  0  0  0  0
  189.8700  173.8050  137.9170 C   0  0  0  0  0  3  0  0  0  0  0  0
  189.7120  177.5210  146.4060 C   0  0  0  0  0  2  0  0  0  0  0  0
  189.7290  172.2740  140.2880 C   0  0  0  0  0  0  0  0  0  0  0  0
  192.1820  175.9370  146.3160 C   0  0  1  0  0  3  0  0  0  0  0  0
  189.6610  176.3000  142.8020 C   0  0  0  0  0  2  0  0  0  0  0  0
  191.8350  176.8660  145.1440 C   0  0  0  0  0  2  0  0  0  0  0  0
  188.3080  174.2700  142.2760 O   0  0  0  0  0  0  0  0  0  0  0  0
  193.2350  172.9620  144.6920 O   0  0  0  0  0  0  0  0  0  0  0  0
  187.7860  173.7320  141.0730 C   0  0  0  0  0  2  0  0  0  0  0  0
  192.0290  173.6320  144.4510 C   0  0  2  0  0  3  0  0  0  0  0  0
  191.1450  172.9110  143.4140 C   0  0  1  0  0  3  0  0  0  0  0  0
  190.7170  177.6190  147.5330 C   0  0  0  0  0  2  0  0  0  0  0  0
  194.2100  173.8890  145.0990 C   0  0  1  0  0  3  0  0  0  0  0  0
  190.3440  177.2330  145.0320 C   0  0  1  0  0  3  0  0  0  0  0  0
  189.5120  171.3970  141.4810 C   0  0  0  0  0  2  0  0  0  0  0  0
  188.5220  175.6200  142.0360 C   0  0  1  0  0  3  0  0  0  0  0  0
  193.9000  174.4480  146.5120 C   0  0  0  0  0  2  0  0  0  0  0  0
  193.5960  175.8090  146.4700 O   0  0  0  0  0  0  0  0  0  0  0  0
  191.5430  176.3360  147.6630 C   0  0  0  0  0  2  0  0  0  0  0  0
  186.8310  176.7600  140.5970 C   0  0  0  0  0  2  0  0  0  0  0  0
  184.7040  177.4900  141.5460 C   0  0  2  0  0  3  0  0  0  0  0  0
  186.4250  176.5770  143.0990 C   0  0  0  0  0  3  0  0  0  0  0  0
  185.1910  177.1440  142.9820 C   0  0  0  0  0  3  0  0  0  0  0  0
  185.8530  177.9220  140.6470 C   0  0  0  0  0  2  0  0  0  0  0  0
  187.1970  176.4210  141.9950 N   0  0  0  0  0  0  0  0  0  0  0  0
  183.5820  178.5510  141.5180 C   0  0  0  0  0  0  0  0  0  0  0  0
  183.4920  179.2790  140.5110 O   0  0  0  0  0  0  0  0  0  0  0  0
  182.8990  178.8380  142.6520 O   0  0  0  0  0  1  0  0  0  0  0  0
  195.5170  173.3910  144.9910 O   0  0  0  0  0  0  0  0  0  0  0  0
  196.0110  174.0650  143.8590 C   0  0  0  0  0  2  0  0  0  0  0  0
  197.4750  172.1300  143.2700 C   0  0  0  0  0  1  0  0  0  0  0  0
  196.4190  173.1340  142.6810 C   0  0  2  0  0  0  0  0  0  0  0  0
  197.9260  173.0850  140.7130 O   0  0  0  0  0  1  0  0  0  0  0  0
  197.2710  173.9230  141.6390 C   0  0  2  0  0  0  0  0  0  0  0  0
  197.9410  175.0700  141.3300 O   0  0  0  0  0  0  0  0  0  0  0  0
  196.5760  175.1810  141.0190 C   0  0  2  0  0  3  0  0  0  0  0  0
  195.0450  174.6320  140.9480 C   0  0  0  0  0  2  0  0  0  0  0  0
  193.9870  175.5200  140.8640 O   0  0  0  0  0  0  0  0  0  0  0  0
  194.3100  176.4560  141.7750 O   0  0  0  0  0  1  0  0  0  0  0  0
  195.3180  172.1010  142.3980 C   0  0  0  0  0  2  0  0  0  0  0  0
  193.4670  168.5680  140.7190 C   0  0  0  0  0  2  0  0  0  0  0  0
  195.3660  170.7610  141.6140 C   0  0  2  0  0  3  0  0  0  0  0  0
  195.4190  168.4670  142.8620 C   0  0  0  0  0  2  0  0  0  0  0  0
  194.9130  168.4730  141.4010 C   0  0  2  0  0  3  0  0  0  0  0  0
  194.4010  170.8950  140.3450 C   0  0  0  0  0  2  0  0  0  0  0  0
  194.7230  169.6890  142.3660 C   0  0  2  0  0  3  0  0  0  0  0  0
  193.5720  169.6850  139.7600 C   0  0  0  0  0  2  0  0  0  0  0  0
  2 19  1  0  0  0  0
  4 11  1  0  0  0  0
  5  4  2  0  0  0  0
  6 11  2  0  0  0  0
  6 17  1  0  0  0  0
  7  6  1  0  0  0  0
  8  3  1  0  0  0  0
  9  5  1  0  0  0  0
  9  7  2  0  0  0  0
 10 20  1  0  0  0  0
 11 23  1  0  0  0  0
 12 14  1  6  0  0  0
 12 26  1  0  0  0  0
 12 27  1  0  0  0  0
 13  1  1  0  0  0  0
 16 21  1  0  0  0  0
 17 15  1  0  0  0  0
 18  2  1  6  0  0  0
 18 16  1  0  0  0  0
 19  3  1  6  0  0  0
 19 18  1  0  0  0  0
 20 27  1  0  0  0  0
 21 37  1  1  0  0  0
 21 25  1  0  0  0  0
 22  1  1  1  0  0  0
 22 14  1  0  0  0  0
 22 10  1  0  0  0  0
 23  8  1  0  0  0  0
 24 33  1  1  0  0  0
 24 15  1  0  0  0  0
 24 13  1  0  0  0  0
 26 25  1  0  0  0  0
 28 32  1  0  0  0  0
 28 33  1  0  0  0  0
 29 34  1  1  0  0  0
 29 31  1  0  0  0  0
 31 30  2  0  0  0  0
 32 29  1  0  0  0  0
 33 30  1  0  0  0  0
 34 36  1  0  0  0  0
 35 34  2  0  0  0  0
 38 37  1  0  0  0  0
 40 39  1  1  0  0  0
 40 38  1  0  0  0  0
 42 41  1  6  0  0  0
 42 40  1  0  0  0  0
 43 42  1  0  0  0  0
 44 45  1  1  0  0  0
 44 43  1  0  0  0  0
 44 42  1  0  0  0  0
 46 45  1  0  0  0  0
 46 47  1  0  0  0  0
 48 40  1  0  0  0  0
 50 54  1  0  0  0  0
 50 48  1  1  0  0  0
 52 49  1  1  0  0  0
 52 54  1  0  0  0  0
 52 51  1  0  0  0  0
 53 50  1  0  0  0  0
 54 51  1  1  0  0  0
 55 53  1  0  0  0  0
 55 49  1  0  0  0  0
M  END
>  <MODEL>
5

>  <REMARK>
 VINA RESULT:      -6.3      1.835      5.820
  Name = 
  10 active torsions:
  status: ('A' for Active; 'I' for Inactive)
    1  A    between atoms: O_1  and  C_53
    2  A    between atoms: C_6  and  C_20
    3  A    between atoms: O_8  and  C_22
    4  A    between atoms: O_8  and  C_43
    5  A    between atoms: C_10  and  C_32
    6  A    between atoms: C_12  and  C_42
    7  A    between atoms: C_20  and  C_22
    8  A    between atoms: C_20  and  C_42
    9  A    between atoms: C_46  and  C_53
   10  A    between atoms: C_49  and  N_52
                            x       y       z     vdW  Elec       q    Type
                         _______ _______ _______ _____ _____    ______ ____

>  <TORSDO>
F 10

$$$$
=
 OpenBabel11052419303D

 55 62  0  0  1  0  0  0  0  0999 V2000
  192.4670  171.7180  139.1380 C   0  0  0  0  0  2  0  0  0  0  0  0
  192.3360  173.1020  142.3360 C   0  0  0  0  0  2  0  0  0  0  0  0
  192.5840  171.9230  144.4250 C   0  0  0  0  0  2  0  0  0  0  0  0
  196.1120  172.4960  144.6650 C   0  0  0  0  0  3  0  0  0  0  0  0
  197.1490  173.3990  144.3560 C   0  0  0  0  0  3  0  0  0  0  0  0
  196.3430  171.4670  142.4780 C   0  0  0  0  0  0  0  0  0  0  0  0
  197.3960  172.3560  142.1910 C   0  0  0  0  0  3  0  0  0  0  0  0
  193.5450  170.8730  145.0000 C   0  0  0  0  0  2  0  0  0  0  0  0
  197.7980  173.2980  143.1300 C   0  0  0  0  0  3  0  0  0  0  0  0
  190.5840  171.7360  137.5240 C   0  0  0  0  0  2  0  0  0  0  0  0
  195.7020  171.5060  143.7470 C   0  0  0  0  0  0  0  0  0  0  0  0
  189.4190  172.8950  139.9570 C   0  0  1  0  0  3  0  0  0  0  0  0
  193.7200  172.4860  139.5470 C   0  0  0  0  0  2  0  0  0  0  0  0
  190.6600  173.5440  139.3290 C   0  0  0  0  0  2  0  0  0  0  0  0
  194.7220  170.6280  140.8790 O   0  0  0  0  0  0  0  0  0  0  0  0
  190.2040  172.8570  143.4180 O   0  0  0  0  0  0  0  0  0  0  0  0
  196.0010  170.4220  141.4550 C   0  0  0  0  0  2  0  0  0  0  0  0
  191.0190  172.3500  142.3980 C   0  0  2  0  0  3  0  0  0  0  0  0
  192.3140  171.7080  142.9340 C   0  0  1  0  0  3  0  0  0  0  0  0
  189.1230  172.1260  137.5540 C   0  0  0  0  0  2  0  0  0  0  0  0
  189.4320  173.9170  142.9140 C   0  0  1  0  0  3  0  0  0  0  0  0
  191.4810  172.6150  138.4150 C   0  0  1  0  0  3  0  0  0  0  0  0
  194.7110  170.4370  144.0880 C   0  0  0  0  0  2  0  0  0  0  0  0
  194.8980  171.5610  139.8670 C   0  0  1  0  0  3  0  0  0  0  0  0
  188.3620  173.4070  141.9130 C   0  0  0  0  0  2  0  0  0  0  0  0
  188.6090  173.8670  140.6200 O   0  0  0  0  0  0  0  0  0  0  0  0
  188.5540  172.0760  138.9750 C   0  0  0  0  0  2  0  0  0  0  0  0
  196.8970  171.6250  138.3720 C   0  0  0  0  0  2  0  0  0  0  0  0
  197.2730  169.8400  136.7500 C   0  0  2  0  0  3  0  0  0  0  0  0
  195.1380  169.8210  138.0330 C   0  0  0  0  0  3  0  0  0  0  0  0
  195.8770  169.2270  137.0540 C   0  0  0  0  0  3  0  0  0  0  0  0
  197.2800  171.3520  136.9260 C   0  0  0  0  0  2  0  0  0  0  0  0
  195.6000  170.9500  138.6280 N   0  0  0  0  0  0  0  0  0  0  0  0
  197.8150  169.4690  135.3520 C   0  0  0  0  0  0  0  0  0  0  0  0
  197.9410  170.3810  134.5130 O   0  0  0  0  0  0  0  0  0  0  0  0
  197.8990  168.1670  134.9860 O   0  0  0  0  0  1  0  0  0  0  0  0
  188.8850  174.7240  143.9230 O   0  0  0  0  0  0  0  0  0  0  0  0
  189.0650  176.0210  143.4120 C   0  0  0  0  0  2  0  0  0  0  0  0
  189.8020  178.3960  143.6490 C   0  0  0  0  0  1  0  0  0  0  0  0
  189.7200  177.0220  144.4080 C   0  0  2  0  0  0  0  0  0  0  0  0
  192.0530  177.8170  144.6730 O   0  0  0  0  0  1  0  0  0  0  0  0
  191.2270  176.6750  144.6110 C   0  0  2  0  0  0  0  0  0  0  0  0
  192.2250  175.7530  144.4850 O   0  0  0  0  0  0  0  0  0  0  0  0
  191.5250  175.5820  145.6910 C   0  0  2  0  0  3  0  0  0  0  0  0
  190.3600  175.9480  146.7680 C   0  0  0  0  0  2  0  0  0  0  0  0
  189.8830  174.9820  147.6370 O   0  0  0  0  0  0  0  0  0  0  0  0
  188.5530  175.1820  147.6040 O   0  0  0  0  0  1  0  0  0  0  0  0
  188.7090  177.4610  145.4780 C   0  0  0  0  0  2  0  0  0  0  0  0
  184.4380  177.4210  146.1760 C   0  0  0  0  0  2  0  0  0  0  0  0
  187.2840  178.0630  145.3370 C   0  0  2  0  0  3  0  0  0  0  0  0
  185.6150  177.1760  143.5350 C   0  0  0  0  0  2  0  0  0  0  0  0
  185.0200  177.9030  144.7630 C   0  0  2  0  0  3  0  0  0  0  0  0
  186.7150  178.3390  146.8070 C   0  0  0  0  0  2  0  0  0  0  0  0
  186.3410  177.0710  144.8330 C   0  0  2  0  0  3  0  0  0  0  0  0
  185.1880  178.2000  147.1800 C   0  0  0  0  0  2  0  0  0  0  0  0
  1 13  1  0  0  0  0
  3  8  1  0  0  0  0
  5  4  1  0  0  0  0
  6 11  1  0  0  0  0
  7  6  2  0  0  0  0
  7  9  1  0  0  0  0
  9  5  2  0  0  0  0
 10 20  1  0  0  0  0
 11 23  1  0  0  0  0
 11  4  2  0  0  0  0
 12 27  1  6  0  0  0
 12 26  1  0  0  0  0
 13 24  1  0  0  0  0
 14 12  1  0  0  0  0
 15 17  1  0  0  0  0
 17  6  1  0  0  0  0
 18  2  1  6  0  0  0
 18 19  1  0  0  0  0
 18 16  1  0  0  0  0
 19  2  1  6  0  0  0
 19  3  1  0  0  0  0
 20 27  1  0  0  0  0
 21 16  1  0  0  0  0
 21 37  1  1  0  0  0
 22 10  1  1  0  0  0
 22  1  1  0  0  0  0
 22 14  1  0  0  0  0
 23  8  1  0  0  0  0
 24 33  1  6  0  0  0
 24 15  1  0  0  0  0
 25 21  1  0  0  0  0
 26 25  1  0  0  0  0
 28 33  1  0  0  0  0
 29 34  1  6  0  0  0
 29 32  1  0  0  0  0
 29 31  1  0  0  0  0
 30 33  1  0  0  0  0
 31 30  2  0  0  0  0
 32 28  1  0  0  0  0
 35 34  2  0  0  0  0
 36 34  1  0  0  0  0
 38 37  1  0  0  0  0
 38 40  1  0  0  0  0
 40 39  1  6  0  0  0
 40 42  1  0  0  0  0
 40 48  1  0  0  0  0
 42 41  1  1  0  0  0
 42 44  1  0  0  0  0
 43 42  1  0  0  0  0
 43 44  1  0  0  0  0
 44 45  1  6  0  0  0
 45 46  1  0  0  0  0
 47 46  1  0  0  0  0
 49 55  1  0  0  0  0
 50 48  1  1  0  0  0
 50 53  1  0  0  0  0
 52 51  1  6  0  0  0
 52 54  1  0  0  0  0
 52 49  1  0  0  0  0
 53 55  1  0  0  0  0
 54 51  1  6  0  0  0
 54 50  1  0  0  0  0
M  END
>  <MODEL>
6

>  <REMARK>
 VINA RESULT:      -6.2      3.253      9.406
  Name = 
  10 active torsions:
  status: ('A' for Active; 'I' for Inactive)
    1  A    between atoms: O_1  and  C_53
    2  A    between atoms: C_6  and  C_20
    3  A    between atoms: O_8  and  C_22
    4  A    between atoms: O_8  and  C_43
    5  A    between atoms: C_10  and  C_32
    6  A    between atoms: C_12  and  C_42
    7  A    between atoms: C_20  and  C_22
    8  A    between atoms: C_20  and  C_42
    9  A    between atoms: C_46  and  C_53
   10  A    between atoms: C_49  and  N_52
                            x       y       z     vdW  Elec       q    Type
                         _______ _______ _______ _____ _____    ______ ____

>  <TORSDO>
F 10

$$$$
=
 OpenBabel11052419303D

 55 62  0  0  1  0  0  0  0  0999 V2000
  191.4730  175.8710  144.1840 C   0  0  0  0  0  2  0  0  0  0  0  0
  192.7760  173.7340  141.7560 C   0  0  0  0  0  2  0  0  0  0  0  0
  192.1820  171.4240  141.4050 C   0  0  0  0  0  2  0  0  0  0  0  0
  189.6550  172.1390  138.9690 C   0  0  0  0  0  3  0  0  0  0  0  0
  189.2760  173.0210  137.9380 C   0  0  0  0  0  3  0  0  0  0  0  0
  188.6030  173.5880  140.6090 C   0  0  0  0  0  0  0  0  0  0  0  0
  188.2060  174.4470  139.5670 C   0  0  0  0  0  3  0  0  0  0  0  0
  190.8820  170.6130  141.3150 C   0  0  0  0  0  2  0  0  0  0  0  0
  188.5300  174.1520  138.2480 C   0  0  0  0  0  3  0  0  0  0  0  0
  192.8100  176.9240  145.9880 C   0  0  0  0  0  2  0  0  0  0  0  0
  189.3130  172.3910  140.3140 C   0  0  0  0  0  0  0  0  0  0  0  0
  194.7300  175.1510  144.6510 C   0  0  1  0  0  3  0  0  0  0  0  0
  190.9360  176.1100  142.7770 C   0  0  0  0  0  2  0  0  0  0  0  0
  194.0010  176.2280  143.8360 C   0  0  0  0  0  2  0  0  0  0  0  0
  189.2460  174.2740  142.8450 O   0  0  0  0  0  0  0  0  0  0  0  0
  194.5190  172.2900  142.5610 O   0  0  0  0  0  0  0  0  0  0  0  0
  188.1610  173.9170  142.0050 C   0  0  0  0  0  2  0  0  0  0  0  0
  193.4360  173.0840  142.9580 C   0  0  2  0  0  3  0  0  0  0  0  0
  192.0870  172.5600  142.4260 C   0  0  1  0  0  3  0  0  0  0  0  0
  194.2270  176.8110  146.5070 C   0  0  0  0  0  2  0  0  0  0  0  0
  195.6810  173.0790  142.5080 C   0  0  1  0  0  3  0  0  0  0  0  0
  192.6890  176.7330  144.4650 C   0  0  1  0  0  3  0  0  0  0  0  0
  189.5660  171.4110  141.4180 C   0  0  0  0  0  2  0  0  0  0  0  0
  189.4950  175.6190  142.6070 C   0  0  1  0  0  3  0  0  0  0  0  0
  196.1370  173.5060  143.9280 C   0  0  0  0  0  2  0  0  0  0  0  0
  196.0250  174.8850  144.1090 O   0  0  0  0  0  0  0  0  0  0  0  0
  194.8480  175.4550  146.1600 C   0  0  0  0  0  2  0  0  0  0  0  0
  188.2890  176.2620  144.6960 C   0  0  0  0  0  2  0  0  0  0  0  0
  186.8800  178.2540  144.7350 C   0  0  2  0  0  3  0  0  0  0  0  0
  187.8540  177.5560  142.5510 C   0  0  0  0  0  3  0  0  0  0  0  0
  187.0360  178.4320  143.1980 C   0  0  0  0  0  3  0  0  0  0  0  0
  186.9360  176.7900  145.1440 C   0  0  0  0  0  2  0  0  0  0  0  0
  188.4160  176.5320  143.2420 N   0  0  0  0  0  0  0  0  0  0  0  0
  185.6030  178.9140  145.3020 C   0  0  0  0  0  0  0  0  0  0  0  0
  184.7300  179.2860  144.4950 O   0  0  0  0  0  0  0  0  0  0  0  0
  185.5640  179.2990  146.6000 O   0  0  0  0  0  1  0  0  0  0  0  0
  196.7120  172.4850  141.7660 O   0  0  0  0  0  0  0  0  0  0  0  0
  196.6500  171.1410  142.1740 C   0  0  0  0  0  2  0  0  0  0  0  0
  197.9410  169.4800  140.8280 C   0  0  0  0  0  1  0  0  0  0  0  0
  196.5160  170.1170  141.0090 C   0  0  2  0  0  0  0  0  0  0  0  0
  197.4120  170.7020  138.7720 O   0  0  0  0  0  1  0  0  0  0  0  0
  196.3220  170.8650  139.6540 C   0  0  2  0  0  0  0  0  0  0  0  0
  195.7020  171.8690  138.9690 O   0  0  0  0  0  0  0  0  0  0  0  0
  194.9090  170.7100  138.9970 C   0  0  2  0  0  3  0  0  0  0  0  0
  194.5860  169.1720  139.4240 C   0  0  0  0  0  2  0  0  0  0  0  0
  193.8150  168.3670  138.6030 O   0  0  0  0  0  0  0  0  0  0  0  0
  192.5610  168.6460  139.0030 O   0  0  0  0  0  1  0  0  0  0  0  0
  195.8020  168.8440  141.4850 C   0  0  0  0  0  2  0  0  0  0  0  0
  194.5500  169.5910  145.5590 C   0  0  0  0  0  2  0  0  0  0  0  0
  195.4110  168.3770  142.9140 C   0  0  2  0  0  3  0  0  0  0  0  0
  197.1300  168.4550  144.8790 C   0  0  0  0  0  2  0  0  0  0  0  0
  195.6290  168.4490  145.2440 C   0  0  2  0  0  3  0  0  0  0  0  0
  193.9210  168.8790  143.2090 C   0  0  0  0  0  2  0  0  0  0  0  0
  196.1750  169.0940  143.9290 C   0  0  2  0  0  3  0  0  0  0  0  0
  193.4260  169.3140  144.6440 C   0  0  0  0  0  2  0  0  0  0  0  0
  1 22  1  0  0  0  0
  2 19  1  0  0  0  0
  4 11  1  0  0  0  0
  5  9  1  0  0  0  0
  5  4  2  0  0  0  0
  6 17  1  0  0  0  0
  7  6  1  0  0  0  0
  8  3  1  0  0  0  0
  8 23  1  0  0  0  0
  9  7  2  0  0  0  0
 10 20  1  0  0  0  0
 11  6  2  0  0  0  0
 11 23  1  0  0  0  0
 12 14  1  6  0  0  0
 12 27  1  0  0  0  0
 13  1  1  0  0  0  0
 16 18  1  0  0  0  0
 17 15  1  0  0  0  0
 18  2  1  6  0  0  0
 19  3  1  6  0  0  0
 19 18  1  0  0  0  0
 21 37  1  1  0  0  0
 21 16  1  0  0  0  0
 21 25  1  0  0  0  0
 22 14  1  1  0  0  0
 22 10  1  0  0  0  0
 24 13  1  1  0  0  0
 24 15  1  0  0  0  0
 24 33  1  0  0  0  0
 25 26  1  0  0  0  0
 26 12  1  0  0  0  0
 27 20  1  0  0  0  0
 28 32  1  0  0  0  0
 29 32  1  0  0  0  0
 29 34  1  6  0  0  0
 30 31  2  0  0  0  0
 30 33  1  0  0  0  0
 31 29  1  0  0  0  0
 33 28  1  0  0  0  0
 34 36  1  0  0  0  0
 35 34  2  0  0  0  0
 37 38  1  0  0  0  0
 40 39  1  6  0  0  0
 40 48  1  0  0  0  0
 40 38  1  0  0  0  0
 42 41  1  6  0  0  0
 42 40  1  0  0  0  0
 43 44  1  0  0  0  0
 43 42  1  0  0  0  0
 44 45  1  1  0  0  0
 44 42  1  0  0  0  0
 46 47  1  0  0  0  0
 46 45  1  0  0  0  0
 50 48  1  6  0  0  0
 50 53  1  0  0  0  0
 50 54  1  0  0  0  0
 52 51  1  1  0  0  0
 52 49  1  0  0  0  0
 53 55  1  0  0  0  0
 54 51  1  6  0  0  0
 54 52  1  0  0  0  0
 55 49  1  0  0  0  0
M  END
>  <MODEL>
7

>  <REMARK>
 VINA RESULT:      -6.1      2.116      5.905
  Name = 
  10 active torsions:
  status: ('A' for Active; 'I' for Inactive)
    1  A    between atoms: O_1  and  C_53
    2  A    between atoms: C_6  and  C_20
    3  A    between atoms: O_8  and  C_22
    4  A    between atoms: O_8  and  C_43
    5  A    between atoms: C_10  and  C_32
    6  A    between atoms: C_12  and  C_42
    7  A    between atoms: C_20  and  C_22
    8  A    between atoms: C_20  and  C_42
    9  A    between atoms: C_46  and  C_53
   10  A    between atoms: C_49  and  N_52
                            x       y       z     vdW  Elec       q    Type
                         _______ _______ _______ _____ _____    ______ ____

>  <TORSDO>
F 10

$$$$
=
 OpenBabel11052419303D

 55 62  0  0  1  0  0  0  0  0999 V2000
  192.9020  173.8740  145.6500 C   0  0  0  0  0  2  0  0  0  0  0  0
  192.0640  175.3650  142.6120 C   0  0  0  0  0  2  0  0  0  0  0  0
  193.5520  176.5600  141.1370 C   0  0  0  0  0  2  0  0  0  0  0  0
  194.3560  173.6920  139.1480 C   0  0  0  0  0  3  0  0  0  0  0  0
  193.8610  172.4720  138.6440 C   0  0  0  0  0  3  0  0  0  0  0  0
  195.0560  172.5770  141.1880 C   0  0  0  0  0  0  0  0  0  0  0  0
  194.5830  171.3600  140.6630 C   0  0  0  0  0  3  0  0  0  0  0  0
  194.9550  176.3370  140.5560 C   0  0  0  0  0  2  0  0  0  0  0  0
  194.0060  171.3140  139.3990 C   0  0  0  0  0  3  0  0  0  0  0  0
  191.9520  174.5340  147.8450 C   0  0  0  0  0  2  0  0  0  0  0  0
  194.9760  173.7670  140.4120 C   0  0  0  0  0  0  0  0  0  0  0  0
  190.8270  176.5070  145.9850 C   0  0  1  0  0  3  0  0  0  0  0  0
  192.7180  172.8960  144.4950 C   0  0  0  0  0  2  0  0  0  0  0  0
  190.5910  175.0110  145.7340 C   0  0  0  0  0  2  0  0  0  0  0  0
  194.9910  173.2340  143.5220 O   0  0  0  0  0  0  0  0  0  0  0  0
  191.6700  177.7310  142.7610 O   0  0  0  0  0  0  0  0  0  0  0  0
  195.7350  172.5540  142.5270 C   0  0  0  0  0  2  0  0  0  0  0  0
  192.2810  176.6440  143.4000 C   0  0  2  0  0  3  0  0  0  0  0  0
  193.4260  176.0330  142.5680 C   0  0  1  0  0  3  0  0  0  0  0  0
  191.0620  175.6430  148.3620 C   0  0  0  0  0  2  0  0  0  0  0  0
  190.3380  177.8380  143.1960 C   0  0  1  0  0  3  0  0  0  0  0  0
  191.6080  174.0760  146.4160 C   0  0  1  0  0  3  0  0  0  0  0  0
  195.6450  175.0060  140.9210 C   0  0  0  0  0  2  0  0  0  0  0  0
  194.0470  172.3300  143.9870 C   0  0  1  0  0  3  0  0  0  0  0  0
  190.2640  178.2910  144.6770 C   0  0  0  0  0  2  0  0  0  0  0  0
  189.7370  177.2890  145.4930 O   0  0  0  0  0  0  0  0  0  0  0  0
  191.1140  176.8760  147.4560 C   0  0  0  0  0  2  0  0  0  0  0  0
  195.8240  171.7930  145.6560 C   0  0  0  0  0  2  0  0  0  0  0  0
  195.7620  169.6820  146.8780 C   0  0  2  0  0  3  0  0  0  0  0  0
  194.0890  170.0320  145.0660 C   0  0  0  0  0  3  0  0  0  0  0  0
  194.5890  169.1700  145.9960 C   0  0  0  0  0  3  0  0  0  0  0  0
  196.6800  170.6230  146.1110 C   0  0  0  0  0  2  0  0  0  0  0  0
  194.6790  171.2410  144.8910 N   0  0  0  0  0  0  0  0  0  0  0  0
  196.5880  168.5450  147.5200 C   0  0  0  0  0  0  0  0  0  0  0  0
  196.2700  168.1670  148.6640 O   0  0  0  0  0  1  0  0  0  0  0  0
  197.7620  168.1660  146.9600 O   0  0  0  0  0  0  0  0  0  0  0  0
  189.5490  178.6310  142.3490 O   0  0  0  0  0  0  0  0  0  0  0  0
  189.0390  177.6920  141.4350 C   0  0  0  0  0  2  0  0  0  0  0  0
  187.0710  176.4130  140.5800 C   0  0  0  0  0  1  0  0  0  0  0  0
  187.7180  177.0040  141.8860 C   0  0  2  0  0  0  0  0  0  0  0  0
  185.4610  177.9850  141.5830 O   0  0  0  0  0  1  0  0  0  0  0  0
  186.6680  178.0770  142.3090 C   0  0  2  0  0  0  0  0  0  0  0  0
  186.4260  179.2920  142.8800 O   0  0  0  0  0  0  0  0  0  0  0  0
  186.4990  178.2800  143.8520 C   0  0  2  0  0  3  0  0  0  0  0  0
  186.7150  176.7440  144.3470 C   0  0  0  0  0  2  0  0  0  0  0  0
  186.5500  176.4100  145.6800 O   0  0  0  0  0  0  0  0  0  0  0  0
  186.3480  177.6050  146.2640 O   0  0  0  0  0  1  0  0  0  0  0  0
  188.0120  175.6620  142.5710 C   0  0  0  0  0  2  0  0  0  0  0  0
  190.2640  172.0660  141.7170 C   0  0  0  0  0  2  0  0  0  0  0  0
  188.1540  174.2330  141.9790 C   0  0  2  0  0  3  0  0  0  0  0  0
  189.2680  173.8410  139.6490 C   0  0  0  0  0  2  0  0  0  0  0  0
  189.2370  172.6500  140.6350 C   0  0  2  0  0  3  0  0  0  0  0  0
  188.5500  173.2400  143.1700 C   0  0  0  0  0  2  0  0  0  0  0  0
  189.3220  174.1370  141.1090 C   0  0  2  0  0  3  0  0  0  0  0  0
  189.4900  171.9880  142.9710 C   0  0  0  0  0  2  0  0  0  0  0  0
  4 11  1  0  0  0  0
  5  4  2  0  0  0  0
  5  9  1  0  0  0  0
  6 17  1  0  0  0  0
  7  6  1  0  0  0  0
  8 23  1  0  0  0  0
  8  3  1  0  0  0  0
  9  7  2  0  0  0  0
 10 20  1  0  0  0  0
 11 23  1  0  0  0  0
 11  6  2  0  0  0  0
 12 14  1  1  0  0  0
 12 27  1  0  0  0  0
 13  1  1  0  0  0  0
 14 22  1  0  0  0  0
 15 24  1  0  0  0  0
 16 21  1  0  0  0  0
 16 18  1  0  0  0  0
 17 15  1  0  0  0  0
 18  2  1  6  0  0  0
 19  3  1  6  0  0  0
 19  2  1  0  0  0  0
 19 18  1  0  0  0  0
 21 37  1  6  0  0  0
 21 25  1  0  0  0  0
 22  1  1  6  0  0  0
 22 10  1  0  0  0  0
 24 13  1  1  0  0  0
 24 33  1  0  0  0  0
 25 26  1  0  0  0  0
 26 12  1  0  0  0  0
 27 20  1  0  0  0  0
 28 32  1  0  0  0  0
 29 34  1  6  0  0  0
 30 31  2  0  0  0  0
 31 29  1  0  0  0  0
 32 29  1  0  0  0  0
 33 30  1  0  0  0  0
 33 28  1  0  0  0  0
 34 35  1  0  0  0  0
 36 34  2  0  0  0  0
 38 40  1  0  0  0  0
 38 37  1  0  0  0  0
 40 39  1  6  0  0  0
 40 42  1  0  0  0  0
 40 48  1  0  0  0  0
 42 41  1  6  0  0  0
 42 43  1  0  0  0  0
 42 44  1  0  0  0  0
 43 44  1  0  0  0  0
 44 45  1  1  0  0  0
 45 46  1  0  0  0  0
 46 47  1  0  0  0  0
 49 55  1  0  0  0  0
 50 48  1  1  0  0  0
 50 53  1  0  0  0  0
 52 51  1  6  0  0  0
 52 54  1  0  0  0  0
 52 49  1  0  0  0  0
 54 51  1  6  0  0  0
 54 50  1  0  0  0  0
 55 53  1  0  0  0  0
M  END
>  <MODEL>
8

>  <REMARK>
 VINA RESULT:      -6.0      2.437      9.907
  Name = 
  10 active torsions:
  status: ('A' for Active; 'I' for Inactive)
    1  A    between atoms: O_1  and  C_53
    2  A    between atoms: C_6  and  C_20
    3  A    between atoms: O_8  and  C_22
    4  A    between atoms: O_8  and  C_43
    5  A    between atoms: C_10  and  C_32
    6  A    between atoms: C_12  and  C_42
    7  A    between atoms: C_20  and  C_22
    8  A    between atoms: C_20  and  C_42
    9  A    between atoms: C_46  and  C_53
   10  A    between atoms: C_49  and  N_52
                            x       y       z     vdW  Elec       q    Type
                         _______ _______ _______ _____ _____    ______ ____

>  <TORSDO>
F 10

$$$$
=
 OpenBabel11052419303D

 55 62  0  0  1  0  0  0  0  0999 V2000
  188.8790  175.2090  141.4680 C   0  0  0  0  0  2  0  0  0  0  0  0
  191.8540  173.8730  142.7020 C   0  0  0  0  0  2  0  0  0  0  0  0
  193.8740  175.0870  143.2110 C   0  0  0  0  0  2  0  0  0  0  0  0
  193.0440  175.6010  146.6580 C   0  0  0  0  0  3  0  0  0  0  0  0
  192.3770  175.0500  147.7700 C   0  0  0  0  0  3  0  0  0  0  0  0
  190.9760  176.6360  145.9180 C   0  0  0  0  0  0  0  0  0  0  0  0
  190.3270  176.1020  147.0470 C   0  0  0  0  0  3  0  0  0  0  0  0
  194.2340  176.3820  143.9540 C   0  0  0  0  0  2  0  0  0  0  0  0
  191.0290  175.3310  147.9650 C   0  0  0  0  0  3  0  0  0  0  0  0
  187.8770  174.6150  139.2790 C   0  0  0  0  0  2  0  0  0  0  0  0
  192.3670  176.4160  145.7260 C   0  0  0  0  0  0  0  0  0  0  0  0
  190.4370  173.1770  139.2790 C   0  0  1  0  0  3  0  0  0  0  0  0
  188.8460  174.8560  142.9510 C   0  0  0  0  0  2  0  0  0  0  0  0
  189.4280  172.9260  140.4080 C   0  0  0  0  0  2  0  0  0  0  0  0
  189.9840  176.9380  143.7250 O   0  0  0  0  0  0  0  0  0  0  0  0
  193.5180  173.4740  141.0160 O   0  0  0  0  0  0  0  0  0  0  0  0
  190.1840  177.5220  145.0000 C   0  0  0  0  0  2  0  0  0  0  0  0
  192.3530  174.1950  141.3060 C   0  0  2  0  0  3  0  0  0  0  0  0
  192.5470  175.2000  142.4590 C   0  0  1  0  0  3  0  0  0  0  0  0
  188.2920  173.8040  138.0710 C   0  0  0  0  0  2  0  0  0  0  0  0
  193.1710  172.2280  140.4680 C   0  0  1  0  0  3  0  0  0  0  0  0
  188.3970  174.0520  140.6140 C   0  0  1  0  0  3  0  0  0  0  0  0
  193.0660  177.1400  144.6170 C   0  0  0  0  0  2  0  0  0  0  0  0
  188.8900  176.0940  143.8520 C   0  0  1  0  0  3  0  0  0  0  0  0
  192.5650  172.3860  139.0490 C   0  0  0  0  0  2  0  0  0  0  0  0
  191.2210  172.0120  139.0210 O   0  0  0  0  0  0  0  0  0  0  0  0
  189.8150  173.6920  137.9630 C   0  0  0  0  0  2  0  0  0  0  0  0
  186.9690  176.7570  145.3010 C   0  0  0  0  0  2  0  0  0  0  0  0
  185.4050  178.4750  144.5550 C   0  0  2  0  0  3  0  0  0  0  0  0
  187.1500  177.7080  142.9510 C   0  0  0  0  0  3  0  0  0  0  0  0
  186.0590  178.5020  143.1450 C   0  0  0  0  0  3  0  0  0  0  0  0
  185.4910  177.0970  145.1940 C   0  0  0  0  0  2  0  0  0  0  0  0
  187.5570  176.8790  143.9450 N   0  0  0  0  0  0  0  0  0  0  0  0
  183.9410  178.9700  144.5610 C   0  0  0  0  0  0  0  0  0  0  0  0
  183.3530  179.0410  145.6580 O   0  0  0  0  0  1  0  0  0  0  0  0
  183.2590  179.0690  143.3950 O   0  0  0  0  0  0  0  0  0  0  0  0
  194.2240  171.3010  140.5040 O   0  0  0  0  0  0  0  0  0  0  0  0
  195.3520  172.1090  140.2740 C   0  0  0  0  0  2  0  0  0  0  0  0
  197.8220  172.4780  140.2470 C   0  0  0  0  0  1  0  0  0  0  0  0
  196.7070  171.4510  140.6640 C   0  0  2  0  0  0  0  0  0  0  0  0
  196.1080  169.1730  139.8900 O   0  0  0  0  0  1  0  0  0  0  0  0
  197.0120  170.2440  139.7240 C   0  0  2  0  0  0  0  0  0  0  0  0
  197.9290  169.5730  138.9690 O   0  0  0  0  0  0  0  0  0  0  0  0
  197.3350  170.6150  138.2380 C   0  0  2  0  0  3  0  0  0  0  0  0
  196.3290  171.8820  138.0560 C   0  0  0  0  0  2  0  0  0  0  0  0
  195.4870  171.9540  136.9590 O   0  0  0  0  0  0  0  0  0  0  0  0
  195.0080  170.7000  136.8690 O   0  0  0  0  0  1  0  0  0  0  0  0
  196.9350  171.5360  142.1800 C   0  0  0  0  0  2  0  0  0  0  0  0
  196.8160  173.3450  146.1100 C   0  0  0  0  0  2  0  0  0  0  0  0
  196.3070  172.4750  143.2470 C   0  0  2  0  0  3  0  0  0  0  0  0
  194.7690  171.5350  145.1370 C   0  0  0  0  0  2  0  0  0  0  0  0
  195.4580  172.8950  145.3880 C   0  0  2  0  0  3  0  0  0  0  0  0
  197.4050  173.5660  143.6540 C   0  0  0  0  0  2  0  0  0  0  0  0
  196.1000  171.7730  144.5090 C   0  0  2  0  0  3  0  0  0  0  0  0
  197.5240  174.1670  145.1090 C   0  0  0  0  0  2  0  0  0  0  0  0
  1 13  1  0  0  0  0
  3  8  1  0  0  0  0
  4  5  1  0  0  0  0
  5  9  2  0  0  0  0
  6  7  2  0  0  0  0
  7  9  1  0  0  0  0
  8 23  1  0  0  0  0
 11  6  1  0  0  0  0
 11  4  2  0  0  0  0
 12 27  1  6  0  0  0
 12 14  1  0  0  0  0
 14 22  1  0  0  0  0
 15 24  1  0  0  0  0
 15 17  1  0  0  0  0
 16 18  1  0  0  0  0
 17  6  1  0  0  0  0
 18 19  1  0  0  0  0
 18  2  1  1  0  0  0
 19  2  1  1  0  0  0
 19  3  1  0  0  0  0
 20 10  1  0  0  0  0
 21 37  1  6  0  0  0
 21 16  1  0  0  0  0
 22 10  1  6  0  0  0
 22  1  1  0  0  0  0
 23 11  1  0  0  0  0
 24 13  1  6  0  0  0
 24 33  1  0  0  0  0
 25 21  1  0  0  0  0
 26 25  1  0  0  0  0
 26 12  1  0  0  0  0
 27 20  1  0  0  0  0
 29 34  1  6  0  0  0
 29 32  1  0  0  0  0
 30 31  2  0  0  0  0
 30 33  1  0  0  0  0
 31 29  1  0  0  0  0
 32 28  1  0  0  0  0
 33 28  1  0  0  0  0
 34 35  1  0  0  0  0
 36 34  2  0  0  0  0
 38 37  1  0  0  0  0
 38 40  1  0  0  0  0
 40 39  1  6  0  0  0
 40 48  1  0  0  0  0
 42 41  1  6  0  0  0
 42 40  1  0  0  0  0
 43 42  1  0  0  0  0
 44 45  1  1  0  0  0
 44 43  1  0  0  0  0
 44 42  1  0  0  0  0
 46 45  1  0  0  0  0
 47 46  1  0  0  0  0
 50 48  1  6  0  0  0
 50 53  1  0  0  0  0
 50 54  1  0  0  0  0
 52 51  1  1  0  0  0
 52 49  1  0  0  0  0
 53 55  1  0  0  0  0
 54 51  1  6  0  0  0
 54 52  1  0  0  0  0
 55 49  1  0  0  0  0
M  END
>  <MODEL>
9

>  <REMARK>
 VINA RESULT:      -5.9      1.950      3.170
  Name = 
  10 active torsions:
  status: ('A' for Active; 'I' for Inactive)
    1  A    between atoms: O_1  and  C_53
    2  A    between atoms: C_6  and  C_20
    3  A    between atoms: O_8  and  C_22
    4  A    between atoms: O_8  and  C_43
    5  A    between atoms: C_10  and  C_32
    6  A    between atoms: C_12  and  C_42
    7  A    between atoms: C_20  and  C_22
    8  A    between atoms: C_20  and  C_42
    9  A    between atoms: C_46  and  C_53
   10  A    between atoms: C_49  and  N_52
                            x       y       z     vdW  Elec       q    Type
                         _______ _______ _______ _____ _____    ______ ____

>  <TORSDO>
F 10

$$$$
