=
 OpenBabel11052418543D

 34 38  0  0  1  0  0  0  0  0999 V2000
  192.7890  173.1090  142.8690 N   0  0  0  0  0  0  0  0  0  0  0  0
  189.9400  171.3040  141.4790 O   0  0  0  0  0  0  0  0  0  0  0  0
  190.1820  173.6840  141.5330 N   0  0  0  0  0  0  0  0  0  0  0  0
  188.1830  175.2280  141.9070 C   0  0  2  0  0  3  0  0  0  0  0  0
  192.0110  172.1260  140.6680 C   0  0  1  0  0  3  0  0  0  0  0  0
  191.8540  170.7210  140.1600 C   0  0  0  0  0  2  0  0  0  0  0  0
  188.7540  174.2740  139.7730 O   0  0  0  0  0  0  0  0  0  0  0  0
  190.5400  172.4160  140.8880 C   0  0  1  0  0  3  0  0  0  0  0  0
  192.8690  171.9920  141.9360 C   0  0  0  0  0  2  0  0  0  0  0  0
  190.7390  174.1450  142.8040 C   0  0  1  0  0  3  0  0  0  0  0  0
  193.3420  174.3510  142.3090 C   0  0  0  0  0  1  0  0  0  0  0  0
  190.6020  170.2110  140.8830 C   0  0  0  0  0  2  0  0  0  0  0  0
  188.9030  175.7060  143.0900 N   0  0  0  0  0  2  0  0  0  0  0  0
  189.6020  174.5900  143.7230 C   0  0  2  0  0  3  0  0  0  0  0  0
  189.0670  174.4150  140.9860 C   0  0  0  0  0  0  0  0  0  0  0  0
  191.5330  173.1600  143.4280 O   0  0  0  0  0  0  0  0  0  0  0  0
  191.6350  176.1000  146.5660 C   0  0  0  0  0  0  0  0  0  0  0  0
  190.9310  175.6200  147.6750 C   0  0  0  0  0  3  0  0  0  0  0  0
  190.0780  174.9720  145.0870 C   0  0  0  0  0  0  0  0  0  0  0  0
  189.8090  174.8110  147.4870 C   0  0  0  0  0  3  0  0  0  0  0  0
  191.2120  175.7770  145.2760 C   0  0  0  0  0  3  0  0  0  0  0  0
  189.3840  174.4880  146.1980 C   0  0  0  0  0  3  0  0  0  0  0  0
  192.7220  176.8880  146.7470 F   0  0  0  0  0  0  0  0  0  0  0  0
  187.3920  176.6420  141.0530 S   0  0  0  0  0  0  0  0  0  0  0  0
  187.8440  177.8490  142.3330 C   0  0  0  0  0  2  0  0  0  0  0  0
  186.5980  178.5430  142.8510 C   0  0  0  0  0  2  0  0  0  0  0  0
  185.6580  177.5250  143.4830 C   0  0  0  0  0  2  0  0  0  0  0  0
  183.7810  178.9240  145.1040 O   0  0  0  0  0  0  0  0  0  0  0  0
  185.7070  177.5930  144.9400 N   0  0  0  0  0  0  0  0  0  0  0  0
  184.7690  178.3960  145.6830 C   0  0  0  0  0  0  0  0  0  0  0  0
  185.8420  177.6120  147.8020 C   0  0  0  0  0  2  0  0  0  0  0  0
  187.0910  177.3330  146.9740 C   0  0  0  0  0  2  0  0  0  0  0  0
  186.6780  176.7390  145.6320 C   0  0  0  0  0  2  0  0  0  0  0  0
  185.0050  178.6980  147.1340 C   0  0  0  0  0  2  0  0  0  0  0  0
  1 16  1  0  0  0  0
  3 10  1  0  0  0  0
  4 24  1  6  0  0  0
  4 13  1  0  0  0  0
  5  6  1  1  0  0  0
  5  8  1  0  0  0  0
  5  9  1  0  0  0  0
  6 12  1  0  0  0  0
  7 15  2  0  0  0  0
  8  2  1  1  0  0  0
  8  3  1  0  0  0  0
  9  1  1  0  0  0  0
 10 16  1  1  0  0  0
 10 14  1  0  0  0  0
 11  1  1  0  0  0  0
 12  2  1  0  0  0  0
 13 14  1  0  0  0  0
 14 19  1  1  0  0  0
 15  3  1  0  0  0  0
 15  4  1  0  0  0  0
 17 23  1  0  0  0  0
 17 18  1  0  0  0  0
 19 21  1  0  0  0  0
 19 22  2  0  0  0  0
 20 18  2  0  0  0  0
 21 17  2  0  0  0  0
 22 20  1  0  0  0  0
 24 25  1  0  0  0  0
 25 26  1  0  0  0  0
 26 27  1  0  0  0  0
 27 29  1  0  0  0  0
 28 30  2  0  0  0  0
 29 33  1  0  0  0  0
 29 30  1  0  0  0  0
 30 34  1  0  0  0  0
 32 31  1  0  0  0  0
 33 32  1  0  0  0  0
 34 31  1  0  0  0  0
M  END
>  <MODEL>
1

>  <REMARK>
 VINA RESULT:      -7.7      0.000      0.000
  Name = 
  6 active torsions:
  status: ('A' for Active; 'I' for Inactive)
    1  A    between atoms: C_3  and  N_13
    2  A    between atoms: C_3  and  C_17
    3  A    between atoms: C_5  and  S_18
    4  A    between atoms: C_12  and  C_28
    5  A    between atoms: C_17  and  C_29
    6  A    between atoms: S_18  and  C_29
                            x       y       z     vdW  Elec       q    Type
                         _______ _______ _______ _____ _____    ______ ____

>  <TORSDO>
F 6

$$$$
=
 OpenBabel11052418543D

 34 38  0  0  1  0  0  0  0  0999 V2000
  187.3510  177.0720  142.6650 N   0  0  0  0  0  0  0  0  0  0  0  0
  186.0380  176.7910  146.0570 O   0  0  0  0  0  0  0  0  0  0  0  0
  188.3460  177.0500  145.4800 N   0  0  0  0  0  0  0  0  0  0  0  0
  190.1990  175.8960  146.8050 C   0  0  2  0  0  3  0  0  0  0  0  0
  186.5060  178.5520  144.5400 C   0  0  1  0  0  3  0  0  0  0  0  0
  185.1460  178.8090  145.1220 C   0  0  0  0  0  2  0  0  0  0  0  0
  189.1610  177.9610  147.4770 O   0  0  0  0  0  0  0  0  0  0  0  0
  187.0350  177.6830  145.6640 C   0  0  1  0  0  3  0  0  0  0  0  0
  186.2350  177.8380  143.2070 C   0  0  0  0  0  2  0  0  0  0  0  0
  188.7110  176.2390  144.3200 C   0  0  1  0  0  3  0  0  0  0  0  0
  188.4840  177.9260  142.2790 C   0  0  0  0  0  1  0  0  0  0  0  0
  184.8510  177.5390  145.9290 C   0  0  0  0  0  2  0  0  0  0  0  0
  190.5530  175.2410  145.5440 N   0  0  0  0  0  2  0  0  0  0  0  0
  189.3380  174.9290  144.7950 C   0  0  2  0  0  3  0  0  0  0  0  0
  189.2500  177.0590  146.6010 C   0  0  0  0  0  0  0  0  0  0  0  0
  187.6100  175.9900  143.4740 O   0  0  0  0  0  0  0  0  0  0  0  0
  190.4000  173.5400  141.4120 C   0  0  0  0  0  0  0  0  0  0  0  0
  190.1460  172.1780  141.5970 C   0  0  0  0  0  3  0  0  0  0  0  0
  189.6380  173.9910  143.6710 C   0  0  0  0  0  0  0  0  0  0  0  0
  189.6310  171.7270  142.8140 C   0  0  0  0  0  3  0  0  0  0  0  0
  190.1460  174.4450  142.4450 C   0  0  0  0  0  3  0  0  0  0  0  0
  189.3790  172.6300  143.8480 C   0  0  0  0  0  3  0  0  0  0  0  0
  190.9020  173.9790  140.2330 F   0  0  0  0  0  0  0  0  0  0  0  0
  191.7220  176.3830  147.6970 S   0  0  0  0  0  0  0  0  0  0  0  0
  192.7420  176.4680  146.1960 C   0  0  0  0  0  2  0  0  0  0  0  0
  194.1630  176.0400  146.5120 C   0  0  0  0  0  2  0  0  0  0  0  0
  194.9340  175.7940  145.2220 C   0  0  0  0  0  2  0  0  0  0  0  0
  195.1190  175.3230  142.4200 O   0  0  0  0  0  0  0  0  0  0  0  0
  194.4660  174.5850  144.5500 N   0  0  0  0  0  0  0  0  0  0  0  0
  194.5160  174.4610  143.1140 C   0  0  0  0  0  0  0  0  0  0  0  0
  193.5860  172.1490  143.3260 C   0  0  0  0  0  2  0  0  0  0  0  0
  193.0130  172.5860  144.6690 C   0  0  0  0  0  2  0  0  0  0  0  0
  194.0360  173.4600  145.3870 C   0  0  0  0  0  2  0  0  0  0  0  0
  193.7700  173.3610  142.4180 C   0  0  0  0  0  2  0  0  0  0  0  0
  1  9  1  0  0  0  0
  1 16  1  0  0  0  0
  3  8  1  0  0  0  0
  3 15  1  0  0  0  0
  4 24  1  6  0  0  0
  5  9  1  6  0  0  0
  5  6  1  0  0  0  0
  5  8  1  0  0  0  0
  6 12  1  0  0  0  0
  8  2  1  6  0  0  0
 10 16  1  1  0  0  0
 10 14  1  0  0  0  0
 10  3  1  0  0  0  0
 11  1  1  0  0  0  0
 12  2  1  0  0  0  0
 13  4  1  0  0  0  0
 14 19  1  6  0  0  0
 14 13  1  0  0  0  0
 15  4  1  0  0  0  0
 15  7  2  0  0  0  0
 17 18  2  0  0  0  0
 17 21  1  0  0  0  0
 18 20  1  0  0  0  0
 19 22  1  0  0  0  0
 20 22  2  0  0  0  0
 21 19  2  0  0  0  0
 23 17  1  0  0  0  0
 25 26  1  0  0  0  0
 25 24  1  0  0  0  0
 27 26  1  0  0  0  0
 28 30  2  0  0  0  0
 29 27  1  0  0  0  0
 29 33  1  0  0  0  0
 30 29  1  0  0  0  0
 31 32  1  0  0  0  0
 32 33  1  0  0  0  0
 34 30  1  0  0  0  0
 34 31  1  0  0  0  0
M  END
>  <MODEL>
2

>  <REMARK>
 VINA RESULT:      -7.5      2.983      7.711
  Name = 
  6 active torsions:
  status: ('A' for Active; 'I' for Inactive)
    1  A    between atoms: C_3  and  N_13
    2  A    between atoms: C_3  and  C_17
    3  A    between atoms: C_5  and  S_18
    4  A    between atoms: C_12  and  C_28
    5  A    between atoms: C_17  and  C_29
    6  A    between atoms: S_18  and  C_29
                            x       y       z     vdW  Elec       q    Type
                         _______ _______ _______ _____ _____    ______ ____

>  <TORSDO>
F 6

$$$$
=
 OpenBabel11052418543D

 34 38  0  0  1  0  0  0  0  0999 V2000
  187.2140  177.1480  142.6860 N   0  0  0  0  0  0  0  0  0  0  0  0
  186.0510  176.7520  146.1210 O   0  0  0  0  0  0  0  0  0  0  0  0
  188.3270  177.0720  145.4550 N   0  0  0  0  0  0  0  0  0  0  0  0
  190.2560  175.9230  146.6700 C   0  0  2  0  0  3  0  0  0  0  0  0
  186.4210  178.5610  144.6330 C   0  0  1  0  0  3  0  0  0  0  0  0
  185.0820  178.7750  145.2790 C   0  0  0  0  0  2  0  0  0  0  0  0
  189.2080  177.9480  147.4410 O   0  0  0  0  0  0  0  0  0  0  0  0
  187.0140  177.6740  145.7100 C   0  0  1  0  0  3  0  0  0  0  0  0
  186.1080  177.8770  143.2940 C   0  0  0  0  0  2  0  0  0  0  0  0
  188.6580  176.2990  144.2590 C   0  0  1  0  0  3  0  0  0  0  0  0
  188.3140  178.0340  142.2760 C   0  0  0  0  0  1  0  0  0  0  0  0
  184.8450  177.4790  146.0630 C   0  0  0  0  0  2  0  0  0  0  0  0
  190.5700  175.3080  145.3780 N   0  0  0  0  0  2  0  0  0  0  0  0
  189.3300  174.9910  144.6730 C   0  0  2  0  0  3  0  0  0  0  0  0
  189.2780  177.0700  146.5380 C   0  0  0  0  0  0  0  0  0  0  0  0
  187.5280  176.0500  143.4540 O   0  0  0  0  0  0  0  0  0  0  0  0
  190.5120  173.6660  141.3040 C   0  0  0  0  0  0  0  0  0  0  0  0
  190.0420  172.3500  141.3610 C   0  0  0  0  0  3  0  0  0  0  0  0
  189.6010  174.0890  143.5120 C   0  0  0  0  0  0  0  0  0  0  0  0
  189.3460  171.9110  142.4880 C   0  0  0  0  0  3  0  0  0  0  0  0
  190.2910  174.5340  142.3750 C   0  0  0  0  0  3  0  0  0  0  0  0
  189.1270  172.7760  143.5600 C   0  0  0  0  0  3  0  0  0  0  0  0
  191.1900  174.0940  140.2130 F   0  0  0  0  0  0  0  0  0  0  0  0
  191.8060  176.4170  147.5110 S   0  0  0  0  0  0  0  0  0  0  0  0
  192.8600  175.3180  146.5190 C   0  0  0  0  0  2  0  0  0  0  0  0
  194.2800  175.8500  146.4930 C   0  0  0  0  0  2  0  0  0  0  0  0
  194.4400  176.8570  145.3610 C   0  0  0  0  0  2  0  0  0  0  0  0
  192.6940  176.7920  143.1120 O   0  0  0  0  0  0  0  0  0  0  0  0
  194.7370  176.1890  144.0970 N   0  0  0  0  0  0  0  0  0  0  0  0
  193.7620  176.1260  143.0370 C   0  0  0  0  0  0  0  0  0  0  0  0
  195.4340  174.9120  141.6300 C   0  0  0  0  0  2  0  0  0  0  0  0
  196.1090  174.4930  142.9310 C   0  0  0  0  0  2  0  0  0  0  0  0
  196.0940  175.6680  143.9020 C   0  0  0  0  0  2  0  0  0  0  0  0
  193.9560  175.1960  141.8760 C   0  0  0  0  0  2  0  0  0  0  0  0
  1  9  1  0  0  0  0
  1 16  1  0  0  0  0
  3  8  1  0  0  0  0
  3 15  1  0  0  0  0
  4 24  1  6  0  0  0
  5  9  1  6  0  0  0
  5  6  1  0  0  0  0
  5  8  1  0  0  0  0
  6 12  1  0  0  0  0
  8  2  1  6  0  0  0
 10 16  1  1  0  0  0
 10 14  1  0  0  0  0
 10  3  1  0  0  0  0
 11  1  1  0  0  0  0
 12  2  1  0  0  0  0
 13  4  1  0  0  0  0
 14 19  1  6  0  0  0
 14 13  1  0  0  0  0
 15  4  1  0  0  0  0
 15  7  2  0  0  0  0
 17 18  2  0  0  0  0
 17 21  1  0  0  0  0
 18 20  1  0  0  0  0
 19 22  1  0  0  0  0
 20 22  2  0  0  0  0
 21 19  2  0  0  0  0
 23 17  1  0  0  0  0
 25 24  1  0  0  0  0
 26 25  1  0  0  0  0
 27 26  1  0  0  0  0
 29 27  1  0  0  0  0
 30 28  2  0  0  0  0
 30 29  1  0  0  0  0
 31 34  1  0  0  0  0
 31 32  1  0  0  0  0
 32 33  1  0  0  0  0
 33 29  1  0  0  0  0
 34 30  1  0  0  0  0
M  END
>  <MODEL>
3

>  <REMARK>
 VINA RESULT:      -7.5      3.003      7.743
  Name = 
  6 active torsions:
  status: ('A' for Active; 'I' for Inactive)
    1  A    between atoms: C_3  and  N_13
    2  A    between atoms: C_3  and  C_17
    3  A    between atoms: C_5  and  S_18
    4  A    between atoms: C_12  and  C_28
    5  A    between atoms: C_17  and  C_29
    6  A    between atoms: S_18  and  C_29
                            x       y       z     vdW  Elec       q    Type
                         _______ _______ _______ _____ _____    ______ ____

>  <TORSDO>
F 6

$$$$
=
 OpenBabel11052418543D

 34 38  0  0  1  0  0  0  0  0999 V2000
  188.7300  176.6150  146.8630 N   0  0  0  0  0  0  0  0  0  0  0  0
  187.5230  178.0050  143.7130 O   0  0  0  0  0  0  0  0  0  0  0  0
  188.4130  175.8030  144.0070 N   0  0  0  0  0  0  0  0  0  0  0  0
  189.8340  174.6790  142.2080 C   0  0  2  0  0  3  0  0  0  0  0  0
  186.5920  176.7730  145.5130 C   0  0  1  0  0  3  0  0  0  0  0  0
  185.6460  177.8970  145.2000 C   0  0  0  0  0  2  0  0  0  0  0  0
  187.4280  174.7230  142.1780 O   0  0  0  0  0  0  0  0  0  0  0  0
  187.2680  176.7070  144.1580 C   0  0  1  0  0  3  0  0  0  0  0  0
  187.4550  177.2950  146.6720 C   0  0  0  0  0  2  0  0  0  0  0  0
  189.5800  175.8010  144.8880 C   0  0  1  0  0  3  0  0  0  0  0  0
  188.5630  175.2120  147.2720 C   0  0  0  0  0  1  0  0  0  0  0  0
  186.4110  178.7400  144.1740 C   0  0  0  0  0  2  0  0  0  0  0  0
  190.8880  174.6150  143.2240 N   0  0  0  0  0  2  0  0  0  0  0  0
  190.8520  175.8240  144.0430 C   0  0  2  0  0  3  0  0  0  0  0  0
  188.4830  175.0160  142.8030 C   0  0  0  0  0  0  0  0  0  0  0  0
  189.5630  176.8780  145.8000 O   0  0  0  0  0  0  0  0  0  0  0  0
  194.1390  177.0730  145.5040 C   0  0  0  0  0  0  0  0  0  0  0  0
  194.4140  176.0640  146.4320 C   0  0  0  0  0  3  0  0  0  0  0  0
  192.0920  175.9370  144.8700 C   0  0  0  0  0  0  0  0  0  0  0  0
  193.5320  174.9900  146.5700 C   0  0  0  0  0  3  0  0  0  0  0  0
  192.9830  177.0100  144.7240 C   0  0  0  0  0  3  0  0  0  0  0  0
  192.3750  174.9270  145.7920 C   0  0  0  0  0  3  0  0  0  0  0  0
  194.9920  178.1170  145.3710 F   0  0  0  0  0  0  0  0  0  0  0  0
  189.8080  173.1200  141.2480 S   0  0  0  0  0  0  0  0  0  0  0  0
  190.1290  172.0620  142.6890 C   0  0  0  0  0  2  0  0  0  0  0  0
  191.4850  171.3960  142.5490 C   0  0  0  0  0  2  0  0  0  0  0  0
  192.1660  171.3050  143.9090 C   0  0  0  0  0  2  0  0  0  0  0  0
  194.2860  170.7490  145.7260 O   0  0  0  0  0  0  0  0  0  0  0  0
  193.4670  171.9660  143.8940 N   0  0  0  0  0  0  0  0  0  0  0  0
  194.4570  171.6910  144.9050 C   0  0  0  0  0  0  0  0  0  0  0  0
  196.0160  173.2650  143.7450 C   0  0  0  0  0  2  0  0  0  0  0  0
  194.7790  173.9260  143.1470 C   0  0  0  0  0  2  0  0  0  0  0  0
  193.7740  172.8460  142.7620 C   0  0  0  0  0  2  0  0  0  0  0  0
  195.6570  172.5780  145.0580 C   0  0  0  0  0  2  0  0  0  0  0  0
  1 11  1  0  0  0  0
  2 12  1  0  0  0  0
  3  8  1  0  0  0  0
  3 10  1  0  0  0  0
  4 24  1  1  0  0  0
  4 15  1  0  0  0  0
  4 13  1  0  0  0  0
  5  6  1  6  0  0  0
  5  9  1  0  0  0  0
  7 15  2  0  0  0  0
  8  2  1  1  0  0  0
  8  5  1  0  0  0  0
  9  1  1  0  0  0  0
 10 16  1  1  0  0  0
 12  6  1  0  0  0  0
 13 14  1  0  0  0  0
 14 19  1  1  0  0  0
 14 10  1  0  0  0  0
 15  3  1  0  0  0  0
 16  1  1  0  0  0  0
 17 18  1  0  0  0  0
 18 20  2  0  0  0  0
 19 22  2  0  0  0  0
 21 19  1  0  0  0  0
 21 17  2  0  0  0  0
 22 20  1  0  0  0  0
 23 17  1  0  0  0  0
 24 25  1  0  0  0  0
 26 25  1  0  0  0  0
 26 27  1  0  0  0  0
 29 27  1  0  0  0  0
 29 30  1  0  0  0  0
 30 34  1  0  0  0  0
 30 28  2  0  0  0  0
 31 34  1  0  0  0  0
 32 31  1  0  0  0  0
 33 32  1  0  0  0  0
 33 29  1  0  0  0  0
M  END
>  <MODEL>
4

>  <REMARK>
 VINA RESULT:      -7.4      2.492      7.214
  Name = 
  6 active torsions:
  status: ('A' for Active; 'I' for Inactive)
    1  A    between atoms: C_3  and  N_13
    2  A    between atoms: C_3  and  C_17
    3  A    between atoms: C_5  and  S_18
    4  A    between atoms: C_12  and  C_28
    5  A    between atoms: C_17  and  C_29
    6  A    between atoms: S_18  and  C_29
                            x       y       z     vdW  Elec       q    Type
                         _______ _______ _______ _____ _____    ______ ____

>  <TORSDO>
F 6

$$$$
=
 OpenBabel11052418543D

 34 38  0  0  1  0  0  0  0  0999 V2000
  188.4390  176.8150  146.8860 N   0  0  0  0  0  0  0  0  0  0  0  0
  187.2840  178.2930  143.7560 O   0  0  0  0  0  0  0  0  0  0  0  0
  188.1310  176.0700  144.0110 N   0  0  0  0  0  0  0  0  0  0  0  0
  189.5460  174.9560  142.2010 C   0  0  2  0  0  3  0  0  0  0  0  0
  186.3160  177.0420  145.5220 C   0  0  1  0  0  3  0  0  0  0  0  0
  185.3930  178.1900  145.2250 C   0  0  0  0  0  2  0  0  0  0  0  0
  187.1410  175.0460  142.1520 O   0  0  0  0  0  0  0  0  0  0  0  0
  187.0020  176.9920  144.1710 C   0  0  1  0  0  3  0  0  0  0  0  0
  187.1780  177.5240  146.6980 C   0  0  0  0  0  2  0  0  0  0  0  0
  189.2900  176.0280  144.9010 C   0  0  1  0  0  3  0  0  0  0  0  0
  188.2430  175.4080  147.2640 C   0  0  0  0  0  1  0  0  0  0  0  0
  186.1830  179.0390  144.2220 C   0  0  0  0  0  2  0  0  0  0  0  0
  190.5890  174.8510  143.2230 N   0  0  0  0  0  2  0  0  0  0  0  0
  190.5700  176.0440  144.0670 C   0  0  2  0  0  3  0  0  0  0  0  0
  188.1960  175.3060  142.7910 C   0  0  0  0  0  0  0  0  0  0  0  0
  189.2850  177.0850  145.8350 O   0  0  0  0  0  0  0  0  0  0  0  0
  193.9900  177.0390  145.4140 C   0  0  0  0  0  0  0  0  0  0  0  0
  194.1040  176.1710  146.5040 C   0  0  0  0  0  3  0  0  0  0  0  0
  191.8050  176.1160  144.9060 C   0  0  0  0  0  0  0  0  0  0  0  0
  193.0730  175.2730  146.7870 C   0  0  0  0  0  3  0  0  0  0  0  0
  192.8450  177.0110  144.6150 C   0  0  0  0  0  3  0  0  0  0  0  0
  191.9270  175.2460  145.9910 C   0  0  0  0  0  3  0  0  0  0  0  0
  194.9870  177.9130  145.1400 F   0  0  0  0  0  0  0  0  0  0  0  0
  189.4990  173.4180  141.2080 S   0  0  0  0  0  0  0  0  0  0  0  0
  189.5410  172.3170  142.6520 C   0  0  0  0  0  2  0  0  0  0  0  0
  190.6260  171.2720  142.4730 C   0  0  0  0  0  2  0  0  0  0  0  0
  191.9200  171.9340  142.0200 C   0  0  0  0  0  2  0  0  0  0  0  0
  193.6660  174.1580  142.3550 O   0  0  0  0  0  0  0  0  0  0  0  0
  192.8470  172.1020  143.1350 N   0  0  0  0  0  0  0  0  0  0  0  0
  193.7620  173.2150  143.1860 C   0  0  0  0  0  0  0  0  0  0  0  0
  194.5820  172.3830  145.3970 C   0  0  0  0  0  2  0  0  0  0  0  0
  194.0830  171.0060  144.9760 C   0  0  0  0  0  2  0  0  0  0  0  0
  192.7490  171.1580  144.2530 C   0  0  0  0  0  2  0  0  0  0  0  0
  194.8990  173.2220  144.1640 C   0  0  0  0  0  2  0  0  0  0  0  0
  1 11  1  0  0  0  0
  2 12  1  0  0  0  0
  3  8  1  0  0  0  0
  3 10  1  0  0  0  0
  4 24  1  1  0  0  0
  4 15  1  0  0  0  0
  4 13  1  0  0  0  0
  5  6  1  6  0  0  0
  5  9  1  0  0  0  0
  7 15  2  0  0  0  0
  8  2  1  1  0  0  0
  8  5  1  0  0  0  0
  9  1  1  0  0  0  0
 10 16  1  1  0  0  0
 12  6  1  0  0  0  0
 13 14  1  0  0  0  0
 14 10  1  0  0  0  0
 14 19  1  1  0  0  0
 15  3  1  0  0  0  0
 16  1  1  0  0  0  0
 17 18  1  0  0  0  0
 18 20  2  0  0  0  0
 19 22  2  0  0  0  0
 21 19  1  0  0  0  0
 21 17  2  0  0  0  0
 22 20  1  0  0  0  0
 23 17  1  0  0  0  0
 24 25  1  0  0  0  0
 26 25  1  0  0  0  0
 27 26  1  0  0  0  0
 27 29  1  0  0  0  0
 28 30  2  0  0  0  0
 29 30  1  0  0  0  0
 29 33  1  0  0  0  0
 30 34  1  0  0  0  0
 32 31  1  0  0  0  0
 33 32  1  0  0  0  0
 34 31  1  0  0  0  0
M  END
>  <MODEL>
5

>  <REMARK>
 VINA RESULT:      -7.4      2.344      6.986
  Name = 
  6 active torsions:
  status: ('A' for Active; 'I' for Inactive)
    1  A    between atoms: C_3  and  N_13
    2  A    between atoms: C_3  and  C_17
    3  A    between atoms: C_5  and  S_18
    4  A    between atoms: C_12  and  C_28
    5  A    between atoms: C_17  and  C_29
    6  A    between atoms: S_18  and  C_29
                            x       y       z     vdW  Elec       q    Type
                         _______ _______ _______ _____ _____    ______ ____

>  <TORSDO>
F 6

$$$$
=
 OpenBabel11052418543D

 34 38  0  0  1  0  0  0  0  0999 V2000
  193.4820  172.8680  143.4590 N   0  0  0  0  0  0  0  0  0  0  0  0
  194.6550  176.3090  143.7610 O   0  0  0  0  0  0  0  0  0  0  0  0
  192.9120  175.3170  145.0670 N   0  0  0  0  0  0  0  0  0  0  0  0
  190.8580  176.6480  145.7960 C   0  0  2  0  0  3  0  0  0  0  0  0
  195.1960  174.2200  144.7430 C   0  0  1  0  0  3  0  0  0  0  0  0
  196.4870  174.8850  144.3610 C   0  0  0  0  0  2  0  0  0  0  0  0
  192.9720  176.7160  146.9450 O   0  0  0  0  0  0  0  0  0  0  0  0
  194.3530  175.4760  144.8380 C   0  0  1  0  0  3  0  0  0  0  0  0
  194.8750  173.2800  143.5710 C   0  0  0  0  0  2  0  0  0  0  0  0
  192.0400  174.4700  144.2570 C   0  0  1  0  0  3  0  0  0  0  0  0
  193.0480  172.0330  144.5890 C   0  0  0  0  0  1  0  0  0  0  0  0
  196.0380  176.1200  143.5700 C   0  0  0  0  0  2  0  0  0  0  0  0
  190.0780  175.6540  145.0550 N   0  0  0  0  0  2  0  0  0  0  0  0
  190.8010  175.2640  143.8460 C   0  0  2  0  0  3  0  0  0  0  0  0
  192.2900  176.2070  146.0150 C   0  0  0  0  0  0  0  0  0  0  0  0
  192.7010  173.9500  143.1240 O   0  0  0  0  0  0  0  0  0  0  0  0
  188.6180  174.3140  140.8750 C   0  0  0  0  0  0  0  0  0  0  0  0
  188.2090  173.0310  141.2500 C   0  0  0  0  0  3  0  0  0  0  0  0
  189.9080  174.5040  142.9200 C   0  0  0  0  0  0  0  0  0  0  0  0
  188.6430  172.4920  142.4620 C   0  0  0  0  0  3  0  0  0  0  0  0
  189.4640  175.0500  141.7070 C   0  0  0  0  0  3  0  0  0  0  0  0
  189.4900  173.2250  143.2940 C   0  0  0  0  0  3  0  0  0  0  0  0
  188.2000  174.8380  139.6980 F   0  0  0  0  0  0  0  0  0  0  0  0
  190.0040  177.0590  147.3620 S   0  0  0  0  0  0  0  0  0  0  0  0
  188.4320  176.2920  146.8710 C   0  0  0  0  0  2  0  0  0  0  0  0
  187.3590  177.3570  146.7320 C   0  0  0  0  0  2  0  0  0  0  0  0
  186.0850  176.7430  146.1680 C   0  0  0  0  0  2  0  0  0  0  0  0
  184.1090  178.6410  145.3910 O   0  0  0  0  0  0  0  0  0  0  0  0
  185.8490  177.1830  144.7960 N   0  0  0  0  0  0  0  0  0  0  0  0
  184.7690  178.0820  144.4740 C   0  0  0  0  0  0  0  0  0  0  0  0
  185.5050  178.0400  142.0840 C   0  0  0  0  0  2  0  0  0  0  0  0
  186.1580  176.6970  142.3900 C   0  0  0  0  0  2  0  0  0  0  0  0
  186.8060  176.7600  143.7690 C   0  0  0  0  0  2  0  0  0  0  0  0
  184.3500  178.2900  143.0490 C   0  0  0  0  0  2  0  0  0  0  0  0
  1  9  1  0  0  0  0
  1 11  1  0  0  0  0
  3 15  1  0  0  0  0
  4 15  1  0  0  0  0
  4 24  1  1  0  0  0
  5  9  1  6  0  0  0
  5  8  1  0  0  0  0
  6  5  1  0  0  0  0
  8  2  1  6  0  0  0
  8  3  1  0  0  0  0
 10 16  1  6  0  0  0
 10  3  1  0  0  0  0
 12  2  1  0  0  0  0
 12  6  1  0  0  0  0
 13  4  1  0  0  0  0
 14 19  1  6  0  0  0
 14 10  1  0  0  0  0
 14 13  1  0  0  0  0
 15  7  2  0  0  0  0
 16  1  1  0  0  0  0
 17 18  2  0  0  0  0
 17 21  1  0  0  0  0
 18 20  1  0  0  0  0
 19 22  1  0  0  0  0
 20 22  2  0  0  0  0
 21 19  2  0  0  0  0
 23 17  1  0  0  0  0
 25 24  1  0  0  0  0
 26 25  1  0  0  0  0
 27 26  1  0  0  0  0
 29 27  1  0  0  0  0
 30 29  1  0  0  0  0
 30 28  2  0  0  0  0
 31 32  1  0  0  0  0
 31 34  1  0  0  0  0
 32 33  1  0  0  0  0
 33 29  1  0  0  0  0
 34 30  1  0  0  0  0
M  END
>  <MODEL>
6

>  <REMARK>
 VINA RESULT:      -7.4      2.937      5.018
  Name = 
  6 active torsions:
  status: ('A' for Active; 'I' for Inactive)
    1  A    between atoms: C_3  and  N_13
    2  A    between atoms: C_3  and  C_17
    3  A    between atoms: C_5  and  S_18
    4  A    between atoms: C_12  and  C_28
    5  A    between atoms: C_17  and  C_29
    6  A    between atoms: S_18  and  C_29
                            x       y       z     vdW  Elec       q    Type
                         _______ _______ _______ _____ _____    ______ ____

>  <TORSDO>
F 6

$$$$
=
 OpenBabel11052418543D

 34 38  0  0  1  0  0  0  0  0999 V2000
  188.9370  176.3540  146.9350 N   0  0  0  0  0  0  0  0  0  0  0  0
  187.6120  177.9860  143.9530 O   0  0  0  0  0  0  0  0  0  0  0  0
  188.5360  175.7800  144.0320 N   0  0  0  0  0  0  0  0  0  0  0  0
  189.9100  174.8300  142.1010 C   0  0  2  0  0  3  0  0  0  0  0  0
  186.7540  176.5950  145.6710 C   0  0  1  0  0  3  0  0  0  0  0  0
  185.7860  177.7290  145.4840 C   0  0  0  0  0  2  0  0  0  0  0  0
  187.5030  174.8430  142.1500 O   0  0  0  0  0  0  0  0  0  0  0  0
  187.3860  176.6530  144.2940 C   0  0  1  0  0  3  0  0  0  0  0  0
  187.6490  177.0300  146.8420 C   0  0  0  0  0  2  0  0  0  0  0  0
  189.7300  175.7210  144.8730 C   0  0  1  0  0  3  0  0  0  0  0  0
  188.7990  174.9200  147.2300 C   0  0  0  0  0  1  0  0  0  0  0  0
  186.5090  178.6650  144.5080 C   0  0  0  0  0  2  0  0  0  0  0  0
  190.9960  174.6960  143.0740 N   0  0  0  0  0  2  0  0  0  0  0  0
  190.9750  175.8320  143.9930 C   0  0  2  0  0  3  0  0  0  0  0  0
  188.5750  175.0970  142.7640 C   0  0  0  0  0  0  0  0  0  0  0  0
  189.7320  176.7170  145.8720 O   0  0  0  0  0  0  0  0  0  0  0  0
  194.2230  177.0560  145.5580 C   0  0  0  0  0  0  0  0  0  0  0  0
  194.6150  175.9190  146.2700 C   0  0  0  0  0  3  0  0  0  0  0  0
  192.2400  175.8920  144.7860 C   0  0  0  0  0  0  0  0  0  0  0  0
  193.8240  174.7690  146.2320 C   0  0  0  0  0  3  0  0  0  0  0  0
  193.0400  177.0430  144.8160 C   0  0  0  0  0  3  0  0  0  0  0  0
  192.6400  174.7560  145.4930 C   0  0  0  0  0  3  0  0  0  0  0  0
  194.9870  178.1730  145.5960 F   0  0  0  0  0  0  0  0  0  0  0  0
  189.8700  173.3560  141.0150 S   0  0  0  0  0  0  0  0  0  0  0  0
  191.6300  172.9670  141.2410 C   0  0  0  0  0  2  0  0  0  0  0  0
  192.4650  173.7620  140.2540 C   0  0  0  0  0  2  0  0  0  0  0  0
  193.9220  173.3280  140.3350 C   0  0  0  0  0  2  0  0  0  0  0  0
  195.3490  175.3300  138.8970 O   0  0  0  0  0  0  0  0  0  0  0  0
  194.7490  174.3630  140.9500 N   0  0  0  0  0  0  0  0  0  0  0  0
  195.5110  175.2860  140.1470 C   0  0  0  0  0  0  0  0  0  0  0  0
  196.2890  176.4000  142.2460 C   0  0  0  0  0  2  0  0  0  0  0  0
  195.9950  175.0860  142.9600 C   0  0  0  0  0  2  0  0  0  0  0  0
  194.7010  174.4980  142.4090 C   0  0  0  0  0  2  0  0  0  0  0  0
  196.5750  176.1400  140.7710 C   0  0  0  0  0  2  0  0  0  0  0  0
  1 11  1  0  0  0  0
  2 12  1  0  0  0  0
  3  8  1  0  0  0  0
  3 10  1  0  0  0  0
  4 24  1  1  0  0  0
  4 15  1  0  0  0  0
  4 13  1  0  0  0  0
  5  6  1  6  0  0  0
  5  9  1  0  0  0  0
  7 15  2  0  0  0  0
  8  2  1  1  0  0  0
  8  5  1  0  0  0  0
  9  1  1  0  0  0  0
 10 16  1  1  0  0  0
 12  6  1  0  0  0  0
 13 14  1  0  0  0  0
 14 19  1  1  0  0  0
 14 10  1  0  0  0  0
 15  3  1  0  0  0  0
 16  1  1  0  0  0  0
 17 23  1  0  0  0  0
 17 18  1  0  0  0  0
 19 21  1  0  0  0  0
 19 22  2  0  0  0  0
 20 18  2  0  0  0  0
 21 17  2  0  0  0  0
 22 20  1  0  0  0  0
 24 25  1  0  0  0  0
 26 27  1  0  0  0  0
 26 25  1  0  0  0  0
 27 29  1  0  0  0  0
 28 30  2  0  0  0  0
 29 33  1  0  0  0  0
 30 34  1  0  0  0  0
 30 29  1  0  0  0  0
 31 32  1  0  0  0  0
 33 32  1  0  0  0  0
 34 31  1  0  0  0  0
M  END
>  <MODEL>
7

>  <REMARK>
 VINA RESULT:      -7.3      2.690      7.384
  Name = 
  6 active torsions:
  status: ('A' for Active; 'I' for Inactive)
    1  A    between atoms: C_3  and  N_13
    2  A    between atoms: C_3  and  C_17
    3  A    between atoms: C_5  and  S_18
    4  A    between atoms: C_12  and  C_28
    5  A    between atoms: C_17  and  C_29
    6  A    between atoms: S_18  and  C_29
                            x       y       z     vdW  Elec       q    Type
                         _______ _______ _______ _____ _____    ______ ____

>  <TORSDO>
F 6

$$$$
=
 OpenBabel11052418543D

 34 38  0  0  1  0  0  0  0  0999 V2000
  189.5570  177.8560  144.7160 N   0  0  0  0  0  0  0  0  0  0  0  0
  189.3040  174.6070  146.3560 O   0  0  0  0  0  0  0  0  0  0  0  0
  189.8160  174.9580  144.0460 N   0  0  0  0  0  0  0  0  0  0  0  0
  188.9800  173.3710  142.2290 C   0  0  2  0  0  3  0  0  0  0  0  0
  191.0210  176.1860  145.9340 C   0  0  1  0  0  3  0  0  0  0  0  0
  191.1390  175.7670  147.3720 C   0  0  0  0  0  2  0  0  0  0  0  0
  190.9330  172.9550  143.5720 O   0  0  0  0  0  0  0  0  0  0  0  0
  190.2900  174.9560  145.4340 C   0  0  1  0  0  3  0  0  0  0  0  0
  190.2060  177.4880  145.9680 C   0  0  0  0  0  2  0  0  0  0  0  0
  188.9940  176.0150  143.4600 C   0  0  1  0  0  3  0  0  0  0  0  0
  190.5220  178.1800  143.6560 C   0  0  0  0  0  1  0  0  0  0  0  0
  189.8890  174.9100  147.6030 C   0  0  0  0  0  2  0  0  0  0  0  0
  188.3050  174.5400  141.6610 N   0  0  0  0  0  2  0  0  0  0  0  0
  187.8020  175.3880  142.7390 C   0  0  2  0  0  3  0  0  0  0  0  0
  190.0010  173.7520  143.2800 C   0  0  0  0  0  0  0  0  0  0  0  0
  188.5620  176.9520  144.4230 O   0  0  0  0  0  0  0  0  0  0  0  0
  184.8590  177.7820  142.4090 C   0  0  0  0  0  0  0  0  0  0  0  0
  185.0830  178.2970  141.1290 C   0  0  0  0  0  3  0  0  0  0  0  0
  186.8470  176.4070  142.2070 C   0  0  0  0  0  0  0  0  0  0  0  0
  186.1820  177.8600  140.3880 C   0  0  0  0  0  3  0  0  0  0  0  0
  185.7370  176.8390  142.9470 C   0  0  0  0  0  3  0  0  0  0  0  0
  187.0620  176.9180  140.9250 C   0  0  0  0  0  3  0  0  0  0  0  0
  183.7950  178.2080  143.1310 F   0  0  0  0  0  0  0  0  0  0  0  0
  189.7030  172.3620  140.8830 S   0  0  0  0  0  0  0  0  0  0  0  0
  189.9500  173.7730  139.7660 C   0  0  0  0  0  2  0  0  0  0  0  0
  189.5130  173.4030  138.3610 C   0  0  0  0  0  2  0  0  0  0  0  0
  188.1720  174.0500  138.0430 C   0  0  0  0  0  2  0  0  0  0  0  0
  186.2780  176.0500  137.3220 O   0  0  0  0  0  0  0  0  0  0  0  0
  188.2570  174.8830  136.8470 N   0  0  0  0  0  0  0  0  0  0  0  0
  187.2100  175.8130  136.5070 C   0  0  0  0  0  0  0  0  0  0  0  0
  188.5450  176.5200  134.5140 C   0  0  0  0  0  2  0  0  0  0  0  0
  189.2340  175.1620  134.5910 C   0  0  0  0  0  2  0  0  0  0  0  0
  189.4890  174.8150  136.0540 C   0  0  0  0  0  2  0  0  0  0  0  0
  187.1580  176.4370  135.1440 C   0  0  0  0  0  2  0  0  0  0  0  0
  1  9  1  0  0  0  0
  2 12  1  0  0  0  0
  3  8  1  0  0  0  0
  4 24  1  6  0  0  0
  4 15  1  0  0  0  0
  5  9  1  1  0  0  0
  5  6  1  0  0  0  0
  6 12  1  0  0  0  0
  8  5  1  0  0  0  0
  8  2  1  1  0  0  0
 10  3  1  0  0  0  0
 10 16  1  1  0  0  0
 11  1  1  0  0  0  0
 13  4  1  0  0  0  0
 13 14  1  0  0  0  0
 14 19  1  6  0  0  0
 14 10  1  0  0  0  0
 15  7  2  0  0  0  0
 15  3  1  0  0  0  0
 16  1  1  0  0  0  0
 17 21  1  0  0  0  0
 17 23  1  0  0  0  0
 18 17  2  0  0  0  0
 19 21  2  0  0  0  0
 20 22  2  0  0  0  0
 20 18  1  0  0  0  0
 22 19  1  0  0  0  0
 25 24  1  0  0  0  0
 26 25  1  0  0  0  0
 27 26  1  0  0  0  0
 29 27  1  0  0  0  0
 30 29  1  0  0  0  0
 30 28  2  0  0  0  0
 31 32  1  0  0  0  0
 31 34  1  0  0  0  0
 32 33  1  0  0  0  0
 33 29  1  0  0  0  0
 34 30  1  0  0  0  0
M  END
>  <MODEL>
8

>  <REMARK>
 VINA RESULT:      -7.1      3.667      7.419
  Name = 
  6 active torsions:
  status: ('A' for Active; 'I' for Inactive)
    1  A    between atoms: C_3  and  N_13
    2  A    between atoms: C_3  and  C_17
    3  A    between atoms: C_5  and  S_18
    4  A    between atoms: C_12  and  C_28
    5  A    between atoms: C_17  and  C_29
    6  A    between atoms: S_18  and  C_29
                            x       y       z     vdW  Elec       q    Type
                         _______ _______ _______ _____ _____    ______ ____

>  <TORSDO>
F 6

$$$$
=
 OpenBabel11052418543D

 34 38  0  0  1  0  0  0  0  0999 V2000
  194.8010  172.8730  142.9400 N   0  0  0  0  0  0  0  0  0  0  0  0
  195.3800  176.4370  143.4610 O   0  0  0  0  0  0  0  0  0  0  0  0
  193.9310  175.0610  144.7760 N   0  0  0  0  0  0  0  0  0  0  0  0
  191.7340  175.9490  145.7270 C   0  0  2  0  0  3  0  0  0  0  0  0
  196.3410  174.4120  144.2340 C   0  0  1  0  0  3  0  0  0  0  0  0
  197.4680  175.3220  143.8370 C   0  0  0  0  0  2  0  0  0  0  0  0
  193.8790  176.3090  146.7570 O   0  0  0  0  0  0  0  0  0  0  0  0
  195.3030  175.4890  144.4800 C   0  0  1  0  0  3  0  0  0  0  0  0
  196.1070  173.5170  143.0080 C   0  0  0  0  0  2  0  0  0  0  0  0
  193.1640  174.1320  143.9480 C   0  0  1  0  0  3  0  0  0  0  0  0
  194.5980  171.8960  144.0200 C   0  0  0  0  0  1  0  0  0  0  0  0
  196.7590  176.5110  143.1770 C   0  0  0  0  0  2  0  0  0  0  0  0
  191.0870  174.8880  144.9510 N   0  0  0  0  0  2  0  0  0  0  0  0
  191.7800  174.7210  143.6760 C   0  0  2  0  0  3  0  0  0  0  0  0
  193.2320  175.7540  145.8280 C   0  0  0  0  0  0  0  0  0  0  0  0
  193.8240  173.8210  142.7410 O   0  0  0  0  0  0  0  0  0  0  0  0
  190.1420  171.7370  141.9690 C   0  0  0  0  0  0  0  0  0  0  0  0
  189.4560  172.3730  140.9310 C   0  0  0  0  0  3  0  0  0  0  0  0
  190.9700  173.8830  142.7410 C   0  0  0  0  0  0  0  0  0  0  0  0
  189.5350  173.7610  140.7950 C   0  0  0  0  0  3  0  0  0  0  0  0
  190.8990  172.4880  142.8710 C   0  0  0  0  0  3  0  0  0  0  0  0
  190.2890  174.5130  141.6970 C   0  0  0  0  0  3  0  0  0  0  0  0
  190.0650  170.3920  142.1050 F   0  0  0  0  0  0  0  0  0  0  0  0
  190.9330  176.0890  147.3680 S   0  0  0  0  0  0  0  0  0  0  0  0
  189.4650  175.1310  146.8890 C   0  0  0  0  0  2  0  0  0  0  0  0
  188.2410  176.0270  146.8910 C   0  0  0  0  0  2  0  0  0  0  0  0
  187.8730  176.4120  145.4640 C   0  0  0  0  0  2  0  0  0  0  0  0
  187.3280  178.2940  143.3980 O   0  0  0  0  0  0  0  0  0  0  0  0
  186.7190  177.3060  145.4380 N   0  0  0  0  0  0  0  0  0  0  0  0
  186.5620  178.2930  144.3990 C   0  0  0  0  0  0  0  0  0  0  0  0
  184.3890  178.9720  145.4340 C   0  0  0  0  0  2  0  0  0  0  0  0
  184.9210  178.3940  146.7410 C   0  0  0  0  0  2  0  0  0  0  0  0
  185.6740  177.1020  146.4460 C   0  0  0  0  0  2  0  0  0  0  0  0
  185.5500  179.3920  144.5390 C   0  0  0  0  0  2  0  0  0  0  0  0
  1  9  1  0  0  0  0
  1 11  1  0  0  0  0
  3 15  1  0  0  0  0
  4 15  1  0  0  0  0
  4 24  1  1  0  0  0
  5  9  1  6  0  0  0
  5  8  1  0  0  0  0
  6  5  1  0  0  0  0
  8  2  1  6  0  0  0
  8  3  1  0  0  0  0
 10 16  1  6  0  0  0
 10  3  1  0  0  0  0
 12  2  1  0  0  0  0
 12  6  1  0  0  0  0
 13  4  1  0  0  0  0
 14 19  1  6  0  0  0
 14 10  1  0  0  0  0
 14 13  1  0  0  0  0
 15  7  2  0  0  0  0
 16  1  1  0  0  0  0
 17 23  1  0  0  0  0
 17 21  1  0  0  0  0
 18 17  2  0  0  0  0
 19 21  2  0  0  0  0
 20 18  1  0  0  0  0
 20 22  2  0  0  0  0
 22 19  1  0  0  0  0
 25 26  1  0  0  0  0
 25 24  1  0  0  0  0
 27 26  1  0  0  0  0
 28 30  2  0  0  0  0
 29 27  1  0  0  0  0
 29 33  1  0  0  0  0
 30 34  1  0  0  0  0
 30 29  1  0  0  0  0
 31 32  1  0  0  0  0
 33 32  1  0  0  0  0
 34 31  1  0  0  0  0
M  END
>  <MODEL>
9

>  <REMARK>
 VINA RESULT:      -7.1      3.099      5.288
  Name = 
  6 active torsions:
  status: ('A' for Active; 'I' for Inactive)
    1  A    between atoms: C_3  and  N_13
    2  A    between atoms: C_3  and  C_17
    3  A    between atoms: C_5  and  S_18
    4  A    between atoms: C_12  and  C_28
    5  A    between atoms: C_17  and  C_29
    6  A    between atoms: S_18  and  C_29
                            x       y       z     vdW  Elec       q    Type
                         _______ _______ _______ _____ _____    ______ ____

>  <TORSDO>
F 6

$$$$
