=
 OpenBabel11052418503D

 34 38  0  0  0  0  0  0  0  0999 V2000
  188.6160  174.6580  141.2230 C   0  0  0  0  0  0  0  0  0  0  0  0
  190.3860  173.3260  142.2050 C   0  0  0  0  0  3  0  0  0  0  0  0
  189.0160  174.8260  143.6330 C   0  0  0  0  0  0  0  0  0  0  0  0
  189.3330  175.1220  146.0290 C   0  0  0  0  0  0  0  0  0  0  0  0
  189.9540  173.1950  139.8290 C   0  0  0  0  0  3  0  0  0  0  0  0
  191.7850  171.8080  140.8010 C   0  0  0  0  0  1  0  0  0  0  0  0
  190.7800  173.6170  144.8420 O   0  0  0  0  0  1  0  0  0  0  0  0
  189.3500  174.2630  142.3690 C   0  0  0  0  0  0  0  0  0  0  0  0
  188.9220  174.1250  139.9670 C   0  0  0  0  0  3  0  0  0  0  0  0
  187.9410  175.7560  143.7010 C   0  0  0  0  0  0  0  0  0  0  0  0
  187.6130  175.5610  141.3310 N   0  0  0  0  0  0  0  0  0  0  0  0
  190.6850  172.7960  140.9470 C   0  0  0  0  0  0  0  0  0  0  0  0
  188.3050  176.0040  146.0520 N   0  0  0  0  0  0  0  0  0  0  0  0
  187.5870  176.3350  144.9460 C   0  0  0  0  0  0  0  0  0  0  0  0
  189.7130  174.5130  144.8280 C   0  0  0  0  0  0  0  0  0  0  0  0
  187.2710  176.1060  142.5220 C   0  0  0  0  0  3  0  0  0  0  0  0
  185.5290  179.5010  144.6570 C   0  0  0  0  0  0  0  0  0  0  0  0
  184.4360  179.2120  145.4770 C   0  0  0  0  0  3  0  0  0  0  0  0
  186.4720  177.3050  145.1190 C   0  0  0  0  0  0  0  0  0  0  0  0
  184.3590  177.9780  146.1260 C   0  0  0  0  0  3  0  0  0  0  0  0
  186.5430  178.5550  144.4850 C   0  0  0  0  0  3  0  0  0  0  0  0
  185.3740  177.0330  145.9520 C   0  0  0  0  0  3  0  0  0  0  0  0
  185.6080  180.7010  144.0320 F   0  0  0  0  0  0  0  0  0  0  0  0
  190.0720  174.8400  147.2940 C   0  0  0  0  0  2  0  0  0  0  0  0
  190.9540  175.9510  147.6020 N   0  0  0  0  0  2  0  0  0  0  0  0
  192.2850  175.5540  147.1840 C   0  0  0  0  0  2  0  0  0  0  0  0
  192.9050  176.6610  146.3540 C   0  0  0  0  0  2  0  0  0  0  0  0
  191.2050  177.8730  144.2390 C   0  0  0  0  0  1  0  0  0  0  0  0
  193.0100  176.2360  144.9250 C   0  0  0  0  0  0  0  0  0  0  0  0
  192.2110  176.8200  143.9220 C   0  0  0  0  0  0  0  0  0  0  0  0
  193.2860  175.4200  142.2580 C   0  0  0  0  0  3  0  0  0  0  0  0
  194.0820  174.8460  143.2510 C   0  0  0  0  0  3  0  0  0  0  0  0
  193.9460  175.2540  144.5800 C   0  0  0  0  0  3  0  0  0  0  0  0
  192.3530  176.4060  142.5930 C   0  0  0  0  0  3  0  0  0  0  0  0
  1 11  2  0  0  0  0
  1  8  1  0  0  0  0
  2  8  1  0  0  0  0
  3 10  1  0  0  0  0
  3 15  1  0  0  0  0
  4 13  1  0  0  0  0
  4 24  1  0  0  0  0
  5  9  2  0  0  0  0
  5 12  1  0  0  0  0
  6 12  1  0  0  0  0
  8  3  2  0  0  0  0
  9  1  1  0  0  0  0
 10 14  1  0  0  0  0
 11 16  1  0  0  0  0
 12  2  2  0  0  0  0
 14 19  1  0  0  0  0
 14 13  2  0  0  0  0
 15  7  1  0  0  0  0
 15  4  2  0  0  0  0
 16 10  2  0  0  0  0
 17 18  1  0  0  0  0
 18 20  2  0  0  0  0
 19 22  2  0  0  0  0
 21 17  2  0  0  0  0
 21 19  1  0  0  0  0
 22 20  1  0  0  0  0
 23 17  1  0  0  0  0
 24 25  1  0  0  0  0
 26 25  1  0  0  0  0
 27 26  1  0  0  0  0
 29 27  1  0  0  0  0
 30 28  1  0  0  0  0
 30 29  2  0  0  0  0
 31 34  2  0  0  0  0
 31 32  1  0  0  0  0
 32 33  2  0  0  0  0
 33 29  1  0  0  0  0
 34 30  1  0  0  0  0
M  END
>  <MODEL>
1

>  <REMARK>
 VINA RESULT:      -8.1      0.000      0.000
  Name = 
  6 active torsions:
  status: ('A' for Active; 'I' for Inactive)
    1  A    between atoms: C_3  and  C_13
    2  A    between atoms: C_3  and  C_17
    3  A    between atoms: C_5  and  C_18
    4  A    between atoms: C_12  and  C_28
    5  A    between atoms: C_17  and  N_29
    6  A    between atoms: C_18  and  N_29
                            x       y       z     vdW  Elec       q    Type
                         _______ _______ _______ _____ _____    ______ ____

>  <TORSDO>
F 6

$$$$
=
 OpenBabel11052418503D

 34 38  0  0  0  0  0  0  0  0999 V2000
  192.4440  176.2970  146.3390 C   0  0  0  0  0  0  0  0  0  0  0  0
  193.1310  175.5520  144.1380 C   0  0  0  0  0  3  0  0  0  0  0  0
  190.7480  176.0930  144.5840 C   0  0  0  0  0  0  0  0  0  0  0  0
  188.9560  175.8920  142.9480 C   0  0  0  0  0  0  0  0  0  0  0  0
  194.7690  175.7680  145.9040 C   0  0  0  0  0  3  0  0  0  0  0  0
  195.5160  174.9980  143.6510 C   0  0  0  0  0  1  0  0  0  0  0  0
  191.1940  175.3120  142.2980 O   0  0  0  0  0  1  0  0  0  0  0  0
  192.1040  175.9760  145.0010 C   0  0  0  0  0  0  0  0  0  0  0  0
  193.7670  176.1900  146.7790 C   0  0  0  0  0  3  0  0  0  0  0  0
  189.7830  176.5450  145.5270 C   0  0  0  0  0  0  0  0  0  0  0  0
  191.4890  176.7050  147.2070 N   0  0  0  0  0  0  0  0  0  0  0  0
  194.4510  175.4490  144.5840 C   0  0  0  0  0  0  0  0  0  0  0  0
  188.0680  176.3240  143.8740 N   0  0  0  0  0  0  0  0  0  0  0  0
  188.4240  176.6680  145.1410 C   0  0  0  0  0  0  0  0  0  0  0  0
  190.3100  175.7660  143.2750 C   0  0  0  0  0  0  0  0  0  0  0  0
  190.1940  176.8300  146.8350 C   0  0  0  0  0  3  0  0  0  0  0  0
  186.6670  178.5440  147.9220 C   0  0  0  0  0  0  0  0  0  0  0  0
  185.3740  178.0200  147.8530 C   0  0  0  0  0  3  0  0  0  0  0  0
  187.3470  177.1440  146.0500 C   0  0  0  0  0  0  0  0  0  0  0  0
  185.0640  177.0550  146.8930 C   0  0  0  0  0  3  0  0  0  0  0  0
  187.6480  178.1030  147.0300 C   0  0  0  0  0  3  0  0  0  0  0  0
  186.0460  176.6160  146.0010 C   0  0  0  0  0  3  0  0  0  0  0  0
  186.9710  179.4760  148.8580 F   0  0  0  0  0  0  0  0  0  0  0  0
  188.4620  175.5210  141.5910 C   0  0  0  0  0  2  0  0  0  0  0  0
  187.1100  176.0180  141.4100 N   0  0  0  0  0  2  0  0  0  0  0  0
  187.2240  177.3070  140.7550 C   0  0  0  0  0  2  0  0  0  0  0  0
  185.8440  177.9150  140.5930 C   0  0  0  0  0  2  0  0  0  0  0  0
  182.9750  177.9150  141.3680 C   0  0  0  0  0  1  0  0  0  0  0  0
  185.3830  178.4980  141.8900 C   0  0  0  0  0  0  0  0  0  0  0  0
  184.0240  178.4870  142.2610 C   0  0  0  0  0  0  0  0  0  0  0  0
  184.5910  179.5730  144.3540 C   0  0  0  0  0  3  0  0  0  0  0  0
  185.9390  179.5780  143.9900 C   0  0  0  0  0  3  0  0  0  0  0  0
  186.3340  179.0410  142.7620 C   0  0  0  0  0  3  0  0  0  0  0  0
  183.6360  179.0270  143.4910 C   0  0  0  0  0  3  0  0  0  0  0  0
  1  9  1  0  0  0  0
  1 11  1  0  0  0  0
  2 12  2  0  0  0  0
  2  8  1  0  0  0  0
  3  8  1  0  0  0  0
  3 10  1  0  0  0  0
  4 15  1  0  0  0  0
  4 13  2  0  0  0  0
  5  9  2  0  0  0  0
  6 12  1  0  0  0  0
  7 15  1  0  0  0  0
  8  1  2  0  0  0  0
 10 16  1  0  0  0  0
 12  5  1  0  0  0  0
 13 14  1  0  0  0  0
 14 10  2  0  0  0  0
 14 19  1  0  0  0  0
 15  3  2  0  0  0  0
 16 11  2  0  0  0  0
 17 23  1  0  0  0  0
 18 17  1  0  0  0  0
 19 21  1  0  0  0  0
 20 18  2  0  0  0  0
 21 17  2  0  0  0  0
 22 19  2  0  0  0  0
 22 20  1  0  0  0  0
 24  4  1  0  0  0  0
 25 24  1  0  0  0  0
 26 25  1  0  0  0  0
 27 26  1  0  0  0  0
 27 29  1  0  0  0  0
 28 30  1  0  0  0  0
 29 30  2  0  0  0  0
 29 33  1  0  0  0  0
 30 34  1  0  0  0  0
 32 31  1  0  0  0  0
 33 32  2  0  0  0  0
 34 31  2  0  0  0  0
M  END
>  <MODEL>
2

>  <REMARK>
 VINA RESULT:      -7.7      2.088      6.125
  Name = 
  6 active torsions:
  status: ('A' for Active; 'I' for Inactive)
    1  A    between atoms: C_3  and  C_13
    2  A    between atoms: C_3  and  C_17
    3  A    between atoms: C_5  and  C_18
    4  A    between atoms: C_12  and  C_28
    5  A    between atoms: C_17  and  N_29
    6  A    between atoms: C_18  and  N_29
                            x       y       z     vdW  Elec       q    Type
                         _______ _______ _______ _____ _____    ______ ____

>  <TORSDO>
F 6

$$$$
=
 OpenBabel11052418503D

 34 38  0  0  0  0  0  0  0  0999 V2000
  188.5170  173.7180  140.9990 C   0  0  0  0  0  0  0  0  0  0  0  0
  190.9080  173.6920  140.6100 C   0  0  0  0  0  3  0  0  0  0  0  0
  189.9330  175.2550  142.2760 C   0  0  0  0  0  0  0  0  0  0  0  0
  191.2160  176.8630  143.5780 C   0  0  0  0  0  0  0  0  0  0  0  0
  189.4690  172.1940  139.3740 C   0  0  0  0  0  3  0  0  0  0  0  0
  191.9260  172.1360  138.9440 C   0  0  0  0  0  1  0  0  0  0  0  0
  192.3680  175.4470  142.0190 O   0  0  0  0  0  1  0  0  0  0  0  0
  189.8050  174.2280  141.2990 C   0  0  0  0  0  0  0  0  0  0  0  0
  188.3580  172.7100  140.0430 C   0  0  0  0  0  3  0  0  0  0  0  0
  188.7580  175.7230  142.9300 C   0  0  0  0  0  0  0  0  0  0  0  0
  187.4250  174.2050  141.6330 N   0  0  0  0  0  0  0  0  0  0  0  0
  190.7430  172.6840  139.6570 C   0  0  0  0  0  0  0  0  0  0  0  0
  190.0750  177.2820  144.1770 N   0  0  0  0  0  0  0  0  0  0  0  0
  188.8550  176.7470  143.9050 C   0  0  0  0  0  0  0  0  0  0  0  0
  191.1760  175.8460  142.6190 C   0  0  0  0  0  0  0  0  0  0  0  0
  187.5190  175.1780  142.5700 C   0  0  0  0  0  3  0  0  0  0  0  0
  185.9560  178.9890  144.8610 C   0  0  0  0  0  0  0  0  0  0  0  0
  185.5290  178.4150  146.0610 C   0  0  0  0  0  3  0  0  0  0  0  0
  187.6880  177.2910  144.6500 C   0  0  0  0  0  0  0  0  0  0  0  0
  186.1800  177.2860  146.5630 C   0  0  0  0  0  3  0  0  0  0  0  0
  187.0330  178.4340  144.1650 C   0  0  0  0  0  3  0  0  0  0  0  0
  187.2560  176.7310  145.8640 C   0  0  0  0  0  3  0  0  0  0  0  0
  185.3290  180.0880  144.3760 F   0  0  0  0  0  0  0  0  0  0  0  0
  192.5030  177.5280  143.9320 C   0  0  0  0  0  2  0  0  0  0  0  0
  192.8850  177.1650  145.2850 N   0  0  0  0  0  2  0  0  0  0  0  0
  193.6350  175.9270  145.1880 C   0  0  0  0  0  2  0  0  0  0  0  0
  193.1640  174.9670  146.2620 C   0  0  0  0  0  2  0  0  0  0  0  0
  190.3990  175.4030  147.2600 C   0  0  0  0  0  1  0  0  0  0  0  0
  192.0130  174.1560  145.7610 C   0  0  0  0  0  0  0  0  0  0  0  0
  190.7010  174.3710  146.2260 C   0  0  0  0  0  0  0  0  0  0  0  0
  189.8940  172.6250  144.7480 C   0  0  0  0  0  3  0  0  0  0  0  0
  191.1930  172.4160  144.2820 C   0  0  0  0  0  3  0  0  0  0  0  0
  192.2500  173.1800  144.7850 C   0  0  0  0  0  3  0  0  0  0  0  0
  189.6490  173.6020  145.7180 C   0  0  0  0  0  3  0  0  0  0  0  0
  1  8  2  0  0  0  0
  1 11  1  0  0  0  0
  2  8  1  0  0  0  0
  3 15  2  0  0  0  0
  3 10  1  0  0  0  0
  4 24  1  0  0  0  0
  4 13  2  0  0  0  0
  5 12  1  0  0  0  0
  5  9  2  0  0  0  0
  6 12  1  0  0  0  0
  7 15  1  0  0  0  0
  8  3  1  0  0  0  0
  9  1  1  0  0  0  0
 10 14  2  0  0  0  0
 11 16  2  0  0  0  0
 12  2  2  0  0  0  0
 14 13  1  0  0  0  0
 14 19  1  0  0  0  0
 15  4  1  0  0  0  0
 16 10  1  0  0  0  0
 17 18  1  0  0  0  0
 18 20  2  0  0  0  0
 19 22  2  0  0  0  0
 21 19  1  0  0  0  0
 21 17  2  0  0  0  0
 22 20  1  0  0  0  0
 23 17  1  0  0  0  0
 24 25  1  0  0  0  0
 26 25  1  0  0  0  0
 26 27  1  0  0  0  0
 29 30  1  0  0  0  0
 29 27  1  0  0  0  0
 30 28  1  0  0  0  0
 31 34  1  0  0  0  0
 32 31  2  0  0  0  0
 32 33  1  0  0  0  0
 33 29  2  0  0  0  0
 34 30  2  0  0  0  0
M  END
>  <MODEL>
3

>  <REMARK>
 VINA RESULT:      -7.7      1.610      2.617
  Name = 
  6 active torsions:
  status: ('A' for Active; 'I' for Inactive)
    1  A    between atoms: C_3  and  C_13
    2  A    between atoms: C_3  and  C_17
    3  A    between atoms: C_5  and  C_18
    4  A    between atoms: C_12  and  C_28
    5  A    between atoms: C_17  and  N_29
    6  A    between atoms: C_18  and  N_29
                            x       y       z     vdW  Elec       q    Type
                         _______ _______ _______ _____ _____    ______ ____

>  <TORSDO>
F 6

$$$$
=
 OpenBabel11052418503D

 34 38  0  0  0  0  0  0  0  0999 V2000
  191.6880  176.5660  146.3630 C   0  0  0  0  0  0  0  0  0  0  0  0
  192.8280  175.5140  144.5030 C   0  0  0  0  0  3  0  0  0  0  0  0
  190.4150  176.0750  144.3300 C   0  0  0  0  0  0  0  0  0  0  0  0
  189.0220  175.6040  142.3890 C   0  0  0  0  0  0  0  0  0  0  0  0
  194.0420  176.0160  146.5320 C   0  0  0  0  0  3  0  0  0  0  0  0
  195.2520  174.9330  144.6380 C   0  0  0  0  0  1  0  0  0  0  0  0
  191.3370  174.9700  142.3400 O   0  0  0  0  0  1  0  0  0  0  0  0
  191.6440  176.0440  145.0470 C   0  0  0  0  0  0  0  0  0  0  0  0
  192.8800  176.5470  147.0940 C   0  0  0  0  0  3  0  0  0  0  0  0
  189.2740  176.6460  144.9600 C   0  0  0  0  0  0  0  0  0  0  0  0
  190.5730  177.0830  146.9310 N   0  0  0  0  0  0  0  0  0  0  0  0
  194.0160  175.5000  145.2370 C   0  0  0  0  0  0  0  0  0  0  0  0
  187.9590  176.1550  143.0240 N   0  0  0  0  0  0  0  0  0  0  0  0
  188.0350  176.6880  144.2720 C   0  0  0  0  0  0  0  0  0  0  0  0
  190.2690  175.5500  143.0200 C   0  0  0  0  0  0  0  0  0  0  0  0
  189.3930  177.1300  146.2700 C   0  0  0  0  0  3  0  0  0  0  0  0
  185.2030  179.1200  144.9170 C   0  0  0  0  0  0  0  0  0  0  0  0
  184.5000  178.4800  145.9400 C   0  0  0  0  0  3  0  0  0  0  0  0
  186.7930  177.2770  144.8420 C   0  0  0  0  0  0  0  0  0  0  0  0
  184.9410  177.2460  146.4230 C   0  0  0  0  0  3  0  0  0  0  0  0
  186.3460  178.5240  144.3760 C   0  0  0  0  0  3  0  0  0  0  0  0
  186.0840  176.6520  145.8800 C   0  0  0  0  0  3  0  0  0  0  0  0
  184.7800  180.3200  144.4520 F   0  0  0  0  0  0  0  0  0  0  0  0
  188.8300  175.0270  141.0280 C   0  0  0  0  0  2  0  0  0  0  0  0
  188.1590  173.7440  141.1300 N   0  0  0  0  0  2  0  0  0  0  0  0
  189.1630  172.7280  140.8820 C   0  0  0  0  0  2  0  0  0  0  0  0
  189.2500  171.8010  142.0790 C   0  0  0  0  0  2  0  0  0  0  0  0
  189.7610  172.3840  144.9480 C   0  0  0  0  0  1  0  0  0  0  0  0
  190.6350  171.8140  142.6410 C   0  0  0  0  0  0  0  0  0  0  0  0
  190.8750  172.0790  144.0030 C   0  0  0  0  0  0  0  0  0  0  0  0
  193.2540  171.7830  143.6370 C   0  0  0  0  0  3  0  0  0  0  0  0
  193.0160  171.5140  142.2880 C   0  0  0  0  0  3  0  0  0  0  0  0
  191.7100  171.5270  141.7920 C   0  0  0  0  0  3  0  0  0  0  0  0
  192.1850  172.0650  144.4930 C   0  0  0  0  0  3  0  0  0  0  0  0
  1 11  1  0  0  0  0
  1  9  2  0  0  0  0
  2  8  2  0  0  0  0
  2 12  1  0  0  0  0
  3 10  1  0  0  0  0
  3  8  1  0  0  0  0
  4 15  1  0  0  0  0
  4 13  2  0  0  0  0
  5  9  1  0  0  0  0
  6 12  1  0  0  0  0
  7 15  1  0  0  0  0
  8  1  1  0  0  0  0
 10 16  1  0  0  0  0
 12  5  2  0  0  0  0
 13 14  1  0  0  0  0
 14 19  1  0  0  0  0
 14 10  2  0  0  0  0
 15  3  2  0  0  0  0
 16 11  2  0  0  0  0
 17 18  1  0  0  0  0
 18 20  2  0  0  0  0
 19 22  2  0  0  0  0
 21 19  1  0  0  0  0
 21 17  2  0  0  0  0
 22 20  1  0  0  0  0
 23 17  1  0  0  0  0
 24 25  1  0  0  0  0
 24  4  1  0  0  0  0
 26 25  1  0  0  0  0
 26 27  1  0  0  0  0
 27 29  1  0  0  0  0
 29 30  1  0  0  0  0
 30 34  2  0  0  0  0
 30 28  1  0  0  0  0
 31 34  1  0  0  0  0
 32 31  2  0  0  0  0
 33 32  1  0  0  0  0
 33 29  2  0  0  0  0
M  END
>  <MODEL>
4

>  <REMARK>
 VINA RESULT:      -7.6      1.604      4.759
  Name = 
  6 active torsions:
  status: ('A' for Active; 'I' for Inactive)
    1  A    between atoms: C_3  and  C_13
    2  A    between atoms: C_3  and  C_17
    3  A    between atoms: C_5  and  C_18
    4  A    between atoms: C_12  and  C_28
    5  A    between atoms: C_17  and  N_29
    6  A    between atoms: C_18  and  N_29
                            x       y       z     vdW  Elec       q    Type
                         _______ _______ _______ _____ _____    ______ ____

>  <TORSDO>
F 6

$$$$
=
 OpenBabel11052418503D

 34 38  0  0  0  0  0  0  0  0999 V2000
  190.8860  171.1150  141.2790 C   0  0  0  0  0  0  0  0  0  0  0  0
  189.6640  171.7170  139.2760 C   0  0  0  0  0  3  0  0  0  0  0  0
  189.6130  173.2070  141.2630 C   0  0  0  0  0  0  0  0  0  0  0  0
  188.3570  175.2880  141.3990 C   0  0  0  0  0  0  0  0  0  0  0  0
  190.9340  169.6610  139.3410 C   0  0  0  0  0  3  0  0  0  0  0  0
  189.6900  170.2460  137.2600 C   0  0  0  0  0  1  0  0  0  0  0  0
  188.2600  174.0010  139.3740 O   0  0  0  0  0  1  0  0  0  0  0  0
  190.0430  172.0250  140.5960 C   0  0  0  0  0  0  0  0  0  0  0  0
  191.3230  169.9450  140.6520 C   0  0  0  0  0  3  0  0  0  0  0  0
  190.0620  173.4380  142.5940 C   0  0  0  0  0  0  0  0  0  0  0  0
  191.2740  171.3660  142.5520 N   0  0  0  0  0  0  0  0  0  0  0  0
  190.1060  170.5470  138.6540 C   0  0  0  0  0  0  0  0  0  0  0  0
  188.8040  175.4710  142.6640 N   0  0  0  0  0  0  0  0  0  0  0  0
  189.6480  174.6040  143.2850 C   0  0  0  0  0  0  0  0  0  0  0  0
  188.7460  174.1590  140.6700 C   0  0  0  0  0  0  0  0  0  0  0  0
  190.8840  172.4840  143.2080 C   0  0  0  0  0  3  0  0  0  0  0  0
  189.6490  174.8330  147.0660 C   0  0  0  0  0  0  0  0  0  0  0  0
  190.7830  175.6120  147.3080 C   0  0  0  0  0  3  0  0  0  0  0  0
  190.0750  174.9390  144.6710 C   0  0  0  0  0  0  0  0  0  0  0  0
  191.5600  176.0630  146.2390 C   0  0  0  0  0  3  0  0  0  0  0  0
  189.2950  174.5050  145.7540 C   0  0  0  0  0  3  0  0  0  0  0  0
  191.2040  175.7330  144.9290 C   0  0  0  0  0  3  0  0  0  0  0  0
  188.8910  174.4000  148.1020 F   0  0  0  0  0  0  0  0  0  0  0  0
  187.4170  176.2870  140.8130 C   0  0  0  0  0  2  0  0  0  0  0  0
  187.5560  177.5540  141.5080 N   0  0  0  0  0  2  0  0  0  0  0  0
  186.2470  177.8820  142.0410 C   0  0  0  0  0  2  0  0  0  0  0  0
  186.3640  179.0770  142.9670 C   0  0  0  0  0  2  0  0  0  0  0  0
  188.0800  177.9100  145.0940 C   0  0  0  0  0  1  0  0  0  0  0  0
  185.8180  178.7390  144.3160 C   0  0  0  0  0  0  0  0  0  0  0  0
  186.6340  178.1960  145.3270 C   0  0  0  0  0  0  0  0  0  0  0  0
  184.7370  178.1650  146.8370 C   0  0  0  0  0  3  0  0  0  0  0  0
  183.9280  178.7090  145.8380 C   0  0  0  0  0  3  0  0  0  0  0  0
  184.4670  178.9970  144.5810 C   0  0  0  0  0  3  0  0  0  0  0  0
  186.0880  177.9100  146.5830 C   0  0  0  0  0  3  0  0  0  0  0  0
  1 11  1  0  0  0  0
  2  8  1  0  0  0  0
  3 10  1  0  0  0  0
  4 13  2  0  0  0  0
  5  9  2  0  0  0  0
  6 12  1  0  0  0  0
  7 15  1  0  0  0  0
  8  3  1  0  0  0  0
  8  1  2  0  0  0  0
  9  1  1  0  0  0  0
 10 16  1  0  0  0  0
 10 14  2  0  0  0  0
 11 16  2  0  0  0  0
 12  2  2  0  0  0  0
 12  5  1  0  0  0  0
 13 14  1  0  0  0  0
 14 19  1  0  0  0  0
 15  3  2  0  0  0  0
 15  4  1  0  0  0  0
 17 18  1  0  0  0  0
 17 23  1  0  0  0  0
 19 22  2  0  0  0  0
 19 21  1  0  0  0  0
 20 18  2  0  0  0  0
 21 17  2  0  0  0  0
 22 20  1  0  0  0  0
 24  4  1  0  0  0  0
 24 25  1  0  0  0  0
 25 26  1  0  0  0  0
 26 27  1  0  0  0  0
 27 29  1  0  0  0  0
 28 30  1  0  0  0  0
 29 33  2  0  0  0  0
 29 30  1  0  0  0  0
 30 34  2  0  0  0  0
 32 31  2  0  0  0  0
 33 32  1  0  0  0  0
 34 31  1  0  0  0  0
M  END
>  <MODEL>
5

>  <REMARK>
 VINA RESULT:      -7.6      2.578      6.208
  Name = 
  6 active torsions:
  status: ('A' for Active; 'I' for Inactive)
    1  A    between atoms: C_3  and  C_13
    2  A    between atoms: C_3  and  C_17
    3  A    between atoms: C_5  and  C_18
    4  A    between atoms: C_12  and  C_28
    5  A    between atoms: C_17  and  N_29
    6  A    between atoms: C_18  and  N_29
                            x       y       z     vdW  Elec       q    Type
                         _______ _______ _______ _____ _____    ______ ____

>  <TORSDO>
F 6

$$$$
=
 OpenBabel11052418503D

 34 38  0  0  0  0  0  0  0  0999 V2000
  187.2410  176.6600  142.0290 C   0  0  0  0  0  0  0  0  0  0  0  0
  186.8810  177.8920  144.0840 C   0  0  0  0  0  3  0  0  0  0  0  0
  188.3730  175.9060  144.0660 C   0  0  0  0  0  0  0  0  0  0  0  0
  189.5230  175.0220  146.0220 C   0  0  0  0  0  0  0  0  0  0  0  0
  185.7850  178.5970  142.0490 C   0  0  0  0  0  3  0  0  0  0  0  0
  185.3890  179.8920  144.1440 C   0  0  0  0  0  1  0  0  0  0  0  0
  188.1230  176.9580  146.2710 O   0  0  0  0  0  1  0  0  0  0  0  0
  187.5020  176.8220  143.4130 C   0  0  0  0  0  0  0  0  0  0  0  0
  186.3880  177.5430  141.3600 C   0  0  0  0  0  3  0  0  0  0  0  0
  188.9650  174.8650  143.2970 C   0  0  0  0  0  0  0  0  0  0  0  0
  187.8120  175.6440  141.3410 N   0  0  0  0  0  0  0  0  0  0  0  0
  186.0320  178.7710  143.4100 C   0  0  0  0  0  0  0  0  0  0  0  0
  190.0650  174.0450  145.2560 N   0  0  0  0  0  0  0  0  0  0  0  0
  189.8350  173.9350  143.9210 C   0  0  0  0  0  0  0  0  0  0  0  0
  188.6690  175.9720  145.4510 C   0  0  0  0  0  0  0  0  0  0  0  0
  188.6490  174.7610  141.9360 C   0  0  0  0  0  3  0  0  0  0  0  0
  192.5270  171.9290  142.1680 C   0  0  0  0  0  0  0  0  0  0  0  0
  191.8230  170.7930  141.7610 C   0  0  0  0  0  3  0  0  0  0  0  0
  190.5110  172.8230  143.1990 C   0  0  0  0  0  0  0  0  0  0  0  0
  190.4650  170.6700  142.0620 C   0  0  0  0  0  3  0  0  0  0  0  0
  191.8720  172.9400  142.8770 C   0  0  0  0  0  3  0  0  0  0  0  0
  189.8120  171.6820  142.7720 C   0  0  0  0  0  3  0  0  0  0  0  0
  193.8430  172.0530  141.8700 F   0  0  0  0  0  0  0  0  0  0  0  0
  189.8220  175.0450  147.4820 C   0  0  0  0  0  2  0  0  0  0  0  0
  191.2560  175.1490  147.6860 N   0  0  0  0  0  2  0  0  0  0  0  0
  191.6340  176.4970  147.3080 C   0  0  0  0  0  2  0  0  0  0  0  0
  193.0830  176.5080  146.8610 C   0  0  0  0  0  2  0  0  0  0  0  0
  195.3100  175.0720  145.5170 C   0  0  0  0  0  1  0  0  0  0  0  0
  193.1630  176.4050  145.3720 C   0  0  0  0  0  0  0  0  0  0  0  0
  194.2140  175.7150  144.7370 C   0  0  0  0  0  0  0  0  0  0  0  0
  193.2320  176.2190  142.5770 C   0  0  0  0  0  3  0  0  0  0  0  0
  192.1870  176.8970  143.2060 C   0  0  0  0  0  3  0  0  0  0  0  0
  192.1520  176.9890  144.6010 C   0  0  0  0  0  3  0  0  0  0  0  0
  194.2430  175.6280  143.3410 C   0  0  0  0  0  3  0  0  0  0  0  0
  1  8  1  0  0  0  0
  3 15  1  0  0  0  0
  4 24  1  0  0  0  0
  5 12  1  0  0  0  0
  8  3  2  0  0  0  0
  8  2  1  0  0  0  0
  9  1  1  0  0  0  0
  9  5  2  0  0  0  0
 10 14  1  0  0  0  0
 10  3  1  0  0  0  0
 11 16  1  0  0  0  0
 11  1  2  0  0  0  0
 12  2  2  0  0  0  0
 12  6  1  0  0  0  0
 13  4  1  0  0  0  0
 14 13  2  0  0  0  0
 15  4  2  0  0  0  0
 15  7  1  0  0  0  0
 16 10  2  0  0  0  0
 17 21  1  0  0  0  0
 18 20  1  0  0  0  0
 18 17  2  0  0  0  0
 19 14  1  0  0  0  0
 20 22  2  0  0  0  0
 21 19  2  0  0  0  0
 22 19  1  0  0  0  0
 23 17  1  0  0  0  0
 24 25  1  0  0  0  0
 26 25  1  0  0  0  0
 27 26  1  0  0  0  0
 29 27  1  0  0  0  0
 30 29  1  0  0  0  0
 30 28  1  0  0  0  0
 31 32  2  0  0  0  0
 31 34  1  0  0  0  0
 32 33  1  0  0  0  0
 33 29  2  0  0  0  0
 34 30  2  0  0  0  0
M  END
>  <MODEL>
6

>  <REMARK>
 VINA RESULT:      -7.5      2.601      5.635
  Name = 
  6 active torsions:
  status: ('A' for Active; 'I' for Inactive)
    1  A    between atoms: C_3  and  C_13
    2  A    between atoms: C_3  and  C_17
    3  A    between atoms: C_5  and  C_18
    4  A    between atoms: C_12  and  C_28
    5  A    between atoms: C_17  and  N_29
    6  A    between atoms: C_18  and  N_29
                            x       y       z     vdW  Elec       q    Type
                         _______ _______ _______ _____ _____    ______ ____

>  <TORSDO>
F 6

$$$$
=
 OpenBabel11052418503D

 34 38  0  0  0  0  0  0  0  0999 V2000
  190.8490  171.2420  141.4060 C   0  0  0  0  0  0  0  0  0  0  0  0
  189.6570  171.8890  139.3990 C   0  0  0  0  0  3  0  0  0  0  0  0
  189.5910  173.3430  141.4110 C   0  0  0  0  0  0  0  0  0  0  0  0
  188.3480  175.4310  141.5680 C   0  0  0  0  0  0  0  0  0  0  0  0
  190.9110  169.8220  139.4430 C   0  0  0  0  0  3  0  0  0  0  0  0
  189.6980  170.4530  137.3570 C   0  0  0  0  0  1  0  0  0  0  0  0
  188.2680  174.1800  139.5190 O   0  0  0  0  0  1  0  0  0  0  0  0
  190.0210  172.1700  140.7290 C   0  0  0  0  0  0  0  0  0  0  0  0
  191.2860  170.0800  140.7640 C   0  0  0  0  0  3  0  0  0  0  0  0
  190.0250  173.5470  142.7510 C   0  0  0  0  0  0  0  0  0  0  0  0
  191.2220  171.4680  142.6880 N   0  0  0  0  0  0  0  0  0  0  0  0
  190.0980  170.7270  138.7620 C   0  0  0  0  0  0  0  0  0  0  0  0
  188.7810  175.5880  142.8420 N   0  0  0  0  0  0  0  0  0  0  0  0
  189.6100  174.7050  143.4580 C   0  0  0  0  0  0  0  0  0  0  0  0
  188.7390  174.3120  140.8240 C   0  0  0  0  0  0  0  0  0  0  0  0
  190.8330  172.5770  143.3590 C   0  0  0  0  0  3  0  0  0  0  0  0
  191.6280  176.0240  146.3790 C   0  0  0  0  0  0  0  0  0  0  0  0
  190.8980  175.5500  147.4720 C   0  0  0  0  0  3  0  0  0  0  0  0
  190.0220  175.0120  144.8540 C   0  0  0  0  0  0  0  0  0  0  0  0
  189.7380  174.8020  147.2640 C   0  0  0  0  0  3  0  0  0  0  0  0
  191.1950  175.7510  145.0790 C   0  0  0  0  0  3  0  0  0  0  0  0
  189.3060  174.5300  145.9620 C   0  0  0  0  0  3  0  0  0  0  0  0
  192.7570  176.7450  146.5800 F   0  0  0  0  0  0  0  0  0  0  0  0
  187.4230  176.4460  140.9880 C   0  0  0  0  0  2  0  0  0  0  0  0
  186.4810  176.8850  142.0030 N   0  0  0  0  0  2  0  0  0  0  0  0
  186.8580  178.2380  142.3640 C   0  0  0  0  0  2  0  0  0  0  0  0
  185.7990  178.8310  143.2730 C   0  0  0  0  0  2  0  0  0  0  0  0
  183.6840  179.0390  145.3500 C   0  0  0  0  0  1  0  0  0  0  0  0
  186.0500  178.4260  144.6890 C   0  0  0  0  0  0  0  0  0  0  0  0
  185.0430  178.5150  145.6710 C   0  0  0  0  0  0  0  0  0  0  0  0
  186.5770  177.6130  147.3190 C   0  0  0  0  0  3  0  0  0  0  0  0
  187.5730  177.5190  146.3450 C   0  0  0  0  0  3  0  0  0  0  0  0
  187.3100  177.9230  145.0340 C   0  0  0  0  0  3  0  0  0  0  0  0
  185.3140  178.1090  146.9820 C   0  0  0  0  0  3  0  0  0  0  0  0
  1 11  1  0  0  0  0
  2  8  1  0  0  0  0
  3 10  1  0  0  0  0
  4 13  2  0  0  0  0
  5  9  2  0  0  0  0
  6 12  1  0  0  0  0
  7 15  1  0  0  0  0
  8  1  2  0  0  0  0
  8  3  1  0  0  0  0
  9  1  1  0  0  0  0
 10 16  1  0  0  0  0
 10 14  2  0  0  0  0
 11 16  2  0  0  0  0
 12  2  2  0  0  0  0
 12  5  1  0  0  0  0
 13 14  1  0  0  0  0
 14 19  1  0  0  0  0
 15  3  2  0  0  0  0
 15  4  1  0  0  0  0
 17 23  1  0  0  0  0
 17 18  1  0  0  0  0
 19 21  1  0  0  0  0
 19 22  2  0  0  0  0
 20 18  2  0  0  0  0
 21 17  2  0  0  0  0
 22 20  1  0  0  0  0
 24  4  1  0  0  0  0
 24 25  1  0  0  0  0
 25 26  1  0  0  0  0
 26 27  1  0  0  0  0
 27 29  1  0  0  0  0
 28 30  1  0  0  0  0
 29 33  2  0  0  0  0
 29 30  1  0  0  0  0
 30 34  2  0  0  0  0
 32 31  2  0  0  0  0
 33 32  1  0  0  0  0
 34 31  1  0  0  0  0
M  END
>  <MODEL>
7

>  <REMARK>
 VINA RESULT:      -7.3      2.603      5.973
  Name = 
  6 active torsions:
  status: ('A' for Active; 'I' for Inactive)
    1  A    between atoms: C_3  and  C_13
    2  A    between atoms: C_3  and  C_17
    3  A    between atoms: C_5  and  C_18
    4  A    between atoms: C_12  and  C_28
    5  A    between atoms: C_17  and  N_29
    6  A    between atoms: C_18  and  N_29
                            x       y       z     vdW  Elec       q    Type
                         _______ _______ _______ _____ _____    ______ ____

>  <TORSDO>
F 6

$$$$
=
 OpenBabel11052418503D

 34 38  0  0  0  0  0  0  0  0999 V2000
  186.0840  177.1790  142.6240 C   0  0  0  0  0  0  0  0  0  0  0  0
  185.6610  177.6580  144.9600 C   0  0  0  0  0  3  0  0  0  0  0  0
  187.6190  176.2770  144.3050 C   0  0  0  0  0  0  0  0  0  0  0  0
  189.1950  175.2830  145.8720 C   0  0  0  0  0  0  0  0  0  0  0  0
  184.1740  178.5250  143.2630 C   0  0  0  0  0  3  0  0  0  0  0  0
  183.7040  179.0410  145.6580 C   0  0  0  0  0  1  0  0  0  0  0  0
  187.3680  176.5830  146.7290 O   0  0  0  0  0  1  0  0  0  0  0  0
  186.4590  177.0370  143.9820 C   0  0  0  0  0  0  0  0  0  0  0  0
  184.9490  177.9170  142.2750 C   0  0  0  0  0  3  0  0  0  0  0  0
  188.3710  175.6990  143.2440 C   0  0  0  0  0  0  0  0  0  0  0  0
  186.8190  176.5960  141.6470 N   0  0  0  0  0  0  0  0  0  0  0  0
  184.5300  178.3950  144.6050 C   0  0  0  0  0  0  0  0  0  0  0  0
  189.8830  174.7480  144.8340 N   0  0  0  0  0  0  0  0  0  0  0  0
  189.5280  174.9340  143.5350 C   0  0  0  0  0  0  0  0  0  0  0  0
  188.0540  176.0560  145.6370 C   0  0  0  0  0  0  0  0  0  0  0  0
  187.9290  175.8730  141.9260 C   0  0  0  0  0  3  0  0  0  0  0  0
  190.8250  172.4160  141.0200 C   0  0  0  0  0  0  0  0  0  0  0  0
  192.0080  173.0210  140.5890 C   0  0  0  0  0  3  0  0  0  0  0  0
  190.3850  174.3030  142.4950 C   0  0  0  0  0  0  0  0  0  0  0  0
  192.3880  174.2590  141.1110 C   0  0  0  0  0  3  0  0  0  0  0  0
  190.0230  173.0510  141.9720 C   0  0  0  0  0  3  0  0  0  0  0  0
  191.5840  174.8930  142.0630 C   0  0  0  0  0  3  0  0  0  0  0  0
  190.4580  171.2120  140.5190 F   0  0  0  0  0  0  0  0  0  0  0  0
  189.6540  175.0040  147.2630 C   0  0  0  0  0  2  0  0  0  0  0  0
  190.6640  175.9730  147.6490 N   0  0  0  0  0  2  0  0  0  0  0  0
  191.9420  175.2910  147.5830 C   0  0  0  0  0  2  0  0  0  0  0  0
  192.8440  176.0030  146.5940 C   0  0  0  0  0  2  0  0  0  0  0  0
  194.9750  176.7860  144.6770 C   0  0  0  0  0  1  0  0  0  0  0  0
  193.4390  175.0190  145.6390 C   0  0  0  0  0  0  0  0  0  0  0  0
  194.4570  175.3890  144.7380 C   0  0  0  0  0  0  0  0  0  0  0  0
  194.5370  173.1140  143.9010 C   0  0  0  0  0  3  0  0  0  0  0  0
  193.5320  172.7450  144.7980 C   0  0  0  0  0  3  0  0  0  0  0  0
  192.9860  173.6950  145.6650 C   0  0  0  0  0  3  0  0  0  0  0  0
  194.9990  174.4330  143.8720 C   0  0  0  0  0  3  0  0  0  0  0  0
  1  8  1  0  0  0  0
  3 15  1  0  0  0  0
  4 24  1  0  0  0  0
  5 12  2  0  0  0  0
  8  3  1  0  0  0  0
  8  2  2  0  0  0  0
  9  1  2  0  0  0  0
  9  5  1  0  0  0  0
 10 14  1  0  0  0  0
 10  3  2  0  0  0  0
 11 16  2  0  0  0  0
 11  1  1  0  0  0  0
 12  2  1  0  0  0  0
 12  6  1  0  0  0  0
 13  4  1  0  0  0  0
 14 13  2  0  0  0  0
 15  4  2  0  0  0  0
 15  7  1  0  0  0  0
 16 10  1  0  0  0  0
 17 21  1  0  0  0  0
 18 17  2  0  0  0  0
 18 20  1  0  0  0  0
 19 14  1  0  0  0  0
 20 22  2  0  0  0  0
 21 19  2  0  0  0  0
 22 19  1  0  0  0  0
 23 17  1  0  0  0  0
 24 25  1  0  0  0  0
 26 25  1  0  0  0  0
 27 26  1  0  0  0  0
 28 30  1  0  0  0  0
 29 33  1  0  0  0  0
 29 27  1  0  0  0  0
 30 29  2  0  0  0  0
 31 32  1  0  0  0  0
 32 33  2  0  0  0  0
 34 31  2  0  0  0  0
 34 30  1  0  0  0  0
M  END
>  <MODEL>
8

>  <REMARK>
 VINA RESULT:      -7.3      2.514      5.700
  Name = 
  6 active torsions:
  status: ('A' for Active; 'I' for Inactive)
    1  A    between atoms: C_3  and  C_13
    2  A    between atoms: C_3  and  C_17
    3  A    between atoms: C_5  and  C_18
    4  A    between atoms: C_12  and  C_28
    5  A    between atoms: C_17  and  N_29
    6  A    between atoms: C_18  and  N_29
                            x       y       z     vdW  Elec       q    Type
                         _______ _______ _______ _____ _____    ______ ____

>  <TORSDO>
F 6

$$$$
=
 OpenBabel11052418503D

 34 38  0  0  0  0  0  0  0  0999 V2000
  187.7700  177.8230  146.8820 C   0  0  0  0  0  0  0  0  0  0  0  0
  185.9520  177.6570  145.2900 C   0  0  0  0  0  3  0  0  0  0  0  0
  188.1590  176.6420  144.7730 C   0  0  0  0  0  0  0  0  0  0  0  0
  188.6940  175.4810  142.7010 C   0  0  0  0  0  0  0  0  0  0  0  0
  185.6170  178.8150  147.3860 C   0  0  0  0  0  3  0  0  0  0  0  0
  183.7200  178.6660  145.7730 C   0  0  0  0  0  1  0  0  0  0  0  0
  186.4900  176.3900  142.9880 O   0  0  0  0  0  1  0  0  0  0  0  0
  187.2860  177.3680  145.6310 C   0  0  0  0  0  0  0  0  0  0  0  0
  186.9370  178.5400  147.7460 C   0  0  0  0  0  3  0  0  0  0  0  0
  189.4880  176.3850  145.2130 C   0  0  0  0  0  0  0  0  0  0  0  0
  189.0480  177.5720  147.2530 N   0  0  0  0  0  0  0  0  0  0  0  0
  185.1250  178.3730  146.1580 C   0  0  0  0  0  0  0  0  0  0  0  0
  189.9510  175.2590  143.1550 N   0  0  0  0  0  0  0  0  0  0  0  0
  190.3810  175.6670  144.3780 C   0  0  0  0  0  0  0  0  0  0  0  0
  187.7710  176.1730  143.4910 C   0  0  0  0  0  0  0  0  0  0  0  0
  189.8970  176.8790  146.4580 C   0  0  0  0  0  3  0  0  0  0  0  0
  194.1510  175.8940  144.6620 C   0  0  0  0  0  0  0  0  0  0  0  0
  194.4580  174.7280  145.3670 C   0  0  0  0  0  3  0  0  0  0  0  0
  191.7820  175.3390  144.7560 C   0  0  0  0  0  0  0  0  0  0  0  0
  193.4370  173.8620  145.7610 C   0  0  0  0  0  3  0  0  0  0  0  0
  192.8210  176.1940  144.3540 C   0  0  0  0  0  3  0  0  0  0  0  0
  192.1070  174.1640  145.4520 C   0  0  0  0  0  3  0  0  0  0  0  0
  195.1420  176.7320  144.2740 F   0  0  0  0  0  0  0  0  0  0  0  0
  188.3260  175.0090  141.3350 C   0  0  0  0  0  2  0  0  0  0  0  0
  188.1910  173.5630  141.3370 N   0  0  0  0  0  2  0  0  0  0  0  0
  189.1720  173.0520  140.3990 C   0  0  0  0  0  2  0  0  0  0  0  0
  190.1010  172.0920  141.1150 C   0  0  0  0  0  2  0  0  0  0  0  0
  192.0440  171.0680  143.1180 C   0  0  0  0  0  1  0  0  0  0  0  0
  191.4510  172.7110  141.2860 C   0  0  0  0  0  0  0  0  0  0  0  0
  192.3750  172.2180  142.2280 C   0  0  0  0  0  0  0  0  0  0  0  0
  193.9790  173.8970  141.5260 C   0  0  0  0  0  3  0  0  0  0  0  0
  193.0660  174.3820  140.5880 C   0  0  0  0  0  3  0  0  0  0  0  0
  191.8060  173.7890  140.4670 C   0  0  0  0  0  3  0  0  0  0  0  0
  193.6340  172.8160  142.3440 C   0  0  0  0  0  3  0  0  0  0  0  0
  1 11  1  0  0  0  0
  1  9  2  0  0  0  0
  2  8  2  0  0  0  0
  2 12  1  0  0  0  0
  3 10  1  0  0  0  0
  3  8  1  0  0  0  0
  4 13  2  0  0  0  0
  4 15  1  0  0  0  0
  5  9  1  0  0  0  0
  6 12  1  0  0  0  0
  7 15  1  0  0  0  0
  8  1  1  0  0  0  0
 10 16  1  0  0  0  0
 12  5  2  0  0  0  0
 13 14  1  0  0  0  0
 14 19  1  0  0  0  0
 14 10  2  0  0  0  0
 15  3  2  0  0  0  0
 16 11  2  0  0  0  0
 17 18  1  0  0  0  0
 18 20  2  0  0  0  0
 19 22  2  0  0  0  0
 21 17  2  0  0  0  0
 21 19  1  0  0  0  0
 22 20  1  0  0  0  0
 23 17  1  0  0  0  0
 24 25  1  0  0  0  0
 24  4  1  0  0  0  0
 26 27  1  0  0  0  0
 26 25  1  0  0  0  0
 27 29  1  0  0  0  0
 29 30  1  0  0  0  0
 30 34  2  0  0  0  0
 30 28  1  0  0  0  0
 31 34  1  0  0  0  0
 32 31  2  0  0  0  0
 33 32  1  0  0  0  0
 33 29  2  0  0  0  0
M  END
>  <MODEL>
9

>  <REMARK>
 VINA RESULT:      -7.2      2.559      6.820
  Name = 
  6 active torsions:
  status: ('A' for Active; 'I' for Inactive)
    1  A    between atoms: C_3  and  C_13
    2  A    between atoms: C_3  and  C_17
    3  A    between atoms: C_5  and  C_18
    4  A    between atoms: C_12  and  C_28
    5  A    between atoms: C_17  and  N_29
    6  A    between atoms: C_18  and  N_29
                            x       y       z     vdW  Elec       q    Type
                         _______ _______ _______ _____ _____    ______ ____

>  <TORSDO>
F 6

$$$$
