=
 OpenBabel11052418123D

 28 32  0  0  1  0  0  0  0  0999 V2000
  189.9990  176.2840  144.2610 N   0  0  0  0  0  0  0  0  0  0  0  0
  185.5550  177.6590  141.7260 C   0  0  0  0  0  2  0  0  0  0  0  0
  187.1540  178.1500  147.6350 O   0  0  0  0  0  0  0  0  0  0  0  0
  184.1360  178.4870  143.6650 C   0  0  0  0  0  0  0  0  0  0  0  0
  186.4270  177.7990  144.0970 C   0  0  0  0  0  0  0  0  0  0  0  0
  183.1340  178.1020  141.3880 C   0  0  1  0  0  3  0  0  0  0  0  0
  185.3790  178.0190  143.1820 C   0  0  0  0  0  0  0  0  0  0  0  0
  184.9850  178.5610  145.8810 C   0  0  0  0  0  3  0  0  0  0  0  0
  183.0000  178.8060  142.7330 C   0  0  0  0  0  2  0  0  0  0  0  0
  188.5640  177.2100  145.9760 C   0  0  0  0  0  0  0  0  0  0  0  0
  187.7730  177.3290  143.6030 C   0  0  0  0  0  2  0  0  0  0  0  0
  183.9830  178.7560  144.9870 N   0  0  0  0  0  0  0  0  0  0  0  0
  190.9800  176.6740  146.4480 C   0  0  0  0  0  2  0  0  0  0  0  0
  187.3080  177.8400  146.4230 C   0  0  0  0  0  0  0  0  0  0  0  0
  189.5750  176.8090  147.0230 C   0  0  0  0  0  2  0  0  0  0  0  0
  182.1820  178.6060  140.5030 O   0  0  0  0  0  1  0  0  0  0  0  0
  184.5260  178.3380  140.8270 C   0  0  0  0  0  2  0  0  0  0  0  0
  186.2270  178.0800  145.4570 C   0  0  0  0  0  0  0  0  0  0  0  0
  190.9220  175.7420  145.2530 C   0  0  0  0  0  2  0  0  0  0  0  0
  188.7640  176.9130  144.6700 C   0  0  0  0  0  0  0  0  0  0  0  0
  190.4170  176.2830  142.8630 C   0  0  0  0  0  2  0  0  0  0  0  0
  190.3960  174.8950  142.3170 C   0  0  0  0  0  0  0  0  0  0  0  0
  190.3700  172.2730  141.3430 C   0  0  0  0  0  0  0  0  0  0  0  0
  189.2090  174.1530  142.3310 C   0  0  0  0  0  3  0  0  0  0  0  0
  191.5720  174.3190  141.8220 C   0  0  0  0  0  3  0  0  0  0  0  0
  191.5580  173.0100  141.3330 C   0  0  0  0  0  3  0  0  0  0  0  0
  190.3560  170.9730  140.8570 O   0  0  0  0  0  1  0  0  0  0  0  0
  189.1950  172.8440  141.8430 C   0  0  0  0  0  3  0  0  0  0  0  0
  1 20  1  0  0  0  0
  1 19  1  0  0  0  0
  2  7  1  0  0  0  0
  4 12  1  0  0  0  0
  5 18  2  0  0  0  0
  6 16  1  6  0  0  0
  6  9  1  0  0  0  0
  7  4  2  0  0  0  0
  7  5  1  0  0  0  0
  9  4  1  0  0  0  0
 10 14  1  0  0  0  0
 10 15  1  0  0  0  0
 11  5  1  0  0  0  0
 11 20  1  0  0  0  0
 12  8  2  0  0  0  0
 13 15  1  0  0  0  0
 14  3  2  0  0  0  0
 17  6  1  0  0  0  0
 17  2  1  0  0  0  0
 18  8  1  0  0  0  0
 18 14  1  0  0  0  0
 19 13  1  0  0  0  0
 20 10  2  0  0  0  0
 21  1  1  0  0  0  0
 22 24  1  0  0  0  0
 22 21  1  0  0  0  0
 23 28  1  0  0  0  0
 25 22  2  0  0  0  0
 26 23  2  0  0  0  0
 26 25  1  0  0  0  0
 27 23  1  0  0  0  0
 28 24  2  0  0  0  0
M  END
>  <MODEL>
1

>  <REMARK>
 VINA RESULT:      -7.9      0.000      0.000
  Name = 
  2 active torsions:
  status: ('A' for Active; 'I' for Inactive)
    1  A    between atoms: N_1  and  C_2
    2  A    between atoms: C_2  and  C_3
                            x       y       z     vdW  Elec       q    Type
                         _______ _______ _______ _____ _____    ______ ____

>  <TORSDO>
F 2

$$$$
=
 OpenBabel11052418123D

 28 32  0  0  1  0  0  0  0  0999 V2000
  190.2270  174.9310  144.5800 N   0  0  0  0  0  0  0  0  0  0  0  0
  186.3810  177.2220  141.7470 C   0  0  0  0  0  2  0  0  0  0  0  0
  187.0880  176.5630  147.8120 O   0  0  0  0  0  0  0  0  0  0  0  0
  184.7660  177.8930  143.5910 C   0  0  0  0  0  0  0  0  0  0  0  0
  186.8860  176.8740  144.2020 C   0  0  0  0  0  0  0  0  0  0  0  0
  184.0950  178.0020  141.1670 C   0  0  1  0  0  3  0  0  0  0  0  0
  186.0180  177.3620  143.2070 C   0  0  0  0  0  0  0  0  0  0  0  0
  185.2660  177.5090  145.8800 C   0  0  0  0  0  3  0  0  0  0  0  0
  183.8230  178.4930  142.5840 C   0  0  0  0  0  2  0  0  0  0  0  0
  188.6410  175.7370  146.2210 C   0  0  0  0  0  0  0  0  0  0  0  0
  188.2410  176.3300  143.8210 C   0  0  0  0  0  2  0  0  0  0  0  0
  184.4370  177.9640  144.9070 N   0  0  0  0  0  0  0  0  0  0  0  0
  190.8920  174.8440  146.9150 C   0  0  0  0  0  2  0  0  0  0  0  0
  187.3980  176.4350  146.5970 C   0  0  0  0  0  0  0  0  0  0  0  0
  189.4350  175.0550  147.3090 C   0  0  0  0  0  2  0  0  0  0  0  0
  183.3440  178.7530  140.2640 O   0  0  0  0  0  1  0  0  0  0  0  0
  185.5730  178.1550  140.8510 C   0  0  0  0  0  2  0  0  0  0  0  0
  186.5060  176.9550  145.5500 C   0  0  0  0  0  0  0  0  0  0  0  0
  190.9300  174.1300  145.5780 C   0  0  0  0  0  2  0  0  0  0  0  0
  189.0100  175.6310  144.9230 C   0  0  0  0  0  0  0  0  0  0  0  0
  190.8540  175.1040  143.2750 C   0  0  0  0  0  2  0  0  0  0  0  0
  192.3110  175.3840  143.4320 C   0  0  0  0  0  0  0  0  0  0  0  0
  195.0430  175.8780  143.7740 C   0  0  0  0  0  0  0  0  0  0  0  0
  193.2560  174.5520  142.8220 C   0  0  0  0  0  3  0  0  0  0  0  0
  192.7360  176.4590  144.2210 C   0  0  0  0  0  3  0  0  0  0  0  0
  194.1010  176.7070  144.3900 C   0  0  0  0  0  3  0  0  0  0  0  0
  196.3990  176.1240  143.9410 O   0  0  0  0  0  1  0  0  0  0  0  0
  194.6210  174.7990  142.9910 C   0  0  0  0  0  3  0  0  0  0  0  0
  1 20  1  0  0  0  0
  1 19  1  0  0  0  0
  2  7  1  0  0  0  0
  4 12  1  0  0  0  0
  5 18  2  0  0  0  0
  6 16  1  6  0  0  0
  6  9  1  0  0  0  0
  7  4  2  0  0  0  0
  7  5  1  0  0  0  0
  9  4  1  0  0  0  0
 10 14  1  0  0  0  0
 10 15  1  0  0  0  0
 11  5  1  0  0  0  0
 11 20  1  0  0  0  0
 12  8  2  0  0  0  0
 13 15  1  0  0  0  0
 14  3  2  0  0  0  0
 17  6  1  0  0  0  0
 17  2  1  0  0  0  0
 18  8  1  0  0  0  0
 18 14  1  0  0  0  0
 19 13  1  0  0  0  0
 20 10  2  0  0  0  0
 21 22  1  0  0  0  0
 21  1  1  0  0  0  0
 22 25  1  0  0  0  0
 23 27  1  0  0  0  0
 23 26  1  0  0  0  0
 24 28  1  0  0  0  0
 24 22  2  0  0  0  0
 25 26  2  0  0  0  0
 28 23  2  0  0  0  0
M  END
>  <MODEL>
2

>  <REMARK>
 VINA RESULT:      -7.7      2.386      2.960
  Name = 
  2 active torsions:
  status: ('A' for Active; 'I' for Inactive)
    1  A    between atoms: N_1  and  C_2
    2  A    between atoms: C_2  and  C_3
                            x       y       z     vdW  Elec       q    Type
                         _______ _______ _______ _____ _____    ______ ____

>  <TORSDO>
F 2

$$$$
=
 OpenBabel11052418123D

 28 32  0  0  1  0  0  0  0  0999 V2000
  191.1790  173.7080  143.1820 N   0  0  0  0  0  0  0  0  0  0  0  0
  187.7710  176.6380  145.9860 C   0  0  0  0  0  2  0  0  0  0  0  0
  187.8890  175.1760  140.0220 O   0  0  0  0  0  0  0  0  0  0  0  0
  186.2020  177.4320  144.1510 C   0  0  0  0  0  0  0  0  0  0  0  0
  187.9910  175.8890  143.5790 C   0  0  0  0  0  0  0  0  0  0  0  0
  186.1130  178.4260  146.4620 C   0  0  1  0  0  3  0  0  0  0  0  0
  187.2920  176.6280  144.5530 C   0  0  0  0  0  0  0  0  0  0  0  0
  186.4740  176.7340  141.8980 C   0  0  0  0  0  3  0  0  0  0  0  0
  185.3730  178.1920  145.1500 C   0  0  0  0  0  2  0  0  0  0  0  0
  189.5320  174.4570  141.5740 C   0  0  0  0  0  0  0  0  0  0  0  0
  189.1390  174.9980  143.9880 C   0  0  0  0  0  2  0  0  0  0  0  0
  185.8200  177.4490  142.8470 N   0  0  0  0  0  0  0  0  0  0  0  0
  191.2590  172.7270  140.9610 C   0  0  0  0  0  2  0  0  0  0  0  0
  188.3010  175.1840  141.2140 C   0  0  0  0  0  0  0  0  0  0  0  0
  190.3560  173.8500  140.4640 C   0  0  0  0  0  2  0  0  0  0  0  0
  185.2260  178.9310  147.4110 O   0  0  0  0  0  1  0  0  0  0  0  0
  186.6960  177.1130  146.9590 C   0  0  0  0  0  2  0  0  0  0  0  0
  187.5710  175.9390  142.2410 C   0  0  0  0  0  0  0  0  0  0  0  0
  192.0770  173.2500  142.1260 C   0  0  0  0  0  2  0  0  0  0  0  0
  189.9620  174.4170  142.8570 C   0  0  0  0  0  0  0  0  0  0  0  0
  191.4840  173.3220  144.5550 C   0  0  0  0  0  2  0  0  0  0  0  0
  192.2570  174.4000  145.2370 C   0  0  0  0  0  0  0  0  0  0  0  0
  193.6850  176.4580  146.4820 C   0  0  0  0  0  0  0  0  0  0  0  0
  191.7210  175.0480  146.3550 C   0  0  0  0  0  3  0  0  0  0  0  0
  193.5060  174.7890  144.7380 C   0  0  0  0  0  3  0  0  0  0  0  0
  194.2200  175.8160  145.3620 C   0  0  0  0  0  3  0  0  0  0  0  0
  194.3950  177.4770  147.1020 O   0  0  0  0  0  1  0  0  0  0  0  0
  192.4350  176.0750  146.9790 C   0  0  0  0  0  3  0  0  0  0  0  0
  1 21  1  0  0  0  0
  2 17  1  0  0  0  0
  3 14  2  0  0  0  0
  4  7  1  0  0  0  0
  4  9  1  0  0  0  0
  5 11  1  0  0  0  0
  5  7  2  0  0  0  0
  6 17  1  0  0  0  0
  6 16  1  1  0  0  0
  7  2  1  0  0  0  0
  8 18  2  0  0  0  0
  8 12  1  0  0  0  0
  9  6  1  0  0  0  0
 10 20  2  0  0  0  0
 12  4  2  0  0  0  0
 13 19  1  0  0  0  0
 14 10  1  0  0  0  0
 14 18  1  0  0  0  0
 15 13  1  0  0  0  0
 15 10  1  0  0  0  0
 18  5  1  0  0  0  0
 19  1  1  0  0  0  0
 20  1  1  0  0  0  0
 20 11  1  0  0  0  0
 21 22  1  0  0  0  0
 22 24  1  0  0  0  0
 23 28  1  0  0  0  0
 23 27  1  0  0  0  0
 24 28  2  0  0  0  0
 25 22  2  0  0  0  0
 25 26  1  0  0  0  0
 26 23  2  0  0  0  0
M  END
>  <MODEL>
3

>  <REMARK>
 VINA RESULT:      -7.7      2.451      5.359
  Name = 
  2 active torsions:
  status: ('A' for Active; 'I' for Inactive)
    1  A    between atoms: N_1  and  C_2
    2  A    between atoms: C_2  and  C_3
                            x       y       z     vdW  Elec       q    Type
                         _______ _______ _______ _____ _____    ______ ____

>  <TORSDO>
F 2

$$$$
=
 OpenBabel11052418123D

 28 32  0  0  1  0  0  0  0  0999 V2000
  189.6110  176.2930  146.4720 N   0  0  0  0  0  0  0  0  0  0  0  0
  188.6360  174.0820  141.7580 C   0  0  0  0  0  2  0  0  0  0  0  0
  193.9130  175.1020  144.7300 O   0  0  0  0  0  0  0  0  0  0  0  0
  191.0020  173.6480  140.9360 C   0  0  0  0  0  0  0  0  0  0  0  0
  190.6830  174.5610  143.1660 C   0  0  0  0  0  0  0  0  0  0  0  0
  189.0250  173.4210  139.3940 C   0  0  1  0  0  3  0  0  0  0  0  0
  190.1320  174.0660  141.9680 C   0  0  0  0  0  0  0  0  0  0  0  0
  192.8940  174.1530  142.2790 C   0  0  0  0  0  3  0  0  0  0  0  0
  190.4780  173.0470  139.6610 C   0  0  0  0  0  2  0  0  0  0  0  0
  191.7900  175.7100  145.5950 C   0  0  0  0  0  0  0  0  0  0  0  0
  189.7760  174.9850  144.2950 C   0  0  0  0  0  2  0  0  0  0  0  0
  192.3460  173.6900  141.1270 N   0  0  0  0  0  0  0  0  0  0  0  0
  191.5100  176.4940  147.9730 C   0  0  0  0  0  2  0  0  0  0  0  0
  192.6640  175.1260  144.5610 C   0  0  0  0  0  0  0  0  0  0  0  0
  192.4370  176.4100  146.7660 C   0  0  0  0  0  2  0  0  0  0  0  0
  188.5380  172.6630  138.3310 O   0  0  0  0  0  1  0  0  0  0  0  0
  188.1930  173.1460  140.6370 C   0  0  0  0  0  2  0  0  0  0  0  0
  192.0770  174.5970  143.3220 C   0  0  0  0  0  0  0  0  0  0  0  0
  190.1980  177.1110  147.5290 C   0  0  0  0  0  2  0  0  0  0  0  0
  190.4440  175.7020  145.4490 C   0  0  0  0  0  0  0  0  0  0  0  0
  188.1860  175.9910  146.5520 C   0  0  0  0  0  2  0  0  0  0  0  0
  187.3870  177.0990  145.9530 C   0  0  0  0  0  0  0  0  0  0  0  0
  185.8440  179.1410  144.8240 C   0  0  0  0  0  0  0  0  0  0  0  0
  186.5990  177.9160  146.7710 C   0  0  0  0  0  3  0  0  0  0  0  0
  187.3950  177.3000  144.5680 C   0  0  0  0  0  3  0  0  0  0  0  0
  186.6260  178.3220  144.0040 C   0  0  0  0  0  3  0  0  0  0  0  0
  185.0810  180.1560  144.2640 O   0  0  0  0  0  1  0  0  0  0  0  0
  185.8290  178.9380  146.2080 C   0  0  0  0  0  3  0  0  0  0  0  0
  1 21  1  0  0  0  0
  1 19  1  0  0  0  0
  2  7  1  0  0  0  0
  4 12  2  0  0  0  0
  4  7  1  0  0  0  0
  5 18  1  0  0  0  0
  5 11  1  0  0  0  0
  6 16  1  6  0  0  0
  6  9  1  0  0  0  0
  6 17  1  0  0  0  0
  7  5  2  0  0  0  0
  8 18  2  0  0  0  0
  9  4  1  0  0  0  0
 10 15  1  0  0  0  0
 11 20  1  0  0  0  0
 12  8  1  0  0  0  0
 14  3  2  0  0  0  0
 14 10  1  0  0  0  0
 15 13  1  0  0  0  0
 17  2  1  0  0  0  0
 18 14  1  0  0  0  0
 19 13  1  0  0  0  0
 20 10  2  0  0  0  0
 20  1  1  0  0  0  0
 22 21  1  0  0  0  0
 22 24  1  0  0  0  0
 23 28  1  0  0  0  0
 25 22  2  0  0  0  0
 26 25  1  0  0  0  0
 26 23  2  0  0  0  0
 27 23  1  0  0  0  0
 28 24  2  0  0  0  0
M  END
>  <MODEL>
4

>  <REMARK>
 VINA RESULT:      -7.6      2.566      6.843
  Name = 
  2 active torsions:
  status: ('A' for Active; 'I' for Inactive)
    1  A    between atoms: N_1  and  C_2
    2  A    between atoms: C_2  and  C_3
                            x       y       z     vdW  Elec       q    Type
                         _______ _______ _______ _____ _____    ______ ____

>  <TORSDO>
F 2

$$$$
=
 OpenBabel11052418123D

 28 32  0  0  1  0  0  0  0  0999 V2000
  192.2650  175.3520  143.8420 N   0  0  0  0  0  0  0  0  0  0  0  0
  188.0470  177.2820  146.4000 C   0  0  0  0  0  2  0  0  0  0  0  0
  188.5710  174.6660  140.8680 O   0  0  0  0  0  0  0  0  0  0  0  0
  186.2380  176.9650  144.6440 C   0  0  0  0  0  0  0  0  0  0  0  0
  188.4800  176.1510  144.1790 C   0  0  0  0  0  0  0  0  0  0  0  0
  185.8220  178.3430  146.7090 C   0  0  1  0  0  3  0  0  0  0  0  0
  187.5710  176.7610  145.0650 C   0  0  0  0  0  0  0  0  0  0  0  0
  186.7020  175.9340  142.5560 C   0  0  0  0  0  3  0  0  0  0  0  0
  185.2020  177.5480  145.5650 C   0  0  0  0  0  2  0  0  0  0  0  0
  190.4100  175.0150  142.3260 C   0  0  0  0  0  0  0  0  0  0  0  0
  189.9020  175.8940  144.6150 C   0  0  0  0  0  2  0  0  0  0  0  0
  185.8430  176.5340  143.4170 N   0  0  0  0  0  0  0  0  0  0  0  0
  192.6700  174.0010  141.8640 C   0  0  0  0  0  2  0  0  0  0  0  0
  188.9800  175.1040  141.9780 C   0  0  0  0  0  0  0  0  0  0  0  0
  191.3750  174.5400  141.2670 C   0  0  0  0  0  2  0  0  0  0  0  0
  184.8350  178.6650  147.6380 O   0  0  0  0  0  1  0  0  0  0  0  0
  186.9010  177.5100  147.3810 C   0  0  0  0  0  2  0  0  0  0  0  0
  188.0370  175.7290  142.9170 C   0  0  0  0  0  0  0  0  0  0  0  0
  193.2410  175.0510  142.7980 C   0  0  0  0  0  2  0  0  0  0  0  0
  190.8570  175.4380  143.5320 C   0  0  0  0  0  0  0  0  0  0  0  0
  192.7410  175.4370  145.2190 C   0  0  0  0  0  2  0  0  0  0  0  0
  193.8940  174.5140  145.4280 C   0  0  0  0  0  0  0  0  0  0  0  0
  196.0640  172.7820  145.7630 C   0  0  0  0  0  0  0  0  0  0  0  0
  195.1760  175.0300  145.6420 C   0  0  0  0  0  3  0  0  0  0  0  0
  193.7000  173.1280  145.3730 C   0  0  0  0  0  3  0  0  0  0  0  0
  194.7850  172.2630  145.5440 C   0  0  0  0  0  3  0  0  0  0  0  0
  197.1410  171.9220  145.9320 O   0  0  0  0  0  1  0  0  0  0  0  0
  196.2610  174.1650  145.8110 C   0  0  0  0  0  3  0  0  0  0  0  0
  1 21  1  0  0  0  0
  2 17  1  0  0  0  0
  3 14  2  0  0  0  0
  4  7  1  0  0  0  0
  4  9  1  0  0  0  0
  5 11  1  0  0  0  0
  5  7  2  0  0  0  0
  6 17  1  0  0  0  0
  6 16  1  1  0  0  0
  7  2  1  0  0  0  0
  8 18  2  0  0  0  0
  8 12  1  0  0  0  0
  9  6  1  0  0  0  0
 10 20  2  0  0  0  0
 12  4  2  0  0  0  0
 13 19  1  0  0  0  0
 14 10  1  0  0  0  0
 14 18  1  0  0  0  0
 15 13  1  0  0  0  0
 15 10  1  0  0  0  0
 18  5  1  0  0  0  0
 19  1  1  0  0  0  0
 20  1  1  0  0  0  0
 20 11  1  0  0  0  0
 21 22  1  0  0  0  0
 22 24  1  0  0  0  0
 23 28  1  0  0  0  0
 23 27  1  0  0  0  0
 24 28  2  0  0  0  0
 25 22  2  0  0  0  0
 25 26  1  0  0  0  0
 26 23  2  0  0  0  0
M  END
>  <MODEL>
5

>  <REMARK>
 VINA RESULT:      -7.6      3.152      5.330
  Name = 
  2 active torsions:
  status: ('A' for Active; 'I' for Inactive)
    1  A    between atoms: N_1  and  C_2
    2  A    between atoms: C_2  and  C_3
                            x       y       z     vdW  Elec       q    Type
                         _______ _______ _______ _____ _____    ______ ____

>  <TORSDO>
F 2

$$$$
=
 OpenBabel11052418123D

 28 32  0  0  1  0  0  0  0  0999 V2000
  190.0120  172.8630  143.3500 N   0  0  0  0  0  0  0  0  0  0  0  0
  186.9840  177.0570  144.4900 C   0  0  0  0  0  2  0  0  0  0  0  0
  188.5380  174.5370  139.1090 O   0  0  0  0  0  0  0  0  0  0  0  0
  186.4150  177.8840  142.1550 C   0  0  0  0  0  0  0  0  0  0  0  0
  187.7150  175.8440  142.3930 C   0  0  0  0  0  0  0  0  0  0  0  0
  185.9080  179.2770  144.1900 C   0  0  1  0  0  3  0  0  0  0  0  0
  187.0100  176.9090  142.9870 C   0  0  0  0  0  0  0  0  0  0  0  0
  187.1590  176.7330  140.2160 C   0  0  0  0  0  3  0  0  0  0  0  0
  185.5920  179.0070  142.7230 C   0  0  0  0  0  2  0  0  0  0  0  0
  189.2860  173.7090  141.2020 C   0  0  0  0  0  0  0  0  0  0  0  0
  188.3330  174.7730  143.2590 C   0  0  0  0  0  2  0  0  0  0  0  0
  186.4940  177.7590  140.8040 N   0  0  0  0  0  0  0  0  0  0  0  0
  190.4850  171.5010  141.3940 C   0  0  0  0  0  2  0  0  0  0  0  0
  188.5280  174.6560  140.3640 C   0  0  0  0  0  0  0  0  0  0  0  0
  190.1880  172.7110  140.5150 C   0  0  0  0  0  2  0  0  0  0  0  0
  184.9700  180.1650  144.7110 O   0  0  0  0  0  1  0  0  0  0  0  0
  185.8600  177.9720  144.9680 C   0  0  0  0  0  2  0  0  0  0  0  0
  187.7820  175.7550  140.9950 C   0  0  0  0  0  0  0  0  0  0  0  0
  191.0090  171.9950  142.7290 C   0  0  0  0  0  2  0  0  0  0  0  0
  189.2490  173.7950  142.5520 C   0  0  0  0  0  0  0  0  0  0  0  0
  189.7250  172.6710  144.7670 C   0  0  0  0  0  2  0  0  0  0  0  0
  190.2840  173.8000  145.5660 C   0  0  0  0  0  0  0  0  0  0  0  0
  191.3460  175.8800  147.1060 C   0  0  0  0  0  0  0  0  0  0  0  0
  191.6270  174.1660  145.4200 C   0  0  0  0  0  3  0  0  0  0  0  0
  189.4750  174.4710  146.4920 C   0  0  0  0  0  3  0  0  0  0  0  0
  190.0060  175.5120  147.2590 C   0  0  0  0  0  3  0  0  0  0  0  0
  191.8720  176.9140  147.8680 O   0  0  0  0  0  1  0  0  0  0  0  0
  192.1570  175.2060  146.1870 C   0  0  0  0  0  3  0  0  0  0  0  0
  1 21  1  0  0  0  0
  2 17  1  0  0  0  0
  3 14  2  0  0  0  0
  4  9  1  0  0  0  0
  4  7  1  0  0  0  0
  5  7  2  0  0  0  0
  5 11  1  0  0  0  0
  6 16  1  1  0  0  0
  6 17  1  0  0  0  0
  7  2  1  0  0  0  0
  8 12  1  0  0  0  0
  8 18  2  0  0  0  0
  9  6  1  0  0  0  0
 10 20  2  0  0  0  0
 12  4  2  0  0  0  0
 13 19  1  0  0  0  0
 14 18  1  0  0  0  0
 14 10  1  0  0  0  0
 15 10  1  0  0  0  0
 15 13  1  0  0  0  0
 18  5  1  0  0  0  0
 19  1  1  0  0  0  0
 20 11  1  0  0  0  0
 20  1  1  0  0  0  0
 21 22  1  0  0  0  0
 22 25  1  0  0  0  0
 23 26  1  0  0  0  0
 23 27  1  0  0  0  0
 24 22  2  0  0  0  0
 24 28  1  0  0  0  0
 25 26  2  0  0  0  0
 28 23  2  0  0  0  0
M  END
>  <MODEL>
6

>  <REMARK>
 VINA RESULT:      -7.5      2.465      5.389
  Name = 
  2 active torsions:
  status: ('A' for Active; 'I' for Inactive)
    1  A    between atoms: N_1  and  C_2
    2  A    between atoms: C_2  and  C_3
                            x       y       z     vdW  Elec       q    Type
                         _______ _______ _______ _____ _____    ______ ____

>  <TORSDO>
F 2

$$$$
=
 OpenBabel11052418123D

 28 32  0  0  1  0  0  0  0  0999 V2000
  188.5730  175.5830  145.6610 N   0  0  0  0  0  0  0  0  0  0  0  0
  189.0560  173.6320  140.7600 C   0  0  0  0  0  2  0  0  0  0  0  0
  186.3370  178.7360  142.8290 O   0  0  0  0  0  0  0  0  0  0  0  0
  187.7130  175.3350  139.4340 C   0  0  0  0  0  0  0  0  0  0  0  0
  188.0320  175.6900  141.8170 C   0  0  0  0  0  0  0  0  0  0  0  0
  188.4640  173.1700  138.3910 C   0  0  1  0  0  3  0  0  0  0  0  0
  188.2810  174.9250  140.6610 C   0  0  0  0  0  0  0  0  0  0  0  0
  186.7360  177.2300  140.4790 C   0  0  0  0  0  3  0  0  0  0  0  0
  187.9960  174.6010  138.1520 C   0  0  0  0  0  2  0  0  0  0  0  0
  187.4270  177.1740  144.2420 C   0  0  0  0  0  0  0  0  0  0  0  0
  188.6520  175.2910  143.1340 C   0  0  0  0  0  2  0  0  0  0  0  0
  186.9760  176.4740  139.3780 N   0  0  0  0  0  0  0  0  0  0  0  0
  187.8730  177.6790  146.6700 C   0  0  0  0  0  2  0  0  0  0  0  0
  186.9790  177.6540  142.9220 C   0  0  0  0  0  0  0  0  0  0  0  0
  186.9640  177.9200  145.4700 C   0  0  0  0  0  2  0  0  0  0  0  0
  188.9170  172.6230  137.1920 O   0  0  0  0  0  1  0  0  0  0  0  0
  189.5930  173.1680  139.4090 C   0  0  0  0  0  2  0  0  0  0  0  0
  187.2570  176.8560  141.7200 C   0  0  0  0  0  0  0  0  0  0  0  0
  188.0170  176.1820  146.8710 C   0  0  0  0  0  2  0  0  0  0  0  0
  188.1570  176.0390  144.3540 C   0  0  0  0  0  0  0  0  0  0  0  0
  189.6460  174.6060  145.8120 C   0  0  0  0  0  2  0  0  0  0  0  0
  190.9630  175.2970  145.9330 C   0  0  0  0  0  0  0  0  0  0  0  0
  193.4060  176.6410  146.1510 C   0  0  0  0  0  0  0  0  0  0  0  0
  191.4380  175.6870  147.1890 C   0  0  0  0  0  3  0  0  0  0  0  0
  191.7080  175.5880  144.7840 C   0  0  0  0  0  3  0  0  0  0  0  0
  192.9310  176.2570  144.8940 C   0  0  0  0  0  3  0  0  0  0  0  0
  194.6200  177.3050  146.2600 O   0  0  0  0  0  1  0  0  0  0  0  0
  192.6600  176.3570  147.3000 C   0  0  0  0  0  3  0  0  0  0  0  0
  1 21  1  0  0  0  0
  1 19  1  0  0  0  0
  3 14  2  0  0  0  0
  4  7  1  0  0  0  0
  5 11  1  0  0  0  0
  6 16  1  6  0  0  0
  6 17  1  0  0  0  0
  7  2  1  0  0  0  0
  7  5  2  0  0  0  0
  8 18  2  0  0  0  0
  9  6  1  0  0  0  0
  9  4  1  0  0  0  0
 10 20  2  0  0  0  0
 10 15  1  0  0  0  0
 11 20  1  0  0  0  0
 12  4  2  0  0  0  0
 12  8  1  0  0  0  0
 13 19  1  0  0  0  0
 14 10  1  0  0  0  0
 15 13  1  0  0  0  0
 17  2  1  0  0  0  0
 18  5  1  0  0  0  0
 18 14  1  0  0  0  0
 20  1  1  0  0  0  0
 21 22  1  0  0  0  0
 22 24  1  0  0  0  0
 23 27  1  0  0  0  0
 23 28  1  0  0  0  0
 24 28  2  0  0  0  0
 25 26  1  0  0  0  0
 25 22  2  0  0  0  0
 26 23  2  0  0  0  0
M  END
>  <MODEL>
7

>  <REMARK>
 VINA RESULT:      -7.3      2.868      5.490
  Name = 
  2 active torsions:
  status: ('A' for Active; 'I' for Inactive)
    1  A    between atoms: N_1  and  C_2
    2  A    between atoms: C_2  and  C_3
                            x       y       z     vdW  Elec       q    Type
                         _______ _______ _______ _____ _____    ______ ____

>  <TORSDO>
F 2

$$$$
=
 OpenBabel11052418123D

 28 32  0  0  1  0  0  0  0  0999 V2000
  192.4080  175.6130  143.8230 N   0  0  0  0  0  0  0  0  0  0  0  0
  187.5060  177.4630  143.0390 C   0  0  0  0  0  2  0  0  0  0  0  0
  190.8090  176.8180  148.1760 O   0  0  0  0  0  0  0  0  0  0  0  0
  186.7780  177.9140  145.4320 C   0  0  0  0  0  0  0  0  0  0  0  0
  189.0480  177.1470  145.0200 C   0  0  0  0  0  0  0  0  0  0  0  0
  185.1250  177.9720  143.5340 C   0  0  1  0  0  3  0  0  0  0  0  0
  187.7920  177.5410  144.5200 C   0  0  0  0  0  0  0  0  0  0  0  0
  188.2480  177.5630  147.2630 C   0  0  0  0  0  3  0  0  0  0  0  0
  185.4390  178.4100  144.9600 C   0  0  0  0  0  2  0  0  0  0  0  0
  191.6050  176.2030  146.0280 C   0  0  0  0  0  0  0  0  0  0  0  0
  190.1560  176.7740  144.0670 C   0  0  0  0  0  2  0  0  0  0  0  0
  187.0400  177.9280  146.7650 N   0  0  0  0  0  0  0  0  0  0  0  0
  194.0150  175.5770  145.6440 C   0  0  0  0  0  2  0  0  0  0  0  0
  190.5790  176.7420  146.9390 C   0  0  0  0  0  0  0  0  0  0  0  0
  192.8540  175.6070  146.6310 C   0  0  0  0  0  2  0  0  0  0  0  0
  183.9880  178.6390  143.0830 O   0  0  0  0  0  1  0  0  0  0  0  0
  186.3010  178.3050  142.6300 C   0  0  0  0  0  2  0  0  0  0  0  0
  189.2770  177.1660  146.4040 C   0  0  0  0  0  0  0  0  0  0  0  0
  193.5490  174.8890  144.3750 C   0  0  0  0  0  2  0  0  0  0  0  0
  191.3910  176.1590  144.6920 C   0  0  0  0  0  0  0  0  0  0  0  0
  192.3930  175.8750  142.3880 C   0  0  0  0  0  2  0  0  0  0  0  0
  191.9930  174.6480  141.6410 C   0  0  0  0  0  0  0  0  0  0  0  0
  191.2580  172.3150  140.2840 C   0  0  0  0  0  0  0  0  0  0  0  0
  190.6820  174.1660  141.7330 C   0  0  0  0  0  3  0  0  0  0  0  0
  192.9380  173.9550  140.8740 C   0  0  0  0  0  3  0  0  0  0  0  0
  192.5690  172.7910  140.1940 C   0  0  0  0  0  3  0  0  0  0  0  0
  190.8920  171.1590  139.6080 O   0  0  0  0  0  1  0  0  0  0  0  0
  190.3140  173.0020  141.0540 C   0  0  0  0  0  3  0  0  0  0  0  0
  1 19  1  0  0  0  0
  1 20  1  0  0  0  0
  2  7  1  0  0  0  0
  4 12  1  0  0  0  0
  5 18  2  0  0  0  0
  6 16  1  6  0  0  0
  6  9  1  0  0  0  0
  7  5  1  0  0  0  0
  7  4  2  0  0  0  0
  9  4  1  0  0  0  0
 10 15  1  0  0  0  0
 10 14  1  0  0  0  0
 11 20  1  0  0  0  0
 11  5  1  0  0  0  0
 12  8  2  0  0  0  0
 13 15  1  0  0  0  0
 14  3  2  0  0  0  0
 17  2  1  0  0  0  0
 17  6  1  0  0  0  0
 18 14  1  0  0  0  0
 18  8  1  0  0  0  0
 19 13  1  0  0  0  0
 20 10  2  0  0  0  0
 21  1  1  0  0  0  0
 22 24  1  0  0  0  0
 22 21  1  0  0  0  0
 23 28  1  0  0  0  0
 25 22  2  0  0  0  0
 26 23  2  0  0  0  0
 26 25  1  0  0  0  0
 27 23  1  0  0  0  0
 28 24  2  0  0  0  0
M  END
>  <MODEL>
8

>  <REMARK>
 VINA RESULT:      -7.3      1.813      2.780
  Name = 
  2 active torsions:
  status: ('A' for Active; 'I' for Inactive)
    1  A    between atoms: N_1  and  C_2
    2  A    between atoms: C_2  and  C_3
                            x       y       z     vdW  Elec       q    Type
                         _______ _______ _______ _____ _____    ______ ____

>  <TORSDO>
F 2

$$$$
=
 OpenBabel11052418123D

 28 32  0  0  1  0  0  0  0  0999 V2000
  189.2970  177.0960  143.7510 N   0  0  0  0  0  0  0  0  0  0  0  0
  188.9270  174.0450  139.4360 C   0  0  0  0  0  2  0  0  0  0  0  0
  192.0650  173.2920  144.6620 O   0  0  0  0  0  0  0  0  0  0  0  0
  190.5420  172.1760  140.0340 C   0  0  0  0  0  0  0  0  0  0  0  0
  190.1050  173.9180  141.6720 C   0  0  0  0  0  0  0  0  0  0  0  0
  189.6210  172.4060  137.7020 C   0  0  1  0  0  3  0  0  0  0  0  0
  189.8490  173.3490  140.4090 C   0  0  0  0  0  0  0  0  0  0  0  0
  191.6560  172.1220  142.1300 C   0  0  0  0  0  3  0  0  0  0  0  0
  190.2640  171.4810  138.7290 C   0  0  0  0  0  2  0  0  0  0  0  0
  190.7100  175.1870  144.2150 C   0  0  0  0  0  0  0  0  0  0  0  0
  189.3560  175.1530  142.1090 C   0  0  0  0  0  2  0  0  0  0  0  0
  191.4060  171.5930  140.9050 N   0  0  0  0  0  0  0  0  0  0  0  0
  190.1620  176.8700  146.0090 C   0  0  0  0  0  2  0  0  0  0  0  0
  191.2990  173.8850  143.8540 C   0  0  0  0  0  0  0  0  0  0  0  0
  191.1720  175.8520  145.4900 C   0  0  0  0  0  2  0  0  0  0  0  0
  189.1910  171.6570  136.6080 O   0  0  0  0  0  1  0  0  0  0  0  0
  188.4330  173.1150  138.3310 C   0  0  0  0  0  2  0  0  0  0  0  0
  191.0130  173.2920  142.5400 C   0  0  0  0  0  0  0  0  0  0  0  0
  189.8350  177.8370  144.8880 C   0  0  0  0  0  2  0  0  0  0  0  0
  189.8500  175.8140  143.3780 C   0  0  0  0  0  0  0  0  0  0  0  0
  188.1120  177.6280  143.0860 C   0  0  0  0  0  2  0  0  0  0  0  0
  186.9990  177.7950  144.0660 C   0  0  0  0  0  0  0  0  0  0  0  0
  184.8760  178.0930  145.8630 C   0  0  0  0  0  0  0  0  0  0  0  0
  186.5940  176.7150  144.8580 C   0  0  0  0  0  3  0  0  0  0  0  0
  186.3340  179.0220  144.1680 C   0  0  0  0  0  3  0  0  0  0  0  0
  185.2750  179.1710  145.0680 C   0  0  0  0  0  3  0  0  0  0  0  0
  183.8250  178.2410  146.7570 O   0  0  0  0  0  1  0  0  0  0  0  0
  185.5350  176.8630  145.7580 C   0  0  0  0  0  3  0  0  0  0  0  0
  1 19  1  0  0  0  0
  2  7  1  0  0  0  0
  4  7  2  0  0  0  0
  4 12  1  0  0  0  0
  5 11  1  0  0  0  0
  5 18  2  0  0  0  0
  6 16  1  6  0  0  0
  6 17  1  0  0  0  0
  6  9  1  0  0  0  0
  7  5  1  0  0  0  0
  8 18  1  0  0  0  0
  9  4  1  0  0  0  0
 10 15  1  0  0  0  0
 11 20  1  0  0  0  0
 12  8  2  0  0  0  0
 14 10  1  0  0  0  0
 14  3  2  0  0  0  0
 15 13  1  0  0  0  0
 17  2  1  0  0  0  0
 18 14  1  0  0  0  0
 19 13  1  0  0  0  0
 20  1  1  0  0  0  0
 20 10  2  0  0  0  0
 21  1  1  0  0  0  0
 21 22  1  0  0  0  0
 22 25  2  0  0  0  0
 22 24  1  0  0  0  0
 23 27  1  0  0  0  0
 24 28  2  0  0  0  0
 25 26  1  0  0  0  0
 26 23  2  0  0  0  0
 28 23  1  0  0  0  0
M  END
>  <MODEL>
9

>  <REMARK>
 VINA RESULT:      -7.3      2.611      7.189
  Name = 
  2 active torsions:
  status: ('A' for Active; 'I' for Inactive)
    1  A    between atoms: N_1  and  C_2
    2  A    between atoms: C_2  and  C_3
                            x       y       z     vdW  Elec       q    Type
                         _______ _______ _______ _____ _____    ______ ____

>  <TORSDO>
F 2

$$$$
