=
 OpenBabel11052417333D

 25 29  0  0  1  0  0  0  0  0999 V2000
  185.7160  177.9170  143.6940 C   0  0  0  0  0  0  0  0  0  0  0  0
  186.5160  177.7290  144.8320 C   0  0  0  0  0  0  0  0  0  0  0  0
  183.9100  178.6710  145.0720 N   0  0  0  0  0  0  0  0  0  0  0  0
  186.0260  177.6940  142.3410 C   0  0  0  0  0  0  0  0  0  0  0  0
  186.2660  177.3810  139.5750 C   0  0  0  0  0  3  0  0  0  0  0  0
  184.6600  178.4900  146.1640 N   0  0  0  0  0  0  0  0  0  0  0  0
  184.9640  178.0020  141.4910 C   0  0  0  0  0  0  0  0  0  0  0  0
  185.0590  177.8540  140.1090 C   0  0  0  0  0  3  0  0  0  0  0  0
  186.7400  177.8540  147.3210 C   0  0  0  0  0  0  0  0  0  0  0  0
  186.2400  178.1270  148.4440 O   0  0  0  0  0  0  0  0  0  0  0  0
  187.9090  177.1650  144.7430 C   0  0  0  0  0  2  0  0  0  0  0  0
  187.3450  177.0670  140.4210 C   0  0  0  0  0  3  0  0  0  0  0  0
  184.4240  178.3920  143.8520 C   0  0  0  0  0  0  0  0  0  0  0  0
  183.6330  178.5500  142.3720 S   0  0  0  0  0  0  0  0  0  0  0  0
  188.7790  177.6490  145.9050 C   0  0  1  0  0  3  0  0  0  0  0  0
  187.2320  177.2230  141.8110 C   0  0  0  0  0  3  0  0  0  0  0  0
  188.1340  177.3080  147.2490 C   0  0  0  0  0  2  0  0  0  0  0  0
  185.9430  178.0220  146.0910 C   0  0  0  0  0  0  0  0  0  0  0  0
  192.1650  176.5720  144.5410 C   0  0  0  0  0  0  0  0  0  0  0  0
  190.1600  177.0810  145.8110 C   0  0  0  0  0  0  0  0  0  0  0  0
  190.8750  177.1060  144.6030 C   0  0  0  0  0  3  0  0  0  0  0  0
  192.8710  176.5990  143.3460 O   0  0  0  0  0  1  0  0  0  0  0  0
  190.7440  176.5170  146.9490 C   0  0  0  0  0  3  0  0  0  0  0  0
  192.7450  176.0090  145.6820 C   0  0  0  0  0  3  0  0  0  0  0  0
  192.0340  175.9820  146.8860 C   0  0  0  0  0  3  0  0  0  0  0  0
  1 13  1  0  0  0  0
  1  2  2  0  0  0  0
  2 18  1  0  0  0  0
  3  6  1  0  0  0  0
  4  1  1  0  0  0  0
  5  8  2  0  0  0  0
  5 12  1  0  0  0  0
  7  4  2  0  0  0  0
  7 14  1  0  0  0  0
  8  7  1  0  0  0  0
  9 10  2  0  0  0  0
 11  2  1  0  0  0  0
 11 15  1  0  0  0  0
 12 16  2  0  0  0  0
 13  3  2  0  0  0  0
 14 13  1  0  0  0  0
 15 20  1  1  0  0  0
 15 17  1  0  0  0  0
 16  4  1  0  0  0  0
 17  9  1  0  0  0  0
 18  6  2  0  0  0  0
 18  9  1  0  0  0  0
 19 21  2  0  0  0  0
 19 24  1  0  0  0  0
 20 23  2  0  0  0  0
 21 20  1  0  0  0  0
 22 19  1  0  0  0  0
 24 25  2  0  0  0  0
 25 23  1  0  0  0  0
M  END
>  <MODEL>
1

>  <REMARK>
 VINA RESULT:      -8.3      0.000      0.000
  Name = 
  1 active torsions:
  status: ('A' for Active; 'I' for Inactive)
    1  A    between atoms: C_6  and  C_20
                            x       y       z     vdW  Elec       q    Type
                         _______ _______ _______ _____ _____    ______ ____

>  <TORSDO>
F 1

$$$$
=
 OpenBabel11052417333D

 25 29  0  0  1  0  0  0  0  0999 V2000
  190.4330  174.3340  144.1770 C   0  0  0  0  0  0  0  0  0  0  0  0
  189.9870  175.3070  145.0840 C   0  0  0  0  0  0  0  0  0  0  0  0
  192.4140  174.0080  145.4800 N   0  0  0  0  0  0  0  0  0  0  0  0
  189.8180  173.8620  143.0040 C   0  0  0  0  0  0  0  0  0  0  0  0
  188.9160  172.6780  140.6390 C   0  0  0  0  0  3  0  0  0  0  0  0
  192.0030  174.9380  146.3470 N   0  0  0  0  0  0  0  0  0  0  0  0
  190.5730  172.8800  142.3620 C   0  0  0  0  0  0  0  0  0  0  0  0
  190.1450  172.2750  141.1830 C   0  0  0  0  0  3  0  0  0  0  0  0
  190.3990  176.6120  147.1790 C   0  0  0  0  0  0  0  0  0  0  0  0
  191.1300  176.8720  148.1720 O   0  0  0  0  0  0  0  0  0  0  0  0
  188.7090  176.0720  144.8690 C   0  0  0  0  0  2  0  0  0  0  0  0
  188.1450  173.6660  141.2770 C   0  0  0  0  0  3  0  0  0  0  0  0
  191.6460  173.7040  144.4080 C   0  0  0  0  0  0  0  0  0  0  0  0
  191.9990  172.5730  143.2100 S   0  0  0  0  0  0  0  0  0  0  0  0
  188.1110  176.5390  146.1980 C   0  0  1  0  0  3  0  0  0  0  0  0
  188.5910  174.2640  142.4660 C   0  0  0  0  0  3  0  0  0  0  0  0
  189.1210  177.3710  146.9890 C   0  0  0  0  0  2  0  0  0  0  0  0
  190.8210  175.6060  146.1870 C   0  0  0  0  0  0  0  0  0  0  0  0
  185.5740  179.0280  144.8360 C   0  0  0  0  0  0  0  0  0  0  0  0
  186.8430  177.3000  145.9750 C   0  0  0  0  0  0  0  0  0  0  0  0
  186.7710  178.3340  145.0280 C   0  0  0  0  0  3  0  0  0  0  0  0
  185.5050  180.0490  143.8990 O   0  0  0  0  0  1  0  0  0  0  0  0
  185.7090  176.9710  146.7260 C   0  0  0  0  0  3  0  0  0  0  0  0
  184.4430  178.6960  145.5900 C   0  0  0  0  0  3  0  0  0  0  0  0
  184.5120  177.6670  146.5350 C   0  0  0  0  0  3  0  0  0  0  0  0
  1 13  1  0  0  0  0
  1  2  2  0  0  0  0
  2 18  1  0  0  0  0
  3  6  1  0  0  0  0
  4  1  1  0  0  0  0
  5  8  2  0  0  0  0
  5 12  1  0  0  0  0
  7  4  2  0  0  0  0
  7 14  1  0  0  0  0
  8  7  1  0  0  0  0
  9 10  2  0  0  0  0
 11  2  1  0  0  0  0
 11 15  1  0  0  0  0
 12 16  2  0  0  0  0
 13  3  2  0  0  0  0
 14 13  1  0  0  0  0
 15 20  1  6  0  0  0
 15 17  1  0  0  0  0
 16  4  1  0  0  0  0
 17  9  1  0  0  0  0
 18  6  2  0  0  0  0
 18  9  1  0  0  0  0
 19 21  2  0  0  0  0
 19 24  1  0  0  0  0
 20 23  2  0  0  0  0
 21 20  1  0  0  0  0
 22 19  1  0  0  0  0
 24 25  2  0  0  0  0
 25 23  1  0  0  0  0
M  END
>  <MODEL>
2

>  <REMARK>
 VINA RESULT:      -8.2      4.260      6.252
  Name = 
  1 active torsions:
  status: ('A' for Active; 'I' for Inactive)
    1  A    between atoms: C_6  and  C_20
                            x       y       z     vdW  Elec       q    Type
                         _______ _______ _______ _____ _____    ______ ____

>  <TORSDO>
F 1

$$$$
=
 OpenBabel11052417333D

 25 29  0  0  1  0  0  0  0  0999 V2000
  186.1090  177.5130  143.6910 C   0  0  0  0  0  0  0  0  0  0  0  0
  186.8520  176.7050  142.8170 C   0  0  0  0  0  0  0  0  0  0  0  0
  185.0790  178.6050  141.8270 N   0  0  0  0  0  0  0  0  0  0  0  0
  186.1030  177.5330  145.0970 C   0  0  0  0  0  0  0  0  0  0  0  0
  185.8120  177.8650  147.8560 C   0  0  0  0  0  3  0  0  0  0  0  0
  185.7870  177.8460  140.9840 N   0  0  0  0  0  0  0  0  0  0  0  0
  185.2210  178.4820  145.6150 C   0  0  0  0  0  0  0  0  0  0  0  0
  185.0590  178.6660  146.9860 C   0  0  0  0  0  3  0  0  0  0  0  0
  187.4210  176.0780  140.4630 C   0  0  0  0  0  0  0  0  0  0  0  0
  187.2560  176.2420  139.2250 O   0  0  0  0  0  0  0  0  0  0  0  0
  187.8640  175.7090  143.3180 C   0  0  0  0  0  2  0  0  0  0  0  0
  186.7040  176.9040  147.3470 C   0  0  0  0  0  3  0  0  0  0  0  0
  185.2320  178.4460  143.1620 C   0  0  0  0  0  0  0  0  0  0  0  0
  184.4370  179.3100  144.3720 S   0  0  0  0  0  0  0  0  0  0  0  0
  188.0390  174.5520  142.3310 C   0  0  1  0  0  3  0  0  0  0  0  0
  186.8540  176.7310  145.9620 C   0  0  0  0  0  3  0  0  0  0  0  0
  188.4200  175.0700  140.9440 C   0  0  0  0  0  2  0  0  0  0  0  0
  186.6740  176.9060  141.4290 C   0  0  0  0  0  0  0  0  0  0  0  0
  190.2430  171.4640  142.6440 C   0  0  0  0  0  0  0  0  0  0  0  0
  189.0480  173.5690  142.8350 C   0  0  0  0  0  0  0  0  0  0  0  0
  189.2940  172.3660  142.1550 C   0  0  0  0  0  3  0  0  0  0  0  0
  190.4850  170.2760  141.9690 O   0  0  0  0  0  1  0  0  0  0  0  0
  189.7560  173.8580  144.0060 C   0  0  0  0  0  3  0  0  0  0  0  0
  190.9480  171.7580  143.8160 C   0  0  0  0  0  3  0  0  0  0  0  0
  190.7040  172.9560  144.4960 C   0  0  0  0  0  3  0  0  0  0  0  0
  1  4  1  0  0  0  0
  2 11  1  0  0  0  0
  2  1  1  0  0  0  0
  3 13  1  0  0  0  0
  4  7  2  0  0  0  0
  4 16  1  0  0  0  0
  6 18  1  0  0  0  0
  6  3  2  0  0  0  0
  7  8  1  0  0  0  0
  8  5  2  0  0  0  0
  9 17  1  0  0  0  0
  9 18  1  0  0  0  0
 10  9  2  0  0  0  0
 12  5  1  0  0  0  0
 13  1  2  0  0  0  0
 13 14  1  0  0  0  0
 14  7  1  0  0  0  0
 15 20  1  1  0  0  0
 15 11  1  0  0  0  0
 16 12  2  0  0  0  0
 17 15  1  0  0  0  0
 18  2  2  0  0  0  0
 19 24  1  0  0  0  0
 20 23  2  0  0  0  0
 21 19  2  0  0  0  0
 21 20  1  0  0  0  0
 22 19  1  0  0  0  0
 23 25  1  0  0  0  0
 24 25  2  0  0  0  0
M  END
>  <MODEL>
3

>  <REMARK>
 VINA RESULT:      -8.1      3.432      5.247
  Name = 
  1 active torsions:
  status: ('A' for Active; 'I' for Inactive)
    1  A    between atoms: C_6  and  C_20
                            x       y       z     vdW  Elec       q    Type
                         _______ _______ _______ _____ _____    ______ ____

>  <TORSDO>
F 1

$$$$
=
 OpenBabel11052417333D

 25 29  0  0  1  0  0  0  0  0999 V2000
  191.5240  175.2360  143.5840 C   0  0  0  0  0  0  0  0  0  0  0  0
  190.1810  175.4850  143.2620 C   0  0  0  0  0  0  0  0  0  0  0  0
  191.8200  174.0770  141.5100 N   0  0  0  0  0  0  0  0  0  0  0  0
  192.2470  175.6040  144.7320 C   0  0  0  0  0  0  0  0  0  0  0  0
  194.0000  176.1520  146.8380 C   0  0  0  0  0  3  0  0  0  0  0  0
  190.5400  174.3020  141.1960 N   0  0  0  0  0  0  0  0  0  0  0  0
  193.5740  175.1760  144.6880 C   0  0  0  0  0  0  0  0  0  0  0  0
  194.4670  175.4370  145.7250 C   0  0  0  0  0  3  0  0  0  0  0  0
  188.2980  175.2220  141.6350 C   0  0  0  0  0  0  0  0  0  0  0  0
  187.8660  174.7910  140.5330 O   0  0  0  0  0  0  0  0  0  0  0  0
  189.2500  176.1900  144.2120 C   0  0  0  0  0  2  0  0  0  0  0  0
  192.6640  176.5900  146.8940 C   0  0  0  0  0  3  0  0  0  0  0  0
  192.3120  174.5350  142.6850 C   0  0  0  0  0  0  0  0  0  0  0  0
  193.8870  174.3450  143.2540 S   0  0  0  0  0  0  0  0  0  0  0  0
  188.1290  176.9100  143.4590 C   0  0  1  0  0  3  0  0  0  0  0  0
  191.7790  176.3190  145.8390 C   0  0  0  0  0  3  0  0  0  0  0  0
  187.3620  175.9370  142.5610 C   0  0  0  0  0  2  0  0  0  0  0  0
  189.6980  174.9830  142.0310 C   0  0  0  0  0  0  0  0  0  0  0  0
  186.2380  177.8680  146.6200 C   0  0  0  0  0  0  0  0  0  0  0  0
  187.2080  177.6060  144.4100 C   0  0  0  0  0  0  0  0  0  0  0  0
  187.1040  177.2000  145.7500 C   0  0  0  0  0  3  0  0  0  0  0  0
  186.1370  177.4660  147.9450 O   0  0  0  0  0  1  0  0  0  0  0  0
  186.4400  178.6810  143.9520 C   0  0  0  0  0  3  0  0  0  0  0  0
  185.4710  178.9420  146.1560 C   0  0  0  0  0  3  0  0  0  0  0  0
  185.5730  179.3480  144.8220 C   0  0  0  0  0  3  0  0  0  0  0  0
  1  4  1  0  0  0  0
  2  1  1  0  0  0  0
  2 11  1  0  0  0  0
  3 13  1  0  0  0  0
  4 16  1  0  0  0  0
  5 12  1  0  0  0  0
  6  3  2  0  0  0  0
  6 18  1  0  0  0  0
  7  4  2  0  0  0  0
  7  8  1  0  0  0  0
  8  5  2  0  0  0  0
  9 18  1  0  0  0  0
  9 17  1  0  0  0  0
 10  9  2  0  0  0  0
 13 14  1  0  0  0  0
 13  1  2  0  0  0  0
 14  7  1  0  0  0  0
 15 11  1  0  0  0  0
 15 20  1  1  0  0  0
 16 12  2  0  0  0  0
 17 15  1  0  0  0  0
 18  2  2  0  0  0  0
 19 22  1  0  0  0  0
 20 21  1  0  0  0  0
 21 19  2  0  0  0  0
 23 20  2  0  0  0  0
 23 25  1  0  0  0  0
 24 19  1  0  0  0  0
 25 24  2  0  0  0  0
M  END
>  <MODEL>
4

>  <REMARK>
 VINA RESULT:      -7.7      3.940      7.496
  Name = 
  1 active torsions:
  status: ('A' for Active; 'I' for Inactive)
    1  A    between atoms: C_6  and  C_20
                            x       y       z     vdW  Elec       q    Type
                         _______ _______ _______ _____ _____    ______ ____

>  <TORSDO>
F 1

$$$$
=
 OpenBabel11052417333D

 25 29  0  0  1  0  0  0  0  0999 V2000
  190.5980  175.5750  144.2850 C   0  0  0  0  0  0  0  0  0  0  0  0
  189.4730  175.7260  143.4600 C   0  0  0  0  0  0  0  0  0  0  0  0
  191.6880  174.2880  142.5860 N   0  0  0  0  0  0  0  0  0  0  0  0
  190.8210  176.0630  145.5840 C   0  0  0  0  0  0  0  0  0  0  0  0
  191.6280  176.8570  148.1390 C   0  0  0  0  0  3  0  0  0  0  0  0
  190.6190  174.4190  141.7940 N   0  0  0  0  0  0  0  0  0  0  0  0
  192.0740  175.7070  146.0810 C   0  0  0  0  0  0  0  0  0  0  0  0
  192.4990  176.0900  147.3510 C   0  0  0  0  0  3  0  0  0  0  0  0
  188.3570  175.2440  141.2720 C   0  0  0  0  0  0  0  0  0  0  0  0
  188.3870  174.7120  140.1310 O   0  0  0  0  0  0  0  0  0  0  0  0
  188.2350  176.4460  143.9230 C   0  0  0  0  0  2  0  0  0  0  0  0
  190.3620  177.2240  147.6490 C   0  0  0  0  0  3  0  0  0  0  0  0
  191.6850  174.8560  143.8140 C   0  0  0  0  0  0  0  0  0  0  0  0
  192.9290  174.7930  144.9500 S   0  0  0  0  0  0  0  0  0  0  0  0
  187.4680  177.0470  142.7430 C   0  0  1  0  0  3  0  0  0  0  0  0
  189.9510  176.8300  146.3660 C   0  0  0  0  0  3  0  0  0  0  0  0
  187.1230  175.9720  141.7110 C   0  0  0  0  0  2  0  0  0  0  0  0
  189.5070  175.1110  142.1870 C   0  0  0  0  0  0  0  0  0  0  0  0
  183.9150  178.4010  142.9240 C   0  0  0  0  0  0  0  0  0  0  0  0
  186.2390  177.7590  143.2120 C   0  0  0  0  0  0  0  0  0  0  0  0
  185.0510  177.7300  142.4630 C   0  0  0  0  0  3  0  0  0  0  0  0
  182.7420  178.3700  142.1830 O   0  0  0  0  0  1  0  0  0  0  0  0
  186.2780  178.4640  144.4190 C   0  0  0  0  0  3  0  0  0  0  0  0
  183.9600  179.1050  144.1320 C   0  0  0  0  0  3  0  0  0  0  0  0
  185.1410  179.1360  144.8790 C   0  0  0  0  0  3  0  0  0  0  0  0
  1  4  1  0  0  0  0
  2 11  1  0  0  0  0
  2  1  1  0  0  0  0
  3 13  1  0  0  0  0
  4  7  2  0  0  0  0
  4 16  1  0  0  0  0
  6 18  1  0  0  0  0
  6  3  2  0  0  0  0
  7  8  1  0  0  0  0
  8  5  2  0  0  0  0
  9 17  1  0  0  0  0
  9 18  1  0  0  0  0
 10  9  2  0  0  0  0
 12  5  1  0  0  0  0
 13  1  2  0  0  0  0
 13 14  1  0  0  0  0
 14  7  1  0  0  0  0
 15 20  1  1  0  0  0
 15 11  1  0  0  0  0
 16 12  2  0  0  0  0
 17 15  1  0  0  0  0
 18  2  2  0  0  0  0
 19 24  1  0  0  0  0
 20 23  2  0  0  0  0
 21 19  2  0  0  0  0
 21 20  1  0  0  0  0
 22 19  1  0  0  0  0
 23 25  1  0  0  0  0
 24 25  2  0  0  0  0
M  END
>  <MODEL>
5

>  <REMARK>
 VINA RESULT:      -7.7      3.933      7.557
  Name = 
  1 active torsions:
  status: ('A' for Active; 'I' for Inactive)
    1  A    between atoms: C_6  and  C_20
                            x       y       z     vdW  Elec       q    Type
                         _______ _______ _______ _____ _____    ______ ____

>  <TORSDO>
F 1

$$$$
=
 OpenBabel11052417333D

 25 29  0  0  1  0  0  0  0  0999 V2000
  187.9100  177.5450  144.6210 C   0  0  0  0  0  0  0  0  0  0  0  0
  189.1650  177.1530  145.1110 C   0  0  0  0  0  0  0  0  0  0  0  0
  187.1370  177.9160  146.8560 N   0  0  0  0  0  0  0  0  0  0  0  0
  187.4590  177.6250  143.2920 C   0  0  0  0  0  0  0  0  0  0  0  0
  186.2130  177.9150  140.8070 C   0  0  0  0  0  3  0  0  0  0  0  0
  188.3270  177.5380  147.3360 N   0  0  0  0  0  0  0  0  0  0  0  0
  186.1380  178.0630  143.2010 C   0  0  0  0  0  0  0  0  0  0  0  0
  185.4950  178.2150  141.9740 C   0  0  0  0  0  3  0  0  0  0  0  0
  190.6490  176.7570  147.0860 C   0  0  0  0  0  0  0  0  0  0  0  0
  190.8240  176.7650  148.3340 O   0  0  0  0  0  0  0  0  0  0  0  0
  190.2650  176.6770  144.2000 C   0  0  0  0  0  2  0  0  0  0  0  0
  187.5470  177.4740  140.8850 C   0  0  0  0  0  3  0  0  0  0  0  0
  186.9250  177.9220  145.5200 C   0  0  0  0  0  0  0  0  0  0  0  0
  185.4980  178.3570  144.7340 S   0  0  0  0  0  0  0  0  0  0  0  0
  191.6430  176.9400  144.8100 C   0  0  1  0  0  3  0  0  0  0  0  0
  188.1790  177.3280  142.1300 C   0  0  0  0  0  3  0  0  0  0  0  0
  191.7610  176.2970  146.1920 C   0  0  0  0  0  2  0  0  0  0  0  0
  189.3480  177.1490  146.5130 C   0  0  0  0  0  0  0  0  0  0  0  0
  195.0670  175.9850  143.4470 C   0  0  0  0  0  0  0  0  0  0  0  0
  192.7300  176.4620  143.8990 C   0  0  0  0  0  0  0  0  0  0  0  0
  194.0700  176.4380  144.3160 C   0  0  0  0  0  3  0  0  0  0  0  0
  196.3910  175.9610  143.8620 O   0  0  0  0  0  1  0  0  0  0  0  0
  192.3990  176.0330  142.6100 C   0  0  0  0  0  3  0  0  0  0  0  0
  194.7300  175.5570  142.1590 C   0  0  0  0  0  3  0  0  0  0  0  0
  193.3960  175.5810  141.7410 C   0  0  0  0  0  3  0  0  0  0  0  0
  1  2  2  0  0  0  0
  1 13  1  0  0  0  0
  2 18  1  0  0  0  0
  3  6  1  0  0  0  0
  4  1  1  0  0  0  0
  5 12  2  0  0  0  0
  5  8  1  0  0  0  0
  7  4  1  0  0  0  0
  7 14  1  0  0  0  0
  8  7  2  0  0  0  0
  9 10  2  0  0  0  0
 11 15  1  0  0  0  0
 11  2  1  0  0  0  0
 12 16  1  0  0  0  0
 13  3  2  0  0  0  0
 14 13  1  0  0  0  0
 15 20  1  6  0  0  0
 15 17  1  0  0  0  0
 16  4  2  0  0  0  0
 17  9  1  0  0  0  0
 18  9  1  0  0  0  0
 18  6  2  0  0  0  0
 19 22  1  0  0  0  0
 19 21  1  0  0  0  0
 20 21  2  0  0  0  0
 23 20  1  0  0  0  0
 24 19  2  0  0  0  0
 25 24  1  0  0  0  0
 25 23  2  0  0  0  0
M  END
>  <MODEL>
6

>  <REMARK>
 VINA RESULT:      -7.5      2.202      3.288
  Name = 
  1 active torsions:
  status: ('A' for Active; 'I' for Inactive)
    1  A    between atoms: C_6  and  C_20
                            x       y       z     vdW  Elec       q    Type
                         _______ _______ _______ _____ _____    ______ ____

>  <TORSDO>
F 1

$$$$
=
 OpenBabel11052417333D

 25 29  0  0  1  0  0  0  0  0999 V2000
  191.2530  176.6540  145.3780 C   0  0  0  0  0  0  0  0  0  0  0  0
  189.9060  177.0410  145.3010 C   0  0  0  0  0  0  0  0  0  0  0  0
  191.1390  176.6810  147.7680 N   0  0  0  0  0  0  0  0  0  0  0  0
  192.1650  176.3960  144.3400 C   0  0  0  0  0  0  0  0  0  0  0  0
  194.2440  175.8000  142.5700 C   0  0  0  0  0  3  0  0  0  0  0  0
  189.8580  177.0560  147.7090 N   0  0  0  0  0  0  0  0  0  0  0  0
  193.4250  176.0300  144.8130 C   0  0  0  0  0  0  0  0  0  0  0  0
  194.4770  175.7280  143.9510 C   0  0  0  0  0  3  0  0  0  0  0  0
  187.7950  177.6480  146.5000 C   0  0  0  0  0  0  0  0  0  0  0  0
  187.1700  177.8220  147.5790 O   0  0  0  0  0  0  0  0  0  0  0  0
  189.2240  177.3020  143.9850 C   0  0  0  0  0  2  0  0  0  0  0  0
  192.9780  176.1670  142.0790 C   0  0  0  0  0  3  0  0  0  0  0  0
  191.8330  176.4810  146.6240 C   0  0  0  0  0  0  0  0  0  0  0  0
  193.4490  176.0160  146.5000 S   0  0  0  0  0  0  0  0  0  0  0  0
  187.7170  177.0550  144.0820 C   0  0  1  0  0  3  0  0  0  0  0  0
  191.9290  176.4660  142.9630 C   0  0  0  0  0  3  0  0  0  0  0  0
  187.0960  177.8960  145.1980 C   0  0  0  0  0  2  0  0  0  0  0  0
  189.2150  177.2510  146.5170 C   0  0  0  0  0  0  0  0  0  0  0  0
  185.0890  177.9210  141.4680 C   0  0  0  0  0  0  0  0  0  0  0  0
  187.0480  177.3190  142.7710 C   0  0  0  0  0  0  0  0  0  0  0  0
  185.6920  177.6770  142.7050 C   0  0  0  0  0  3  0  0  0  0  0  0
  183.7490  178.2760  141.4060 O   0  0  0  0  0  1  0  0  0  0  0  0
  187.7900  177.2060  141.5910 C   0  0  0  0  0  3  0  0  0  0  0  0
  185.8370  177.8060  140.2910 C   0  0  0  0  0  3  0  0  0  0  0  0
  187.1870  177.4490  140.3530 C   0  0  0  0  0  3  0  0  0  0  0  0
  1 13  1  0  0  0  0
  2  1  2  0  0  0  0
  2 18  1  0  0  0  0
  4  7  1  0  0  0  0
  4  1  1  0  0  0  0
  5  8  1  0  0  0  0
  6  3  1  0  0  0  0
  7 14  1  0  0  0  0
  8  7  2  0  0  0  0
  9 18  1  0  0  0  0
  9 10  2  0  0  0  0
 11 15  1  0  0  0  0
 11  2  1  0  0  0  0
 12  5  2  0  0  0  0
 12 16  1  0  0  0  0
 13  3  2  0  0  0  0
 14 13  1  0  0  0  0
 15 20  1  6  0  0  0
 15 17  1  0  0  0  0
 16  4  2  0  0  0  0
 17  9  1  0  0  0  0
 18  6  2  0  0  0  0
 19 21  1  0  0  0  0
 21 20  2  0  0  0  0
 22 19  1  0  0  0  0
 23 20  1  0  0  0  0
 24 25  1  0  0  0  0
 24 19  2  0  0  0  0
 25 23  2  0  0  0  0
M  END
>  <MODEL>
7

>  <REMARK>
 VINA RESULT:      -7.5      3.412      6.680
  Name = 
  1 active torsions:
  status: ('A' for Active; 'I' for Inactive)
    1  A    between atoms: C_6  and  C_20
                            x       y       z     vdW  Elec       q    Type
                         _______ _______ _______ _____ _____    ______ ____

>  <TORSDO>
F 1

$$$$
=
 OpenBabel11052417333D

 25 29  0  0  1  0  0  0  0  0999 V2000
  186.6420  177.3500  144.1150 C   0  0  0  0  0  0  0  0  0  0  0  0
  187.5700  176.5560  143.4220 C   0  0  0  0  0  0  0  0  0  0  0  0
  185.3270  177.5700  142.1270 N   0  0  0  0  0  0  0  0  0  0  0  0
  186.6480  177.7580  145.4600 C   0  0  0  0  0  0  0  0  0  0  0  0
  186.3120  178.7560  148.0480 C   0  0  0  0  0  3  0  0  0  0  0  0
  186.2070  176.8200  141.4550 N   0  0  0  0  0  0  0  0  0  0  0  0
  185.5450  178.5470  145.7840 C   0  0  0  0  0  0  0  0  0  0  0  0
  185.3550  179.0560  147.0670 C   0  0  0  0  0  3  0  0  0  0  0  0
  188.2600  175.4720  141.2760 C   0  0  0  0  0  0  0  0  0  0  0  0
  188.0410  175.2350  140.0580 O   0  0  0  0  0  0  0  0  0  0  0  0
  188.8240  176.0410  144.0770 C   0  0  0  0  0  2  0  0  0  0  0  0
  187.4290  177.9610  147.7340 C   0  0  0  0  0  3  0  0  0  0  0  0
  185.5340  177.8350  143.4370 C   0  0  0  0  0  0  0  0  0  0  0  0
  184.5460  178.7600  144.4420 S   0  0  0  0  0  0  0  0  0  0  0  0
  189.3010  174.7440  143.4190 C   0  0  1  0  0  3  0  0  0  0  0  0
  187.6030  177.4550  146.4360 C   0  0  0  0  0  3  0  0  0  0  0  0
  189.5050  174.9370  141.9160 C   0  0  0  0  0  2  0  0  0  0  0  0
  187.3260  176.3080  142.0520 C   0  0  0  0  0  0  0  0  0  0  0  0
  192.4420  174.5520  145.5600 C   0  0  0  0  0  0  0  0  0  0  0  0
  190.5480  174.2410  144.0730 C   0  0  0  0  0  0  0  0  0  0  0  0
  191.2800  175.0460  144.9590 C   0  0  0  0  0  3  0  0  0  0  0  0
  193.1630  175.3500  146.4370 O   0  0  0  0  0  1  0  0  0  0  0  0
  190.9890  172.9430  143.7930 C   0  0  0  0  0  3  0  0  0  0  0  0
  192.8780  173.2540  145.2770 C   0  0  0  0  0  3  0  0  0  0  0  0
  192.1510  172.4500  144.3940 C   0  0  0  0  0  3  0  0  0  0  0  0
  1  4  1  0  0  0  0
  2 11  1  0  0  0  0
  2  1  1  0  0  0  0
  3 13  1  0  0  0  0
  4  7  2  0  0  0  0
  4 16  1  0  0  0  0
  6 18  1  0  0  0  0
  6  3  2  0  0  0  0
  7  8  1  0  0  0  0
  8  5  2  0  0  0  0
  9 17  1  0  0  0  0
  9 18  1  0  0  0  0
 10  9  2  0  0  0  0
 12  5  1  0  0  0  0
 13  1  2  0  0  0  0
 13 14  1  0  0  0  0
 14  7  1  0  0  0  0
 15 20  1  1  0  0  0
 15 11  1  0  0  0  0
 16 12  2  0  0  0  0
 17 15  1  0  0  0  0
 18  2  2  0  0  0  0
 19 22  1  0  0  0  0
 20 21  1  0  0  0  0
 21 19  2  0  0  0  0
 23 20  2  0  0  0  0
 23 25  1  0  0  0  0
 24 19  1  0  0  0  0
 25 24  2  0  0  0  0
M  END
>  <MODEL>
8

>  <REMARK>
 VINA RESULT:      -7.4      2.640      4.746
  Name = 
  1 active torsions:
  status: ('A' for Active; 'I' for Inactive)
    1  A    between atoms: C_6  and  C_20
                            x       y       z     vdW  Elec       q    Type
                         _______ _______ _______ _____ _____    ______ ____

>  <TORSDO>
F 1

$$$$
=
 OpenBabel11052417333D

 25 29  0  0  1  0  0  0  0  0999 V2000
  186.6010  177.0080  144.7180 C   0  0  0  0  0  0  0  0  0  0  0  0
  187.7990  176.2980  144.8920 C   0  0  0  0  0  0  0  0  0  0  0  0
  186.3460  177.1850  147.0910 N   0  0  0  0  0  0  0  0  0  0  0  0
  185.9510  177.3790  143.5280 C   0  0  0  0  0  0  0  0  0  0  0  0
  184.3820  178.2910  141.4030 C   0  0  0  0  0  3  0  0  0  0  0  0
  187.4830  176.5040  147.2700 N   0  0  0  0  0  0  0  0  0  0  0  0
  184.7710  178.0860  143.7610 C   0  0  0  0  0  0  0  0  0  0  0  0
  183.9720  178.5510  142.7190 C   0  0  0  0  0  3  0  0  0  0  0  0
  189.4810  175.3130  146.4600 C   0  0  0  0  0  0  0  0  0  0  0  0
  189.8730  175.0960  147.6380 O   0  0  0  0  0  0  0  0  0  0  0  0
  188.5790  175.7520  143.7260 C   0  0  0  0  0  2  0  0  0  0  0  0
  185.5700  177.5800  141.1540 C   0  0  0  0  0  3  0  0  0  0  0  0
  185.9060  177.4370  145.8370 C   0  0  0  0  0  0  0  0  0  0  0  0
  184.5010  178.2680  145.4170 S   0  0  0  0  0  0  0  0  0  0  0  0
  190.0680  175.6320  144.0610 C   0  0  1  0  0  3  0  0  0  0  0  0
  186.3640  177.1210  142.2170 C   0  0  0  0  0  3  0  0  0  0  0  0
  190.2790  174.7760  145.3110 C   0  0  0  0  0  2  0  0  0  0  0  0
  188.2240  176.0440  146.2160 C   0  0  0  0  0  0  0  0  0  0  0  0
  190.9570  173.7640  140.8660 C   0  0  0  0  0  0  0  0  0  0  0  0
  190.8340  175.0870  142.8980 C   0  0  0  0  0  0  0  0  0  0  0  0
  190.2200  174.2590  141.9450 C   0  0  0  0  0  3  0  0  0  0  0  0
  190.3470  172.9470  139.9240 O   0  0  0  0  0  1  0  0  0  0  0  0
  192.1880  175.4110  142.7620 C   0  0  0  0  0  3  0  0  0  0  0  0
  192.3110  174.0910  140.7350 C   0  0  0  0  0  3  0  0  0  0  0  0
  192.9260  174.9150  141.6830 C   0  0  0  0  0  3  0  0  0  0  0  0
  1  2  2  0  0  0  0
  1 13  1  0  0  0  0
  2 18  1  0  0  0  0
  3  6  1  0  0  0  0
  4  7  1  0  0  0  0
  4  1  1  0  0  0  0
  5  8  1  0  0  0  0
  7 14  1  0  0  0  0
  8  7  2  0  0  0  0
  9 10  2  0  0  0  0
 11 15  1  0  0  0  0
 11  2  1  0  0  0  0
 12  5  2  0  0  0  0
 12 16  1  0  0  0  0
 13  3  2  0  0  0  0
 14 13  1  0  0  0  0
 15 20  1  6  0  0  0
 15 17  1  0  0  0  0
 16  4  2  0  0  0  0
 17  9  1  0  0  0  0
 18  9  1  0  0  0  0
 18  6  2  0  0  0  0
 19 21  1  0  0  0  0
 21 20  2  0  0  0  0
 22 19  1  0  0  0  0
 23 20  1  0  0  0  0
 24 19  2  0  0  0  0
 24 25  1  0  0  0  0
 25 23  2  0  0  0  0
M  END
>  <MODEL>
9

>  <REMARK>
 VINA RESULT:      -7.4      2.745      3.532
  Name = 
  1 active torsions:
  status: ('A' for Active; 'I' for Inactive)
    1  A    between atoms: C_6  and  C_20
                            x       y       z     vdW  Elec       q    Type
                         _______ _______ _______ _____ _____    ______ ____

>  <TORSDO>
F 1

$$$$
