=
 OpenBabel11052419173D

 32 37  0  0  1  0  0  0  0  0999 V2000
  189.7660  174.7550  143.0600 C   0  0  0  0  0  0  0  0  0  0  0  0
  188.0390  176.5840  143.4530 C   0  0  1  0  0  3  0  0  0  0  0  0
  190.3810  173.8210  142.2100 C   0  0  0  0  0  3  0  0  0  0  0  0
  188.6810  175.5230  142.5840 C   0  0  0  0  0  0  0  0  0  0  0  0
  186.8180  177.2520  142.8010 C   0  0  1  0  0  3  0  0  0  0  0  0
  186.2310  177.8920  147.8310 C   0  0  0  0  0  3  0  0  0  0  0  0
  187.6080  176.0480  144.8180 C   0  0  0  0  0  2  0  0  0  0  0  0
  185.7660  179.2270  145.8650 C   0  0  0  0  0  3  0  0  0  0  0  0
  186.3930  178.2720  145.0590 C   0  0  0  0  0  0  0  0  0  0  0  0
  188.2860  175.3910  141.2360 C   0  0  0  0  0  0  0  0  0  0  0  0
  186.5230  178.5390  143.5830 C   0  0  0  0  0  2  0  0  0  0  0  0
  187.1640  176.2170  140.6840 C   0  0  0  0  0  2  0  0  0  0  0  0
  188.9030  174.4500  140.4080 C   0  0  0  0  0  3  0  0  0  0  0  0
  186.9710  177.1260  145.6540 C   0  0  0  0  0  0  0  0  0  0  0  0
  187.0630  177.5060  141.3720 N   0  0  0  0  0  0  0  0  0  0  0  0
  189.9470  173.6660  140.8940 C   0  0  0  0  0  3  0  0  0  0  0  0
  185.6820  179.0360  147.2460 C   0  0  0  0  0  3  0  0  0  0  0  0
  186.8700  176.9380  147.0350 C   0  0  0  0  0  3  0  0  0  0  0  0
  185.9420  178.2350  140.7680 C   0  0  0  0  0  2  0  0  0  0  0  0
  185.3330  177.4900  139.7500 O   0  0  0  0  0  1  0  0  0  0  0  0
  190.2240  174.9380  144.3690 O   0  0  0  0  0  0  0  0  0  0  0  0
  191.2030  174.1050  144.9740 C   0  0  0  0  0  2  0  0  0  0  0  0
  194.1110  175.9060  144.9710 C   0  0  2  0  0  0  0  0  0  0  0  0
  194.8910  175.3160  146.1460 C   0  0  0  0  0  1  0  0  0  0  0  0
  191.5290  176.2660  146.0540 C   0  0  2  0  0  3  0  0  0  0  0  0
  192.1450  174.9630  145.7900 C   0  0  2  0  0  3  0  0  0  0  0  0
  193.5800  177.1130  145.3570 O   0  0  0  0  0  0  0  0  0  0  0  0
  192.6080  176.1580  144.9260 C   0  0  1  0  0  0  0  0  0  0  0  0
  191.2850  176.0840  148.4210 O   0  0  0  0  0  1  0  0  0  0  0  0
  192.0000  176.7470  147.4250 C   0  0  0  0  0  2  0  0  0  0  0  0
  194.8500  176.0590  143.6570 C   0  0  0  0  0  2  0  0  0  0  0  0
  196.0560  176.7280  143.8670 O   0  0  0  0  0  1  0  0  0  0  0  0
  1 21  1  0  0  0  0
  2  7  1  1  0  0  0
  3  1  2  0  0  0  0
  4  1  1  0  0  0  0
  4  2  1  0  0  0  0
  5  2  1  0  0  0  0
  5 11  1  1  0  0  0
  7 14  1  0  0  0  0
  8 17  2  0  0  0  0
  9 14  2  0  0  0  0
  9  8  1  0  0  0  0
 10  4  2  0  0  0  0
 11  9  1  0  0  0  0
 12 10  1  0  0  0  0
 12 15  1  0  0  0  0
 13 16  2  0  0  0  0
 13 10  1  0  0  0  0
 14 18  1  0  0  0  0
 15  5  1  0  0  0  0
 16  3  1  0  0  0  0
 17  6  1  0  0  0  0
 18  6  2  0  0  0  0
 19 15  1  0  0  0  0
 20 19  1  0  0  0  0
 21 22  1  0  0  0  0
 23 27  1  0  0  0  0
 23 24  1  1  0  0  0
 25 30  1  1  0  0  0
 26 22  1  6  0  0  0
 26 25  1  0  0  0  0
 28 23  1  0  0  0  0
 28 27  1  1  0  0  0
 28 26  1  0  0  0  0
 28 25  1  0  0  0  0
 30 29  1  0  0  0  0
 31 32  1  0  0  0  0
 31 23  1  0  0  0  0
M  END
>  <MODEL>
1

>  <REMARK>
 VINA RESULT:      -7.8      0.000      0.000
  Name = 
  6 active torsions:
  status: ('A' for Active; 'I' for Inactive)
    1  A    between atoms: C_1  and  O_27
    2  A    between atoms: C_3  and  C_22
    3  A    between atoms: C_13  and  N_29
    4  A    between atoms: C_15  and  C_26
    5  A    between atoms: C_16  and  C_24
    6  A    between atoms: C_24  and  O_27
                            x       y       z     vdW  Elec       q    Type
                         _______ _______ _______ _____ _____    ______ ____

>  <TORSDO>
F 6

$$$$
=
 OpenBabel11052419173D

 32 37  0  0  1  0  0  0  0  0999 V2000
  190.2800  174.0780  145.0450 C   0  0  0  0  0  0  0  0  0  0  0  0
  188.5650  175.8880  144.5290 C   0  0  1  0  0  3  0  0  0  0  0  0
  191.0230  172.9540  144.6490 C   0  0  0  0  0  3  0  0  0  0  0  0
  189.3350  174.6370  144.1580 C   0  0  0  0  0  0  0  0  0  0  0  0
  187.5190  176.2960  143.4790 C   0  0  1  0  0  3  0  0  0  0  0  0
  185.9620  178.3750  147.8740 C   0  0  0  0  0  3  0  0  0  0  0  0
  187.8550  175.7660  145.8770 C   0  0  0  0  0  2  0  0  0  0  0  0
  185.9390  179.0550  145.5500 C   0  0  0  0  0  3  0  0  0  0  0  0
  186.6840  177.9240  145.2040 C   0  0  0  0  0  0  0  0  0  0  0  0
  189.2120  174.1020  142.8580 C   0  0  0  0  0  0  0  0  0  0  0  0
  187.1140  177.7470  143.7710 C   0  0  0  0  0  2  0  0  0  0  0  0
  188.2480  174.6940  141.8760 C   0  0  0  0  0  2  0  0  0  0  0  0
  189.9530  172.9780  142.4850 C   0  0  0  0  0  3  0  0  0  0  0  0
  187.0980  177.0220  146.2130 C   0  0  0  0  0  0  0  0  0  0  0  0
  188.0510  176.1250  142.1180 N   0  0  0  0  0  0  0  0  0  0  0  0
  190.8550  172.4040  143.3790 C   0  0  0  0  0  3  0  0  0  0  0  0
  185.5760  179.2780  146.8800 C   0  0  0  0  0  3  0  0  0  0  0  0
  186.7180  177.2480  147.5390 C   0  0  0  0  0  3  0  0  0  0  0  0
  187.0960  176.6090  141.1150 C   0  0  0  0  0  2  0  0  0  0  0  0
  187.5630  177.7640  140.4740 O   0  0  0  0  0  1  0  0  0  0  0  0
  190.4730  174.6530  146.3060 O   0  0  0  0  0  0  0  0  0  0  0  0
  191.7570  174.8540  146.8800 C   0  0  0  0  0  2  0  0  0  0  0  0
  192.4190  176.9150  144.2310 C   0  0  2  0  0  0  0  0  0  0  0  0
  192.7070  175.9390  143.0890 C   0  0  0  0  0  1  0  0  0  0  0  0
  193.9250  175.8400  146.3630 C   0  0  2  0  0  3  0  0  0  0  0  0
  192.7380  175.2080  145.7830 C   0  0  2  0  0  3  0  0  0  0  0  0
  193.6130  177.4220  144.6860 O   0  0  0  0  0  0  0  0  0  0  0  0
  192.8450  176.7460  145.6850 C   0  0  1  0  0  0  0  0  0  0  0  0
  195.9300  174.5510  146.2310 O   0  0  0  0  0  1  0  0  0  0  0  0
  195.1360  175.4490  145.5170 C   0  0  0  0  0  2  0  0  0  0  0  0
  191.4490  178.0440  143.9480 C   0  0  0  0  0  2  0  0  0  0  0  0
  190.8340  177.8420  142.7130 O   0  0  0  0  0  1  0  0  0  0  0  0
  1 21  1  0  0  0  0
  2  7  1  1  0  0  0
  3  1  1  0  0  0  0
  4  2  1  0  0  0  0
  4  1  2  0  0  0  0
  5 11  1  1  0  0  0
  5  2  1  0  0  0  0
  7 14  1  0  0  0  0
  8 17  1  0  0  0  0
  9  8  2  0  0  0  0
  9 14  1  0  0  0  0
 10  4  1  0  0  0  0
 11  9  1  0  0  0  0
 12 15  1  0  0  0  0
 12 10  1  0  0  0  0
 13 10  2  0  0  0  0
 13 16  1  0  0  0  0
 14 18  2  0  0  0  0
 15  5  1  0  0  0  0
 16  3  2  0  0  0  0
 17  6  2  0  0  0  0
 18  6  1  0  0  0  0
 19 15  1  0  0  0  0
 20 19  1  0  0  0  0
 21 22  1  0  0  0  0
 23 24  1  6  0  0  0
 23 27  1  0  0  0  0
 23 28  1  0  0  0  0
 25 30  1  6  0  0  0
 26 25  1  0  0  0  0
 26 22  1  1  0  0  0
 28 27  1  6  0  0  0
 28 26  1  0  0  0  0
 28 25  1  0  0  0  0
 30 29  1  0  0  0  0
 31 23  1  0  0  0  0
 32 31  1  0  0  0  0
M  END
>  <MODEL>
2

>  <REMARK>
 VINA RESULT:      -7.6      1.434      2.418
  Name = 
  6 active torsions:
  status: ('A' for Active; 'I' for Inactive)
    1  A    between atoms: C_1  and  O_27
    2  A    between atoms: C_3  and  C_22
    3  A    between atoms: C_13  and  N_29
    4  A    between atoms: C_15  and  C_26
    5  A    between atoms: C_16  and  C_24
    6  A    between atoms: C_24  and  O_27
                            x       y       z     vdW  Elec       q    Type
                         _______ _______ _______ _____ _____    ______ ____

>  <TORSDO>
F 6

$$$$
=
 OpenBabel11052419173D

 32 37  0  0  1  0  0  0  0  0999 V2000
  191.4400  176.3120  144.7430 C   0  0  0  0  0  0  0  0  0  0  0  0
  188.9290  176.6960  144.5680 C   0  0  1  0  0  3  0  0  0  0  0  0
  192.6100  176.2310  145.5160 C   0  0  0  0  0  3  0  0  0  0  0  0
  190.2200  176.6650  145.3600 C   0  0  0  0  0  0  0  0  0  0  0  0
  187.7230  177.1890  145.3840 C   0  0  1  0  0  3  0  0  0  0  0  0
  186.5390  178.0530  140.4940 C   0  0  0  0  0  3  0  0  0  0  0  0
  189.0290  177.5600  143.3100 C   0  0  0  0  0  2  0  0  0  0  0  0
  185.3100  177.3530  142.4600 C   0  0  0  0  0  3  0  0  0  0  0  0
  186.5020  177.2820  143.1880 C   0  0  0  0  0  0  0  0  0  0  0  0
  190.1860  176.8520  146.7580 C   0  0  0  0  0  0  0  0  0  0  0  0
  186.4550  176.7990  144.6140 C   0  0  0  0  0  2  0  0  0  0  0  0
  188.9020  177.1890  147.4530 C   0  0  0  0  0  2  0  0  0  0  0  0
  191.3620  176.7770  147.5080 C   0  0  0  0  0  3  0  0  0  0  0  0
  187.7310  177.5720  142.5500 C   0  0  0  0  0  0  0  0  0  0  0  0
  187.7500  176.6280  146.7440 N   0  0  0  0  0  0  0  0  0  0  0  0
  192.5710  176.4690  146.8890 C   0  0  0  0  0  3  0  0  0  0  0  0
  185.3280  177.7410  141.1180 C   0  0  0  0  0  3  0  0  0  0  0  0
  187.7360  177.9720  141.2110 C   0  0  0  0  0  3  0  0  0  0  0  0
  186.5480  177.0120  147.4950 C   0  0  0  0  0  2  0  0  0  0  0  0
  186.5780  178.3660  147.8540 O   0  0  0  0  0  1  0  0  0  0  0  0
  191.4700  176.0380  143.3720 O   0  0  0  0  0  0  0  0  0  0  0  0
  191.6890  174.7380  142.8430 C   0  0  0  0  0  2  0  0  0  0  0  0
  189.0310  173.3180  141.2230 C   0  0  2  0  0  0  0  0  0  0  0  0
  187.8220  173.8790  141.9730 C   0  0  0  0  0  1  0  0  0  0  0  0
  190.7550  172.5370  143.3180 C   0  0  2  0  0  3  0  0  0  0  0  0
  190.4200  173.9250  142.9910 C   0  0  2  0  0  3  0  0  0  0  0  0
  189.2380  172.0220  141.6310 O   0  0  0  0  0  0  0  0  0  0  0  0
  190.3540  172.8890  141.8470 C   0  0  1  0  0  0  0  0  0  0  0  0
  189.5800  172.7530  145.3840 O   0  0  0  0  0  1  0  0  0  0  0  0
  189.6580  171.9820  144.2250 C   0  0  0  0  0  2  0  0  0  0  0  0
  189.0010  173.3890  139.7100 C   0  0  0  0  0  2  0  0  0  0  0  0
  188.0010  172.5520  139.2160 O   0  0  0  0  0  1  0  0  0  0  0  0
  1  4  2  0  0  0  0
  1  3  1  0  0  0  0
  2  7  1  6  0  0  0
  2  4  1  0  0  0  0
  2  5  1  0  0  0  0
  3 16  2  0  0  0  0
  4 10  1  0  0  0  0
  5 11  1  6  0  0  0
  5 15  1  0  0  0  0
  6 17  2  0  0  0  0
  6 18  1  0  0  0  0
  8  9  2  0  0  0  0
  9 11  1  0  0  0  0
 10 12  1  0  0  0  0
 10 13  2  0  0  0  0
 14  9  1  0  0  0  0
 14  7  1  0  0  0  0
 15 12  1  0  0  0  0
 15 19  1  0  0  0  0
 16 13  1  0  0  0  0
 17  8  1  0  0  0  0
 18 14  2  0  0  0  0
 19 20  1  0  0  0  0
 21  1  1  0  0  0  0
 22 21  1  0  0  0  0
 23 27  1  0  0  0  0
 23 28  1  0  0  0  0
 23 24  1  1  0  0  0
 25 30  1  1  0  0  0
 26 22  1  6  0  0  0
 26 25  1  0  0  0  0
 28 27  1  1  0  0  0
 28 26  1  0  0  0  0
 28 25  1  0  0  0  0
 30 29  1  0  0  0  0
 31 23  1  0  0  0  0
 32 31  1  0  0  0  0
M  END
>  <MODEL>
3

>  <REMARK>
 VINA RESULT:      -7.6      2.402      5.672
  Name = 
  6 active torsions:
  status: ('A' for Active; 'I' for Inactive)
    1  A    between atoms: C_1  and  O_27
    2  A    between atoms: C_3  and  C_22
    3  A    between atoms: C_13  and  N_29
    4  A    between atoms: C_15  and  C_26
    5  A    between atoms: C_16  and  C_24
    6  A    between atoms: C_24  and  O_27
                            x       y       z     vdW  Elec       q    Type
                         _______ _______ _______ _____ _____    ______ ____

>  <TORSDO>
F 6

$$$$
=
 OpenBabel11052419173D

 32 37  0  0  1  0  0  0  0  0999 V2000
  190.0240  176.0340  144.5660 C   0  0  0  0  0  0  0  0  0  0  0  0
  187.6380  176.9180  144.4710 C   0  0  1  0  0  3  0  0  0  0  0  0
  191.2100  175.7980  145.2810 C   0  0  0  0  0  3  0  0  0  0  0  0
  188.9530  176.7070  145.1930 C   0  0  0  0  0  0  0  0  0  0  0  0
  186.6250  177.7470  145.2770 C   0  0  1  0  0  3  0  0  0  0  0  0
  185.2640  178.2620  140.3840 C   0  0  0  0  0  3  0  0  0  0  0  0
  187.8130  177.5860  143.1080 C   0  0  0  0  0  2  0  0  0  0  0  0
  184.0760  178.0740  142.4850 C   0  0  0  0  0  3  0  0  0  0  0  0
  185.2800  177.8380  143.1540 C   0  0  0  0  0  0  0  0  0  0  0  0
  189.0670  177.0600  146.5540 C   0  0  0  0  0  0  0  0  0  0  0  0
  185.2470  177.5460  144.6310 C   0  0  0  0  0  2  0  0  0  0  0  0
  187.9360  177.7400  147.2640 C   0  0  0  0  0  2  0  0  0  0  0  0
  190.2570  176.8260  147.2470 C   0  0  0  0  0  3  0  0  0  0  0  0
  186.4900  177.7850  142.4200 C   0  0  0  0  0  0  0  0  0  0  0  0
  186.6420  177.3570  146.6950 N   0  0  0  0  0  0  0  0  0  0  0  0
  191.3270  176.1990  146.6110 C   0  0  0  0  0  3  0  0  0  0  0  0
  184.0680  178.2890  141.1050 C   0  0  0  0  0  3  0  0  0  0  0  0
  186.4720  178.0140  141.0420 C   0  0  0  0  0  3  0  0  0  0  0  0
  185.6060  178.0720  147.4500 C   0  0  0  0  0  2  0  0  0  0  0  0
  185.9410  179.4200  147.6330 O   0  0  0  0  0  1  0  0  0  0  0  0
  189.8910  175.6010  143.2420 O   0  0  0  0  0  0  0  0  0  0  0  0
  190.9840  175.1320  142.4650 C   0  0  0  0  0  2  0  0  0  0  0  0
  190.4570  171.9150  141.4260 C   0  0  2  0  0  0  0  0  0  0  0  0
  191.1440  171.8690  140.0610 C   0  0  0  0  0  1  0  0  0  0  0  0
  188.9950  174.3270  141.3080 C   0  0  2  0  0  3  0  0  0  0  0  0
  190.4570  174.2430  141.3580 C   0  0  2  0  0  3  0  0  0  0  0  0
  189.1000  172.0050  141.2320 O   0  0  0  0  0  0  0  0  0  0  0  0
  189.6540  173.0830  141.9890 C   0  0  1  0  0  0  0  0  0  0  0  0
  187.8160  175.2910  139.4690 O   0  0  0  0  0  1  0  0  0  0  0  0
  188.5590  174.1740  139.8520 C   0  0  0  0  0  2  0  0  0  0  0  0
  190.7710  170.7940  142.3960 C   0  0  0  0  0  2  0  0  0  0  0  0
  190.8150  169.5780  141.7170 O   0  0  0  0  0  1  0  0  0  0  0  0
  1  4  2  0  0  0  0
  1  3  1  0  0  0  0
  2  7  1  6  0  0  0
  2  4  1  0  0  0  0
  2  5  1  0  0  0  0
  3 16  2  0  0  0  0
  4 10  1  0  0  0  0
  5 11  1  6  0  0  0
  5 15  1  0  0  0  0
  6 18  2  0  0  0  0
  6 17  1  0  0  0  0
  8  9  1  0  0  0  0
  9 11  1  0  0  0  0
 10 13  2  0  0  0  0
 10 12  1  0  0  0  0
 14  7  1  0  0  0  0
 14  9  2  0  0  0  0
 15 12  1  0  0  0  0
 15 19  1  0  0  0  0
 16 13  1  0  0  0  0
 17  8  2  0  0  0  0
 18 14  1  0  0  0  0
 19 20  1  0  0  0  0
 21  1  1  0  0  0  0
 22 21  1  0  0  0  0
 23 24  1  6  0  0  0
 23 28  1  0  0  0  0
 23 31  1  0  0  0  0
 25 30  1  6  0  0  0
 25 26  1  0  0  0  0
 25 28  1  0  0  0  0
 26 28  1  0  0  0  0
 26 22  1  1  0  0  0
 27 23  1  0  0  0  0
 28 27  1  6  0  0  0
 29 30  1  0  0  0  0
 32 31  1  0  0  0  0
M  END
>  <MODEL>
4

>  <REMARK>
 VINA RESULT:      -7.4      2.518      5.809
  Name = 
  6 active torsions:
  status: ('A' for Active; 'I' for Inactive)
    1  A    between atoms: C_1  and  O_27
    2  A    between atoms: C_3  and  C_22
    3  A    between atoms: C_13  and  N_29
    4  A    between atoms: C_15  and  C_26
    5  A    between atoms: C_16  and  C_24
    6  A    between atoms: C_24  and  O_27
                            x       y       z     vdW  Elec       q    Type
                         _______ _______ _______ _____ _____    ______ ____

>  <TORSDO>
F 6

$$$$
=
 OpenBabel11052419173D

 32 37  0  0  1  0  0  0  0  0999 V2000
  193.6190  175.8150  143.1300 C   0  0  0  0  0  0  0  0  0  0  0  0
  191.4330  176.3880  144.3040 C   0  0  1  0  0  3  0  0  0  0  0  0
  195.0010  175.5670  143.1780 C   0  0  0  0  0  3  0  0  0  0  0  0
  192.9330  176.1780  144.3090 C   0  0  0  0  0  0  0  0  0  0  0  0
  190.8770  176.8640  145.6550 C   0  0  1  0  0  3  0  0  0  0  0  0
  187.4820  178.3620  142.1510 C   0  0  0  0  0  3  0  0  0  0  0  0
  190.9800  177.3810  143.2330 C   0  0  0  0  0  2  0  0  0  0  0  0
  187.3510  177.5270  144.4190 C   0  0  0  0  0  3  0  0  0  0  0  0
  188.7290  177.2910  144.4200 C   0  0  0  0  0  0  0  0  0  0  0  0
  193.6370  176.2050  145.5310 C   0  0  0  0  0  0  0  0  0  0  0  0
  189.3580  176.6520  145.6300 C   0  0  0  0  0  2  0  0  0  0  0  0
  192.9350  176.5470  146.8110 C   0  0  0  0  0  2  0  0  0  0  0  0
  195.0130  175.9640  145.5590 C   0  0  0  0  0  3  0  0  0  0  0  0
  189.4870  177.5690  143.2570 C   0  0  0  0  0  0  0  0  0  0  0  0
  191.5260  176.1500  146.7670 N   0  0  0  0  0  0  0  0  0  0  0  0
  195.6940  175.6480  144.3850 C   0  0  0  0  0  3  0  0  0  0  0  0
  186.7300  178.0640  143.2900 C   0  0  0  0  0  3  0  0  0  0  0  0
  188.8580  178.1180  142.1370 C   0  0  0  0  0  3  0  0  0  0  0  0
  190.9280  176.5270  148.0530 C   0  0  0  0  0  2  0  0  0  0  0  0
  191.7390  177.4290  148.7530 O   0  0  0  0  0  1  0  0  0  0  0  0
  192.9150  175.7000  141.9260 O   0  0  0  0  0  0  0  0  0  0  0  0
  192.8500  174.4950  141.1760 C   0  0  0  0  0  2  0  0  0  0  0  0
  189.6020  173.7110  141.9080 C   0  0  2  0  0  0  0  0  0  0  0  0
  189.6060  173.5840  143.4330 C   0  0  0  0  0  1  0  0  0  0  0  0
  191.8980  172.2510  141.1560 C   0  0  2  0  0  3  0  0  0  0  0  0
  191.9230  173.5260  141.8780 C   0  0  2  0  0  3  0  0  0  0  0  0
  189.5890  172.4510  141.3630 O   0  0  0  0  0  0  0  0  0  0  0  0
  190.7070  173.2480  140.9660 C   0  0  1  0  0  0  0  0  0  0  0  0
  192.4860  171.3930  143.3040 O   0  0  0  0  0  1  0  0  0  0  0  0
  191.7100  171.1290  142.1750 C   0  0  0  0  0  2  0  0  0  0  0  0
  188.5090  174.5580  141.2880 C   0  0  0  0  0  2  0  0  0  0  0  0
  187.4700  174.7350  142.2010 O   0  0  0  0  0  1  0  0  0  0  0  0
  1  3  2  0  0  0  0
  1  4  1  0  0  0  0
  2  7  1  6  0  0  0
  2  4  1  0  0  0  0
  2  5  1  0  0  0  0
  3 16  1  0  0  0  0
  4 10  2  0  0  0  0
  5 11  1  6  0  0  0
  5 15  1  0  0  0  0
  6 17  1  0  0  0  0
  7 14  1  0  0  0  0
  8  9  1  0  0  0  0
  9 11  1  0  0  0  0
 10 13  1  0  0  0  0
 10 12  1  0  0  0  0
 14  9  2  0  0  0  0
 15 12  1  0  0  0  0
 15 19  1  0  0  0  0
 16 13  2  0  0  0  0
 17  8  2  0  0  0  0
 18  6  2  0  0  0  0
 18 14  1  0  0  0  0
 19 20  1  0  0  0  0
 21  1  1  0  0  0  0
 22 21  1  0  0  0  0
 23 24  1  1  0  0  0
 25 26  1  0  0  0  0
 25 30  1  1  0  0  0
 26 22  1  6  0  0  0
 27 23  1  0  0  0  0
 28 25  1  0  0  0  0
 28 27  1  1  0  0  0
 28 26  1  0  0  0  0
 28 23  1  0  0  0  0
 30 29  1  0  0  0  0
 31 23  1  0  0  0  0
 31 32  1  0  0  0  0
M  END
>  <MODEL>
5

>  <REMARK>
 VINA RESULT:      -7.4      2.455      6.142
  Name = 
  6 active torsions:
  status: ('A' for Active; 'I' for Inactive)
    1  A    between atoms: C_1  and  O_27
    2  A    between atoms: C_3  and  C_22
    3  A    between atoms: C_13  and  N_29
    4  A    between atoms: C_15  and  C_26
    5  A    between atoms: C_16  and  C_24
    6  A    between atoms: C_24  and  O_27
                            x       y       z     vdW  Elec       q    Type
                         _______ _______ _______ _____ _____    ______ ____

>  <TORSDO>
F 6

$$$$
=
 OpenBabel11052419173D

 32 37  0  0  1  0  0  0  0  0999 V2000
  189.8630  176.7120  145.9670 C   0  0  0  0  0  0  0  0  0  0  0  0
  190.8290  175.4640  143.9700 C   0  0  1  0  0  3  0  0  0  0  0  0
  190.0070  177.2430  147.2600 C   0  0  0  0  0  3  0  0  0  0  0  0
  190.9290  175.9920  145.3860 C   0  0  0  0  0  0  0  0  0  0  0  0
  192.0470  174.6310  143.5410 C   0  0  1  0  0  3  0  0  0  0  0  0
  188.2030  173.1160  140.5440 C   0  0  0  0  0  3  0  0  0  0  0  0
  189.5770  174.6160  143.7430 C   0  0  0  0  0  2  0  0  0  0  0  0
  190.5810  173.4580  140.2430 C   0  0  0  0  0  3  0  0  0  0  0  0
  190.6760  173.9850  141.5350 C   0  0  0  0  0  0  0  0  0  0  0  0
  192.1500  175.8890  146.0850 C   0  0  0  0  0  0  0  0  0  0  0  0
  192.0060  174.5060  142.0120 C   0  0  0  0  0  2  0  0  0  0  0  0
  193.3170  175.1670  145.4830 C   0  0  0  0  0  2  0  0  0  0  0  0
  192.2720  176.4160  147.3730 C   0  0  0  0  0  3  0  0  0  0  0  0
  189.5110  174.1050  142.3290 C   0  0  0  0  0  0  0  0  0  0  0  0
  193.2950  175.2460  144.0200 N   0  0  0  0  0  0  0  0  0  0  0  0
  191.2030  177.0900  147.9600 C   0  0  0  0  0  3  0  0  0  0  0  0
  189.3490  173.0210  139.7510 C   0  0  0  0  0  3  0  0  0  0  0  0
  188.2860  173.6530  141.8310 C   0  0  0  0  0  3  0  0  0  0  0  0
  194.4670  174.5120  143.5280 C   0  0  0  0  0  2  0  0  0  0  0  0
  195.2900  175.3270  142.7400 O   0  0  0  0  0  1  0  0  0  0  0  0
  188.6760  176.8960  145.2490 O   0  0  0  0  0  0  0  0  0  0  0  0
  187.4040  176.4870  145.7320 C   0  0  0  0  0  2  0  0  0  0  0  0
  185.2270  178.4230  143.9400 C   0  0  2  0  0  0  0  0  0  0  0  0
  185.7770  179.8370  144.1280 C   0  0  0  0  0  1  0  0  0  0  0  0
  185.2900  177.3750  146.5600 C   0  0  2  0  0  3  0  0  0  0  0  0
  186.4780  177.6840  145.7600 C   0  0  2  0  0  3  0  0  0  0  0  0
  184.1300  178.2660  144.7520 O   0  0  0  0  0  0  0  0  0  0  0  0
  185.1800  177.3290  145.0000 C   0  0  1  0  0  0  0  0  0  0  0  0
  185.9520  179.3920  147.6520 O   0  0  0  0  0  1  0  0  0  0  0  0
  184.8350  178.6580  147.2530 C   0  0  0  0  0  2  0  0  0  0  0  0
  184.8930  177.9940  142.5250 C   0  0  0  0  0  2  0  0  0  0  0  0
  185.9480  178.3130  141.6710 O   0  0  0  0  0  1  0  0  0  0  0  0
  1  3  1  0  0  0  0
  2  7  1  1  0  0  0
  2  4  1  0  0  0  0
  3 16  2  0  0  0  0
  4  1  2  0  0  0  0
  4 10  1  0  0  0  0
  5 11  1  6  0  0  0
  5  2  1  0  0  0  0
  5 15  1  0  0  0  0
  6 18  1  0  0  0  0
  8  9  2  0  0  0  0
  9 11  1  0  0  0  0
  9 14  1  0  0  0  0
 10 13  2  0  0  0  0
 12 10  1  0  0  0  0
 13 16  1  0  0  0  0
 14  7  1  0  0  0  0
 15 12  1  0  0  0  0
 17  8  1  0  0  0  0
 17  6  2  0  0  0  0
 18 14  2  0  0  0  0
 19 15  1  0  0  0  0
 20 19  1  0  0  0  0
 21 22  1  0  0  0  0
 21  1  1  0  0  0  0
 23 24  1  1  0  0  0
 23 27  1  0  0  0  0
 23 28  1  0  0  0  0
 25 30  1  6  0  0  0
 26 22  1  1  0  0  0
 26 25  1  0  0  0  0
 28 27  1  1  0  0  0
 28 26  1  0  0  0  0
 28 25  1  0  0  0  0
 30 29  1  0  0  0  0
 31 23  1  0  0  0  0
 32 31  1  0  0  0  0
M  END
>  <MODEL>
6

>  <REMARK>
 VINA RESULT:      -7.3      2.384      7.490
  Name = 
  6 active torsions:
  status: ('A' for Active; 'I' for Inactive)
    1  A    between atoms: C_1  and  O_27
    2  A    between atoms: C_3  and  C_22
    3  A    between atoms: C_13  and  N_29
    4  A    between atoms: C_15  and  C_26
    5  A    between atoms: C_16  and  C_24
    6  A    between atoms: C_24  and  O_27
                            x       y       z     vdW  Elec       q    Type
                         _______ _______ _______ _____ _____    ______ ____

>  <TORSDO>
F 6

$$$$
=
 OpenBabel11052419173D

 32 37  0  0  1  0  0  0  0  0999 V2000
  189.6080  175.6830  144.7030 C   0  0  0  0  0  0  0  0  0  0  0  0
  187.3370  176.8120  144.4810 C   0  0  1  0  0  3  0  0  0  0  0  0
  190.7520  175.3830  145.4610 C   0  0  0  0  0  3  0  0  0  0  0  0
  188.6110  176.5230  145.2460 C   0  0  0  0  0  0  0  0  0  0  0  0
  186.4130  177.8160  145.1890 C   0  0  1  0  0  3  0  0  0  0  0  0
  185.1740  178.0380  140.2430 C   0  0  0  0  0  3  0  0  0  0  0  0
  187.6010  177.3330  143.0680 C   0  0  0  0  0  2  0  0  0  0  0  0
  183.9480  178.1710  142.3260 C   0  0  0  0  0  3  0  0  0  0  0  0
  185.1110  177.8640  143.0380 C   0  0  0  0  0  0  0  0  0  0  0  0
  188.7490  176.9820  146.5730 C   0  0  0  0  0  0  0  0  0  0  0  0
  185.0290  177.7110  144.5350 C   0  0  0  0  0  2  0  0  0  0  0  0
  187.6930  177.8430  147.1970 C   0  0  0  0  0  2  0  0  0  0  0  0
  189.8970  176.6810  147.3090 C   0  0  0  0  0  3  0  0  0  0  0  0
  186.3150  177.6130  142.3380 C   0  0  0  0  0  0  0  0  0  0  0  0
  186.3710  177.5550  146.6370 N   0  0  0  0  0  0  0  0  0  0  0  0
  190.8980  175.8850  146.7540 C   0  0  0  0  0  3  0  0  0  0  0  0
  183.9800  178.2620  140.9330 C   0  0  0  0  0  3  0  0  0  0  0  0
  186.3390  177.7190  140.9450 C   0  0  0  0  0  3  0  0  0  0  0  0
  185.4120  178.4440  147.3040 C   0  0  0  0  0  2  0  0  0  0  0  0
  186.0270  179.6230  147.7460 O   0  0  0  0  0  1  0  0  0  0  0  0
  189.4430  175.1510  143.4200 O   0  0  0  0  0  0  0  0  0  0  0  0
  189.2140  173.7700  143.1750 C   0  0  0  0  0  2  0  0  0  0  0  0
  189.5070  172.8150  139.9030 C   0  0  2  0  0  0  0  0  0  0  0  0
  190.1950  171.4520  139.9950 C   0  0  0  0  0  1  0  0  0  0  0  0
  191.0280  174.4020  141.6740 C   0  0  2  0  0  3  0  0  0  0  0  0
  190.1550  173.3000  142.0870 C   0  0  2  0  0  3  0  0  0  0  0  0
  190.4360  173.7510  139.5200 O   0  0  0  0  0  0  0  0  0  0  0  0
  189.8040  174.0320  140.7710 C   0  0  1  0  0  0  0  0  0  0  0  0
  192.8370  172.9760  142.3000 O   0  0  0  0  0  1  0  0  0  0  0  0
  192.3830  173.8160  141.2830 C   0  0  0  0  0  2  0  0  0  0  0  0
  188.2780  172.9100  139.0220 C   0  0  0  0  0  2  0  0  0  0  0  0
  188.6330  172.7110  137.6890 O   0  0  0  0  0  1  0  0  0  0  0  0
  1  4  2  0  0  0  0
  1  3  1  0  0  0  0
  2  7  1  6  0  0  0
  2  5  1  0  0  0  0
  2  4  1  0  0  0  0
  3 16  2  0  0  0  0
  4 10  1  0  0  0  0
  5 11  1  6  0  0  0
  5 15  1  0  0  0  0
  6 17  2  0  0  0  0
  6 18  1  0  0  0  0
  8  9  2  0  0  0  0
  9 11  1  0  0  0  0
 10 12  1  0  0  0  0
 10 13  2  0  0  0  0
 14  9  1  0  0  0  0
 14  7  1  0  0  0  0
 15 12  1  0  0  0  0
 15 19  1  0  0  0  0
 16 13  1  0  0  0  0
 17  8  1  0  0  0  0
 18 14  2  0  0  0  0
 19 20  1  0  0  0  0
 21  1  1  0  0  0  0
 22 21  1  0  0  0  0
 23 24  1  1  0  0  0
 23 28  1  0  0  0  0
 25 30  1  6  0  0  0
 25 26  1  0  0  0  0
 26 22  1  1  0  0  0
 27 23  1  0  0  0  0
 28 27  1  6  0  0  0
 28 25  1  0  0  0  0
 28 26  1  0  0  0  0
 30 29  1  0  0  0  0
 31 23  1  0  0  0  0
 32 31  1  0  0  0  0
M  END
>  <MODEL>
7

>  <REMARK>
 VINA RESULT:      -7.2      2.682      5.795
  Name = 
  6 active torsions:
  status: ('A' for Active; 'I' for Inactive)
    1  A    between atoms: C_1  and  O_27
    2  A    between atoms: C_3  and  C_22
    3  A    between atoms: C_13  and  N_29
    4  A    between atoms: C_15  and  C_26
    5  A    between atoms: C_16  and  C_24
    6  A    between atoms: C_24  and  O_27
                            x       y       z     vdW  Elec       q    Type
                         _______ _______ _______ _____ _____    ______ ____

>  <TORSDO>
F 6

$$$$
=
 OpenBabel11052419173D

 32 37  0  0  1  0  0  0  0  0999 V2000
  189.9050  175.8160  145.9390 C   0  0  0  0  0  0  0  0  0  0  0  0
  191.1260  175.1670  143.8010 C   0  0  1  0  0  3  0  0  0  0  0  0
  189.9320  176.2680  147.2690 C   0  0  0  0  0  3  0  0  0  0  0  0
  191.1200  175.5890  145.2550 C   0  0  0  0  0  0  0  0  0  0  0  0
  192.5330  174.8800  143.2540 C   0  0  1  0  0  3  0  0  0  0  0  0
  189.3220  172.2670  140.2670 C   0  0  0  0  0  3  0  0  0  0  0  0
  190.2600  173.9330  143.5410 C   0  0  0  0  0  2  0  0  0  0  0  0
  191.3820  173.4900  139.9160 C   0  0  0  0  0  3  0  0  0  0  0  0
  191.3630  173.9180  141.2460 C   0  0  0  0  0  0  0  0  0  0  0  0
  192.3370  175.8960  145.8980 C   0  0  0  0  0  0  0  0  0  0  0  0
  192.4380  174.8600  141.7220 C   0  0  0  0  0  2  0  0  0  0  0  0
  193.6450  175.7060  145.1910 C   0  0  0  0  0  2  0  0  0  0  0  0
  192.3440  176.3350  147.2240 C   0  0  0  0  0  3  0  0  0  0  0  0
  190.2920  173.5380  142.0890 C   0  0  0  0  0  0  0  0  0  0  0  0
  193.4970  175.8780  143.7440 N   0  0  0  0  0  0  0  0  0  0  0  0
  191.1440  176.5190  147.9090 C   0  0  0  0  0  3  0  0  0  0  0  0
  190.3670  172.6630  139.4290 C   0  0  0  0  0  3  0  0  0  0  0  0
  189.2880  172.7010  141.5950 C   0  0  0  0  0  3  0  0  0  0  0  0
  194.8200  175.6700  143.1440 C   0  0  0  0  0  2  0  0  0  0  0  0
  195.7940  176.4670  143.7590 O   0  0  0  0  0  1  0  0  0  0  0  0
  188.6890  175.5980  145.2830 O   0  0  0  0  0  0  0  0  0  0  0  0
  187.5590  176.4440  145.4410 C   0  0  0  0  0  2  0  0  0  0  0  0
  185.3990  178.4730  143.7320 C   0  0  2  0  0  0  0  0  0  0  0  0
  184.8000  177.5410  142.6780 C   0  0  0  0  0  1  0  0  0  0  0  0
  188.1580  177.8970  143.5780 C   0  0  2  0  0  3  0  0  0  0  0  0
  187.1430  176.9700  144.0840 C   0  0  2  0  0  3  0  0  0  0  0  0
  186.3380  179.2730  143.1270 O   0  0  0  0  0  0  0  0  0  0  0  0
  186.8490  178.4820  144.2030 C   0  0  1  0  0  0  0  0  0  0  0  0
  188.3040  176.4210  141.7070 O   0  0  0  0  0  1  0  0  0  0  0  0
  188.2060  177.7680  142.0560 C   0  0  0  0  0  2  0  0  0  0  0  0
  184.4320  179.3190  144.5350 C   0  0  0  0  0  2  0  0  0  0  0  0
  184.0310  178.6270  145.6770 O   0  0  0  0  0  1  0  0  0  0  0  0
  1  3  1  0  0  0  0
  2  7  1  1  0  0  0
  2  4  1  0  0  0  0
  3 16  2  0  0  0  0
  4 10  1  0  0  0  0
  4  1  2  0  0  0  0
  5 11  1  6  0  0  0
  5 15  1  0  0  0  0
  5  2  1  0  0  0  0
  6 18  1  0  0  0  0
  8  9  2  0  0  0  0
  9 11  1  0  0  0  0
  9 14  1  0  0  0  0
 10 13  2  0  0  0  0
 12 10  1  0  0  0  0
 13 16  1  0  0  0  0
 14  7  1  0  0  0  0
 15 12  1  0  0  0  0
 17  8  1  0  0  0  0
 17  6  2  0  0  0  0
 18 14  2  0  0  0  0
 19 15  1  0  0  0  0
 19 20  1  0  0  0  0
 21 22  1  0  0  0  0
 21  1  1  0  0  0  0
 23 24  1  6  0  0  0
 23 28  1  0  0  0  0
 23 31  1  0  0  0  0
 25 30  1  6  0  0  0
 25 26  1  0  0  0  0
 25 28  1  0  0  0  0
 26 28  1  0  0  0  0
 26 22  1  1  0  0  0
 27 23  1  0  0  0  0
 28 27  1  6  0  0  0
 29 30  1  0  0  0  0
 31 32  1  0  0  0  0
M  END
>  <MODEL>
8

>  <REMARK>
 VINA RESULT:      -7.0      2.330      7.659
  Name = 
  6 active torsions:
  status: ('A' for Active; 'I' for Inactive)
    1  A    between atoms: C_1  and  O_27
    2  A    between atoms: C_3  and  C_22
    3  A    between atoms: C_13  and  N_29
    4  A    between atoms: C_15  and  C_26
    5  A    between atoms: C_16  and  C_24
    6  A    between atoms: C_24  and  O_27
                            x       y       z     vdW  Elec       q    Type
                         _______ _______ _______ _____ _____    ______ ____

>  <TORSDO>
F 6

$$$$
=
 OpenBabel11052419173D

 32 37  0  0  1  0  0  0  0  0999 V2000
  188.9370  175.8710  142.0800 C   0  0  0  0  0  0  0  0  0  0  0  0
  190.8800  174.6200  143.1480 C   0  0  1  0  0  3  0  0  0  0  0  0
  187.9400  175.9640  141.0940 C   0  0  0  0  0  3  0  0  0  0  0  0
  189.8370  174.7830  142.0620 C   0  0  0  0  0  0  0  0  0  0  0  0
  191.8250  173.4300  142.9130 C   0  0  1  0  0  3  0  0  0  0  0  0
  194.3690  176.6470  145.9530 C   0  0  0  0  0  3  0  0  0  0  0  0
  191.7390  175.8710  143.3350 C   0  0  0  0  0  2  0  0  0  0  0  0
  194.1930  174.2390  145.7660 C   0  0  0  0  0  3  0  0  0  0  0  0
  193.1990  174.3800  144.7930 C   0  0  0  0  0  0  0  0  0  0  0  0
  189.6660  173.7670  141.0990 C   0  0  0  0  0  0  0  0  0  0  0  0
  192.5430  173.1420  144.2380 C   0  0  0  0  0  2  0  0  0  0  0  0
  190.5770  172.5770  141.0730 C   0  0  0  0  0  2  0  0  0  0  0  0
  188.6750  173.8800  140.1210 C   0  0  0  0  0  3  0  0  0  0  0  0
  192.7660  175.6740  144.4170 C   0  0  0  0  0  0  0  0  0  0  0  0
  191.0810  172.2640  142.4130 N   0  0  0  0  0  0  0  0  0  0  0  0
  187.8150  174.9770  140.1180 C   0  0  0  0  0  3  0  0  0  0  0  0
  194.7780  175.3690  146.3420 C   0  0  0  0  0  3  0  0  0  0  0  0
  193.3680  176.7980  144.9900 C   0  0  0  0  0  3  0  0  0  0  0  0
  191.9600  171.0950  142.2840 C   0  0  0  0  0  2  0  0  0  0  0  0
  192.5150  171.0080  141.0010 O   0  0  0  0  0  1  0  0  0  0  0  0
  189.0420  176.8420  143.0820 O   0  0  0  0  0  0  0  0  0  0  0  0
  187.9320  177.5880  143.5590 C   0  0  0  0  0  2  0  0  0  0  0  0
  186.2640  177.3620  146.5370 C   0  0  2  0  0  0  0  0  0  0  0  0
  186.5340  178.7160  147.1960 C   0  0  0  0  0  1  0  0  0  0  0  0
  188.8180  176.6020  145.6050 C   0  0  2  0  0  3  0  0  0  0  0  0
  188.0330  177.7150  145.0640 C   0  0  2  0  0  3  0  0  0  0  0  0
  187.0690  176.4180  147.1280 O   0  0  0  0  0  0  0  0  0  0  0  0
  187.2580  176.5480  145.7170 C   0  0  1  0  0  0  0  0  0  0  0  0
  190.6060  176.2100  147.1370 O   0  0  0  0  0  1  0  0  0  0  0  0
  189.5860  177.1090  146.8240 C   0  0  0  0  0  2  0  0  0  0  0  0
  184.8280  176.8790  146.5130 C   0  0  0  0  0  2  0  0  0  0  0  0
  183.9600  177.9710  146.5220 O   0  0  0  0  0  1  0  0  0  0  0  0
  1 21  1  0  0  0  0
  2  7  1  6  0  0  0
  3  1  2  0  0  0  0
  4  1  1  0  0  0  0
  4  2  1  0  0  0  0
  5  2  1  0  0  0  0
  5 11  1  1  0  0  0
  6 17  1  0  0  0  0
  7 14  1  0  0  0  0
  8 17  2  0  0  0  0
  9  8  1  0  0  0  0
 10  4  2  0  0  0  0
 11  9  1  0  0  0  0
 12 10  1  0  0  0  0
 12 15  1  0  0  0  0
 13 10  1  0  0  0  0
 14  9  2  0  0  0  0
 14 18  1  0  0  0  0
 15  5  1  0  0  0  0
 16 13  2  0  0  0  0
 16  3  1  0  0  0  0
 18  6  2  0  0  0  0
 19 15  1  0  0  0  0
 20 19  1  0  0  0  0
 21 22  1  0  0  0  0
 23 27  1  0  0  0  0
 23 24  1  1  0  0  0
 25 28  1  0  0  0  0
 25 30  1  1  0  0  0
 26 22  1  6  0  0  0
 26 25  1  0  0  0  0
 26 28  1  0  0  0  0
 28 23  1  0  0  0  0
 28 27  1  1  0  0  0
 30 29  1  0  0  0  0
 31 32  1  0  0  0  0
 31 23  1  0  0  0  0
M  END
>  <MODEL>
9

>  <REMARK>
 VINA RESULT:      -6.9      2.522      6.591
  Name = 
  6 active torsions:
  status: ('A' for Active; 'I' for Inactive)
    1  A    between atoms: C_1  and  O_27
    2  A    between atoms: C_3  and  C_22
    3  A    between atoms: C_13  and  N_29
    4  A    between atoms: C_15  and  C_26
    5  A    between atoms: C_16  and  C_24
    6  A    between atoms: C_24  and  O_27
                            x       y       z     vdW  Elec       q    Type
                         _______ _______ _______ _____ _____    ______ ____

>  <TORSDO>
F 6

$$$$
