=
 OpenBabel11052420263D

 34 40  0  0  1  0  0  0  0  0999 V2000
  188.7810  175.5500  144.2570 C   0  0  0  0  0  0  0  0  0  0  0  0
  187.4450  176.1310  140.9070 C   0  0  0  0  0  2  0  0  0  0  0  0
  192.8240  177.2180  145.7810 C   0  0  0  0  0  3  0  0  0  0  0  0
  188.6540  174.4180  142.3630 C   0  0  0  0  0  0  0  0  0  0  0  0
  192.7140  174.3600  146.4500 C   0  0  0  0  0  2  0  0  0  0  0  0
  195.6470  175.8670  143.6710 C   0  0  0  0  0  0  0  0  0  0  0  0
  190.1380  174.7800  146.1880 C   0  0  2  0  0  0  0  0  0  0  0  0
  189.0980  175.8180  145.6990 C   0  0  0  0  0  2  0  0  0  0  0  0
  189.6840  173.2670  144.2260 C   0  0  0  0  0  0  0  0  0  0  0  0
  189.8690  172.1390  143.4060 C   0  0  0  0  0  3  0  0  0  0  0  0
  194.7440  176.7490  144.2800 C   0  0  0  0  0  3  0  0  0  0  0  0
  193.7710  176.2720  145.1620 C   0  0  0  0  0  0  0  0  0  0  0  0
  190.0580  173.3140  145.6840 C   0  0  0  0  0  2  0  0  0  0  0  0
  190.5150  174.9160  147.6540 C   0  0  0  0  0  2  0  0  0  0  0  0
  188.8270  173.3250  141.5120 C   0  0  0  0  0  3  0  0  0  0  0  0
  189.0620  174.3630  143.6580 C   0  0  0  0  0  0  0  0  0  0  0  0
  189.4450  172.1720  142.0530 C   0  0  0  0  0  3  0  0  0  0  0  0
  187.2070  177.6340  140.8330 C   0  0  0  0  0  2  0  0  0  0  0  0
  186.1500  178.0410  141.8150 C   0  0  0  0  0  0  0  0  0  0  0  0
  194.6030  174.0120  144.8450 C   0  0  0  0  0  3  0  0  0  0  0  0
  186.4330  178.0750  143.1180 C   0  0  0  0  0  3  0  0  0  0  0  0
  193.6970  174.8910  145.4450 C   0  0  0  0  0  0  0  0  0  0  0  0
  195.5690  174.4970  143.9590 C   0  0  0  0  0  3  0  0  0  0  0  0
  191.5150  175.3040  146.5780 C   0  0  1  0  0  0  0  0  0  0  0  0
  191.7700  176.7800  146.4710 C   0  0  0  0  0  3  0  0  0  0  0  0
  188.1070  175.6790  142.1820 C   0  0  0  0  0  0  0  0  0  0  0  0
  187.8000  177.7550  143.6400 C   0  0  0  0  0  2  0  0  0  0  0  0
  188.1660  176.3650  143.3690 N   0  0  0  0  0  0  0  0  0  0  0  0
  184.7880  178.3490  141.3410 C   0  0  0  0  0  0  0  0  0  0  0  0
  183.6850  178.2900  142.2410 N   0  0  0  0  0  1  0  0  0  0  0  0
  184.5850  178.6660  140.1380 O   0  0  0  0  0  0  0  0  0  0  0  0
  196.6680  176.3740  142.7380 C   0  0  0  0  0  0  0  0  0  0  0  0
  197.8750  176.4440  143.0920 O   0  0  0  0  0  0  0  0  0  0  0  0
  196.3020  176.7910  141.4250 N   0  0  0  0  0  1  0  0  0  0  0  0
  1  8  1  0  0  0  0
  2 26  1  0  0  0  0
  3 25  2  0  0  0  0
  4 16  1  0  0  0  0
  6 23  2  0  0  0  0
  6 11  1  0  0  0  0
  7 13  1  6  0  0  0
  7 24  1  0  0  0  0
  7 14  1  0  0  0  0
  8  7  1  0  0  0  0
  9 13  1  0  0  0  0
 10  9  2  0  0  0  0
 11 12  2  0  0  0  0
 12 22  1  0  0  0  0
 12  3  1  0  0  0  0
 15 17  2  0  0  0  0
 15  4  1  0  0  0  0
 16  9  1  0  0  0  0
 16  1  2  0  0  0  0
 17 10  1  0  0  0  0
 18  2  1  0  0  0  0
 18 19  1  0  0  0  0
 19 21  2  0  0  0  0
 20 22  2  0  0  0  0
 21 27  1  0  0  0  0
 22  5  1  0  0  0  0
 23 20  1  0  0  0  0
 24  5  1  6  0  0  0
 24 14  1  0  0  0  0
 25 24  1  0  0  0  0
 26  4  2  0  0  0  0
 26 28  1  0  0  0  0
 28 27  1  0  0  0  0
 28  1  1  0  0  0  0
 29 19  1  0  0  0  0
 29 30  1  0  0  0  0
 31 29  2  0  0  0  0
 32 33  2  0  0  0  0
 32  6  1  0  0  0  0
 34 32  1  0  0  0  0
M  END
>  <MODEL>
1

>  <REMARK>
 VINA RESULT:      -8.8      0.000      0.000
  Name = 
  2 active torsions:
  status: ('A' for Active; 'I' for Inactive)
    1  A    between atoms: C_3  and  C_25
    2  A    between atoms: C_7  and  C_11
                            x       y       z     vdW  Elec       q    Type
                         _______ _______ _______ _____ _____    ______ ____

>  <TORSDO>
F 2

$$$$
=
 OpenBabel11052420263D

 34 40  0  0  1  0  0  0  0  0999 V2000
  189.1180  175.5680  144.3410 C   0  0  0  0  0  0  0  0  0  0  0  0
  187.3680  175.9200  141.1540 C   0  0  0  0  0  2  0  0  0  0  0  0
  193.4410  177.0350  145.1210 C   0  0  0  0  0  3  0  0  0  0  0  0
  188.6490  174.2660  142.6180 C   0  0  0  0  0  0  0  0  0  0  0  0
  193.2290  174.2780  146.1110 C   0  0  0  0  0  2  0  0  0  0  0  0
  195.8390  175.2480  142.8180 C   0  0  0  0  0  0  0  0  0  0  0  0
  190.6780  174.8840  146.1490 C   0  0  2  0  0  0  0  0  0  0  0  0
  189.6530  175.9510  145.6900 C   0  0  0  0  0  2  0  0  0  0  0  0
  189.8480  173.2250  144.4440 C   0  0  0  0  0  0  0  0  0  0  0  0
  189.8370  172.0100  143.7360 C   0  0  0  0  0  3  0  0  0  0  0  0
  195.0940  176.2590  143.4400 C   0  0  0  0  0  3  0  0  0  0  0  0
  194.2250  175.9560  144.4900 C   0  0  0  0  0  0  0  0  0  0  0  0
  190.4260  173.3870  145.8250 C   0  0  0  0  0  2  0  0  0  0  0  0
  191.2660  175.1340  147.5270 C   0  0  0  0  0  2  0  0  0  0  0  0
  188.6230  173.0830  141.8780 C   0  0  0  0  0  3  0  0  0  0  0  0
  189.2300  174.3070  143.8450 C   0  0  0  0  0  0  0  0  0  0  0  0
  189.2300  171.9420  142.4560 C   0  0  0  0  0  3  0  0  0  0  0  0
  187.2260  177.4220  140.9460 C   0  0  0  0  0  2  0  0  0  0  0  0
  186.3490  178.0130  142.0090 C   0  0  0  0  0  0  0  0  0  0  0  0
  194.8450  173.6140  144.3190 C   0  0  0  0  0  3  0  0  0  0  0  0
  186.8140  178.1530  143.2510 C   0  0  0  0  0  3  0  0  0  0  0  0
  194.0950  174.6210  144.9320 C   0  0  0  0  0  0  0  0  0  0  0  0
  195.7080  173.9250  143.2640 C   0  0  0  0  0  3  0  0  0  0  0  0
  192.1290  175.3270  146.2910 C   0  0  1  0  0  0  0  0  0  0  0  0
  192.4670  176.7590  145.9890 C   0  0  0  0  0  3  0  0  0  0  0  0
  188.1700  175.5440  142.3720 C   0  0  0  0  0  0  0  0  0  0  0  0
  188.2150  177.7740  143.6190 C   0  0  0  0  0  2  0  0  0  0  0  0
  188.4430  176.3380  143.4570 N   0  0  0  0  0  0  0  0  0  0  0  0
  184.9580  178.3840  141.6880 C   0  0  0  0  0  0  0  0  0  0  0  0
  184.5860  178.6810  140.3460 N   0  0  0  0  0  1  0  0  0  0  0  0
  184.0860  178.4440  142.5970 O   0  0  0  0  0  0  0  0  0  0  0  0
  196.7510  175.5710  141.7070 C   0  0  0  0  0  0  0  0  0  0  0  0
  196.5750  176.6140  141.0210 O   0  0  0  0  0  0  0  0  0  0  0  0
  197.8420  174.7100  141.3950 N   0  0  0  0  0  1  0  0  0  0  0  0
  1  8  1  0  0  0  0
  2 26  1  0  0  0  0
  3 25  2  0  0  0  0
  4 16  1  0  0  0  0
  5 24  1  0  0  0  0
  6 23  2  0  0  0  0
  6 11  1  0  0  0  0
  7  8  1  6  0  0  0
  7 24  1  0  0  0  0
  7 14  1  0  0  0  0
  9 13  1  0  0  0  0
 10  9  2  0  0  0  0
 11 12  2  0  0  0  0
 12 22  1  0  0  0  0
 12  3  1  0  0  0  0
 13  7  1  0  0  0  0
 15 17  2  0  0  0  0
 15  4  1  0  0  0  0
 16  1  2  0  0  0  0
 16  9  1  0  0  0  0
 17 10  1  0  0  0  0
 18  2  1  0  0  0  0
 18 19  1  0  0  0  0
 19 21  2  0  0  0  0
 20 22  2  0  0  0  0
 21 27  1  0  0  0  0
 22  5  1  0  0  0  0
 23 20  1  0  0  0  0
 24 25  1  6  0  0  0
 24 14  1  0  0  0  0
 26  4  2  0  0  0  0
 26 28  1  0  0  0  0
 28 27  1  0  0  0  0
 28  1  1  0  0  0  0
 29 19  1  0  0  0  0
 29 31  2  0  0  0  0
 30 29  1  0  0  0  0
 32  6  1  0  0  0  0
 33 32  2  0  0  0  0
 34 32  1  0  0  0  0
M  END
>  <MODEL>
2

>  <REMARK>
 VINA RESULT:      -8.6      1.011      1.026
  Name = 
  2 active torsions:
  status: ('A' for Active; 'I' for Inactive)
    1  A    between atoms: C_3  and  C_25
    2  A    between atoms: C_7  and  C_11
                            x       y       z     vdW  Elec       q    Type
                         _______ _______ _______ _____ _____    ______ ____

>  <TORSDO>
F 2

$$$$
=
 OpenBabel11052420263D

 34 40  0  0  1  0  0  0  0  0999 V2000
  191.0530  176.7460  144.5750 C   0  0  0  0  0  0  0  0  0  0  0  0
  187.4860  176.0390  144.2270 C   0  0  0  0  0  2  0  0  0  0  0  0
  194.4160  174.2350  142.6190 C   0  0  0  0  0  3  0  0  0  0  0  0
  189.4810  175.7920  145.8010 C   0  0  0  0  0  0  0  0  0  0  0  0
  195.1130  174.6360  145.4440 C   0  0  0  0  0  2  0  0  0  0  0  0
  194.2880  170.6900  143.9110 C   0  0  0  0  0  0  0  0  0  0  0  0
  193.4600  176.6540  145.1790 C   0  0  2  0  0  0  0  0  0  0  0  0
  192.4120  177.2770  144.2240 C   0  0  0  0  0  2  0  0  0  0  0  0
  191.6780  175.9290  146.8050 C   0  0  0  0  0  0  0  0  0  0  0  0
  191.1720  175.3020  147.9580 C   0  0  0  0  0  3  0  0  0  0  0  0
  194.2440  171.7970  143.0520 C   0  0  0  0  0  3  0  0  0  0  0  0
  194.4820  173.0840  143.5390 C   0  0  0  0  0  0  0  0  0  0  0  0
  193.0970  176.4160  146.6690 C   0  0  0  0  0  2  0  0  0  0  0  0
  194.8810  177.1450  144.9530 C   0  0  0  0  0  2  0  0  0  0  0  0
  188.9400  175.1590  146.9210 C   0  0  0  0  0  3  0  0  0  0  0  0
  190.7890  176.1590  145.7720 C   0  0  0  0  0  0  0  0  0  0  0  0
  189.8090  174.9160  148.0120 C   0  0  0  0  0  3  0  0  0  0  0  0
  187.1900  176.2280  142.7440 C   0  0  0  0  0  2  0  0  0  0  0  0
  187.4060  177.6580  142.3500 C   0  0  0  0  0  0  0  0  0  0  0  0
  194.8280  172.1700  145.7630 C   0  0  0  0  0  3  0  0  0  0  0  0
  188.6460  178.1360  142.2390 C   0  0  0  0  0  3  0  0  0  0  0  0
  194.7730  173.2740  144.9080 C   0  0  0  0  0  0  0  0  0  0  0  0
  194.5820  170.8860  145.2690 C   0  0  0  0  0  3  0  0  0  0  0  0
  194.5010  175.7270  144.5620 C   0  0  1  0  0  0  0  0  0  0  0  0
  194.4480  175.4850  143.0810 C   0  0  0  0  0  3  0  0  0  0  0  0
  188.9430  176.1750  144.5810 C   0  0  0  0  0  0  0  0  0  0  0  0
  189.8500  177.2730  142.4590 C   0  0  0  0  0  2  0  0  0  0  0  0
  189.9190  176.7900  143.8380 N   0  0  0  0  0  0  0  0  0  0  0  0
  186.2450  178.5430  142.1400 C   0  0  0  0  0  0  0  0  0  0  0  0
  185.4540  178.4210  140.9620 N   0  0  0  0  0  1  0  0  0  0  0  0
  185.9410  179.4160  142.9990 O   0  0  0  0  0  0  0  0  0  0  0  0
  194.0310  169.3350  143.3930 C   0  0  0  0  0  0  0  0  0  0  0  0
  194.9720  168.6470  142.9140 O   0  0  0  0  0  0  0  0  0  0  0  0
  192.7160  168.7870  143.4290 N   0  0  0  0  0  1  0  0  0  0  0  0
  1 16  2  0  0  0  0
  2 26  1  0  0  0  0
  3 25  2  0  0  0  0
  3 12  1  0  0  0  0
  4 15  1  0  0  0  0
  6 23  1  0  0  0  0
  7  8  1  6  0  0  0
  7 13  1  0  0  0  0
  8  1  1  0  0  0  0
  9 10  2  0  0  0  0
 10 17  1  0  0  0  0
 11 12  1  0  0  0  0
 11  6  2  0  0  0  0
 12 22  2  0  0  0  0
 13  9  1  0  0  0  0
 14  7  1  0  0  0  0
 15 17  2  0  0  0  0
 16  4  1  0  0  0  0
 16  9  1  0  0  0  0
 18  2  1  0  0  0  0
 19 18  1  0  0  0  0
 21 19  2  0  0  0  0
 21 27  1  0  0  0  0
 22  5  1  0  0  0  0
 22 20  1  0  0  0  0
 23 20  2  0  0  0  0
 24 25  1  6  0  0  0
 24 14  1  0  0  0  0
 24  7  1  0  0  0  0
 24  5  1  0  0  0  0
 26  4  2  0  0  0  0
 27 28  1  0  0  0  0
 28  1  1  0  0  0  0
 28 26  1  0  0  0  0
 29 19  1  0  0  0  0
 29 31  2  0  0  0  0
 30 29  1  0  0  0  0
 32 34  1  0  0  0  0
 32  6  1  0  0  0  0
 33 32  2  0  0  0  0
M  END
>  <MODEL>
3

>  <REMARK>
 VINA RESULT:      -8.3      2.791      4.404
  Name = 
  2 active torsions:
  status: ('A' for Active; 'I' for Inactive)
    1  A    between atoms: C_3  and  C_25
    2  A    between atoms: C_7  and  C_11
                            x       y       z     vdW  Elec       q    Type
                         _______ _______ _______ _____ _____    ______ ____

>  <TORSDO>
F 2

$$$$
=
 OpenBabel11052420263D

 34 40  0  0  1  0  0  0  0  0999 V2000
  191.1820  176.6730  143.9600 C   0  0  0  0  0  0  0  0  0  0  0  0
  187.7050  176.5980  145.0760 C   0  0  0  0  0  2  0  0  0  0  0  0
  193.3510  173.1180  141.9340 C   0  0  0  0  0  3  0  0  0  0  0  0
  190.1220  176.4180  145.8820 C   0  0  0  0  0  0  0  0  0  0  0  0
  195.0930  174.1450  144.0650 C   0  0  0  0  0  2  0  0  0  0  0  0
  193.4460  170.1650  144.2840 C   0  0  0  0  0  0  0  0  0  0  0  0
  193.6240  176.2900  143.7190 C   0  0  2  0  0  0  0  0  0  0  0  0
  192.3440  176.8130  143.0200 C   0  0  0  0  0  2  0  0  0  0  0  0
  192.5390  176.4020  145.9890 C   0  0  0  0  0  0  0  0  0  0  0  0
  192.4590  176.2290  147.3830 C   0  0  0  0  0  3  0  0  0  0  0  0
  193.1660  170.9770  143.1760 C   0  0  0  0  0  3  0  0  0  0  0  0
  193.6700  172.2770  143.1030 C   0  0  0  0  0  0  0  0  0  0  0  0
  193.8340  176.5490  145.2340 C   0  0  0  0  0  2  0  0  0  0  0  0
  194.8880  176.4160  142.8830 C   0  0  0  0  0  2  0  0  0  0  0  0
  189.9970  176.2380  147.2600 C   0  0  0  0  0  3  0  0  0  0  0  0
  191.3460  176.5040  145.2990 C   0  0  0  0  0  0  0  0  0  0  0  0
  191.1910  176.1440  148.0140 C   0  0  0  0  0  3  0  0  0  0  0  0
  186.8870  176.4220  143.8040 C   0  0  0  0  0  2  0  0  0  0  0  0
  187.0470  177.6170  142.9130 C   0  0  0  0  0  0  0  0  0  0  0  0
  194.7590  171.9670  145.2520 C   0  0  0  0  0  3  0  0  0  0  0  0
  188.1870  177.7970  142.2440 C   0  0  0  0  0  3  0  0  0  0  0  0
  194.4710  172.7800  144.1530 C   0  0  0  0  0  0  0  0  0  0  0  0
  194.2450  170.6690  145.3210 C   0  0  0  0  0  3  0  0  0  0  0  0
  194.2790  175.0450  143.1310 C   0  0  1  0  0  0  0  0  0  0  0  0
  193.6520  174.4170  141.9200 C   0  0  0  0  0  3  0  0  0  0  0  0
  189.1940  176.5440  144.8580 C   0  0  0  0  0  0  0  0  0  0  0  0
  189.3130  176.8140  142.3200 C   0  0  0  0  0  2  0  0  0  0  0  0
  189.8610  176.7280  143.6730 N   0  0  0  0  0  0  0  0  0  0  0  0
  185.9660  178.6160  142.8240 C   0  0  0  0  0  0  0  0  0  0  0  0
  185.7500  179.5360  143.8900 N   0  0  0  0  0  1  0  0  0  0  0  0
  185.2230  178.6660  141.8070 O   0  0  0  0  0  0  0  0  0  0  0  0
  192.9080  168.7960  144.3580 C   0  0  0  0  0  0  0  0  0  0  0  0
  192.9190  168.1660  145.4500 O   0  0  0  0  0  0  0  0  0  0  0  0
  192.3690  168.1680  143.1980 N   0  0  0  0  0  1  0  0  0  0  0  0
  1 16  2  0  0  0  0
  3 12  1  0  0  0  0
  4 15  1  0  0  0  0
  5 22  1  0  0  0  0
  6 32  1  0  0  0  0
  6 23  1  0  0  0  0
  7 14  1  6  0  0  0
  7 13  1  0  0  0  0
  8  7  1  0  0  0  0
  8  1  1  0  0  0  0
  9 10  2  0  0  0  0
 10 17  1  0  0  0  0
 11  6  2  0  0  0  0
 12 11  1  0  0  0  0
 12 22  2  0  0  0  0
 13  9  1  0  0  0  0
 14 24  1  0  0  0  0
 15 17  2  0  0  0  0
 16  4  1  0  0  0  0
 16  9  1  0  0  0  0
 18  2  1  0  0  0  0
 19 18  1  0  0  0  0
 20 23  2  0  0  0  0
 21 27  1  0  0  0  0
 21 19  2  0  0  0  0
 22 20  1  0  0  0  0
 24 25  1  6  0  0  0
 24  7  1  0  0  0  0
 24  5  1  0  0  0  0
 25  3  2  0  0  0  0
 26  2  1  0  0  0  0
 26  4  2  0  0  0  0
 27 28  1  0  0  0  0
 28  1  1  0  0  0  0
 28 26  1  0  0  0  0
 29 19  1  0  0  0  0
 29 30  1  0  0  0  0
 31 29  2  0  0  0  0
 32 33  2  0  0  0  0
 34 32  1  0  0  0  0
M  END
>  <MODEL>
4

>  <REMARK>
 VINA RESULT:      -8.2      3.135      5.010
  Name = 
  2 active torsions:
  status: ('A' for Active; 'I' for Inactive)
    1  A    between atoms: C_3  and  C_25
    2  A    between atoms: C_7  and  C_11
                            x       y       z     vdW  Elec       q    Type
                         _______ _______ _______ _____ _____    ______ ____

>  <TORSDO>
F 2

$$$$
=
 OpenBabel11052420263D

 34 40  0  0  1  0  0  0  0  0999 V2000
  191.8880  175.3270  144.0670 C   0  0  0  0  0  0  0  0  0  0  0  0
  189.9020  176.4510  146.9200 C   0  0  0  0  0  2  0  0  0  0  0  0
  193.2180  170.9450  143.3770 C   0  0  0  0  0  3  0  0  0  0  0  0
  192.2770  176.3490  145.9880 C   0  0  0  0  0  0  0  0  0  0  0  0
  195.5670  172.6710  143.0160 C   0  0  0  0  0  2  0  0  0  0  0  0
  195.4060  169.8020  146.2320 C   0  0  0  0  0  0  0  0  0  0  0  0
  193.7120  174.4790  142.6100 C   0  0  2  0  0  0  0  0  0  0  0  0
  192.1880  174.7340  142.7210 C   0  0  0  0  0  2  0  0  0  0  0  0
  194.1990  175.9970  144.5600 C   0  0  0  0  0  0  0  0  0  0  0  0
  195.0070  176.6350  145.5180 C   0  0  0  0  0  3  0  0  0  0  0  0
  194.3360  169.9040  145.3330 C   0  0  0  0  0  3  0  0  0  0  0  0
  194.3620  170.8470  144.3030 C   0  0  0  0  0  0  0  0  0  0  0  0
  194.7090  175.4890  143.2370 C   0  0  0  0  0  2  0  0  0  0  0  0
  194.1540  173.9150  141.2700 C   0  0  0  0  0  2  0  0  0  0  0  0
  193.0440  176.9790  146.9690 C   0  0  0  0  0  3  0  0  0  0  0  0
  192.8490  175.8970  144.8410 C   0  0  0  0  0  0  0  0  0  0  0  0
  194.4300  177.1200  146.7200 C   0  0  0  0  0  3  0  0  0  0  0  0
  188.5630  175.7420  146.7710 C   0  0  0  0  0  2  0  0  0  0  0  0
  187.8650  176.2050  145.5270 C   0  0  0  0  0  0  0  0  0  0  0  0
  196.5480  171.5950  145.0520 C   0  0  0  0  0  3  0  0  0  0  0  0
  188.2980  175.7970  144.3330 C   0  0  0  0  0  3  0  0  0  0  0  0
  195.4760  171.7030  144.1620 C   0  0  0  0  0  0  0  0  0  0  0  0
  196.5110  170.6540  146.0850 C   0  0  0  0  0  3  0  0  0  0  0  0
  194.1690  173.0290  142.5040 C   0  0  1  0  0  0  0  0  0  0  0  0
  193.1230  171.9520  142.5070 C   0  0  0  0  0  3  0  0  0  0  0  0
  190.9280  176.0420  145.8950 C   0  0  0  0  0  0  0  0  0  0  0  0
  189.4470  174.8480  144.1890 C   0  0  0  0  0  2  0  0  0  0  0  0
  190.6920  175.4320  144.6890 N   0  0  0  0  0  0  0  0  0  0  0  0
  186.7390  177.1520  145.6270 C   0  0  0  0  0  0  0  0  0  0  0  0
  185.7010  176.9340  146.5770 N   0  0  0  0  0  1  0  0  0  0  0  0
  186.6840  178.1620  144.8740 O   0  0  0  0  0  0  0  0  0  0  0  0
  195.3720  168.8100  147.3210 C   0  0  0  0  0  0  0  0  0  0  0  0
  194.2750  168.3190  147.7000 O   0  0  0  0  0  0  0  0  0  0  0  0
  196.5780  168.3940  147.9560 N   0  0  0  0  0  1  0  0  0  0  0  0
  1 28  1  0  0  0  0
  1 16  2  0  0  0  0
  3 12  1  0  0  0  0
  4 15  1  0  0  0  0
  5 22  1  0  0  0  0
  6 32  1  0  0  0  0
  7 14  1  6  0  0  0
  7  8  1  0  0  0  0
  7 13  1  0  0  0  0
  8  1  1  0  0  0  0
  9 16  1  0  0  0  0
  9 10  2  0  0  0  0
 10 17  1  0  0  0  0
 11  6  2  0  0  0  0
 12 11  1  0  0  0  0
 13  9  1  0  0  0  0
 16  4  1  0  0  0  0
 17 15  2  0  0  0  0
 18  2  1  0  0  0  0
 19 29  1  0  0  0  0
 19 18  1  0  0  0  0
 20 23  2  0  0  0  0
 21 19  2  0  0  0  0
 22 12  2  0  0  0  0
 22 20  1  0  0  0  0
 23  6  1  0  0  0  0
 24 14  1  6  0  0  0
 24 25  1  0  0  0  0
 24  7  1  0  0  0  0
 24  5  1  0  0  0  0
 25  3  2  0  0  0  0
 26  4  2  0  0  0  0
 26  2  1  0  0  0  0
 27 21  1  0  0  0  0
 27 28  1  0  0  0  0
 28 26  1  0  0  0  0
 29 30  1  0  0  0  0
 31 29  2  0  0  0  0
 32 33  2  0  0  0  0
 32 34  1  0  0  0  0
M  END
>  <MODEL>
5

>  <REMARK>
 VINA RESULT:      -8.1      3.713      6.016
  Name = 
  2 active torsions:
  status: ('A' for Active; 'I' for Inactive)
    1  A    between atoms: C_3  and  C_25
    2  A    between atoms: C_7  and  C_11
                            x       y       z     vdW  Elec       q    Type
                         _______ _______ _______ _____ _____    ______ ____

>  <TORSDO>
F 2

$$$$
=
 OpenBabel11052420263D

 34 40  0  0  1  0  0  0  0  0999 V2000
  192.0890  174.9940  144.8240 C   0  0  0  0  0  0  0  0  0  0  0  0
  188.8070  175.3760  143.2650 C   0  0  0  0  0  2  0  0  0  0  0  0
  196.0450  176.5680  143.0020 C   0  0  0  0  0  3  0  0  0  0  0  0
  190.7160  173.7230  143.6480 C   0  0  0  0  0  0  0  0  0  0  0  0
  196.4730  173.7800  143.8250 C   0  0  0  0  0  2  0  0  0  0  0  0
  196.6700  174.9120  139.6680 C   0  0  0  0  0  0  0  0  0  0  0  0
  194.4150  174.3090  145.3620 C   0  0  2  0  0  0  0  0  0  0  0  0
  193.3050  175.3570  145.6250 C   0  0  0  0  0  2  0  0  0  0  0  0
  192.7630  172.6720  144.3950 C   0  0  0  0  0  0  0  0  0  0  0  0
  192.3530  171.4750  143.7790 C   0  0  0  0  0  3  0  0  0  0  0  0
  196.4180  175.8840  140.6450 C   0  0  0  0  0  3  0  0  0  0  0  0
  196.3250  175.5290  141.9930 C   0  0  0  0  0  0  0  0  0  0  0  0
  194.0360  172.8150  145.1880 C   0  0  0  0  0  2  0  0  0  0  0  0
  195.6930  174.5410  146.1500 C   0  0  0  0  0  2  0  0  0  0  0  0
  190.2750  172.5590  143.0150 C   0  0  0  0  0  3  0  0  0  0  0  0
  191.9030  173.7500  144.3090 C   0  0  0  0  0  0  0  0  0  0  0  0
  191.1150  171.4220  143.0900 C   0  0  0  0  0  3  0  0  0  0  0  0
  188.5580  176.8790  143.2360 C   0  0  0  0  0  2  0  0  0  0  0  0
  188.4580  177.4150  144.6330 C   0  0  0  0  0  0  0  0  0  0  0  0
  196.7500  173.2110  141.4030 C   0  0  0  0  0  3  0  0  0  0  0  0
  189.5580  177.5370  145.3770 C   0  0  0  0  0  3  0  0  0  0  0  0
  196.4880  174.1790  142.3760 C   0  0  0  0  0  0  0  0  0  0  0  0
  196.8350  173.5740  140.0560 C   0  0  0  0  0  3  0  0  0  0  0  0
  195.6740  174.7920  144.6510 C   0  0  1  0  0  0  0  0  0  0  0  0
  195.7610  176.2400  144.2630 C   0  0  0  0  0  3  0  0  0  0  0  0
  190.1720  174.9930  143.7750 C   0  0  0  0  0  0  0  0  0  0  0  0
  190.9150  177.1900  144.8470 C   0  0  0  0  0  2  0  0  0  0  0  0
  191.0180  175.7660  144.5290 N   0  0  0  0  0  0  0  0  0  0  0  0
  187.1370  177.7540  145.1950 C   0  0  0  0  0  0  0  0  0  0  0  0
  186.6030  176.9980  146.2780 N   0  0  0  0  0  1  0  0  0  0  0  0
  186.4680  178.7130  144.7240 O   0  0  0  0  0  0  0  0  0  0  0  0
  196.7630  175.2910  138.2470 C   0  0  0  0  0  0  0  0  0  0  0  0
  197.8680  175.6410  137.7520 O   0  0  0  0  0  0  0  0  0  0  0  0
  195.6050  175.2660  137.4170 N   0  0  0  0  0  1  0  0  0  0  0  0
  1  8  1  0  0  0  0
  2 26  1  0  0  0  0
  3 25  2  0  0  0  0
  4 26  2  0  0  0  0
  4 16  1  0  0  0  0
  6 23  2  0  0  0  0
  6 11  1  0  0  0  0
  7 13  1  6  0  0  0
  7  8  1  0  0  0  0
  7 14  1  0  0  0  0
  9 13  1  0  0  0  0
 10  9  2  0  0  0  0
 11 12  2  0  0  0  0
 12 22  1  0  0  0  0
 12  3  1  0  0  0  0
 15 17  2  0  0  0  0
 15  4  1  0  0  0  0
 16  9  1  0  0  0  0
 16  1  2  0  0  0  0
 17 10  1  0  0  0  0
 18  2  1  0  0  0  0
 18 19  1  0  0  0  0
 19 29  1  0  0  0  0
 19 21  2  0  0  0  0
 20 22  2  0  0  0  0
 22  5  1  0  0  0  0
 23 20  1  0  0  0  0
 24  5  1  6  0  0  0
 24  7  1  0  0  0  0
 24 14  1  0  0  0  0
 25 24  1  0  0  0  0
 26 28  1  0  0  0  0
 27 21  1  0  0  0  0
 28  1  1  0  0  0  0
 28 27  1  0  0  0  0
 29 30  1  0  0  0  0
 31 29  2  0  0  0  0
 32  6  1  0  0  0  0
 33 32  2  0  0  0  0
 34 32  1  0  0  0  0
M  END
>  <MODEL>
6

>  <REMARK>
 VINA RESULT:      -7.9      2.523      3.973
  Name = 
  2 active torsions:
  status: ('A' for Active; 'I' for Inactive)
    1  A    between atoms: C_3  and  C_25
    2  A    between atoms: C_7  and  C_11
                            x       y       z     vdW  Elec       q    Type
                         _______ _______ _______ _____ _____    ______ ____

>  <TORSDO>
F 2

$$$$
=
 OpenBabel11052420263D

 34 40  0  0  1  0  0  0  0  0999 V2000
  189.6990  173.7130  144.0950 C   0  0  0  0  0  0  0  0  0  0  0  0
  187.8560  176.8600  143.8760 C   0  0  0  0  0  2  0  0  0  0  0  0
  194.3140  173.4000  144.3080 C   0  0  0  0  0  3  0  0  0  0  0  0
  188.7060  174.8810  142.5030 C   0  0  0  0  0  0  0  0  0  0  0  0
  193.3720  171.5130  142.2630 C   0  0  0  0  0  2  0  0  0  0  0  0
  195.8460  174.8780  141.1900 C   0  0  0  0  0  0  0  0  0  0  0  0
  191.1360  171.7460  143.6130 C   0  0  2  0  0  0  0  0  0  0  0  0
  190.4430  172.5720  144.7250 C   0  0  0  0  0  2  0  0  0  0  0  0
  189.6950  172.7800  141.8230 C   0  0  0  0  0  0  0  0  0  0  0  0
  189.2560  173.0180  140.5080 C   0  0  0  0  0  3  0  0  0  0  0  0
  195.4990  174.6660  142.5320 C   0  0  0  0  0  3  0  0  0  0  0  0
  194.6770  173.5950  142.8910 C   0  0  0  0  0  0  0  0  0  0  0  0
  190.4170  171.5310  142.2540 C   0  0  0  0  0  2  0  0  0  0  0  0
  191.8930  170.5290  144.1180 C   0  0  0  0  0  2  0  0  0  0  0  0
  188.2600  175.1610  141.2110 C   0  0  0  0  0  3  0  0  0  0  0  0
  189.3810  173.7330  142.7740 C   0  0  0  0  0  0  0  0  0  0  0  0
  188.5440  174.2070  140.2050 C   0  0  0  0  0  3  0  0  0  0  0  0
  188.1550  177.5830  145.1820 C   0  0  0  0  0  2  0  0  0  0  0  0
  187.5950  176.8140  146.3410 C   0  0  0  0  0  0  0  0  0  0  0  0
  194.5460  172.9230  140.5610 C   0  0  0  0  0  3  0  0  0  0  0  0
  188.1910  175.6900  146.7410 C   0  0  0  0  0  3  0  0  0  0  0  0
  194.1920  172.7170  141.8970 C   0  0  0  0  0  0  0  0  0  0  0  0
  195.3640  174.0000  140.2080 C   0  0  0  0  0  3  0  0  0  0  0  0
  192.6600  171.7350  143.6000 C   0  0  1  0  0  0  0  0  0  0  0  0
  193.3850  172.5120  144.6620 C   0  0  0  0  0  3  0  0  0  0  0  0
  188.6140  175.5700  143.7040 C   0  0  0  0  0  0  0  0  0  0  0  0
  189.4400  175.1810  146.0910 C   0  0  0  0  0  2  0  0  0  0  0  0
  189.2090  174.8250  144.6910 N   0  0  0  0  0  0  0  0  0  0  0  0
  186.3580  177.2750  146.9980 C   0  0  0  0  0  0  0  0  0  0  0  0
  185.0880  176.8520  146.5130 N   0  0  0  0  0  1  0  0  0  0  0  0
  186.4110  178.0470  147.9930 O   0  0  0  0  0  0  0  0  0  0  0  0
  196.7100  176.0110  140.8150 C   0  0  0  0  0  0  0  0  0  0  0  0
  196.4760  177.1660  141.2630 O   0  0  0  0  0  0  0  0  0  0  0  0
  197.8190  175.8150  139.9420 N   0  0  0  0  0  1  0  0  0  0  0  0
  1 28  1  0  0  0  0
  1  8  1  0  0  0  0
  2 18  1  0  0  0  0
  3 25  2  0  0  0  0
  4 16  1  0  0  0  0
  4 26  2  0  0  0  0
  6 11  1  0  0  0  0
  7 13  1  6  0  0  0
  7 14  1  0  0  0  0
  7  8  1  0  0  0  0
  9 13  1  0  0  0  0
  9 16  1  0  0  0  0
 10  9  2  0  0  0  0
 11 12  2  0  0  0  0
 12  3  1  0  0  0  0
 15  4  1  0  0  0  0
 16  1  2  0  0  0  0
 17 10  1  0  0  0  0
 17 15  2  0  0  0  0
 18 19  1  0  0  0  0
 19 21  2  0  0  0  0
 19 29  1  0  0  0  0
 20 22  2  0  0  0  0
 22  5  1  0  0  0  0
 22 12  1  0  0  0  0
 23 20  1  0  0  0  0
 23  6  2  0  0  0  0
 24  5  1  6  0  0  0
 24  7  1  0  0  0  0
 24 14  1  0  0  0  0
 24 25  1  0  0  0  0
 26  2  1  0  0  0  0
 26 28  1  0  0  0  0
 27 21  1  0  0  0  0
 28 27  1  0  0  0  0
 29 31  2  0  0  0  0
 30 29  1  0  0  0  0
 32  6  1  0  0  0  0
 32 33  2  0  0  0  0
 34 32  1  0  0  0  0
M  END
>  <MODEL>
7

>  <REMARK>
 VINA RESULT:      -7.7      2.565      3.914
  Name = 
  2 active torsions:
  status: ('A' for Active; 'I' for Inactive)
    1  A    between atoms: C_3  and  C_25
    2  A    between atoms: C_7  and  C_11
                            x       y       z     vdW  Elec       q    Type
                         _______ _______ _______ _____ _____    ______ ____

>  <TORSDO>
F 2

$$$$
=
 OpenBabel11052420263D

 34 40  0  0  1  0  0  0  0  0999 V2000
  190.3400  175.1440  143.9740 C   0  0  0  0  0  0  0  0  0  0  0  0
  187.7350  176.0930  141.5950 C   0  0  0  0  0  2  0  0  0  0  0  0
  194.8070  176.2900  143.5490 C   0  0  0  0  0  3  0  0  0  0  0  0
  189.2500  174.1680  142.3190 C   0  0  0  0  0  0  0  0  0  0  0  0
  194.6620  173.4170  144.1400 C   0  0  0  0  0  2  0  0  0  0  0  0
  196.2120  174.8210  140.3690 C   0  0  0  0  0  0  0  0  0  0  0  0
  192.3110  174.1070  145.0740 C   0  0  2  0  0  0  0  0  0  0  0  0
  191.2950  175.2750  145.1250 C   0  0  0  0  0  2  0  0  0  0  0  0
  190.8530  172.7900  143.4970 C   0  0  0  0  0  0  0  0  0  0  0  0
  190.5170  171.7120  142.6590 C   0  0  0  0  0  3  0  0  0  0  0  0
  195.7880  175.7420  141.3370 C   0  0  0  0  0  3  0  0  0  0  0  0
  195.2590  175.3020  142.5520 C   0  0  0  0  0  0  0  0  0  0  0  0
  191.8390  172.6960  144.6310 C   0  0  0  0  0  2  0  0  0  0  0  0
  193.3130  174.1000  146.2160 C   0  0  0  0  0  2  0  0  0  0  0  0
  188.8930  173.1270  141.4600 C   0  0  0  0  0  3  0  0  0  0  0  0
  190.1810  173.9810  143.2900 C   0  0  0  0  0  0  0  0  0  0  0  0
  189.5420  171.8830  141.6420 C   0  0  0  0  0  3  0  0  0  0  0  0
  187.6720  177.6130  141.6660 C   0  0  0  0  0  2  0  0  0  0  0  0
  187.2200  178.0510  143.0270 C   0  0  0  0  0  0  0  0  0  0  0  0
  195.5840  173.0000  141.8510 C   0  0  0  0  0  3  0  0  0  0  0  0
  188.0550  177.9640  144.0630 C   0  0  0  0  0  3  0  0  0  0  0  0
  195.1520  173.9180  142.8110 C   0  0  0  0  0  0  0  0  0  0  0  0
  196.1060  173.4480  140.6350 C   0  0  0  0  0  3  0  0  0  0  0  0
  193.7690  174.4630  144.8120 C   0  0  1  0  0  0  0  0  0  0  0  0
  194.1260  175.9110  144.6310 C   0  0  0  0  0  3  0  0  0  0  0  0
  188.8350  175.4870  142.4270 C   0  0  0  0  0  0  0  0  0  0  0  0
  189.4610  177.4730  143.9080 C   0  0  0  0  0  2  0  0  0  0  0  0
  189.4980  176.0770  143.4740 N   0  0  0  0  0  0  0  0  0  0  0  0
  185.8370  178.5250  143.2220 C   0  0  0  0  0  0  0  0  0  0  0  0
  185.5880  179.7420  143.9180 N   0  0  0  0  0  1  0  0  0  0  0  0
  184.8630  177.8600  142.7760 O   0  0  0  0  0  0  0  0  0  0  0  0
  196.7650  175.2900  139.0860 C   0  0  0  0  0  0  0  0  0  0  0  0
  197.9390  175.7450  139.0270 O   0  0  0  0  0  0  0  0  0  0  0  0
  195.9790  175.2340  137.8990 N   0  0  0  0  0  1  0  0  0  0  0  0
  1  8  1  0  0  0  0
  2 18  1  0  0  0  0
  2 26  1  0  0  0  0
  3 25  2  0  0  0  0
  4 26  2  0  0  0  0
  4 16  1  0  0  0  0
  6 23  2  0  0  0  0
  6 11  1  0  0  0  0
  7 13  1  6  0  0  0
  7  8  1  0  0  0  0
  7 14  1  0  0  0  0
  9 13  1  0  0  0  0
 10  9  2  0  0  0  0
 11 12  2  0  0  0  0
 12 22  1  0  0  0  0
 12  3  1  0  0  0  0
 15 17  2  0  0  0  0
 15  4  1  0  0  0  0
 16  9  1  0  0  0  0
 16  1  2  0  0  0  0
 17 10  1  0  0  0  0
 18 19  1  0  0  0  0
 19 29  1  0  0  0  0
 19 21  2  0  0  0  0
 20 22  2  0  0  0  0
 22  5  1  0  0  0  0
 23 20  1  0  0  0  0
 24  5  1  6  0  0  0
 24  7  1  0  0  0  0
 24 14  1  0  0  0  0
 25 24  1  0  0  0  0
 26 28  1  0  0  0  0
 27 21  1  0  0  0  0
 28 27  1  0  0  0  0
 28  1  1  0  0  0  0
 29 30  1  0  0  0  0
 31 29  2  0  0  0  0
 32  6  1  0  0  0  0
 33 32  2  0  0  0  0
 34 32  1  0  0  0  0
M  END
>  <MODEL>
8

>  <REMARK>
 VINA RESULT:      -7.7      1.913      2.547
  Name = 
  2 active torsions:
  status: ('A' for Active; 'I' for Inactive)
    1  A    between atoms: C_3  and  C_25
    2  A    between atoms: C_7  and  C_11
                            x       y       z     vdW  Elec       q    Type
                         _______ _______ _______ _____ _____    ______ ____

>  <TORSDO>
F 2

$$$$
=
 OpenBabel11052420263D

 34 40  0  0  1  0  0  0  0  0999 V2000
  192.0890  176.3680  143.6750 C   0  0  0  0  0  0  0  0  0  0  0  0
  188.9440  176.6640  145.5090 C   0  0  0  0  0  2  0  0  0  0  0  0
  193.8610  172.3670  142.1590 C   0  0  0  0  0  3  0  0  0  0  0  0
  191.4820  176.6210  145.7840 C   0  0  0  0  0  0  0  0  0  0  0  0
  195.9970  173.8380  143.5380 C   0  0  0  0  0  2  0  0  0  0  0  0
  194.5520  170.0800  145.0810 C   0  0  0  0  0  0  0  0  0  0  0  0
  194.4290  175.8720  143.0060 C   0  0  2  0  0  0  0  0  0  0  0  0
  193.0130  176.2420  142.4990 C   0  0  0  0  0  2  0  0  0  0  0  0
  193.8640  176.5670  145.3610 C   0  0  0  0  0  0  0  0  0  0  0  0
  194.0960  176.7440  146.7370 C   0  0  0  0  0  3  0  0  0  0  0  0
  194.0130  170.6020  143.8970 C   0  0  0  0  0  3  0  0  0  0  0  0
  194.4520  171.8310  143.4000 C   0  0  0  0  0  0  0  0  0  0  0  0
  194.9580  176.4890  144.3280 C   0  0  0  0  0  2  0  0  0  0  0  0
  195.4750  175.7540  141.9100 C   0  0  0  0  0  2  0  0  0  0  0  0
  191.6670  176.7880  147.1580 C   0  0  0  0  0  3  0  0  0  0  0  0
  192.5460  176.5280  144.9450 C   0  0  0  0  0  0  0  0  0  0  0  0
  193.0000  176.8500  147.6310 C   0  0  0  0  0  3  0  0  0  0  0  0
  187.8720  176.2030  144.5300 C   0  0  0  0  0  2  0  0  0  0  0  0
  187.8010  177.1380  143.3600 C   0  0  0  0  0  0  0  0  0  0  0  0
  195.9930  172.0290  145.2660 C   0  0  0  0  0  3  0  0  0  0  0  0
  188.7610  177.1170  142.4340 C   0  0  0  0  0  3  0  0  0  0  0  0
  195.4490  172.5540  144.0920 C   0  0  0  0  0  0  0  0  0  0  0  0
  195.5430  170.8010  145.7620 C   0  0  0  0  0  3  0  0  0  0  0  0
  194.9740  174.5040  142.6140 C   0  0  1  0  0  0  0  0  0  0  0  0
  194.1150  173.6140  141.7610 C   0  0  0  0  0  3  0  0  0  0  0  0
  190.3500  176.5170  144.9900 C   0  0  0  0  0  0  0  0  0  0  0  0
  189.9040  176.1520  142.5000 C   0  0  0  0  0  2  0  0  0  0  0  0
  190.7370  176.3870  143.6790 N   0  0  0  0  0  0  0  0  0  0  0  0
  186.6980  178.1130  143.2680 C   0  0  0  0  0  0  0  0  0  0  0  0
  186.3460  178.6810  142.0100 N   0  0  0  0  0  1  0  0  0  0  0  0
  186.0570  178.4550  144.2990 O   0  0  0  0  0  0  0  0  0  0  0  0
  194.0820  168.7860  145.6050 C   0  0  0  0  0  0  0  0  0  0  0  0
  194.7030  168.2140  146.5410 O   0  0  0  0  0  0  0  0  0  0  0  0
  192.9200  168.1660  145.0610 N   0  0  0  0  0  1  0  0  0  0  0  0
  1 28  1  0  0  0  0
  1 16  2  0  0  0  0
  3 12  1  0  0  0  0
  4 15  1  0  0  0  0
  5 22  1  0  0  0  0
  6 32  1  0  0  0  0
  6 23  1  0  0  0  0
  7 14  1  6  0  0  0
  7 13  1  0  0  0  0
  8  7  1  0  0  0  0
  8  1  1  0  0  0  0
  9 10  2  0  0  0  0
 10 17  1  0  0  0  0
 11  6  2  0  0  0  0
 12 11  1  0  0  0  0
 12 22  2  0  0  0  0
 13  9  1  0  0  0  0
 14 24  1  0  0  0  0
 15 17  2  0  0  0  0
 16  9  1  0  0  0  0
 16  4  1  0  0  0  0
 18  2  1  0  0  0  0
 19 18  1  0  0  0  0
 20 23  2  0  0  0  0
 21 27  1  0  0  0  0
 21 19  2  0  0  0  0
 22 20  1  0  0  0  0
 24 25  1  6  0  0  0
 24  7  1  0  0  0  0
 24  5  1  0  0  0  0
 25  3  2  0  0  0  0
 26  2  1  0  0  0  0
 26  4  2  0  0  0  0
 27 28  1  0  0  0  0
 28 26  1  0  0  0  0
 29 19  1  0  0  0  0
 29 31  2  0  0  0  0
 30 29  1  0  0  0  0
 32 33  2  0  0  0  0
 34 32  1  0  0  0  0
M  END
>  <MODEL>
9

>  <REMARK>
 VINA RESULT:      -7.6      3.242      5.514
  Name = 
  2 active torsions:
  status: ('A' for Active; 'I' for Inactive)
    1  A    between atoms: C_3  and  C_25
    2  A    between atoms: C_7  and  C_11
                            x       y       z     vdW  Elec       q    Type
                         _______ _______ _______ _____ _____    ______ ____

>  <TORSDO>
F 2

$$$$
