=
 OpenBabel11052419013D

 34 38  0  0  1  0  0  0  0  0999 V2000
  191.0840  173.6060  140.1090 C   0  0  0  0  0  0  0  0  0  0  0  0
  188.7760  172.9760  140.6960 C   0  0  0  0  0  0  0  0  0  0  0  0
  189.8500  175.0640  141.7880 C   0  0  0  0  0  0  0  0  0  0  0  0
  189.0200  176.8570  143.2480 C   0  0  0  0  0  0  0  0  0  0  0  0
  191.0660  172.6410  139.0530 N   0  0  0  0  0  2  0  0  0  0  0  0
  188.8700  171.9670  139.8180 C   0  0  0  0  0  3  0  0  0  0  0  0
  187.6730  176.0930  141.2360 C   0  0  0  0  0  3  0  0  0  0  0  0
  189.7520  174.1340  140.5910 C   0  0  0  0  0  0  0  0  0  0  0  0
  186.8330  177.1180  141.3960 C   0  0  0  0  0  3  0  0  0  0  0  0
  187.8710  177.7400  143.6320 C   0  0  0  0  0  2  0  0  0  0  0  0
  190.0230  171.8790  138.8900 C   0  0  0  0  0  3  0  0  0  0  0  0
  191.1250  175.1500  142.5400 C   0  0  0  0  0  0  0  0  0  0  0  0
  192.2180  173.8280  140.7760 C   0  0  0  0  0  3  0  0  0  0  0  0
  187.4310  172.9640  141.8250 Cl  0  0  0  0  0  0  0  0  0  0  0  0
  190.0760  176.8190  144.0030 N   0  0  0  0  0  0  0  0  0  0  0  0
  191.1680  175.9700  143.7310 N   0  0  0  0  0  0  0  0  0  0  0  0
  187.1240  178.2230  142.3810 C   0  0  2  0  0  3  0  0  0  0  0  0
  188.8810  175.9540  142.0780 C   0  0  0  0  0  0  0  0  0  0  0  0
  192.2370  174.6130  142.0200 C   0  0  0  0  0  3  0  0  0  0  0  0
  194.2180  177.0440  145.6280 C   0  0  0  0  0  0  0  0  0  0  0  0
  194.3680  175.9910  146.5330 C   0  0  0  0  0  3  0  0  0  0  0  0
  192.2640  175.9540  144.6690 C   0  0  0  0  0  0  0  0  0  0  0  0
  193.4680  174.9230  146.5170 C   0  0  0  0  0  3  0  0  0  0  0  0
  193.1680  177.0280  144.7040 C   0  0  0  0  0  3  0  0  0  0  0  0
  192.4200  174.9070  145.5940 C   0  0  0  0  0  3  0  0  0  0  0  0
  195.0860  178.0830  145.6470 F   0  0  0  0  0  0  0  0  0  0  0  0
  185.9200  178.9880  142.7160 N   0  0  0  0  0  2  0  0  0  0  0  0
  185.7720  179.0990  144.1650 C   0  0  0  0  0  2  0  0  0  0  0  0
  183.4120  178.9550  143.8180 O   0  0  0  0  0  1  0  0  0  0  0  0
  184.4580  178.4680  144.6030 C   0  0  2  0  0  3  0  0  0  0  0  0
  184.1720  178.7090  146.0860 C   0  0  0  0  0  2  0  0  0  0  0  0
  185.9050  179.2680  147.6320 O   0  0  0  0  0  0  0  0  0  0  0  0
  185.3350  178.3680  146.9610 C   0  0  0  0  0  0  0  0  0  0  0  0
  185.7850  177.0210  147.0570 N   0  0  0  0  0  1  0  0  0  0  0  0
  1  8  1  0  0  0  0
  1 13  2  0  0  0  0
  2 14  1  0  0  0  0
  3 18  2  0  0  0  0
  3 12  1  0  0  0  0
  4 10  1  0  0  0  0
  4 15  2  0  0  0  0
  5  1  1  0  0  0  0
  6  2  1  0  0  0  0
  7  9  2  0  0  0  0
  7 18  1  0  0  0  0
  8  2  2  0  0  0  0
  8  3  1  0  0  0  0
  9 17  1  0  0  0  0
 11  5  1  0  0  0  0
 11  6  2  0  0  0  0
 12 16  1  0  0  0  0
 13 19  1  0  0  0  0
 16 15  1  0  0  0  0
 16 22  1  0  0  0  0
 17 27  1  1  0  0  0
 17 10  1  0  0  0  0
 18  4  1  0  0  0  0
 19 12  2  0  0  0  0
 20 26  1  0  0  0  0
 20 21  1  0  0  0  0
 22 24  1  0  0  0  0
 22 25  2  0  0  0  0
 23 21  2  0  0  0  0
 24 20  2  0  0  0  0
 25 23  1  0  0  0  0
 27 28  1  0  0  0  0
 28 30  1  0  0  0  0
 30 29  1  6  0  0  0
 30 31  1  0  0  0  0
 31 33  1  0  0  0  0
 33 34  1  0  0  0  0
 33 32  2  0  0  0  0
M  END
>  <MODEL>
1

>  <REMARK>
 VINA RESULT:      -7.8      0.000      0.000
  Name = 
  6 active torsions:
  status: ('A' for Active; 'I' for Inactive)
    1  A    between atoms: N_3  and  C_13
    2  A    between atoms: N_3  and  C_29
    3  A    between atoms: C_12  and  N_28
    4  A    between atoms: C_13  and  C_33
    5  A    between atoms: C_20  and  C_22
    6  A    between atoms: C_22  and  C_33
                            x       y       z     vdW  Elec       q    Type
                         _______ _______ _______ _____ _____    ______ ____

>  <TORSDO>
F 6

$$$$
=
 OpenBabel11052419013D

 34 38  0  0  1  0  0  0  0  0999 V2000
  185.5200  178.3020  143.7290 C   0  0  0  0  0  0  0  0  0  0  0  0
  185.5980  177.3960  146.0190 C   0  0  0  0  0  0  0  0  0  0  0  0
  187.5150  176.8580  144.3630 C   0  0  0  0  0  0  0  0  0  0  0  0
  189.6900  175.7330  144.5610 C   0  0  0  0  0  0  0  0  0  0  0  0
  184.4160  179.1300  144.1080 N   0  0  0  0  0  2  0  0  0  0  0  0
  184.4570  178.0510  146.2750 C   0  0  0  0  0  3  0  0  0  0  0  0
  188.9360  177.4160  146.3060 C   0  0  0  0  0  3  0  0  0  0  0  0
  186.4390  177.8240  144.8300 C   0  0  0  0  0  0  0  0  0  0  0  0
  190.1490  177.3980  146.8630 C   0  0  0  0  0  3  0  0  0  0  0  0
  190.8840  175.4390  145.4180 C   0  0  0  0  0  2  0  0  0  0  0  0
  183.9200  179.0390  145.3090 C   0  0  0  0  0  3  0  0  0  0  0  0
  187.4160  176.2560  143.0120 C   0  0  0  0  0  0  0  0  0  0  0  0
  185.5690  177.7980  142.4950 C   0  0  0  0  0  3  0  0  0  0  0  0
  186.1230  176.1740  147.1670 Cl  0  0  0  0  0  0  0  0  0  0  0  0
  189.5270  175.0820  143.4490 N   0  0  0  0  0  0  0  0  0  0  0  0
  188.3990  175.2690  142.6240 N   0  0  0  0  0  0  0  0  0  0  0  0
  191.3050  176.6920  146.2000 C   0  0  2  0  0  3  0  0  0  0  0  0
  188.6540  176.6740  145.0580 C   0  0  0  0  0  0  0  0  0  0  0  0
  186.5350  176.7500  142.1310 C   0  0  0  0  0  3  0  0  0  0  0  0
  188.1670  174.2700  139.0180 C   0  0  0  0  0  0  0  0  0  0  0  0
  188.1240  172.8770  139.1180 C   0  0  0  0  0  3  0  0  0  0  0  0
  188.2800  174.4490  141.4430 C   0  0  0  0  0  0  0  0  0  0  0  0
  188.1670  172.2650  140.3720 C   0  0  0  0  0  3  0  0  0  0  0  0
  188.2490  175.0500  140.1760 C   0  0  0  0  0  3  0  0  0  0  0  0
  188.2500  173.0460  141.5280 C   0  0  0  0  0  3  0  0  0  0  0  0
  188.1320  174.8640  137.8020 F   0  0  0  0  0  0  0  0  0  0  0  0
  192.3920  176.4170  147.1420 N   0  0  0  0  0  2  0  0  0  0  0  0
  193.3240  175.4440  146.5790 C   0  0  0  0  0  2  0  0  0  0  0  0
  194.6230  177.4480  146.5990 O   0  0  0  0  0  1  0  0  0  0  0  0
  194.5830  176.1480  146.0950 C   0  0  2  0  0  3  0  0  0  0  0  0
  194.6830  176.1610  144.5690 C   0  0  0  0  0  2  0  0  0  0  0  0
  196.6200  177.0310  143.4760 O   0  0  0  0  0  0  0  0  0  0  0  0
  196.0920  176.0610  144.0820 C   0  0  0  0  0  0  0  0  0  0  0  0
  196.8480  174.8800  144.3230 N   0  0  0  0  0  1  0  0  0  0  0  0
  1  5  1  0  0  0  0
  1  8  1  0  0  0  0
  2  6  1  0  0  0  0
  2 14  1  0  0  0  0
  3  8  1  0  0  0  0
  3 18  2  0  0  0  0
  4 18  1  0  0  0  0
  4 10  1  0  0  0  0
  5 11  1  0  0  0  0
  7  9  2  0  0  0  0
  8  2  2  0  0  0  0
 10 17  1  0  0  0  0
 11  6  2  0  0  0  0
 12  3  1  0  0  0  0
 13  1  2  0  0  0  0
 15  4  2  0  0  0  0
 16 12  1  0  0  0  0
 16 15  1  0  0  0  0
 17  9  1  0  0  0  0
 17 27  1  1  0  0  0
 18  7  1  0  0  0  0
 19 13  1  0  0  0  0
 19 12  2  0  0  0  0
 20 21  2  0  0  0  0
 20 24  1  0  0  0  0
 21 23  1  0  0  0  0
 22 25  1  0  0  0  0
 22 16  1  0  0  0  0
 23 25  2  0  0  0  0
 24 22  2  0  0  0  0
 26 20  1  0  0  0  0
 28 27  1  0  0  0  0
 30 28  1  0  0  0  0
 30 29  1  6  0  0  0
 31 30  1  0  0  0  0
 32 33  2  0  0  0  0
 33 34  1  0  0  0  0
 33 31  1  0  0  0  0
M  END
>  <MODEL>
2

>  <REMARK>
 VINA RESULT:      -7.7      3.897      8.108
  Name = 
  6 active torsions:
  status: ('A' for Active; 'I' for Inactive)
    1  A    between atoms: N_3  and  C_13
    2  A    between atoms: N_3  and  C_29
    3  A    between atoms: C_12  and  N_28
    4  A    between atoms: C_13  and  C_33
    5  A    between atoms: C_20  and  C_22
    6  A    between atoms: C_22  and  C_33
                            x       y       z     vdW  Elec       q    Type
                         _______ _______ _______ _____ _____    ______ ____

>  <TORSDO>
F 6

$$$$
=
 OpenBabel11052419013D

 34 38  0  0  1  0  0  0  0  0999 V2000
  191.8070  176.5630  144.9800 C   0  0  0  0  0  0  0  0  0  0  0  0
  191.7780  174.1000  144.9370 C   0  0  0  0  0  0  0  0  0  0  0  0
  189.9170  175.4240  143.7150 C   0  0  0  0  0  0  0  0  0  0  0  0
  188.0660  174.8050  142.2240 C   0  0  0  0  0  0  0  0  0  0  0  0
  193.1180  176.5250  145.5530 N   0  0  0  0  0  0  0  0  0  0  0  0
  192.9220  174.1130  145.6360 C   0  0  0  0  0  3  0  0  0  0  0  0
  190.3780  173.8040  141.9080 C   0  0  0  0  0  3  0  0  0  0  0  0
  191.3580  175.3540  144.1910 C   0  0  1  0  0  3  0  0  0  0  0  0
  189.9970  173.2660  140.7470 C   0  0  0  0  0  3  0  0  0  0  0  0
  187.5650  173.8870  141.1490 C   0  0  0  0  0  2  0  0  0  0  0  0
  193.6630  175.3790  145.8460 C   0  0  0  0  0  3  0  0  0  0  0  0
  189.0170  176.4630  144.2720 C   0  0  0  0  0  0  0  0  0  0  0  0
  190.9600  177.5270  145.3430 C   0  0  0  0  0  3  0  0  0  0  0  0
  190.9070  172.5800  144.8090 Cl  0  0  0  0  0  0  0  0  0  0  0  0
  187.2330  175.6040  142.8190 N   0  0  0  0  0  0  0  0  0  0  0  0
  187.6260  176.4530  143.8750 N   0  0  0  0  0  0  0  0  0  0  0  0
  188.6700  173.6130  140.1190 C   0  0  2  0  0  3  0  0  0  0  0  0
  189.4780  174.6980  142.6690 C   0  0  0  0  0  0  0  0  0  0  0  0
  189.5340  177.4720  144.9850 C   0  0  0  0  0  3  0  0  0  0  0  0
  185.3200  179.3150  144.6110 C   0  0  0  0  0  0  0  0  0  0  0  0
  184.5870  178.8110  145.6890 C   0  0  0  0  0  3  0  0  0  0  0  0
  186.6110  177.2530  144.5140 C   0  0  0  0  0  0  0  0  0  0  0  0
  184.8540  177.5310  146.1770 C   0  0  0  0  0  3  0  0  0  0  0  0
  186.3230  178.5370  144.0250 C   0  0  0  0  0  3  0  0  0  0  0  0
  185.8570  176.7540  145.5900 C   0  0  0  0  0  3  0  0  0  0  0  0
  185.0580  180.5540  144.1330 F   0  0  0  0  0  0  0  0  0  0  0  0
  188.2630  172.6240  139.1200 N   0  0  0  0  0  2  0  0  0  0  0  0
  189.3860  171.7580  138.7690 C   0  0  0  0  0  2  0  0  0  0  0  0
  189.9080  170.6800  136.7020 O   0  0  0  0  0  1  0  0  0  0  0  0
  189.7360  171.9300  137.2980 C   0  0  2  0  0  3  0  0  0  0  0  0
  190.9820  172.7940  137.1010 C   0  0  0  0  0  2  0  0  0  0  0  0
  191.5780  175.0160  136.4600 O   0  0  0  0  0  0  0  0  0  0  0  0
  190.6580  174.1740  136.6260 C   0  0  0  0  0  0  0  0  0  0  0  0
  189.3110  174.5310  136.3380 N   0  0  0  0  0  1  0  0  0  0  0  0
  1 13  2  0  0  0  0
  1  5  1  0  0  0  0
  2  6  2  0  0  0  0
  3 12  1  0  0  0  0
  4 18  1  0  0  0  0
  4 15  2  0  0  0  0
  5 11  2  0  0  0  0
  6 11  1  0  0  0  0
  7 18  1  0  0  0  0
  8  3  1  1  0  0  0
  8  2  1  0  0  0  0
  8  1  1  0  0  0  0
  9  7  2  0  0  0  0
 10  4  1  0  0  0  0
 12 19  2  0  0  0  0
 14  2  1  0  0  0  0
 15 16  1  0  0  0  0
 16 12  1  0  0  0  0
 16 22  1  0  0  0  0
 17 27  1  6  0  0  0
 17  9  1  0  0  0  0
 17 10  1  0  0  0  0
 18  3  2  0  0  0  0
 19 13  1  0  0  0  0
 20 21  1  0  0  0  0
 21 23  2  0  0  0  0
 22 25  2  0  0  0  0
 24 22  1  0  0  0  0
 24 20  2  0  0  0  0
 25 23  1  0  0  0  0
 26 20  1  0  0  0  0
 28 27  1  0  0  0  0
 30 29  1  1  0  0  0
 30 28  1  0  0  0  0
 31 30  1  0  0  0  0
 32 33  2  0  0  0  0
 33 31  1  0  0  0  0
 34 33  1  0  0  0  0
M  END
>  <MODEL>
3

>  <REMARK>
 VINA RESULT:      -7.4      3.976      7.778
  Name = 
  6 active torsions:
  status: ('A' for Active; 'I' for Inactive)
    1  A    between atoms: N_3  and  C_13
    2  A    between atoms: N_3  and  C_29
    3  A    between atoms: C_12  and  N_28
    4  A    between atoms: C_13  and  C_33
    5  A    between atoms: C_20  and  C_22
    6  A    between atoms: C_22  and  C_33
                            x       y       z     vdW  Elec       q    Type
                         _______ _______ _______ _____ _____    ______ ____

>  <TORSDO>
F 6

$$$$
=
 OpenBabel11052419013D

 34 38  0  0  1  0  0  0  0  0999 V2000
  192.0090  174.0910  144.8600 C   0  0  0  0  0  0  0  0  0  0  0  0
  192.0580  176.5490  144.6910 C   0  0  0  0  0  0  0  0  0  0  0  0
  190.3710  175.2000  143.2620 C   0  0  0  0  0  0  0  0  0  0  0  0
  188.5010  175.8050  141.7870 C   0  0  0  0  0  0  0  0  0  0  0  0
  192.8830  174.1640  145.9910 N   0  0  0  0  0  0  0  0  0  0  0  0
  193.0120  176.5560  145.6330 C   0  0  0  0  0  3  0  0  0  0  0  0
  188.7940  176.9350  144.0410 C   0  0  0  0  0  3  0  0  0  0  0  0
  191.1840  175.3170  144.5400 C   0  0  1  0  0  3  0  0  0  0  0  0
  187.5980  177.5150  143.9180 C   0  0  0  0  0  3  0  0  0  0  0  0
  187.3750  176.7530  141.5030 C   0  0  0  0  0  2  0  0  0  0  0  0
  193.3450  175.3190  146.3780 C   0  0  0  0  0  3  0  0  0  0  0  0
  190.6510  174.0900  142.3200 C   0  0  0  0  0  0  0  0  0  0  0  0
  192.1180  173.0680  144.0120 C   0  0  0  0  0  3  0  0  0  0  0  0
  191.7840  178.0280  143.7850 Cl  0  0  0  0  0  0  0  0  0  0  0  0
  188.8450  174.9340  140.8870 N   0  0  0  0  0  0  0  0  0  0  0  0
  189.9300  174.0510  141.0670 N   0  0  0  0  0  0  0  0  0  0  0  0
  186.6550  177.1360  142.8030 C   0  0  2  0  0  3  0  0  0  0  0  0
  189.2790  175.9590  143.0420 C   0  0  0  0  0  0  0  0  0  0  0  0
  191.4270  173.0700  142.7120 C   0  0  0  0  0  3  0  0  0  0  0  0
  189.7500  171.2170  138.6200 C   0  0  0  0  0  0  0  0  0  0  0  0
  190.8670  171.4690  137.8210 C   0  0  0  0  0  3  0  0  0  0  0  0
  190.2720  173.1680  139.9790 C   0  0  0  0  0  0  0  0  0  0  0  0
  191.6840  172.5680  138.0890 C   0  0  0  0  0  3  0  0  0  0  0  0
  189.4520  172.0660  139.6910 C   0  0  0  0  0  3  0  0  0  0  0  0
  191.3860  173.4160  139.1590 C   0  0  0  0  0  3  0  0  0  0  0  0
  188.9530  170.1540  138.3570 F   0  0  0  0  0  0  0  0  0  0  0  0
  185.6270  178.1560  142.5870 N   0  0  0  0  0  2  0  0  0  0  0  0
  184.4800  177.9200  143.4610 C   0  0  0  0  0  2  0  0  0  0  0  0
  185.3090  180.0120  144.2630 O   0  0  0  0  0  1  0  0  0  0  0  0
  184.2110  179.1530  144.3110 C   0  0  2  0  0  3  0  0  0  0  0  0
  183.8740  178.7920  145.7580 C   0  0  0  0  0  2  0  0  0  0  0  0
  185.8450  178.9610  147.0970 O   0  0  0  0  0  0  0  0  0  0  0  0
  185.0380  178.2070  146.4920 C   0  0  0  0  0  0  0  0  0  0  0  0
  185.2210  176.7970  146.5310 N   0  0  0  0  0  1  0  0  0  0  0  0
  1  5  1  0  0  0  0
  2  6  2  0  0  0  0
  4 18  1  0  0  0  0
  5 11  2  0  0  0  0
  6 11  1  0  0  0  0
  8  3  1  6  0  0  0
  8  2  1  0  0  0  0
  8  1  1  0  0  0  0
  9  7  2  0  0  0  0
 10  4  1  0  0  0  0
 10 17  1  0  0  0  0
 12 19  2  0  0  0  0
 12  3  1  0  0  0  0
 13  1  2  0  0  0  0
 14  2  1  0  0  0  0
 15 16  1  0  0  0  0
 15  4  2  0  0  0  0
 16 12  1  0  0  0  0
 17 27  1  6  0  0  0
 17  9  1  0  0  0  0
 18  3  2  0  0  0  0
 18  7  1  0  0  0  0
 19 13  1  0  0  0  0
 20 24  1  0  0  0  0
 21 23  1  0  0  0  0
 21 20  2  0  0  0  0
 22 16  1  0  0  0  0
 23 25  2  0  0  0  0
 24 22  2  0  0  0  0
 25 22  1  0  0  0  0
 26 20  1  0  0  0  0
 27 28  1  0  0  0  0
 28 30  1  0  0  0  0
 30 29  1  1  0  0  0
 30 31  1  0  0  0  0
 31 33  1  0  0  0  0
 33 34  1  0  0  0  0
 33 32  2  0  0  0  0
M  END
>  <MODEL>
4

>  <REMARK>
 VINA RESULT:      -7.4      2.835      5.446
  Name = 
  6 active torsions:
  status: ('A' for Active; 'I' for Inactive)
    1  A    between atoms: N_3  and  C_13
    2  A    between atoms: N_3  and  C_29
    3  A    between atoms: C_12  and  N_28
    4  A    between atoms: C_13  and  C_33
    5  A    between atoms: C_20  and  C_22
    6  A    between atoms: C_22  and  C_33
                            x       y       z     vdW  Elec       q    Type
                         _______ _______ _______ _____ _____    ______ ____

>  <TORSDO>
F 6

$$$$
=
 OpenBabel11052419013D

 34 38  0  0  1  0  0  0  0  0999 V2000
  191.6860  173.8300  140.6550 C   0  0  0  0  0  0  0  0  0  0  0  0
  189.5400  172.9170  141.4470 C   0  0  0  0  0  0  0  0  0  0  0  0
  191.0890  174.1680  143.1040 C   0  0  0  0  0  0  0  0  0  0  0  0
  190.8640  174.9170  145.4330 C   0  0  0  0  0  0  0  0  0  0  0  0
  191.2930  173.5530  139.3070 N   0  0  0  0  0  2  0  0  0  0  0  0
  189.2930  172.5130  140.1930 C   0  0  0  0  0  3  0  0  0  0  0  0
  188.9780  175.2660  143.7690 C   0  0  0  0  0  3  0  0  0  0  0  0
  190.5870  173.9910  141.6810 C   0  0  0  0  0  0  0  0  0  0  0  0
  188.3300  176.0330  144.6490 C   0  0  0  0  0  3  0  0  0  0  0  0
  189.9580  175.4370  146.5080 C   0  0  0  0  0  2  0  0  0  0  0  0
  190.1600  172.9540  139.0740 C   0  0  0  0  0  3  0  0  0  0  0  0
  192.5120  173.8900  143.4140 C   0  0  0  0  0  0  0  0  0  0  0  0
  192.9680  173.7090  141.0020 C   0  0  0  0  0  3  0  0  0  0  0  0
  188.5270  172.2800  142.7330 Cl  0  0  0  0  0  0  0  0  0  0  0  0
  192.0630  174.5250  145.7420 N   0  0  0  0  0  0  0  0  0  0  0  0
  192.9460  173.9740  144.7910 N   0  0  0  0  0  0  0  0  0  0  0  0
  188.9840  176.4750  145.9340 C   0  0  2  0  0  3  0  0  0  0  0  0
  190.3330  174.7470  144.0570 C   0  0  0  0  0  0  0  0  0  0  0  0
  193.3890  173.7350  142.4120 C   0  0  0  0  0  3  0  0  0  0  0  0
  195.7170  171.6600  145.8010 C   0  0  0  0  0  0  0  0  0  0  0  0
  196.7480  172.5620  146.0710 C   0  0  0  0  0  3  0  0  0  0  0  0
  194.2320  173.5080  145.2500 C   0  0  0  0  0  0  0  0  0  0  0  0
  196.5320  173.9340  145.9260 C   0  0  0  0  0  3  0  0  0  0  0  0
  194.4660  172.1310  145.3870 C   0  0  0  0  0  3  0  0  0  0  0  0
  195.2820  174.4040  145.5130 C   0  0  0  0  0  3  0  0  0  0  0  0
  195.9270  170.3290  145.9350 F   0  0  0  0  0  0  0  0  0  0  0  0
  188.0000  176.9180  146.9240 N   0  0  0  0  0  2  0  0  0  0  0  0
  186.6450  176.7800  146.3960 C   0  0  0  0  0  2  0  0  0  0  0  0
  185.6860  178.4250  147.8380 O   0  0  0  0  0  1  0  0  0  0  0  0
  185.9090  178.1080  146.4980 C   0  0  2  0  0  3  0  0  0  0  0  0
  184.5910  178.0960  145.7230 C   0  0  0  0  0  2  0  0  0  0  0  0
  184.0760  178.2690  143.3970 O   0  0  0  0  0  0  0  0  0  0  0  0
  184.7050  178.7420  144.3800 C   0  0  0  0  0  0  0  0  0  0  0  0
  185.5030  179.9080  144.2150 N   0  0  0  0  0  1  0  0  0  0  0  0
  1 13  2  0  0  0  0
  1  8  1  0  0  0  0
  2  8  2  0  0  0  0
  2 14  1  0  0  0  0
  3 12  1  0  0  0  0
  3 18  2  0  0  0  0
  4 15  2  0  0  0  0
  4 10  1  0  0  0  0
  5  1  1  0  0  0  0
  6  2  1  0  0  0  0
  7 18  1  0  0  0  0
  7  9  2  0  0  0  0
  8  3  1  0  0  0  0
  9 17  1  0  0  0  0
 11  5  1  0  0  0  0
 11  6  2  0  0  0  0
 12 16  1  0  0  0  0
 13 19  1  0  0  0  0
 16 22  1  0  0  0  0
 16 15  1  0  0  0  0
 17 10  1  0  0  0  0
 17 27  1  1  0  0  0
 18  4  1  0  0  0  0
 19 12  2  0  0  0  0
 20 26  1  0  0  0  0
 20 21  1  0  0  0  0
 22 24  1  0  0  0  0
 22 25  2  0  0  0  0
 23 21  2  0  0  0  0
 24 20  2  0  0  0  0
 25 23  1  0  0  0  0
 28 30  1  0  0  0  0
 28 27  1  0  0  0  0
 30 29  1  1  0  0  0
 31 30  1  0  0  0  0
 32 33  2  0  0  0  0
 33 31  1  0  0  0  0
 34 33  1  0  0  0  0
M  END
>  <MODEL>
5

>  <REMARK>
 VINA RESULT:      -7.3      2.389      3.417
  Name = 
  6 active torsions:
  status: ('A' for Active; 'I' for Inactive)
    1  A    between atoms: N_3  and  C_13
    2  A    between atoms: N_3  and  C_29
    3  A    between atoms: C_12  and  N_28
    4  A    between atoms: C_13  and  C_33
    5  A    between atoms: C_20  and  C_22
    6  A    between atoms: C_22  and  C_33
                            x       y       z     vdW  Elec       q    Type
                         _______ _______ _______ _____ _____    ______ ____

>  <TORSDO>
F 6

$$$$
=
 OpenBabel11052419013D

 34 38  0  0  1  0  0  0  0  0999 V2000
  186.9460  178.3130  142.6320 C   0  0  0  0  0  0  0  0  0  0  0  0
  186.6940  177.5950  144.9760 C   0  0  0  0  0  0  0  0  0  0  0  0
  188.6590  176.6780  143.5590 C   0  0  0  0  0  0  0  0  0  0  0  0
  190.6310  175.2980  144.0490 C   0  0  0  0  0  0  0  0  0  0  0  0
  185.9370  179.3070  142.8420 N   0  0  0  0  0  2  0  0  0  0  0  0
  185.6360  178.4120  145.0720 C   0  0  0  0  0  3  0  0  0  0  0  0
  189.9640  177.2010  145.5900 C   0  0  0  0  0  3  0  0  0  0  0  0
  187.6890  177.8100  143.8490 C   0  0  0  0  0  0  0  0  0  0  0  0
  191.1080  177.0700  146.2640 C   0  0  0  0  0  3  0  0  0  0  0  0
  191.6930  174.9210  145.0380 C   0  0  0  0  0  2  0  0  0  0  0  0
  185.3280  179.3790  143.9910 C   0  0  0  0  0  3  0  0  0  0  0  0
  188.5970  175.9850  142.2490 C   0  0  0  0  0  0  0  0  0  0  0  0
  187.0350  177.7080  141.4470 C   0  0  0  0  0  3  0  0  0  0  0  0
  186.9410  176.4120  146.2510 Cl  0  0  0  0  0  0  0  0  0  0  0  0
  190.4800  174.5850  142.9730 N   0  0  0  0  0  0  0  0  0  0  0  0
  189.4660  174.8500  142.0290 N   0  0  0  0  0  0  0  0  0  0  0  0
  192.2110  176.1680  145.7690 C   0  0  2  0  0  3  0  0  0  0  0  0
  189.6950  176.4030  144.3740 C   0  0  0  0  0  0  0  0  0  0  0  0
  187.8750  176.5170  141.2530 C   0  0  0  0  0  3  0  0  0  0  0  0
  190.3310  172.9040  138.9440 C   0  0  0  0  0  0  0  0  0  0  0  0
  189.1580  172.1750  138.7370 C   0  0  0  0  0  3  0  0  0  0  0  0
  189.3410  173.9590  140.9020 C   0  0  0  0  0  0  0  0  0  0  0  0
  188.0790  172.3260  139.6100 C   0  0  0  0  0  3  0  0  0  0  0  0
  190.4230  173.7880  140.0240 C   0  0  0  0  0  3  0  0  0  0  0  0
  188.1710  173.2090  140.6890 C   0  0  0  0  0  3  0  0  0  0  0  0
  191.3800  172.7540  138.1010 F   0  0  0  0  0  0  0  0  0  0  0  0
  193.1610  175.8310  146.8320 N   0  0  0  0  0  2  0  0  0  0  0  0
  194.4900  176.3450  146.5110 C   0  0  0  0  0  2  0  0  0  0  0  0
  195.9960  174.6380  145.7870 O   0  0  0  0  0  1  0  0  0  0  0  0
  195.0730  175.5800  145.3320 C   0  0  2  0  0  3  0  0  0  0  0  0
  195.7200  176.5120  144.3050 C   0  0  0  0  0  2  0  0  0  0  0  0
  196.2920  176.3240  141.9940 O   0  0  0  0  0  0  0  0  0  0  0  0
  195.4430  176.0980  142.8960 C   0  0  0  0  0  0  0  0  0  0  0  0
  194.2310  175.4260  142.5750 N   0  0  0  0  0  1  0  0  0  0  0  0
  1  5  1  0  0  0  0
  1  8  1  0  0  0  0
  2  6  1  0  0  0  0
  2 14  1  0  0  0  0
  3  8  1  0  0  0  0
  3 18  2  0  0  0  0
  4 18  1  0  0  0  0
  4 10  1  0  0  0  0
  5 11  1  0  0  0  0
  7  9  2  0  0  0  0
  8  2  2  0  0  0  0
 10 17  1  0  0  0  0
 11  6  2  0  0  0  0
 12  3  1  0  0  0  0
 13  1  2  0  0  0  0
 15  4  2  0  0  0  0
 16 12  1  0  0  0  0
 16 15  1  0  0  0  0
 17  9  1  0  0  0  0
 17 27  1  1  0  0  0
 18  7  1  0  0  0  0
 19 13  1  0  0  0  0
 19 12  2  0  0  0  0
 20 24  1  0  0  0  0
 21 20  2  0  0  0  0
 21 23  1  0  0  0  0
 22 16  1  0  0  0  0
 23 25  2  0  0  0  0
 24 22  2  0  0  0  0
 25 22  1  0  0  0  0
 26 20  1  0  0  0  0
 28 27  1  0  0  0  0
 30 29  1  1  0  0  0
 30 28  1  0  0  0  0
 31 30  1  0  0  0  0
 32 33  2  0  0  0  0
 33 31  1  0  0  0  0
 34 33  1  0  0  0  0
M  END
>  <MODEL>
6

>  <REMARK>
 VINA RESULT:      -7.3      3.912      7.876
  Name = 
  6 active torsions:
  status: ('A' for Active; 'I' for Inactive)
    1  A    between atoms: N_3  and  C_13
    2  A    between atoms: N_3  and  C_29
    3  A    between atoms: C_12  and  N_28
    4  A    between atoms: C_13  and  C_33
    5  A    between atoms: C_20  and  C_22
    6  A    between atoms: C_22  and  C_33
                            x       y       z     vdW  Elec       q    Type
                         _______ _______ _______ _____ _____    ______ ____

>  <TORSDO>
F 6

$$$$
=
 OpenBabel11052419013D

 34 38  0  0  1  0  0  0  0  0999 V2000
  191.9300  176.3340  144.9050 C   0  0  0  0  0  0  0  0  0  0  0  0
  191.8200  173.8790  144.7250 C   0  0  0  0  0  0  0  0  0  0  0  0
  190.1840  175.3390  143.3470 C   0  0  0  0  0  0  0  0  0  0  0  0
  188.5240  174.8720  141.5980 C   0  0  0  0  0  0  0  0  0  0  0  0
  193.1530  176.2130  145.6400 N   0  0  0  0  0  0  0  0  0  0  0  0
  192.8620  173.8100  145.5660 C   0  0  0  0  0  3  0  0  0  0  0  0
  190.8200  173.7920  141.5290 C   0  0  0  0  0  3  0  0  0  0  0  0
  191.5470  175.1850  144.0010 C   0  0  1  0  0  3  0  0  0  0  0  0
  190.5760  173.3280  140.3020 C   0  0  0  0  0  3  0  0  0  0  0  0
  188.1360  174.0310  140.4190 C   0  0  0  0  0  2  0  0  0  0  0  0
  193.6140  175.0320  145.9380 C   0  0  0  0  0  3  0  0  0  0  0  0
  189.2560  176.3860  143.8380 C   0  0  0  0  0  0  0  0  0  0  0  0
  191.0780  177.3140  145.2070 C   0  0  0  0  0  3  0  0  0  0  0  0
  190.9210  172.4060  144.4040 Cl  0  0  0  0  0  0  0  0  0  0  0  0
  187.6490  175.6760  142.1230 N   0  0  0  0  0  0  0  0  0  0  0  0
  187.9300  176.4540  143.2650 N   0  0  0  0  0  0  0  0  0  0  0  0
  189.3560  173.7610  139.5280 C   0  0  2  0  0  3  0  0  0  0  0  0
  189.8600  174.6840  142.2160 C   0  0  0  0  0  0  0  0  0  0  0  0
  189.7100  177.3370  144.6660 C   0  0  0  0  0  3  0  0  0  0  0  0
  185.1260  177.5920  145.4790 C   0  0  0  0  0  0  0  0  0  0  0  0
  184.8420  178.8500  144.9430 C   0  0  0  0  0  3  0  0  0  0  0  0
  186.8680  177.2650  143.8100 C   0  0  0  0  0  0  0  0  0  0  0  0
  185.5690  179.3240  143.8500 C   0  0  0  0  0  3  0  0  0  0  0  0
  186.1380  176.8060  144.9180 C   0  0  0  0  0  3  0  0  0  0  0  0
  186.5790  178.5380  143.2890 C   0  0  0  0  0  3  0  0  0  0  0  0
  184.4260  177.1340  146.5440 F   0  0  0  0  0  0  0  0  0  0  0  0
  189.0480  172.8400  138.4320 N   0  0  0  0  0  2  0  0  0  0  0  0
  190.2350  172.6030  137.6140 C   0  0  0  0  0  2  0  0  0  0  0  0
  189.3310  171.2480  135.8670 O   0  0  0  0  0  1  0  0  0  0  0  0
  190.1660  171.2200  136.9840 C   0  0  2  0  0  3  0  0  0  0  0  0
  189.6960  170.1580  137.9790 C   0  0  0  0  0  2  0  0  0  0  0  0
  191.7780  169.0140  138.2230 O   0  0  0  0  0  0  0  0  0  0  0  0
  190.8160  169.5920  138.7920 C   0  0  0  0  0  0  0  0  0  0  0  0
  190.8080  169.7280  140.2080 N   0  0  0  0  0  1  0  0  0  0  0  0
  1 13  2  0  0  0  0
  1  5  1  0  0  0  0
  2  6  2  0  0  0  0
  3 12  1  0  0  0  0
  4 15  2  0  0  0  0
  4 18  1  0  0  0  0
  5 11  2  0  0  0  0
  6 11  1  0  0  0  0
  7 18  1  0  0  0  0
  8  3  1  1  0  0  0
  8  2  1  0  0  0  0
  8  1  1  0  0  0  0
  9  7  2  0  0  0  0
 10  4  1  0  0  0  0
 12 19  2  0  0  0  0
 14  2  1  0  0  0  0
 15 16  1  0  0  0  0
 16 22  1  0  0  0  0
 16 12  1  0  0  0  0
 17 27  1  6  0  0  0
 17  9  1  0  0  0  0
 17 10  1  0  0  0  0
 18  3  2  0  0  0  0
 19 13  1  0  0  0  0
 20 26  1  0  0  0  0
 21 20  1  0  0  0  0
 22 24  1  0  0  0  0
 23 21  2  0  0  0  0
 24 20  2  0  0  0  0
 25 22  2  0  0  0  0
 25 23  1  0  0  0  0
 28 27  1  0  0  0  0
 30 29  1  6  0  0  0
 30 28  1  0  0  0  0
 30 31  1  0  0  0  0
 31 33  1  0  0  0  0
 32 33  2  0  0  0  0
 33 34  1  0  0  0  0
M  END
>  <MODEL>
7

>  <REMARK>
 VINA RESULT:      -7.2      4.197      7.980
  Name = 
  6 active torsions:
  status: ('A' for Active; 'I' for Inactive)
    1  A    between atoms: N_3  and  C_13
    2  A    between atoms: N_3  and  C_29
    3  A    between atoms: C_12  and  N_28
    4  A    between atoms: C_13  and  C_33
    5  A    between atoms: C_20  and  C_22
    6  A    between atoms: C_22  and  C_33
                            x       y       z     vdW  Elec       q    Type
                         _______ _______ _______ _____ _____    ______ ____

>  <TORSDO>
F 6

$$$$
=
 OpenBabel11052419013D

 34 38  0  0  1  0  0  0  0  0999 V2000
  187.5540  177.1080  146.1800 C   0  0  0  0  0  0  0  0  0  0  0  0
  186.9680  178.0340  143.9730 C   0  0  0  0  0  0  0  0  0  0  0  0
  188.7270  176.1400  144.1410 C   0  0  0  0  0  0  0  0  0  0  0  0
  189.9340  174.7680  142.5000 C   0  0  0  0  0  0  0  0  0  0  0  0
  186.4610  177.8280  146.7580 N   0  0  0  0  0  0  0  0  0  0  0  0
  186.0760  178.8260  144.5860 C   0  0  0  0  0  3  0  0  0  0  0  0
  187.4450  175.2020  142.2490 C   0  0  0  0  0  3  0  0  0  0  0  0
  187.4800  176.8040  144.7010 C   0  0  1  0  0  3  0  0  0  0  0  0
  187.3770  174.3060  141.2620 C   0  0  0  0  0  3  0  0  0  0  0  0
  189.9080  174.0820  141.1670 C   0  0  0  0  0  2  0  0  0  0  0  0
  185.7440  178.6230  146.0160 C   0  0  0  0  0  3  0  0  0  0  0  0
  189.9630  176.1090  144.9590 C   0  0  0  0  0  0  0  0  0  0  0  0
  188.6740  176.9380  146.8830 C   0  0  0  0  0  3  0  0  0  0  0  0
  187.3800  178.3940  142.3040 Cl  0  0  0  0  0  0  0  0  0  0  0  0
  191.0580  174.8760  143.1400 N   0  0  0  0  0  0  0  0  0  0  0  0
  191.1630  175.5560  144.3710 N   0  0  0  0  0  0  0  0  0  0  0  0
  188.5470  173.4110  140.9340 C   0  0  2  0  0  3  0  0  0  0  0  0
  188.6970  175.4140  143.0070 C   0  0  0  0  0  0  0  0  0  0  0  0
  189.9060  176.4320  146.2580 C   0  0  0  0  0  3  0  0  0  0  0  0
  194.3470  177.0760  145.6400 C   0  0  0  0  0  0  0  0  0  0  0  0
  194.9860  175.9630  146.1910 C   0  0  0  0  0  3  0  0  0  0  0  0
  192.4710  175.6770  144.9680 C   0  0  0  0  0  0  0  0  0  0  0  0
  194.3720  174.7090  146.1410 C   0  0  0  0  0  3  0  0  0  0  0  0
  193.0930  176.9340  145.0370 C   0  0  0  0  0  3  0  0  0  0  0  0
  193.1200  174.5680  145.5380 C   0  0  0  0  0  3  0  0  0  0  0  0
  194.9380  178.2930  145.6940 F   0  0  0  0  0  0  0  0  0  0  0  0
  188.4360  172.8360  139.5920 N   0  0  0  0  0  2  0  0  0  0  0  0
  188.2820  173.8910  138.5940 C   0  0  0  0  0  2  0  0  0  0  0  0
  188.9550  174.4040  136.3600 O   0  0  0  0  0  1  0  0  0  0  0  0
  189.3620  173.7620  137.5300 C   0  0  2  0  0  3  0  0  0  0  0  0
  189.7180  172.3020  137.2460 C   0  0  0  0  0  2  0  0  0  0  0  0
  191.8640  171.7680  136.3420 O   0  0  0  0  0  0  0  0  0  0  0  0
  191.1830  172.0300  137.3680 C   0  0  0  0  0  0  0  0  0  0  0  0
  191.8150  172.0920  138.6410 N   0  0  0  0  0  1  0  0  0  0  0  0
  1  5  1  0  0  0  0
  1 13  2  0  0  0  0
  2  6  2  0  0  0  0
  3  8  1  0  0  0  0
  3 12  1  0  0  0  0
  4 18  1  0  0  0  0
  4 15  2  0  0  0  0
  6 11  1  0  0  0  0
  7 18  1  0  0  0  0
  8  2  1  6  0  0  0
  8  1  1  0  0  0  0
  9  7  2  0  0  0  0
 10  4  1  0  0  0  0
 11  5  2  0  0  0  0
 12 19  2  0  0  0  0
 14  2  1  0  0  0  0
 15 16  1  0  0  0  0
 16 12  1  0  0  0  0
 16 22  1  0  0  0  0
 17 27  1  6  0  0  0
 17 10  1  0  0  0  0
 17  9  1  0  0  0  0
 18  3  2  0  0  0  0
 19 13  1  0  0  0  0
 20 26  1  0  0  0  0
 20 21  1  0  0  0  0
 22 24  1  0  0  0  0
 22 25  2  0  0  0  0
 23 21  2  0  0  0  0
 24 20  2  0  0  0  0
 25 23  1  0  0  0  0
 28 27  1  0  0  0  0
 30 29  1  6  0  0  0
 30 28  1  0  0  0  0
 31 33  1  0  0  0  0
 31 30  1  0  0  0  0
 32 33  2  0  0  0  0
 33 34  1  0  0  0  0
M  END
>  <MODEL>
8

>  <REMARK>
 VINA RESULT:      -7.2      3.400      6.918
  Name = 
  6 active torsions:
  status: ('A' for Active; 'I' for Inactive)
    1  A    between atoms: N_3  and  C_13
    2  A    between atoms: N_3  and  C_29
    3  A    between atoms: C_12  and  N_28
    4  A    between atoms: C_13  and  C_33
    5  A    between atoms: C_20  and  C_22
    6  A    between atoms: C_22  and  C_33
                            x       y       z     vdW  Elec       q    Type
                         _______ _______ _______ _____ _____    ______ ____

>  <TORSDO>
F 6

$$$$
=
 OpenBabel11052419013D

 34 38  0  0  1  0  0  0  0  0999 V2000
  187.5960  177.1930  146.2510 C   0  0  0  0  0  0  0  0  0  0  0  0
  186.9690  178.0740  144.0370 C   0  0  0  0  0  0  0  0  0  0  0  0
  188.7060  176.1600  144.2090 C   0  0  0  0  0  0  0  0  0  0  0  0
  189.8540  174.7320  142.5730 C   0  0  0  0  0  0  0  0  0  0  0  0
  186.5270  177.9420  146.8380 N   0  0  0  0  0  0  0  0  0  0  0  0
  186.1030  178.8920  144.6510 C   0  0  0  0  0  3  0  0  0  0  0  0
  187.3660  175.1940  142.3720 C   0  0  0  0  0  3  0  0  0  0  0  0
  187.4820  176.8540  144.7820 C   0  0  1  0  0  3  0  0  0  0  0  0
  187.2620  174.2750  141.4090 C   0  0  0  0  0  3  0  0  0  0  0  0
  189.7860  174.0150  141.2580 C   0  0  0  0  0  2  0  0  0  0  0  0
  185.8030  178.7290  146.0940 C   0  0  0  0  0  3  0  0  0  0  0  0
  189.9620  176.1320  144.9970 C   0  0  0  0  0  0  0  0  0  0  0  0
  188.7310  177.0240  146.9310 C   0  0  0  0  0  3  0  0  0  0  0  0
  187.3440  178.3870  142.3500 Cl  0  0  0  0  0  0  0  0  0  0  0  0
  190.9950  174.8400  143.1830 N   0  0  0  0  0  0  0  0  0  0  0  0
  191.1390  175.5480  144.3930 N   0  0  0  0  0  0  0  0  0  0  0  0
  188.4110  173.3570  141.0750 C   0  0  2  0  0  3  0  0  0  0  0  0
  188.6390  175.4070  143.0940 C   0  0  0  0  0  0  0  0  0  0  0  0
  189.9400  176.4870  146.2880 C   0  0  0  0  0  3  0  0  0  0  0  0
  194.3650  177.0570  145.5640 C   0  0  0  0  0  0  0  0  0  0  0  0
  195.0100  175.9450  146.1110 C   0  0  0  0  0  3  0  0  0  0  0  0
  192.4630  175.6660  144.9560 C   0  0  0  0  0  0  0  0  0  0  0  0
  194.3870  174.6960  146.0900 C   0  0  0  0  0  3  0  0  0  0  0  0
  193.0960  176.9180  144.9940 C   0  0  0  0  0  3  0  0  0  0  0  0
  193.1180  174.5580  145.5200 C   0  0  0  0  0  3  0  0  0  0  0  0
  194.9670  178.2700  145.5900 F   0  0  0  0  0  0  0  0  0  0  0  0
  188.2590  172.7510  139.7500 N   0  0  0  0  0  2  0  0  0  0  0  0
  188.3810  173.7650  138.7070 C   0  0  0  0  0  2  0  0  0  0  0  0
  189.5350  171.8910  137.7780 O   0  0  0  0  0  1  0  0  0  0  0  0
  189.0790  173.1770  137.4890 C   0  0  2  0  0  3  0  0  0  0  0  0
  190.2310  174.0590  137.0060 C   0  0  0  0  0  2  0  0  0  0  0  0
  189.5100  175.6460  135.3720 O   0  0  0  0  0  0  0  0  0  0  0  0
  190.0480  174.5300  135.5990 C   0  0  0  0  0  0  0  0  0  0  0  0
  190.5030  173.7300  134.5140 N   0  0  0  0  0  1  0  0  0  0  0  0
  1  5  1  0  0  0  0
  1 13  2  0  0  0  0
  2  6  2  0  0  0  0
  3  8  1  0  0  0  0
  3 12  1  0  0  0  0
  4 18  1  0  0  0  0
  4 15  2  0  0  0  0
  6 11  1  0  0  0  0
  7 18  1  0  0  0  0
  8  2  1  6  0  0  0
  8  1  1  0  0  0  0
  9  7  2  0  0  0  0
 10  4  1  0  0  0  0
 11  5  2  0  0  0  0
 12 19  2  0  0  0  0
 14  2  1  0  0  0  0
 15 16  1  0  0  0  0
 16 22  1  0  0  0  0
 16 12  1  0  0  0  0
 17 27  1  6  0  0  0
 17 10  1  0  0  0  0
 17  9  1  0  0  0  0
 18  3  2  0  0  0  0
 19 13  1  0  0  0  0
 20 26  1  0  0  0  0
 20 21  1  0  0  0  0
 22 24  1  0  0  0  0
 22 25  2  0  0  0  0
 23 21  2  0  0  0  0
 24 20  2  0  0  0  0
 25 23  1  0  0  0  0
 28 27  1  0  0  0  0
 30 29  1  1  0  0  0
 30 28  1  0  0  0  0
 31 30  1  0  0  0  0
 32 33  2  0  0  0  0
 33 31  1  0  0  0  0
 34 33  1  0  0  0  0
M  END
>  <MODEL>
9

>  <REMARK>
 VINA RESULT:      -7.1      3.414      6.996
  Name = 
  6 active torsions:
  status: ('A' for Active; 'I' for Inactive)
    1  A    between atoms: N_3  and  C_13
    2  A    between atoms: N_3  and  C_29
    3  A    between atoms: C_12  and  N_28
    4  A    between atoms: C_13  and  C_33
    5  A    between atoms: C_20  and  C_22
    6  A    between atoms: C_22  and  C_33
                            x       y       z     vdW  Elec       q    Type
                         _______ _______ _______ _____ _____    ______ ____

>  <TORSDO>
F 6

$$$$
