=
 OpenBabel11052420063D

 37 42  0  0  1  0  0  0  0  0999 V2000
  192.7270  176.3790  145.1810 O   0  0  0  0  0  0  0  0  0  0  0  0
  188.5870  175.3450  146.0480 C   0  0  1  0  0  3  0  0  0  0  0  0
  193.8520  176.0100  144.4180 C   0  0  1  0  0  3  0  0  0  0  0  0
  189.1240  176.8230  142.5660 C   0  0  0  0  0  2  0  0  0  0  0  0
  189.3070  176.2240  145.0430 C   0  0  2  0  0  3  0  0  0  0  0  0
  189.6590  174.4400  146.6650 C   0  0  1  0  0  3  0  0  0  0  0  0
  188.3710  176.5580  143.8770 C   0  0  1  0  0  3  0  0  0  0  0  0
  193.6510  176.3190  143.0580 O   0  0  0  0  0  0  0  0  0  0  0  0
  190.7910  174.3830  145.6490 C   0  0  2  0  0  3  0  0  0  0  0  0
  186.7240  176.5520  146.4030 C   0  0  0  0  0  2  0  0  0  0  0  0
  192.2660  176.3280  142.8980 C   0  0  2  0  0  0  0  0  0  0  0  0
  190.1910  177.9150  142.6820 C   0  0  0  0  0  2  0  0  0  0  0  0
  187.9170  176.1260  147.0030 O   0  0  0  0  0  0  0  0  0  0  0  0
  190.4880  175.4110  144.5670 C   0  0  2  0  0  3  0  0  0  0  0  0
  187.3310  177.6660  144.1820 C   0  0  2  0  0  3  0  0  0  0  0  0
  191.5410  177.5960  143.3810 C   0  0  1  0  0  3  0  0  0  0  0  0
  191.6690  176.3460  144.2730 C   0  0  1  0  0  0  0  0  0  0  0  0
  186.9670  177.8670  145.6630 C   0  0  0  0  0  2  0  0  0  0  0  0
  184.2050  179.0920  143.7520 N   0  0  0  0  0  1  0  0  0  0  0  0
  186.0500  177.5440  143.3420 C   0  0  2  0  0  3  0  0  0  0  0  0
  186.2680  176.8020  142.0190 C   0  0  0  0  0  2  0  0  0  0  0  0
  185.5830  177.4590  139.8060 O   0  0  0  0  0  0  0  0  0  0  0  0
  185.1680  178.9160  141.5910 N   0  0  0  0  0  2  0  0  0  0  0  0
  185.6580  177.7150  141.0350 C   0  0  0  0  0  0  0  0  0  0  0  0
  185.4440  178.9170  143.0150 C   0  0  1  0  0  3  0  0  0  0  0  0
  191.6660  175.3520  141.8860 C   0  0  0  0  0  2  0  0  0  0  0  0
  192.7370  174.4080  141.3760 C   0  0  0  0  0  1  0  0  0  0  0  0
  194.6950  177.8090  145.7390 O   0  0  0  0  0  1  0  0  0  0  0  0
  195.0790  176.7460  144.9220 C   0  0  0  0  0  2  0  0  0  0  0  0
  190.9280  173.0140  145.0540 C   0  0  0  0  0  0  0  0  0  0  0  0
  192.1110  172.6390  144.5700 C   0  0  0  0  0  2  0  0  0  0  0  0
  189.7150  172.1730  144.7750 C   0  0  0  0  0  2  0  0  0  0  0  0
  189.5180  171.9560  143.2830 C   0  0  0  0  0  2  0  0  0  0  0  0
  188.7640  172.9960  142.7420 O   0  0  0  0  0  1  0  0  0  0  0  0
  190.2200  174.9700  147.9800 C   0  0  0  0  0  2  0  0  0  0  0  0
  191.5950  175.5690  147.7600 C   0  0  0  0  0  2  0  0  0  0  0  0
  191.6170  176.9880  148.2840 C   0  0  0  0  0  1  0  0  0  0  0  0
  2  6  1  0  0  0  0
  2 13  1  1  0  0  0
  3 29  1  1  0  0  0
  3  1  1  0  0  0  0
  4 12  1  0  0  0  0
  4  7  1  0  0  0  0
  5  2  1  0  0  0  0
  6 35  1  0  0  0  0
  7 15  1  0  0  0  0
  7  5  1  0  0  0  0
  8  3  1  0  0  0  0
  9  6  1  0  0  0  0
 10 13  1  0  0  0  0
 11  8  1  0  0  0  0
 11 16  1  0  0  0  0
 11 17  1  0  0  0  0
 12 16  1  0  0  0  0
 14  5  1  0  0  0  0
 14  9  1  0  0  0  0
 15 18  1  0  0  0  0
 16 17  1  0  0  0  0
 17 14  1  0  0  0  0
 17  1  1  0  0  0  0
 18 10  1  0  0  0  0
 20 15  1  0  0  0  0
 21 20  1  0  0  0  0
 22 24  2  0  0  0  0
 23 25  1  0  0  0  0
 24 23  1  0  0  0  0
 24 21  1  0  0  0  0
 25 20  1  0  0  0  0
 25 19  1  0  0  0  0
 26 11  1  0  0  0  0
 27 26  1  0  0  0  0
 29 28  1  0  0  0  0
 30  9  1  0  0  0  0
 31 30  2  0  0  0  0
 32 30  1  0  0  0  0
 33 32  1  0  0  0  0
 34 33  1  0  0  0  0
 36 35  1  0  0  0  0
 36 37  1  0  0  0  0
M  END
>  <MODEL>
1

>  <REMARK>
 VINA RESULT:      -7.6      0.000      0.000
  Name = 
  8 active torsions:
  status: ('A' for Active; 'I' for Inactive)
    1  A    between atoms: C_3  and  C_32
    2  A    between atoms: C_5  and  C_23
    3  A    between atoms: C_6  and  C_31
    4  A    between atoms: C_9  and  C_13
    5  A    between atoms: C_9  and  C_16
    6  A    between atoms: C_11  and  C_26
    7  A    between atoms: C_20  and  C_21
    8  A    between atoms: C_21  and  C_32
                            x       y       z     vdW  Elec       q    Type
                         _______ _______ _______ _____ _____    ______ ____

>  <TORSDO>
F 8

$$$$
=
 OpenBabel11052420063D

 37 42  0  0  1  0  0  0  0  0999 V2000
  188.1900  176.4220  141.1180 O   0  0  0  0  0  0  0  0  0  0  0  0
  191.8260  174.0380  141.3480 C   0  0  1  0  0  3  0  0  0  0  0  0
  186.9050  176.5880  141.6720 C   0  0  1  0  0  3  0  0  0  0  0  0
  191.3020  176.3670  144.3310 C   0  0  0  0  0  2  0  0  0  0  0  0
  191.3000  175.2970  142.0110 C   0  0  2  0  0  3  0  0  0  0  0  0
  190.6180  173.3750  140.6780 C   0  0  1  0  0  3  0  0  0  0  0  0
  192.1090  175.5970  143.2770 C   0  0  1  0  0  3  0  0  0  0  0  0
  186.9930  177.1270  142.9720 O   0  0  0  0  0  0  0  0  0  0  0  0
  189.3940  173.8910  141.4210 C   0  0  2  0  0  3  0  0  0  0  0  0
  194.0160  174.5240  141.2030 C   0  0  0  0  0  2  0  0  0  0  0  0
  188.2620  176.7620  143.4210 C   0  0  2  0  0  0  0  0  0  0  0  0
  190.6900  177.6690  143.8050 C   0  0  0  0  0  2  0  0  0  0  0  0
  192.8530  174.3450  140.4410 O   0  0  0  0  0  0  0  0  0  0  0  0
  189.8580  175.0020  142.3530 C   0  0  2  0  0  3  0  0  0  0  0  0
  193.4930  176.2460  143.0190 C   0  0  2  0  0  3  0  0  0  0  0  0
  189.4320  177.6130  142.8980 C   0  0  1  0  0  3  0  0  0  0  0  0
  189.0280  176.2870  142.2240 C   0  0  1  0  0  0  0  0  0  0  0  0
  194.1190  175.9850  141.6390 C   0  0  0  0  0  2  0  0  0  0  0  0
  193.9510  174.3410  145.8740 N   0  0  0  0  0  1  0  0  0  0  0  0
  194.5190  175.9470  144.1220 C   0  0  2  0  0  3  0  0  0  0  0  0
  195.9540  176.3040  143.7210 C   0  0  0  0  0  2  0  0  0  0  0  0
  197.9410  174.9570  143.9150 O   0  0  0  0  0  0  0  0  0  0  0  0
  195.8850  174.0260  144.5370 N   0  0  0  0  0  2  0  0  0  0  0  0
  196.6960  175.0740  144.0530 C   0  0  0  0  0  0  0  0  0  0  0  0
  194.5030  174.4680  144.5370 C   0  0  1  0  0  3  0  0  0  0  0  0
  188.3430  175.9110  144.6890 C   0  0  0  0  0  2  0  0  0  0  0  0
  187.6440  176.6170  145.8350 C   0  0  0  0  0  1  0  0  0  0  0  0
  186.5390  177.4600  139.4820 O   0  0  0  0  0  1  0  0  0  0  0  0
  186.0850  177.5180  140.8000 C   0  0  0  0  0  2  0  0  0  0  0  0
  188.7210  172.7980  142.1960 C   0  0  0  0  0  0  0  0  0  0  0  0
  187.3970  172.8370  142.3440 C   0  0  0  0  0  2  0  0  0  0  0  0
  189.5260  171.8200  143.0030 C   0  0  0  0  0  2  0  0  0  0  0  0
  189.7400  172.3120  144.4250 C   0  0  0  0  0  2  0  0  0  0  0  0
  191.0990  172.5150  144.6640 O   0  0  0  0  0  1  0  0  0  0  0  0
  190.4690  173.7300  139.2020 C   0  0  0  0  0  2  0  0  0  0  0  0
  189.0030  173.8900  138.8470 C   0  0  0  0  0  2  0  0  0  0  0  0
  188.8460  173.8900  137.3430 C   0  0  0  0  0  1  0  0  0  0  0  0
  1  3  1  0  0  0  0
  1 17  1  0  0  0  0
  2 13  1  6  0  0  0
  2  5  1  0  0  0  0
  3 29  1  6  0  0  0
  3  8  1  0  0  0  0
  5 14  1  0  0  0  0
  5  7  1  0  0  0  0
  6  2  1  0  0  0  0
  6  9  1  0  0  0  0
  7  4  1  0  0  0  0
  8 11  1  0  0  0  0
  9 30  1  0  0  0  0
  9 14  1  0  0  0  0
 10 18  1  0  0  0  0
 11 26  1  0  0  0  0
 12  4  1  0  0  0  0
 13 10  1  0  0  0  0
 15  7  1  0  0  0  0
 15 20  1  0  0  0  0
 16 11  1  0  0  0  0
 16 12  1  0  0  0  0
 17 14  1  0  0  0  0
 17 16  1  0  0  0  0
 17 11  1  0  0  0  0
 18 15  1  0  0  0  0
 20 25  1  0  0  0  0
 21 24  1  0  0  0  0
 21 20  1  0  0  0  0
 22 24  2  0  0  0  0
 24 23  1  0  0  0  0
 25 23  1  0  0  0  0
 25 19  1  0  0  0  0
 26 27  1  0  0  0  0
 28 29  1  0  0  0  0
 30 31  2  0  0  0  0
 30 32  1  0  0  0  0
 32 33  1  0  0  0  0
 33 34  1  0  0  0  0
 35  6  1  0  0  0  0
 36 35  1  0  0  0  0
 37 36  1  0  0  0  0
M  END
>  <MODEL>
2

>  <REMARK>
 VINA RESULT:      -7.0      3.451      7.474
  Name = 
  8 active torsions:
  status: ('A' for Active; 'I' for Inactive)
    1  A    between atoms: C_3  and  C_32
    2  A    between atoms: C_5  and  C_23
    3  A    between atoms: C_6  and  C_31
    4  A    between atoms: C_9  and  C_13
    5  A    between atoms: C_9  and  C_16
    6  A    between atoms: C_11  and  C_26
    7  A    between atoms: C_20  and  C_21
    8  A    between atoms: C_21  and  C_32
                            x       y       z     vdW  Elec       q    Type
                         _______ _______ _______ _____ _____    ______ ____

>  <TORSDO>
F 8

$$$$
=
 OpenBabel11052420063D

 37 42  0  0  1  0  0  0  0  0999 V2000
  195.5700  172.8270  144.4740 O   0  0  0  0  0  0  0  0  0  0  0  0
  191.4110  173.7290  143.5520 C   0  0  1  0  0  3  0  0  0  0  0  0
  196.9000  173.0960  144.0950 C   0  0  1  0  0  3  0  0  0  0  0  0
  193.3180  176.6360  145.1350 C   0  0  0  0  0  2  0  0  0  0  0  0
  192.4880  174.3230  144.4410 C   0  0  2  0  0  3  0  0  0  0  0  0
  192.1320  172.7800  142.5890 C   0  0  1  0  0  3  0  0  0  0  0  0
  192.1000  175.7480  144.8490 C   0  0  1  0  0  3  0  0  0  0  0  0
  197.2640  174.4080  144.4600 O   0  0  0  0  0  0  0  0  0  0  0  0
  193.5750  173.2620  142.5300 C   0  0  2  0  0  3  0  0  0  0  0  0
  189.5830  174.0900  144.8080 C   0  0  0  0  0  2  0  0  0  0  0  0
  196.0580  175.1050  144.5220 C   0  0  2  0  0  0  0  0  0  0  0  0
  194.2690  176.0540  146.1850 C   0  0  0  0  0  2  0  0  0  0  0  0
  190.4290  173.0850  144.3200 O   0  0  0  0  0  0  0  0  0  0  0  0
  193.7470  174.3270  143.6060 C   0  0  2  0  0  3  0  0  0  0  0  0
  191.0440  175.8310  145.9800 C   0  0  2  0  0  3  0  0  0  0  0  0
  195.2230  174.8920  145.7960 C   0  0  1  0  0  3  0  0  0  0  0  0
  194.9620  174.0820  144.5100 C   0  0  1  0  0  0  0  0  0  0  0  0
  190.1220  174.6090  146.1390 C   0  0  0  0  0  2  0  0  0  0  0  0
  190.4710  178.6460  144.0470 N   0  0  0  0  0  1  0  0  0  0  0  0
  190.2030  177.1150  145.9330 C   0  0  2  0  0  3  0  0  0  0  0  0
  188.9440  177.0420  146.8030 C   0  0  0  0  0  2  0  0  0  0  0  0
  186.6790  177.6050  146.2090 O   0  0  0  0  0  0  0  0  0  0  0  0
  188.3410  177.7400  144.5650 N   0  0  0  0  0  2  0  0  0  0  0  0
  187.8860  177.4790  145.8760 C   0  0  0  0  0  0  0  0  0  0  0  0
  189.7630  177.4630  144.5030 C   0  0  1  0  0  3  0  0  0  0  0  0
  195.8950  176.3170  143.6040 C   0  0  0  0  0  2  0  0  0  0  0  0
  197.2510  176.7770  143.1060 C   0  0  0  0  0  1  0  0  0  0  0  0
  197.1600  171.4280  145.7810 O   0  0  0  0  0  1  0  0  0  0  0  0
  197.8360  172.1120  144.7700 C   0  0  0  0  0  2  0  0  0  0  0  0
  193.9140  173.8170  141.1790 C   0  0  0  0  0  0  0  0  0  0  0  0
  192.9500  173.9170  140.2660 C   0  0  0  0  0  2  0  0  0  0  0  0
  195.3450  174.0220  140.7700 C   0  0  0  0  0  2  0  0  0  0  0  0
  195.5150  175.2920  139.9520 C   0  0  0  0  0  2  0  0  0  0  0  0
  196.8690  175.5990  139.8170 O   0  0  0  0  0  1  0  0  0  0  0  0
  192.1300  171.3270  143.0510 C   0  0  0  0  0  2  0  0  0  0  0  0
  191.7480  170.4120  141.9040 C   0  0  0  0  0  2  0  0  0  0  0  0
  190.6340  171.0480  141.1020 C   0  0  0  0  0  1  0  0  0  0  0  0
  1 17  1  0  0  0  0
  2 13  1  1  0  0  0
  2  5  1  0  0  0  0
  3  8  1  0  0  0  0
  3  1  1  0  0  0  0
  3 29  1  1  0  0  0
  4 12  1  0  0  0  0
  5  7  1  0  0  0  0
  6 35  1  0  0  0  0
  6  2  1  0  0  0  0
  7  4  1  0  0  0  0
  7 15  1  0  0  0  0
  8 11  1  0  0  0  0
  9  6  1  0  0  0  0
  9 14  1  0  0  0  0
 10 18  1  0  0  0  0
 11 16  1  0  0  0  0
 13 10  1  0  0  0  0
 14  5  1  0  0  0  0
 14 17  1  0  0  0  0
 15 18  1  0  0  0  0
 16 12  1  0  0  0  0
 17 11  1  0  0  0  0
 17 16  1  0  0  0  0
 19 25  1  0  0  0  0
 20 15  1  0  0  0  0
 20 21  1  0  0  0  0
 23 24  1  0  0  0  0
 24 22  2  0  0  0  0
 24 21  1  0  0  0  0
 25 23  1  0  0  0  0
 25 20  1  0  0  0  0
 26 11  1  0  0  0  0
 27 26  1  0  0  0  0
 29 28  1  0  0  0  0
 30  9  1  0  0  0  0
 31 30  2  0  0  0  0
 32 30  1  0  0  0  0
 33 32  1  0  0  0  0
 34 33  1  0  0  0  0
 36 35  1  0  0  0  0
 37 36  1  0  0  0  0
M  END
>  <MODEL>
3

>  <REMARK>
 VINA RESULT:      -6.9      2.902      5.501
  Name = 
  8 active torsions:
  status: ('A' for Active; 'I' for Inactive)
    1  A    between atoms: C_3  and  C_32
    2  A    between atoms: C_5  and  C_23
    3  A    between atoms: C_6  and  C_31
    4  A    between atoms: C_9  and  C_13
    5  A    between atoms: C_9  and  C_16
    6  A    between atoms: C_11  and  C_26
    7  A    between atoms: C_20  and  C_21
    8  A    between atoms: C_21  and  C_32
                            x       y       z     vdW  Elec       q    Type
                         _______ _______ _______ _____ _____    ______ ____

>  <TORSDO>
F 8

$$$$
=
 OpenBabel11052420063D

 37 42  0  0  1  0  0  0  0  0999 V2000
  191.5010  173.5730  139.7670 O   0  0  0  0  0  0  0  0  0  0  0  0
  192.3330  176.2250  143.1180 C   0  0  1  0  0  3  0  0  0  0  0  0
  191.3210  172.2230  139.4060 C   0  0  1  0  0  3  0  0  0  0  0  0
  188.8520  174.6540  143.2060 C   0  0  0  0  0  2  0  0  0  0  0  0
  191.0940  175.6340  142.4730 C   0  0  2  0  0  3  0  0  0  0  0  0
  193.5190  175.4200  142.5760 C   0  0  1  0  0  3  0  0  0  0  0  0
  189.9020  175.7500  143.4280 C   0  0  1  0  0  3  0  0  0  0  0  0
  190.0910  171.7390  139.8950 O   0  0  0  0  0  0  0  0  0  0  0  0
  192.9460  174.0800  142.1340 C   0  0  2  0  0  3  0  0  0  0  0  0
  191.5650  178.2470  143.7290 C   0  0  0  0  0  2  0  0  0  0  0  0
  189.8020  172.5520  140.9910 C   0  0  2  0  0  0  0  0  0  0  0  0
  188.3360  174.5810  141.7660 C   0  0  0  0  0  2  0  0  0  0  0  0
  192.4340  177.5980  142.8410 O   0  0  0  0  0  0  0  0  0  0  0  0
  191.4280  174.1850  142.2050 C   0  0  2  0  0  3  0  0  0  0  0  0
  189.2620  177.1610  143.4930 C   0  0  2  0  0  3  0  0  0  0  0  0
  189.2230  173.9390  140.6650 C   0  0  1  0  0  3  0  0  0  0  0  0
  190.7290  173.7270  140.9180 C   0  0  1  0  0  0  0  0  0  0  0  0
  190.1730  178.3380  143.1060 C   0  0  0  0  0  2  0  0  0  0  0  0
  186.3590  178.4860  144.8360 N   0  0  0  0  0  1  0  0  0  0  0  0
  188.5730  177.4540  144.8340 C   0  0  2  0  0  3  0  0  0  0  0  0
  189.1270  176.6140  145.9900 C   0  0  0  0  0  2  0  0  0  0  0  0
  187.9090  175.3310  147.6250 O   0  0  0  0  0  0  0  0  0  0  0  0
  186.7150  176.4080  145.9230 N   0  0  0  0  0  2  0  0  0  0  0  0
  187.9040  176.0590  146.5990 C   0  0  0  0  0  0  0  0  0  0  0  0
  187.0570  177.2150  144.7670 C   0  0  1  0  0  3  0  0  0  0  0  0
  189.6380  171.8720  142.3500 C   0  0  0  0  0  2  0  0  0  0  0  0
  190.4440  170.5880  142.3900 C   0  0  0  0  0  1  0  0  0  0  0  0
  190.3490  172.8780  137.3290 O   0  0  0  0  0  1  0  0  0  0  0  0
  191.3470  172.0860  137.8960 C   0  0  0  0  0  2  0  0  0  0  0  0
  193.4390  172.9590  142.9990 C   0  0  0  0  0  0  0  0  0  0  0  0
  194.3000  172.0830  142.4850 C   0  0  0  0  0  2  0  0  0  0  0  0
  192.7960  172.6730  144.3260 C   0  0  0  0  0  2  0  0  0  0  0  0
  193.8140  172.7020  145.4560 C   0  0  0  0  0  2  0  0  0  0  0  0
  194.2590  174.0070  145.6670 O   0  0  0  0  0  1  0  0  0  0  0  0
  194.1990  176.0700  141.3760 C   0  0  0  0  0  2  0  0  0  0  0  0
  195.6340  176.4240  141.7150 C   0  0  0  0  0  2  0  0  0  0  0  0
  195.9690  175.9020  143.0950 C   0  0  0  0  0  1  0  0  0  0  0  0
  1 17  1  0  0  0  0
  2 13  1  6  0  0  0
  3 29  1  6  0  0  0
  3  1  1  0  0  0  0
  3  8  1  0  0  0  0
  4  7  1  0  0  0  0
  5  2  1  0  0  0  0
  5  7  1  0  0  0  0
  6  2  1  0  0  0  0
  7 15  1  0  0  0  0
  8 11  1  0  0  0  0
  9 14  1  0  0  0  0
  9  6  1  0  0  0  0
  9 30  1  0  0  0  0
 11 26  1  0  0  0  0
 12  4  1  0  0  0  0
 13 10  1  0  0  0  0
 14  5  1  0  0  0  0
 15 20  1  0  0  0  0
 16 17  1  0  0  0  0
 16 11  1  0  0  0  0
 16 12  1  0  0  0  0
 17 11  1  0  0  0  0
 17 14  1  0  0  0  0
 18 15  1  0  0  0  0
 18 10  1  0  0  0  0
 20 21  1  0  0  0  0
 21 24  1  0  0  0  0
 23 24  1  0  0  0  0
 24 22  2  0  0  0  0
 25 20  1  0  0  0  0
 25 19  1  0  0  0  0
 25 23  1  0  0  0  0
 26 27  1  0  0  0  0
 28 29  1  0  0  0  0
 30 32  1  0  0  0  0
 31 30  2  0  0  0  0
 32 33  1  0  0  0  0
 33 34  1  0  0  0  0
 35 36  1  0  0  0  0
 35  6  1  0  0  0  0
 36 37  1  0  0  0  0
M  END
>  <MODEL>
4

>  <REMARK>
 VINA RESULT:      -6.5      2.426      5.409
  Name = 
  8 active torsions:
  status: ('A' for Active; 'I' for Inactive)
    1  A    between atoms: C_3  and  C_32
    2  A    between atoms: C_5  and  C_23
    3  A    between atoms: C_6  and  C_31
    4  A    between atoms: C_9  and  C_13
    5  A    between atoms: C_9  and  C_16
    6  A    between atoms: C_11  and  C_26
    7  A    between atoms: C_20  and  C_21
    8  A    between atoms: C_21  and  C_32
                            x       y       z     vdW  Elec       q    Type
                         _______ _______ _______ _____ _____    ______ ____

>  <TORSDO>
F 8

$$$$
=
 OpenBabel11052420063D

 37 42  0  0  1  0  0  0  0  0999 V2000
  191.9510  173.8210  139.8250 O   0  0  0  0  0  0  0  0  0  0  0  0
  191.8240  175.9720  143.6090 C   0  0  1  0  0  3  0  0  0  0  0  0
  192.0550  172.5380  139.2520 C   0  0  1  0  0  3  0  0  0  0  0  0
  188.6800  173.9290  142.8750 C   0  0  0  0  0  2  0  0  0  0  0  0
  190.8100  175.3260  142.6830 C   0  0  2  0  0  3  0  0  0  0  0  0
  193.1950  175.4450  143.1700 C   0  0  1  0  0  3  0  0  0  0  0  0
  189.4880  175.1110  143.4270 C   0  0  1  0  0  3  0  0  0  0  0  0
  190.8640  171.8100  139.4500 O   0  0  0  0  0  0  0  0  0  0  0  0
  192.9250  174.1290  142.4520 C   0  0  2  0  0  3  0  0  0  0  0  0
  190.6470  177.7340  144.3570 C   0  0  0  0  0  2  0  0  0  0  0  0
  190.2850  172.3800  140.5830 C   0  0  2  0  0  0  0  0  0  0  0  0
  188.4020  174.0230  141.3720 C   0  0  0  0  0  2  0  0  0  0  0  0
  191.7330  177.3720  143.5490 O   0  0  0  0  0  0  0  0  0  0  0  0
  191.4170  174.0040  142.2760 C   0  0  2  0  0  3  0  0  0  0  0  0
  188.6190  176.3860  143.5780 C   0  0  2  0  0  3  0  0  0  0  0  0
  189.5370  173.7060  140.3610 C   0  0  1  0  0  3  0  0  0  0  0  0
  191.0030  173.6710  140.8360 C   0  0  1  0  0  0  0  0  0  0  0  0
  189.3670  177.7290  143.5230 C   0  0  0  0  0  2  0  0  0  0  0  0
  188.5230  175.3570  146.8830 N   0  0  0  0  0  1  0  0  0  0  0  0
  187.7000  176.3510  144.8090 C   0  0  2  0  0  3  0  0  0  0  0  0
  186.5710  177.3850  144.7450 C   0  0  0  0  0  2  0  0  0  0  0  0
  185.8840  178.9580  146.4350 O   0  0  0  0  0  0  0  0  0  0  0  0
  187.7420  177.5960  146.8530 N   0  0  0  0  0  2  0  0  0  0  0  0
  186.6720  178.0540  146.0540 C   0  0  0  0  0  0  0  0  0  0  0  0
  188.4760  176.5870  146.1130 C   0  0  1  0  0  3  0  0  0  0  0  0
  190.0380  171.4670  141.7850 C   0  0  0  0  0  2  0  0  0  0  0  0
  190.9380  170.2500  141.7070 C   0  0  0  0  0  1  0  0  0  0  0  0
  191.3990  173.5220  137.1810 O   0  0  0  0  0  1  0  0  0  0  0  0
  192.3250  172.6590  137.7650 C   0  0  0  0  0  2  0  0  0  0  0  0
  193.4660  172.9620  143.2230 C   0  0  0  0  0  0  0  0  0  0  0  0
  194.1760  172.0390  142.5760 C   0  0  0  0  0  2  0  0  0  0  0  0
  193.0140  172.6950  144.6300 C   0  0  0  0  0  2  0  0  0  0  0  0
  194.1840  172.3360  145.5330 C   0  0  0  0  0  2  0  0  0  0  0  0
  195.0360  173.4310  145.6720 O   0  0  0  0  0  1  0  0  0  0  0  0
  193.9260  176.3750  142.2090 C   0  0  0  0  0  2  0  0  0  0  0  0
  195.4170  176.1010  142.2470 C   0  0  0  0  0  2  0  0  0  0  0  0
  195.9110  176.1990  143.6730 C   0  0  0  0  0  1  0  0  0  0  0  0
  1 17  1  0  0  0  0
  2 13  1  6  0  0  0
  3 29  1  6  0  0  0
  3  8  1  0  0  0  0
  3  1  1  0  0  0  0
  4  7  1  0  0  0  0
  5  7  1  0  0  0  0
  5  2  1  0  0  0  0
  6  2  1  0  0  0  0
  7 15  1  0  0  0  0
  8 11  1  0  0  0  0
  9  6  1  0  0  0  0
  9 30  1  0  0  0  0
 11 17  1  0  0  0  0
 11 26  1  0  0  0  0
 12  4  1  0  0  0  0
 13 10  1  0  0  0  0
 14  9  1  0  0  0  0
 14  5  1  0  0  0  0
 15 20  1  0  0  0  0
 16 11  1  0  0  0  0
 16 17  1  0  0  0  0
 16 12  1  0  0  0  0
 17 14  1  0  0  0  0
 18 15  1  0  0  0  0
 18 10  1  0  0  0  0
 20 25  1  0  0  0  0
 21 20  1  0  0  0  0
 21 24  1  0  0  0  0
 24 22  2  0  0  0  0
 24 23  1  0  0  0  0
 25 23  1  0  0  0  0
 25 19  1  0  0  0  0
 27 26  1  0  0  0  0
 28 29  1  0  0  0  0
 30 32  1  0  0  0  0
 31 30  2  0  0  0  0
 32 33  1  0  0  0  0
 33 34  1  0  0  0  0
 35 36  1  0  0  0  0
 35  6  1  0  0  0  0
 36 37  1  0  0  0  0
M  END
>  <MODEL>
5

>  <REMARK>
 VINA RESULT:      -6.5      2.804      5.214
  Name = 
  8 active torsions:
  status: ('A' for Active; 'I' for Inactive)
    1  A    between atoms: C_3  and  C_32
    2  A    between atoms: C_5  and  C_23
    3  A    between atoms: C_6  and  C_31
    4  A    between atoms: C_9  and  C_13
    5  A    between atoms: C_9  and  C_16
    6  A    between atoms: C_11  and  C_26
    7  A    between atoms: C_20  and  C_21
    8  A    between atoms: C_21  and  C_32
                            x       y       z     vdW  Elec       q    Type
                         _______ _______ _______ _____ _____    ______ ____

>  <TORSDO>
F 8

$$$$
=
 OpenBabel11052420063D

 37 42  0  0  1  0  0  0  0  0999 V2000
  191.3530  174.5330  145.8690 O   0  0  0  0  0  0  0  0  0  0  0  0
  194.0240  172.7180  142.9480 C   0  0  1  0  0  3  0  0  0  0  0  0
  190.8680  175.7640  146.3520 C   0  0  1  0  0  3  0  0  0  0  0  0
  190.8900  174.2860  141.4260 C   0  0  0  0  0  2  0  0  0  0  0  0
  192.5700  173.1510  142.9800 C   0  0  2  0  0  3  0  0  0  0  0  0
  194.6880  173.3700  144.1660 C   0  0  1  0  0  3  0  0  0  0  0  0
  192.0280  173.2640  141.5510 C   0  0  1  0  0  3  0  0  0  0  0  0
  189.9950  176.3540  145.4150 O   0  0  0  0  0  0  0  0  0  0  0  0
  193.8250  174.5750  144.5150 C   0  0  2  0  0  3  0  0  0  0  0  0
  193.8900  170.8950  141.6400 C   0  0  0  0  0  2  0  0  0  0  0  0
  190.3790  175.8170  144.1870 C   0  0  2  0  0  0  0  0  0  0  0  0
  189.7250  174.0290  142.3860 C   0  0  0  0  0  2  0  0  0  0  0  0
  194.1270  171.3170  142.9550 O   0  0  0  0  0  0  0  0  0  0  0  0
  192.5630  174.4980  143.6650 C   0  0  2  0  0  3  0  0  0  0  0  0
  191.6660  171.9100  140.8890 C   0  0  2  0  0  3  0  0  0  0  0  0
  189.8740  174.3950  143.8880 C   0  0  1  0  0  3  0  0  0  0  0  0
  191.2730  174.6510  144.4820 C   0  0  1  0  0  0  0  0  0  0  0  0
  192.3920  170.6700  141.4390 C   0  0  0  0  0  2  0  0  0  0  0  0
  190.0400  170.8350  138.0280 N   0  0  0  0  0  1  0  0  0  0  0  0
  191.7680  171.9370  139.3570 C   0  0  2  0  0  3  0  0  0  0  0  0
  192.6570  173.0710  138.8340 C   0  0  0  0  0  2  0  0  0  0  0  0
  192.1770  174.6690  137.0970 O   0  0  0  0  0  0  0  0  0  0  0  0
  190.5160  173.1360  137.7070 N   0  0  0  0  0  2  0  0  0  0  0  0
  191.8040  173.7040  137.8120 C   0  0  0  0  0  0  0  0  0  0  0  0
  190.3910  172.0780  138.6910 C   0  0  1  0  0  3  0  0  0  0  0  0
  190.8340  176.7930  143.1010 C   0  0  0  0  0  2  0  0  0  0  0  0
  191.2500  178.1100  143.7260 C   0  0  0  0  0  1  0  0  0  0  0  0
  189.1400  174.5790  147.4920 O   0  0  0  0  0  1  0  0  0  0  0  0
  190.1280  175.5500  147.6580 C   0  0  0  0  0  2  0  0  0  0  0  0
  194.5520  175.8620  144.2650 C   0  0  0  0  0  0  0  0  0  0  0  0
  194.4810  176.8280  145.1800 C   0  0  0  0  0  2  0  0  0  0  0  0
  195.1380  176.1650  142.9150 C   0  0  0  0  0  2  0  0  0  0  0  0
  196.5640  176.6790  143.0280 C   0  0  0  0  0  2  0  0  0  0  0  0
  197.3920  175.6860  143.5500 O   0  0  0  0  0  1  0  0  0  0  0  0
  194.7540  172.4570  145.3850 C   0  0  0  0  0  2  0  0  0  0  0  0
  196.1980  172.1570  145.7380 C   0  0  0  0  0  2  0  0  0  0  0  0
  196.8730  173.4230  146.2160 C   0  0  0  0  0  1  0  0  0  0  0  0
  1  3  1  0  0  0  0
  2 13  1  1  0  0  0
  2  5  1  0  0  0  0
  2  6  1  0  0  0  0
  3 29  1  1  0  0  0
  4  7  1  0  0  0  0
  4 12  1  0  0  0  0
  5 14  1  0  0  0  0
  6  9  1  0  0  0  0
  6 35  1  0  0  0  0
  7  5  1  0  0  0  0
  8  3  1  0  0  0  0
 10 13  1  0  0  0  0
 11 17  1  0  0  0  0
 11  8  1  0  0  0  0
 12 16  1  0  0  0  0
 14 17  1  0  0  0  0
 14  9  1  0  0  0  0
 15 18  1  0  0  0  0
 15  7  1  0  0  0  0
 16 11  1  0  0  0  0
 16 17  1  0  0  0  0
 17  1  1  0  0  0  0
 18 10  1  0  0  0  0
 19 25  1  0  0  0  0
 20 15  1  0  0  0  0
 21 20  1  0  0  0  0
 22 24  2  0  0  0  0
 23 24  1  0  0  0  0
 23 25  1  0  0  0  0
 24 21  1  0  0  0  0
 25 20  1  0  0  0  0
 26 27  1  0  0  0  0
 26 11  1  0  0  0  0
 28 29  1  0  0  0  0
 30  9  1  0  0  0  0
 30 31  2  0  0  0  0
 32 33  1  0  0  0  0
 32 30  1  0  0  0  0
 33 34  1  0  0  0  0
 35 36  1  0  0  0  0
 36 37  1  0  0  0  0
M  END
>  <MODEL>
6

>  <REMARK>
 VINA RESULT:      -6.4      3.708      6.612
  Name = 
  8 active torsions:
  status: ('A' for Active; 'I' for Inactive)
    1  A    between atoms: C_3  and  C_32
    2  A    between atoms: C_5  and  C_23
    3  A    between atoms: C_6  and  C_31
    4  A    between atoms: C_9  and  C_13
    5  A    between atoms: C_9  and  C_16
    6  A    between atoms: C_11  and  C_26
    7  A    between atoms: C_20  and  C_21
    8  A    between atoms: C_21  and  C_32
                            x       y       z     vdW  Elec       q    Type
                         _______ _______ _______ _____ _____    ______ ____

>  <TORSDO>
F 8

$$$$
=
 OpenBabel11052420063D

 37 42  0  0  1  0  0  0  0  0999 V2000
  187.3610  176.7070  145.1470 O   0  0  0  0  0  0  0  0  0  0  0  0
  190.7870  174.1120  144.4470 C   0  0  1  0  0  3  0  0  0  0  0  0
  186.8290  177.9820  144.8730 C   0  0  1  0  0  3  0  0  0  0  0  0
  188.5990  174.6650  141.3640 C   0  0  0  0  0  2  0  0  0  0  0  0
  189.4690  174.3960  143.7510 C   0  0  2  0  0  3  0  0  0  0  0  0
  190.9900  175.2520  145.4520 C   0  0  1  0  0  3  0  0  0  0  0  0
  189.5200  173.8810  142.3090 C   0  0  1  0  0  3  0  0  0  0  0  0
  186.4260  178.0710  143.5250 O   0  0  0  0  0  0  0  0  0  0  0  0
  190.1570  176.4170  144.9340 C   0  0  2  0  0  3  0  0  0  0  0  0
  191.0150  171.9140  144.0370 C   0  0  0  0  0  2  0  0  0  0  0  0
  187.2030  177.1220  142.8600 C   0  0  2  0  0  0  0  0  0  0  0  0
  187.1410  174.7140  141.8290 C   0  0  0  0  0  2  0  0  0  0  0  0
  190.7680  172.8460  145.0540 O   0  0  0  0  0  0  0  0  0  0  0  0
  189.3100  175.8970  143.7790 C   0  0  2  0  0  3  0  0  0  0  0  0
  189.3300  172.3490  142.1630 C   0  0  2  0  0  3  0  0  0  0  0  0
  186.7380  175.6620  142.9910 C   0  0  1  0  0  3  0  0  0  0  0  0
  187.8230  176.2530  143.9120 C   0  0  1  0  0  0  0  0  0  0  0  0
  189.6920  171.5000  143.3930 C   0  0  0  0  0  2  0  0  0  0  0  0
  190.9720  173.2950  139.2650 N   0  0  0  0  0  1  0  0  0  0  0  0
  190.0070  171.7700  140.9120 C   0  0  2  0  0  3  0  0  0  0  0  0
  190.4410  170.3100  141.0850 C   0  0  0  0  0  2  0  0  0  0  0  0
  192.5740  169.3140  140.5770 O   0  0  0  0  0  0  0  0  0  0  0  0
  192.3110  171.6210  140.2820 N   0  0  0  0  0  2  0  0  0  0  0  0
  191.8450  170.3370  140.6360 C   0  0  0  0  0  0  0  0  0  0  0  0
  191.2440  172.5800  140.4990 C   0  0  1  0  0  3  0  0  0  0  0  0
  188.1110  177.6170  141.7350 C   0  0  0  0  0  2  0  0  0  0  0  0
  187.2890  177.9130  140.4960 C   0  0  0  0  0  1  0  0  0  0  0  0
  185.0560  177.0380  146.1590 O   0  0  0  0  0  1  0  0  0  0  0  0
  185.6350  178.2450  145.7700 C   0  0  0  0  0  2  0  0  0  0  0  0
  191.0240  177.5540  144.4830 C   0  0  0  0  0  0  0  0  0  0  0  0
  190.4440  178.6790  144.0680 C   0  0  0  0  0  2  0  0  0  0  0  0
  192.4970  177.3560  144.2610 C   0  0  0  0  0  2  0  0  0  0  0  0
  192.7820  176.8020  142.8740 C   0  0  0  0  0  2  0  0  0  0  0  0
  193.5270  175.6270  142.9700 O   0  0  0  0  0  1  0  0  0  0  0  0
  190.5160  174.9120  146.8610 C   0  0  0  0  0  2  0  0  0  0  0  0
  191.5700  175.3060  147.8770 C   0  0  0  0  0  2  0  0  0  0  0  0
  191.4770  176.7910  148.1510 C   0  0  0  0  0  1  0  0  0  0  0  0
  2 13  1  1  0  0  0
  2  6  1  0  0  0  0
  3  1  1  0  0  0  0
  3 29  1  1  0  0  0
  4 12  1  0  0  0  0
  4  7  1  0  0  0  0
  5 14  1  0  0  0  0
  5  2  1  0  0  0  0
  6 35  1  0  0  0  0
  7  5  1  0  0  0  0
  8  3  1  0  0  0  0
  9  6  1  0  0  0  0
 10 13  1  0  0  0  0
 11 16  1  0  0  0  0
 11  8  1  0  0  0  0
 11 17  1  0  0  0  0
 12 16  1  0  0  0  0
 14 17  1  0  0  0  0
 14  9  1  0  0  0  0
 15  7  1  0  0  0  0
 15 18  1  0  0  0  0
 16 17  1  0  0  0  0
 17  1  1  0  0  0  0
 18 10  1  0  0  0  0
 19 25  1  0  0  0  0
 20 21  1  0  0  0  0
 20 15  1  0  0  0  0
 22 24  2  0  0  0  0
 23 25  1  0  0  0  0
 23 24  1  0  0  0  0
 24 21  1  0  0  0  0
 25 20  1  0  0  0  0
 26 11  1  0  0  0  0
 27 26  1  0  0  0  0
 29 28  1  0  0  0  0
 30  9  1  0  0  0  0
 31 30  2  0  0  0  0
 32 30  1  0  0  0  0
 33 34  1  0  0  0  0
 33 32  1  0  0  0  0
 35 36  1  0  0  0  0
 36 37  1  0  0  0  0
M  END
>  <MODEL>
7

>  <REMARK>
 VINA RESULT:      -6.3      2.989      6.245
  Name = 
  8 active torsions:
  status: ('A' for Active; 'I' for Inactive)
    1  A    between atoms: C_3  and  C_32
    2  A    between atoms: C_5  and  C_23
    3  A    between atoms: C_6  and  C_31
    4  A    between atoms: C_9  and  C_13
    5  A    between atoms: C_9  and  C_16
    6  A    between atoms: C_11  and  C_26
    7  A    between atoms: C_20  and  C_21
    8  A    between atoms: C_21  and  C_32
                            x       y       z     vdW  Elec       q    Type
                         _______ _______ _______ _____ _____    ______ ____

>  <TORSDO>
F 8

$$$$
=
 OpenBabel11052420063D

 37 42  0  0  1  0  0  0  0  0999 V2000
  188.7290  175.6630  141.8380 O   0  0  0  0  0  0  0  0  0  0  0  0
  192.2660  173.5370  140.4480 C   0  0  1  0  0  3  0  0  0  0  0  0
  187.7180  175.6630  142.8190 C   0  0  1  0  0  3  0  0  0  0  0  0
  192.7720  175.4130  143.7370 C   0  0  0  0  0  2  0  0  0  0  0  0
  191.9780  174.6570  141.4300 C   0  0  2  0  0  3  0  0  0  0  0  0
  190.9140  172.8810  140.1450 C   0  0  1  0  0  3  0  0  0  0  0  0
  193.1740  174.8470  142.3680 C   0  0  1  0  0  3  0  0  0  0  0  0
  188.2450  176.0330  144.0730 O   0  0  0  0  0  0  0  0  0  0  0  0
  190.0180  173.2070  141.3320 C   0  0  2  0  0  3  0  0  0  0  0  0
  194.2540  174.1930  139.6300 C   0  0  0  0  0  2  0  0  0  0  0  0
  189.5980  175.7040  143.9990 C   0  0  2  0  0  0  0  0  0  0  0  0
  191.9860  176.7250  143.6520 C   0  0  0  0  0  2  0  0  0  0  0  0
  192.9020  174.0320  139.2980 O   0  0  0  0  0  0  0  0  0  0  0  0
  190.7560  174.2180  142.2000 C   0  0  2  0  0  3  0  0  0  0  0  0
  194.3650  175.6220  141.7480 C   0  0  2  0  0  3  0  0  0  0  0  0
  190.4910  176.6980  143.2360 C   0  0  1  0  0  3  0  0  0  0  0  0
  189.9050  175.4450  142.5550 C   0  0  1  0  0  0  0  0  0  0  0  0
  194.4720  175.5880  140.2140 C   0  0  0  0  0  2  0  0  0  0  0  0
  197.2010  177.0420  143.1380 N   0  0  0  0  0  1  0  0  0  0  0  0
  195.7190  175.2560  142.3740 C   0  0  2  0  0  3  0  0  0  0  0  0
  195.7670  173.8190  142.9030 C   0  0  0  0  0  2  0  0  0  0  0  0
  196.5250  173.0410  145.0530 O   0  0  0  0  0  0  0  0  0  0  0  0
  196.4950  175.3440  144.6370 N   0  0  0  0  0  2  0  0  0  0  0  0
  196.2880  173.9970  144.2710 C   0  0  0  0  0  0  0  0  0  0  0  0
  196.0910  176.1940  143.5320 C   0  0  1  0  0  3  0  0  0  0  0  0
  190.1380  174.7030  145.0210 C   0  0  0  0  0  2  0  0  0  0  0  0
  189.3170  174.7670  146.2940 C   0  0  0  0  0  1  0  0  0  0  0  0
  186.4920  177.6220  143.4080 O   0  0  0  0  0  1  0  0  0  0  0  0
  186.6230  176.6370  142.4290 C   0  0  0  0  0  2  0  0  0  0  0  0
  189.6840  171.9770  142.1220 C   0  0  0  0  0  0  0  0  0  0  0  0
  188.6750  172.0260  142.9910 C   0  0  0  0  0  2  0  0  0  0  0  0
  190.6090  170.7930  142.1280 C   0  0  0  0  0  2  0  0  0  0  0  0
  191.5750  170.8480  143.3010 C   0  0  0  0  0  2  0  0  0  0  0  0
  192.8400  171.2410  142.8620 O   0  0  0  0  0  1  0  0  0  0  0  0
  190.2480  173.4140  138.8810 C   0  0  0  0  0  2  0  0  0  0  0  0
  189.2940  172.3810  138.3150 C   0  0  0  0  0  2  0  0  0  0  0  0
  189.9710  171.0280  138.2920 C   0  0  0  0  0  1  0  0  0  0  0  0
  1 17  1  0  0  0  0
  1  3  1  0  0  0  0
  2 13  1  6  0  0  0
  2  5  1  0  0  0  0
  3 29  1  6  0  0  0
  3  8  1  0  0  0  0
  5 14  1  0  0  0  0
  5  7  1  0  0  0  0
  6  2  1  0  0  0  0
  6  9  1  0  0  0  0
  7  4  1  0  0  0  0
  9 30  1  0  0  0  0
  9 14  1  0  0  0  0
 10 18  1  0  0  0  0
 11  8  1  0  0  0  0
 11 26  1  0  0  0  0
 12  4  1  0  0  0  0
 13 10  1  0  0  0  0
 14 17  1  0  0  0  0
 15  7  1  0  0  0  0
 15 20  1  0  0  0  0
 16 12  1  0  0  0  0
 16 11  1  0  0  0  0
 17 16  1  0  0  0  0
 17 11  1  0  0  0  0
 18 15  1  0  0  0  0
 19 25  1  0  0  0  0
 20 21  1  0  0  0  0
 20 25  1  0  0  0  0
 21 24  1  0  0  0  0
 24 23  1  0  0  0  0
 24 22  2  0  0  0  0
 25 23  1  0  0  0  0
 26 27  1  0  0  0  0
 29 28  1  0  0  0  0
 30 32  1  0  0  0  0
 30 31  2  0  0  0  0
 32 33  1  0  0  0  0
 34 33  1  0  0  0  0
 35  6  1  0  0  0  0
 36 35  1  0  0  0  0
 37 36  1  0  0  0  0
M  END
>  <MODEL>
8

>  <REMARK>
 VINA RESULT:      -6.3      3.846      7.703
  Name = 
  8 active torsions:
  status: ('A' for Active; 'I' for Inactive)
    1  A    between atoms: C_3  and  C_32
    2  A    between atoms: C_5  and  C_23
    3  A    between atoms: C_6  and  C_31
    4  A    between atoms: C_9  and  C_13
    5  A    between atoms: C_9  and  C_16
    6  A    between atoms: C_11  and  C_26
    7  A    between atoms: C_20  and  C_21
    8  A    between atoms: C_21  and  C_32
                            x       y       z     vdW  Elec       q    Type
                         _______ _______ _______ _____ _____    ______ ____

>  <TORSDO>
F 8

$$$$
=
 OpenBabel11052420063D

 37 42  0  0  1  0  0  0  0  0999 V2000
  191.0020  174.2080  145.6730 O   0  0  0  0  0  0  0  0  0  0  0  0
  192.9290  172.1390  142.3600 C   0  0  1  0  0  3  0  0  0  0  0  0
  190.8020  175.4740  146.2560 C   0  0  1  0  0  3  0  0  0  0  0  0
  189.9430  174.2870  141.3270 C   0  0  0  0  0  2  0  0  0  0  0  0
  191.5870  172.8050  142.6020 C   0  0  2  0  0  3  0  0  0  0  0  0
  193.8440  172.6040  143.4980 C   0  0  1  0  0  3  0  0  0  0  0  0
  190.8960  173.0850  141.2640 C   0  0  1  0  0  3  0  0  0  0  0  0
  189.9310  176.2520  145.4650 O   0  0  0  0  0  0  0  0  0  0  0  0
  193.2530  173.9150  144.0000 C   0  0  2  0  0  3  0  0  0  0  0  0
  192.3190  170.4380  141.0240 C   0  0  0  0  0  2  0  0  0  0  0  0
  190.0580  175.7270  144.1800 C   0  0  2  0  0  0  0  0  0  0  0  0
  188.8830  174.1730  142.4260 C   0  0  0  0  0  2  0  0  0  0  0  0
  192.7900  170.7430  142.3080 O   0  0  0  0  0  0  0  0  0  0  0  0
  191.8990  174.0940  143.3250 C   0  0  2  0  0  3  0  0  0  0  0  0
  190.2260  171.8480  140.6130 C   0  0  2  0  0  3  0  0  0  0  0  0
  189.2820  174.4260  143.9050 C   0  0  1  0  0  3  0  0  0  0  0  0
  190.7690  174.4140  144.3130 C   0  0  1  0  0  0  0  0  0  0  0  0
  190.7920  170.4770  141.0190 C   0  0  0  0  0  2  0  0  0  0  0  0
  191.2740  173.7720  137.9320 N   0  0  0  0  0  1  0  0  0  0  0  0
  190.1350  171.9420  139.0820 C   0  0  2  0  0  3  0  0  0  0  0  0
  189.7670  170.6110  138.4190 C   0  0  0  0  0  2  0  0  0  0  0  0
  190.8350  169.5240  136.5540 O   0  0  0  0  0  0  0  0  0  0  0  0
  191.7520  171.5170  137.3700 N   0  0  0  0  0  2  0  0  0  0  0  0
  190.7970  170.4780  137.3730 C   0  0  0  0  0  0  0  0  0  0  0  0
  191.4500  172.4300  138.4570 C   0  0  1  0  0  3  0  0  0  0  0  0
  190.5310  176.6720  143.0750 C   0  0  0  0  0  2  0  0  0  0  0  0
  191.0010  177.9810  143.6770 C   0  0  0  0  0  1  0  0  0  0  0  0
  189.0430  174.5510  147.5770 O   0  0  0  0  0  1  0  0  0  0  0  0
  190.2090  175.3140  147.6420 C   0  0  0  0  0  2  0  0  0  0  0  0
  194.1520  175.0750  143.6960 C   0  0  0  0  0  0  0  0  0  0  0  0
  195.0880  174.9350  142.7580 C   0  0  0  0  0  2  0  0  0  0  0  0
  194.1770  176.2820  144.5900 C   0  0  0  0  0  2  0  0  0  0  0  0
  194.4670  175.9020  146.0330 C   0  0  0  0  0  2  0  0  0  0  0  0
  194.0830  176.9340  146.8890 O   0  0  0  0  0  1  0  0  0  0  0  0
  193.9080  171.6280  144.6670 C   0  0  0  0  0  2  0  0  0  0  0  0
  194.8040  172.1760  145.7610 C   0  0  0  0  0  2  0  0  0  0  0  0
  196.2350  172.2010  145.2740 C   0  0  0  0  0  1  0  0  0  0  0  0
  1  3  1  0  0  0  0
  2 13  1  1  0  0  0
  2  5  1  0  0  0  0
  2  6  1  0  0  0  0
  3 29  1  1  0  0  0
  4 12  1  0  0  0  0
  5 14  1  0  0  0  0
  6  9  1  0  0  0  0
  6 35  1  0  0  0  0
  7  4  1  0  0  0  0
  7  5  1  0  0  0  0
  8  3  1  0  0  0  0
 10 13  1  0  0  0  0
 11 17  1  0  0  0  0
 11  8  1  0  0  0  0
 12 16  1  0  0  0  0
 14  9  1  0  0  0  0
 14 17  1  0  0  0  0
 15 18  1  0  0  0  0
 15  7  1  0  0  0  0
 16 11  1  0  0  0  0
 16 17  1  0  0  0  0
 17  1  1  0  0  0  0
 18 10  1  0  0  0  0
 19 25  1  0  0  0  0
 20 15  1  0  0  0  0
 21 20  1  0  0  0  0
 22 24  2  0  0  0  0
 23 24  1  0  0  0  0
 23 25  1  0  0  0  0
 24 21  1  0  0  0  0
 25 20  1  0  0  0  0
 26 27  1  0  0  0  0
 26 11  1  0  0  0  0
 28 29  1  0  0  0  0
 30  9  1  0  0  0  0
 30 32  1  0  0  0  0
 31 30  2  0  0  0  0
 32 33  1  0  0  0  0
 33 34  1  0  0  0  0
 35 36  1  0  0  0  0
 37 36  1  0  0  0  0
M  END
>  <MODEL>
9

>  <REMARK>
 VINA RESULT:      -6.2      3.677      6.566
  Name = 
  8 active torsions:
  status: ('A' for Active; 'I' for Inactive)
    1  A    between atoms: C_3  and  C_32
    2  A    between atoms: C_5  and  C_23
    3  A    between atoms: C_6  and  C_31
    4  A    between atoms: C_9  and  C_13
    5  A    between atoms: C_9  and  C_16
    6  A    between atoms: C_11  and  C_26
    7  A    between atoms: C_20  and  C_21
    8  A    between atoms: C_21  and  C_32
                            x       y       z     vdW  Elec       q    Type
                         _______ _______ _______ _____ _____    ______ ____

>  <TORSDO>
F 8

$$$$
