=
 OpenBabel11052418153D

 28 31  0  0  1  0  0  0  0  0999 V2000
  189.6100  173.8770  142.7450 C   0  0  2  0  0  3  0  0  0  0  0  0
  186.2250  178.9400  144.2650 C   0  0  1  0  0  3  0  0  0  0  0  0
  191.0150  177.7580  144.2300 O   0  0  0  0  0  1  0  0  0  0  0  0
  186.0460  177.1660  145.9670 C   0  0  2  0  0  3  0  0  0  0  0  0
  187.9960  177.0790  144.2230 C   0  0  2  0  0  3  0  0  0  0  0  0
  185.1200  179.2540  145.1530 N   0  0  0  0  0  2  0  0  0  0  0  0
  186.5490  177.4720  144.5420 C   0  0  2  0  0  3  0  0  0  0  0  0
  188.4280  176.7390  146.6900 C   0  0  0  0  0  2  0  0  0  0  0  0
  185.0220  178.2230  146.1180 C   0  0  0  0  0  0  0  0  0  0  0  0
  190.4520  175.4430  144.5130 C   0  0  1  0  0  3  0  0  0  0  0  0
  188.0480  175.6240  143.7690 C   0  0  0  0  0  2  0  0  0  0  0  0
  187.1120  177.4100  147.0390 C   0  0  0  0  0  2  0  0  0  0  0  0
  189.8790  173.0220  145.0700 C   0  0  0  0  0  3  0  0  0  0  0  0
  190.3910  176.8620  145.1010 C   0  0  2  0  0  3  0  0  0  0  0  0
  190.2200  174.3900  145.6070 C   0  0  0  0  0  2  0  0  0  0  0  0
  184.1470  178.2260  147.0230 O   0  0  0  0  0  0  0  0  0  0  0  0
  185.7940  179.1190  142.8230 C   0  0  0  0  0  1  0  0  0  0  0  0
  188.9590  177.3420  145.3960 C   0  0  1  0  0  3  0  0  0  0  0  0
  189.5550  172.7960  143.7890 C   0  0  0  0  0  3  0  0  0  0  0  0
  189.4750  175.2850  143.3380 C   0  0  2  0  0  3  0  0  0  0  0  0
  188.6240  173.5910  141.6070 C   0  0  0  0  0  2  0  0  0  0  0  0
  189.2540  173.4890  140.2780 N   0  0  0  0  0  0  0  0  0  0  0  0
  188.3390  172.8240  139.3360 C   0  0  0  0  0  2  0  0  0  0  0  0
  188.1460  173.5880  138.1790 O   0  0  0  0  0  1  0  0  0  0  0  0
  191.5340  173.5170  139.3230 C   0  0  0  0  0  1  0  0  0  0  0  0
  190.5910  172.8660  140.3270 C   0  0  2  0  0  3  0  0  0  0  0  0
  190.5330  171.3630  140.0390 C   0  0  0  0  0  2  0  0  0  0  0  0
  190.6050  170.6280  141.2250 O   0  0  0  0  0  1  0  0  0  0  0  0
  1 21  1  6  0  0  0
  1 20  1  0  0  0  0
  1 19  1  0  0  0  0
  2 17  1  6  0  0  0
  2  7  1  0  0  0  0
  2  6  1  0  0  0  0
  3 14  1  0  0  0  0
  4  9  1  0  0  0  0
  4 12  1  1  0  0  0
  5 11  1  1  0  0  0
  5  7  1  0  0  0  0
  5 18  1  0  0  0  0
  6  9  1  0  0  0  0
  7  4  1  0  0  0  0
  8 12  1  0  0  0  0
  9 16  2  0  0  0  0
 10 14  1  0  0  0  0
 10 15  1  0  0  0  0
 13 15  1  0  0  0  0
 14 18  1  0  0  0  0
 18  8  1  0  0  0  0
 19 13  2  0  0  0  0
 20 11  1  0  0  0  0
 20 10  1  0  0  0  0
 22 26  1  0  0  0  0
 22 21  1  0  0  0  0
 23 22  1  0  0  0  0
 24 23  1  0  0  0  0
 25 26  1  0  0  0  0
 27 26  1  0  0  0  0
 27 28  1  0  0  0  0
M  END
>  <MODEL>
1

>  <REMARK>
 VINA RESULT:      -7.3      0.000      0.000
  Name = 
  5 active torsions:
  status: ('A' for Active; 'I' for Inactive)
    1  A    between atoms: C_1  and  C_2
    2  A    between atoms: C_2  and  N_3
    3  A    between atoms: N_3  and  C_7
    4  A    between atoms: N_3  and  C_11
    5  A    between atoms: C_6  and  C_11
                            x       y       z     vdW  Elec       q    Type
                         _______ _______ _______ _____ _____    ______ ____

>  <TORSDO>
F 5

$$$$
=
 OpenBabel11052418153D

 28 31  0  0  1  0  0  0  0  0999 V2000
  185.0920  177.7630  143.5830 C   0  0  2  0  0  3  0  0  0  0  0  0
  189.8580  174.5910  146.1580 C   0  0  1  0  0  3  0  0  0  0  0  0
  185.3490  175.9940  147.5890 O   0  0  0  0  0  1  0  0  0  0  0  0
  190.3140  177.0110  146.0470 C   0  0  2  0  0  3  0  0  0  0  0  0
  187.8550  176.1550  145.7800 C   0  0  2  0  0  3  0  0  0  0  0  0
  191.2700  174.8130  146.4110 N   0  0  0  0  0  2  0  0  0  0  0  0
  189.3520  175.9060  145.5650 C   0  0  2  0  0  3  0  0  0  0  0  0
  188.4140  178.0730  147.3280 C   0  0  0  0  0  2  0  0  0  0  0  0
  191.5200  176.2040  146.3340 C   0  0  0  0  0  0  0  0  0  0  0  0
  185.4350  177.8450  146.0660 C   0  0  1  0  0  3  0  0  0  0  0  0
  187.2900  176.9510  144.6080 C   0  0  0  0  0  2  0  0  0  0  0  0
  189.8710  177.6510  147.3660 C   0  0  0  0  0  2  0  0  0  0  0  0
  185.6190  179.9550  144.6450 C   0  0  0  0  0  3  0  0  0  0  0  0
  186.0540  177.1630  147.2960 C   0  0  2  0  0  3  0  0  0  0  0  0
  185.8520  179.3220  145.9950 C   0  0  0  0  0  2  0  0  0  0  0  0
  192.6660  176.6950  146.5090 O   0  0  0  0  0  0  0  0  0  0  0  0
  189.6840  173.4650  145.1590 C   0  0  0  0  0  1  0  0  0  0  0  0
  187.5490  176.8350  147.1280 C   0  0  1  0  0  3  0  0  0  0  0  0
  185.3250  179.2490  143.5450 C   0  0  0  0  0  3  0  0  0  0  0  0
  185.7770  177.0840  144.7760 C   0  0  2  0  0  3  0  0  0  0  0  0
  185.4270  177.1200  142.2320 C   0  0  0  0  0  2  0  0  0  0  0  0
  186.0630  178.0390  141.2710 N   0  0  0  0  0  0  0  0  0  0  0  0
  185.1730  178.2620  140.1210 C   0  0  0  0  0  2  0  0  0  0  0  0
  183.8270  178.1090  140.4730 O   0  0  0  0  0  1  0  0  0  0  0  0
  187.6150  176.1180  141.1400 C   0  0  0  0  0  1  0  0  0  0  0  0
  187.4200  177.6070  140.8810 C   0  0  2  0  0  3  0  0  0  0  0  0
  188.5060  178.3800  141.6350 C   0  0  0  0  0  2  0  0  0  0  0  0
  189.4420  177.5050  142.1910 O   0  0  0  0  0  1  0  0  0  0  0  0
  1 21  1  6  0  0  0
  1 20  1  0  0  0  0
  2 17  1  6  0  0  0
  2  6  1  0  0  0  0
  4  9  1  0  0  0  0
  4 12  1  1  0  0  0
  5 11  1  6  0  0  0
  5 18  1  0  0  0  0
  7  5  1  0  0  0  0
  7  4  1  0  0  0  0
  7  2  1  0  0  0  0
  8 12  1  0  0  0  0
  9  6  1  0  0  0  0
  9 16  2  0  0  0  0
 10 14  1  0  0  0  0
 11 20  1  0  0  0  0
 13 15  1  0  0  0  0
 14  3  1  0  0  0  0
 15 10  1  0  0  0  0
 18 14  1  0  0  0  0
 18  8  1  0  0  0  0
 19  1  1  0  0  0  0
 19 13  2  0  0  0  0
 20 10  1  0  0  0  0
 22 21  1  0  0  0  0
 23 24  1  0  0  0  0
 23 22  1  0  0  0  0
 26 25  1  0  0  0  0
 26 22  1  0  0  0  0
 26 27  1  0  0  0  0
 27 28  1  0  0  0  0
M  END
>  <MODEL>
2

>  <REMARK>
 VINA RESULT:      -7.2      3.128      5.830
  Name = 
  5 active torsions:
  status: ('A' for Active; 'I' for Inactive)
    1  A    between atoms: C_1  and  C_2
    2  A    between atoms: C_2  and  N_3
    3  A    between atoms: N_3  and  C_7
    4  A    between atoms: N_3  and  C_11
    5  A    between atoms: C_6  and  C_11
                            x       y       z     vdW  Elec       q    Type
                         _______ _______ _______ _____ _____    ______ ____

>  <TORSDO>
F 5

$$$$
=
 OpenBabel11052418153D

 28 31  0  0  1  0  0  0  0  0999 V2000
  190.0910  174.0410  145.0860 C   0  0  2  0  0  3  0  0  0  0  0  0
  186.7140  177.6130  141.1830 C   0  0  1  0  0  3  0  0  0  0  0  0
  190.7860  178.2080  143.9050 O   0  0  0  0  0  1  0  0  0  0  0  0
  185.5940  177.3110  143.3580 C   0  0  2  0  0  3  0  0  0  0  0  0
  188.1480  176.7790  143.1450 C   0  0  2  0  0  3  0  0  0  0  0  0
  185.3330  178.0450  141.0620 N   0  0  0  0  0  2  0  0  0  0  0  0
  186.7650  176.8140  142.4860 C   0  0  2  0  0  3  0  0  0  0  0  0
  187.2560  178.1770  145.0510 C   0  0  0  0  0  2  0  0  0  0  0  0
  184.7000  177.8570  142.3140 C   0  0  0  0  0  0  0  0  0  0  0  0
  190.0190  176.5230  145.4310 C   0  0  1  0  0  3  0  0  0  0  0  0
  188.3350  175.4580  143.8840 C   0  0  0  0  0  2  0  0  0  0  0  0
  185.9870  178.4740  144.2740 C   0  0  0  0  0  2  0  0  0  0  0  0
  189.0980  174.9270  147.1930 C   0  0  0  0  0  3  0  0  0  0  0  0
  189.7560  177.8970  144.7940 C   0  0  2  0  0  3  0  0  0  0  0  0
  189.2040  176.3560  146.7220 C   0  0  0  0  0  2  0  0  0  0  0  0
  183.4900  178.1440  142.5090 O   0  0  0  0  0  0  0  0  0  0  0  0
  187.0810  176.7270  140.0100 C   0  0  0  0  0  1  0  0  0  0  0  0
  188.4020  177.9860  144.0670 C   0  0  1  0  0  3  0  0  0  0  0  0
  189.4520  173.8770  146.4380 C   0  0  0  0  0  3  0  0  0  0  0  0
  189.7610  175.3870  144.4300 C   0  0  2  0  0  3  0  0  0  0  0  0
  189.7990  172.8310  144.1910 C   0  0  0  0  0  2  0  0  0  0  0  0
  190.9950  172.2550  143.5510 N   0  0  0  0  0  0  0  0  0  0  0  0
  192.2000  172.6170  144.3140 C   0  0  0  0  0  2  0  0  0  0  0  0
  192.9820  171.4940  144.6070 O   0  0  0  0  0  1  0  0  0  0  0  0
  192.0060  173.7920  141.8990 C   0  0  0  0  0  1  0  0  0  0  0  0
  191.0920  172.5920  142.1170 C   0  0  2  0  0  3  0  0  0  0  0  0
  189.7230  172.9040  141.5080 C   0  0  0  0  0  2  0  0  0  0  0  0
  189.7330  174.1500  140.8760 O   0  0  0  0  0  1  0  0  0  0  0  0
  1 21  1  6  0  0  0
  1 19  1  0  0  0  0
  2 17  1  6  0  0  0
  2  7  1  0  0  0  0
  3 14  1  0  0  0  0
  4 12  1  1  0  0  0
  5 11  1  1  0  0  0
  5 18  1  0  0  0  0
  6  2  1  0  0  0  0
  6  9  1  0  0  0  0
  7  5  1  0  0  0  0
  7  4  1  0  0  0  0
  9 16  2  0  0  0  0
  9  4  1  0  0  0  0
 10 15  1  0  0  0  0
 11 20  1  0  0  0  0
 12  8  1  0  0  0  0
 14 10  1  0  0  0  0
 15 13  1  0  0  0  0
 18 14  1  0  0  0  0
 18  8  1  0  0  0  0
 19 13  2  0  0  0  0
 20  1  1  0  0  0  0
 20 10  1  0  0  0  0
 22 21  1  0  0  0  0
 22 23  1  0  0  0  0
 23 24  1  0  0  0  0
 25 26  1  0  0  0  0
 26 22  1  0  0  0  0
 27 26  1  0  0  0  0
 28 27  1  0  0  0  0
M  END
>  <MODEL>
3

>  <REMARK>
 VINA RESULT:      -7.1      2.259      3.318
  Name = 
  5 active torsions:
  status: ('A' for Active; 'I' for Inactive)
    1  A    between atoms: C_1  and  C_2
    2  A    between atoms: C_2  and  N_3
    3  A    between atoms: N_3  and  C_7
    4  A    between atoms: N_3  and  C_11
    5  A    between atoms: C_6  and  C_11
                            x       y       z     vdW  Elec       q    Type
                         _______ _______ _______ _____ _____    ______ ____

>  <TORSDO>
F 5

$$$$
=
 OpenBabel11052418153D

 28 31  0  0  1  0  0  0  0  0999 V2000
  189.7200  173.7680  142.7080 C   0  0  2  0  0  3  0  0  0  0  0  0
  186.2850  178.7800  144.2870 C   0  0  1  0  0  3  0  0  0  0  0  0
  191.0400  177.4990  144.6000 O   0  0  0  0  0  1  0  0  0  0  0  0
  185.9230  176.8920  145.8280 C   0  0  2  0  0  3  0  0  0  0  0  0
  188.0250  176.8890  144.2680 C   0  0  2  0  0  3  0  0  0  0  0  0
  185.1080  179.0530  145.0910 N   0  0  0  0  0  2  0  0  0  0  0  0
  186.5600  177.2890  144.4810 C   0  0  2  0  0  3  0  0  0  0  0  0
  188.2210  176.3610  146.7310 C   0  0  0  0  0  2  0  0  0  0  0  0
  184.9050  177.9570  145.9640 C   0  0  0  0  0  0  0  0  0  0  0  0
  190.4180  175.1830  144.6570 C   0  0  1  0  0  3  0  0  0  0  0  0
  188.0960  175.4700  143.7130 C   0  0  0  0  0  2  0  0  0  0  0  0
  186.8890  177.0330  147.0080 C   0  0  0  0  0  2  0  0  0  0  0  0
  189.7590  172.7410  144.9770 C   0  0  0  0  0  3  0  0  0  0  0  0
  190.3250  176.5560  145.3410 C   0  0  2  0  0  3  0  0  0  0  0  0
  190.0700  174.0580  145.6440 C   0  0  0  0  0  2  0  0  0  0  0  0
  183.9510  177.9130  146.7830 O   0  0  0  0  0  0  0  0  0  0  0  0
  185.9920  179.0730  142.8290 C   0  0  0  0  0  1  0  0  0  0  0  0
  188.8790  177.0450  145.5400 C   0  0  1  0  0  3  0  0  0  0  0  0
  189.5520  172.6150  143.6590 C   0  0  0  0  0  3  0  0  0  0  0  0
  189.5520  175.1320  143.3890 C   0  0  2  0  0  3  0  0  0  0  0  0
  188.8380  173.5880  141.4660 C   0  0  0  0  0  2  0  0  0  0  0  0
  189.4850  172.8360  140.3760 N   0  0  0  0  0  0  0  0  0  0  0  0
  190.8500  173.3400  140.1550 C   0  0  0  0  0  2  0  0  0  0  0  0
  191.8110  172.3540  140.4090 O   0  0  0  0  0  1  0  0  0  0  0  0
  189.4150  172.0990  138.0160 C   0  0  0  0  0  1  0  0  0  0  0  0
  188.6710  172.8040  139.1440 C   0  0  2  0  0  3  0  0  0  0  0  0
  188.2900  174.2100  138.6740 C   0  0  0  0  0  2  0  0  0  0  0  0
  188.3560  174.3020  137.2810 O   0  0  0  0  0  1  0  0  0  0  0  0
  1 21  1  6  0  0  0
  1 20  1  0  0  0  0
  1 19  1  0  0  0  0
  2 17  1  6  0  0  0
  2  7  1  0  0  0  0
  2  6  1  0  0  0  0
  3 14  1  0  0  0  0
  4  9  1  0  0  0  0
  4 12  1  1  0  0  0
  5 11  1  1  0  0  0
  5  7  1  0  0  0  0
  5 18  1  0  0  0  0
  6  9  1  0  0  0  0
  7  4  1  0  0  0  0
  8 12  1  0  0  0  0
  9 16  2  0  0  0  0
 10 14  1  0  0  0  0
 10 15  1  0  0  0  0
 13 15  1  0  0  0  0
 14 18  1  0  0  0  0
 18  8  1  0  0  0  0
 19 13  2  0  0  0  0
 20 11  1  0  0  0  0
 20 10  1  0  0  0  0
 22 21  1  0  0  0  0
 23 22  1  0  0  0  0
 23 24  1  0  0  0  0
 25 26  1  0  0  0  0
 26 22  1  0  0  0  0
 27 26  1  0  0  0  0
 28 27  1  0  0  0  0
M  END
>  <MODEL>
4

>  <REMARK>
 VINA RESULT:      -7.0      0.737      1.813
  Name = 
  5 active torsions:
  status: ('A' for Active; 'I' for Inactive)
    1  A    between atoms: C_1  and  C_2
    2  A    between atoms: C_2  and  N_3
    3  A    between atoms: N_3  and  C_7
    4  A    between atoms: N_3  and  C_11
    5  A    between atoms: C_6  and  C_11
                            x       y       z     vdW  Elec       q    Type
                         _______ _______ _______ _____ _____    ______ ____

>  <TORSDO>
F 5

$$$$
=
 OpenBabel11052418153D

 28 31  0  0  1  0  0  0  0  0999 V2000
  189.8510  173.8050  142.9620 C   0  0  2  0  0  3  0  0  0  0  0  0
  186.1880  178.7790  144.0810 C   0  0  1  0  0  3  0  0  0  0  0  0
  190.9990  177.7590  144.4770 O   0  0  0  0  0  1  0  0  0  0  0  0
  185.9210  177.0320  145.8000 C   0  0  2  0  0  3  0  0  0  0  0  0
  188.0150  176.9780  144.2290 C   0  0  2  0  0  3  0  0  0  0  0  0
  185.0020  179.0720  144.8650 N   0  0  0  0  0  2  0  0  0  0  0  0
  186.5340  177.3280  144.4160 C   0  0  2  0  0  3  0  0  0  0  0  0
  188.2460  176.6990  146.7300 C   0  0  0  0  0  2  0  0  0  0  0  0
  184.8550  178.0560  145.8400 C   0  0  0  0  0  0  0  0  0  0  0  0
  190.4890  175.4320  144.7610 C   0  0  1  0  0  3  0  0  0  0  0  0
  188.1520  175.5170  143.8120 C   0  0  0  0  0  2  0  0  0  0  0  0
  186.8840  177.3320  146.9520 C   0  0  0  0  0  2  0  0  0  0  0  0
  189.9480  173.0030  145.3200 C   0  0  0  0  0  3  0  0  0  0  0  0
  190.3320  176.8590  145.3100 C   0  0  2  0  0  3  0  0  0  0  0  0
  190.1980  174.3920  145.8540 C   0  0  0  0  0  2  0  0  0  0  0  0
  183.9060  178.0470  146.6680 O   0  0  0  0  0  0  0  0  0  0  0  0
  185.8760  178.9160  142.6040 C   0  0  0  0  0  1  0  0  0  0  0  0
  188.8660  177.2960  145.4740 C   0  0  1  0  0  3  0  0  0  0  0  0
  189.7420  172.7430  144.0210 C   0  0  0  0  0  3  0  0  0  0  0  0
  189.6210  175.2190  143.5110 C   0  0  2  0  0  3  0  0  0  0  0  0
  188.9750  173.4650  141.7510 C   0  0  0  0  0  2  0  0  0  0  0  0
  189.4310  174.0750  140.4890 N   0  0  0  0  0  0  0  0  0  0  0  0
  188.2800  174.6000  139.7370 C   0  0  0  0  0  2  0  0  0  0  0  0
  187.7680  175.7630  140.3230 O   0  0  0  0  0  1  0  0  0  0  0  0
  190.0590  171.7170  140.0940 C   0  0  0  0  0  1  0  0  0  0  0  0
  190.2820  173.1700  139.6920 C   0  0  2  0  0  3  0  0  0  0  0  0
  191.7690  173.4970  139.8480 C   0  0  0  0  0  2  0  0  0  0  0  0
  192.4790  172.3800  140.2940 O   0  0  0  0  0  1  0  0  0  0  0  0
  1 21  1  6  0  0  0
  1 20  1  0  0  0  0
  1 19  1  0  0  0  0
  2 17  1  6  0  0  0
  2  7  1  0  0  0  0
  2  6  1  0  0  0  0
  3 14  1  0  0  0  0
  4  9  1  0  0  0  0
  4 12  1  1  0  0  0
  5 11  1  1  0  0  0
  5  7  1  0  0  0  0
  5 18  1  0  0  0  0
  6  9  1  0  0  0  0
  7  4  1  0  0  0  0
  8 12  1  0  0  0  0
  9 16  2  0  0  0  0
 10 14  1  0  0  0  0
 10 15  1  0  0  0  0
 13 15  1  0  0  0  0
 14 18  1  0  0  0  0
 18  8  1  0  0  0  0
 19 13  2  0  0  0  0
 20 11  1  0  0  0  0
 20 10  1  0  0  0  0
 22 21  1  0  0  0  0
 23 24  1  0  0  0  0
 23 22  1  0  0  0  0
 26 27  1  0  0  0  0
 26 25  1  0  0  0  0
 26 22  1  0  0  0  0
 27 28  1  0  0  0  0
M  END
>  <MODEL>
5

>  <REMARK>
 VINA RESULT:      -7.0      0.917      1.118
  Name = 
  5 active torsions:
  status: ('A' for Active; 'I' for Inactive)
    1  A    between atoms: C_1  and  C_2
    2  A    between atoms: C_2  and  N_3
    3  A    between atoms: N_3  and  C_7
    4  A    between atoms: N_3  and  C_11
    5  A    between atoms: C_6  and  C_11
                            x       y       z     vdW  Elec       q    Type
                         _______ _______ _______ _____ _____    ______ ____

>  <TORSDO>
F 5

$$$$
=
 OpenBabel11052418153D

 28 31  0  0  1  0  0  0  0  0999 V2000
  187.5950  176.8030  144.2950 C   0  0  2  0  0  3  0  0  0  0  0  0
  193.7220  175.6880  143.5040 C   0  0  1  0  0  3  0  0  0  0  0  0
  189.8470  173.1500  145.2050 O   0  0  0  0  0  1  0  0  0  0  0  0
  193.2950  177.1650  145.4300 C   0  0  2  0  0  3  0  0  0  0  0  0
  191.3270  175.7560  144.4330 C   0  0  2  0  0  3  0  0  0  0  0  0
  194.9750  176.2930  143.9150 N   0  0  0  0  0  2  0  0  0  0  0  0
  192.6380  176.5150  144.1960 C   0  0  2  0  0  3  0  0  0  0  0  0
  191.7550  175.8320  146.9220 C   0  0  0  0  0  2  0  0  0  0  0  0
  194.7140  177.1470  145.0140 C   0  0  0  0  0  0  0  0  0  0  0  0
  188.7690  175.2010  145.8260 C   0  0  1  0  0  3  0  0  0  0  0  0
  190.1500  176.7240  144.3630 C   0  0  0  0  0  2  0  0  0  0  0  0
  193.1780  176.3030  146.6900 C   0  0  0  0  0  2  0  0  0  0  0  0
  187.7300  177.3500  146.7220 C   0  0  0  0  0  3  0  0  0  0  0  0
  189.9780  174.2730  146.0240 C   0  0  2  0  0  3  0  0  0  0  0  0
  188.6280  176.1720  147.0080 C   0  0  0  0  0  2  0  0  0  0  0  0
  195.6190  177.8120  145.5830 O   0  0  0  0  0  0  0  0  0  0  0  0
  193.5730  175.7830  141.9980 C   0  0  0  0  0  1  0  0  0  0  0  0
  191.3280  174.9580  145.7510 C   0  0  1  0  0  3  0  0  0  0  0  0
  187.3020  177.6650  145.4920 C   0  0  0  0  0  3  0  0  0  0  0  0
  188.8460  175.9340  144.4780 C   0  0  2  0  0  3  0  0  0  0  0  0
  187.6060  177.6350  143.0080 C   0  0  0  0  0  2  0  0  0  0  0  0
  186.5610  177.2580  142.0390 N   0  0  0  0  0  0  0  0  0  0  0  0
  187.1770  176.8490  140.7660 C   0  0  0  0  0  2  0  0  0  0  0  0
  187.8500  175.6280  140.8870 O   0  0  0  0  0  1  0  0  0  0  0  0
  184.4100  178.1250  142.8960 C   0  0  0  0  0  1  0  0  0  0  0  0
  185.5300  178.3020  141.8770 C   0  0  2  0  0  3  0  0  0  0  0  0
  184.9200  178.2910  140.4740 C   0  0  0  0  0  2  0  0  0  0  0  0
  183.5740  178.6640  140.5150 O   0  0  0  0  0  1  0  0  0  0  0  0
  1 21  1  6  0  0  0
  1 20  1  0  0  0  0
  1 19  1  0  0  0  0
  2 17  1  6  0  0  0
  2  6  1  0  0  0  0
  2  7  1  0  0  0  0
  3 14  1  0  0  0  0
  4 12  1  1  0  0  0
  5 11  1  1  0  0  0
  5 18  1  0  0  0  0
  6  9  1  0  0  0  0
  7  5  1  0  0  0  0
  7  4  1  0  0  0  0
  9  4  1  0  0  0  0
  9 16  2  0  0  0  0
 10 14  1  0  0  0  0
 10 15  1  0  0  0  0
 11 20  1  0  0  0  0
 12  8  1  0  0  0  0
 13 15  1  0  0  0  0
 18 14  1  0  0  0  0
 18  8  1  0  0  0  0
 19 13  2  0  0  0  0
 20 10  1  0  0  0  0
 22 21  1  0  0  0  0
 23 24  1  0  0  0  0
 23 22  1  0  0  0  0
 26 22  1  0  0  0  0
 26 25  1  0  0  0  0
 27 28  1  0  0  0  0
 27 26  1  0  0  0  0
M  END
>  <MODEL>
6

>  <REMARK>
 VINA RESULT:      -7.0      3.190      6.488
  Name = 
  5 active torsions:
  status: ('A' for Active; 'I' for Inactive)
    1  A    between atoms: C_1  and  C_2
    2  A    between atoms: C_2  and  N_3
    3  A    between atoms: N_3  and  C_7
    4  A    between atoms: N_3  and  C_11
    5  A    between atoms: C_6  and  C_11
                            x       y       z     vdW  Elec       q    Type
                         _______ _______ _______ _____ _____    ______ ____

>  <TORSDO>
F 5

$$$$
=
 OpenBabel11052418153D

 28 31  0  0  1  0  0  0  0  0999 V2000
  190.0060  173.2980  143.3380 C   0  0  2  0  0  3  0  0  0  0  0  0
  186.4170  177.9760  141.1830 C   0  0  1  0  0  3  0  0  0  0  0  0
  191.0660  177.5170  142.7710 O   0  0  0  0  0  1  0  0  0  0  0  0
  185.8200  177.3430  143.4890 C   0  0  2  0  0  3  0  0  0  0  0  0
  188.1260  176.5870  142.5070 C   0  0  2  0  0  3  0  0  0  0  0  0
  185.1380  178.5750  141.5150 N   0  0  0  0  0  2  0  0  0  0  0  0
  186.6490  176.9170  142.2600 C   0  0  2  0  0  3  0  0  0  0  0  0
  187.9590  177.6360  144.8000 C   0  0  0  0  0  2  0  0  0  0  0  0
  184.8020  178.1960  142.8370 C   0  0  0  0  0  0  0  0  0  0  0  0
  190.4250  175.6420  144.1240 C   0  0  1  0  0  3  0  0  0  0  0  0
  188.2670  175.1260  142.9230 C   0  0  0  0  0  2  0  0  0  0  0  0
  186.6060  178.2320  144.4570 C   0  0  0  0  0  2  0  0  0  0  0  0
  189.7070  173.8190  145.7560 C   0  0  0  0  0  3  0  0  0  0  0  0
  190.2440  177.1400  143.8350 C   0  0  2  0  0  3  0  0  0  0  0  0
  189.9280  175.2950  145.5360 C   0  0  0  0  0  2  0  0  0  0  0  0
  183.7380  178.5680  143.3980 O   0  0  0  0  0  0  0  0  0  0  0  0
  186.3410  177.3250  139.8160 C   0  0  0  0  0  1  0  0  0  0  0  0
  188.7880  177.5330  143.5260 C   0  0  1  0  0  3  0  0  0  0  0  0
  189.6930  172.9220  144.7600 C   0  0  0  0  0  3  0  0  0  0  0  0
  189.7510  174.7820  143.0440 C   0  0  2  0  0  3  0  0  0  0  0  0
  189.3130  172.3470  142.3540 C   0  0  0  0  0  2  0  0  0  0  0  0
  190.2080  171.7960  141.3210 N   0  0  0  0  0  0  0  0  0  0  0  0
  191.6130  171.9990  141.7090 C   0  0  0  0  0  2  0  0  0  0  0  0
  192.3800  170.8490  141.4890 O   0  0  0  0  0  1  0  0  0  0  0  0
  190.8080  173.4720  139.6050 C   0  0  0  0  0  1  0  0  0  0  0  0
  189.8990  172.3040  139.9700 C   0  0  2  0  0  3  0  0  0  0  0  0
  188.4440  172.7610  139.8480 C   0  0  0  0  0  2  0  0  0  0  0  0
  188.1940  173.2900  138.5790 O   0  0  0  0  0  1  0  0  0  0  0  0
  1 21  1  6  0  0  0
  1 19  1  0  0  0  0
  2 17  1  6  0  0  0
  2  6  1  0  0  0  0
  2  7  1  0  0  0  0
  3 14  1  0  0  0  0
  4 12  1  1  0  0  0
  5 11  1  1  0  0  0
  5 18  1  0  0  0  0
  6  9  1  0  0  0  0
  7  5  1  0  0  0  0
  7  4  1  0  0  0  0
  9 16  2  0  0  0  0
  9  4  1  0  0  0  0
 10 15  1  0  0  0  0
 11 20  1  0  0  0  0
 12  8  1  0  0  0  0
 14 10  1  0  0  0  0
 15 13  1  0  0  0  0
 18 14  1  0  0  0  0
 18  8  1  0  0  0  0
 19 13  2  0  0  0  0
 20  1  1  0  0  0  0
 20 10  1  0  0  0  0
 22 23  1  0  0  0  0
 22 21  1  0  0  0  0
 24 23  1  0  0  0  0
 25 26  1  0  0  0  0
 26 22  1  0  0  0  0
 27 26  1  0  0  0  0
 28 27  1  0  0  0  0
M  END
>  <MODEL>
7

>  <REMARK>
 VINA RESULT:      -6.9      1.713      2.603
  Name = 
  5 active torsions:
  status: ('A' for Active; 'I' for Inactive)
    1  A    between atoms: C_1  and  C_2
    2  A    between atoms: C_2  and  N_3
    3  A    between atoms: N_3  and  C_7
    4  A    between atoms: N_3  and  C_11
    5  A    between atoms: C_6  and  C_11
                            x       y       z     vdW  Elec       q    Type
                         _______ _______ _______ _____ _____    ______ ____

>  <TORSDO>
F 5

$$$$
=
 OpenBabel11052418153D

 28 31  0  0  1  0  0  0  0  0999 V2000
  189.6340  176.5790  145.1250 C   0  0  2  0  0  3  0  0  0  0  0  0
  194.8100  175.1710  141.8640 C   0  0  1  0  0  3  0  0  0  0  0  0
  191.6180  172.6900  144.6920 O   0  0  0  0  0  1  0  0  0  0  0  0
  195.3320  176.3910  143.9410 C   0  0  2  0  0  3  0  0  0  0  0  0
  192.9820  175.2710  143.6670 C   0  0  2  0  0  3  0  0  0  0  0  0
  196.1870  175.6270  141.8040 N   0  0  0  0  0  2  0  0  0  0  0  0
  194.1800  175.9650  143.0080 C   0  0  2  0  0  3  0  0  0  0  0  0
  194.3390  174.9700  145.7770 C   0  0  0  0  0  2  0  0  0  0  0  0
  196.4700  176.3350  142.9970 C   0  0  0  0  0  0  0  0  0  0  0  0
  191.1100  174.7030  145.8950 C   0  0  1  0  0  3  0  0  0  0  0  0
  191.9910  176.3170  144.1680 C   0  0  0  0  0  2  0  0  0  0  0  0
  195.6090  175.3710  145.0490 C   0  0  0  0  0  2  0  0  0  0  0  0
  190.7550  176.7720  147.3430 C   0  0  0  0  0  3  0  0  0  0  0  0
  192.1840  173.6760  145.5030 C   0  0  2  0  0  3  0  0  0  0  0  0
  191.5490  175.5070  147.1280 C   0  0  0  0  0  2  0  0  0  0  0  0
  197.5950  176.8510  143.2250 O   0  0  0  0  0  0  0  0  0  0  0  0
  194.1060  175.4860  140.5590 C   0  0  0  0  0  1  0  0  0  0  0  0
  193.3960  174.2990  144.7880 C   0  0  1  0  0  3  0  0  0  0  0  0
  189.9270  177.2840  146.4210 C   0  0  0  0  0  3  0  0  0  0  0  0
  190.7490  175.6100  144.7090 C   0  0  2  0  0  3  0  0  0  0  0  0
  189.2480  177.5800  144.0300 C   0  0  0  0  0  2  0  0  0  0  0  0
  187.8680  177.4260  143.5360 N   0  0  0  0  0  0  0  0  0  0  0  0
  187.8150  177.7020  142.0910 C   0  0  0  0  0  2  0  0  0  0  0  0
  188.9620  178.3730  141.6530 O   0  0  0  0  0  1  0  0  0  0  0  0
  186.0300  177.3120  145.1870 C   0  0  0  0  0  1  0  0  0  0  0  0
  186.8920  178.2160  144.3140 C   0  0  2  0  0  3  0  0  0  0  0  0
  185.9730  179.0410  143.4100 C   0  0  0  0  0  2  0  0  0  0  0  0
  185.3750  180.0800  144.1270 O   0  0  0  0  0  1  0  0  0  0  0  0
  1 21  1  6  0  0  0
  1 19  1  0  0  0  0
  2 17  1  6  0  0  0
  2  7  1  0  0  0  0
  3 14  1  0  0  0  0
  4 12  1  1  0  0  0
  5 11  1  1  0  0  0
  5 18  1  0  0  0  0
  6  2  1  0  0  0  0
  6  9  1  0  0  0  0
  7  5  1  0  0  0  0
  7  4  1  0  0  0  0
  9 16  2  0  0  0  0
  9  4  1  0  0  0  0
 10 15  1  0  0  0  0
 11 20  1  0  0  0  0
 12  8  1  0  0  0  0
 14 10  1  0  0  0  0
 15 13  1  0  0  0  0
 18 14  1  0  0  0  0
 18  8  1  0  0  0  0
 19 13  2  0  0  0  0
 20  1  1  0  0  0  0
 20 10  1  0  0  0  0
 22 21  1  0  0  0  0
 22 26  1  0  0  0  0
 23 22  1  0  0  0  0
 24 23  1  0  0  0  0
 26 25  1  0  0  0  0
 27 28  1  0  0  0  0
 27 26  1  0  0  0  0
M  END
>  <MODEL>
8

>  <REMARK>
 VINA RESULT:      -6.6      3.584      7.557
  Name = 
  5 active torsions:
  status: ('A' for Active; 'I' for Inactive)
    1  A    between atoms: C_1  and  C_2
    2  A    between atoms: C_2  and  N_3
    3  A    between atoms: N_3  and  C_7
    4  A    between atoms: N_3  and  C_11
    5  A    between atoms: C_6  and  C_11
                            x       y       z     vdW  Elec       q    Type
                         _______ _______ _______ _____ _____    ______ ____

>  <TORSDO>
F 5

$$$$
=
 OpenBabel11052418153D

 28 31  0  0  1  0  0  0  0  0999 V2000
  188.3120  176.5310  145.7390 C   0  0  2  0  0  3  0  0  0  0  0  0
  190.8120  173.5300  140.8240 C   0  0  1  0  0  3  0  0  0  0  0  0
  189.3190  172.2780  145.3570 O   0  0  0  0  0  1  0  0  0  0  0  0
  192.4800  174.9010  142.0130 C   0  0  2  0  0  3  0  0  0  0  0  0
  190.2260  174.3060  143.2030 C   0  0  2  0  0  3  0  0  0  0  0  0
  191.9950  173.6530  139.9920 N   0  0  0  0  0  2  0  0  0  0  0  0
  190.9700  174.6070  141.8970 C   0  0  2  0  0  3  0  0  0  0  0  0
  192.4430  174.0310  144.3830 C   0  0  0  0  0  2  0  0  0  0  0  0
  192.9390  174.4510  140.6810 C   0  0  0  0  0  0  0  0  0  0  0  0
  189.7480  174.5110  146.1220 C   0  0  1  0  0  3  0  0  0  0  0  0
  189.7700  175.6090  143.8500 C   0  0  0  0  0  2  0  0  0  0  0  0
  193.1780  174.0240  143.0560 C   0  0  0  0  0  2  0  0  0  0  0  0
  190.4420  176.8010  147.0040 C   0  0  0  0  0  3  0  0  0  0  0  0
  190.3330  173.2230  145.5200 C   0  0  2  0  0  3  0  0  0  0  0  0
  190.8570  175.3730  146.7450 C   0  0  0  0  0  2  0  0  0  0  0  0
  194.0670  174.7310  140.1970 O   0  0  0  0  0  0  0  0  0  0  0  0
  189.5700  173.7930  139.9970 C   0  0  0  0  0  1  0  0  0  0  0  0
  191.0520  173.4460  144.1780 C   0  0  1  0  0  3  0  0  0  0  0  0
  189.3190  177.3400  146.5100 C   0  0  0  0  0  3  0  0  0  0  0  0
  188.9250  175.2870  145.0820 C   0  0  2  0  0  3  0  0  0  0  0  0
  187.5260  177.4170  144.7650 C   0  0  0  0  0  2  0  0  0  0  0  0
  186.1530  176.9490  144.5040 N   0  0  0  0  0  0  0  0  0  0  0  0
  185.9760  176.6810  143.0670 C   0  0  0  0  0  2  0  0  0  0  0  0
  186.9880  177.2740  142.3040 O   0  0  0  0  0  1  0  0  0  0  0  0
  185.5880  179.3070  144.9900 C   0  0  0  0  0  1  0  0  0  0  0  0
  185.1270  177.8560  145.0560 C   0  0  2  0  0  3  0  0  0  0  0  0
  184.7870  177.5170  146.5100 C   0  0  0  0  0  2  0  0  0  0  0  0
  184.9340  178.6400  147.3280 O   0  0  0  0  0  1  0  0  0  0  0  0
  1 21  1  6  0  0  0
  1 19  1  0  0  0  0
  2 17  1  6  0  0  0
  2  7  1  0  0  0  0
  3 14  1  0  0  0  0
  4 12  1  1  0  0  0
  5 11  1  1  0  0  0
  5 18  1  0  0  0  0
  6  9  1  0  0  0  0
  6  2  1  0  0  0  0
  7  4  1  0  0  0  0
  7  5  1  0  0  0  0
  9  4  1  0  0  0  0
 10 15  1  0  0  0  0
 11 20  1  0  0  0  0
 12  8  1  0  0  0  0
 14 10  1  0  0  0  0
 15 13  1  0  0  0  0
 16  9  2  0  0  0  0
 18  8  1  0  0  0  0
 18 14  1  0  0  0  0
 19 13  2  0  0  0  0
 20  1  1  0  0  0  0
 20 10  1  0  0  0  0
 22 21  1  0  0  0  0
 22 26  1  0  0  0  0
 23 22  1  0  0  0  0
 24 23  1  0  0  0  0
 25 26  1  0  0  0  0
 26 27  1  0  0  0  0
 27 28  1  0  0  0  0
M  END
>  <MODEL>
9

>  <REMARK>
 VINA RESULT:      -6.3      2.292      7.038
  Name = 
  5 active torsions:
  status: ('A' for Active; 'I' for Inactive)
    1  A    between atoms: C_1  and  C_2
    2  A    between atoms: C_2  and  N_3
    3  A    between atoms: N_3  and  C_7
    4  A    between atoms: N_3  and  C_11
    5  A    between atoms: C_6  and  C_11
                            x       y       z     vdW  Elec       q    Type
                         _______ _______ _______ _____ _____    ______ ____

>  <TORSDO>
F 5

$$$$
