=
 OpenBabel11052421323D

 32 38  0  0  1  0  0  0  0  0999 V2000
  186.8180  178.1960  143.0870 C   0  0  0  0  0  2  0  0  0  0  0  0
  190.0630  175.0160  145.2750 C   0  0  2  0  0  3  0  0  0  0  0  0
  188.2910  176.0190  143.7860 C   0  0  2  0  0  3  0  0  0  0  0  0
  188.8880  177.2310  145.8480 C   0  0  0  0  0  2  0  0  0  0  0  0
  186.7850  177.8920  144.5960 C   0  0  2  0  0  3  0  0  0  0  0  0
  190.9930  176.5650  146.8540 N   0  0  0  0  0  2  0  0  0  0  0  0
  189.7220  176.0450  146.3590 C   0  0  2  0  0  3  0  0  0  0  0  0
  192.0280  176.2180  145.8750 C   0  0  2  0  0  3  0  0  0  0  0  0
  191.3320  175.5550  144.6800 C   0  0  1  0  0  3  0  0  0  0  0  0
  187.0040  176.9500  142.1900 C   0  0  0  0  0  2  0  0  0  0  0  0
  187.7300  176.7450  144.9990 C   0  0  1  0  0  3  0  0  0  0  0  0
  187.2390  175.7540  142.9030 O   0  0  0  0  0  0  0  0  0  0  0  0
  188.9550  174.7330  144.2480 C   0  0  0  0  0  2  0  0  0  0  0  0
  192.9900  174.7850  142.9620 C   0  0  0  0  0  0  0  0  0  0  0  0
  193.6120  173.5200  142.6430 C   0  0  1  0  0  3  0  0  0  0  0  0
  194.0260  171.5950  143.7520 C   0  0  0  0  0  0  0  0  0  0  0  0
  195.1240  171.9350  143.1470 N   0  0  0  0  0  0  0  0  0  0  0  0
  194.8930  173.2010  142.5050 C   0  0  0  0  0  2  0  0  0  0  0  0
  192.2160  173.1380  144.3700 N   0  0  0  0  0  2  0  0  0  0  0  0
  193.3840  176.3590  142.2990 Cl  0  0  0  0  0  0  0  0  0  0  0  0
  193.8950  170.3870  144.6090 C   0  0  0  0  0  1  0  0  0  0  0  0
  192.1320  174.5130  143.9510 C   0  0  0  0  0  0  0  0  0  0  0  0
  193.0020  172.5840  143.5070 C   0  0  1  0  0  3  0  0  0  0  0  0
  184.8590  178.0260  146.4570 C   0  0  0  0  0  0  0  0  0  0  0  0
  185.5360  179.4010  146.6020 C   0  0  0  0  0  2  0  0  0  0  0  0
  185.8300  178.3630  147.6010 C   0  0  0  0  0  2  0  0  0  0  0  0
  185.4340  176.6350  146.1820 C   0  0  0  0  0  2  0  0  0  0  0  0
  185.3500  177.5660  145.0400 C   0  0  2  0  0  3  0  0  0  0  0  0
  193.0700  175.3260  146.5490 C   0  0  0  0  0  2  0  0  0  0  0  0
  194.4520  175.9450  146.4360 C   0  0  0  0  0  2  0  0  0  0  0  0
  196.0400  175.5350  144.6990 O   0  0  0  0  0  1  0  0  0  0  0  0
  195.4190  174.9560  145.8050 C   0  0  0  0  0  2  0  0  0  0  0  0
  2 13  1  6  0  0  0
  2  7  1  0  0  0  0
  3 13  1  1  0  0  0
  3 11  1  0  0  0  0
  5  1  1  6  0  0  0
  5 11  1  0  0  0  0
  5 28  1  0  0  0  0
  7  4  1  6  0  0  0
  7  6  1  0  0  0  0
  8 29  1  1  0  0  0
  8  6  1  0  0  0  0
  9 22  1  1  0  0  0
  9  2  1  0  0  0  0
  9  8  1  0  0  0  0
 10 12  1  0  0  0  0
 10  1  1  0  0  0  0
 11  4  1  6  0  0  0
 12  3  1  0  0  0  0
 14 22  2  0  0  0  0
 15 18  1  1  0  0  0
 15 14  1  0  0  0  0
 15 23  1  0  0  0  0
 16 21  1  0  0  0  0
 17 16  2  0  0  0  0
 18 17  1  0  0  0  0
 20 14  1  0  0  0  0
 22 19  1  0  0  0  0
 23 16  1  1  0  0  0
 23 19  1  0  0  0  0
 24 25  1  0  0  0  0
 24 26  1  0  0  0  0
 25 26  1  0  0  0  0
 27 24  1  0  0  0  0
 28 27  1  1  0  0  0
 28 24  1  0  0  0  0
 30 29  1  0  0  0  0
 31 32  1  0  0  0  0
 32 30  1  0  0  0  0
M  END
>  <MODEL>
1

>  <REMARK>
 VINA RESULT:      -7.8      0.000      0.000
  Name = 
  5 active torsions:
  status: ('A' for Active; 'I' for Inactive)
    1  A    between atoms: C_5  and  C_25
    2  A    between atoms: C_12  and  C_24
    3  A    between atoms: C_15  and  C_26
    4  A    between atoms: C_16  and  C_31
    5  A    between atoms: C_25  and  C_26
                            x       y       z     vdW  Elec       q    Type
                         _______ _______ _______ _____ _____    ______ ____

>  <TORSDO>
F 5

$$$$
=
 OpenBabel11052421323D

 32 38  0  0  1  0  0  0  0  0999 V2000
  186.7300  178.7040  143.2360 C   0  0  0  0  0  2  0  0  0  0  0  0
  189.9940  175.2000  144.8160 C   0  0  2  0  0  3  0  0  0  0  0  0
  188.2070  176.4400  143.5380 C   0  0  2  0  0  3  0  0  0  0  0  0
  188.8270  177.2840  145.7700 C   0  0  0  0  0  2  0  0  0  0  0  0
  186.7120  178.1470  144.6700 C   0  0  2  0  0  3  0  0  0  0  0  0
  190.9420  176.4570  146.6260 N   0  0  0  0  0  2  0  0  0  0  0  0
  189.6650  176.0290  146.0630 C   0  0  2  0  0  3  0  0  0  0  0  0
  191.9660  176.2830  145.5920 C   0  0  2  0  0  3  0  0  0  0  0  0
  191.2570  175.8330  144.3080 C   0  0  1  0  0  3  0  0  0  0  0  0
  186.9060  177.6280  142.1370 C   0  0  0  0  0  2  0  0  0  0  0  0
  187.6600  176.9490  144.8630 C   0  0  1  0  0  3  0  0  0  0  0  0
  187.1470  176.3290  142.6340 O   0  0  0  0  0  0  0  0  0  0  0  0
  188.8750  175.0950  143.7670 C   0  0  0  0  0  2  0  0  0  0  0  0
  192.0570  173.5960  143.4990 C   0  0  0  0  0  0  0  0  0  0  0  0
  192.8440  173.1430  142.3750 C   0  0  1  0  0  3  0  0  0  0  0  0
  193.3550  173.9500  140.3270 C   0  0  0  0  0  0  0  0  0  0  0  0
  192.9910  172.7120  140.1740 N   0  0  0  0  0  0  0  0  0  0  0  0
  192.5860  172.2160  141.4620 C   0  0  0  0  0  2  0  0  0  0  0  0
  192.7210  175.3880  142.2160 N   0  0  0  0  0  2  0  0  0  0  0  0
  191.1780  172.6070  144.6490 Cl  0  0  0  0  0  0  0  0  0  0  0  0
  193.7540  174.8390  139.2030 C   0  0  0  0  0  1  0  0  0  0  0  0
  192.0480  174.9310  143.4050 C   0  0  0  0  0  0  0  0  0  0  0  0
  193.2590  174.3230  141.7190 C   0  0  1  0  0  3  0  0  0  0  0  0
  184.8130  177.9390  146.5520 C   0  0  0  0  0  0  0  0  0  0  0  0
  185.5000  179.2610  146.9410 C   0  0  0  0  0  2  0  0  0  0  0  0
  185.8010  178.0540  147.7240 C   0  0  0  0  0  2  0  0  0  0  0  0
  185.3760  176.6220  146.0150 C   0  0  0  0  0  2  0  0  0  0  0  0
  185.2810  177.7490  145.0670 C   0  0  2  0  0  3  0  0  0  0  0  0
  193.0140  175.2900  146.0930 C   0  0  0  0  0  2  0  0  0  0  0  0
  194.3020  176.0120  146.4500 C   0  0  0  0  0  2  0  0  0  0  0  0
  195.3150  176.4960  144.3410 O   0  0  0  0  0  1  0  0  0  0  0  0
  194.6160  177.0690  145.4030 C   0  0  0  0  0  2  0  0  0  0  0  0
  2 13  1  6  0  0  0
  2  7  1  0  0  0  0
  3 13  1  1  0  0  0
  3 11  1  0  0  0  0
  5  1  1  6  0  0  0
  5 11  1  0  0  0  0
  5 28  1  0  0  0  0
  7  4  1  6  0  0  0
  7  6  1  0  0  0  0
  8 29  1  1  0  0  0
  8  6  1  0  0  0  0
  9 22  1  1  0  0  0
  9  2  1  0  0  0  0
  9  8  1  0  0  0  0
 10 12  1  0  0  0  0
 10  1  1  0  0  0  0
 11  4  1  1  0  0  0
 12  3  1  0  0  0  0
 14 20  1  0  0  0  0
 15 18  1  6  0  0  0
 15 14  1  0  0  0  0
 17 16  2  0  0  0  0
 17 18  1  0  0  0  0
 19 22  1  0  0  0  0
 21 16  1  0  0  0  0
 22 14  2  0  0  0  0
 23 16  1  6  0  0  0
 23 19  1  0  0  0  0
 23 15  1  0  0  0  0
 24 25  1  0  0  0  0
 24 26  1  0  0  0  0
 25 26  1  0  0  0  0
 27 24  1  0  0  0  0
 28 27  1  1  0  0  0
 28 24  1  0  0  0  0
 29 30  1  0  0  0  0
 31 32  1  0  0  0  0
 32 30  1  0  0  0  0
M  END
>  <MODEL>
2

>  <REMARK>
 VINA RESULT:      -7.2      1.616      2.113
  Name = 
  5 active torsions:
  status: ('A' for Active; 'I' for Inactive)
    1  A    between atoms: C_5  and  C_25
    2  A    between atoms: C_12  and  C_24
    3  A    between atoms: C_15  and  C_26
    4  A    between atoms: C_16  and  C_31
    5  A    between atoms: C_25  and  C_26
                            x       y       z     vdW  Elec       q    Type
                         _______ _______ _______ _____ _____    ______ ____

>  <TORSDO>
F 5

$$$$
=
 OpenBabel11052421323D

 32 38  0  0  1  0  0  0  0  0999 V2000
  185.4960  176.6580  146.4290 C   0  0  0  0  0  2  0  0  0  0  0  0
  189.7620  176.4850  143.7460 C   0  0  2  0  0  3  0  0  0  0  0  0
  188.0720  176.8630  145.5790 C   0  0  2  0  0  3  0  0  0  0  0  0
  187.2300  176.4500  143.3000 C   0  0  0  0  0  2  0  0  0  0  0  0
  185.6380  177.3450  145.0590 C   0  0  2  0  0  3  0  0  0  0  0  0
  188.8440  175.4750  141.7730 N   0  0  0  0  0  2  0  0  0  0  0  0
  188.6410  176.5800  142.7050 C   0  0  2  0  0  3  0  0  0  0  0  0
  189.7500  174.5150  142.4110 C   0  0  2  0  0  3  0  0  0  0  0  0
  190.0190  175.0090  143.8380 C   0  0  1  0  0  3  0  0  0  0  0  0
  186.7080  176.8600  147.3700 C   0  0  0  0  0  2  0  0  0  0  0  0
  187.0820  177.3310  144.5250 C   0  0  1  0  0  3  0  0  0  0  0  0
  187.7960  177.5340  146.7750 O   0  0  0  0  0  0  0  0  0  0  0  0
  189.4810  177.1620  145.0970 C   0  0  0  0  0  2  0  0  0  0  0  0
  191.7480  173.4480  144.7720 C   0  0  0  0  0  0  0  0  0  0  0  0
  193.1400  173.5730  145.1340 C   0  0  1  0  0  3  0  0  0  0  0  0
  194.8400  174.9550  144.5800 C   0  0  0  0  0  0  0  0  0  0  0  0
  195.2900  173.7390  144.4990 N   0  0  0  0  0  0  0  0  0  0  0  0
  194.1930  172.8510  144.7710 C   0  0  0  0  0  2  0  0  0  0  0  0
  192.4750  175.6020  144.4160 N   0  0  0  0  0  2  0  0  0  0  0  0
  190.7990  171.9760  144.6900 Cl  0  0  0  0  0  0  0  0  0  0  0  0
  195.6550  176.1600  144.2720 C   0  0  0  0  0  1  0  0  0  0  0  0
  191.3710  174.6770  144.4010 C   0  0  0  0  0  0  0  0  0  0  0  0
  193.4450  174.9400  144.9540 C   0  0  1  0  0  3  0  0  0  0  0  0
  184.5050  179.4570  143.8560 C   0  0  0  0  0  0  0  0  0  0  0  0
  183.7410  178.2820  143.2180 C   0  0  0  0  0  2  0  0  0  0  0  0
  184.7930  178.9460  142.4340 C   0  0  0  0  0  2  0  0  0  0  0  0
  185.9730  179.6160  144.2540 C   0  0  0  0  0  2  0  0  0  0  0  0
  185.1230  178.7920  145.1350 C   0  0  2  0  0  3  0  0  0  0  0  0
  191.0110  174.3820  141.5600 C   0  0  0  0  0  2  0  0  0  0  0  0
  191.2030  172.9430  141.1140 C   0  0  0  0  0  2  0  0  0  0  0  0
  193.4500  173.6710  141.4760 O   0  0  0  0  0  1  0  0  0  0  0  0
  192.6620  172.5400  141.2600 C   0  0  0  0  0  2  0  0  0  0  0  0
  1 10  1  0  0  0  0
  2  9  1  0  0  0  0
  2 13  1  1  0  0  0
  3 13  1  6  0  0  0
  3 12  1  0  0  0  0
  5 28  1  0  0  0  0
  5  1  1  1  0  0  0
  6  8  1  0  0  0  0
  6  7  1  0  0  0  0
  7  4  1  1  0  0  0
  7  2  1  0  0  0  0
  8 29  1  6  0  0  0
  8  9  1  0  0  0  0
  9 22  1  6  0  0  0
 11  4  1  6  0  0  0
 11  5  1  0  0  0  0
 11  3  1  0  0  0  0
 12 10  1  0  0  0  0
 14 15  1  0  0  0  0
 15 18  1  6  0  0  0
 16 23  1  0  0  0  0
 17 16  2  0  0  0  0
 17 18  1  0  0  0  0
 20 14  1  0  0  0  0
 21 16  1  0  0  0  0
 22 19  1  0  0  0  0
 22 14  2  0  0  0  0
 23 19  1  6  0  0  0
 23 15  1  0  0  0  0
 24 27  1  0  0  0  0
 24 28  1  0  0  0  0
 25 24  1  0  0  0  0
 26 25  1  0  0  0  0
 26 24  1  0  0  0  0
 28 27  1  6  0  0  0
 30 32  1  0  0  0  0
 30 29  1  0  0  0  0
 32 31  1  0  0  0  0
M  END
>  <MODEL>
3

>  <REMARK>
 VINA RESULT:      -7.1      2.369      3.863
  Name = 
  5 active torsions:
  status: ('A' for Active; 'I' for Inactive)
    1  A    between atoms: C_5  and  C_25
    2  A    between atoms: C_12  and  C_24
    3  A    between atoms: C_15  and  C_26
    4  A    between atoms: C_16  and  C_31
    5  A    between atoms: C_25  and  C_26
                            x       y       z     vdW  Elec       q    Type
                         _______ _______ _______ _____ _____    ______ ____

>  <TORSDO>
F 5

$$$$
=
 OpenBabel11052421323D

 32 38  0  0  1  0  0  0  0  0999 V2000
  186.4970  178.7520  143.1070 C   0  0  0  0  0  2  0  0  0  0  0  0
  189.5460  174.9700  144.4560 C   0  0  2  0  0  3  0  0  0  0  0  0
  187.7790  176.3630  143.3170 C   0  0  2  0  0  3  0  0  0  0  0  0
  188.6640  177.1600  145.4740 C   0  0  0  0  0  2  0  0  0  0  0  0
  186.5520  178.2090  144.5460 C   0  0  2  0  0  3  0  0  0  0  0  0
  190.7590  176.1450  146.1600 N   0  0  0  0  0  2  0  0  0  0  0  0
  189.4050  175.8340  145.7140 C   0  0  2  0  0  3  0  0  0  0  0  0
  191.6700  175.8680  145.0450 C   0  0  2  0  0  3  0  0  0  0  0  0
  190.8140  175.4780  143.8330 C   0  0  1  0  0  3  0  0  0  0  0  0
  186.4770  177.6580  142.0140 C   0  0  0  0  0  2  0  0  0  0  0  0
  187.3970  176.9290  144.6750 C   0  0  1  0  0  3  0  0  0  0  0  0
  186.6390  176.3450  142.5070 O   0  0  0  0  0  0  0  0  0  0  0  0
  188.3360  174.9630  143.5080 C   0  0  0  0  0  2  0  0  0  0  0  0
  192.4790  174.7850  142.0880 C   0  0  0  0  0  0  0  0  0  0  0  0
  192.8140  173.5380  141.4410 C   0  0  1  0  0  3  0  0  0  0  0  0
  192.5690  171.3450  141.9270 C   0  0  0  0  0  0  0  0  0  0  0  0
  193.7970  171.5180  141.5390 N   0  0  0  0  0  0  0  0  0  0  0  0
  193.9830  172.9250  141.3060 C   0  0  0  0  0  2  0  0  0  0  0  0
  191.1180  173.0960  142.8570 N   0  0  0  0  0  2  0  0  0  0  0  0
  193.3430  176.3060  141.9770 Cl  0  0  0  0  0  0  0  0  0  0  0  0
  192.0160  170.0320  142.3560 C   0  0  0  0  0  1  0  0  0  0  0  0
  191.4380  174.5000  142.8790 C   0  0  0  0  0  0  0  0  0  0  0  0
  191.8680  172.6080  141.9250 C   0  0  1  0  0  3  0  0  0  0  0  0
  184.8170  178.1670  146.5910 C   0  0  0  0  0  0  0  0  0  0  0  0
  185.6640  179.4100  146.9200 C   0  0  0  0  0  2  0  0  0  0  0  0
  185.9130  178.1700  147.6700 C   0  0  0  0  0  2  0  0  0  0  0  0
  185.1960  176.8080  146.0010 C   0  0  0  0  0  2  0  0  0  0  0  0
  185.1290  177.9500  145.0690 C   0  0  2  0  0  3  0  0  0  0  0  0
  192.6600  174.7860  145.4700 C   0  0  0  0  0  2  0  0  0  0  0  0
  194.0880  175.2580  145.2560 C   0  0  0  0  0  2  0  0  0  0  0  0
  194.5950  177.4010  146.1830 O   0  0  0  0  0  1  0  0  0  0  0  0
  194.5690  176.0360  146.4710 C   0  0  0  0  0  2  0  0  0  0  0  0
  2 13  1  6  0  0  0
  2  7  1  0  0  0  0
  3 13  1  1  0  0  0
  3 11  1  0  0  0  0
  5  1  1  6  0  0  0
  5 11  1  0  0  0  0
  5 28  1  0  0  0  0
  7  4  1  6  0  0  0
  7  6  1  0  0  0  0
  8 29  1  1  0  0  0
  8  6  1  0  0  0  0
  9 22  1  1  0  0  0
  9  2  1  0  0  0  0
  9  8  1  0  0  0  0
 10 12  1  0  0  0  0
 10  1  1  0  0  0  0
 11  4  1  1  0  0  0
 12  3  1  0  0  0  0
 14 22  2  0  0  0  0
 15 18  1  1  0  0  0
 15 23  1  0  0  0  0
 15 14  1  0  0  0  0
 16 21  1  0  0  0  0
 17 16  2  0  0  0  0
 18 17  1  0  0  0  0
 19 22  1  0  0  0  0
 20 14  1  0  0  0  0
 23 16  1  1  0  0  0
 23 19  1  0  0  0  0
 24 25  1  0  0  0  0
 24 26  1  0  0  0  0
 25 26  1  0  0  0  0
 27 24  1  0  0  0  0
 28 27  1  1  0  0  0
 28 24  1  0  0  0  0
 30 29  1  0  0  0  0
 30 32  1  0  0  0  0
 31 32  1  0  0  0  0
M  END
>  <MODEL>
4

>  <REMARK>
 VINA RESULT:      -7.0      1.282      1.322
  Name = 
  5 active torsions:
  status: ('A' for Active; 'I' for Inactive)
    1  A    between atoms: C_5  and  C_25
    2  A    between atoms: C_12  and  C_24
    3  A    between atoms: C_15  and  C_26
    4  A    between atoms: C_16  and  C_31
    5  A    between atoms: C_25  and  C_26
                            x       y       z     vdW  Elec       q    Type
                         _______ _______ _______ _____ _____    ______ ____

>  <TORSDO>
F 5

$$$$
=
 OpenBabel11052421323D

 32 38  0  0  1  0  0  0  0  0999 V2000
  195.3780  176.6560  144.7970 C   0  0  0  0  0  2  0  0  0  0  0  0
  190.5720  175.1300  144.7520 C   0  0  2  0  0  3  0  0  0  0  0  0
  192.7530  176.2320  145.3730 C   0  0  2  0  0  3  0  0  0  0  0  0
  192.8180  174.3760  143.7530 C   0  0  0  0  0  2  0  0  0  0  0  0
  194.9840  175.1680  144.8060 C   0  0  2  0  0  3  0  0  0  0  0  0
  190.6830  173.8240  142.7420 N   0  0  0  0  0  2  0  0  0  0  0  0
  191.3470  174.0240  144.0260 C   0  0  2  0  0  3  0  0  0  0  0  0
  189.8310  174.9920  142.4940 C   0  0  2  0  0  3  0  0  0  0  0  0
  190.0780  175.9940  143.6280 C   0  0  1  0  0  3  0  0  0  0  0  0
  194.5450  177.5400  145.7550 C   0  0  0  0  0  2  0  0  0  0  0  0
  193.4720  174.9460  144.9960 C   0  0  1  0  0  3  0  0  0  0  0  0
  193.4800  176.8640  146.3870 O   0  0  0  0  0  0  0  0  0  0  0  0
  191.3480  175.8900  145.8390 C   0  0  0  0  0  2  0  0  0  0  0  0
  188.3940  177.8130  143.2350 C   0  0  0  0  0  0  0  0  0  0  0  0
  187.2240  178.2850  143.9390 C   0  0  1  0  0  3  0  0  0  0  0  0
  185.7770  177.4140  145.4400 C   0  0  0  0  0  0  0  0  0  0  0  0
  185.0710  177.9900  144.5140 N   0  0  0  0  0  0  0  0  0  0  0  0
  185.9820  178.4760  143.5130 C   0  0  0  0  0  2  0  0  0  0  0  0
  188.0780  176.5970  145.1630 N   0  0  0  0  0  2  0  0  0  0  0  0
  188.9390  178.2910  141.6390 Cl  0  0  0  0  0  0  0  0  0  0  0  0
  185.1880  176.7030  146.6060 C   0  0  0  0  0  1  0  0  0  0  0  0
  188.9050  176.8500  144.0120 C   0  0  0  0  0  0  0  0  0  0  0  0
  187.1830  177.5280  145.1300 C   0  0  1  0  0  3  0  0  0  0  0  0
  196.9010  173.4240  145.4920 C   0  0  0  0  0  0  0  0  0  0  0  0
  197.5420  174.1410  144.2900 C   0  0  0  0  0  2  0  0  0  0  0  0
  196.9880  172.7930  144.0920 C   0  0  0  0  0  2  0  0  0  0  0  0
  195.4620  172.9820  145.7620 C   0  0  0  0  0  2  0  0  0  0  0  0
  195.7620  174.4200  145.9020 C   0  0  2  0  0  3  0  0  0  0  0  0
  188.3780  174.5330  142.3870 C   0  0  0  0  0  2  0  0  0  0  0  0
  188.2690  173.3210  141.4770 C   0  0  0  0  0  2  0  0  0  0  0  0
  188.1910  172.6680  139.1800 O   0  0  0  0  0  1  0  0  0  0  0  0
  188.4970  173.7310  140.0310 C   0  0  0  0  0  2  0  0  0  0  0  0
  1 10  1  0  0  0  0
  2 13  1  1  0  0  0
  3 13  1  1  0  0  0
  3 12  1  0  0  0  0
  5  1  1  1  0  0  0
  5 11  1  0  0  0  0
  5 28  1  0  0  0  0
  6  7  1  0  0  0  0
  7  4  1  6  0  0  0
  7  2  1  0  0  0  0
  8 29  1  1  0  0  0
  8  6  1  0  0  0  0
  8  9  1  0  0  0  0
  9 22  1  1  0  0  0
  9  2  1  0  0  0  0
 10 12  1  0  0  0  0
 11  4  1  6  0  0  0
 11  3  1  0  0  0  0
 14 15  1  0  0  0  0
 14 22  2  0  0  0  0
 15 18  1  6  0  0  0
 15 23  1  0  0  0  0
 16 21  1  0  0  0  0
 17 16  2  0  0  0  0
 18 17  1  0  0  0  0
 20 14  1  0  0  0  0
 22 19  1  0  0  0  0
 23 19  1  6  0  0  0
 23 16  1  0  0  0  0
 24 27  1  0  0  0  0
 24 28  1  0  0  0  0
 25 24  1  0  0  0  0
 26 25  1  0  0  0  0
 26 24  1  0  0  0  0
 28 27  1  6  0  0  0
 30 29  1  0  0  0  0
 31 32  1  0  0  0  0
 32 30  1  0  0  0  0
M  END
>  <MODEL>
5

>  <REMARK>
 VINA RESULT:      -6.9      2.507      8.227
  Name = 
  5 active torsions:
  status: ('A' for Active; 'I' for Inactive)
    1  A    between atoms: C_5  and  C_25
    2  A    between atoms: C_12  and  C_24
    3  A    between atoms: C_15  and  C_26
    4  A    between atoms: C_16  and  C_31
    5  A    between atoms: C_25  and  C_26
                            x       y       z     vdW  Elec       q    Type
                         _______ _______ _______ _____ _____    ______ ____

>  <TORSDO>
F 5

$$$$
=
 OpenBabel11052421323D

 32 38  0  0  1  0  0  0  0  0999 V2000
  193.6520  173.4190  142.5350 C   0  0  0  0  0  2  0  0  0  0  0  0
  190.7340  177.0370  144.4900 C   0  0  2  0  0  3  0  0  0  0  0  0
  192.1300  175.6400  142.9210 C   0  0  2  0  0  3  0  0  0  0  0  0
  192.3470  175.2250  145.3410 C   0  0  0  0  0  2  0  0  0  0  0  0
  194.0730  174.2450  143.7630 C   0  0  2  0  0  3  0  0  0  0  0  0
  190.5480  176.1210  146.6990 N   0  0  0  0  0  2  0  0  0  0  0  0
  191.5260  176.4800  145.6770 C   0  0  2  0  0  3  0  0  0  0  0  0
  189.2340  176.0520  146.0530 C   0  0  2  0  0  3  0  0  0  0  0  0
  189.4450  176.2700  144.5490 C   0  0  1  0  0  3  0  0  0  0  0  0
  193.0260  174.2530  141.3910 C   0  0  0  0  0  2  0  0  0  0  0  0
  193.1220  175.4210  144.0530 C   0  0  1  0  0  3  0  0  0  0  0  0
  192.8280  175.6130  141.7090 O   0  0  0  0  0  0  0  0  0  0  0  0
  191.4410  176.9780  143.1260 C   0  0  0  0  0  2  0  0  0  0  0  0
  187.6100  176.3780  142.8410 C   0  0  0  0  0  0  0  0  0  0  0  0
  186.5730  177.3310  142.5210 C   0  0  1  0  0  3  0  0  0  0  0  0
  185.4990  178.9860  143.6230 C   0  0  0  0  0  0  0  0  0  0  0  0
  184.5940  178.2690  143.0290 N   0  0  0  0  0  0  0  0  0  0  0  0
  185.2620  177.1660  142.3920 C   0  0  0  0  0  2  0  0  0  0  0  0
  187.7480  178.2040  144.2340 N   0  0  0  0  0  2  0  0  0  0  0  0
  187.8060  174.7620  142.1900 Cl  0  0  0  0  0  0  0  0  0  0  0  0
  185.1920  180.1670  144.4730 C   0  0  0  0  0  1  0  0  0  0  0  0
  188.3190  176.9480  143.8220 C   0  0  0  0  0  0  0  0  0  0  0  0
  186.8090  178.4300  143.3750 C   0  0  1  0  0  3  0  0  0  0  0  0
  196.5700  174.4980  144.7080 C   0  0  0  0  0  0  0  0  0  0  0  0
  196.2000  173.0770  145.1690 C   0  0  0  0  0  2  0  0  0  0  0  0
  196.1770  174.1660  146.1570 C   0  0  0  0  0  2  0  0  0  0  0  0
  195.7470  175.7850  144.6260 C   0  0  0  0  0  2  0  0  0  0  0  0
  195.5080  174.7670  143.5850 C   0  0  2  0  0  3  0  0  0  0  0  0
  188.3080  177.0830  146.6980 C   0  0  0  0  0  2  0  0  0  0  0  0
  187.0420  176.4160  147.2050 C   0  0  0  0  0  2  0  0  0  0  0  0
  184.8640  176.9770  146.3980 O   0  0  0  0  0  1  0  0  0  0  0  0
  185.8970  177.4160  147.2270 C   0  0  0  0  0  2  0  0  0  0  0  0
  2 13  1  6  0  0  0
  2  9  1  0  0  0  0
  2  7  1  0  0  0  0
  3 13  1  1  0  0  0
  3 11  1  0  0  0  0
  5  1  1  6  0  0  0
  5 11  1  0  0  0  0
  7  4  1  6  0  0  0
  7  6  1  0  0  0  0
  8 29  1  1  0  0  0
  8  6  1  0  0  0  0
  9 22  1  1  0  0  0
  9  8  1  0  0  0  0
 10 12  1  0  0  0  0
 10  1  1  0  0  0  0
 11  4  1  1  0  0  0
 12  3  1  0  0  0  0
 14 22  2  0  0  0  0
 15 18  1  1  0  0  0
 15 14  1  0  0  0  0
 15 23  1  0  0  0  0
 16 21  1  0  0  0  0
 17 16  2  0  0  0  0
 18 17  1  0  0  0  0
 20 14  1  0  0  0  0
 22 19  1  0  0  0  0
 23 16  1  1  0  0  0
 23 19  1  0  0  0  0
 24 25  1  0  0  0  0
 24 26  1  0  0  0  0
 25 26  1  0  0  0  0
 27 24  1  0  0  0  0
 28  5  1  0  0  0  0
 28 27  1  1  0  0  0
 28 24  1  0  0  0  0
 29 30  1  0  0  0  0
 30 32  1  0  0  0  0
 31 32  1  0  0  0  0
M  END
>  <MODEL>
6

>  <REMARK>
 VINA RESULT:      -6.9      2.525      8.111
  Name = 
  5 active torsions:
  status: ('A' for Active; 'I' for Inactive)
    1  A    between atoms: C_5  and  C_25
    2  A    between atoms: C_12  and  C_24
    3  A    between atoms: C_15  and  C_26
    4  A    between atoms: C_16  and  C_31
    5  A    between atoms: C_25  and  C_26
                            x       y       z     vdW  Elec       q    Type
                         _______ _______ _______ _____ _____    ______ ____

>  <TORSDO>
F 5

$$$$
=
 OpenBabel11052421323D

 32 38  0  0  1  0  0  0  0  0999 V2000
  187.0680  177.0150  146.5540 C   0  0  0  0  0  2  0  0  0  0  0  0
  189.8220  176.1580  142.4180 C   0  0  2  0  0  3  0  0  0  0  0  0
  189.0680  176.8730  144.7160 C   0  0  2  0  0  3  0  0  0  0  0  0
  187.3360  176.3460  143.0440 C   0  0  0  0  0  2  0  0  0  0  0  0
  186.6690  177.5570  145.1690 C   0  0  2  0  0  3  0  0  0  0  0  0
  188.1130  175.0740  141.1300 N   0  0  0  0  0  2  0  0  0  0  0  0
  188.3790  176.2740  141.9170 C   0  0  2  0  0  3  0  0  0  0  0  0
  189.1450  174.0870  141.4610 C   0  0  2  0  0  3  0  0  0  0  0  0
  190.0090  174.6770  142.5820 C   0  0  1  0  0  3  0  0  0  0  0  0
  188.5700  177.1740  146.8910 C   0  0  0  0  0  2  0  0  0  0  0  0
  187.7590  177.3450  144.1030 C   0  0  1  0  0  3  0  0  0  0  0  0
  189.3510  177.6750  145.8270 O   0  0  0  0  0  0  0  0  0  0  0  0
  190.1650  176.9800  143.6710 C   0  0  0  0  0  2  0  0  0  0  0  0
  191.8920  173.0930  143.0710 C   0  0  0  0  0  0  0  0  0  0  0  0
  193.3030  173.0650  142.7640 C   0  0  1  0  0  3  0  0  0  0  0  0
  194.6390  174.0040  141.2030 C   0  0  0  0  0  0  0  0  0  0  0  0
  194.9430  172.7430  141.2610 N   0  0  0  0  0  0  0  0  0  0  0  0
  194.0420  172.1220  142.1940 C   0  0  0  0  0  2  0  0  0  0  0  0
  192.4880  174.9750  141.8890 N   0  0  0  0  0  2  0  0  0  0  0  0
  190.9350  171.8110  143.7870 Cl  0  0  0  0  0  0  0  0  0  0  0  0
  195.2880  174.9690  140.2740 C   0  0  0  0  0  1  0  0  0  0  0  0
  191.4510  174.2590  142.5860 C   0  0  0  0  0  0  0  0  0  0  0  0
  193.5620  174.2950  142.1210 C   0  0  1  0  0  3  0  0  0  0  0  0
  184.8450  179.5130  144.9810 C   0  0  0  0  0  0  0  0  0  0  0  0
  184.0200  178.3710  145.6020 C   0  0  0  0  0  2  0  0  0  0  0  0
  183.8510  178.6640  144.1710 C   0  0  0  0  0  2  0  0  0  0  0  0
  185.9410  179.5100  143.9140 C   0  0  0  0  0  2  0  0  0  0  0  0
  186.3160  179.0500  145.2660 C   0  0  2  0  0  3  0  0  0  0  0  0
  189.9310  173.7480  140.1960 C   0  0  0  0  0  2  0  0  0  0  0  0
  189.8450  172.2610  139.8990 C   0  0  0  0  0  2  0  0  0  0  0  0
  192.1000  172.6720  139.2220 O   0  0  0  0  0  1  0  0  0  0  0  0
  191.2390  171.6850  139.7040 C   0  0  0  0  0  2  0  0  0  0  0  0
  1 10  1  0  0  0  0
  2  9  1  0  0  0  0
  2 13  1  1  0  0  0
  3 13  1  6  0  0  0
  3 12  1  0  0  0  0
  5 28  1  0  0  0  0
  5  1  1  1  0  0  0
  6  8  1  0  0  0  0
  6  7  1  0  0  0  0
  7  2  1  0  0  0  0
  7  4  1  1  0  0  0
  8 29  1  6  0  0  0
  8  9  1  0  0  0  0
  9 22  1  6  0  0  0
 11  4  1  6  0  0  0
 11  3  1  0  0  0  0
 11  5  1  0  0  0  0
 12 10  1  0  0  0  0
 14 20  1  0  0  0  0
 15 18  1  6  0  0  0
 15 14  1  0  0  0  0
 16 17  2  0  0  0  0
 17 18  1  0  0  0  0
 19 23  1  0  0  0  0
 19 22  1  0  0  0  0
 21 16  1  0  0  0  0
 22 14  2  0  0  0  0
 23 16  1  6  0  0  0
 23 15  1  0  0  0  0
 24 28  1  0  0  0  0
 24 25  1  0  0  0  0
 26 24  1  0  0  0  0
 26 25  1  0  0  0  0
 27 24  1  0  0  0  0
 28 27  1  6  0  0  0
 30 29  1  0  0  0  0
 31 32  1  0  0  0  0
 32 30  1  0  0  0  0
M  END
>  <MODEL>
7

>  <REMARK>
 VINA RESULT:      -6.7      2.862      4.301
  Name = 
  5 active torsions:
  status: ('A' for Active; 'I' for Inactive)
    1  A    between atoms: C_5  and  C_25
    2  A    between atoms: C_12  and  C_24
    3  A    between atoms: C_15  and  C_26
    4  A    between atoms: C_16  and  C_31
    5  A    between atoms: C_25  and  C_26
                            x       y       z     vdW  Elec       q    Type
                         _______ _______ _______ _____ _____    ______ ____

>  <TORSDO>
F 5

$$$$
=
 OpenBabel11052421323D

 32 38  0  0  1  0  0  0  0  0999 V2000
  185.4570  179.5210  143.5990 C   0  0  0  0  0  2  0  0  0  0  0  0
  188.1280  175.2440  143.6190 C   0  0  2  0  0  3  0  0  0  0  0  0
  186.3290  176.9700  143.2370 C   0  0  2  0  0  3  0  0  0  0  0  0
  188.0130  177.4230  144.9790 C   0  0  0  0  0  2  0  0  0  0  0  0
  185.9100  178.8370  144.9010 C   0  0  2  0  0  3  0  0  0  0  0  0
  190.0220  176.0710  144.8380 N   0  0  0  0  0  2  0  0  0  0  0  0
  188.5650  175.9920  144.8830 C   0  0  2  0  0  3  0  0  0  0  0  0
  190.4410  175.7830  143.4630 C   0  0  2  0  0  3  0  0  0  0  0  0
  189.1730  175.6330  142.6140 C   0  0  1  0  0  3  0  0  0  0  0  0
  184.8890  178.5520  142.5350 C   0  0  0  0  0  2  0  0  0  0  0  0
  186.5300  177.4470  144.6670 C   0  0  1  0  0  3  0  0  0  0  0  0
  184.9940  177.1880  142.8810 O   0  0  0  0  0  0  0  0  0  0  0  0
  186.6830  175.4950  143.1580 C   0  0  0  0  0  2  0  0  0  0  0  0
  188.5770  174.8090  140.3200 C   0  0  0  0  0  0  0  0  0  0  0  0
  189.0610  173.7530  139.4610 C   0  0  1  0  0  3  0  0  0  0  0  0
  190.9760  172.5670  139.2750 C   0  0  0  0  0  0  0  0  0  0  0  0
  190.6530  172.9670  138.0820 N   0  0  0  0  0  0  0  0  0  0  0  0
  189.4790  173.7900  138.2030 C   0  0  0  0  0  2  0  0  0  0  0  0
  190.2560  173.6350  141.3680 N   0  0  0  0  0  2  0  0  0  0  0  0
  187.4410  176.0790  139.9060 Cl  0  0  0  0  0  0  0  0  0  0  0  0
  192.1930  171.7680  139.5770 C   0  0  0  0  0  1  0  0  0  0  0  0
  189.2670  174.6780  141.4580 C   0  0  0  0  0  0  0  0  0  0  0  0
  190.0160  173.0590  140.2360 C   0  0  1  0  0  3  0  0  0  0  0  0
  185.0090  178.6620  147.4210 C   0  0  0  0  0  0  0  0  0  0  0  0
  186.1890  179.6390  147.5740 C   0  0  0  0  0  2  0  0  0  0  0  0
  186.3710  178.2440  148.0000 C   0  0  0  0  0  2  0  0  0  0  0  0
  184.8300  177.4150  146.5540 C   0  0  0  0  0  2  0  0  0  0  0  0
  184.7290  178.7240  145.8790 C   0  0  2  0  0  3  0  0  0  0  0  0
  191.3280  174.5390  143.4640 C   0  0  0  0  0  2  0  0  0  0  0  0
  192.3220  174.5960  144.6110 C   0  0  0  0  0  2  0  0  0  0  0  0
  193.6230  176.5360  145.1100 O   0  0  0  0  0  1  0  0  0  0  0  0
  193.5130  175.4590  144.2300 C   0  0  0  0  0  2  0  0  0  0  0  0
  2 13  1  6  0  0  0
  2  7  1  0  0  0  0
  3 13  1  1  0  0  0
  3 11  1  0  0  0  0
  5  1  1  6  0  0  0
  5 28  1  0  0  0  0
  6  7  1  0  0  0  0
  7  4  1  6  0  0  0
  8 29  1  1  0  0  0
  8  6  1  0  0  0  0
  9 22  1  6  0  0  0
  9  8  1  0  0  0  0
  9  2  1  0  0  0  0
 10 12  1  0  0  0  0
 10  1  1  0  0  0  0
 11  5  1  0  0  0  0
 11  4  1  6  0  0  0
 12  3  1  0  0  0  0
 14 22  2  0  0  0  0
 15 18  1  6  0  0  0
 15 23  1  0  0  0  0
 15 14  1  0  0  0  0
 16 21  1  0  0  0  0
 17 18  1  0  0  0  0
 17 16  2  0  0  0  0
 19 22  1  0  0  0  0
 20 14  1  0  0  0  0
 23 16  1  6  0  0  0
 23 19  1  0  0  0  0
 24 25  1  0  0  0  0
 24 26  1  0  0  0  0
 25 26  1  0  0  0  0
 27 24  1  0  0  0  0
 28 27  1  6  0  0  0
 28 24  1  0  0  0  0
 29 30  1  0  0  0  0
 32 30  1  0  0  0  0
 32 31  1  0  0  0  0
M  END
>  <MODEL>
8

>  <REMARK>
 VINA RESULT:      -6.4      2.905      3.590
  Name = 
  5 active torsions:
  status: ('A' for Active; 'I' for Inactive)
    1  A    between atoms: C_5  and  C_25
    2  A    between atoms: C_12  and  C_24
    3  A    between atoms: C_15  and  C_26
    4  A    between atoms: C_16  and  C_31
    5  A    between atoms: C_25  and  C_26
                            x       y       z     vdW  Elec       q    Type
                         _______ _______ _______ _____ _____    ______ ____

>  <TORSDO>
F 5

$$$$
=
 OpenBabel11052421323D

 32 38  0  0  1  0  0  0  0  0999 V2000
  194.5550  175.9750  145.1360 C   0  0  0  0  0  2  0  0  0  0  0  0
  189.6060  175.3040  144.4460 C   0  0  2  0  0  3  0  0  0  0  0  0
  191.9150  175.4070  145.4550 C   0  0  2  0  0  3  0  0  0  0  0  0
  191.7250  175.4680  142.9990 C   0  0  0  0  0  2  0  0  0  0  0  0
  193.9920  175.0430  144.0490 C   0  0  2  0  0  3  0  0  0  0  0  0
  189.5160  176.0130  142.1560 N   0  0  0  0  0  2  0  0  0  0  0  0
  190.2300  175.1160  143.0590 C   0  0  2  0  0  3  0  0  0  0  0  0
  188.8000  176.9940  142.9770 C   0  0  2  0  0  3  0  0  0  0  0  0
  189.1880  176.7460  144.4400 C   0  0  1  0  0  3  0  0  0  0  0  0
  193.8540  175.8470  146.5100 C   0  0  0  0  0  2  0  0  0  0  0  0
  192.4710  174.8390  144.1590 C   0  0  1  0  0  3  0  0  0  0  0  0
  192.7340  174.9890  146.5090 O   0  0  0  0  0  0  0  0  0  0  0  0
  190.4910  174.9090  145.6390 C   0  0  0  0  0  2  0  0  0  0  0  0
  188.3910  177.3910  146.7300 C   0  0  0  0  0  0  0  0  0  0  0  0
  187.1070  177.7190  147.3050 C   0  0  1  0  0  3  0  0  0  0  0  0
  185.1250  178.4680  146.5200 C   0  0  0  0  0  0  0  0  0  0  0  0
  185.4270  179.1920  147.5560 N   0  0  0  0  0  0  0  0  0  0  0  0
  186.7250  178.7750  148.0130 C   0  0  0  0  0  2  0  0  0  0  0  0
  186.7400  177.2380  145.1350 N   0  0  0  0  0  2  0  0  0  0  0  0
  189.9650  177.5410  147.4880 Cl  0  0  0  0  0  0  0  0  0  0  0  0
  183.8960  178.6640  145.7050 C   0  0  0  0  0  1  0  0  0  0  0  0
  188.1310  177.0600  145.4600 C   0  0  0  0  0  0  0  0  0  0  0  0
  186.1760  177.5100  146.2650 C   0  0  1  0  0  3  0  0  0  0  0  0
  195.2210  173.0350  142.7640 C   0  0  0  0  0  0  0  0  0  0  0  0
  195.7190  174.2630  141.9800 C   0  0  0  0  0  2  0  0  0  0  0  0
  194.6670  173.4270  141.3840 C   0  0  0  0  0  2  0  0  0  0  0  0
  193.8600  172.7070  143.3800 C   0  0  0  0  0  2  0  0  0  0  0  0
  194.7060  173.6810  144.0970 C   0  0  2  0  0  3  0  0  0  0  0  0
  187.3010  176.8650  142.7100 C   0  0  0  0  0  2  0  0  0  0  0  0
  186.9850  177.2190  141.2680 C   0  0  0  0  0  2  0  0  0  0  0  0
  185.9210  179.0370  142.3950 O   0  0  0  0  0  1  0  0  0  0  0  0
  185.9080  178.2910  141.2160 C   0  0  0  0  0  2  0  0  0  0  0  0
  1 10  1  0  0  0  0
  2 13  1  1  0  0  0
  3 13  1  1  0  0  0
  3 12  1  0  0  0  0
  5 28  1  0  0  0  0
  5 11  1  0  0  0  0
  5  1  1  1  0  0  0
  6  8  1  0  0  0  0
  6  7  1  0  0  0  0
  7  4  1  1  0  0  0
  7  2  1  0  0  0  0
  8 29  1  1  0  0  0
  8  9  1  0  0  0  0
  9  2  1  0  0  0  0
  9 22  1  1  0  0  0
 11  4  1  6  0  0  0
 11  3  1  0  0  0  0
 12 10  1  0  0  0  0
 14 15  1  0  0  0  0
 14 20  1  0  0  0  0
 15 18  1  6  0  0  0
 16 17  2  0  0  0  0
 17 18  1  0  0  0  0
 19 22  1  0  0  0  0
 21 16  1  0  0  0  0
 22 14  2  0  0  0  0
 23 19  1  6  0  0  0
 23 16  1  0  0  0  0
 23 15  1  0  0  0  0
 24 27  1  0  0  0  0
 24 28  1  0  0  0  0
 25 24  1  0  0  0  0
 26 25  1  0  0  0  0
 26 24  1  0  0  0  0
 28 27  1  6  0  0  0
 30 29  1  0  0  0  0
 32 30  1  0  0  0  0
 32 31  1  0  0  0  0
M  END
>  <MODEL>
9

>  <REMARK>
 VINA RESULT:      -6.2      2.465      8.470
  Name = 
  5 active torsions:
  status: ('A' for Active; 'I' for Inactive)
    1  A    between atoms: C_5  and  C_25
    2  A    between atoms: C_12  and  C_24
    3  A    between atoms: C_15  and  C_26
    4  A    between atoms: C_16  and  C_31
    5  A    between atoms: C_25  and  C_26
                            x       y       z     vdW  Elec       q    Type
                         _______ _______ _______ _____ _____    ______ ____

>  <TORSDO>
F 5

$$$$
