=
 OpenBabel11052417283D

 25 27  0  0  1  0  0  0  0  0999 V2000
  185.7040  177.9830  143.7010 C   0  0  1  0  0  3  0  0  0  0  0  0
  187.1690  179.1240  142.1500 O   0  0  0  0  0  1  0  0  0  0  0  0
  185.7840  177.3510  141.3000 C   0  0  2  0  0  3  0  0  0  0  0  0
  186.5100  177.4090  140.1090 O   0  0  0  0  0  1  0  0  0  0  0  0
  184.6010  178.8300  143.4730 O   0  0  0  0  0  0  0  0  0  0  0  0
  184.4770  178.1270  141.1580 C   0  0  0  0  0  2  0  0  0  0  0  0
  183.7820  178.1870  142.5230 C   0  0  2  0  0  3  0  0  0  0  0  0
  186.6170  177.8800  142.4700 C   0  0  2  0  0  3  0  0  0  0  0  0
  186.4530  178.3020  145.0080 C   0  0  2  0  0  3  0  0  0  0  0  0
  184.1340  178.1910  146.2460 C   0  0  0  0  0  1  0  0  0  0  0  0
  187.4650  177.2490  145.2950 C   0  0  0  0  0  0  0  0  0  0  0  0
  189.1530  175.2650  146.2560 C   0  0  0  0  0  3  0  0  0  0  0  0
  187.2800  176.7380  146.5490 C   0  0  0  0  0  0  0  0  0  0  0  0
  188.1070  175.7390  147.0630 C   0  0  0  0  0  3  0  0  0  0  0  0
  189.3520  175.7960  144.9680 C   0  0  0  0  0  3  0  0  0  0  0  0
  185.6400  178.3660  146.3460 C   0  0  1  0  0  3  0  0  0  0  0  0
  186.1970  177.3410  147.2260 N   0  0  0  0  0  2  0  0  0  0  0  0
  188.5050  176.8020  144.4760 C   0  0  0  0  0  3  0  0  0  0  0  0
  182.4340  178.8890  142.4220 C   0  0  0  0  0  2  0  0  0  0  0  0
  181.5350  178.2440  141.3720 C   0  0  0  0  0  2  0  0  0  0  0  0
  179.0490  178.3760  141.7590 C   0  0  0  0  0  0  0  0  0  0  0  0
  177.8510  179.0720  141.6460 O   0  0  0  0  0  0  0  0  0  0  0  0
  179.0480  177.2290  142.2800 O   0  0  0  0  0  1  0  0  0  0  0  0
  180.2700  178.9590  141.2850 N   0  0  0  0  0  0  0  0  0  0  0  0
  180.2500  180.2410  140.6020 C   0  0  0  0  0  1  0  0  0  0  0  0
  1  5  1  6  0  0  0
  1  9  1  0  0  0  0
  3  4  1  6  0  0  0
  3  8  1  0  0  0  0
  6  3  1  0  0  0  0
  6  7  1  0  0  0  0
  7 19  1  6  0  0  0
  7  5  1  0  0  0  0
  8  2  1  6  0  0  0
  8  1  1  0  0  0  0
  9 11  1  1  0  0  0
  9 16  1  0  0  0  0
 11 13  1  0  0  0  0
 12 14  1  0  0  0  0
 13 14  2  0  0  0  0
 13 17  1  0  0  0  0
 15 12  2  0  0  0  0
 16 10  1  6  0  0  0
 16 17  1  0  0  0  0
 18 15  1  0  0  0  0
 18 11  2  0  0  0  0
 20 19  1  0  0  0  0
 21 23  1  0  0  0  0
 22 21  2  0  0  0  0
 24 20  1  0  0  0  0
 24 21  1  0  0  0  0
 25 24  1  0  0  0  0
M  END
>  <MODEL>
1

>  <REMARK>
 VINA RESULT:      -7.3      0.000      0.000
  Name = 
  4 active torsions:
  status: ('A' for Active; 'I' for Inactive)
    1  A    between atoms: C_1  and  C_3
    2  A    between atoms: C_6  and  C_15
    3  A    between atoms: C_6  and  C_23
    4  A    between atoms: C_15  and  N_21
                            x       y       z     vdW  Elec       q    Type
                         _______ _______ _______ _____ _____    ______ ____

>  <TORSDO>
F 4

$$$$
=
 OpenBabel11052417283D

 25 27  0  0  1  0  0  0  0  0999 V2000
  188.4100  176.5610  144.5830 C   0  0  1  0  0  3  0  0  0  0  0  0
  189.7520  177.2520  146.4750 O   0  0  0  0  0  1  0  0  0  0  0  0
  189.0700  174.9480  146.3540 C   0  0  2  0  0  3  0  0  0  0  0  0
  189.5280  174.7860  147.6630 O   0  0  0  0  0  1  0  0  0  0  0  0
  189.5090  176.1820  143.7860 O   0  0  0  0  0  0  0  0  0  0  0  0
  190.1200  174.4490  145.3640 C   0  0  0  0  0  2  0  0  0  0  0  0
  189.6640  174.7900  143.9410 C   0  0  2  0  0  3  0  0  0  0  0  0
  188.7060  176.4110  146.0830 C   0  0  2  0  0  3  0  0  0  0  0  0
  187.8250  177.9320  144.1980 C   0  0  2  0  0  3  0  0  0  0  0  0
  187.6970  177.0680  141.7160 C   0  0  0  0  0  1  0  0  0  0  0  0
  186.5560  178.1790  144.9340 C   0  0  0  0  0  0  0  0  0  0  0  0
  184.0060  178.7350  145.8820 C   0  0  0  0  0  3  0  0  0  0  0  0
  185.5480  178.4790  144.0600 C   0  0  0  0  0  0  0  0  0  0  0  0
  184.2560  178.7610  144.5010 C   0  0  0  0  0  3  0  0  0  0  0  0
  185.0430  178.4350  146.7850 C   0  0  0  0  0  3  0  0  0  0  0  0
  187.4100  178.1830  142.7080 C   0  0  1  0  0  3  0  0  0  0  0  0
  185.9790  178.4790  142.7150 N   0  0  0  0  0  2  0  0  0  0  0  0
  186.3360  178.1570  146.3130 C   0  0  0  0  0  3  0  0  0  0  0  0
  190.6430  174.2470  142.9070 C   0  0  0  0  0  2  0  0  0  0  0  0
  191.6120  175.3210  142.4230 C   0  0  0  0  0  2  0  0  0  0  0  0
  193.3050  176.1490  144.0960 C   0  0  0  0  0  0  0  0  0  0  0  0
  194.5390  176.0150  144.7240 O   0  0  0  0  0  1  0  0  0  0  0  0
  192.5610  177.1200  144.3990 O   0  0  0  0  0  0  0  0  0  0  0  0
  192.8890  175.1930  143.1110 N   0  0  0  0  0  0  0  0  0  0  0  0
  193.7890  174.1300  142.7000 C   0  0  0  0  0  1  0  0  0  0  0  0
  1  5  1  6  0  0  0
  1  8  1  0  0  0  0
  3  4  1  1  0  0  0
  5  7  1  0  0  0  0
  6  3  1  0  0  0  0
  7 19  1  6  0  0  0
  7  6  1  0  0  0  0
  8  3  1  0  0  0  0
  8  2  1  6  0  0  0
  9  1  1  0  0  0  0
  9 11  1  1  0  0  0
 11 18  1  0  0  0  0
 12 15  1  0  0  0  0
 13 14  1  0  0  0  0
 13 11  2  0  0  0  0
 14 12  2  0  0  0  0
 16 10  1  6  0  0  0
 16 17  1  0  0  0  0
 16  9  1  0  0  0  0
 17 13  1  0  0  0  0
 18 15  2  0  0  0  0
 20 19  1  0  0  0  0
 20 24  1  0  0  0  0
 21 23  2  0  0  0  0
 21 22  1  0  0  0  0
 24 21  1  0  0  0  0
 25 24  1  0  0  0  0
M  END
>  <MODEL>
2

>  <REMARK>
 VINA RESULT:      -7.3      4.523      8.517
  Name = 
  4 active torsions:
  status: ('A' for Active; 'I' for Inactive)
    1  A    between atoms: C_1  and  C_3
    2  A    between atoms: C_6  and  C_15
    3  A    between atoms: C_6  and  C_23
    4  A    between atoms: C_15  and  N_21
                            x       y       z     vdW  Elec       q    Type
                         _______ _______ _______ _____ _____    ______ ____

>  <TORSDO>
F 4

$$$$
=
 OpenBabel11052417283D

 25 27  0  0  1  0  0  0  0  0999 V2000
  188.3710  176.4990  144.6650 C   0  0  1  0  0  3  0  0  0  0  0  0
  189.7690  177.1910  146.5140 O   0  0  0  0  0  1  0  0  0  0  0  0
  189.0350  174.9010  146.4490 C   0  0  2  0  0  3  0  0  0  0  0  0
  189.5180  174.7520  147.7500 O   0  0  0  0  0  1  0  0  0  0  0  0
  189.4430  176.0820  143.8510 O   0  0  0  0  0  0  0  0  0  0  0  0
  190.0510  174.3630  145.4450 C   0  0  0  0  0  2  0  0  0  0  0  0
  189.5720  174.6900  144.0260 C   0  0  2  0  0  3  0  0  0  0  0  0
  188.6970  176.3670  146.1600 C   0  0  2  0  0  3  0  0  0  0  0  0
  187.8070  177.8750  144.2680 C   0  0  2  0  0  3  0  0  0  0  0  0
  187.6390  176.9830  141.7990 C   0  0  0  0  0  1  0  0  0  0  0  0
  186.5500  178.1540  145.0130 C   0  0  0  0  0  0  0  0  0  0  0  0
  184.0200  178.7680  145.9790 C   0  0  0  0  0  3  0  0  0  0  0  0
  185.5390  178.4620  144.1450 C   0  0  0  0  0  0  0  0  0  0  0  0
  184.2570  178.7720  144.5950 C   0  0  0  0  0  3  0  0  0  0  0  0
  185.0600  178.4600  146.8750 C   0  0  0  0  0  3  0  0  0  0  0  0
  187.3820  178.1160  142.7790 C   0  0  1  0  0  3  0  0  0  0  0  0
  185.9560  178.4380  142.7960 N   0  0  0  0  0  2  0  0  0  0  0  0
  186.3430  178.1530  146.3950 C   0  0  0  0  0  3  0  0  0  0  0  0
  190.5160  174.1080  142.9810 C   0  0  0  0  0  2  0  0  0  0  0  0
  190.0930  174.4800  141.5640 C   0  0  0  0  0  2  0  0  0  0  0  0
  188.6090  173.4760  139.7910 C   0  0  0  0  0  0  0  0  0  0  0  0
  188.0570  172.3570  139.1790 O   0  0  0  0  0  0  0  0  0  0  0  0
  188.3000  174.6240  139.3720 O   0  0  0  0  0  1  0  0  0  0  0  0
  189.5170  173.3240  140.8910 N   0  0  0  0  0  0  0  0  0  0  0  0
  189.7960  172.0040  141.4290 C   0  0  0  0  0  1  0  0  0  0  0  0
  1  5  1  6  0  0  0
  1  8  1  0  0  0  0
  3  4  1  1  0  0  0
  5  7  1  0  0  0  0
  6  3  1  0  0  0  0
  7 19  1  6  0  0  0
  7  6  1  0  0  0  0
  8  3  1  0  0  0  0
  8  2  1  6  0  0  0
  9  1  1  0  0  0  0
  9 11  1  1  0  0  0
 11 18  1  0  0  0  0
 12 15  1  0  0  0  0
 13 14  1  0  0  0  0
 13 11  2  0  0  0  0
 14 12  2  0  0  0  0
 16 10  1  6  0  0  0
 16 17  1  0  0  0  0
 16  9  1  0  0  0  0
 17 13  1  0  0  0  0
 18 15  2  0  0  0  0
 20 19  1  0  0  0  0
 21 24  1  0  0  0  0
 22 21  2  0  0  0  0
 23 21  1  0  0  0  0
 24 25  1  0  0  0  0
 24 20  1  0  0  0  0
M  END
>  <MODEL>
3

>  <REMARK>
 VINA RESULT:      -7.3      4.357      7.330
  Name = 
  4 active torsions:
  status: ('A' for Active; 'I' for Inactive)
    1  A    between atoms: C_1  and  C_3
    2  A    between atoms: C_6  and  C_15
    3  A    between atoms: C_6  and  C_23
    4  A    between atoms: C_15  and  N_21
                            x       y       z     vdW  Elec       q    Type
                         _______ _______ _______ _____ _____    ______ ____

>  <TORSDO>
F 4

$$$$
=
 OpenBabel11052417283D

 25 27  0  0  1  0  0  0  0  0999 V2000
  188.1270  177.2480  142.0800 C   0  0  1  0  0  3  0  0  0  0  0  0
  186.6070  175.6070  143.0020 O   0  0  0  0  0  1  0  0  0  0  0  0
  188.6150  174.8150  141.9410 C   0  0  2  0  0  3  0  0  0  0  0  0
  188.0930  173.5230  142.0090 O   0  0  0  0  0  1  0  0  0  0  0  0
  188.9030  177.3670  143.2510 O   0  0  0  0  0  0  0  0  0  0  0  0
  189.5910  175.0500  143.0910 C   0  0  0  0  0  2  0  0  0  0  0  0
  190.0190  176.5220  143.0890 C   0  0  2  0  0  3  0  0  0  0  0  0
  187.4910  175.8550  141.9490 C   0  0  2  0  0  3  0  0  0  0  0  0
  187.1330  178.4080  141.8900 C   0  0  2  0  0  3  0  0  0  0  0  0
  186.2490  177.1650  139.7460 C   0  0  0  0  0  1  0  0  0  0  0  0
  186.2350  178.5180  143.0710 C   0  0  0  0  0  0  0  0  0  0  0  0
  184.2090  178.7190  144.9590 C   0  0  0  0  0  3  0  0  0  0  0  0
  184.9250  178.4850  142.6800 C   0  0  0  0  0  0  0  0  0  0  0  0
  183.8820  178.5800  143.6010 C   0  0  0  0  0  3  0  0  0  0  0  0
  185.5550  178.7630  145.3650 C   0  0  0  0  0  3  0  0  0  0  0  0
  186.1200  178.3450  140.6970 C   0  0  1  0  0  3  0  0  0  0  0  0
  184.7800  178.3610  141.2810 N   0  0  0  0  0  2  0  0  0  0  0  0
  186.5860  178.6660  144.4150 C   0  0  0  0  0  3  0  0  0  0  0  0
  191.0530  176.7940  144.1750 C   0  0  0  0  0  2  0  0  0  0  0  0
  190.3990  177.1810  145.4970 C   0  0  0  0  0  2  0  0  0  0  0  0
  189.0130  175.5180  146.7860 C   0  0  0  0  0  0  0  0  0  0  0  0
  188.9370  174.4160  147.6310 O   0  0  0  0  0  1  0  0  0  0  0  0
  187.9510  176.0730  146.4000 O   0  0  0  0  0  0  0  0  0  0  0  0
  190.2900  176.0170  146.3640 N   0  0  0  0  0  0  0  0  0  0  0  0
  191.5120  175.4300  146.8870 C   0  0  0  0  0  1  0  0  0  0  0  0
  1  5  1  1  0  0  0
  3  8  1  0  0  0  0
  3  4  1  1  0  0  0
  3  6  1  0  0  0  0
  7  6  1  0  0  0  0
  7  5  1  0  0  0  0
  7 19  1  1  0  0  0
  8  1  1  0  0  0  0
  8  2  1  1  0  0  0
  9  1  1  0  0  0  0
  9 11  1  1  0  0  0
 11 18  1  0  0  0  0
 12 15  1  0  0  0  0
 13 11  2  0  0  0  0
 13 14  1  0  0  0  0
 14 12  2  0  0  0  0
 16 10  1  1  0  0  0
 16 17  1  0  0  0  0
 16  9  1  0  0  0  0
 17 13  1  0  0  0  0
 18 15  2  0  0  0  0
 19 20  1  0  0  0  0
 20 24  1  0  0  0  0
 21 22  1  0  0  0  0
 23 21  2  0  0  0  0
 24 21  1  0  0  0  0
 24 25  1  0  0  0  0
M  END
>  <MODEL>
4

>  <REMARK>
 VINA RESULT:      -7.1      3.567      7.337
  Name = 
  4 active torsions:
  status: ('A' for Active; 'I' for Inactive)
    1  A    between atoms: C_1  and  C_3
    2  A    between atoms: C_6  and  C_15
    3  A    between atoms: C_6  and  C_23
    4  A    between atoms: C_15  and  N_21
                            x       y       z     vdW  Elec       q    Type
                         _______ _______ _______ _____ _____    ______ ____

>  <TORSDO>
F 4

$$$$
=
 OpenBabel11052417283D

 25 27  0  0  1  0  0  0  0  0999 V2000
  187.7990  176.6880  143.6570 C   0  0  1  0  0  3  0  0  0  0  0  0
  190.0070  177.2640  144.4620 O   0  0  0  0  0  1  0  0  0  0  0  0
  189.3220  174.9620  144.5940 C   0  0  2  0  0  3  0  0  0  0  0  0
  190.4490  174.7140  145.3790 O   0  0  0  0  0  1  0  0  0  0  0  0
  188.2210  176.3900  142.3460 O   0  0  0  0  0  0  0  0  0  0  0  0
  189.5880  174.5590  143.1460 C   0  0  0  0  0  2  0  0  0  0  0  0
  188.4010  174.9950  142.2810 C   0  0  2  0  0  3  0  0  0  0  0  0
  188.9070  176.4330  144.6910 C   0  0  2  0  0  3  0  0  0  0  0  0
  187.1360  178.0710  143.7830 C   0  0  2  0  0  3  0  0  0  0  0  0
  185.9280  177.5880  141.4950 C   0  0  0  0  0  1  0  0  0  0  0  0
  186.3140  178.1410  145.0210 C   0  0  0  0  0  0  0  0  0  0  0  0
  184.4380  178.4220  147.0480 C   0  0  0  0  0  3  0  0  0  0  0  0
  185.0350  178.5210  144.7250 C   0  0  0  0  0  0  0  0  0  0  0  0
  184.0660  178.6690  145.7170 C   0  0  0  0  0  3  0  0  0  0  0  0
  185.7560  178.0390  147.3580 C   0  0  0  0  0  3  0  0  0  0  0  0
  186.1230  178.5250  142.6760 C   0  0  1  0  0  3  0  0  0  0  0  0
  184.8420  178.7460  143.3450 N   0  0  0  0  0  2  0  0  0  0  0  0
  186.7120  177.8990  146.3390 C   0  0  0  0  0  3  0  0  0  0  0  0
  188.5830  174.5490  140.8350 C   0  0  0  0  0  2  0  0  0  0  0  0
  188.4090  173.0420  140.6790 C   0  0  0  0  0  2  0  0  0  0  0  0
  190.4130  171.5280  140.8900 C   0  0  0  0  0  0  0  0  0  0  0  0
  191.5760  170.9920  140.3490 O   0  0  0  0  0  0  0  0  0  0  0  0
  190.0650  171.1970  142.0550 O   0  0  0  0  0  1  0  0  0  0  0  0
  189.6200  172.4500  140.1290 N   0  0  0  0  0  0  0  0  0  0  0  0
  190.0750  172.8990  138.8240 C   0  0  0  0  0  1  0  0  0  0  0  0
  1  5  1  6  0  0  0
  1  9  1  0  0  0  0
  1  8  1  0  0  0  0
  3  8  1  0  0  0  0
  3  4  1  1  0  0  0
  6  3  1  0  0  0  0
  7 19  1  6  0  0  0
  7  5  1  0  0  0  0
  7  6  1  0  0  0  0
  8  2  1  6  0  0  0
  9 11  1  1  0  0  0
 11 18  1  0  0  0  0
 12 15  1  0  0  0  0
 13 11  2  0  0  0  0
 13 14  1  0  0  0  0
 14 12  2  0  0  0  0
 16 10  1  6  0  0  0
 16 17  1  0  0  0  0
 16  9  1  0  0  0  0
 17 13  1  0  0  0  0
 18 15  2  0  0  0  0
 20 19  1  0  0  0  0
 21 23  1  0  0  0  0
 22 21  2  0  0  0  0
 24 20  1  0  0  0  0
 24 21  1  0  0  0  0
 25 24  1  0  0  0  0
M  END
>  <MODEL>
5

>  <REMARK>
 VINA RESULT:      -6.9      4.190      7.440
  Name = 
  4 active torsions:
  status: ('A' for Active; 'I' for Inactive)
    1  A    between atoms: C_1  and  C_3
    2  A    between atoms: C_6  and  C_15
    3  A    between atoms: C_6  and  C_23
    4  A    between atoms: C_15  and  N_21
                            x       y       z     vdW  Elec       q    Type
                         _______ _______ _______ _____ _____    ______ ____

>  <TORSDO>
F 4

$$$$
=
 OpenBabel11052417283D

 25 27  0  0  1  0  0  0  0  0999 V2000
  188.3840  176.5710  144.6060 C   0  0  1  0  0  3  0  0  0  0  0  0
  189.8180  177.3310  146.4000 O   0  0  0  0  0  1  0  0  0  0  0  0
  189.1880  175.0090  146.3640 C   0  0  2  0  0  3  0  0  0  0  0  0
  189.7270  174.8850  147.6450 O   0  0  0  0  0  1  0  0  0  0  0  0
  189.4420  176.2020  143.7510 O   0  0  0  0  0  0  0  0  0  0  0  0
  190.1890  174.5160  145.3220 C   0  0  0  0  0  2  0  0  0  0  0  0
  189.6410  174.8170  143.9220 C   0  0  2  0  0  3  0  0  0  0  0  0
  188.7720  176.4570  146.0880 C   0  0  2  0  0  3  0  0  0  0  0  0
  187.7430  177.9200  144.2310 C   0  0  2  0  0  3  0  0  0  0  0  0
  187.4870  177.0010  141.7780 C   0  0  0  0  0  1  0  0  0  0  0  0
  186.5140  178.1510  145.0380 C   0  0  0  0  0  0  0  0  0  0  0  0
  184.0130  178.6660  146.1280 C   0  0  0  0  0  3  0  0  0  0  0  0
  185.4490  178.4100  144.2210 C   0  0  0  0  0  0  0  0  0  0  0  0
  184.1780  178.6690  144.7340 C   0  0  0  0  0  3  0  0  0  0  0  0
  185.1100  178.4090  146.9720 C   0  0  0  0  0  3  0  0  0  0  0  0
  187.2330  178.1300  142.7650 C   0  0  1  0  0  3  0  0  0  0  0  0
  185.7970  178.3920  142.8530 N   0  0  0  0  0  2  0  0  0  0  0  0
  186.3790  178.1520  146.4280 C   0  0  0  0  0  3  0  0  0  0  0  0
  190.5700  174.2770  142.8420 C   0  0  0  0  0  2  0  0  0  0  0  0
  191.9940  174.0960  143.3560 C   0  0  0  0  0  2  0  0  0  0  0  0
  193.6400  175.0250  141.6890 C   0  0  0  0  0  0  0  0  0  0  0  0
  194.4580  176.0630  141.2600 O   0  0  0  0  0  1  0  0  0  0  0  0
  193.6070  173.9520  141.0290 O   0  0  0  0  0  0  0  0  0  0  0  0
  192.8440  175.1740  142.8730 N   0  0  0  0  0  0  0  0  0  0  0  0
  192.9560  176.3780  143.6800 C   0  0  0  0  0  1  0  0  0  0  0  0
  1  5  1  6  0  0  0
  1  8  1  0  0  0  0
  3  4  1  1  0  0  0
  5  7  1  0  0  0  0
  6  3  1  0  0  0  0
  7 19  1  6  0  0  0
  7  6  1  0  0  0  0
  8  3  1  0  0  0  0
  8  2  1  6  0  0  0
  9  1  1  0  0  0  0
  9 11  1  1  0  0  0
 11 18  1  0  0  0  0
 12 15  1  0  0  0  0
 13 14  1  0  0  0  0
 13 11  2  0  0  0  0
 14 12  2  0  0  0  0
 16 10  1  6  0  0  0
 16 17  1  0  0  0  0
 16  9  1  0  0  0  0
 17 13  1  0  0  0  0
 18 15  2  0  0  0  0
 19 20  1  0  0  0  0
 21 24  1  0  0  0  0
 22 21  1  0  0  0  0
 23 21  2  0  0  0  0
 24 20  1  0  0  0  0
 24 25  1  0  0  0  0
M  END
>  <MODEL>
6

>  <REMARK>
 VINA RESULT:      -6.9      4.506      8.528
  Name = 
  4 active torsions:
  status: ('A' for Active; 'I' for Inactive)
    1  A    between atoms: C_1  and  C_3
    2  A    between atoms: C_6  and  C_15
    3  A    between atoms: C_6  and  C_23
    4  A    between atoms: C_15  and  N_21
                            x       y       z     vdW  Elec       q    Type
                         _______ _______ _______ _____ _____    ______ ____

>  <TORSDO>
F 4

$$$$
=
 OpenBabel11052417283D

 25 27  0  0  1  0  0  0  0  0999 V2000
  189.7070  176.2910  145.3440 C   0  0  1  0  0  3  0  0  0  0  0  0
  191.8810  177.0550  144.6060 O   0  0  0  0  0  1  0  0  0  0  0  0
  191.7990  175.3130  146.2630 C   0  0  2  0  0  3  0  0  0  0  0  0
  193.1720  175.4780  146.4460 O   0  0  0  0  0  1  0  0  0  0  0  0
  189.6090  175.2600  144.3890 O   0  0  0  0  0  0  0  0  0  0  0  0
  191.5280  174.1280  145.3390 C   0  0  0  0  0  2  0  0  0  0  0  0
  190.0290  174.0740  145.0240 C   0  0  2  0  0  3  0  0  0  0  0  0
  191.1660  176.5960  145.7160 C   0  0  2  0  0  3  0  0  0  0  0  0
  188.8840  177.5390  144.9770 C   0  0  2  0  0  3  0  0  0  0  0  0
  189.2330  176.9010  142.4480 C   0  0  0  0  0  1  0  0  0  0  0  0
  187.5150  177.4440  145.5530 C   0  0  0  0  0  0  0  0  0  0  0  0
  184.8140  177.3630  146.1910 C   0  0  0  0  0  3  0  0  0  0  0  0
  186.5730  177.6070  144.5760 C   0  0  0  0  0  0  0  0  0  0  0  0
  185.2090  177.5690  144.8600 C   0  0  0  0  0  3  0  0  0  0  0  0
  185.7810  177.2050  147.2020 C   0  0  0  0  0  3  0  0  0  0  0  0
  188.5970  177.8350  143.4650 C   0  0  1  0  0  3  0  0  0  0  0  0
  187.1440  177.8220  143.3020 N   0  0  0  0  0  2  0  0  0  0  0  0
  187.1490  177.2490  146.8870 C   0  0  0  0  0  3  0  0  0  0  0  0
  189.6940  172.8630  144.1620 C   0  0  0  0  0  2  0  0  0  0  0  0
  189.0160  173.2640  142.8570 C   0  0  0  0  0  2  0  0  0  0  0  0
  189.0900  172.6710  140.4090 C   0  0  0  0  0  0  0  0  0  0  0  0
  189.5440  171.8450  139.3870 O   0  0  0  0  0  0  0  0  0  0  0  0
  188.3210  173.6300  140.1330 O   0  0  0  0  0  1  0  0  0  0  0  0
  189.4920  172.4290  141.7650 N   0  0  0  0  0  0  0  0  0  0  0  0
  190.3030  171.2670  142.0890 C   0  0  0  0  0  1  0  0  0  0  0  0
  1  5  1  6  0  0  0
  1  8  1  0  0  0  0
  3  4  1  6  0  0  0
  5  7  1  0  0  0  0
  6  3  1  0  0  0  0
  7 19  1  6  0  0  0
  7  6  1  0  0  0  0
  8  2  1  6  0  0  0
  8  3  1  0  0  0  0
  9  1  1  0  0  0  0
  9 11  1  1  0  0  0
 11 18  1  0  0  0  0
 12 15  1  0  0  0  0
 13 14  1  0  0  0  0
 13 11  2  0  0  0  0
 14 12  2  0  0  0  0
 16 10  1  6  0  0  0
 16  9  1  0  0  0  0
 17 16  1  0  0  0  0
 17 13  1  0  0  0  0
 18 15  2  0  0  0  0
 20 19  1  0  0  0  0
 21 24  1  0  0  0  0
 22 21  2  0  0  0  0
 23 21  1  0  0  0  0
 24 25  1  0  0  0  0
 24 20  1  0  0  0  0
M  END
>  <MODEL>
7

>  <REMARK>
 VINA RESULT:      -6.9      4.845      7.743
  Name = 
  4 active torsions:
  status: ('A' for Active; 'I' for Inactive)
    1  A    between atoms: C_1  and  C_3
    2  A    between atoms: C_6  and  C_15
    3  A    between atoms: C_6  and  C_23
    4  A    between atoms: C_15  and  N_21
                            x       y       z     vdW  Elec       q    Type
                         _______ _______ _______ _____ _____    ______ ____

>  <TORSDO>
F 4

$$$$
=
 OpenBabel11052417283D

 25 27  0  0  1  0  0  0  0  0999 V2000
  188.0140  176.2800  142.4140 C   0  0  1  0  0  3  0  0  0  0  0  0
  188.3110  178.3420  141.1820 O   0  0  0  0  0  1  0  0  0  0  0  0
  186.1270  177.3340  141.1880 C   0  0  2  0  0  3  0  0  0  0  0  0
  185.7520  178.2380  140.1930 O   0  0  0  0  0  1  0  0  0  0  0  0
  187.6260  176.9090  143.6130 O   0  0  0  0  0  0  0  0  0  0  0  0
  185.6510  177.8250  142.5530 C   0  0  0  0  0  2  0  0  0  0  0  0
  186.2170  176.9050  143.6400 C   0  0  2  0  0  3  0  0  0  0  0  0
  187.6420  177.1140  141.1780 C   0  0  2  0  0  3  0  0  0  0  0  0
  189.4770  175.8010  142.4250 C   0  0  2  0  0  3  0  0  0  0  0  0
  190.0580  177.9330  143.8550 C   0  0  0  0  0  1  0  0  0  0  0  0
  189.5790  174.4630  143.0670 C   0  0  0  0  0  0  0  0  0  0  0  0
  190.1050  172.1630  144.5300 C   0  0  0  0  0  3  0  0  0  0  0  0
  190.4940  174.4890  144.0830 C   0  0  0  0  0  0  0  0  0  0  0  0
  190.7810  173.3540  144.8400 C   0  0  0  0  0  3  0  0  0  0  0  0
  189.1700  172.1300  143.4790 C   0  0  0  0  0  3  0  0  0  0  0  0
  190.5390  176.6400  143.2160 C   0  0  1  0  0  3  0  0  0  0  0  0
  191.0900  175.7590  144.2440 N   0  0  0  0  0  2  0  0  0  0  0  0
  188.9020  173.2880  142.7320 C   0  0  0  0  0  3  0  0  0  0  0  0
  185.7100  177.3090  145.0190 C   0  0  0  0  0  2  0  0  0  0  0  0
  186.4180  176.5420  146.1310 C   0  0  0  0  0  2  0  0  0  0  0  0
  186.4220  178.4240  147.8070 C   0  0  0  0  0  0  0  0  0  0  0  0
  187.1240  179.3080  148.6190 O   0  0  0  0  0  1  0  0  0  0  0  0
  185.1640  178.4770  147.7810 O   0  0  0  0  0  0  0  0  0  0  0  0
  187.1260  177.4650  147.0060 N   0  0  0  0  0  0  0  0  0  0  0  0
  188.5790  177.4710  146.9700 C   0  0  0  0  0  1  0  0  0  0  0  0
  1  9  1  0  0  0  0
  1  5  1  1  0  0  0
  3  4  1  6  0  0  0
  3  6  1  0  0  0  0
  5  7  1  0  0  0  0
  6  7  1  0  0  0  0
  7 19  1  1  0  0  0
  8  2  1  1  0  0  0
  8  3  1  0  0  0  0
  8  1  1  0  0  0  0
  9 11  1  1  0  0  0
  9 16  1  0  0  0  0
 11 13  1  0  0  0  0
 12 14  1  0  0  0  0
 13 17  1  0  0  0  0
 13 14  2  0  0  0  0
 15 12  2  0  0  0  0
 16 10  1  1  0  0  0
 16 17  1  0  0  0  0
 18 11  2  0  0  0  0
 18 15  1  0  0  0  0
 19 20  1  0  0  0  0
 20 24  1  0  0  0  0
 21 22  1  0  0  0  0
 23 21  2  0  0  0  0
 24 21  1  0  0  0  0
 25 24  1  0  0  0  0
M  END
>  <MODEL>
8

>  <REMARK>
 VINA RESULT:      -6.8      3.831      5.805
  Name = 
  4 active torsions:
  status: ('A' for Active; 'I' for Inactive)
    1  A    between atoms: C_1  and  C_3
    2  A    between atoms: C_6  and  C_15
    3  A    between atoms: C_6  and  C_23
    4  A    between atoms: C_15  and  N_21
                            x       y       z     vdW  Elec       q    Type
                         _______ _______ _______ _____ _____    ______ ____

>  <TORSDO>
F 4

$$$$
=
 OpenBabel11052417283D

 25 27  0  0  1  0  0  0  0  0999 V2000
  189.8090  174.4710  142.9650 C   0  0  1  0  0  3  0  0  0  0  0  0
  190.6610  173.4980  140.9200 O   0  0  0  0  0  1  0  0  0  0  0  0
  188.2760  173.6900  141.1720 C   0  0  2  0  0  3  0  0  0  0  0  0
  188.1330  172.8920  140.0360 O   0  0  0  0  0  1  0  0  0  0  0  0
  189.7700  175.7880  142.4660 O   0  0  0  0  0  0  0  0  0  0  0  0
  188.1240  175.1640  140.8030 C   0  0  0  0  0  2  0  0  0  0  0  0
  188.4500  176.0210  142.0310 C   0  0  2  0  0  3  0  0  0  0  0  0
  189.6220  173.4270  141.8530 C   0  0  2  0  0  3  0  0  0  0  0  0
  191.0220  174.2020  143.8750 C   0  0  2  0  0  3  0  0  0  0  0  0
  192.4300  175.7600  142.2890 C   0  0  0  0  0  1  0  0  0  0  0  0
  190.7410  174.6630  145.2610 C   0  0  0  0  0  0  0  0  0  0  0  0
  190.6270  175.7540  147.8120 C   0  0  0  0  0  3  0  0  0  0  0  0
  191.7170  175.5220  145.6860 C   0  0  0  0  0  0  0  0  0  0  0  0
  191.6890  176.0910  146.9580 C   0  0  0  0  0  3  0  0  0  0  0  0
  189.6260  174.8630  147.3820 C   0  0  0  0  0  3  0  0  0  0  0  0
  192.3810  174.9110  143.5490 C   0  0  1  0  0  3  0  0  0  0  0  0
  192.7150  175.7340  144.7090 N   0  0  0  0  0  2  0  0  0  0  0  0
  189.6790  174.3040  146.0950 C   0  0  0  0  0  3  0  0  0  0  0  0
  188.2410  177.5020  141.7370 C   0  0  0  0  0  2  0  0  0  0  0  0
  187.1830  178.1170  142.6470 C   0  0  0  0  0  2  0  0  0  0  0  0
  184.6660  178.0340  142.7290 C   0  0  0  0  0  0  0  0  0  0  0  0
  183.4420  178.0170  142.0690 O   0  0  0  0  0  0  0  0  0  0  0  0
  184.6890  177.9700  143.9870 O   0  0  0  0  0  1  0  0  0  0  0  0
  185.8880  178.1190  141.9830 N   0  0  0  0  0  0  0  0  0  0  0  0
  185.8580  178.0980  140.5300 C   0  0  0  0  0  1  0  0  0  0  0  0
  1  5  1  6  0  0  0
  1  9  1  0  0  0  0
  3  4  1  6  0  0  0
  3  8  1  0  0  0  0
  6  3  1  0  0  0  0
  6  7  1  0  0  0  0
  7 19  1  6  0  0  0
  7  5  1  0  0  0  0
  8  2  1  6  0  0  0
  8  1  1  0  0  0  0
  9 11  1  1  0  0  0
 11 13  2  0  0  0  0
 11 18  1  0  0  0  0
 13 14  1  0  0  0  0
 14 12  2  0  0  0  0
 15 12  1  0  0  0  0
 16 10  1  6  0  0  0
 16  9  1  0  0  0  0
 16 17  1  0  0  0  0
 17 13  1  0  0  0  0
 18 15  2  0  0  0  0
 19 20  1  0  0  0  0
 21 23  1  0  0  0  0
 22 21  2  0  0  0  0
 24 20  1  0  0  0  0
 24 21  1  0  0  0  0
 25 24  1  0  0  0  0
M  END
>  <MODEL>
9

>  <REMARK>
 VINA RESULT:      -6.7      3.403      5.628
  Name = 
  4 active torsions:
  status: ('A' for Active; 'I' for Inactive)
    1  A    between atoms: C_1  and  C_3
    2  A    between atoms: C_6  and  C_15
    3  A    between atoms: C_6  and  C_23
    4  A    between atoms: C_15  and  N_21
                            x       y       z     vdW  Elec       q    Type
                         _______ _______ _______ _____ _____    ______ ____

>  <TORSDO>
F 4

$$$$
