=
 OpenBabel11052419223D

 32 33  0  0  1  0  0  0  0  0999 V2000
  189.5590  172.6440  140.9880 C   0  0  0  0  0  0  0  0  0  0  0  0
  189.6250  171.9670  139.9300 O   0  0  0  0  0  0  0  0  0  0  0  0
  189.3780  174.0530  143.4120 C   0  0  0  0  0  3  0  0  0  0  0  0
  188.6590  173.8470  141.0410 C   0  0  0  0  0  2  0  0  0  0  0  0
  190.3010  172.9190  143.2420 C   0  0  0  0  0  0  0  0  0  0  0  0
  190.3570  172.2730  142.1180 N   0  0  0  0  0  0  0  0  0  0  0  0
  188.5950  174.4670  142.4130 C   0  0  0  0  0  0  0  0  0  0  0  0
  191.1420  172.4710  144.3880 C   0  0  0  0  0  2  0  0  0  0  0  0
  193.7050  171.8500  143.8330 O   0  0  0  0  0  0  0  0  0  0  0  0
  192.8920  174.0330  143.0790 O   0  0  0  0  0  0  0  0  0  0  0  0
  192.8300  173.0190  144.1900 S   0  0  0  0  0  0  0  0  0  0  0  0
  193.4000  173.7290  145.6640 N   0  0  0  0  0  2  0  0  0  0  0  0
  193.3100  175.1810  145.5250 C   0  0  2  0  0  3  0  0  0  0  0  0
  194.3320  175.8930  146.4070 C   0  0  0  0  0  2  0  0  0  0  0  0
  194.3990  177.2430  146.0620 O   0  0  0  0  0  1  0  0  0  0  0  0
  191.9910  175.6510  145.7230 O   0  0  0  0  0  0  0  0  0  0  0  0
  191.5740  175.3150  147.0220 C   0  0  0  0  0  3  0  0  0  0  0  0
  190.5990  176.3620  147.5200 C   0  0  0  0  0  2  0  0  0  0  0  0
  190.0850  175.0350  147.0090 C   0  0  0  0  0  2  0  0  0  0  0  0
  187.6650  175.6180  142.6330 C   0  0  0  0  0  2  0  0  0  0  0  0
  188.2470  176.9560  142.1710 C   0  0  1  0  0  3  0  0  0  0  0  0
  187.6080  177.3940  141.0040 O   0  0  0  0  0  0  0  0  0  0  0  0
  186.3490  177.0350  141.1510 O   0  0  0  0  0  0  0  0  0  0  0  0
  185.6130  178.0540  140.5430 C   0  0  0  0  0  2  0  0  0  0  0  0
  184.5070  177.9700  142.7530 C   0  0  0  0  0  1  0  0  0  0  0  0
  184.3010  178.2360  141.2760 C   0  0  0  0  0  2  0  0  0  0  0  0
  188.1480  178.0140  143.2620 C   0  0  0  0  0  2  0  0  0  0  0  0
  188.3990  177.3970  144.6260 C   0  0  0  0  0  2  0  0  0  0  0  0
  187.3450  177.8610  145.6150 C   0  0  0  0  0  2  0  0  0  0  0  0
  186.7330  176.6720  146.3300 C   0  0  0  0  0  2  0  0  0  0  0  0
  184.7040  178.4390  146.7220 S   0  0  0  0  0  1  0  0  0  0  0  0
  185.2240  176.7640  146.2640 C   0  0  0  0  0  2  0  0  0  0  0  0
  1  4  1  0  0  0  0
  1  6  1  0  0  0  0
  2  1  2  0  0  0  0
  4  7  1  0  0  0  0
  5  3  1  0  0  0  0
  5  8  1  0  0  0  0
  6  5  2  0  0  0  0
  7 20  1  0  0  0  0
  7  3  2  0  0  0  0
  9 11  2  0  0  0  0
 10 11  2  0  0  0  0
 11  8  1  0  0  0  0
 11 12  1  0  0  0  0
 13 12  1  0  0  0  0
 13 16  1  0  0  0  0
 13 14  1  1  0  0  0
 15 14  1  0  0  0  0
 16 17  1  0  0  0  0
 17 18  1  0  0  0  0
 19 17  1  0  0  0  0
 19 18  1  0  0  0  0
 21 20  1  1  0  0  0
 21 27  1  0  0  0  0
 22 23  1  0  0  0  0
 22 21  1  0  0  0  0
 24 23  1  0  0  0  0
 24 26  1  0  0  0  0
 26 25  1  0  0  0  0
 27 28  1  0  0  0  0
 28 29  1  0  0  0  0
 29 30  1  0  0  0  0
 32 30  1  0  0  0  0
 32 31  1  0  0  0  0
M  END
>  <MODEL>
1

>  <REMARK>
 VINA RESULT:      -5.1      0.000      0.000
  Name = 
  18 active torsions:
  status: ('A' for Active; 'I' for Inactive)
    1  A    between atoms: C_1  and  O_30
    2  A    between atoms: N_2  and  C_5
    3  A    between atoms: N_2  and  S_27
    4  A    between atoms: C_5  and  C_14
    5  A    between atoms: C_5  and  O_30
    6  A    between atoms: C_6  and  C_17
    7  A    between atoms: C_6  and  C_31
    8  A    between atoms: C_7  and  C_26
    9  A    between atoms: C_7  and  C_31
   10  A    between atoms: O_9  and  C_31
   11  A    between atoms: O_9  and  O_32
   12  A    between atoms: C_12  and  C_28
   13  A    between atoms: C_12  and  O_32
   14  A    between atoms: C_16  and  C_20
   15  A    between atoms: C_16  and  S_27
   16  A    between atoms: C_17  and  C_29
   17  A    between atoms: C_18  and  C_25
   18  A    between atoms: C_18  and  C_29
                            x       y       z     vdW  Elec       q    Type
                         _______ _______ _______ _____ _____    ______ ____

>  <TORSDO>
F 18

$$$$
=
 OpenBabel11052419223D

 32 33  0  0  1  0  0  0  0  0999 V2000
  188.4700  173.5840  140.3310 C   0  0  0  0  0  0  0  0  0  0  0  0
  188.2480  173.0170  139.2290 O   0  0  0  0  0  0  0  0  0  0  0  0
  189.0420  174.9270  142.7310 C   0  0  0  0  0  3  0  0  0  0  0  0
  188.9830  172.7740  141.4890 C   0  0  0  0  0  2  0  0  0  0  0  0
  188.4520  175.6220  141.5760 C   0  0  0  0  0  0  0  0  0  0  0  0
  188.2100  174.9840  140.4710 N   0  0  0  0  0  0  0  0  0  0  0  0
  189.3190  173.6210  142.6880 C   0  0  0  0  0  0  0  0  0  0  0  0
  188.1790  177.0860  141.6530 C   0  0  0  0  0  2  0  0  0  0  0  0
  185.6870  177.5260  140.7260 O   0  0  0  0  0  0  0  0  0  0  0  0
  185.9010  176.2330  142.7940 O   0  0  0  0  0  0  0  0  0  0  0  0
  186.4560  177.3920  142.0110 S   0  0  0  0  0  0  0  0  0  0  0  0
  186.2920  178.8520  142.9280 N   0  0  0  0  0  2  0  0  0  0  0  0
  185.5210  178.5410  144.1300 C   0  0  2  0  0  3  0  0  0  0  0  0
  184.1170  179.1380  144.0660 C   0  0  0  0  0  2  0  0  0  0  0  0
  183.3950  178.5440  143.0320 O   0  0  0  0  0  1  0  0  0  0  0  0
  186.2150  178.8940  145.3100 O   0  0  0  0  0  0  0  0  0  0  0  0
  185.5170  178.3930  146.4210 C   0  0  0  0  0  3  0  0  0  0  0  0
  185.9020  176.9450  146.6430 C   0  0  0  0  0  2  0  0  0  0  0  0
  186.5080  178.0280  147.5080 C   0  0  0  0  0  2  0  0  0  0  0  0
  189.9280  172.9570  143.8840 C   0  0  0  0  0  2  0  0  0  0  0  0
  190.4770  173.9540  144.9080 C   0  0  1  0  0  3  0  0  0  0  0  0
  189.7070  173.9310  146.0780 O   0  0  0  0  0  0  0  0  0  0  0  0
  189.0030  175.0440  146.0430 O   0  0  0  0  0  0  0  0  0  0  0  0
  189.4740  175.7990  147.1190 C   0  0  0  0  0  2  0  0  0  0  0  0
  189.5030  177.4750  145.3030 C   0  0  0  0  0  1  0  0  0  0  0  0
  190.1560  177.0460  146.5990 C   0  0  0  0  0  2  0  0  0  0  0  0
  191.9400  173.6760  145.2260 C   0  0  0  0  0  2  0  0  0  0  0  0
  192.8410  174.2850  144.1680 C   0  0  0  0  0  2  0  0  0  0  0  0
  192.6340  175.7880  144.1030 C   0  0  0  0  0  2  0  0  0  0  0  0
  192.3830  176.2240  142.6720 C   0  0  0  0  0  2  0  0  0  0  0  0
  194.8240  176.1820  141.4740 S   0  0  0  0  0  1  0  0  0  0  0  0
  193.2190  175.3810  141.7330 C   0  0  0  0  0  2  0  0  0  0  0  0
  1  6  1  0  0  0  0
  1  4  1  0  0  0  0
  2  1  2  0  0  0  0
  4  7  1  0  0  0  0
  5  8  1  0  0  0  0
  5  3  1  0  0  0  0
  6  5  2  0  0  0  0
  7  3  2  0  0  0  0
  7 20  1  0  0  0  0
  8 11  1  0  0  0  0
  9 11  2  0  0  0  0
 11 10  2  0  0  0  0
 11 12  1  0  0  0  0
 12 13  1  0  0  0  0
 13 14  1  6  0  0  0
 13 16  1  0  0  0  0
 15 14  1  0  0  0  0
 16 17  1  0  0  0  0
 17 18  1  0  0  0  0
 17 19  1  0  0  0  0
 18 19  1  0  0  0  0
 21 20  1  6  0  0  0
 21 27  1  0  0  0  0
 21 22  1  0  0  0  0
 23 22  1  0  0  0  0
 23 24  1  0  0  0  0
 25 26  1  0  0  0  0
 26 24  1  0  0  0  0
 28 27  1  0  0  0  0
 29 28  1  0  0  0  0
 30 29  1  0  0  0  0
 31 32  1  0  0  0  0
 32 30  1  0  0  0  0
M  END
>  <MODEL>
2

>  <REMARK>
 VINA RESULT:      -5.1      2.895      6.814
  Name = 
  18 active torsions:
  status: ('A' for Active; 'I' for Inactive)
    1  A    between atoms: C_1  and  O_30
    2  A    between atoms: N_2  and  C_5
    3  A    between atoms: N_2  and  S_27
    4  A    between atoms: C_5  and  C_14
    5  A    between atoms: C_5  and  O_30
    6  A    between atoms: C_6  and  C_17
    7  A    between atoms: C_6  and  C_31
    8  A    between atoms: C_7  and  C_26
    9  A    between atoms: C_7  and  C_31
   10  A    between atoms: O_9  and  C_31
   11  A    between atoms: O_9  and  O_32
   12  A    between atoms: C_12  and  C_28
   13  A    between atoms: C_12  and  O_32
   14  A    between atoms: C_16  and  C_20
   15  A    between atoms: C_16  and  S_27
   16  A    between atoms: C_17  and  C_29
   17  A    between atoms: C_18  and  C_25
   18  A    between atoms: C_18  and  C_29
                            x       y       z     vdW  Elec       q    Type
                         _______ _______ _______ _____ _____    ______ ____

>  <TORSDO>
F 18

$$$$
=
 OpenBabel11052419223D

 32 33  0  0  1  0  0  0  0  0999 V2000
  185.9430  177.8580  146.9260 C   0  0  0  0  0  0  0  0  0  0  0  0
  185.0960  178.3550  147.7120 O   0  0  0  0  0  0  0  0  0  0  0  0
  187.8980  176.8530  145.1760 C   0  0  0  0  0  3  0  0  0  0  0  0
  185.4930  177.3230  145.5960 C   0  0  0  0  0  2  0  0  0  0  0  0
  188.2350  177.3140  146.5330 C   0  0  0  0  0  0  0  0  0  0  0  0
  187.3180  177.7880  147.3190 N   0  0  0  0  0  0  0  0  0  0  0  0
  186.6410  176.8840  144.7250 C   0  0  0  0  0  0  0  0  0  0  0  0
  189.6530  177.2870  146.9920 C   0  0  0  0  0  2  0  0  0  0  0  0
  191.2440  175.4950  148.2250 O   0  0  0  0  0  0  0  0  0  0  0  0
  189.0980  174.6860  147.3700 O   0  0  0  0  0  0  0  0  0  0  0  0
  190.2550  175.6090  147.0990 S   0  0  0  0  0  0  0  0  0  0  0  0
  191.0270  175.1610  145.6140 N   0  0  0  0  0  2  0  0  0  0  0  0
  191.4760  176.3870  144.9570 C   0  0  2  0  0  3  0  0  0  0  0  0
  191.3040  176.3050  143.4420 C   0  0  0  0  0  2  0  0  0  0  0  0
  191.2010  174.9720  143.0460 O   0  0  0  0  0  1  0  0  0  0  0  0
  192.7890  176.7430  145.3420 O   0  0  0  0  0  0  0  0  0  0  0  0
  193.6040  175.6000  145.3100 C   0  0  0  0  0  3  0  0  0  0  0  0
  195.0090  175.9980  144.9090 C   0  0  0  0  0  2  0  0  0  0  0  0
  194.6870  175.7310  146.3620 C   0  0  0  0  0  2  0  0  0  0  0  0
  186.3450  176.4150  143.3350 C   0  0  0  0  0  2  0  0  0  0  0  0
  187.5770  176.4190  142.4260 C   0  0  1  0  0  3  0  0  0  0  0  0
  187.6350  175.2400  141.6710 O   0  0  0  0  0  0  0  0  0  0  0  0
  188.1390  174.3380  142.4880 O   0  0  0  0  0  0  0  0  0  0  0  0
  187.9610  173.1200  141.8300 C   0  0  0  0  0  2  0  0  0  0  0  0
  189.7630  171.5590  142.4810 C   0  0  0  0  0  1  0  0  0  0  0  0
  189.3100  172.5560  141.4370 C   0  0  0  0  0  2  0  0  0  0  0  0
  187.5910  177.6370  141.5130 C   0  0  0  0  0  2  0  0  0  0  0  0
  186.2430  178.3340  141.5340 C   0  0  0  0  0  2  0  0  0  0  0  0
  185.3890  177.8640  140.3700 C   0  0  0  0  0  2  0  0  0  0  0  0
  184.0500  178.5760  140.3760 C   0  0  0  0  0  2  0  0  0  0  0  0
  181.4860  178.3050  141.2370 S   0  0  0  0  0  1  0  0  0  0  0  0
  183.2570  178.1500  141.5920 C   0  0  0  0  0  2  0  0  0  0  0  0
  1  6  1  0  0  0  0
  1  2  2  0  0  0  0
  3  5  1  0  0  0  0
  4  1  1  0  0  0  0
  5  8  1  0  0  0  0
  5  6  2  0  0  0  0
  7  3  2  0  0  0  0
  7  4  1  0  0  0  0
  8 11  1  0  0  0  0
 11 10  2  0  0  0  0
 11  9  2  0  0  0  0
 12 11  1  0  0  0  0
 13 14  1  6  0  0  0
 13 16  1  0  0  0  0
 13 12  1  0  0  0  0
 15 14  1  0  0  0  0
 17 16  1  0  0  0  0
 17 19  1  0  0  0  0
 18 17  1  0  0  0  0
 18 19  1  0  0  0  0
 20  7  1  0  0  0  0
 21 27  1  6  0  0  0
 21 20  1  0  0  0  0
 22 21  1  0  0  0  0
 22 23  1  0  0  0  0
 24 23  1  0  0  0  0
 26 24  1  0  0  0  0
 26 25  1  0  0  0  0
 27 28  1  0  0  0  0
 29 30  1  0  0  0  0
 29 28  1  0  0  0  0
 30 32  1  0  0  0  0
 31 32  1  0  0  0  0
M  END
>  <MODEL>
3

>  <REMARK>
 VINA RESULT:      -5.1      2.820      5.453
  Name = 
  18 active torsions:
  status: ('A' for Active; 'I' for Inactive)
    1  A    between atoms: C_1  and  O_30
    2  A    between atoms: N_2  and  C_5
    3  A    between atoms: N_2  and  S_27
    4  A    between atoms: C_5  and  C_14
    5  A    between atoms: C_5  and  O_30
    6  A    between atoms: C_6  and  C_17
    7  A    between atoms: C_6  and  C_31
    8  A    between atoms: C_7  and  C_26
    9  A    between atoms: C_7  and  C_31
   10  A    between atoms: O_9  and  C_31
   11  A    between atoms: O_9  and  O_32
   12  A    between atoms: C_12  and  C_28
   13  A    between atoms: C_12  and  O_32
   14  A    between atoms: C_16  and  C_20
   15  A    between atoms: C_16  and  S_27
   16  A    between atoms: C_17  and  C_29
   17  A    between atoms: C_18  and  C_25
   18  A    between atoms: C_18  and  C_29
                            x       y       z     vdW  Elec       q    Type
                         _______ _______ _______ _____ _____    ______ ____

>  <TORSDO>
F 18

$$$$
=
 OpenBabel11052419223D

 32 33  0  0  1  0  0  0  0  0999 V2000
  190.4550  176.2950  147.0810 C   0  0  0  0  0  0  0  0  0  0  0  0
  191.1560  176.6170  148.0750 O   0  0  0  0  0  0  0  0  0  0  0  0
  188.9930  175.5420  144.8030 C   0  0  0  0  0  3  0  0  0  0  0  0
  189.5420  177.3140  146.4580 C   0  0  0  0  0  2  0  0  0  0  0  0
  189.8420  174.5840  145.5310 C   0  0  0  0  0  0  0  0  0  0  0  0
  190.5200  174.9580  146.5720 N   0  0  0  0  0  0  0  0  0  0  0  0
  188.8750  176.8100  145.2050 C   0  0  0  0  0  0  0  0  0  0  0  0
  189.9680  173.1830  145.0370 C   0  0  0  0  0  2  0  0  0  0  0  0
  191.2170  171.8880  143.0310 O   0  0  0  0  0  0  0  0  0  0  0  0
  191.6800  174.2790  143.2800 O   0  0  0  0  0  0  0  0  0  0  0  0
  191.4280  172.9960  144.0250 S   0  0  0  0  0  0  0  0  0  0  0  0
  192.7940  172.6170  145.0200 N   0  0  0  0  0  2  0  0  0  0  0  0
  193.8070  173.6470  144.7990 C   0  0  2  0  0  3  0  0  0  0  0  0
  195.1770  173.0350  144.5190 C   0  0  0  0  0  2  0  0  0  0  0  0
  195.7010  172.4860  145.6880 O   0  0  0  0  0  1  0  0  0  0  0  0
  193.8340  174.5960  145.8470 O   0  0  0  0  0  0  0  0  0  0  0  0
  194.4660  175.7650  145.3920 C   0  0  0  0  0  3  0  0  0  0  0  0
  193.4240  176.8380  145.1540 C   0  0  0  0  0  2  0  0  0  0  0  0
  194.2640  176.8690  146.4100 C   0  0  0  0  0  2  0  0  0  0  0  0
  188.0080  177.7520  144.4290 C   0  0  0  0  0  2  0  0  0  0  0  0
  186.5460  177.3030  144.3620 C   0  0  1  0  0  3  0  0  0  0  0  0
  185.6930  178.3510  144.7330 O   0  0  0  0  0  0  0  0  0  0  0  0
  184.6090  177.7610  145.1960 O   0  0  0  0  0  0  0  0  0  0  0  0
  184.9580  177.3270  146.4760 C   0  0  0  0  0  2  0  0  0  0  0  0
  186.4250  178.6440  147.9680 C   0  0  0  0  0  1  0  0  0  0  0  0
  185.0230  178.5160  147.4110 C   0  0  0  0  0  2  0  0  0  0  0  0
  186.1840  176.7870  142.9770 C   0  0  0  0  0  2  0  0  0  0  0  0
  186.9200  177.5730  141.9070 C   0  0  0  0  0  2  0  0  0  0  0  0
  187.4200  176.6390  140.8190 C   0  0  0  0  0  2  0  0  0  0  0  0
  188.4500  175.6790  141.3810 C   0  0  0  0  0  2  0  0  0  0  0  0
  188.0740  173.0010  141.6670 S   0  0  0  0  0  1  0  0  0  0  0  0
  188.4420  174.3990  140.5730 C   0  0  0  0  0  2  0  0  0  0  0  0
  1  2  2  0  0  0  0
  3  7  2  0  0  0  0
  3  5  1  0  0  0  0
  4  1  1  0  0  0  0
  5  6  2  0  0  0  0
  6  1  1  0  0  0  0
  7  4  1  0  0  0  0
  8  5  1  0  0  0  0
  9 11  2  0  0  0  0
 10 11  2  0  0  0  0
 11 12  1  0  0  0  0
 11  8  1  0  0  0  0
 13 14  1  1  0  0  0
 13 12  1  0  0  0  0
 13 16  1  0  0  0  0
 14 15  1  0  0  0  0
 17 16  1  0  0  0  0
 17 19  1  0  0  0  0
 18 17  1  0  0  0  0
 18 19  1  0  0  0  0
 20  7  1  0  0  0  0
 21 27  1  6  0  0  0
 21 20  1  0  0  0  0
 21 22  1  0  0  0  0
 22 23  1  0  0  0  0
 23 24  1  0  0  0  0
 24 26  1  0  0  0  0
 26 25  1  0  0  0  0
 28 27  1  0  0  0  0
 29 30  1  0  0  0  0
 29 28  1  0  0  0  0
 32 30  1  0  0  0  0
 32 31  1  0  0  0  0
M  END
>  <MODEL>
4

>  <REMARK>
 VINA RESULT:      -5.0      2.516      4.626
  Name = 
  18 active torsions:
  status: ('A' for Active; 'I' for Inactive)
    1  A    between atoms: C_1  and  O_30
    2  A    between atoms: N_2  and  C_5
    3  A    between atoms: N_2  and  S_27
    4  A    between atoms: C_5  and  C_14
    5  A    between atoms: C_5  and  O_30
    6  A    between atoms: C_6  and  C_17
    7  A    between atoms: C_6  and  C_31
    8  A    between atoms: C_7  and  C_26
    9  A    between atoms: C_7  and  C_31
   10  A    between atoms: O_9  and  C_31
   11  A    between atoms: O_9  and  O_32
   12  A    between atoms: C_12  and  C_28
   13  A    between atoms: C_12  and  O_32
   14  A    between atoms: C_16  and  C_20
   15  A    between atoms: C_16  and  S_27
   16  A    between atoms: C_17  and  C_29
   17  A    between atoms: C_18  and  C_25
   18  A    between atoms: C_18  and  C_29
                            x       y       z     vdW  Elec       q    Type
                         _______ _______ _______ _____ _____    ______ ____

>  <TORSDO>
F 18

$$$$
=
 OpenBabel11052419223D

 32 33  0  0  1  0  0  0  0  0999 V2000
  189.4410  175.1230  141.7440 C   0  0  0  0  0  0  0  0  0  0  0  0
  189.4530  173.9470  141.2960 O   0  0  0  0  0  0  0  0  0  0  0  0
  189.4040  177.7890  142.6270 C   0  0  0  0  0  3  0  0  0  0  0  0
  190.5810  175.6000  142.6000 C   0  0  0  0  0  2  0  0  0  0  0  0
  188.2880  177.2110  141.8610 C   0  0  0  0  0  0  0  0  0  0  0  0
  188.3330  175.9810  141.4510 N   0  0  0  0  0  0  0  0  0  0  0  0
  190.4790  177.0620  142.9440 C   0  0  0  0  0  0  0  0  0  0  0  0
  187.1160  178.0610  141.5050 C   0  0  0  0  0  2  0  0  0  0  0  0
  184.5530  178.4900  142.2160 O   0  0  0  0  0  0  0  0  0  0  0  0
  185.6520  176.5040  143.1330 O   0  0  0  0  0  0  0  0  0  0  0  0
  185.8470  177.9480  142.7560 S   0  0  0  0  0  0  0  0  0  0  0  0
  186.3080  178.8620  144.1530 N   0  0  0  0  0  2  0  0  0  0  0  0
  185.8200  178.1510  145.3330 C   0  0  2  0  0  3  0  0  0  0  0  0
  184.6040  178.8450  145.9430 C   0  0  0  0  0  2  0  0  0  0  0  0
  184.4330  178.4310  147.2630 O   0  0  0  0  0  1  0  0  0  0  0  0
  186.8490  177.9190  146.2750 O   0  0  0  0  0  0  0  0  0  0  0  0
  187.0460  176.5340  146.4080 C   0  0  0  0  0  3  0  0  0  0  0  0
  188.1980  176.1060  145.5210 C   0  0  0  0  0  2  0  0  0  0  0  0
  188.4150  176.2830  147.0070 C   0  0  0  0  0  2  0  0  0  0  0  0
  191.5950  177.6940  143.7160 C   0  0  0  0  0  2  0  0  0  0  0  0
  192.4460  176.6770  144.4810 C   0  0  1  0  0  3  0  0  0  0  0  0
  193.8030  177.0120  144.4000 O   0  0  0  0  0  0  0  0  0  0  0  0
  194.4150  175.8850  144.0980 O   0  0  0  0  0  0  0  0  0  0  0  0
  194.3710  175.8170  142.7050 C   0  0  0  0  0  2  0  0  0  0  0  0
  193.5540  174.0720  141.1560 C   0  0  0  0  0  1  0  0  0  0  0  0
  194.5390  174.3770  142.2650 C   0  0  0  0  0  2  0  0  0  0  0  0
  192.0090  176.5670  145.9350 C   0  0  0  0  0  2  0  0  0  0  0  0
  192.2240  175.1550  146.4510 C   0  0  0  0  0  2  0  0  0  0  0  0
  191.4360  174.1640  145.6130 C   0  0  0  0  0  2  0  0  0  0  0  0
  192.3680  173.1470  144.9840 C   0  0  0  0  0  2  0  0  0  0  0  0
  189.8300  172.2890  144.5170 S   0  0  0  0  0  1  0  0  0  0  0  0
  191.5820  172.2490  144.0530 C   0  0  0  0  0  2  0  0  0  0  0  0
  1  4  1  0  0  0  0
  2  1  2  0  0  0  0
  3  7  2  0  0  0  0
  4  7  1  0  0  0  0
  5  3  1  0  0  0  0
  6  1  1  0  0  0  0
  6  5  2  0  0  0  0
  7 20  1  0  0  0  0
  8  5  1  0  0  0  0
  8 11  1  0  0  0  0
  9 11  2  0  0  0  0
 11 10  2  0  0  0  0
 11 12  1  0  0  0  0
 12 13  1  0  0  0  0
 13 14  1  1  0  0  0
 13 16  1  0  0  0  0
 14 15  1  0  0  0  0
 16 17  1  0  0  0  0
 17 19  1  0  0  0  0
 18 17  1  0  0  0  0
 18 19  1  0  0  0  0
 21 20  1  1  0  0  0
 21 27  1  0  0  0  0
 22 21  1  0  0  0  0
 23 22  1  0  0  0  0
 24 23  1  0  0  0  0
 25 26  1  0  0  0  0
 26 24  1  0  0  0  0
 27 28  1  0  0  0  0
 29 28  1  0  0  0  0
 30 29  1  0  0  0  0
 32 31  1  0  0  0  0
 32 30  1  0  0  0  0
M  END
>  <MODEL>
5

>  <REMARK>
 VINA RESULT:      -5.0      3.056      6.985
  Name = 
  18 active torsions:
  status: ('A' for Active; 'I' for Inactive)
    1  A    between atoms: C_1  and  O_30
    2  A    between atoms: N_2  and  C_5
    3  A    between atoms: N_2  and  S_27
    4  A    between atoms: C_5  and  C_14
    5  A    between atoms: C_5  and  O_30
    6  A    between atoms: C_6  and  C_17
    7  A    between atoms: C_6  and  C_31
    8  A    between atoms: C_7  and  C_26
    9  A    between atoms: C_7  and  C_31
   10  A    between atoms: O_9  and  C_31
   11  A    between atoms: O_9  and  O_32
   12  A    between atoms: C_12  and  C_28
   13  A    between atoms: C_12  and  O_32
   14  A    between atoms: C_16  and  C_20
   15  A    between atoms: C_16  and  S_27
   16  A    between atoms: C_17  and  C_29
   17  A    between atoms: C_18  and  C_25
   18  A    between atoms: C_18  and  C_29
                            x       y       z     vdW  Elec       q    Type
                         _______ _______ _______ _____ _____    ______ ____

>  <TORSDO>
F 18

$$$$
=
 OpenBabel11052419223D

 32 33  0  0  1  0  0  0  0  0999 V2000
  192.6750  174.4410  145.8660 C   0  0  0  0  0  0  0  0  0  0  0  0
  193.8470  174.8200  146.1250 O   0  0  0  0  0  0  0  0  0  0  0  0
  190.0850  173.6070  145.1670 C   0  0  0  0  0  3  0  0  0  0  0  0
  191.5100  175.1810  146.4600 C   0  0  0  0  0  2  0  0  0  0  0  0
  191.2820  172.8860  144.7050 C   0  0  0  0  0  0  0  0  0  0  0  0
  192.4700  173.2980  145.0280 N   0  0  0  0  0  0  0  0  0  0  0  0
  190.1820  174.6850  145.9500 C   0  0  0  0  0  0  0  0  0  0  0  0
  191.1340  171.7010  143.8120 C   0  0  0  0  0  2  0  0  0  0  0  0
  190.2490  171.0640  141.3480 O   0  0  0  0  0  0  0  0  0  0  0  0
  188.6150  171.9840  142.9220 O   0  0  0  0  0  0  0  0  0  0  0  0
  190.0410  172.0670  142.4480 S   0  0  0  0  0  0  0  0  0  0  0  0
  190.3650  173.6560  141.8390 N   0  0  0  0  0  2  0  0  0  0  0  0
  189.1100  174.2020  141.3250 C   0  0  2  0  0  3  0  0  0  0  0  0
  188.9980  174.0230  139.8130 C   0  0  0  0  0  2  0  0  0  0  0  0
  188.1390  172.9630  139.5230 O   0  0  0  0  0  1  0  0  0  0  0  0
  188.9070  175.5400  141.7360 O   0  0  0  0  0  0  0  0  0  0  0  0
  187.6970  176.0070  141.1980 C   0  0  0  0  0  3  0  0  0  0  0  0
  186.7700  176.4100  142.3270 C   0  0  0  0  0  2  0  0  0  0  0  0
  187.5250  177.4700  141.5570 C   0  0  0  0  0  2  0  0  0  0  0  0
  188.9390  175.3920  146.3890 C   0  0  0  0  0  2  0  0  0  0  0  0
  189.0530  176.9160  146.2990 C   0  0  1  0  0  3  0  0  0  0  0  0
  190.1070  177.2810  145.4510 O   0  0  0  0  0  0  0  0  0  0  0  0
  189.5330  177.5880  144.3060 O   0  0  0  0  0  0  0  0  0  0  0  0
  190.5360  178.2080  143.5590 C   0  0  0  0  0  2  0  0  0  0  0  0
  192.1940  176.5370  142.8050 C   0  0  0  0  0  1  0  0  0  0  0  0
  191.8700  177.5630  143.8700 C   0  0  0  0  0  2  0  0  0  0  0  0
  187.7490  177.5460  145.8280 C   0  0  0  0  0  2  0  0  0  0  0  0
  186.5680  176.6680  146.2010 C   0  0  0  0  0  2  0  0  0  0  0  0
  185.6680  177.3880  147.1890 C   0  0  0  0  0  2  0  0  0  0  0  0
  185.3230  178.7730  146.6750 C   0  0  0  0  0  2  0  0  0  0  0  0
  184.3890  179.0390  144.1350 S   0  0  0  0  0  1  0  0  0  0  0  0
  184.0350  178.7120  145.8820 C   0  0  0  0  0  2  0  0  0  0  0  0
  1  2  2  0  0  0  0
  1  4  1  0  0  0  0
  3  7  2  0  0  0  0
  5  6  2  0  0  0  0
  5  3  1  0  0  0  0
  6  1  1  0  0  0  0
  7 20  1  0  0  0  0
  7  4  1  0  0  0  0
  8  5  1  0  0  0  0
  9 11  2  0  0  0  0
 11 10  2  0  0  0  0
 11  8  1  0  0  0  0
 12 11  1  0  0  0  0
 13 14  1  6  0  0  0
 13 16  1  0  0  0  0
 13 12  1  0  0  0  0
 15 14  1  0  0  0  0
 17 19  1  0  0  0  0
 17 16  1  0  0  0  0
 17 18  1  0  0  0  0
 19 18  1  0  0  0  0
 21 27  1  6  0  0  0
 21 20  1  0  0  0  0
 22 21  1  0  0  0  0
 23 22  1  0  0  0  0
 24 26  1  0  0  0  0
 24 23  1  0  0  0  0
 25 26  1  0  0  0  0
 27 28  1  0  0  0  0
 28 29  1  0  0  0  0
 30 29  1  0  0  0  0
 31 32  1  0  0  0  0
 32 30  1  0  0  0  0
M  END
>  <MODEL>
6

>  <REMARK>
 VINA RESULT:      -4.9      2.026      5.307
  Name = 
  18 active torsions:
  status: ('A' for Active; 'I' for Inactive)
    1  A    between atoms: C_1  and  O_30
    2  A    between atoms: N_2  and  C_5
    3  A    between atoms: N_2  and  S_27
    4  A    between atoms: C_5  and  C_14
    5  A    between atoms: C_5  and  O_30
    6  A    between atoms: C_6  and  C_17
    7  A    between atoms: C_6  and  C_31
    8  A    between atoms: C_7  and  C_26
    9  A    between atoms: C_7  and  C_31
   10  A    between atoms: O_9  and  C_31
   11  A    between atoms: O_9  and  O_32
   12  A    between atoms: C_12  and  C_28
   13  A    between atoms: C_12  and  O_32
   14  A    between atoms: C_16  and  C_20
   15  A    between atoms: C_16  and  S_27
   16  A    between atoms: C_17  and  C_29
   17  A    between atoms: C_18  and  C_25
   18  A    between atoms: C_18  and  C_29
                            x       y       z     vdW  Elec       q    Type
                         _______ _______ _______ _____ _____    ______ ____

>  <TORSDO>
F 18

$$$$
=
 OpenBabel11052419223D

 32 33  0  0  1  0  0  0  0  0999 V2000
  187.7460  176.8590  141.4220 C   0  0  0  0  0  0  0  0  0  0  0  0
  187.2690  177.4980  140.4470 O   0  0  0  0  0  0  0  0  0  0  0  0
  188.7120  175.3590  143.5910 C   0  0  0  0  0  3  0  0  0  0  0  0
  188.0580  177.5860  142.7000 C   0  0  0  0  0  2  0  0  0  0  0  0
  188.4650  174.7480  142.2750 C   0  0  0  0  0  0  0  0  0  0  0  0
  188.0050  175.4580  141.2910 N   0  0  0  0  0  0  0  0  0  0  0  0
  188.4960  176.6590  143.8040 C   0  0  0  0  0  0  0  0  0  0  0  0
  188.6950  173.2880  142.0820 C   0  0  0  0  0  2  0  0  0  0  0  0
  190.9430  172.7010  143.4460 O   0  0  0  0  0  0  0  0  0  0  0  0
  190.6640  171.6630  141.2470 O   0  0  0  0  0  0  0  0  0  0  0  0
  190.4410  172.9180  142.0460 S   0  0  0  0  0  0  0  0  0  0  0  0
  191.3100  174.2330  141.3270 N   0  0  0  0  0  2  0  0  0  0  0  0
  192.3320  174.6660  142.2780 C   0  0  2  0  0  3  0  0  0  0  0  0
  192.1890  176.1470  142.6190 C   0  0  0  0  0  2  0  0  0  0  0  0
  193.1910  176.5290  143.5110 O   0  0  0  0  0  1  0  0  0  0  0  0
  193.6350  174.3260  141.8470 O   0  0  0  0  0  0  0  0  0  0  0  0
  193.7040  174.4510  140.4490 C   0  0  0  0  0  3  0  0  0  0  0  0
  194.8170  175.4120  140.0870 C   0  0  0  0  0  2  0  0  0  0  0  0
  195.0390  173.9220  139.9680 C   0  0  0  0  0  2  0  0  0  0  0  0
  188.7520  177.2360  145.1620 C   0  0  0  0  0  2  0  0  0  0  0  0
  188.1310  176.4100  146.2910 C   0  0  1  0  0  3  0  0  0  0  0  0
  189.1260  175.9250  147.1490 O   0  0  0  0  0  0  0  0  0  0  0  0
  189.9300  176.9490  147.3510 O   0  0  0  0  0  0  0  0  0  0  0  0
  191.0760  176.3950  147.9260 C   0  0  0  0  0  2  0  0  0  0  0  0
  192.4080  174.8500  146.5300 C   0  0  0  0  0  1  0  0  0  0  0  0
  192.1700  176.3030  146.8830 C   0  0  0  0  0  2  0  0  0  0  0  0
  187.1010  177.2160  147.0700 C   0  0  0  0  0  2  0  0  0  0  0  0
  185.7970  177.3020  146.2970 C   0  0  0  0  0  2  0  0  0  0  0  0
  185.3190  178.7420  146.2320 C   0  0  0  0  0  2  0  0  0  0  0  0
  185.3720  179.2500  144.8040 C   0  0  0  0  0  2  0  0  0  0  0  0
  184.3150  178.2560  142.5040 S   0  0  0  0  0  1  0  0  0  0  0  0
  184.0390  179.0080  144.1310 C   0  0  0  0  0  2  0  0  0  0  0  0
  1  4  1  0  0  0  0
  2  1  2  0  0  0  0
  3  7  2  0  0  0  0
  4  7  1  0  0  0  0
  5  3  1  0  0  0  0
  6  1  1  0  0  0  0
  6  5  2  0  0  0  0
  7 20  1  0  0  0  0
  8  5  1  0  0  0  0
 10 11  2  0  0  0  0
 11  8  1  0  0  0  0
 11  9  2  0  0  0  0
 12 11  1  0  0  0  0
 12 13  1  0  0  0  0
 13 14  1  6  0  0  0
 14 15  1  0  0  0  0
 16 13  1  0  0  0  0
 17 16  1  0  0  0  0
 18 17  1  0  0  0  0
 19 18  1  0  0  0  0
 19 17  1  0  0  0  0
 21 20  1  6  0  0  0
 21 27  1  0  0  0  0
 21 22  1  0  0  0  0
 22 23  1  0  0  0  0
 23 24  1  0  0  0  0
 25 26  1  0  0  0  0
 26 24  1  0  0  0  0
 28 27  1  0  0  0  0
 29 28  1  0  0  0  0
 30 29  1  0  0  0  0
 31 32  1  0  0  0  0
 32 30  1  0  0  0  0
M  END
>  <MODEL>
7

>  <REMARK>
 VINA RESULT:      -4.9      2.607      5.288
  Name = 
  18 active torsions:
  status: ('A' for Active; 'I' for Inactive)
    1  A    between atoms: C_1  and  O_30
    2  A    between atoms: N_2  and  C_5
    3  A    between atoms: N_2  and  S_27
    4  A    between atoms: C_5  and  C_14
    5  A    between atoms: C_5  and  O_30
    6  A    between atoms: C_6  and  C_17
    7  A    between atoms: C_6  and  C_31
    8  A    between atoms: C_7  and  C_26
    9  A    between atoms: C_7  and  C_31
   10  A    between atoms: O_9  and  C_31
   11  A    between atoms: O_9  and  O_32
   12  A    between atoms: C_12  and  C_28
   13  A    between atoms: C_12  and  O_32
   14  A    between atoms: C_16  and  C_20
   15  A    between atoms: C_16  and  S_27
   16  A    between atoms: C_17  and  C_29
   17  A    between atoms: C_18  and  C_25
   18  A    between atoms: C_18  and  C_29
                            x       y       z     vdW  Elec       q    Type
                         _______ _______ _______ _____ _____    ______ ____

>  <TORSDO>
F 18

$$$$
=
 OpenBabel11052419223D

 32 33  0  0  1  0  0  0  0  0999 V2000
  188.2010  175.3070  142.2980 C   0  0  0  0  0  0  0  0  0  0  0  0
  187.8370  174.1190  142.0930 O   0  0  0  0  0  0  0  0  0  0  0  0
  188.9650  177.9870  142.6450 C   0  0  0  0  0  3  0  0  0  0  0  0
  189.6450  175.5960  142.5980 C   0  0  0  0  0  2  0  0  0  0  0  0
  187.5600  177.6030  142.4370 C   0  0  0  0  0  0  0  0  0  0  0  0
  187.2310  176.3590  142.2650 N   0  0  0  0  0  0  0  0  0  0  0  0
  189.9360  177.0710  142.6880 C   0  0  0  0  0  0  0  0  0  0  0  0
  186.5070  178.6560  142.3700 C   0  0  0  0  0  2  0  0  0  0  0  0
  185.1680  180.2080  144.1200 O   0  0  0  0  0  0  0  0  0  0  0  0
  184.4610  177.8730  143.9250 O   0  0  0  0  0  0  0  0  0  0  0  0
  185.6490  178.7970  143.9300 S   0  0  0  0  0  0  0  0  0  0  0  0
  186.7120  178.3770  145.2310 N   0  0  0  0  0  2  0  0  0  0  0  0
  186.0020  177.4450  146.1060 C   0  0  2  0  0  3  0  0  0  0  0  0
  185.2490  178.1790  147.2130 C   0  0  0  0  0  2  0  0  0  0  0  0
  185.8680  179.3990  147.4820 O   0  0  0  0  0  1  0  0  0  0  0  0
  186.8530  176.4310  146.6000 O   0  0  0  0  0  0  0  0  0  0  0  0
  188.0630  176.4580  145.8870 C   0  0  0  0  0  3  0  0  0  0  0  0
  189.2110  176.6520  146.8570 C   0  0  0  0  0  2  0  0  0  0  0  0
  188.9140  175.2760  146.3060 C   0  0  0  0  0  2  0  0  0  0  0  0
  191.3530  177.5080  142.8920 C   0  0  0  0  0  2  0  0  0  0  0  0
  192.3120  176.3400  143.1340 C   0  0  1  0  0  3  0  0  0  0  0  0
  193.4040  176.4100  142.2590 O   0  0  0  0  0  0  0  0  0  0  0  0
  193.3010  175.3380  141.5000 O   0  0  0  0  0  0  0  0  0  0  0  0
  194.5650  174.7460  141.5440 C   0  0  0  0  0  2  0  0  0  0  0  0
  194.1180  174.8890  139.1170 C   0  0  0  0  0  1  0  0  0  0  0  0
  195.2010  174.8140  140.1720 C   0  0  0  0  0  2  0  0  0  0  0  0
  192.7890  176.3010  144.5800 C   0  0  0  0  0  2  0  0  0  0  0  0
  192.4930  174.9480  145.2020 C   0  0  0  0  0  2  0  0  0  0  0  0
  193.6700  174.4890  146.0450 C   0  0  0  0  0  2  0  0  0  0  0  0
  194.8210  174.0630  145.1540 C   0  0  0  0  0  2  0  0  0  0  0  0
  197.5030  174.0540  144.7030 S   0  0  0  0  0  1  0  0  0  0  0  0
  196.1330  174.3430  145.8550 C   0  0  0  0  0  2  0  0  0  0  0  0
  1  4  1  0  0  0  0
  2  1  2  0  0  0  0
  3  7  2  0  0  0  0
  4  7  1  0  0  0  0
  5  3  1  0  0  0  0
  6  1  1  0  0  0  0
  6  5  2  0  0  0  0
  7 20  1  0  0  0  0
  8  5  1  0  0  0  0
  8 11  1  0  0  0  0
 10 11  2  0  0  0  0
 11  9  2  0  0  0  0
 11 12  1  0  0  0  0
 12 13  1  0  0  0  0
 13 16  1  0  0  0  0
 13 14  1  1  0  0  0
 14 15  1  0  0  0  0
 17 19  1  0  0  0  0
 17 16  1  0  0  0  0
 17 18  1  0  0  0  0
 19 18  1  0  0  0  0
 21 20  1  1  0  0  0
 21 27  1  0  0  0  0
 22 21  1  0  0  0  0
 23 24  1  0  0  0  0
 23 22  1  0  0  0  0
 25 26  1  0  0  0  0
 26 24  1  0  0  0  0
 27 28  1  0  0  0  0
 28 29  1  0  0  0  0
 30 32  1  0  0  0  0
 30 29  1  0  0  0  0
 31 32  1  0  0  0  0
M  END
>  <MODEL>
8

>  <REMARK>
 VINA RESULT:      -4.8      3.451      7.453
  Name = 
  18 active torsions:
  status: ('A' for Active; 'I' for Inactive)
    1  A    between atoms: C_1  and  O_30
    2  A    between atoms: N_2  and  C_5
    3  A    between atoms: N_2  and  S_27
    4  A    between atoms: C_5  and  C_14
    5  A    between atoms: C_5  and  O_30
    6  A    between atoms: C_6  and  C_17
    7  A    between atoms: C_6  and  C_31
    8  A    between atoms: C_7  and  C_26
    9  A    between atoms: C_7  and  C_31
   10  A    between atoms: O_9  and  C_31
   11  A    between atoms: O_9  and  O_32
   12  A    between atoms: C_12  and  C_28
   13  A    between atoms: C_12  and  O_32
   14  A    between atoms: C_16  and  C_20
   15  A    between atoms: C_16  and  S_27
   16  A    between atoms: C_17  and  C_29
   17  A    between atoms: C_18  and  C_25
   18  A    between atoms: C_18  and  C_29
                            x       y       z     vdW  Elec       q    Type
                         _______ _______ _______ _____ _____    ______ ____

>  <TORSDO>
F 18

$$$$
=
 OpenBabel11052419223D

 32 33  0  0  1  0  0  0  0  0999 V2000
  187.5380  177.0560  141.0070 C   0  0  0  0  0  0  0  0  0  0  0  0
  186.9810  177.6710  140.0600 O   0  0  0  0  0  0  0  0  0  0  0  0
  188.6770  175.6170  143.1340 C   0  0  0  0  0  3  0  0  0  0  0  0
  188.0800  177.8320  142.1750 C   0  0  0  0  0  2  0  0  0  0  0  0
  188.2030  174.9480  141.9120 C   0  0  0  0  0  0  0  0  0  0  0  0
  187.6660  175.6320  140.9480 N   0  0  0  0  0  0  0  0  0  0  0  0
  188.5940  176.9430  143.2770 C   0  0  0  0  0  0  0  0  0  0  0  0
  188.2890  173.4640  141.8000 C   0  0  0  0  0  2  0  0  0  0  0  0
  189.9890  171.5200  141.0300 O   0  0  0  0  0  0  0  0  0  0  0  0
  190.5790  173.8220  140.4410 O   0  0  0  0  0  0  0  0  0  0  0  0
  189.9730  172.9470  141.5040 S   0  0  0  0  0  0  0  0  0  0  0  0
  190.8970  173.0730  142.9640 N   0  0  0  0  0  2  0  0  0  0  0  0
  192.3110  172.9850  142.6060 C   0  0  2  0  0  3  0  0  0  0  0  0
  192.8960  171.6200  142.9590 C   0  0  0  0  0  2  0  0  0  0  0  0
  192.1710  171.0480  144.0040 O   0  0  0  0  0  1  0  0  0  0  0  0
  193.0600  174.0580  143.1430 O   0  0  0  0  0  0  0  0  0  0  0  0
  193.1140  175.0980  142.2010 C   0  0  0  0  0  3  0  0  0  0  0  0
  192.6770  176.3920  142.8580 C   0  0  0  0  0  2  0  0  0  0  0  0
  194.1480  176.1150  142.6410 C   0  0  0  0  0  2  0  0  0  0  0  0
  189.0800  177.5800  144.5410 C   0  0  0  0  0  2  0  0  0  0  0  0
  189.5840  176.5640  145.5690 C   0  0  1  0  0  3  0  0  0  0  0  0
  190.9120  176.8370  145.9200 O   0  0  0  0  0  0  0  0  0  0  0  0
  191.0120  176.4770  147.1830 O   0  0  0  0  0  0  0  0  0  0  0  0
  192.3850  176.4160  147.4300 C   0  0  0  0  0  2  0  0  0  0  0  0
  194.4670  175.7170  146.2960 C   0  0  0  0  0  1  0  0  0  0  0  0
  193.0130  175.3710  146.5320 C   0  0  0  0  0  2  0  0  0  0  0  0
  188.7000  176.5400  146.8080 C   0  0  0  0  0  2  0  0  0  0  0  0
  187.5710  177.5470  146.6780 C   0  0  0  0  0  2  0  0  0  0  0  0
  186.3210  177.0280  147.3640 C   0  0  0  0  0  2  0  0  0  0  0  0
  185.2490  176.7130  146.3380 C   0  0  0  0  0  2  0  0  0  0  0  0
  184.1940  178.9380  145.1850 S   0  0  0  0  0  1  0  0  0  0  0  0
  185.4250  177.6090  145.1310 C   0  0  0  0  0  2  0  0  0  0  0  0
  1  4  1  0  0  0  0
  2  1  2  0  0  0  0
  3  7  2  0  0  0  0
  4  7  1  0  0  0  0
  5  3  1  0  0  0  0
  6  1  1  0  0  0  0
  6  5  2  0  0  0  0
  7 20  1  0  0  0  0
  8  5  1  0  0  0  0
  9 11  2  0  0  0  0
 10 11  2  0  0  0  0
 11  8  1  0  0  0  0
 11 12  1  0  0  0  0
 13 14  1  1  0  0  0
 13 12  1  0  0  0  0
 13 16  1  0  0  0  0
 14 15  1  0  0  0  0
 17 19  1  0  0  0  0
 17 18  1  0  0  0  0
 17 16  1  0  0  0  0
 19 18  1  0  0  0  0
 21 20  1  6  0  0  0
 21 22  1  0  0  0  0
 21 27  1  0  0  0  0
 22 23  1  0  0  0  0
 23 24  1  0  0  0  0
 25 26  1  0  0  0  0
 26 24  1  0  0  0  0
 28 27  1  0  0  0  0
 28 29  1  0  0  0  0
 30 29  1  0  0  0  0
 32 31  1  0  0  0  0
 32 30  1  0  0  0  0
M  END
>  <MODEL>
9

>  <REMARK>
 VINA RESULT:      -4.8      1.931      5.203
  Name = 
  18 active torsions:
  status: ('A' for Active; 'I' for Inactive)
    1  A    between atoms: C_1  and  O_30
    2  A    between atoms: N_2  and  C_5
    3  A    between atoms: N_2  and  S_27
    4  A    between atoms: C_5  and  C_14
    5  A    between atoms: C_5  and  O_30
    6  A    between atoms: C_6  and  C_17
    7  A    between atoms: C_6  and  C_31
    8  A    between atoms: C_7  and  C_26
    9  A    between atoms: C_7  and  C_31
   10  A    between atoms: O_9  and  C_31
   11  A    between atoms: O_9  and  O_32
   12  A    between atoms: C_12  and  C_28
   13  A    between atoms: C_12  and  O_32
   14  A    between atoms: C_16  and  C_20
   15  A    between atoms: C_16  and  S_27
   16  A    between atoms: C_17  and  C_29
   17  A    between atoms: C_18  and  C_25
   18  A    between atoms: C_18  and  C_29
                            x       y       z     vdW  Elec       q    Type
                         _______ _______ _______ _____ _____    ______ ____

>  <TORSDO>
F 18

$$$$
