=
 OpenBabel11052421203D

 43 47  0  0  1  0  0  0  0  0999 V2000
  190.4120  177.4830  142.7910 C   0  0  0  0  0  2  0  0  0  0  0  0
  187.5690  177.7530  143.1780 N   0  0  0  0  0  2  0  0  0  0  0  0
  189.5220  176.3340  142.6000 N   0  0  0  0  0  0  0  0  0  0  0  0
  191.8830  177.0610  142.7750 C   0  0  0  0  0  2  0  0  0  0  0  0
  188.1080  176.4880  142.7810 C   0  0  0  0  0  0  0  0  0  0  0  0
  190.0740  175.0270  142.2400 C   0  0  0  0  0  2  0  0  0  0  0  0
  187.3380  175.5030  142.6050 O   0  0  0  0  0  0  0  0  0  0  0  0
  191.1990  174.6290  143.1990 C   0  0  0  0  0  2  0  0  0  0  0  0
  192.0600  175.8220  143.6500 C   0  0  1  0  0  3  0  0  0  0  0  0
  193.4680  175.4490  143.7870 N   0  0  0  0  0  0  0  0  0  0  0  0
  196.7000  175.0190  138.1710 C   0  0  2  0  0  3  0  0  0  0  0  0
  194.4030  175.4890  142.6840 C   0  0  0  0  0  0  0  0  0  0  0  0
  196.1780  175.6000  140.5060 C   0  0  0  0  0  0  0  0  0  0  0  0
  196.0760  173.6460  138.4290 C   0  0  0  0  0  2  0  0  0  0  0  0
  197.9410  174.8710  137.3180 C   0  0  0  0  0  1  0  0  0  0  0  0
  195.1320  174.6700  140.5120 C   0  0  0  0  0  0  0  0  0  0  0  0
  197.0350  175.6610  139.4030 O   0  0  0  0  0  0  0  0  0  0  0  0
  195.0020  173.7650  139.4140 N   0  0  0  0  0  2  0  0  0  0  0  0
  194.2400  174.6240  141.5860 C   0  0  0  0  0  3  0  0  0  0  0  0
  195.4780  176.3970  142.6780 C   0  0  0  0  0  3  0  0  0  0  0  0
  196.3610  176.4530  141.5970 C   0  0  0  0  0  3  0  0  0  0  0  0
  193.8690  174.9310  145.0930 C   0  0  0  0  0  2  0  0  0  0  0  0
  196.9670  173.2080  146.3780 C   0  0  0  0  0  2  0  0  0  0  0  0
  196.9160  171.9290  145.6550 N   0  0  0  0  0  0  0  0  0  0  0  0
  194.4640  172.5600  145.5490 C   0  0  0  0  0  2  0  0  0  0  0  0
  196.2490  174.3340  145.6210 C   0  0  0  0  0  2  0  0  0  0  0  0
  194.9500  173.8700  144.9540 C   0  0  0  0  0  3  0  0  0  0  0  0
  195.5390  171.4780  145.3730 C   0  0  0  0  0  2  0  0  0  0  0  0
  197.3600  170.8740  143.7960 C   0  0  0  0  0  1  0  0  0  0  0  0
  197.5510  172.0840  144.4650 O   0  0  0  0  0  0  0  0  0  0  0  0
  186.1550  177.9520  143.4590 C   0  0  0  0  0  2  0  0  0  0  0  0
  184.9090  179.9090  144.3030 C   0  0  0  0  0  1  0  0  0  0  0  0
  185.9700  178.8820  144.6470 C   0  0  1  0  0  3  0  0  0  0  0  0
  185.5520  178.1130  145.8130 N   0  0  0  0  0  2  0  0  0  0  0  0
  187.8200  177.1650  146.1520 N   0  0  0  0  0  2  0  0  0  0  0  0
  186.4510  177.2910  146.5560 C   0  0  0  0  0  0  0  0  0  0  0  0
  186.0280  176.6840  147.5740 O   0  0  0  0  0  0  0  0  0  0  0  0
  188.8580  176.5190  146.9480 C   0  0  0  0  0  3  0  0  0  0  0  0
  191.3090  176.6770  147.5820 C   0  0  0  0  0  2  0  0  0  0  0  0
  190.5890  174.6560  146.9210 C   0  0  0  0  0  2  0  0  0  0  0  0
  190.9780  175.3950  148.0530 O   0  0  0  0  0  0  0  0  0  0  0  0
  189.2690  175.1770  146.3280 C   0  0  0  0  0  2  0  0  0  0  0  0
  190.0450  177.4600  147.1970 C   0  0  0  0  0  2  0  0  0  0  0  0
  2 31  1  0  0  0  0
  3  5  1  0  0  0  0
  3  1  1  0  0  0  0
  4  1  1  0  0  0  0
  4  9  1  0  0  0  0
  5  2  1  0  0  0  0
  6  3  1  0  0  0  0
  6  8  1  0  0  0  0
  7  5  2  0  0  0  0
  8  9  1  0  0  0  0
  9 10  1  6  0  0  0
 10 22  1  0  0  0  0
 11 15  1  6  0  0  0
 11 14  1  0  0  0  0
 11 17  1  0  0  0  0
 12 10  1  0  0  0  0
 13 16  2  0  0  0  0
 13 21  1  0  0  0  0
 14 18  1  0  0  0  0
 16 19  1  0  0  0  0
 17 13  1  0  0  0  0
 18 16  1  0  0  0  0
 19 12  2  0  0  0  0
 20 12  1  0  0  0  0
 21 20  2  0  0  0  0
 24 23  1  0  0  0  0
 26 23  1  0  0  0  0
 27 22  1  0  0  0  0
 27 25  1  0  0  0  0
 27 26  1  0  0  0  0
 28 25  1  0  0  0  0
 28 24  1  0  0  0  0
 29 30  1  0  0  0  0
 30 24  1  0  0  0  0
 31 33  1  0  0  0  0
 33 32  1  6  0  0  0
 33 34  1  0  0  0  0
 34 36  1  0  0  0  0
 35 36  1  0  0  0  0
 35 38  1  0  0  0  0
 36 37  2  0  0  0  0
 38 43  1  0  0  0  0
 39 41  1  0  0  0  0
 40 41  1  0  0  0  0
 42 40  1  0  0  0  0
 42 38  1  0  0  0  0
 43 39  1  0  0  0  0
M  END
>  <MODEL>
1

>  <REMARK>
 VINA RESULT:      -7.6      0.000      0.000
  Name = 
  9 active torsions:
  status: ('A' for Active; 'I' for Inactive)
    1  A    between atoms: C_1  and  N_34
    2  A    between atoms: C_1  and  C_35
    3  A    between atoms: N_3  and  C_42
    4  A    between atoms: N_4  and  C_15
    5  A    between atoms: C_8  and  N_34
    6  A    between atoms: C_11  and  N_14
    7  A    between atoms: C_15  and  C_42
    8  A    between atoms: N_19  and  O_37
    9  A    between atoms: N_34  and  C_38
                            x       y       z     vdW  Elec       q    Type
                         _______ _______ _______ _____ _____    ______ ____

>  <TORSDO>
F 9

$$$$
=
 OpenBabel11052421203D

 43 47  0  0  1  0  0  0  0  0999 V2000
  189.3640  175.0400  146.0430 C   0  0  0  0  0  2  0  0  0  0  0  0
  187.7560  177.2250  147.0170 N   0  0  0  0  0  2  0  0  0  0  0  0
  189.9860  176.1680  146.7430 N   0  0  0  0  0  0  0  0  0  0  0  0
  190.4140  174.1270  145.4060 C   0  0  0  0  0  2  0  0  0  0  0  0
  189.1710  177.2400  147.2350 C   0  0  0  0  0  0  0  0  0  0  0  0
  191.4370  176.2100  146.9280 C   0  0  0  0  0  2  0  0  0  0  0  0
  189.7020  178.2070  147.8480 O   0  0  0  0  0  0  0  0  0  0  0  0
  192.1610  175.9920  145.5960 C   0  0  0  0  0  2  0  0  0  0  0  0
  191.4480  174.9840  144.6790 C   0  0  1  0  0  3  0  0  0  0  0  0
  192.4040  174.1650  143.9320 N   0  0  0  0  0  0  0  0  0  0  0  0
  190.3750  171.1590  138.5450 C   0  0  2  0  0  3  0  0  0  0  0  0
  192.0060  173.2500  142.8850 C   0  0  0  0  0  0  0  0  0  0  0  0
  191.2760  171.4970  140.8120 C   0  0  0  0  0  0  0  0  0  0  0  0
  189.3670  172.2720  138.8380 C   0  0  0  0  0  2  0  0  0  0  0  0
  189.7060  170.0420  137.7750 C   0  0  0  0  0  1  0  0  0  0  0  0
  190.8190  172.8190  140.8060 C   0  0  0  0  0  0  0  0  0  0  0  0
  190.9270  170.6460  139.7590 O   0  0  0  0  0  0  0  0  0  0  0  0
  189.9560  173.2500  139.7510 N   0  0  0  0  0  2  0  0  0  0  0  0
  191.1920  173.6960  141.8270 C   0  0  0  0  0  3  0  0  0  0  0  0
  192.4320  171.9090  142.8940 C   0  0  0  0  0  3  0  0  0  0  0  0
  192.0700  171.0360  141.8650 C   0  0  0  0  0  3  0  0  0  0  0  0
  193.7950  174.2450  144.3710 C   0  0  0  0  0  2  0  0  0  0  0  0
  196.6800  176.3620  143.1830 C   0  0  0  0  0  2  0  0  0  0  0  0
  197.0040  175.7280  141.8970 N   0  0  0  0  0  0  0  0  0  0  0  0
  195.8400  173.7840  143.0330 C   0  0  0  0  0  2  0  0  0  0  0  0
  195.2120  176.1600  143.5790 C   0  0  0  0  0  2  0  0  0  0  0  0
  194.6930  174.7560  143.2550 C   0  0  0  0  0  3  0  0  0  0  0  0
  196.7250  174.2780  141.8800 C   0  0  0  0  0  2  0  0  0  0  0  0
  196.5590  175.6110  139.7620 C   0  0  0  0  0  1  0  0  0  0  0  0
  196.2420  176.3050  140.9320 O   0  0  0  0  0  0  0  0  0  0  0  0
  186.8860  178.3220  147.4160 C   0  0  0  0  0  2  0  0  0  0  0  0
  184.4430  178.1800  147.7350 C   0  0  0  0  0  1  0  0  0  0  0  0
  185.5500  178.2340  146.6990 C   0  0  1  0  0  3  0  0  0  0  0  0
  185.3710  179.4040  145.8470 N   0  0  0  0  0  2  0  0  0  0  0  0
  186.4350  178.2960  143.8980 N   0  0  0  0  0  2  0  0  0  0  0  0
  185.7850  179.4320  144.4820 C   0  0  0  0  0  0  0  0  0  0  0  0
  185.5660  180.4630  143.7950 O   0  0  0  0  0  0  0  0  0  0  0  0
  186.7130  178.1480  142.4740 C   0  0  0  0  0  3  0  0  0  0  0  0
  185.6080  177.6780  140.2390 C   0  0  0  0  0  2  0  0  0  0  0  0
  187.4520  176.4820  140.7000 C   0  0  0  0  0  2  0  0  0  0  0  0
  186.9690  177.5450  139.9140 O   0  0  0  0  0  0  0  0  0  0  0  0
  187.4680  176.8420  142.1950 C   0  0  0  0  0  2  0  0  0  0  0  0
  185.4380  178.3010  141.6320 C   0  0  0  0  0  2  0  0  0  0  0  0
  1  3  1  0  0  0  0
  2  5  1  0  0  0  0
  2 31  1  0  0  0  0
  3  6  1  0  0  0  0
  3  5  1  0  0  0  0
  4  1  1  0  0  0  0
  5  7  2  0  0  0  0
  8  6  1  0  0  0  0
  9 10  1  1  0  0  0
  9  4  1  0  0  0  0
  9  8  1  0  0  0  0
 10 22  1  0  0  0  0
 11 15  1  1  0  0  0
 11 14  1  0  0  0  0
 11 17  1  0  0  0  0
 12 20  1  0  0  0  0
 12 10  1  0  0  0  0
 13 21  1  0  0  0  0
 14 18  1  0  0  0  0
 16 13  2  0  0  0  0
 16 19  1  0  0  0  0
 17 13  1  0  0  0  0
 18 16  1  0  0  0  0
 19 12  2  0  0  0  0
 21 20  2  0  0  0  0
 23 26  1  0  0  0  0
 24 23  1  0  0  0  0
 25 27  1  0  0  0  0
 27 26  1  0  0  0  0
 27 22  1  0  0  0  0
 28 24  1  0  0  0  0
 28 25  1  0  0  0  0
 29 30  1  0  0  0  0
 30 24  1  0  0  0  0
 33 31  1  0  0  0  0
 33 32  1  1  0  0  0
 34 33  1  0  0  0  0
 35 36  1  0  0  0  0
 36 34  1  0  0  0  0
 37 36  2  0  0  0  0
 38 35  1  0  0  0  0
 39 43  1  0  0  0  0
 40 42  1  0  0  0  0
 41 39  1  0  0  0  0
 41 40  1  0  0  0  0
 42 38  1  0  0  0  0
 43 38  1  0  0  0  0
M  END
>  <MODEL>
2

>  <REMARK>
 VINA RESULT:      -7.3      2.832      5.261
  Name = 
  9 active torsions:
  status: ('A' for Active; 'I' for Inactive)
    1  A    between atoms: C_1  and  N_34
    2  A    between atoms: C_1  and  C_35
    3  A    between atoms: N_3  and  C_42
    4  A    between atoms: N_4  and  C_15
    5  A    between atoms: C_8  and  N_34
    6  A    between atoms: C_11  and  N_14
    7  A    between atoms: C_15  and  C_42
    8  A    between atoms: N_19  and  O_37
    9  A    between atoms: N_34  and  C_38
                            x       y       z     vdW  Elec       q    Type
                         _______ _______ _______ _____ _____    ______ ____

>  <TORSDO>
F 9

$$$$
=
 OpenBabel11052421203D

 43 47  0  0  1  0  0  0  0  0999 V2000
  191.9180  170.7300  142.5780 C   0  0  0  0  0  2  0  0  0  0  0  0
  194.5020  170.2510  143.7620 N   0  0  0  0  0  2  0  0  0  0  0  0
  193.1070  171.4300  142.0810 N   0  0  0  0  0  0  0  0  0  0  0  0
  190.6350  171.3080  141.9790 C   0  0  0  0  0  2  0  0  0  0  0  0
  194.3880  171.1690  142.6710 C   0  0  0  0  0  0  0  0  0  0  0  0
  192.9870  172.4040  140.9950 C   0  0  0  0  0  2  0  0  0  0  0  0
  195.4150  171.7620  142.2370 O   0  0  0  0  0  0  0  0  0  0  0  0
  191.8980  173.4340  141.3070 C   0  0  0  0  0  2  0  0  0  0  0  0
  190.6920  172.8330  142.0490 C   0  0  1  0  0  3  0  0  0  0  0  0
  189.4340  173.4440  141.6170 N   0  0  0  0  0  0  0  0  0  0  0  0
  185.8050  178.3870  143.7540 C   0  0  2  0  0  3  0  0  0  0  0  0
  188.8490  174.5890  142.2790 C   0  0  0  0  0  0  0  0  0  0  0  0
  187.6630  176.7800  143.5830 C   0  0  0  0  0  0  0  0  0  0  0  0
  185.7990  178.4610  142.2260 C   0  0  0  0  0  2  0  0  0  0  0  0
  185.5830  179.7640  144.3400 C   0  0  0  0  0  1  0  0  0  0  0  0
  187.2350  176.4090  142.3030 C   0  0  0  0  0  0  0  0  0  0  0  0
  187.0430  177.8540  144.2280 O   0  0  0  0  0  0  0  0  0  0  0  0
  186.2130  177.1760  141.6640 N   0  0  0  0  0  2  0  0  0  0  0  0
  187.8120  175.3120  141.6600 C   0  0  0  0  0  3  0  0  0  0  0  0
  189.2910  174.9930  143.5530 C   0  0  0  0  0  3  0  0  0  0  0  0
  188.7020  176.0820  144.2020 C   0  0  0  0  0  3  0  0  0  0  0  0
  188.7360  172.7690  140.5260 C   0  0  0  0  0  2  0  0  0  0  0  0
  189.5810  171.9270  136.9490 C   0  0  0  0  0  2  0  0  0  0  0  0
  189.7390  173.2630  136.3590 N   0  0  0  0  0  0  0  0  0  0  0  0
  188.2730  173.8580  138.3390 C   0  0  0  0  0  2  0  0  0  0  0  0
  189.8720  171.9170  138.4560 C   0  0  0  0  0  2  0  0  0  0  0  0
  189.3250  173.1530  139.1770 C   0  0  0  0  0  3  0  0  0  0  0  0
  188.8780  174.2820  136.9930 C   0  0  0  0  0  2  0  0  0  0  0  0
  191.0950  174.9260  135.9520 C   0  0  0  0  0  1  0  0  0  0  0  0
  191.0290  173.6540  136.5240 O   0  0  0  0  0  0  0  0  0  0  0  0
  195.7570  170.0080  144.4580 C   0  0  0  0  0  2  0  0  0  0  0  0
  196.2450  169.6690  146.8540 C   0  0  0  0  0  1  0  0  0  0  0  0
  195.7490  170.6690  145.8260 C   0  0  1  0  0  3  0  0  0  0  0  0
  196.6220  171.8370  145.8150 N   0  0  0  0  0  2  0  0  0  0  0  0
  194.7310  173.3940  145.4160 N   0  0  0  0  0  2  0  0  0  0  0  0
  196.1290  173.1630  145.6320 C   0  0  0  0  0  0  0  0  0  0  0  0
  196.9360  174.1280  145.6690 O   0  0  0  0  0  0  0  0  0  0  0  0
  194.1030  174.7110  145.4200 C   0  0  0  0  0  3  0  0  0  0  0  0
  191.9600  175.9250  146.0270 C   0  0  0  0  0  2  0  0  0  0  0  0
  192.7930  176.3520  143.9860 C   0  0  0  0  0  2  0  0  0  0  0  0
  192.6330  176.9010  145.2720 O   0  0  0  0  0  0  0  0  0  0  0  0
  193.7670  175.1620  143.9930 C   0  0  0  0  0  2  0  0  0  0  0  0
  192.8970  174.7580  146.3690 C   0  0  0  0  0  2  0  0  0  0  0  0
  2 31  1  0  0  0  0
  3  1  1  0  0  0  0
  3  5  1  0  0  0  0
  4  9  1  0  0  0  0
  4  1  1  0  0  0  0
  5  2  1  0  0  0  0
  6  8  1  0  0  0  0
  6  3  1  0  0  0  0
  7  5  2  0  0  0  0
  8  9  1  0  0  0  0
  9 10  1  6  0  0  0
 10 12  1  0  0  0  0
 11 17  1  0  0  0  0
 11 15  1  1  0  0  0
 12 20  1  0  0  0  0
 13 21  1  0  0  0  0
 13 17  1  0  0  0  0
 14 11  1  0  0  0  0
 16 13  2  0  0  0  0
 18 14  1  0  0  0  0
 18 16  1  0  0  0  0
 19 12  2  0  0  0  0
 19 16  1  0  0  0  0
 20 21  2  0  0  0  0
 22 10  1  0  0  0  0
 23 26  1  0  0  0  0
 24 30  1  0  0  0  0
 24 23  1  0  0  0  0
 24 28  1  0  0  0  0
 25 27  1  0  0  0  0
 26 27  1  0  0  0  0
 27 22  1  0  0  0  0
 28 25  1  0  0  0  0
 29 30  1  0  0  0  0
 31 33  1  0  0  0  0
 33 32  1  1  0  0  0
 34 33  1  0  0  0  0
 35 38  1  0  0  0  0
 35 36  1  0  0  0  0
 36 37  2  0  0  0  0
 36 34  1  0  0  0  0
 38 43  1  0  0  0  0
 39 43  1  0  0  0  0
 40 42  1  0  0  0  0
 40 41  1  0  0  0  0
 41 39  1  0  0  0  0
 42 38  1  0  0  0  0
M  END
>  <MODEL>
3

>  <REMARK>
 VINA RESULT:      -7.3      3.151      9.138
  Name = 
  9 active torsions:
  status: ('A' for Active; 'I' for Inactive)
    1  A    between atoms: C_1  and  N_34
    2  A    between atoms: C_1  and  C_35
    3  A    between atoms: N_3  and  C_42
    4  A    between atoms: N_4  and  C_15
    5  A    between atoms: C_8  and  N_34
    6  A    between atoms: C_11  and  N_14
    7  A    between atoms: C_15  and  C_42
    8  A    between atoms: N_19  and  O_37
    9  A    between atoms: N_34  and  C_38
                            x       y       z     vdW  Elec       q    Type
                         _______ _______ _______ _____ _____    ______ ____

>  <TORSDO>
F 9

$$$$
=
 OpenBabel11052421203D

 43 47  0  0  1  0  0  0  0  0999 V2000
  190.7810  174.8430  145.6980 C   0  0  0  0  0  2  0  0  0  0  0  0
  188.4860  176.5520  146.0370 N   0  0  0  0  0  2  0  0  0  0  0  0
  190.8540  176.0260  146.5620 N   0  0  0  0  0  0  0  0  0  0  0  0
  192.1640  174.2280  145.4710 C   0  0  0  0  0  2  0  0  0  0  0  0
  189.6990  176.8570  146.7320 C   0  0  0  0  0  0  0  0  0  0  0  0
  192.1060  176.3670  147.2380 C   0  0  0  0  0  2  0  0  0  0  0  0
  189.7550  177.8700  147.4850 O   0  0  0  0  0  0  0  0  0  0  0  0
  193.2680  176.4080  146.2420 C   0  0  0  0  0  2  0  0  0  0  0  0
  193.1590  175.3380  145.1410 C   0  0  1  0  0  3  0  0  0  0  0  0
  194.4720  174.8020  144.7790 N   0  0  0  0  0  0  0  0  0  0  0  0
  195.9700  175.2090  138.4740 C   0  0  2  0  0  3  0  0  0  0  0  0
  195.0640  174.9910  143.4730 C   0  0  0  0  0  0  0  0  0  0  0  0
  196.1710  175.3970  140.9210 C   0  0  0  0  0  0  0  0  0  0  0  0
  195.3160  173.8430  138.6860 C   0  0  0  0  0  2  0  0  0  0  0  0
  196.9070  175.1560  137.2870 C   0  0  0  0  0  1  0  0  0  0  0  0
  195.0850  174.5300  141.0850 C   0  0  0  0  0  0  0  0  0  0  0  0
  196.6910  175.6100  139.6400 O   0  0  0  0  0  0  0  0  0  0  0  0
  194.5720  173.8370  139.9450 N   0  0  0  0  0  2  0  0  0  0  0  0
  194.5240  174.3380  142.3490 C   0  0  0  0  0  3  0  0  0  0  0  0
  196.1760  175.8350  143.2980 C   0  0  0  0  0  3  0  0  0  0  0  0
  196.7270  176.0380  142.0300 C   0  0  0  0  0  3  0  0  0  0  0  0
  195.1220  173.9680  145.7860 C   0  0  0  0  0  2  0  0  0  0  0  0
  196.9030  170.6590  146.0990 C   0  0  0  0  0  2  0  0  0  0  0  0
  196.2660  169.8770  145.0300 N   0  0  0  0  0  0  0  0  0  0  0  0
  194.4500  171.6020  145.4160 C   0  0  0  0  0  2  0  0  0  0  0  0
  196.8710  172.1670  145.8170 C   0  0  0  0  0  2  0  0  0  0  0  0
  195.5470  172.6310  145.2000 C   0  0  0  0  0  3  0  0  0  0  0  0
  194.8610  170.2630  144.7890 C   0  0  0  0  0  2  0  0  0  0  0  0
  196.2020  169.4500  142.8900 C   0  0  0  0  0  1  0  0  0  0  0  0
  196.9540  170.0870  143.8790 O   0  0  0  0  0  0  0  0  0  0  0  0
  187.3060  177.4030  146.1020 C   0  0  0  0  0  2  0  0  0  0  0  0
  185.1060  177.8570  145.0810 C   0  0  0  0  0  1  0  0  0  0  0  0
  186.4850  177.2800  144.8290 C   0  0  1  0  0  3  0  0  0  0  0  0
  187.1370  178.0120  143.7500 N   0  0  0  0  0  2  0  0  0  0  0  0
  188.2020  175.9640  142.8410 N   0  0  0  0  0  2  0  0  0  0  0  0
  187.9580  177.3750  142.7730 C   0  0  0  0  0  0  0  0  0  0  0  0
  188.4600  178.0650  141.8480 O   0  0  0  0  0  0  0  0  0  0  0  0
  188.8530  175.1900  141.7890 C   0  0  0  0  0  3  0  0  0  0  0  0
  189.0620  172.8460  140.8430 C   0  0  0  0  0  2  0  0  0  0  0  0
  190.9880  173.9420  141.1980 C   0  0  0  0  0  2  0  0  0  0  0  0
  190.1120  173.5100  140.1860 O   0  0  0  0  0  0  0  0  0  0  0  0
  190.3540  175.0380  142.0700 C   0  0  0  0  0  2  0  0  0  0  0  0
  188.1430  173.8490  141.5550 C   0  0  0  0  0  2  0  0  0  0  0  0
  1  3  1  0  0  0  0
  2 31  1  0  0  0  0
  2  5  1  0  0  0  0
  3  5  1  0  0  0  0
  3  6  1  0  0  0  0
  4  1  1  0  0  0  0
  5  7  2  0  0  0  0
  8  6  1  0  0  0  0
  9 10  1  1  0  0  0
  9  4  1  0  0  0  0
  9  8  1  0  0  0  0
 10 22  1  0  0  0  0
 11 15  1  6  0  0  0
 11 14  1  0  0  0  0
 11 17  1  0  0  0  0
 12 10  1  0  0  0  0
 13 16  2  0  0  0  0
 13 21  1  0  0  0  0
 14 18  1  0  0  0  0
 16 19  1  0  0  0  0
 17 13  1  0  0  0  0
 18 16  1  0  0  0  0
 19 12  2  0  0  0  0
 20 12  1  0  0  0  0
 21 20  2  0  0  0  0
 24 23  1  0  0  0  0
 26 23  1  0  0  0  0
 27 25  1  0  0  0  0
 27 22  1  0  0  0  0
 27 26  1  0  0  0  0
 28 24  1  0  0  0  0
 28 25  1  0  0  0  0
 29 30  1  0  0  0  0
 30 24  1  0  0  0  0
 33 32  1  1  0  0  0
 33 31  1  0  0  0  0
 34 33  1  0  0  0  0
 36 35  1  0  0  0  0
 36 34  1  0  0  0  0
 37 36  2  0  0  0  0
 38 42  1  0  0  0  0
 38 35  1  0  0  0  0
 39 43  1  0  0  0  0
 40 42  1  0  0  0  0
 41 39  1  0  0  0  0
 41 40  1  0  0  0  0
 43 38  1  0  0  0  0
M  END
>  <MODEL>
4

>  <REMARK>
 VINA RESULT:      -7.2      1.647      3.613
  Name = 
  9 active torsions:
  status: ('A' for Active; 'I' for Inactive)
    1  A    between atoms: C_1  and  N_34
    2  A    between atoms: C_1  and  C_35
    3  A    between atoms: N_3  and  C_42
    4  A    between atoms: N_4  and  C_15
    5  A    between atoms: C_8  and  N_34
    6  A    between atoms: C_11  and  N_14
    7  A    between atoms: C_15  and  C_42
    8  A    between atoms: N_19  and  O_37
    9  A    between atoms: N_34  and  C_38
                            x       y       z     vdW  Elec       q    Type
                         _______ _______ _______ _____ _____    ______ ____

>  <TORSDO>
F 9

$$$$
=
 OpenBabel11052421203D

 43 47  0  0  1  0  0  0  0  0999 V2000
  189.8100  175.2040  145.9150 C   0  0  0  0  0  2  0  0  0  0  0  0
  188.0500  177.2280  146.9710 N   0  0  0  0  0  2  0  0  0  0  0  0
  190.3390  176.2990  146.7350 N   0  0  0  0  0  0  0  0  0  0  0  0
  190.9340  174.3950  145.2650 C   0  0  0  0  0  2  0  0  0  0  0  0
  189.4490  177.2890  147.2650 C   0  0  0  0  0  0  0  0  0  0  0  0
  191.7760  176.3910  147.0000 C   0  0  0  0  0  2  0  0  0  0  0  0
  189.9010  178.2260  147.9810 O   0  0  0  0  0  0  0  0  0  0  0  0
  192.5750  176.3150  145.6960 C   0  0  0  0  0  2  0  0  0  0  0  0
  191.9590  175.3540  144.6640 C   0  0  1  0  0  3  0  0  0  0  0  0
  192.9900  174.6430  143.9070 N   0  0  0  0  0  0  0  0  0  0  0  0
  196.5010  169.6410  146.1020 C   0  0  2  0  0  3  0  0  0  0  0  0
  193.9340  173.7380  144.5240 C   0  0  0  0  0  0  0  0  0  0  0  0
  195.7850  171.9560  145.6670 C   0  0  0  0  0  0  0  0  0  0  0  0
  195.0320  169.2870  146.3350 C   0  0  0  0  0  2  0  0  0  0  0  0
  197.3740  168.9220  147.1070 C   0  0  0  0  0  1  0  0  0  0  0  0
  194.5200  171.5010  145.2800 C   0  0  0  0  0  0  0  0  0  0  0  0
  196.7040  171.0510  146.2070 O   0  0  0  0  0  0  0  0  0  0  0  0
  194.1770  170.1320  145.5020 N   0  0  0  0  0  2  0  0  0  0  0  0
  193.6040  172.3810  144.6980 C   0  0  0  0  0  3  0  0  0  0  0  0
  195.1990  174.1880  144.9470 C   0  0  0  0  0  3  0  0  0  0  0  0
  196.1200  173.3040  145.5150 C   0  0  0  0  0  3  0  0  0  0  0  0
  193.0840  174.9740  142.4880 C   0  0  0  0  0  2  0  0  0  0  0  0
  190.2850  173.7890  140.2550 C   0  0  0  0  0  2  0  0  0  0  0  0
  190.9200  172.6630  139.5550 N   0  0  0  0  0  0  0  0  0  0  0  0
  192.9950  173.9590  140.2180 C   0  0  0  0  0  2  0  0  0  0  0  0
  190.9130  174.0480  141.6310 C   0  0  0  0  0  2  0  0  0  0  0  0
  192.4370  173.8960  141.6300 C   0  0  0  0  0  3  0  0  0  0  0  0
  192.3730  172.8470  139.3620 C   0  0  0  0  0  2  0  0  0  0  0  0
  190.4400  170.5410  139.3710 C   0  0  0  0  0  1  0  0  0  0  0  0
  190.7410  171.5410  140.2980 O   0  0  0  0  0  0  0  0  0  0  0  0
  187.1080  178.2480  147.4090 C   0  0  0  0  0  2  0  0  0  0  0  0
  184.6720  177.9180  147.6340 C   0  0  0  0  0  1  0  0  0  0  0  0
  185.8000  178.1350  146.6440 C   0  0  1  0  0  3  0  0  0  0  0  0
  185.5640  179.3590  145.8880 N   0  0  0  0  0  2  0  0  0  0  0  0
  186.3780  178.3520  143.7710 N   0  0  0  0  0  2  0  0  0  0  0  0
  185.8280  179.4640  144.4900 C   0  0  0  0  0  0  0  0  0  0  0  0
  185.5670  180.5410  143.8950 O   0  0  0  0  0  0  0  0  0  0  0  0
  186.4950  178.2880  142.3180 C   0  0  0  0  0  3  0  0  0  0  0  0
  185.1580  177.8870  140.2010 C   0  0  0  0  0  2  0  0  0  0  0  0
  187.0820  176.7460  140.3840 C   0  0  0  0  0  2  0  0  0  0  0  0
  186.4760  177.8270  139.7170 O   0  0  0  0  0  0  0  0  0  0  0  0
  187.2580  177.0300  141.8850 C   0  0  0  0  0  2  0  0  0  0  0  0
  185.1270  178.4320  141.6360 C   0  0  0  0  0  2  0  0  0  0  0  0
  1  3  1  0  0  0  0
  2  5  1  0  0  0  0
  2 31  1  0  0  0  0
  3  6  1  0  0  0  0
  3  5  1  0  0  0  0
  4  1  1  0  0  0  0
  5  7  2  0  0  0  0
  8  6  1  0  0  0  0
  9 10  1  1  0  0  0
  9  4  1  0  0  0  0
  9  8  1  0  0  0  0
 10 12  1  0  0  0  0
 11 17  1  0  0  0  0
 11 14  1  0  0  0  0
 11 15  1  1  0  0  0
 12 19  2  0  0  0  0
 12 20  1  0  0  0  0
 13 17  1  0  0  0  0
 16 18  1  0  0  0  0
 16 13  2  0  0  0  0
 18 14  1  0  0  0  0
 19 16  1  0  0  0  0
 20 21  2  0  0  0  0
 21 13  1  0  0  0  0
 22 10  1  0  0  0  0
 23 26  1  0  0  0  0
 24 23  1  0  0  0  0
 24 30  1  0  0  0  0
 25 27  1  0  0  0  0
 27 26  1  0  0  0  0
 27 22  1  0  0  0  0
 28 24  1  0  0  0  0
 28 25  1  0  0  0  0
 29 30  1  0  0  0  0
 33 31  1  0  0  0  0
 33 32  1  1  0  0  0
 34 33  1  0  0  0  0
 35 36  1  0  0  0  0
 36 34  1  0  0  0  0
 37 36  2  0  0  0  0
 38 35  1  0  0  0  0
 39 43  1  0  0  0  0
 40 42  1  0  0  0  0
 41 39  1  0  0  0  0
 41 40  1  0  0  0  0
 42 38  1  0  0  0  0
 43 38  1  0  0  0  0
M  END
>  <MODEL>
5

>  <REMARK>
 VINA RESULT:      -7.0      2.677      6.115
  Name = 
  9 active torsions:
  status: ('A' for Active; 'I' for Inactive)
    1  A    between atoms: C_1  and  N_34
    2  A    between atoms: C_1  and  C_35
    3  A    between atoms: N_3  and  C_42
    4  A    between atoms: N_4  and  C_15
    5  A    between atoms: C_8  and  N_34
    6  A    between atoms: C_11  and  N_14
    7  A    between atoms: C_15  and  C_42
    8  A    between atoms: N_19  and  O_37
    9  A    between atoms: N_34  and  C_38
                            x       y       z     vdW  Elec       q    Type
                         _______ _______ _______ _____ _____    ______ ____

>  <TORSDO>
F 9

$$$$
=
 OpenBabel11052421203D

 43 47  0  0  1  0  0  0  0  0999 V2000
  189.3010  174.8630  146.0000 C   0  0  0  0  0  2  0  0  0  0  0  0
  187.5030  177.0970  146.2910 N   0  0  0  0  0  2  0  0  0  0  0  0
  189.6890  176.0340  146.7920 N   0  0  0  0  0  0  0  0  0  0  0  0
  190.4830  173.9180  145.7780 C   0  0  0  0  0  2  0  0  0  0  0  0
  188.7780  177.1310  146.9400 C   0  0  0  0  0  0  0  0  0  0  0  0
  191.0110  176.0930  147.4190 C   0  0  0  0  0  2  0  0  0  0  0  0
  189.1060  178.1350  147.6310 O   0  0  0  0  0  0  0  0  0  0  0  0
  192.1110  175.7970  146.3960 C   0  0  0  0  0  2  0  0  0  0  0  0
  191.7060  174.7330  145.3620 C   0  0  1  0  0  3  0  0  0  0  0  0
  192.8350  173.8740  145.0020 N   0  0  0  0  0  0  0  0  0  0  0  0
  192.2870  169.5160  140.2190 C   0  0  2  0  0  3  0  0  0  0  0  0
  192.6970  172.7090  144.1560 C   0  0  0  0  0  0  0  0  0  0  0  0
  192.4850  170.4580  142.4860 C   0  0  0  0  0  0  0  0  0  0  0  0
  191.3330  170.6640  139.8840 C   0  0  0  0  0  2  0  0  0  0  0  0
  191.7910  168.2310  139.5930 C   0  0  0  0  0  1  0  0  0  0  0  0
  192.1620  171.7280  141.9960 C   0  0  0  0  0  0  0  0  0  0  0  0
  192.4020  169.3520  141.6330 O   0  0  0  0  0  0  0  0  0  0  0  0
  191.6970  171.8540  140.6500 N   0  0  0  0  0  2  0  0  0  0  0  0
  192.2810  172.8490  142.8190 C   0  0  0  0  0  3  0  0  0  0  0  0
  192.9890  171.4220  144.6440 C   0  0  0  0  0  3  0  0  0  0  0  0
  192.8840  170.3020  143.8160 C   0  0  0  0  0  3  0  0  0  0  0  0
  194.1130  174.2010  145.6300 C   0  0  0  0  0  2  0  0  0  0  0  0
  196.2980  176.4110  143.4940 C   0  0  0  0  0  2  0  0  0  0  0  0
  197.3990  175.4990  143.1520 N   0  0  0  0  0  0  0  0  0  0  0  0
  196.5670  174.3690  145.2630 C   0  0  0  0  0  2  0  0  0  0  0  0
  194.9900  175.6630  143.7870 C   0  0  0  0  0  2  0  0  0  0  0  0
  195.2070  174.3740  144.5870 C   0  0  0  0  0  3  0  0  0  0  0  0
  197.6740  174.5040  144.2080 C   0  0  0  0  0  2  0  0  0  0  0  0
  197.4210  175.6700  140.9760 C   0  0  0  0  0  1  0  0  0  0  0  0
  197.0600  174.8230  142.0250 O   0  0  0  0  0  0  0  0  0  0  0  0
  186.5690  178.2120  146.3330 C   0  0  0  0  0  2  0  0  0  0  0  0
  184.2010  178.6720  145.8100 C   0  0  0  0  0  1  0  0  0  0  0  0
  185.4760  178.0370  145.2910 C   0  0  1  0  0  3  0  0  0  0  0  0
  185.8760  178.6800  144.0450 N   0  0  0  0  0  2  0  0  0  0  0  0
  187.2000  176.7120  143.3150 N   0  0  0  0  0  2  0  0  0  0  0  0
  186.7000  178.0340  143.0760 C   0  0  0  0  0  0  0  0  0  0  0  0
  186.9750  178.6360  142.0060 O   0  0  0  0  0  0  0  0  0  0  0  0
  187.8750  175.8930  142.3140 C   0  0  0  0  0  3  0  0  0  0  0  0
  188.4120  173.4920  141.6980 C   0  0  0  0  0  2  0  0  0  0  0  0
  190.1320  174.9340  141.6450 C   0  0  0  0  0  2  0  0  0  0  0  0
  189.2540  174.2020  140.8240 O   0  0  0  0  0  0  0  0  0  0  0  0
  189.3980  176.0390  142.4210 C   0  0  0  0  0  2  0  0  0  0  0  0
  187.4010  174.4330  142.3670 C   0  0  0  0  0  2  0  0  0  0  0  0
  1  3  1  0  0  0  0
  2 31  1  0  0  0  0
  2  5  1  0  0  0  0
  3  5  1  0  0  0  0
  3  6  1  0  0  0  0
  4  1  1  0  0  0  0
  5  7  2  0  0  0  0
  8  6  1  0  0  0  0
  9 10  1  1  0  0  0
  9  4  1  0  0  0  0
  9  8  1  0  0  0  0
 10 22  1  0  0  0  0
 11 15  1  6  0  0  0
 11 17  1  0  0  0  0
 12 20  1  0  0  0  0
 12 10  1  0  0  0  0
 13 21  1  0  0  0  0
 14 11  1  0  0  0  0
 14 18  1  0  0  0  0
 16 13  2  0  0  0  0
 16 19  1  0  0  0  0
 17 13  1  0  0  0  0
 18 16  1  0  0  0  0
 19 12  2  0  0  0  0
 21 20  2  0  0  0  0
 23 26  1  0  0  0  0
 24 23  1  0  0  0  0
 24 28  1  0  0  0  0
 26 27  1  0  0  0  0
 27 25  1  0  0  0  0
 27 22  1  0  0  0  0
 28 25  1  0  0  0  0
 29 30  1  0  0  0  0
 30 24  1  0  0  0  0
 33 32  1  1  0  0  0
 33 31  1  0  0  0  0
 34 33  1  0  0  0  0
 36 35  1  0  0  0  0
 36 34  1  0  0  0  0
 37 36  2  0  0  0  0
 38 43  1  0  0  0  0
 38 42  1  0  0  0  0
 38 35  1  0  0  0  0
 39 43  1  0  0  0  0
 40 42  1  0  0  0  0
 41 40  1  0  0  0  0
 41 39  1  0  0  0  0
M  END
>  <MODEL>
6

>  <REMARK>
 VINA RESULT:      -7.0      2.752      4.839
  Name = 
  9 active torsions:
  status: ('A' for Active; 'I' for Inactive)
    1  A    between atoms: C_1  and  N_34
    2  A    between atoms: C_1  and  C_35
    3  A    between atoms: N_3  and  C_42
    4  A    between atoms: N_4  and  C_15
    5  A    between atoms: C_8  and  N_34
    6  A    between atoms: C_11  and  N_14
    7  A    between atoms: C_15  and  C_42
    8  A    between atoms: N_19  and  O_37
    9  A    between atoms: N_34  and  C_38
                            x       y       z     vdW  Elec       q    Type
                         _______ _______ _______ _____ _____    ______ ____

>  <TORSDO>
F 9

$$$$
=
 OpenBabel11052421203D

 43 47  0  0  1  0  0  0  0  0999 V2000
  188.4590  177.6690  143.2210 C   0  0  0  0  0  2  0  0  0  0  0  0
  185.9280  178.5680  144.2660 N   0  0  0  0  0  2  0  0  0  0  0  0
  187.2080  177.3420  142.5290 N   0  0  0  0  0  0  0  0  0  0  0  0
  189.6420  176.8950  142.6370 C   0  0  0  0  0  2  0  0  0  0  0  0
  185.9580  177.8100  143.0530 C   0  0  0  0  0  0  0  0  0  0  0  0
  187.2310  176.5270  141.3130 C   0  0  0  0  0  2  0  0  0  0  0  0
  184.8810  177.5400  142.4530 O   0  0  0  0  0  0  0  0  0  0  0  0
  188.0250  175.2380  141.5380 C   0  0  0  0  0  2  0  0  0  0  0  0
  189.2450  175.4310  142.4570 C   0  0  1  0  0  3  0  0  0  0  0  0
  190.3770  174.6090  142.0300 N   0  0  0  0  0  0  0  0  0  0  0  0
  195.8740  174.4670  145.4830 C   0  0  2  0  0  3  0  0  0  0  0  0
  191.5030  174.3150  142.8880 C   0  0  0  0  0  0  0  0  0  0  0  0
  193.6800  173.7960  144.5900 C   0  0  0  0  0  0  0  0  0  0  0  0
  196.2490  174.9210  144.0720 C   0  0  0  0  0  2  0  0  0  0  0  0
  197.0570  173.7890  146.1410 C   0  0  0  0  0  1  0  0  0  0  0  0
  193.8050  174.7320  143.5570 C   0  0  0  0  0  0  0  0  0  0  0  0
  194.7630  173.5700  145.4460 O   0  0  0  0  0  0  0  0  0  0  0  0
  195.0580  175.3900  143.3660 N   0  0  0  0  0  2  0  0  0  0  0  0
  192.7200  175.0020  142.7200 C   0  0  0  0  0  3  0  0  0  0  0  0
  191.4020  173.3550  143.9120 C   0  0  0  0  0  3  0  0  0  0  0  0
  192.4830  173.0950  144.7580 C   0  0  0  0  0  3  0  0  0  0  0  0
  190.3610  174.1720  140.6360 C   0  0  0  0  0  2  0  0  0  0  0  0
  190.0660  170.8750  138.8290 C   0  0  0  0  0  2  0  0  0  0  0  0
  191.2140  170.1360  139.3720 N   0  0  0  0  0  0  0  0  0  0  0  0
  192.0080  172.5030  139.8050 C   0  0  0  0  0  2  0  0  0  0  0  0
  189.5520  171.9480  139.7990 C   0  0  0  0  0  2  0  0  0  0  0  0
  190.6810  172.6890  140.5220 C   0  0  0  0  0  3  0  0  0  0  0  0
  192.3520  171.0100  139.7250 C   0  0  0  0  0  2  0  0  0  0  0  0
  191.6180  168.3570  140.5730 C   0  0  0  0  0  1  0  0  0  0  0  0
  190.8170  169.4990  140.5040 O   0  0  0  0  0  0  0  0  0  0  0  0
  184.6870  178.9990  144.8940 C   0  0  0  0  0  2  0  0  0  0  0  0
  184.9290  176.8830  146.1410 C   0  0  0  0  0  1  0  0  0  0  0  0
  184.5150  178.3380  146.2510 C   0  0  1  0  0  3  0  0  0  0  0  0
  185.3480  179.0140  147.2380 N   0  0  0  0  0  2  0  0  0  0  0  0
  187.1340  177.2990  147.0820 N   0  0  0  0  0  2  0  0  0  0  0  0
  186.6270  178.5210  147.6330 C   0  0  0  0  0  0  0  0  0  0  0  0
  187.3070  179.1770  148.4640 O   0  0  0  0  0  0  0  0  0  0  0  0
  188.5000  176.8180  147.2630 C   0  0  0  0  0  3  0  0  0  0  0  0
  190.7780  176.7430  146.1500 C   0  0  0  0  0  2  0  0  0  0  0  0
  190.0090  174.7950  146.9580 C   0  0  0  0  0  2  0  0  0  0  0  0
  190.9440  175.8190  147.1970 O   0  0  0  0  0  0  0  0  0  0  0  0
  188.5650  175.2910  147.1380 C   0  0  0  0  0  2  0  0  0  0  0  0
  189.4810  177.5450  146.3320 C   0  0  0  0  0  2  0  0  0  0  0  0
  2 31  1  0  0  0  0
  3  5  1  0  0  0  0
  3  1  1  0  0  0  0
  4  1  1  0  0  0  0
  5  2  1  0  0  0  0
  6  8  1  0  0  0  0
  6  3  1  0  0  0  0
  7  5  2  0  0  0  0
  8  9  1  0  0  0  0
  9 10  1  6  0  0  0
  9  4  1  0  0  0  0
 10 12  1  0  0  0  0
 11 15  1  6  0  0  0
 12 20  1  0  0  0  0
 13 21  1  0  0  0  0
 13 17  1  0  0  0  0
 14 11  1  0  0  0  0
 16 13  2  0  0  0  0
 17 11  1  0  0  0  0
 18 16  1  0  0  0  0
 18 14  1  0  0  0  0
 19 12  2  0  0  0  0
 19 16  1  0  0  0  0
 20 21  2  0  0  0  0
 22 10  1  0  0  0  0
 23 24  1  0  0  0  0
 23 26  1  0  0  0  0
 24 28  1  0  0  0  0
 24 30  1  0  0  0  0
 25 27  1  0  0  0  0
 26 27  1  0  0  0  0
 27 22  1  0  0  0  0
 28 25  1  0  0  0  0
 30 29  1  0  0  0  0
 31 33  1  0  0  0  0
 33 32  1  6  0  0  0
 33 34  1  0  0  0  0
 34 36  1  0  0  0  0
 35 38  1  0  0  0  0
 35 36  1  0  0  0  0
 36 37  2  0  0  0  0
 39 43  1  0  0  0  0
 39 41  1  0  0  0  0
 40 42  1  0  0  0  0
 40 41  1  0  0  0  0
 42 38  1  0  0  0  0
 43 38  1  0  0  0  0
M  END
>  <MODEL>
7

>  <REMARK>
 VINA RESULT:      -7.0      2.721      4.860
  Name = 
  9 active torsions:
  status: ('A' for Active; 'I' for Inactive)
    1  A    between atoms: C_1  and  N_34
    2  A    between atoms: C_1  and  C_35
    3  A    between atoms: N_3  and  C_42
    4  A    between atoms: N_4  and  C_15
    5  A    between atoms: C_8  and  N_34
    6  A    between atoms: C_11  and  N_14
    7  A    between atoms: C_15  and  C_42
    8  A    between atoms: N_19  and  O_37
    9  A    between atoms: N_34  and  C_38
                            x       y       z     vdW  Elec       q    Type
                         _______ _______ _______ _____ _____    ______ ____

>  <TORSDO>
F 9

$$$$
=
 OpenBabel11052421203D

 43 47  0  0  1  0  0  0  0  0999 V2000
  190.9720  172.5320  141.6670 C   0  0  0  0  0  2  0  0  0  0  0  0
  190.7430  171.1100  139.1710 N   0  0  0  0  0  2  0  0  0  0  0  0
  189.7580  172.6470  140.8530 N   0  0  0  0  0  0  0  0  0  0  0  0
  190.9780  173.5480  142.8110 C   0  0  0  0  0  2  0  0  0  0  0  0
  189.6530  171.9210  139.6210 C   0  0  0  0  0  0  0  0  0  0  0  0
  188.6590  173.5110  141.2870 C   0  0  0  0  0  2  0  0  0  0  0  0
  188.6040  172.0090  138.9240 O   0  0  0  0  0  0  0  0  0  0  0  0
  189.1720  174.9160  141.6160 C   0  0  0  0  0  2  0  0  0  0  0  0
  190.5640  174.9150  142.2710 C   0  0  1  0  0  3  0  0  0  0  0  0
  190.6830  175.9600  143.2880 N   0  0  0  0  0  0  0  0  0  0  0  0
  185.2480  178.0590  146.1550 C   0  0  2  0  0  3  0  0  0  0  0  0
  189.5970  176.3240  144.1710 C   0  0  0  0  0  0  0  0  0  0  0  0
  187.4490  176.9960  145.8550 C   0  0  0  0  0  0  0  0  0  0  0  0
  185.7250  179.1820  145.2330 C   0  0  0  0  0  2  0  0  0  0  0  0
  184.4420  178.6340  147.3000 C   0  0  0  0  0  1  0  0  0  0  0  0
  187.5990  177.6370  144.6210 C   0  0  0  0  0  0  0  0  0  0  0  0
  186.3590  177.3220  146.6680 O   0  0  0  0  0  0  0  0  0  0  0  0
  186.6660  178.6520  144.2480 N   0  0  0  0  0  2  0  0  0  0  0  0
  188.6570  177.2940  143.7760 C   0  0  0  0  0  3  0  0  0  0  0  0
  189.4510  175.7110  145.4290 C   0  0  0  0  0  3  0  0  0  0  0  0
  188.3840  176.0440  146.2670 C   0  0  0  0  0  3  0  0  0  0  0  0
  191.9430  176.6990  143.3010 C   0  0  0  0  0  2  0  0  0  0  0  0
  195.5060  176.1850  144.4220 C   0  0  0  0  0  2  0  0  0  0  0  0
  195.3160  175.6100  145.7610 N   0  0  0  0  0  0  0  0  0  0  0  0
  193.0930  176.7990  145.5040 C   0  0  0  0  0  2  0  0  0  0  0  0
  194.3170  175.9050  143.4940 C   0  0  0  0  0  2  0  0  0  0  0  0
  192.9650  176.0240  144.2040 C   0  0  0  0  0  3  0  0  0  0  0  0
  194.0940  176.0970  146.4320 C   0  0  0  0  0  2  0  0  0  0  0  0
  196.5140  173.7840  145.7730 C   0  0  0  0  0  1  0  0  0  0  0  0
  195.2090  174.2620  145.6370 O   0  0  0  0  0  0  0  0  0  0  0  0
  190.7320  170.4170  137.8900 C   0  0  0  0  0  2  0  0  0  0  0  0
  191.6860  170.2910  135.6180 C   0  0  0  0  0  1  0  0  0  0  0  0
  191.7740  171.0040  136.9540 C   0  0  1  0  0  3  0  0  0  0  0  0
  191.5250  172.4280  136.7690 N   0  0  0  0  0  2  0  0  0  0  0  0
  193.6310  173.0670  137.9160 N   0  0  0  0  0  2  0  0  0  0  0  0
  192.4320  173.4330  137.2210 C   0  0  0  0  0  0  0  0  0  0  0  0
  192.1700  174.6430  136.9960 O   0  0  0  0  0  0  0  0  0  0  0  0
  194.7110  173.9930  138.2390 C   0  0  0  0  0  3  0  0  0  0  0  0
  197.1240  174.0890  139.0150 C   0  0  0  0  0  2  0  0  0  0  0  0
  195.6840  175.4270  140.0990 C   0  0  0  0  0  2  0  0  0  0  0  0
  196.7290  175.4310  139.1570 O   0  0  0  0  0  0  0  0  0  0  0  0
  194.4260  174.7330  139.5520 C   0  0  0  0  0  2  0  0  0  0  0  0
  196.0770  173.2930  138.2230 C   0  0  0  0  0  2  0  0  0  0  0  0
  1  4  1  0  0  0  0
  2  5  1  0  0  0  0
  3  6  1  0  0  0  0
  3  1  1  0  0  0  0
  5  3  1  0  0  0  0
  6  8  1  0  0  0  0
  7  5  2  0  0  0  0
  8  9  1  0  0  0  0
  9  4  1  0  0  0  0
  9 10  1  1  0  0  0
 10 22  1  0  0  0  0
 10 12  1  0  0  0  0
 11 17  1  0  0  0  0
 11 15  1  1  0  0  0
 12 20  1  0  0  0  0
 13 21  1  0  0  0  0
 13 17  1  0  0  0  0
 14 11  1  0  0  0  0
 16 13  2  0  0  0  0
 18 16  1  0  0  0  0
 18 14  1  0  0  0  0
 19 12  2  0  0  0  0
 19 16  1  0  0  0  0
 20 21  2  0  0  0  0
 22 27  1  0  0  0  0
 23 24  1  0  0  0  0
 24 28  1  0  0  0  0
 25 28  1  0  0  0  0
 26 27  1  0  0  0  0
 26 23  1  0  0  0  0
 27 25  1  0  0  0  0
 30 24  1  0  0  0  0
 30 29  1  0  0  0  0
 31  2  1  0  0  0  0
 33 32  1  6  0  0  0
 33 31  1  0  0  0  0
 34 33  1  0  0  0  0
 34 36  1  0  0  0  0
 35 38  1  0  0  0  0
 36 35  1  0  0  0  0
 37 36  2  0  0  0  0
 38 42  1  0  0  0  0
 39 41  1  0  0  0  0
 41 40  1  0  0  0  0
 42 40  1  0  0  0  0
 43 38  1  0  0  0  0
 43 39  1  0  0  0  0
M  END
>  <MODEL>
8

>  <REMARK>
 VINA RESULT:      -7.0      2.826      8.841
  Name = 
  9 active torsions:
  status: ('A' for Active; 'I' for Inactive)
    1  A    between atoms: C_1  and  N_34
    2  A    between atoms: C_1  and  C_35
    3  A    between atoms: N_3  and  C_42
    4  A    between atoms: N_4  and  C_15
    5  A    between atoms: C_8  and  N_34
    6  A    between atoms: C_11  and  N_14
    7  A    between atoms: C_15  and  C_42
    8  A    between atoms: N_19  and  O_37
    9  A    between atoms: N_34  and  C_38
                            x       y       z     vdW  Elec       q    Type
                         _______ _______ _______ _____ _____    ______ ____

>  <TORSDO>
F 9

$$$$
=
 OpenBabel11052421203D

 43 47  0  0  1  0  0  0  0  0999 V2000
  189.3000  174.8800  145.7350 C   0  0  0  0  0  2  0  0  0  0  0  0
  187.6070  176.8650  146.9580 N   0  0  0  0  0  2  0  0  0  0  0  0
  189.8790  176.0900  146.3270 N   0  0  0  0  0  0  0  0  0  0  0  0
  190.3420  174.0930  144.9360 C   0  0  0  0  0  2  0  0  0  0  0  0
  189.0240  177.0610  146.9450 C   0  0  0  0  0  0  0  0  0  0  0  0
  191.3240  176.3160  146.2750 C   0  0  0  0  0  2  0  0  0  0  0  0
  189.5210  178.0990  147.4660 O   0  0  0  0  0  0  0  0  0  0  0  0
  191.8470  176.1650  144.8440 C   0  0  0  0  0  2  0  0  0  0  0  0
  191.1290  175.0580  144.0520 C   0  0  1  0  0  3  0  0  0  0  0  0
  192.0480  174.3510  143.1600 N   0  0  0  0  0  0  0  0  0  0  0  0
  190.7890  171.2850  137.5760 C   0  0  2  0  0  3  0  0  0  0  0  0
  191.5980  173.4960  142.0840 C   0  0  0  0  0  0  0  0  0  0  0  0
  190.7810  171.8200  139.9790 C   0  0  0  0  0  0  0  0  0  0  0  0
  190.6630  172.7830  137.2970 C   0  0  0  0  0  2  0  0  0  0  0  0
  189.9230  170.5030  136.6120 C   0  0  0  0  0  1  0  0  0  0  0  0
  191.2790  173.0980  139.7050 C   0  0  0  0  0  0  0  0  0  0  0  0
  190.4060  170.9880  138.9200 O   0  0  0  0  0  0  0  0  0  0  0  0
  191.3360  173.5440  138.3490 N   0  0  0  0  0  2  0  0  0  0  0  0
  191.6990  173.9270  140.7480 C   0  0  0  0  0  3  0  0  0  0  0  0
  191.0660  172.2200  142.3460 C   0  0  0  0  0  3  0  0  0  0  0  0
  190.6600  171.3860  141.3020 C   0  0  0  0  0  3  0  0  0  0  0  0
  193.4690  174.4740  143.4770 C   0  0  0  0  0  2  0  0  0  0  0  0
  196.3850  172.3720  144.6150 C   0  0  0  0  0  2  0  0  0  0  0  0
  195.7080  171.1600  145.0990 N   0  0  0  0  0  0  0  0  0  0  0  0
  193.7950  172.8100  145.2980 C   0  0  0  0  0  2  0  0  0  0  0  0
  195.5720  173.1050  143.5400 C   0  0  0  0  0  2  0  0  0  0  0  0
  194.0690  173.1230  143.8370 C   0  0  0  0  0  3  0  0  0  0  0  0
  194.3650  171.4300  145.6520 C   0  0  0  0  0  2  0  0  0  0  0  0
  196.3300  169.1920  144.3880 C   0  0  0  0  0  1  0  0  0  0  0  0
  195.5590  170.3070  144.0530 O   0  0  0  0  0  0  0  0  0  0  0  0
  186.6810  177.8530  147.4940 C   0  0  0  0  0  2  0  0  0  0  0  0
  184.2130  177.8630  147.5330 C   0  0  0  0  0  1  0  0  0  0  0  0
  185.4310  177.9390  146.6330 C   0  0  1  0  0  3  0  0  0  0  0  0
  185.4250  179.1990  145.9000 N   0  0  0  0  0  2  0  0  0  0  0  0
  186.3270  178.1450  143.8430 N   0  0  0  0  0  2  0  0  0  0  0  0
  185.8440  179.3000  144.5400 C   0  0  0  0  0  0  0  0  0  0  0  0
  185.7770  180.4140  143.9590 O   0  0  0  0  0  0  0  0  0  0  0  0
  186.5870  178.0980  142.4080 C   0  0  0  0  0  3  0  0  0  0  0  0
  185.4520  177.7960  140.1590 C   0  0  0  0  0  2  0  0  0  0  0  0
  187.2930  176.5600  140.5100 C   0  0  0  0  0  2  0  0  0  0  0  0
  186.8090  177.6800  139.8090 O   0  0  0  0  0  0  0  0  0  0  0  0
  187.3300  176.8120  142.0260 C   0  0  0  0  0  2  0  0  0  0  0  0
  185.3030  178.3190  141.5950 C   0  0  0  0  0  2  0  0  0  0  0  0
  1  3  1  0  0  0  0
  2 31  1  0  0  0  0
  3  5  1  0  0  0  0
  4  1  1  0  0  0  0
  5  2  1  0  0  0  0
  5  7  2  0  0  0  0
  6  3  1  0  0  0  0
  8  6  1  0  0  0  0
  9 10  1  1  0  0  0
  9  8  1  0  0  0  0
  9  4  1  0  0  0  0
 10 22  1  0  0  0  0
 11 15  1  6  0  0  0
 11 17  1  0  0  0  0
 12 20  1  0  0  0  0
 12 10  1  0  0  0  0
 13 21  1  0  0  0  0
 14 11  1  0  0  0  0
 14 18  1  0  0  0  0
 16 13  2  0  0  0  0
 16 19  1  0  0  0  0
 17 13  1  0  0  0  0
 18 16  1  0  0  0  0
 19 12  2  0  0  0  0
 21 20  2  0  0  0  0
 22 27  1  0  0  0  0
 23 24  1  0  0  0  0
 24 28  1  0  0  0  0
 25 28  1  0  0  0  0
 26 27  1  0  0  0  0
 26 23  1  0  0  0  0
 27 25  1  0  0  0  0
 30 29  1  0  0  0  0
 30 24  1  0  0  0  0
 33 31  1  0  0  0  0
 33 32  1  1  0  0  0
 34 33  1  0  0  0  0
 35 36  1  0  0  0  0
 36 34  1  0  0  0  0
 37 36  2  0  0  0  0
 38 35  1  0  0  0  0
 39 43  1  0  0  0  0
 40 42  1  0  0  0  0
 41 39  1  0  0  0  0
 41 40  1  0  0  0  0
 42 38  1  0  0  0  0
 43 38  1  0  0  0  0
M  END
>  <MODEL>
9

>  <REMARK>
 VINA RESULT:      -7.0      2.900      4.885
  Name = 
  9 active torsions:
  status: ('A' for Active; 'I' for Inactive)
    1  A    between atoms: C_1  and  N_34
    2  A    between atoms: C_1  and  C_35
    3  A    between atoms: N_3  and  C_42
    4  A    between atoms: N_4  and  C_15
    5  A    between atoms: C_8  and  N_34
    6  A    between atoms: C_11  and  N_14
    7  A    between atoms: C_15  and  C_42
    8  A    between atoms: N_19  and  O_37
    9  A    between atoms: N_34  and  C_38
                            x       y       z     vdW  Elec       q    Type
                         _______ _______ _______ _____ _____    ______ ____

>  <TORSDO>
F 9

$$$$
