=
 OpenBabel11052420383D

 34 37  0  0  1  0  0  0  0  0999 V2000
  187.9900  175.8110  141.7550 C   0  0  0  0  0  0  0  0  0  0  0  0
  187.2360  176.0230  140.7700 O   0  0  0  0  0  0  0  0  0  0  0  0
  188.2760  177.8480  143.3140 C   0  0  1  0  0  3  0  0  0  0  0  0
  189.2350  176.7440  143.7150 C   0  0  1  0  0  3  0  0  0  0  0  0
  188.8880  176.9230  142.2440 C   0  0  1  0  0  3  0  0  0  0  0  0
  185.8280  178.4510  143.0860 C   0  0  2  0  0  3  0  0  0  0  0  0
  185.4380  178.0500  145.8790 C   0  0  2  0  0  0  0  0  0  0  0  0
  185.2380  178.2310  147.3320 C   0  0  0  0  0  2  0  0  0  0  0  0
  186.7050  177.4930  145.2830 C   0  0  0  0  0  0  0  0  0  0  0  0
  187.4520  176.6610  146.0100 C   0  0  0  0  0  2  0  0  0  0  0  0
  186.2110  179.7870  143.2360 O   0  0  0  0  0  1  0  0  0  0  0  0
  185.6660  179.2890  146.5010 O   0  0  0  0  0  0  0  0  0  0  0  0
  184.2940  178.1080  145.0370 O   0  0  0  0  0  0  0  0  0  0  0  0
  184.4550  178.2680  143.6600 C   0  0  0  0  0  0  0  0  0  0  0  0
  186.8450  177.5080  143.7680 C   0  0  2  0  0  3  0  0  0  0  0  0
  183.4470  178.2970  142.9070 O   0  0  0  0  0  0  0  0  0  0  0  0
  190.8070  177.8080  145.1580 O   0  0  0  0  0  1  0  0  0  0  0  0
  190.5720  177.3350  144.0150 C   0  0  0  0  0  0  0  0  0  0  0  0
  191.5770  177.3290  143.0550 O   0  0  0  0  0  0  0  0  0  0  0  0
  188.0030  174.5320  142.3220 O   0  0  0  0  0  0  0  0  0  0  0  0
  188.1660  173.3450  141.5570 C   0  0  2  0  0  3  0  0  0  0  0  0
  188.8600  172.2930  142.4120 C   0  0  0  0  0  2  0  0  0  0  0  0
  191.6560  174.1400  145.1010 C   0  0  0  0  0  0  0  0  0  0  0  0
  190.3610  173.8190  145.5400 C   0  0  0  0  0  3  0  0  0  0  0  0
  189.4530  173.2130  144.6670 C   0  0  0  0  0  3  0  0  0  0  0  0
  191.1200  173.2420  142.9130 C   0  0  0  0  0  3  0  0  0  0  0  0
  189.8320  172.9220  143.3520 C   0  0  0  0  0  0  0  0  0  0  0  0
  192.0280  173.8480  143.7840 C   0  0  0  0  0  3  0  0  0  0  0  0
  192.6380  174.7800  145.9880 C   0  0  0  0  0  3  0  0  0  0  0  0
  194.5060  176.2600  146.5010 C   0  0  0  0  0  1  0  0  0  0  0  0
  193.5420  175.6500  145.5500 C   0  0  0  0  0  3  0  0  0  0  0  0
  188.9990  173.6440  140.3190 C   0  0  0  0  0  2  0  0  0  0  0  0
  188.2610  174.1430  138.0460 N   0  0  0  0  0  1  0  0  0  0  0  0
  188.3210  173.1110  139.0660 C   0  0  0  0  0  2  0  0  0  0  0  0
  1 20  1  0  0  0  0
  2  1  2  0  0  0  0
  3  4  1  0  0  0  0
  3 15  1  1  0  0  0
  4 18  1  6  0  0  0
  5  1  1  1  0  0  0
  5  3  1  0  0  0  0
  5  4  1  0  0  0  0
  6 11  1  1  0  0  0
  6 14  1  0  0  0  0
  6 15  1  0  0  0  0
  7 12  1  0  0  0  0
  7  8  1  1  0  0  0
  9  7  1  0  0  0  0
  9 10  2  0  0  0  0
 12  8  1  0  0  0  0
 13  7  1  0  0  0  0
 14 13  1  0  0  0  0
 15  9  1  1  0  0  0
 16 14  2  0  0  0  0
 18 17  1  0  0  0  0
 19 18  2  0  0  0  0
 21 32  1  6  0  0  0
 21 20  1  0  0  0  0
 21 22  1  0  0  0  0
 22 27  1  0  0  0  0
 23 24  1  0  0  0  0
 23 29  1  0  0  0  0
 25 24  2  0  0  0  0
 26 27  2  0  0  0  0
 26 28  1  0  0  0  0
 27 25  1  0  0  0  0
 28 23  2  0  0  0  0
 31 29  2  0  0  0  0
 31 30  1  0  0  0  0
 33 34  1  0  0  0  0
 34 32  1  0  0  0  0
M  END
>  <MODEL>
1

>  <REMARK>
 VINA RESULT:      -6.9      0.000      0.000
  Name = 
  10 active torsions:
  status: ('A' for Active; 'I' for Inactive)
    1  A    between atoms: C_1  and  O_8
    2  A    between atoms: C_1  and  C_34
    3  A    between atoms: C_5  and  C_32
    4  A    between atoms: C_6  and  C_18
    5  A    between atoms: C_6  and  C_28
    6  A    between atoms: C_7  and  C_11
    7  A    between atoms: O_8  and  C_18
    8  A    between atoms: C_12  and  C_20
    9  A    between atoms: C_18  and  C_30
   10  A    between atoms: C_30  and  C_31
                            x       y       z     vdW  Elec       q    Type
                         _______ _______ _______ _____ _____    ______ ____

>  <TORSDO>
F 10

$$$$
=
 OpenBabel11052420383D

 34 37  0  0  1  0  0  0  0  0999 V2000
  188.4840  175.3780  142.0460 C   0  0  0  0  0  0  0  0  0  0  0  0
  187.7310  175.3200  141.0390 O   0  0  0  0  0  0  0  0  0  0  0  0
  188.5230  177.7350  143.0970 C   0  0  1  0  0  3  0  0  0  0  0  0
  189.5290  176.8380  143.7890 C   0  0  1  0  0  3  0  0  0  0  0  0
  189.2670  176.6440  142.3030 C   0  0  1  0  0  3  0  0  0  0  0  0
  186.0580  178.1100  142.6550 C   0  0  2  0  0  3  0  0  0  0  0  0
  185.5450  178.2290  145.4540 C   0  0  2  0  0  0  0  0  0  0  0  0
  185.2560  178.6730  146.8350 C   0  0  0  0  0  2  0  0  0  0  0  0
  186.8730  177.6590  145.0320 C   0  0  0  0  0  0  0  0  0  0  0  0
  187.6290  177.0370  145.9380 C   0  0  0  0  0  2  0  0  0  0  0  0
  186.3510  179.4730  142.5560 O   0  0  0  0  0  1  0  0  0  0  0  0
  185.6630  179.5780  145.8300 O   0  0  0  0  0  0  0  0  0  0  0  0
  184.4460  178.0430  144.5710 O   0  0  0  0  0  0  0  0  0  0  0  0
  184.6700  177.9450  143.1980 C   0  0  0  0  0  0  0  0  0  0  0  0
  187.0930  177.3900  143.5500 C   0  0  2  0  0  3  0  0  0  0  0  0
  183.7040  177.7570  142.4140 O   0  0  0  0  0  0  0  0  0  0  0  0
  190.8670  178.4570  144.9180 O   0  0  0  0  0  1  0  0  0  0  0  0
  190.7990  177.5920  144.0060 C   0  0  0  0  0  0  0  0  0  0  0  0
  191.9220  177.3160  143.2360 O   0  0  0  0  0  0  0  0  0  0  0  0
  188.6040  174.2450  142.8560 O   0  0  0  0  0  0  0  0  0  0  0  0
  189.2640  173.0570  142.4380 C   0  0  2  0  0  3  0  0  0  0  0  0
  189.7950  172.3240  143.6630 C   0  0  0  0  0  2  0  0  0  0  0  0
  191.2830  175.0620  146.6210 C   0  0  0  0  0  0  0  0  0  0  0  0
  192.1180  174.6240  145.5800 C   0  0  0  0  0  3  0  0  0  0  0  0
  191.6330  173.7380  144.6150 C   0  0  0  0  0  3  0  0  0  0  0  0
  189.4780  173.7190  145.7160 C   0  0  0  0  0  3  0  0  0  0  0  0
  190.3110  173.2850  144.6800 C   0  0  0  0  0  0  0  0  0  0  0  0
  189.9620  174.6040  146.6810 C   0  0  0  0  0  3  0  0  0  0  0  0
  191.7570  175.9920  147.6570 C   0  0  0  0  0  3  0  0  0  0  0  0
  191.5400  177.8670  149.1980 C   0  0  0  0  0  1  0  0  0  0  0  0
  190.9970  176.9610  148.1530 C   0  0  0  0  0  3  0  0  0  0  0  0
  190.4110  173.4120  141.5040 C   0  0  0  0  0  2  0  0  0  0  0  0
  190.0220  173.6220  139.1030 N   0  0  0  0  0  1  0  0  0  0  0  0
  190.2790  172.6800  140.1770 C   0  0  0  0  0  2  0  0  0  0  0  0
  1 20  1  0  0  0  0
  2  1  2  0  0  0  0
  3 15  1  1  0  0  0
  3  4  1  0  0  0  0
  4 18  1  6  0  0  0
  5  1  1  1  0  0  0
  5  3  1  0  0  0  0
  5  4  1  0  0  0  0
  6 11  1  1  0  0  0
  6 14  1  0  0  0  0
  6 15  1  0  0  0  0
  7 12  1  0  0  0  0
  7  8  1  1  0  0  0
  9  7  1  0  0  0  0
  9 10  2  0  0  0  0
 12  8  1  0  0  0  0
 13  7  1  0  0  0  0
 14 13  1  0  0  0  0
 15  9  1  1  0  0  0
 16 14  2  0  0  0  0
 18 17  1  0  0  0  0
 19 18  2  0  0  0  0
 21 32  1  6  0  0  0
 21 20  1  0  0  0  0
 21 22  1  0  0  0  0
 22 27  1  0  0  0  0
 23 28  1  0  0  0  0
 23 29  1  0  0  0  0
 24 23  2  0  0  0  0
 25 27  2  0  0  0  0
 25 24  1  0  0  0  0
 26 28  2  0  0  0  0
 27 26  1  0  0  0  0
 29 31  2  0  0  0  0
 31 30  1  0  0  0  0
 33 34  1  0  0  0  0
 34 32  1  0  0  0  0
M  END
>  <MODEL>
2

>  <REMARK>
 VINA RESULT:      -6.8      1.334      1.729
  Name = 
  10 active torsions:
  status: ('A' for Active; 'I' for Inactive)
    1  A    between atoms: C_1  and  O_8
    2  A    between atoms: C_1  and  C_34
    3  A    between atoms: C_5  and  C_32
    4  A    between atoms: C_6  and  C_18
    5  A    between atoms: C_6  and  C_28
    6  A    between atoms: C_7  and  C_11
    7  A    between atoms: O_8  and  C_18
    8  A    between atoms: C_12  and  C_20
    9  A    between atoms: C_18  and  C_30
   10  A    between atoms: C_30  and  C_31
                            x       y       z     vdW  Elec       q    Type
                         _______ _______ _______ _____ _____    ______ ____

>  <TORSDO>
F 10

$$$$
=
 OpenBabel11052420383D

 34 37  0  0  1  0  0  0  0  0999 V2000
  189.7280  172.8870  143.9860 C   0  0  0  0  0  0  0  0  0  0  0  0
  190.2510  171.7580  143.7940 O   0  0  0  0  0  0  0  0  0  0  0  0
  191.1650  174.2710  145.6240 C   0  0  1  0  0  3  0  0  0  0  0  0
  189.9150  175.0420  145.2450 C   0  0  1  0  0  3  0  0  0  0  0  0
  189.8440  173.5250  145.3510 C   0  0  1  0  0  3  0  0  0  0  0  0
  193.0840  173.0420  144.5220 C   0  0  2  0  0  3  0  0  0  0  0  0
  194.4430  175.5050  144.0740 C   0  0  2  0  0  0  0  0  0  0  0  0
  195.3630  176.6600  144.1430 C   0  0  0  0  0  2  0  0  0  0  0  0
  192.9820  175.5910  144.4280 C   0  0  0  0  0  0  0  0  0  0  0  0
  192.3490  176.7570  144.2900 C   0  0  0  0  0  2  0  0  0  0  0  0
  193.6210  172.8710  145.8000 O   0  0  0  0  0  1  0  0  0  0  0  0
  195.2570  175.7280  145.1980 O   0  0  0  0  0  0  0  0  0  0  0  0
  194.8730  174.3540  143.3580 O   0  0  0  0  0  0  0  0  0  0  0  0
  194.2040  173.1420  143.5300 C   0  0  0  0  0  0  0  0  0  0  0  0
  192.1820  174.2960  144.4690 C   0  0  2  0  0  3  0  0  0  0  0  0
  194.5650  172.1260  142.8810 O   0  0  0  0  0  0  0  0  0  0  0  0
  188.6280  175.0050  147.2520 O   0  0  0  0  0  1  0  0  0  0  0  0
  189.3390  175.6810  146.4630 C   0  0  0  0  0  0  0  0  0  0  0  0
  189.6160  177.0110  146.7590 O   0  0  0  0  0  0  0  0  0  0  0  0
  189.0130  173.4780  142.9400 O   0  0  0  0  0  0  0  0  0  0  0  0
  189.6380  174.0660  141.8070 C   0  0  2  0  0  3  0  0  0  0  0  0
  188.6690  175.0430  141.1540 C   0  0  0  0  0  2  0  0  0  0  0  0
  186.9640  177.6710  144.0950 C   0  0  0  0  0  0  0  0  0  0  0  0
  188.2630  177.9000  143.6110 C   0  0  0  0  0  3  0  0  0  0  0  0
  188.8160  177.0480  142.6510 C   0  0  0  0  0  3  0  0  0  0  0  0
  186.7830  175.7350  142.6450 C   0  0  0  0  0  3  0  0  0  0  0  0
  188.0760  175.9650  142.1650 C   0  0  0  0  0  0  0  0  0  0  0  0
  186.2290  176.5850  143.6050 C   0  0  0  0  0  3  0  0  0  0  0  0
  186.3490  178.5420  145.1060 C   0  0  0  0  0  3  0  0  0  0  0  0
  185.6370  179.1370  147.3600 C   0  0  0  0  0  1  0  0  0  0  0  0
  186.2720  178.2090  146.3900 C   0  0  0  0  0  3  0  0  0  0  0  0
  190.0300  172.9790  140.8170 C   0  0  0  0  0  2  0  0  0  0  0  0
  192.1530  174.1820  140.8640 N   0  0  0  0  0  1  0  0  0  0  0  0
  191.5420  172.8770  140.6910 C   0  0  0  0  0  2  0  0  0  0  0  0
  2  1  2  0  0  0  0
  3 15  1  6  0  0  0
  4  5  1  0  0  0  0
  4  3  1  0  0  0  0
  4 18  1  1  0  0  0
  5  1  1  6  0  0  0
  5  3  1  0  0  0  0
  6 11  1  1  0  0  0
  7  8  1  6  0  0  0
  7  9  1  0  0  0  0
  7 12  1  0  0  0  0
  8 12  1  0  0  0  0
 10  9  2  0  0  0  0
 13 14  1  0  0  0  0
 13  7  1  0  0  0  0
 14  6  1  0  0  0  0
 15  9  1  1  0  0  0
 15  6  1  0  0  0  0
 16 14  2  0  0  0  0
 18 19  2  0  0  0  0
 18 17  1  0  0  0  0
 20  1  1  0  0  0  0
 21 32  1  6  0  0  0
 21 20  1  0  0  0  0
 22 21  1  0  0  0  0
 22 27  1  0  0  0  0
 23 29  1  0  0  0  0
 24 23  1  0  0  0  0
 25 24  2  0  0  0  0
 26 28  1  0  0  0  0
 27 26  2  0  0  0  0
 27 25  1  0  0  0  0
 28 23  2  0  0  0  0
 29 31  2  0  0  0  0
 31 30  1  0  0  0  0
 34 32  1  0  0  0  0
 34 33  1  0  0  0  0
M  END
>  <MODEL>
3

>  <REMARK>
 VINA RESULT:      -6.5      2.730      6.846
  Name = 
  10 active torsions:
  status: ('A' for Active; 'I' for Inactive)
    1  A    between atoms: C_1  and  O_8
    2  A    between atoms: C_1  and  C_34
    3  A    between atoms: C_5  and  C_32
    4  A    between atoms: C_6  and  C_18
    5  A    between atoms: C_6  and  C_28
    6  A    between atoms: C_7  and  C_11
    7  A    between atoms: O_8  and  C_18
    8  A    between atoms: C_12  and  C_20
    9  A    between atoms: C_18  and  C_30
   10  A    between atoms: C_30  and  C_31
                            x       y       z     vdW  Elec       q    Type
                         _______ _______ _______ _____ _____    ______ ____

>  <TORSDO>
F 10

$$$$
=
 OpenBabel11052420383D

 34 37  0  0  1  0  0  0  0  0999 V2000
  189.6370  177.1580  144.3110 C   0  0  0  0  0  0  0  0  0  0  0  0
  190.1330  178.2790  144.5950 O   0  0  0  0  0  0  0  0  0  0  0  0
  191.1120  175.5020  142.9910 C   0  0  1  0  0  3  0  0  0  0  0  0
  189.6690  175.0360  142.9860 C   0  0  1  0  0  3  0  0  0  0  0  0
  189.9630  176.5290  142.9770 C   0  0  1  0  0  3  0  0  0  0  0  0
  192.9600  176.1750  144.5850 C   0  0  2  0  0  3  0  0  0  0  0  0
  193.4210  173.4440  145.2500 C   0  0  2  0  0  0  0  0  0  0  0  0
  193.9680  172.0750  145.3620 C   0  0  0  0  0  2  0  0  0  0  0  0
  192.1300  173.7610  144.5420 C   0  0  0  0  0  0  0  0  0  0  0  0
  191.1830  172.8240  144.4700 C   0  0  0  0  0  2  0  0  0  0  0  0
  193.8250  176.1500  143.4870 O   0  0  0  0  0  1  0  0  0  0  0  0
  194.3930  172.9670  144.3540 O   0  0  0  0  0  0  0  0  0  0  0  0
  193.9630  174.4480  146.0990 O   0  0  0  0  0  0  0  0  0  0  0  0
  193.7240  175.7940  145.8180 C   0  0  0  0  0  0  0  0  0  0  0  0
  191.7600  175.2260  144.3600 C   0  0  2  0  0  3  0  0  0  0  0  0
  194.1800  176.6870  146.5780 O   0  0  0  0  0  0  0  0  0  0  0  0
  189.9570  173.6270  141.0830 O   0  0  0  0  0  1  0  0  0  0  0  0
  189.3060  174.5630  141.6180 C   0  0  0  0  0  0  0  0  0  0  0  0
  188.2270  175.1200  140.9430 O   0  0  0  0  0  0  0  0  0  0  0  0
  188.7590  176.5660  145.2250 O   0  0  0  0  0  0  0  0  0  0  0  0
  187.3670  176.8520  145.2620 C   0  0  2  0  0  3  0  0  0  0  0  0
  187.1260  178.2350  144.6700 C   0  0  0  0  0  2  0  0  0  0  0  0
  183.9460  178.1830  141.7810 C   0  0  0  0  0  0  0  0  0  0  0  0
  185.2790  178.0230  141.3680 C   0  0  0  0  0  3  0  0  0  0  0  0
  186.3130  178.0350  142.3070 C   0  0  0  0  0  3  0  0  0  0  0  0
  184.6980  178.3630  144.0800 C   0  0  0  0  0  3  0  0  0  0  0  0
  186.0240  178.2030  143.6660 C   0  0  0  0  0  0  0  0  0  0  0  0
  183.6640  178.3520  143.1420 C   0  0  0  0  0  3  0  0  0  0  0  0
  182.8320  178.1790  140.8230 C   0  0  0  0  0  3  0  0  0  0  0  0
  180.4820  178.2400  140.1780 C   0  0  0  0  0  1  0  0  0  0  0  0
  181.5600  178.2480  141.2000 C   0  0  0  0  0  3  0  0  0  0  0  0
  186.8740  176.8070  146.7010 C   0  0  0  0  0  2  0  0  0  0  0  0
  185.2410  178.3620  147.6350 N   0  0  0  0  0  1  0  0  0  0  0  0
  186.6280  178.2090  147.2370 C   0  0  0  0  0  2  0  0  0  0  0  0
  1  2  2  0  0  0  0
  1 20  1  0  0  0  0
  3 15  1  1  0  0  0
  4 18  1  6  0  0  0
  4  3  1  0  0  0  0
  5  4  1  0  0  0  0
  5  3  1  0  0  0  0
  5  1  1  1  0  0  0
  6 11  1  6  0  0  0
  6 14  1  0  0  0  0
  7  8  1  1  0  0  0
  7 13  1  0  0  0  0
  9  7  1  0  0  0  0
 10  9  2  0  0  0  0
 12  7  1  0  0  0  0
 12  8  1  0  0  0  0
 14 13  1  0  0  0  0
 14 16  2  0  0  0  0
 15  9  1  6  0  0  0
 15  6  1  0  0  0  0
 17 18  1  0  0  0  0
 19 18  2  0  0  0  0
 20 21  1  0  0  0  0
 21 22  1  1  0  0  0
 21 32  1  0  0  0  0
 23 28  1  0  0  0  0
 24 23  2  0  0  0  0
 24 25  1  0  0  0  0
 25 27  2  0  0  0  0
 27 26  1  0  0  0  0
 27 22  1  0  0  0  0
 28 26  2  0  0  0  0
 29 31  2  0  0  0  0
 29 23  1  0  0  0  0
 30 31  1  0  0  0  0
 32 34  1  0  0  0  0
 34 33  1  0  0  0  0
M  END
>  <MODEL>
4

>  <REMARK>
 VINA RESULT:      -6.4      2.990      8.240
  Name = 
  10 active torsions:
  status: ('A' for Active; 'I' for Inactive)
    1  A    between atoms: C_1  and  O_8
    2  A    between atoms: C_1  and  C_34
    3  A    between atoms: C_5  and  C_32
    4  A    between atoms: C_6  and  C_18
    5  A    between atoms: C_6  and  C_28
    6  A    between atoms: C_7  and  C_11
    7  A    between atoms: O_8  and  C_18
    8  A    between atoms: C_12  and  C_20
    9  A    between atoms: C_18  and  C_30
   10  A    between atoms: C_30  and  C_31
                            x       y       z     vdW  Elec       q    Type
                         _______ _______ _______ _____ _____    ______ ____

>  <TORSDO>
F 10

$$$$
=
 OpenBabel11052420383D

 34 37  0  0  1  0  0  0  0  0999 V2000
  192.3100  173.8170  141.7500 C   0  0  0  0  0  0  0  0  0  0  0  0
  192.7120  174.6640  140.9110 O   0  0  0  0  0  0  0  0  0  0  0  0
  192.7000  174.2000  144.2730 C   0  0  1  0  0  3  0  0  0  0  0  0
  192.3800  172.7410  144.0080 C   0  0  1  0  0  3  0  0  0  0  0  0
  193.1600  173.5270  142.9650 C   0  0  1  0  0  3  0  0  0  0  0  0
  191.7700  176.5540  144.3280 C   0  0  2  0  0  3  0  0  0  0  0  0
  189.5350  175.6680  145.8540 C   0  0  2  0  0  0  0  0  0  0  0  0
  188.5720  175.3760  146.9370 C   0  0  0  0  0  2  0  0  0  0  0  0
  190.3540  174.6050  145.1700 C   0  0  0  0  0  0  0  0  0  0  0  0
  189.8800  173.3590  145.1110 C   0  0  0  0  0  2  0  0  0  0  0  0
  192.5700  176.7720  145.4520 O   0  0  0  0  0  1  0  0  0  0  0  0
  189.8920  175.7970  147.2070 O   0  0  0  0  0  0  0  0  0  0  0  0
  189.4630  176.9410  145.2240 O   0  0  0  0  0  0  0  0  0  0  0  0
  190.5280  177.3860  144.4410 C   0  0  0  0  0  0  0  0  0  0  0  0
  191.4230  175.0550  144.1840 C   0  0  2  0  0  3  0  0  0  0  0  0
  190.4610  178.5020  143.8620 O   0  0  0  0  0  0  0  0  0  0  0  0
  193.9840  172.3860  145.7370 O   0  0  0  0  0  1  0  0  0  0  0  0
  193.2960  171.8800  144.8120 C   0  0  0  0  0  0  0  0  0  0  0  0
  193.3650  170.5130  144.5750 O   0  0  0  0  0  0  0  0  0  0  0  0
  191.1140  173.1390  141.4930 O   0  0  0  0  0  0  0  0  0  0  0  0
  190.0160  173.7300  140.8100 C   0  0  2  0  0  3  0  0  0  0  0  0
  188.7570  173.5580  141.6490 C   0  0  0  0  0  2  0  0  0  0  0  0
  187.0160  177.3620  142.6300 C   0  0  0  0  0  0  0  0  0  0  0  0
  188.1060  177.2910  141.7470 C   0  0  0  0  0  3  0  0  0  0  0  0
  188.6700  176.0530  141.4230 C   0  0  0  0  0  3  0  0  0  0  0  0
  187.0620  174.9480  142.8550 C   0  0  0  0  0  3  0  0  0  0  0  0
  188.1470  174.8790  141.9760 C   0  0  0  0  0  0  0  0  0  0  0  0
  186.4990  176.1840  143.1800 C   0  0  0  0  0  3  0  0  0  0  0  0
  186.3980  178.6450  142.9960 C   0  0  0  0  0  3  0  0  0  0  0  0
  185.1960  180.1670  144.4710 C   0  0  0  0  0  1  0  0  0  0  0  0
  185.8010  178.8450  144.1660 C   0  0  0  0  0  3  0  0  0  0  0  0
  189.8370  173.0620  139.4550 C   0  0  0  0  0  2  0  0  0  0  0  0
  188.1960  174.1690  138.0250 N   0  0  0  0  0  1  0  0  0  0  0  0
  188.3840  173.1180  139.0090 C   0  0  0  0  0  2  0  0  0  0  0  0
  2  1  2  0  0  0  0
  3 15  1  6  0  0  0
  4  3  1  0  0  0  0
  4 18  1  1  0  0  0
  5  1  1  6  0  0  0
  5  4  1  0  0  0  0
  5  3  1  0  0  0  0
  6 14  1  0  0  0  0
  6 11  1  1  0  0  0
  7  8  1  1  0  0  0
  7 12  1  0  0  0  0
  8 12  1  0  0  0  0
  9  7  1  0  0  0  0
 10  9  2  0  0  0  0
 13  7  1  0  0  0  0
 14 13  1  0  0  0  0
 15  6  1  0  0  0  0
 15  9  1  1  0  0  0
 16 14  2  0  0  0  0
 18 17  1  0  0  0  0
 19 18  2  0  0  0  0
 20  1  1  0  0  0  0
 21 32  1  6  0  0  0
 21 20  1  0  0  0  0
 21 22  1  0  0  0  0
 22 27  1  0  0  0  0
 23 29  1  0  0  0  0
 23 28  1  0  0  0  0
 24 23  2  0  0  0  0
 25 24  1  0  0  0  0
 25 27  2  0  0  0  0
 26 28  2  0  0  0  0
 27 26  1  0  0  0  0
 29 31  2  0  0  0  0
 31 30  1  0  0  0  0
 33 34  1  0  0  0  0
 34 32  1  0  0  0  0
M  END
>  <MODEL>
5

>  <REMARK>
 VINA RESULT:      -6.4      2.553      5.528
  Name = 
  10 active torsions:
  status: ('A' for Active; 'I' for Inactive)
    1  A    between atoms: C_1  and  O_8
    2  A    between atoms: C_1  and  C_34
    3  A    between atoms: C_5  and  C_32
    4  A    between atoms: C_6  and  C_18
    5  A    between atoms: C_6  and  C_28
    6  A    between atoms: C_7  and  C_11
    7  A    between atoms: O_8  and  C_18
    8  A    between atoms: C_12  and  C_20
    9  A    between atoms: C_18  and  C_30
   10  A    between atoms: C_30  and  C_31
                            x       y       z     vdW  Elec       q    Type
                         _______ _______ _______ _____ _____    ______ ____

>  <TORSDO>
F 10

$$$$
=
 OpenBabel11052420383D

 34 37  0  0  1  0  0  0  0  0999 V2000
  190.3360  177.4260  144.4080 C   0  0  0  0  0  0  0  0  0  0  0  0
  190.5260  178.5440  143.8630 O   0  0  0  0  0  0  0  0  0  0  0  0
  187.9350  176.5650  144.0140 C   0  0  1  0  0  3  0  0  0  0  0  0
  188.5180  177.0970  142.7190 C   0  0  1  0  0  3  0  0  0  0  0  0
  189.4410  176.4190  143.7220 C   0  0  1  0  0  3  0  0  0  0  0  0
  187.7010  177.3180  146.4200 C   0  0  2  0  0  3  0  0  0  0  0  0
  185.2650  178.6560  145.7950 C   0  0  2  0  0  0  0  0  0  0  0  0
  183.8450  179.0400  145.6480 C   0  0  0  0  0  2  0  0  0  0  0  0
  186.1350  178.2530  144.6340 C   0  0  0  0  0  0  0  0  0  0  0  0
  185.8580  178.7310  143.4190 C   0  0  0  0  0  2  0  0  0  0  0  0
  187.0730  176.0950  146.6720 O   0  0  0  0  0  1  0  0  0  0  0  0
  184.2290  177.7290  146.0040 O   0  0  0  0  0  0  0  0  0  0  0  0
  185.9170  178.9720  147.0190 O   0  0  0  0  0  0  0  0  0  0  0  0
  187.1300  178.3590  147.3350 C   0  0  0  0  0  0  0  0  0  0  0  0
  187.5310  177.7270  144.9390 C   0  0  2  0  0  3  0  0  0  0  0  0
  187.7230  178.6520  148.4050 O   0  0  0  0  0  0  0  0  0  0  0  0
  188.6800  175.0100  141.5760 O   0  0  0  0  0  1  0  0  0  0  0  0
  188.1790  176.1650  141.6040 C   0  0  0  0  0  0  0  0  0  0  0  0
  187.2810  176.5470  140.6150 O   0  0  0  0  0  0  0  0  0  0  0  0
  190.9190  177.1830  145.6550 O   0  0  0  0  0  0  0  0  0  0  0  0
  191.9310  176.2070  145.8630 C   0  0  2  0  0  3  0  0  0  0  0  0
  191.2840  174.9060  146.3180 C   0  0  0  0  0  2  0  0  0  0  0  0
  190.8790  172.1660  143.0330 C   0  0  0  0  0  0  0  0  0  0  0  0
  192.0210  172.9780  143.1400 C   0  0  0  0  0  3  0  0  0  0  0  0
  192.1550  173.8660  144.2110 C   0  0  0  0  0  3  0  0  0  0  0  0
  190.0160  173.1400  145.0800 C   0  0  0  0  0  3  0  0  0  0  0  0
  191.1530  173.9470  145.1840 C   0  0  0  0  0  0  0  0  0  0  0  0
  189.8810  172.2530  144.0100 C   0  0  0  0  0  3  0  0  0  0  0  0
  190.7010  171.2220  141.9210 C   0  0  0  0  0  3  0  0  0  0  0  0
  190.8240  169.0390  140.8440 C   0  0  0  0  0  1  0  0  0  0  0  0
  191.0310  169.9390  142.0080 C   0  0  0  0  0  3  0  0  0  0  0  0
  192.9090  176.7010  146.9190 C   0  0  0  0  0  2  0  0  0  0  0  0
  194.5020  176.6640  145.0690 N   0  0  0  0  0  1  0  0  0  0  0  0
  194.3460  176.4390  146.4950 C   0  0  0  0  0  2  0  0  0  0  0  0
  1 20  1  0  0  0  0
  2  1  2  0  0  0  0
  3 15  1  1  0  0  0
  4 18  1  6  0  0  0
  4  5  1  0  0  0  0
  4  3  1  0  0  0  0
  5  3  1  0  0  0  0
  5  1  1  1  0  0  0
  6 11  1  6  0  0  0
  6 14  1  0  0  0  0
  7  8  1  6  0  0  0
  7 12  1  0  0  0  0
  7 13  1  0  0  0  0
  8 12  1  0  0  0  0
  9  7  1  0  0  0  0
 10  9  2  0  0  0  0
 13 14  1  0  0  0  0
 14 16  2  0  0  0  0
 15  9  1  1  0  0  0
 15  6  1  0  0  0  0
 17 18  1  0  0  0  0
 19 18  2  0  0  0  0
 20 21  1  0  0  0  0
 21 22  1  1  0  0  0
 21 32  1  0  0  0  0
 23 24  2  0  0  0  0
 23 28  1  0  0  0  0
 24 25  1  0  0  0  0
 25 27  2  0  0  0  0
 26 27  1  0  0  0  0
 27 22  1  0  0  0  0
 28 26  2  0  0  0  0
 29 31  2  0  0  0  0
 29 23  1  0  0  0  0
 30 31  1  0  0  0  0
 33 34  1  0  0  0  0
 34 32  1  0  0  0  0
M  END
>  <MODEL>
6

>  <REMARK>
 VINA RESULT:      -6.4      2.311      4.988
  Name = 
  10 active torsions:
  status: ('A' for Active; 'I' for Inactive)
    1  A    between atoms: C_1  and  O_8
    2  A    between atoms: C_1  and  C_34
    3  A    between atoms: C_5  and  C_32
    4  A    between atoms: C_6  and  C_18
    5  A    between atoms: C_6  and  C_28
    6  A    between atoms: C_7  and  C_11
    7  A    between atoms: O_8  and  C_18
    8  A    between atoms: C_12  and  C_20
    9  A    between atoms: C_18  and  C_30
   10  A    between atoms: C_30  and  C_31
                            x       y       z     vdW  Elec       q    Type
                         _______ _______ _______ _____ _____    ______ ____

>  <TORSDO>
F 10

$$$$
=
 OpenBabel11052420383D

 34 37  0  0  1  0  0  0  0  0999 V2000
  190.6700  173.3860  144.8720 C   0  0  0  0  0  0  0  0  0  0  0  0
  189.6780  173.6560  145.5980 O   0  0  0  0  0  0  0  0  0  0  0  0
  190.3590  171.9200  142.7710 C   0  0  1  0  0  3  0  0  0  0  0  0
  191.8250  171.9810  143.1530 C   0  0  1  0  0  3  0  0  0  0  0  0
  190.7730  172.0120  144.2520 C   0  0  1  0  0  3  0  0  0  0  0  0
  188.4420  173.5390  142.4300 C   0  0  2  0  0  3  0  0  0  0  0  0
  189.1890  173.8970  139.7050 C   0  0  2  0  0  0  0  0  0  0  0  0
  189.2710  173.8490  138.2300 C   0  0  0  0  0  2  0  0  0  0  0  0
  190.2080  173.2540  140.6090 C   0  0  0  0  0  0  0  0  0  0  0  0
  191.4580  173.1000  140.1700 C   0  0  0  0  0  2  0  0  0  0  0  0
  187.6390  172.4280  142.1610 O   0  0  0  0  0  1  0  0  0  0  0  0
  188.4830  172.9350  138.9620 O   0  0  0  0  0  0  0  0  0  0  0  0
  188.2980  174.8370  140.2920 O   0  0  0  0  0  0  0  0  0  0  0  0
  187.9430  174.7080  141.6350 C   0  0  0  0  0  0  0  0  0  0  0  0
  189.9230  173.2380  142.1040 C   0  0  2  0  0  3  0  0  0  0  0  0
  187.1730  175.5500  142.1670 O   0  0  0  0  0  0  0  0  0  0  0  0
  192.6930  170.1460  141.9010 O   0  0  0  0  0  0  0  0  0  0  0  0
  192.4230  170.6190  143.0370 C   0  0  0  0  0  0  0  0  0  0  0  0
  192.7250  169.8820  144.1760 O   0  0  0  0  0  1  0  0  0  0  0  0
  191.6660  174.3550  144.7150 O   0  0  0  0  0  0  0  0  0  0  0  0
  192.1870  175.1160  145.7970 C   0  0  2  0  0  3  0  0  0  0  0  0
  192.0170  176.5980  145.4910 C   0  0  0  0  0  2  0  0  0  0  0  0
  187.8600  177.6830  145.5170 C   0  0  0  0  0  0  0  0  0  0  0  0
  188.5050  177.3290  146.7130 C   0  0  0  0  0  3  0  0  0  0  0  0
  189.8580  176.9810  146.7060 C   0  0  0  0  0  3  0  0  0  0  0  0
  189.9380  177.3390  144.3140 C   0  0  0  0  0  3  0  0  0  0  0  0
  190.5780  176.9870  145.5060 C   0  0  0  0  0  0  0  0  0  0  0  0
  188.5850  177.6870  144.3200 C   0  0  0  0  0  3  0  0  0  0  0  0
  186.4380  178.0530  145.4840 C   0  0  0  0  0  3  0  0  0  0  0  0
  184.2120  178.3280  146.4380 C   0  0  0  0  0  1  0  0  0  0  0  0
  185.6410  177.9370  146.5410 C   0  0  0  0  0  3  0  0  0  0  0  0
  193.6600  174.7880  145.9900 C   0  0  0  0  0  2  0  0  0  0  0  0
  195.5010  175.7920  144.7400 N   0  0  0  0  0  1  0  0  0  0  0  0
  194.5240  176.0230  145.7880 C   0  0  0  0  0  2  0  0  0  0  0  0
  1  2  2  0  0  0  0
  3 15  1  6  0  0  0
  3  4  1  0  0  0  0
  3  5  1  0  0  0  0
  4 18  1  1  0  0  0
  4  5  1  0  0  0  0
  5  1  1  6  0  0  0
  6 11  1  6  0  0  0
  7  8  1  6  0  0  0
  7 13  1  0  0  0  0
  7  9  1  0  0  0  0
  8 12  1  0  0  0  0
 10  9  2  0  0  0  0
 12  7  1  0  0  0  0
 13 14  1  0  0  0  0
 14 16  2  0  0  0  0
 14  6  1  0  0  0  0
 15  9  1  6  0  0  0
 15  6  1  0  0  0  0
 17 18  2  0  0  0  0
 18 19  1  0  0  0  0
 20  1  1  0  0  0  0
 20 21  1  0  0  0  0
 21 22  1  6  0  0  0
 21 32  1  0  0  0  0
 22 27  1  0  0  0  0
 23 24  1  0  0  0  0
 25 24  2  0  0  0  0
 26 28  1  0  0  0  0
 26 27  2  0  0  0  0
 27 25  1  0  0  0  0
 28 23  2  0  0  0  0
 29 23  1  0  0  0  0
 29 31  2  0  0  0  0
 30 31  1  0  0  0  0
 33 34  1  0  0  0  0
 34 32  1  0  0  0  0
M  END
>  <MODEL>
7

>  <REMARK>
 VINA RESULT:      -6.3      2.918      7.004
  Name = 
  10 active torsions:
  status: ('A' for Active; 'I' for Inactive)
    1  A    between atoms: C_1  and  O_8
    2  A    between atoms: C_1  and  C_34
    3  A    between atoms: C_5  and  C_32
    4  A    between atoms: C_6  and  C_18
    5  A    between atoms: C_6  and  C_28
    6  A    between atoms: C_7  and  C_11
    7  A    between atoms: O_8  and  C_18
    8  A    between atoms: C_12  and  C_20
    9  A    between atoms: C_18  and  C_30
   10  A    between atoms: C_30  and  C_31
                            x       y       z     vdW  Elec       q    Type
                         _______ _______ _______ _____ _____    ______ ____

>  <TORSDO>
F 10

$$$$
=
 OpenBabel11052420383D

 34 37  0  0  1  0  0  0  0  0999 V2000
  192.1580  172.7680  141.5910 C   0  0  0  0  0  0  0  0  0  0  0  0
  191.7500  173.4660  140.6270 O   0  0  0  0  0  0  0  0  0  0  0  0
  194.2570  173.6300  142.8220 C   0  0  1  0  0  3  0  0  0  0  0  0
  193.9470  172.2100  143.2500 C   0  0  1  0  0  3  0  0  0  0  0  0
  193.6460  172.6320  141.8190 C   0  0  1  0  0  3  0  0  0  0  0  0
  193.1590  175.9050  142.6350 C   0  0  2  0  0  3  0  0  0  0  0  0
  193.4550  176.3110  145.4380 C   0  0  2  0  0  0  0  0  0  0  0  0
  193.8990  176.7530  146.7770 C   0  0  0  0  0  2  0  0  0  0  0  0
  193.6300  174.9020  144.9340 C   0  0  0  0  0  0  0  0  0  0  0  0
  193.6800  173.9000  145.8140 C   0  0  0  0  0  2  0  0  0  0  0  0
  194.4240  176.4160  142.3330 O   0  0  0  0  0  1  0  0  0  0  0  0
  194.6950  176.9460  145.6270 O   0  0  0  0  0  0  0  0  0  0  0  0
  192.5580  177.1520  144.7230 O   0  0  0  0  0  0  0  0  0  0  0  0
  192.3660  176.9530  143.3550 C   0  0  0  0  0  0  0  0  0  0  0  0
  193.2760  174.6170  143.4820 C   0  0  2  0  0  3  0  0  0  0  0  0
  191.5570  177.6790  142.7210 O   0  0  0  0  0  0  0  0  0  0  0  0
  195.4490  170.6880  144.3050 O   0  0  0  0  0  1  0  0  0  0  0  0
  195.2130  171.4230  143.3110 C   0  0  0  0  0  0  0  0  0  0  0  0
  196.1180  171.4620  142.2570 O   0  0  0  0  0  0  0  0  0  0  0  0
  191.2150  172.1020  142.3790 O   0  0  0  0  0  0  0  0  0  0  0  0
  190.1300  172.7620  143.0180 C   0  0  2  0  0  3  0  0  0  0  0  0
  190.3960  172.8220  144.5160 C   0  0  0  0  0  2  0  0  0  0  0  0
  188.5400  176.2870  146.2510 C   0  0  0  0  0  0  0  0  0  0  0  0
  188.8750  175.1870  147.0580 C   0  0  0  0  0  3  0  0  0  0  0  0
  189.4840  174.0620  146.4950 C   0  0  0  0  0  3  0  0  0  0  0  0
  189.4300  175.1220  144.3200 C   0  0  0  0  0  3  0  0  0  0  0  0
  189.7640  174.0280  145.1240 C   0  0  0  0  0  0  0  0  0  0  0  0
  188.8210  176.2460  144.8810 C   0  0  0  0  0  3  0  0  0  0  0  0
  187.8960  177.4870  146.8060 C   0  0  0  0  0  3  0  0  0  0  0  0
  186.0000  178.8140  147.5710 C   0  0  0  0  0  1  0  0  0  0  0  0
  186.5860  177.5700  147.0070 C   0  0  0  0  0  3  0  0  0  0  0  0
  188.8390  172.0040  142.7460 C   0  0  0  0  0  2  0  0  0  0  0  0
  188.5800  173.7920  141.1040 N   0  0  0  0  0  1  0  0  0  0  0  0
  187.8620  172.8600  141.9550 C   0  0  0  0  0  2  0  0  0  0  0  0
  1 20  1  0  0  0  0
  2  1  2  0  0  0  0
  3  4  1  0  0  0  0
  3 15  1  1  0  0  0
  4 18  1  6  0  0  0
  5  1  1  1  0  0  0
  5  3  1  0  0  0  0
  5  4  1  0  0  0  0
  6 11  1  1  0  0  0
  6 14  1  0  0  0  0
  6 15  1  0  0  0  0
  7 12  1  0  0  0  0
  7  8  1  1  0  0  0
  9  7  1  0  0  0  0
  9 10  2  0  0  0  0
 12  8  1  0  0  0  0
 13  7  1  0  0  0  0
 14 13  1  0  0  0  0
 15  9  1  1  0  0  0
 16 14  2  0  0  0  0
 18 17  1  0  0  0  0
 19 18  2  0  0  0  0
 20 21  1  0  0  0  0
 21 32  1  1  0  0  0
 21 22  1  0  0  0  0
 22 27  1  0  0  0  0
 23 29  1  0  0  0  0
 23 24  1  0  0  0  0
 25 24  2  0  0  0  0
 26 28  1  0  0  0  0
 26 27  2  0  0  0  0
 27 25  1  0  0  0  0
 28 23  2  0  0  0  0
 29 31  2  0  0  0  0
 31 30  1  0  0  0  0
 33 34  1  0  0  0  0
 34 32  1  0  0  0  0
M  END
>  <MODEL>
8

>  <REMARK>
 VINA RESULT:      -6.3      3.276      6.367
  Name = 
  10 active torsions:
  status: ('A' for Active; 'I' for Inactive)
    1  A    between atoms: C_1  and  O_8
    2  A    between atoms: C_1  and  C_34
    3  A    between atoms: C_5  and  C_32
    4  A    between atoms: C_6  and  C_18
    5  A    between atoms: C_6  and  C_28
    6  A    between atoms: C_7  and  C_11
    7  A    between atoms: O_8  and  C_18
    8  A    between atoms: C_12  and  C_20
    9  A    between atoms: C_18  and  C_30
   10  A    between atoms: C_30  and  C_31
                            x       y       z     vdW  Elec       q    Type
                         _______ _______ _______ _____ _____    ______ ____

>  <TORSDO>
F 10

$$$$
=
 OpenBabel11052420383D

 34 37  0  0  1  0  0  0  0  0999 V2000
  188.9810  175.3980  143.6240 C   0  0  0  0  0  0  0  0  0  0  0  0
  188.7760  174.7640  142.5570 O   0  0  0  0  0  0  0  0  0  0  0  0
  191.0230  174.5410  144.9510 C   0  0  1  0  0  3  0  0  0  0  0  0
  190.2660  175.5720  145.7650 C   0  0  1  0  0  3  0  0  0  0  0  0
  189.4900  174.6510  144.8350 C   0  0  1  0  0  3  0  0  0  0  0  0
  192.1590  174.2200  142.7110 C   0  0  2  0  0  3  0  0  0  0  0  0
  194.3410  175.8460  143.5530 C   0  0  2  0  0  0  0  0  0  0  0  0
  195.6500  176.3440  144.0260 C   0  0  0  0  0  2  0  0  0  0  0  0
  193.0840  175.9180  144.3780 C   0  0  0  0  0  0  0  0  0  0  0  0
  192.9640  176.8810  145.2950 C   0  0  0  0  0  2  0  0  0  0  0  0
  192.7110  173.0470  143.2340 O   0  0  0  0  0  1  0  0  0  0  0  0
  195.2870  174.9850  144.1350 O   0  0  0  0  0  0  0  0  0  0  0  0
  194.1950  175.5750  142.1640 O   0  0  0  0  0  0  0  0  0  0  0  0
  193.1160  174.8110  141.7190 C   0  0  0  0  0  0  0  0  0  0  0  0
  191.8390  175.2260  143.8400 C   0  0  2  0  0  3  0  0  0  0  0  0
  192.9680  174.5870  140.4890 O   0  0  0  0  0  0  0  0  0  0  0  0
  189.1100  174.5280  147.5710 O   0  0  0  0  0  0  0  0  0  0  0  0
  190.1580  175.1050  147.1780 C   0  0  0  0  0  0  0  0  0  0  0  0
  191.2240  175.2630  148.0560 O   0  0  0  0  0  1  0  0  0  0  0  0
  188.6770  176.7620  143.6590 O   0  0  0  0  0  0  0  0  0  0  0  0
  187.3940  177.2640  144.0130 C   0  0  2  0  0  3  0  0  0  0  0  0
  187.1130  178.5260  143.2080 C   0  0  0  0  0  2  0  0  0  0  0  0
  183.3510  178.2740  141.1480 C   0  0  0  0  0  0  0  0  0  0  0  0
  184.5550  178.1080  140.4430 C   0  0  0  0  0  3  0  0  0  0  0  0
  185.7790  178.1850  141.1140 C   0  0  0  0  0  3  0  0  0  0  0  0
  184.6120  178.5910  143.1950 C   0  0  0  0  0  3  0  0  0  0  0  0
  185.8090  178.4240  142.4920 C   0  0  0  0  0  0  0  0  0  0  0  0
  183.3890  178.5150  142.5250 C   0  0  0  0  0  3  0  0  0  0  0  0
  182.0450  178.2040  140.4770 C   0  0  0  0  0  3  0  0  0  0  0  0
  179.6090  178.1990  140.3960 C   0  0  0  0  0  1  0  0  0  0  0  0
  180.8940  178.2780  141.1370 C   0  0  0  0  0  3  0  0  0  0  0  0
  187.3600  177.5750  145.5020 C   0  0  0  0  0  2  0  0  0  0  0  0
  186.3250  176.9040  147.6090 N   0  0  0  0  0  1  0  0  0  0  0  0
  186.1590  176.9200  146.1670 C   0  0  0  0  0  2  0  0  0  0  0  0
  1 20  1  0  0  0  0
  2  1  2  0  0  0  0
  3 15  1  6  0  0  0
  3  4  1  0  0  0  0
  4 18  1  1  0  0  0
  5  1  1  6  0  0  0
  5  3  1  0  0  0  0
  5  4  1  0  0  0  0
  6 11  1  1  0  0  0
  6 15  1  0  0  0  0
  7  8  1  1  0  0  0
  7 12  1  0  0  0  0
  7  9  1  0  0  0  0
  8 12  1  0  0  0  0
  9 10  2  0  0  0  0
 13  7  1  0  0  0  0
 14 13  1  0  0  0  0
 14  6  1  0  0  0  0
 15  9  1  1  0  0  0
 16 14  2  0  0  0  0
 18 17  2  0  0  0  0
 18 19  1  0  0  0  0
 20 21  1  0  0  0  0
 21 22  1  6  0  0  0
 21 32  1  0  0  0  0
 23 28  1  0  0  0  0
 24 25  1  0  0  0  0
 24 23  2  0  0  0  0
 25 27  2  0  0  0  0
 27 26  1  0  0  0  0
 27 22  1  0  0  0  0
 28 26  2  0  0  0  0
 29 31  2  0  0  0  0
 29 23  1  0  0  0  0
 30 31  1  0  0  0  0
 32 34  1  0  0  0  0
 34 33  1  0  0  0  0
M  END
>  <MODEL>
9

>  <REMARK>
 VINA RESULT:      -6.3      3.187      8.312
  Name = 
  10 active torsions:
  status: ('A' for Active; 'I' for Inactive)
    1  A    between atoms: C_1  and  O_8
    2  A    between atoms: C_1  and  C_34
    3  A    between atoms: C_5  and  C_32
    4  A    between atoms: C_6  and  C_18
    5  A    between atoms: C_6  and  C_28
    6  A    between atoms: C_7  and  C_11
    7  A    between atoms: O_8  and  C_18
    8  A    between atoms: C_12  and  C_20
    9  A    between atoms: C_18  and  C_30
   10  A    between atoms: C_30  and  C_31
                            x       y       z     vdW  Elec       q    Type
                         _______ _______ _______ _____ _____    ______ ____

>  <TORSDO>
F 10

$$$$
