=
 OpenBabel11052420183D

 34 37  0  0  1  0  0  0  0  0999 V2000
  186.6240  178.0400  144.0800 C   0  0  2  0  0  3  0  0  0  0  0  0
  185.7770  177.2140  146.8590 C   0  0  0  0  0  2  0  0  0  0  0  0
  187.5880  177.4810  145.1380 C   0  0  0  0  0  2  0  0  0  0  0  0
  184.9740  178.2180  146.0170 C   0  0  2  0  0  3  0  0  0  0  0  0
  186.8930  176.5020  146.0790 C   0  0  1  0  0  3  0  0  0  0  0  0
  185.1500  177.9820  144.5110 C   0  0  1  0  0  3  0  0  0  0  0  0
  183.6670  178.1750  142.9670 O   0  0  0  0  0  1  0  0  0  0  0  0
  184.3970  178.9070  143.7830 O   0  0  0  0  0  0  0  0  0  0  0  0
  185.3490  179.5200  146.3580 O   0  0  0  0  0  0  0  0  0  0  0  0
  185.8080  179.4200  147.5890 O   0  0  0  0  0  1  0  0  0  0  0  0
  187.9210  175.8970  147.0320 C   0  0  0  0  0  2  0  0  0  0  0  0
  190.7690  173.8800  145.3780 C   0  0  0  0  0  2  0  0  0  0  0  0
  190.4230  176.2810  147.1310 C   0  0  0  0  0  2  0  0  0  0  0  0
  194.3480  175.0600  145.8300 C   0  0  0  0  0  0  0  0  0  0  0  0
  193.2280  174.3020  145.4590 C   0  0  0  0  0  3  0  0  0  0  0  0
  191.9440  174.6820  145.8620 C   0  0  0  0  0  0  0  0  0  0  0  0
  192.8890  176.6110  146.9990 C   0  0  0  0  0  3  0  0  0  0  0  0
  191.7730  175.8600  146.6230 C   0  0  0  0  0  0  0  0  0  0  0  0
  194.1690  176.2170  146.6010 C   0  0  0  0  0  3  0  0  0  0  0  0
  189.2740  175.6060  146.3790 C   0  0  1  0  0  3  0  0  0  0  0  0
  189.5260  174.1090  146.2320 C   0  0  0  0  0  2  0  0  0  0  0  0
  195.7000  174.6470  145.4140 C   0  0  0  0  0  0  0  0  0  0  0  0
  196.3420  175.2830  144.3110 N   0  0  0  0  0  1  0  0  0  0  0  0
  196.3040  173.7300  146.0310 O   0  0  0  0  0  0  0  0  0  0  0  0
  186.8000  177.2980  142.7620 C   0  0  0  0  0  2  0  0  0  0  0  0
  187.9960  174.6050  142.8770 O   0  0  0  0  0  0  0  0  0  0  0  0
  190.1780  175.5630  142.5070 C   0  0  0  0  0  2  0  0  0  0  0  0
  190.5530  177.0360  142.2860 C   0  0  1  0  0  3  0  0  0  0  0  0
  189.2690  177.8760  142.3970 C   0  0  0  0  0  2  0  0  0  0  0  0
  188.7120  175.6150  142.6640 C   0  0  0  0  0  0  0  0  0  0  0  0
  188.1930  176.9240  142.5710 N   0  0  0  0  0  0  0  0  0  0  0  0
  191.2920  178.6010  144.2370 C   0  0  0  0  0  1  0  0  0  0  0  0
  192.6630  176.9290  143.3180 O   0  0  0  0  0  0  0  0  0  0  0  0
  191.5770  177.4850  143.2830 C   0  0  0  0  0  0  0  0  0  0  0  0
  1 25  1  6  0  0  0
  1  6  1  0  0  0  0
  1  3  1  0  0  0  0
  3  5  1  0  0  0  0
  4  9  1  6  0  0  0
  4  2  1  0  0  0  0
  5  2  1  0  0  0  0
  5 11  1  1  0  0  0
  6  8  1  6  0  0  0
  6  4  1  0  0  0  0
  7  8  1  0  0  0  0
  9 10  1  0  0  0  0
 12 16  1  0  0  0  0
 12 21  1  0  0  0  0
 14 19  1  0  0  0  0
 15 14  2  0  0  0  0
 15 16  1  0  0  0  0
 16 18  2  0  0  0  0
 18 17  1  0  0  0  0
 18 13  1  0  0  0  0
 19 17  2  0  0  0  0
 20 11  1  1  0  0  0
 20 13  1  0  0  0  0
 21 20  1  0  0  0  0
 22 14  1  0  0  0  0
 22 24  2  0  0  0  0
 23 22  1  0  0  0  0
 27 30  1  0  0  0  0
 28 29  1  0  0  0  0
 28 27  1  0  0  0  0
 28 34  1  1  0  0  0
 29 31  1  0  0  0  0
 30 26  2  0  0  0  0
 31 30  1  0  0  0  0
 31 25  1  0  0  0  0
 34 33  2  0  0  0  0
 34 32  1  0  0  0  0
M  END
>  <MODEL>
1

>  <REMARK>
 VINA RESULT:      -7.8      0.000      0.000
  Name = 
  8 active torsions:
  status: ('A' for Active; 'I' for Inactive)
    1  A    between atoms: C_1  and  C_34
    2  A    between atoms: C_7  and  C_11
    3  A    between atoms: C_10  and  O_12
    4  A    between atoms: C_17  and  C_18
    5  A    between atoms: C_18  and  C_30
    6  A    between atoms: O_19  and  C_20
    7  A    between atoms: C_24  and  C_25
    8  A    between atoms: N_33  and  C_34
                            x       y       z     vdW  Elec       q    Type
                         _______ _______ _______ _____ _____    ______ ____

>  <TORSDO>
F 8

$$$$
=
 OpenBabel11052420183D

 34 37  0  0  1  0  0  0  0  0999 V2000
  186.4710  178.6180  144.1110 C   0  0  2  0  0  3  0  0  0  0  0  0
  185.6160  176.8260  146.3860 C   0  0  0  0  0  2  0  0  0  0  0  0
  187.4070  178.1640  145.2410 C   0  0  0  0  0  2  0  0  0  0  0  0
  184.6170  177.6760  145.5860 C   0  0  2  0  0  3  0  0  0  0  0  0
  187.0260  176.7890  145.7780 C   0  0  1  0  0  3  0  0  0  0  0  0
  185.0950  177.9350  144.1510 C   0  0  1  0  0  3  0  0  0  0  0  0
  183.7800  177.9360  142.4510 O   0  0  0  0  0  1  0  0  0  0  0  0
  184.1550  178.7000  143.4560 O   0  0  0  0  0  0  0  0  0  0  0  0
  184.3870  178.8820  146.2530 O   0  0  0  0  0  0  0  0  0  0  0  0
  184.6550  178.6170  147.5160 O   0  0  0  0  0  1  0  0  0  0  0  0
  188.0540  176.3460  146.8150 C   0  0  0  0  0  2  0  0  0  0  0  0
  190.6550  173.8400  145.4470 C   0  0  0  0  0  2  0  0  0  0  0  0
  190.5840  176.4710  146.8720 C   0  0  0  0  0  2  0  0  0  0  0  0
  194.3440  174.6820  145.7530 C   0  0  0  0  0  0  0  0  0  0  0  0
  193.1460  174.0060  145.4800 C   0  0  0  0  0  3  0  0  0  0  0  0
  191.9140  174.5690  145.8260 C   0  0  0  0  0  0  0  0  0  0  0  0
  193.0690  176.5170  146.7050 C   0  0  0  0  0  3  0  0  0  0  0  0
  191.8760  175.8470  146.4270 C   0  0  0  0  0  0  0  0  0  0  0  0
  194.2960  175.9420  146.3660 C   0  0  0  0  0  3  0  0  0  0  0  0
  189.3620  175.8300  146.2110 C   0  0  1  0  0  3  0  0  0  0  0  0
  189.4530  174.3080  146.2600 C   0  0  0  0  0  2  0  0  0  0  0  0
  195.6390  174.0770  145.3980 C   0  0  0  0  0  0  0  0  0  0  0  0
  196.6220  174.8350  144.6960 N   0  0  0  0  0  1  0  0  0  0  0  0
  195.8940  172.8850  145.7170 O   0  0  0  0  0  0  0  0  0  0  0  0
  187.1230  178.3730  142.7570 C   0  0  0  0  0  2  0  0  0  0  0  0
  190.0370  177.9230  142.7080 O   0  0  0  0  0  0  0  0  0  0  0  0
  189.6640  175.5420  142.6320 C   0  0  0  0  0  2  0  0  0  0  0  0
  188.3310  174.7800  142.6500 C   0  0  1  0  0  3  0  0  0  0  0  0
  187.1920  175.8140  142.6670 C   0  0  0  0  0  2  0  0  0  0  0  0
  189.2400  176.9520  142.7070 C   0  0  0  0  0  0  0  0  0  0  0  0
  187.8370  177.1050  142.7580 N   0  0  0  0  0  0  0  0  0  0  0  0
  188.5580  174.3460  140.0880 C   0  0  0  0  0  1  0  0  0  0  0  0
  187.8350  172.7230  141.6250 O   0  0  0  0  0  0  0  0  0  0  0  0
  188.2150  173.8710  141.4640 C   0  0  0  0  0  0  0  0  0  0  0  0
  1 25  1  6  0  0  0
  1  6  1  0  0  0  0
  1  3  1  0  0  0  0
  3  5  1  0  0  0  0
  4  9  1  1  0  0  0
  4  2  1  0  0  0  0
  5  2  1  0  0  0  0
  5 11  1  1  0  0  0
  6  8  1  1  0  0  0
  6  4  1  0  0  0  0
  7  8  1  0  0  0  0
  9 10  1  0  0  0  0
 12 16  1  0  0  0  0
 12 21  1  0  0  0  0
 14 19  1  0  0  0  0
 15 14  2  0  0  0  0
 15 16  1  0  0  0  0
 16 18  2  0  0  0  0
 18 17  1  0  0  0  0
 18 13  1  0  0  0  0
 19 17  2  0  0  0  0
 20 21  1  0  0  0  0
 20 11  1  1  0  0  0
 20 13  1  0  0  0  0
 22 24  2  0  0  0  0
 22 14  1  0  0  0  0
 23 22  1  0  0  0  0
 25 31  1  0  0  0  0
 27 28  1  0  0  0  0
 27 30  1  0  0  0  0
 28 34  1  6  0  0  0
 28 29  1  0  0  0  0
 29 31  1  0  0  0  0
 30 26  2  0  0  0  0
 30 31  1  0  0  0  0
 32 34  1  0  0  0  0
 34 33  2  0  0  0  0
M  END
>  <MODEL>
2

>  <REMARK>
 VINA RESULT:      -7.8      1.126      2.177
  Name = 
  8 active torsions:
  status: ('A' for Active; 'I' for Inactive)
    1  A    between atoms: C_1  and  C_34
    2  A    between atoms: C_7  and  C_11
    3  A    between atoms: C_10  and  O_12
    4  A    between atoms: C_17  and  C_18
    5  A    between atoms: C_18  and  C_30
    6  A    between atoms: O_19  and  C_20
    7  A    between atoms: C_24  and  C_25
    8  A    between atoms: N_33  and  C_34
                            x       y       z     vdW  Elec       q    Type
                         _______ _______ _______ _____ _____    ______ ____

>  <TORSDO>
F 8

$$$$
=
 OpenBabel11052420183D

 34 37  0  0  1  0  0  0  0  0999 V2000
  193.6080  175.1480  143.5880 C   0  0  2  0  0  3  0  0  0  0  0  0
  194.4580  175.6150  146.4490 C   0  0  0  0  0  2  0  0  0  0  0  0
  192.7680  174.7400  144.8090 C   0  0  0  0  0  2  0  0  0  0  0  0
  195.4660  175.5350  145.2910 C   0  0  2  0  0  3  0  0  0  0  0  0
  192.9920  175.6760  145.9920 C   0  0  1  0  0  3  0  0  0  0  0  0
  194.8510  175.9740  143.9550 C   0  0  1  0  0  3  0  0  0  0  0  0
  196.6680  176.8470  143.2130 O   0  0  0  0  0  1  0  0  0  0  0  0
  195.8010  175.8960  142.9340 O   0  0  0  0  0  0  0  0  0  0  0  0
  195.9690  174.2350  145.1980 O   0  0  0  0  0  0  0  0  0  0  0  0
  196.6950  174.0820  146.2870 O   0  0  0  0  0  1  0  0  0  0  0  0
  192.0520  175.2890  147.1300 C   0  0  0  0  0  2  0  0  0  0  0  0
  188.2040  175.5230  147.3720 C   0  0  0  0  0  2  0  0  0  0  0  0
  190.4230  176.5120  145.6230 C   0  0  0  0  0  2  0  0  0  0  0  0
  186.3370  177.6350  144.8310 C   0  0  0  0  0  0  0  0  0  0  0  0
  186.6230  176.7680  145.8950 C   0  0  0  0  0  3  0  0  0  0  0  0
  187.9410  176.3960  146.1770 C   0  0  0  0  0  0  0  0  0  0  0  0
  188.7100  177.7830  144.3360 C   0  0  0  0  0  3  0  0  0  0  0  0
  188.9960  176.9250  145.4000 C   0  0  0  0  0  0  0  0  0  0  0  0
  187.3890  178.1400  144.0550 C   0  0  0  0  0  3  0  0  0  0  0  0
  190.6440  175.8740  146.9960 C   0  0  1  0  0  3  0  0  0  0  0  0
  189.5650  174.8380  147.2960 C   0  0  0  0  0  2  0  0  0  0  0  0
  184.9440  178.0130  144.5310 C   0  0  0  0  0  0  0  0  0  0  0  0
  184.1210  178.5940  145.5400 N   0  0  0  0  0  1  0  0  0  0  0  0
  184.4690  177.8300  143.3790 O   0  0  0  0  0  0  0  0  0  0  0  0
  192.7540  175.9270  142.5970 C   0  0  0  0  0  2  0  0  0  0  0  0
  193.1560  174.0170  140.3850 O   0  0  0  0  0  0  0  0  0  0  0  0
  190.8030  173.4840  140.4260 C   0  0  0  0  0  2  0  0  0  0  0  0
  189.7130  174.0280  141.3600 C   0  0  1  0  0  3  0  0  0  0  0  0
  190.3590  175.0710  142.2890 C   0  0  0  0  0  2  0  0  0  0  0  0
  192.0180  174.1750  140.8960 C   0  0  0  0  0  0  0  0  0  0  0  0
  191.7710  175.0520  141.9740 N   0  0  0  0  0  0  0  0  0  0  0  0
  187.8430  175.8250  141.0840 C   0  0  0  0  0  1  0  0  0  0  0  0
  188.2710  174.1390  139.5060 O   0  0  0  0  0  0  0  0  0  0  0  0
  188.5860  174.6310  140.5770 C   0  0  0  0  0  0  0  0  0  0  0  0
  1 25  1  6  0  0  0
  1  6  1  0  0  0  0
  1  3  1  0  0  0  0
  3  5  1  0  0  0  0
  4  9  1  6  0  0  0
  4  2  1  0  0  0  0
  5  2  1  0  0  0  0
  5 11  1  1  0  0  0
  6  8  1  6  0  0  0
  6  4  1  0  0  0  0
  8  7  1  0  0  0  0
  9 10  1  0  0  0  0
 13 20  1  0  0  0  0
 14 15  1  0  0  0  0
 15 16  2  0  0  0  0
 16 12  1  0  0  0  0
 17 18  2  0  0  0  0
 18 13  1  0  0  0  0
 18 16  1  0  0  0  0
 19 17  1  0  0  0  0
 19 14  2  0  0  0  0
 20 11  1  6  0  0  0
 20 21  1  0  0  0  0
 21 12  1  0  0  0  0
 22 14  1  0  0  0  0
 22 23  1  0  0  0  0
 24 22  2  0  0  0  0
 26 30  2  0  0  0  0
 27 30  1  0  0  0  0
 27 28  1  0  0  0  0
 28 34  1  6  0  0  0
 28 29  1  0  0  0  0
 30 31  1  0  0  0  0
 31 29  1  0  0  0  0
 31 25  1  0  0  0  0
 33 34  2  0  0  0  0
 34 32  1  0  0  0  0
M  END
>  <MODEL>
3

>  <REMARK>
 VINA RESULT:      -7.2      2.186      7.625
  Name = 
  8 active torsions:
  status: ('A' for Active; 'I' for Inactive)
    1  A    between atoms: C_1  and  C_34
    2  A    between atoms: C_7  and  C_11
    3  A    between atoms: C_10  and  O_12
    4  A    between atoms: C_17  and  C_18
    5  A    between atoms: C_18  and  C_30
    6  A    between atoms: O_19  and  C_20
    7  A    between atoms: C_24  and  C_25
    8  A    between atoms: N_33  and  C_34
                            x       y       z     vdW  Elec       q    Type
                         _______ _______ _______ _____ _____    ______ ____

>  <TORSDO>
F 8

$$$$
=
 OpenBabel11052420183D

 34 37  0  0  1  0  0  0  0  0999 V2000
  194.1110  173.6320  143.5950 C   0  0  2  0  0  3  0  0  0  0  0  0
  194.0840  176.3920  144.8210 C   0  0  0  0  0  2  0  0  0  0  0  0
  193.6930  173.9210  145.0450 C   0  0  0  0  0  2  0  0  0  0  0  0
  194.9590  176.0370  143.6090 C   0  0  2  0  0  3  0  0  0  0  0  0
  193.0660  175.3040  145.1920 C   0  0  1  0  0  3  0  0  0  0  0  0
  194.3530  174.9050  142.7680 C   0  0  1  0  0  3  0  0  0  0  0  0
  195.1000  175.6940  140.9140 O   0  0  0  0  0  1  0  0  0  0  0  0
  195.1730  174.6200  141.6730 O   0  0  0  0  0  0  0  0  0  0  0  0
  196.2430  175.6950  144.0420 O   0  0  0  0  0  0  0  0  0  0  0  0
  197.0220  176.6310  143.5380 O   0  0  0  0  0  1  0  0  0  0  0  0
  192.5710  175.4880  146.6240 C   0  0  0  0  0  2  0  0  0  0  0  0
  188.7890  175.3930  147.4020 C   0  0  0  0  0  2  0  0  0  0  0  0
  190.6620  176.6550  145.4360 C   0  0  0  0  0  2  0  0  0  0  0  0
  186.4330  177.4840  145.2840 C   0  0  0  0  0  0  0  0  0  0  0  0
  186.9290  176.5850  146.2390 C   0  0  0  0  0  3  0  0  0  0  0  0
  188.2970  176.3060  146.3140 C   0  0  0  0  0  0  0  0  0  0  0  0
  188.6960  177.8510  144.4810 C   0  0  0  0  0  3  0  0  0  0  0  0
  189.1910  176.9620  145.4380 C   0  0  0  0  0  0  0  0  0  0  0  0
  187.3270  178.1150  144.4070 C   0  0  0  0  0  3  0  0  0  0  0  0
  191.1190  175.9620  146.7220 C   0  0  1  0  0  3  0  0  0  0  0  0
  190.1720  174.8270  147.0960 C   0  0  0  0  0  2  0  0  0  0  0  0
  184.9890  177.7630  145.2010 C   0  0  0  0  0  0  0  0  0  0  0  0
  184.1910  177.7950  146.3830 N   0  0  0  0  0  1  0  0  0  0  0  0
  184.4450  177.9810  144.0860 O   0  0  0  0  0  0  0  0  0  0  0  0
  193.0620  172.7690  142.9060 C   0  0  0  0  0  2  0  0  0  0  0  0
  190.7610  171.9130  144.5400 O   0  0  0  0  0  0  0  0  0  0  0  0
  189.4410  173.7060  143.6110 C   0  0  0  0  0  2  0  0  0  0  0  0
  189.8630  174.7820  142.6000 C   0  0  1  0  0  3  0  0  0  0  0  0
  191.3200  174.5060  142.1910 C   0  0  0  0  0  2  0  0  0  0  0  0
  190.6740  172.9160  143.7870 C   0  0  0  0  0  0  0  0  0  0  0  0
  191.7490  173.3890  143.0040 N   0  0  0  0  0  0  0  0  0  0  0  0
  187.9140  175.8320  141.2210 C   0  0  0  0  0  1  0  0  0  0  0  0
  189.0800  173.9010  140.5650 O   0  0  0  0  0  0  0  0  0  0  0  0
  188.9590  174.7790  141.4040 C   0  0  0  0  0  0  0  0  0  0  0  0
  1 25  1  6  0  0  0
  1  3  1  0  0  0  0
  2  5  1  0  0  0  0
  3  5  1  0  0  0  0
  4  9  1  1  0  0  0
  4  2  1  0  0  0  0
  5 11  1  1  0  0  0
  6  8  1  6  0  0  0
  6  1  1  0  0  0  0
  6  4  1  0  0  0  0
  7  8  1  0  0  0  0
 10  9  1  0  0  0  0
 13 18  1  0  0  0  0
 13 20  1  0  0  0  0
 14 15  1  0  0  0  0
 15 16  2  0  0  0  0
 16 12  1  0  0  0  0
 17 18  2  0  0  0  0
 18 16  1  0  0  0  0
 19 17  1  0  0  0  0
 19 14  2  0  0  0  0
 20 11  1  6  0  0  0
 20 21  1  0  0  0  0
 21 12  1  0  0  0  0
 22 14  1  0  0  0  0
 22 23  1  0  0  0  0
 24 22  2  0  0  0  0
 25 31  1  0  0  0  0
 27 30  1  0  0  0  0
 28 34  1  6  0  0  0
 28 27  1  0  0  0  0
 29 28  1  0  0  0  0
 29 31  1  0  0  0  0
 30 26  2  0  0  0  0
 31 30  1  0  0  0  0
 32 34  1  0  0  0  0
 33 34  2  0  0  0  0
M  END
>  <MODEL>
4

>  <REMARK>
 VINA RESULT:      -7.1      2.409      7.552
  Name = 
  8 active torsions:
  status: ('A' for Active; 'I' for Inactive)
    1  A    between atoms: C_1  and  C_34
    2  A    between atoms: C_7  and  C_11
    3  A    between atoms: C_10  and  O_12
    4  A    between atoms: C_17  and  C_18
    5  A    between atoms: C_18  and  C_30
    6  A    between atoms: O_19  and  C_20
    7  A    between atoms: C_24  and  C_25
    8  A    between atoms: N_33  and  C_34
                            x       y       z     vdW  Elec       q    Type
                         _______ _______ _______ _____ _____    ______ ____

>  <TORSDO>
F 8

$$$$
=
 OpenBabel11052420183D

 34 37  0  0  1  0  0  0  0  0999 V2000
  193.8690  173.7520  143.7870 C   0  0  2  0  0  3  0  0  0  0  0  0
  194.5050  175.5190  146.1520 C   0  0  0  0  0  2  0  0  0  0  0  0
  192.8590  174.1000  144.8920 C   0  0  0  0  0  2  0  0  0  0  0  0
  195.5920  174.7700  145.3670 C   0  0  2  0  0  3  0  0  0  0  0  0
  193.1200  175.4790  145.4880 C   0  0  1  0  0  3  0  0  0  0  0  0
  195.1900  174.5280  143.9060 C   0  0  1  0  0  3  0  0  0  0  0  0
  196.7470  174.7680  142.4450 O   0  0  0  0  0  1  0  0  0  0  0  0
  196.2080  173.8550  143.2260 O   0  0  0  0  0  0  0  0  0  0  0  0
  195.8810  173.5600  146.0040 O   0  0  0  0  0  0  0  0  0  0  0  0
  197.1130  173.7050  146.4470 O   0  0  0  0  0  1  0  0  0  0  0  0
  192.0240  175.8130  146.4960 C   0  0  0  0  0  2  0  0  0  0  0  0
  189.4610  177.7080  144.3150 C   0  0  0  0  0  2  0  0  0  0  0  0
  189.5440  176.1630  146.8780 C   0  0  0  0  0  2  0  0  0  0  0  0
  185.8250  177.7690  145.4030 C   0  0  0  0  0  0  0  0  0  0  0  0
  187.0110  178.0060  144.6940 C   0  0  0  0  0  3  0  0  0  0  0  0
  188.2280  177.4890  145.1480 C   0  0  0  0  0  0  0  0  0  0  0  0
  187.0750  176.4630  147.0250 C   0  0  0  0  0  3  0  0  0  0  0  0
  188.2560  176.6930  146.3150 C   0  0  0  0  0  0  0  0  0  0  0  0
  185.8660  176.9930  146.5700 C   0  0  0  0  0  3  0  0  0  0  0  0
  190.6820  176.1740  145.8550 C   0  0  1  0  0  3  0  0  0  0  0  0
  190.7410  177.5090  145.1200 C   0  0  0  0  0  2  0  0  0  0  0  0
  184.5470  178.3280  144.9270 C   0  0  0  0  0  0  0  0  0  0  0  0
  184.2310  178.3240  143.5360 N   0  0  0  0  0  1  0  0  0  0  0  0
  183.7190  178.8110  145.7440 O   0  0  0  0  0  0  0  0  0  0  0  0
  193.2540  173.9990  142.4160 C   0  0  0  0  0  2  0  0  0  0  0  0
  191.6010  171.5580  142.4990 O   0  0  0  0  0  0  0  0  0  0  0  0
  189.6060  172.9150  142.4740 C   0  0  0  0  0  2  0  0  0  0  0  0
  189.4880  174.4450  142.4600 C   0  0  1  0  0  3  0  0  0  0  0  0
  190.9100  175.0320  142.4010 C   0  0  0  0  0  2  0  0  0  0  0  0
  191.0640  172.6950  142.4930 C   0  0  0  0  0  0  0  0  0  0  0  0
  191.8040  173.8970  142.4820 N   0  0  0  0  0  0  0  0  0  0  0  0
  187.8260  176.1440  141.3850 C   0  0  0  0  0  1  0  0  0  0  0  0
  188.6840  174.2700  140.2580 O   0  0  0  0  0  0  0  0  0  0  0  0
  188.6660  174.9100  141.2960 C   0  0  0  0  0  0  0  0  0  0  0  0
  1 25  1  6  0  0  0
  1  6  1  0  0  0  0
  1  3  1  0  0  0  0
  3  5  1  0  0  0  0
  4  9  1  1  0  0  0
  4  2  1  0  0  0  0
  5  2  1  0  0  0  0
  5 11  1  1  0  0  0
  6  8  1  1  0  0  0
  6  4  1  0  0  0  0
  7  8  1  0  0  0  0
  9 10  1  0  0  0  0
 12 21  1  0  0  0  0
 12 16  1  0  0  0  0
 14 19  1  0  0  0  0
 15 16  1  0  0  0  0
 15 14  2  0  0  0  0
 16 18  2  0  0  0  0
 18 13  1  0  0  0  0
 18 17  1  0  0  0  0
 19 17  2  0  0  0  0
 20 11  1  1  0  0  0
 20 13  1  0  0  0  0
 21 20  1  0  0  0  0
 22 14  1  0  0  0  0
 22 24  2  0  0  0  0
 23 22  1  0  0  0  0
 25 31  1  0  0  0  0
 27 30  1  0  0  0  0
 28 34  1  6  0  0  0
 28 27  1  0  0  0  0
 29 28  1  0  0  0  0
 29 31  1  0  0  0  0
 30 26  2  0  0  0  0
 31 30  1  0  0  0  0
 33 34  2  0  0  0  0
 34 32  1  0  0  0  0
M  END
>  <MODEL>
5

>  <REMARK>
 VINA RESULT:      -7.1      2.118      7.939
  Name = 
  8 active torsions:
  status: ('A' for Active; 'I' for Inactive)
    1  A    between atoms: C_1  and  C_34
    2  A    between atoms: C_7  and  C_11
    3  A    between atoms: C_10  and  O_12
    4  A    between atoms: C_17  and  C_18
    5  A    between atoms: C_18  and  C_30
    6  A    between atoms: O_19  and  C_20
    7  A    between atoms: C_24  and  C_25
    8  A    between atoms: N_33  and  C_34
                            x       y       z     vdW  Elec       q    Type
                         _______ _______ _______ _____ _____    ______ ____

>  <TORSDO>
F 8

$$$$
=
 OpenBabel11052420183D

 34 37  0  0  1  0  0  0  0  0999 V2000
  193.2480  173.8610  145.0390 C   0  0  2  0  0  3  0  0  0  0  0  0
  192.9930  176.8630  145.2500 C   0  0  0  0  0  2  0  0  0  0  0  0
  192.3760  174.5760  146.0840 C   0  0  0  0  0  2  0  0  0  0  0  0
  194.2050  176.1820  144.5960 C   0  0  2  0  0  3  0  0  0  0  0  0
  191.8350  175.9030  145.5620 C   0  0  1  0  0  3  0  0  0  0  0  0
  193.8490  174.8150  143.9960 C   0  0  1  0  0  3  0  0  0  0  0  0
  195.2150  174.9820  142.3460 O   0  0  0  0  0  1  0  0  0  0  0  0
  194.9740  174.2360  143.4040 O   0  0  0  0  0  0  0  0  0  0  0  0
  195.2330  176.0550  145.5340 O   0  0  0  0  0  0  0  0  0  0  0  0
  194.9080  176.8940  146.4960 O   0  0  0  0  0  1  0  0  0  0  0  0
  190.8910  176.5080  146.5960 C   0  0  0  0  0  2  0  0  0  0  0  0
  187.0840  176.7830  146.0020 C   0  0  0  0  0  2  0  0  0  0  0  0
  189.6410  177.1530  144.4890 C   0  0  0  0  0  2  0  0  0  0  0  0
  185.8420  177.9250  142.6020 C   0  0  0  0  0  0  0  0  0  0  0  0
  185.8770  177.4590  143.9250 C   0  0  0  0  0  3  0  0  0  0  0  0
  187.0960  177.2100  144.5610 C   0  0  0  0  0  0  0  0  0  0  0  0
  188.2700  177.9160  142.5540 C   0  0  0  0  0  3  0  0  0  0  0  0
  188.3050  177.4600  143.8740 C   0  0  0  0  0  0  0  0  0  0  0  0
  187.0470  178.1510  141.9230 C   0  0  0  0  0  3  0  0  0  0  0  0
  189.5680  177.0060  146.0110 C   0  0  1  0  0  3  0  0  0  0  0  0
  188.3940  176.1210  146.4160 C   0  0  0  0  0  2  0  0  0  0  0  0
  184.5530  178.1720  141.9330 C   0  0  0  0  0  0  0  0  0  0  0  0
  184.4850  178.2750  140.5120 N   0  0  0  0  0  1  0  0  0  0  0  0
  183.4960  178.2910  142.6080 O   0  0  0  0  0  0  0  0  0  0  0  0
  192.4440  172.7770  144.3350 C   0  0  0  0  0  2  0  0  0  0  0  0
  189.6130  172.6170  145.1490 O   0  0  0  0  0  0  0  0  0  0  0  0
  188.9800  173.8410  143.1700 C   0  0  0  0  0  2  0  0  0  0  0  0
  189.8820  174.4160  142.0690 C   0  0  1  0  0  3  0  0  0  0  0  0
  191.3360  174.0290  142.3940 C   0  0  0  0  0  2  0  0  0  0  0  0
  189.9440  173.2200  144.0970 C   0  0  0  0  0  0  0  0  0  0  0  0
  191.2830  173.3530  143.6720 N   0  0  0  0  0  0  0  0  0  0  0  0
  188.3610  174.5380  139.9530 C   0  0  0  0  0  1  0  0  0  0  0  0
  190.0710  172.9520  140.2390 O   0  0  0  0  0  0  0  0  0  0  0  0
  189.4780  173.9040  140.7200 C   0  0  0  0  0  0  0  0  0  0  0  0
  1 25  1  6  0  0  0
  1  3  1  0  0  0  0
  2  5  1  0  0  0  0
  4  2  1  0  0  0  0
  4  9  1  1  0  0  0
  5  3  1  0  0  0  0
  5 11  1  1  0  0  0
  6  8  1  1  0  0  0
  6  4  1  0  0  0  0
  6  1  1  0  0  0  0
  7  8  1  0  0  0  0
  9 10  1  0  0  0  0
 12 21  1  0  0  0  0
 13 20  1  0  0  0  0
 14 15  1  0  0  0  0
 15 16  2  0  0  0  0
 16 12  1  0  0  0  0
 17 18  2  0  0  0  0
 18 13  1  0  0  0  0
 18 16  1  0  0  0  0
 19 17  1  0  0  0  0
 19 14  2  0  0  0  0
 20 21  1  0  0  0  0
 20 11  1  6  0  0  0
 22 14  1  0  0  0  0
 22 24  2  0  0  0  0
 23 22  1  0  0  0  0
 27 30  1  0  0  0  0
 28 34  1  6  0  0  0
 28 29  1  0  0  0  0
 28 27  1  0  0  0  0
 29 31  1  0  0  0  0
 30 26  2  0  0  0  0
 31 30  1  0  0  0  0
 31 25  1  0  0  0  0
 32 34  1  0  0  0  0
 33 34  2  0  0  0  0
M  END
>  <MODEL>
6

>  <REMARK>
 VINA RESULT:      -6.9      2.387      7.568
  Name = 
  8 active torsions:
  status: ('A' for Active; 'I' for Inactive)
    1  A    between atoms: C_1  and  C_34
    2  A    between atoms: C_7  and  C_11
    3  A    between atoms: C_10  and  O_12
    4  A    between atoms: C_17  and  C_18
    5  A    between atoms: C_18  and  C_30
    6  A    between atoms: O_19  and  C_20
    7  A    between atoms: C_24  and  C_25
    8  A    between atoms: N_33  and  C_34
                            x       y       z     vdW  Elec       q    Type
                         _______ _______ _______ _____ _____    ______ ____

>  <TORSDO>
F 8

$$$$
=
 OpenBabel11052420183D

 34 37  0  0  1  0  0  0  0  0999 V2000
  193.4040  174.8940  143.4020 C   0  0  2  0  0  3  0  0  0  0  0  0
  194.3870  175.6700  146.1500 C   0  0  0  0  0  2  0  0  0  0  0  0
  192.6680  174.5440  144.7050 C   0  0  0  0  0  2  0  0  0  0  0  0
  195.3280  175.5520  144.9410 C   0  0  2  0  0  3  0  0  0  0  0  0
  192.8960  175.5950  145.7860 C   0  0  1  0  0  3  0  0  0  0  0  0
  194.6060  175.8280  143.6150 C   0  0  1  0  0  3  0  0  0  0  0  0
  196.2700  176.7810  142.6470 O   0  0  0  0  0  1  0  0  0  0  0  0
  195.4960  175.7210  142.5440 O   0  0  0  0  0  0  0  0  0  0  0  0
  195.9150  174.2840  144.9260 O   0  0  0  0  0  0  0  0  0  0  0  0
  197.2020  174.5140  145.0930 O   0  0  0  0  0  1  0  0  0  0  0  0
  192.0550  175.2520  147.0120 C   0  0  0  0  0  2  0  0  0  0  0  0
  188.2230  175.4530  147.4590 C   0  0  0  0  0  2  0  0  0  0  0  0
  190.3470  176.5270  145.6430 C   0  0  0  0  0  2  0  0  0  0  0  0
  186.2210  177.6590  145.1070 C   0  0  0  0  0  0  0  0  0  0  0  0
  186.5650  176.7500  146.1180 C   0  0  0  0  0  3  0  0  0  0  0  0
  187.8960  176.3730  146.3170 C   0  0  0  0  0  0  0  0  0  0  0  0
  188.5650  177.8410  144.4990 C   0  0  0  0  0  3  0  0  0  0  0  0
  188.9090  176.9410  145.5100 C   0  0  0  0  0  0  0  0  0  0  0  0
  187.2310  178.2020  144.3010 C   0  0  0  0  0  3  0  0  0  0  0  0
  190.6400  175.8340  146.9750 C   0  0  1  0  0  3  0  0  0  0  0  0
  189.5810  174.7800  147.2850 C   0  0  0  0  0  2  0  0  0  0  0  0
  184.8140  178.0410  144.8940 C   0  0  0  0  0  0  0  0  0  0  0  0
  184.2980  178.1860  143.5730 N   0  0  0  0  0  1  0  0  0  0  0  0
  184.0520  178.2380  145.8770 O   0  0  0  0  0  0  0  0  0  0  0  0
  192.4400  175.5230  142.4050 C   0  0  0  0  0  2  0  0  0  0  0  0
  189.5050  175.4590  142.1230 O   0  0  0  0  0  0  0  0  0  0  0  0
  189.6590  173.2930  141.0720 C   0  0  0  0  0  2  0  0  0  0  0  0
  190.9150  172.4740  140.7450 C   0  0  1  0  0  3  0  0  0  0  0  0
  192.1380  173.2490  141.2660 C   0  0  0  0  0  2  0  0  0  0  0  0
  190.2100  174.5120  141.6930 C   0  0  0  0  0  0  0  0  0  0  0  0
  191.6200  174.5000  141.7740 N   0  0  0  0  0  0  0  0  0  0  0  0
  190.8890  169.8760  140.5170 C   0  0  0  0  0  1  0  0  0  0  0  0
  190.7420  171.0040  142.5720 O   0  0  0  0  0  0  0  0  0  0  0  0
  190.8420  171.1090  141.3610 C   0  0  0  0  0  0  0  0  0  0  0  0
  1 25  1  6  0  0  0
  1  6  1  0  0  0  0
  1  3  1  0  0  0  0
  3  5  1  0  0  0  0
  4  9  1  6  0  0  0
  4  2  1  0  0  0  0
  5  2  1  0  0  0  0
  5 11  1  1  0  0  0
  6  8  1  6  0  0  0
  6  4  1  0  0  0  0
  8  7  1  0  0  0  0
  9 10  1  0  0  0  0
 13 20  1  0  0  0  0
 14 15  1  0  0  0  0
 15 16  2  0  0  0  0
 16 12  1  0  0  0  0
 17 18  2  0  0  0  0
 18 13  1  0  0  0  0
 18 16  1  0  0  0  0
 19 17  1  0  0  0  0
 19 14  2  0  0  0  0
 20 11  1  6  0  0  0
 20 21  1  0  0  0  0
 21 12  1  0  0  0  0
 22 14  1  0  0  0  0
 22 24  2  0  0  0  0
 23 22  1  0  0  0  0
 27 30  1  0  0  0  0
 28 27  1  0  0  0  0
 28 29  1  0  0  0  0
 28 34  1  1  0  0  0
 29 31  1  0  0  0  0
 30 31  1  0  0  0  0
 30 26  2  0  0  0  0
 31 25  1  0  0  0  0
 32 34  1  0  0  0  0
 34 33  2  0  0  0  0
M  END
>  <MODEL>
7

>  <REMARK>
 VINA RESULT:      -6.8      2.511      7.745
  Name = 
  8 active torsions:
  status: ('A' for Active; 'I' for Inactive)
    1  A    between atoms: C_1  and  C_34
    2  A    between atoms: C_7  and  C_11
    3  A    between atoms: C_10  and  O_12
    4  A    between atoms: C_17  and  C_18
    5  A    between atoms: C_18  and  C_30
    6  A    between atoms: O_19  and  C_20
    7  A    between atoms: C_24  and  C_25
    8  A    between atoms: N_33  and  C_34
                            x       y       z     vdW  Elec       q    Type
                         _______ _______ _______ _____ _____    ______ ____

>  <TORSDO>
F 8

$$$$
=
 OpenBabel11052420183D

 34 37  0  0  1  0  0  0  0  0999 V2000
  185.8930  177.7000  144.9150 C   0  0  2  0  0  3  0  0  0  0  0  0
  187.6440  177.9430  147.3630 C   0  0  0  0  0  2  0  0  0  0  0  0
  187.4020  177.9840  144.8630 C   0  0  0  0  0  2  0  0  0  0  0  0
  186.1260  178.1770  147.4090 C   0  0  2  0  0  3  0  0  0  0  0  0
  188.1410  177.3490  146.0360 C   0  0  1  0  0  3  0  0  0  0  0  0
  185.3830  177.3790  146.3290 C   0  0  1  0  0  3  0  0  0  0  0  0
  183.8030  178.6650  145.6470 O   0  0  0  0  0  1  0  0  0  0  0  0
  184.0080  177.6120  146.4110 O   0  0  0  0  0  0  0  0  0  0  0  0
  185.8590  179.5430  147.2820 O   0  0  0  0  0  0  0  0  0  0  0  0
  186.4610  180.0950  148.3150 O   0  0  0  0  0  1  0  0  0  0  0  0
  189.6420  177.5700  145.8710 C   0  0  0  0  0  2  0  0  0  0  0  0
  191.6650  175.5550  143.2700 C   0  0  0  0  0  2  0  0  0  0  0  0
  189.5760  175.0890  145.3630 C   0  0  0  0  0  2  0  0  0  0  0  0
  191.1750  171.7950  143.0860 C   0  0  0  0  0  0  0  0  0  0  0  0
  191.6100  173.1010  142.8160 C   0  0  0  0  0  3  0  0  0  0  0  0
  191.1130  174.1840  143.5460 C   0  0  0  0  0  0  0  0  0  0  0  0
  189.7470  172.6560  144.8520 C   0  0  0  0  0  3  0  0  0  0  0  0
  190.1860  173.9560  144.5880 C   0  0  0  0  0  0  0  0  0  0  0  0
  190.2410  171.5820  144.1090 C   0  0  0  0  0  3  0  0  0  0  0  0
  190.3760  176.3870  145.2350 C   0  0  1  0  0  3  0  0  0  0  0  0
  190.7440  176.6580  143.7800 C   0  0  0  0  0  2  0  0  0  0  0  0
  191.6920  170.6590  142.3030 C   0  0  0  0  0  0  0  0  0  0  0  0
  190.9680  170.1690  141.1770 N   0  0  0  0  0  1  0  0  0  0  0  0
  192.7830  170.1130  142.6170 O   0  0  0  0  0  0  0  0  0  0  0  0
  185.5410  176.5550  143.9740 C   0  0  0  0  0  2  0  0  0  0  0  0
  185.4180  178.2020  141.5310 O   0  0  0  0  0  0  0  0  0  0  0  0
  187.3340  177.0300  140.6510 C   0  0  0  0  0  2  0  0  0  0  0  0
  188.1600  175.9150  141.3080 C   0  0  1  0  0  3  0  0  0  0  0  0
  187.5210  175.5880  142.6680 C   0  0  0  0  0  2  0  0  0  0  0  0
  186.3170  177.3360  141.6740 C   0  0  0  0  0  0  0  0  0  0  0  0
  186.4420  176.5380  142.8320 N   0  0  0  0  0  0  0  0  0  0  0  0
  188.4140  173.3360  141.0140 C   0  0  0  0  0  1  0  0  0  0  0  0
  188.0900  174.8250  139.2260 O   0  0  0  0  0  0  0  0  0  0  0  0
  188.2130  174.6990  140.4330 C   0  0  0  0  0  0  0  0  0  0  0  0
  1 25  1  6  0  0  0
  1  6  1  0  0  0  0
  2  4  1  0  0  0  0
  3  1  1  0  0  0  0
  3  5  1  0  0  0  0
  4  9  1  6  0  0  0
  5 11  1  6  0  0  0
  5  2  1  0  0  0  0
  6  8  1  6  0  0  0
  6  4  1  0  0  0  0
  7  8  1  0  0  0  0
  9 10  1  0  0  0  0
 12 16  1  0  0  0  0
 12 21  1  0  0  0  0
 14 19  1  0  0  0  0
 15 14  2  0  0  0  0
 15 16  1  0  0  0  0
 16 18  2  0  0  0  0
 18 17  1  0  0  0  0
 18 13  1  0  0  0  0
 19 17  2  0  0  0  0
 20 13  1  0  0  0  0
 20 11  1  6  0  0  0
 21 20  1  0  0  0  0
 22 24  2  0  0  0  0
 22 14  1  0  0  0  0
 23 22  1  0  0  0  0
 26 30  2  0  0  0  0
 27 28  1  0  0  0  0
 27 30  1  0  0  0  0
 28 34  1  6  0  0  0
 28 29  1  0  0  0  0
 29 31  1  0  0  0  0
 30 31  1  0  0  0  0
 31 25  1  0  0  0  0
 33 34  2  0  0  0  0
 34 32  1  0  0  0  0
M  END
>  <MODEL>
8

>  <REMARK>
 VINA RESULT:      -6.4      2.903      3.940
  Name = 
  8 active torsions:
  status: ('A' for Active; 'I' for Inactive)
    1  A    between atoms: C_1  and  C_34
    2  A    between atoms: C_7  and  C_11
    3  A    between atoms: C_10  and  O_12
    4  A    between atoms: C_17  and  C_18
    5  A    between atoms: C_18  and  C_30
    6  A    between atoms: O_19  and  C_20
    7  A    between atoms: C_24  and  C_25
    8  A    between atoms: N_33  and  C_34
                            x       y       z     vdW  Elec       q    Type
                         _______ _______ _______ _____ _____    ______ ____

>  <TORSDO>
F 8

$$$$
=
 OpenBabel11052420183D

 34 37  0  0  1  0  0  0  0  0999 V2000
  186.6900  176.8250  145.3090 C   0  0  2  0  0  3  0  0  0  0  0  0
  186.9870  178.3950  142.7470 C   0  0  0  0  0  2  0  0  0  0  0  0
  187.7910  176.5660  144.2690 C   0  0  0  0  0  2  0  0  0  0  0  0
  185.6510  178.2900  143.5000 C   0  0  2  0  0  3  0  0  0  0  0  0
  188.1860  177.8400  143.5300 C   0  0  1  0  0  3  0  0  0  0  0  0
  185.8500  178.0750  145.0060 C   0  0  1  0  0  3  0  0  0  0  0  0
  184.1200  179.2140  145.5790 O   0  0  0  0  0  1  0  0  0  0  0  0
  184.6150  177.9950  145.6540 O   0  0  0  0  0  0  0  0  0  0  0  0
  184.8850  177.2580  142.9530 O   0  0  0  0  0  0  0  0  0  0  0  0
  184.0090  177.8690  142.1810 O   0  0  0  0  0  1  0  0  0  0  0  0
  189.3550  177.5430  142.5950 C   0  0  0  0  0  2  0  0  0  0  0  0
  192.5850  177.6030  144.7120 C   0  0  0  0  0  2  0  0  0  0  0  0
  191.4070  176.0660  142.4290 C   0  0  0  0  0  2  0  0  0  0  0  0
  195.2720  175.0120  144.0220 C   0  0  0  0  0  0  0  0  0  0  0  0
  194.5790  176.1090  144.5540 C   0  0  0  0  0  3  0  0  0  0  0  0
  193.3210  176.4650  144.0600 C   0  0  0  0  0  0  0  0  0  0  0  0
  193.4230  174.6040  142.5010 C   0  0  0  0  0  3  0  0  0  0  0  0
  192.7290  175.6920  143.0360 C   0  0  0  0  0  0  0  0  0  0  0  0
  194.6840  174.2630  142.9930 C   0  0  0  0  0  3  0  0  0  0  0  0
  190.6050  177.0260  143.3110 C   0  0  1  0  0  3  0  0  0  0  0  0
  191.4850  178.1640  143.8160 C   0  0  0  0  0  2  0  0  0  0  0  0
  196.6040  174.6500  144.5380 C   0  0  0  0  0  0  0  0  0  0  0  0
  196.7360  173.9810  145.7900 N   0  0  0  0  0  1  0  0  0  0  0  0
  197.6400  174.9230  143.8750 O   0  0  0  0  0  0  0  0  0  0  0  0
  187.2980  176.9440  146.7000 C   0  0  0  0  0  2  0  0  0  0  0  0
  190.0090  177.9770  147.2280 O   0  0  0  0  0  0  0  0  0  0  0  0
  190.9060  175.7570  146.9420 C   0  0  0  0  0  2  0  0  0  0  0  0
  190.1550  174.4510  146.6420 C   0  0  1  0  0  3  0  0  0  0  0  0
  188.6620  174.7870  146.4820 C   0  0  0  0  0  2  0  0  0  0  0  0
  189.8220  176.7540  147.0080 C   0  0  0  0  0  0  0  0  0  0  0  0
  188.5450  176.1980  146.7770 N   0  0  0  0  0  0  0  0  0  0  0  0
  189.8020  173.4670  144.2520 C   0  0  0  0  0  1  0  0  0  0  0  0
  191.8810  173.5200  145.3450 O   0  0  0  0  0  0  0  0  0  0  0  0
  190.6940  173.7930  145.4080 C   0  0  0  0  0  0  0  0  0  0  0  0
  1 25  1  1  0  0  0
  2  4  1  0  0  0  0
  2  5  1  0  0  0  0
  3  1  1  0  0  0  0
  4  9  1  6  0  0  0
  4  6  1  0  0  0  0
  5 11  1  6  0  0  0
  5  3  1  0  0  0  0
  6  1  1  0  0  0  0
  6  8  1  1  0  0  0
  7  8  1  0  0  0  0
 10  9  1  0  0  0  0
 13 18  1  0  0  0  0
 13 20  1  0  0  0  0
 14 22  1  0  0  0  0
 14 15  1  0  0  0  0
 16 15  2  0  0  0  0
 16 12  1  0  0  0  0
 17 19  1  0  0  0  0
 17 18  2  0  0  0  0
 18 16  1  0  0  0  0
 19 14  2  0  0  0  0
 20 11  1  6  0  0  0
 20 21  1  0  0  0  0
 21 12  1  0  0  0  0
 22 23  1  0  0  0  0
 24 22  2  0  0  0  0
 25 31  1  0  0  0  0
 27 30  1  0  0  0  0
 28 34  1  6  0  0  0
 28 27  1  0  0  0  0
 29 28  1  0  0  0  0
 29 31  1  0  0  0  0
 30 26  2  0  0  0  0
 31 30  1  0  0  0  0
 32 34  1  0  0  0  0
 33 34  2  0  0  0  0
M  END
>  <MODEL>
9

>  <REMARK>
 VINA RESULT:      -6.4      1.935      3.928
  Name = 
  8 active torsions:
  status: ('A' for Active; 'I' for Inactive)
    1  A    between atoms: C_1  and  C_34
    2  A    between atoms: C_7  and  C_11
    3  A    between atoms: C_10  and  O_12
    4  A    between atoms: C_17  and  C_18
    5  A    between atoms: C_18  and  C_30
    6  A    between atoms: O_19  and  C_20
    7  A    between atoms: C_24  and  C_25
    8  A    between atoms: N_33  and  C_34
                            x       y       z     vdW  Elec       q    Type
                         _______ _______ _______ _____ _____    ______ ____

>  <TORSDO>
F 8

$$$$
