=
 OpenBabel11052417463D

 31 35  0  0  1  0  0  0  0  0999 V2000
  185.4700  177.9690  145.2250 C   0  0  0  0  0  3  0  0  0  0  0  0
  187.5020  177.2100  144.0480 C   0  0  0  0  0  0  0  0  0  0  0  0
  186.7750  177.1930  142.7020 C   0  0  1  0  0  3  0  0  0  0  0  0
  184.8700  178.2810  141.5510 C   0  0  0  0  0  2  0  0  0  0  0  0
  186.8230  177.5870  145.2370 C   0  0  0  0  0  0  0  0  0  0  0  0
  185.5160  178.3420  147.6140 C   0  0  0  0  0  3  0  0  0  0  0  0
  186.1190  178.5350  142.3840 C   0  0  0  0  0  2  0  0  0  0  0  0
  189.5040  176.7250  145.3880 C   0  0  0  0  0  0  0  0  0  0  0  0
  183.5200  178.7150  146.3710 F   0  0  0  0  0  0  0  0  0  0  0  0
  188.6010  175.6630  141.9000 C   0  0  0  0  0  2  0  0  0  0  0  0
  185.1180  178.2870  140.0380 C   0  0  0  0  0  2  0  0  0  0  0  0
  188.8330  177.1550  146.5350 C   0  0  0  0  0  3  0  0  0  0  0  0
  188.8320  176.7190  144.1510 C   0  0  0  0  0  0  0  0  0  0  0  0
  184.8220  178.3450  146.4030 C   0  0  0  0  0  0  0  0  0  0  0  0
  186.4330  177.6620  139.5570 C   0  0  0  0  0  2  0  0  0  0  0  0
  187.5090  177.5700  146.4740 C   0  0  0  0  0  0  0  0  0  0  0  0
  186.8560  177.9520  147.6500 C   0  0  0  0  0  3  0  0  0  0  0  0
  189.5650  176.2090  142.9370 C   0  0  0  0  0  2  0  0  0  0  0  0
  187.6610  176.7850  141.5180 C   0  0  1  0  0  3  0  0  0  0  0  0
  186.8240  176.3960  140.3080 C   0  0  0  0  0  2  0  0  0  0  0  0
  190.5060  174.0230  145.9930 O   0  0  0  0  0  0  0  0  0  0  0  0
  191.3300  174.9430  145.7500 C   0  0  0  0  0  0  0  0  0  0  0  0
  190.8680  176.2710  145.4560 N   0  0  0  0  0  2  0  0  0  0  0  0
  195.5660  174.2400  145.8330 C   0  0  0  0  0  0  0  0  0  0  0  0
  193.6540  175.6580  146.2530 C   0  0  0  0  0  3  0  0  0  0  0  0
  192.5270  172.4310  144.8120 O   0  0  0  0  0  1  0  0  0  0  0  0
  196.9720  174.0240  145.8670 N   0  0  0  0  0  1  0  0  0  0  0  0
  195.0340  175.4470  146.2880 C   0  0  0  0  0  3  0  0  0  0  0  0
  193.3350  173.4480  145.3070 C   0  0  0  0  0  0  0  0  0  0  0  0
  192.7860  174.6690  145.7650 C   0  0  0  0  0  0  0  0  0  0  0  0
  194.7180  173.2450  145.3440 C   0  0  0  0  0  3  0  0  0  0  0  0
  1  5  2  0  0  0  0
  1 14  1  0  0  0  0
  2 13  2  0  0  0  0
  2  5  1  0  0  0  0
  3  7  1  6  0  0  0
  3  2  1  0  0  0  0
  4  7  1  0  0  0  0
  5 16  1  0  0  0  0
  6 17  1  0  0  0  0
  8 23  1  0  0  0  0
  8 12  2  0  0  0  0
  9 14  1  0  0  0  0
 10 18  1  0  0  0  0
 11  4  1  0  0  0  0
 13  8  1  0  0  0  0
 14  6  2  0  0  0  0
 15 11  1  0  0  0  0
 15 20  1  0  0  0  0
 16 12  1  0  0  0  0
 16 17  2  0  0  0  0
 18 13  1  0  0  0  0
 19 20  1  6  0  0  0
 19 10  1  0  0  0  0
 19  3  1  0  0  0  0
 22 30  1  0  0  0  0
 22 21  2  0  0  0  0
 23 22  1  0  0  0  0
 24 27  1  0  0  0  0
 24 28  1  0  0  0  0
 25 28  2  0  0  0  0
 26 29  1  0  0  0  0
 29 31  1  0  0  0  0
 29 30  2  0  0  0  0
 30 25  1  0  0  0  0
 31 24  2  0  0  0  0
M  END
>  <MODEL>
1

>  <REMARK>
 VINA RESULT:      -9.4      0.000      0.000
  Name = 
  2 active torsions:
  status: ('A' for Active; 'I' for Inactive)
    1  A    between atoms: C_9  and  C_22
    2  A    between atoms: C_15  and  N_23
                            x       y       z     vdW  Elec       q    Type
                         _______ _______ _______ _____ _____    ______ ____

>  <TORSDO>
F 2

$$$$
=
 OpenBabel11052417463D

 31 35  0  0  1  0  0  0  0  0999 V2000
  186.0320  177.8030  142.0960 C   0  0  0  0  0  3  0  0  0  0  0  0
  187.4210  176.7670  143.8530 C   0  0  0  0  0  0  0  0  0  0  0  0
  186.7020  177.5510  144.9520 C   0  0  1  0  0  3  0  0  0  0  0  0
  184.5150  178.6210  145.4100 C   0  0  0  0  0  2  0  0  0  0  0  0
  187.0620  176.9300  142.4890 C   0  0  0  0  0  0  0  0  0  0  0  0
  186.3710  177.2170  139.7750 C   0  0  0  0  0  3  0  0  0  0  0  0
  185.1880  177.3520  144.9070 C   0  0  0  0  0  2  0  0  0  0  0  0
  189.2220  175.2440  143.1590 C   0  0  0  0  0  0  0  0  0  0  0  0
  184.6880  178.7840  140.3920 F   0  0  0  0  0  0  0  0  0  0  0  0
  188.7010  177.0720  146.4000 C   0  0  0  0  0  2  0  0  0  0  0  0
  184.2520  178.6300  146.9210 C   0  0  0  0  0  2  0  0  0  0  0  0
  188.8130  175.3770  141.8300 C   0  0  0  0  0  3  0  0  0  0  0  0
  188.5510  175.9630  144.1680 C   0  0  0  0  0  0  0  0  0  0  0  0
  185.6880  177.9440  140.7500 C   0  0  0  0  0  0  0  0  0  0  0  0
  185.3320  177.9970  147.8070 C   0  0  0  0  0  2  0  0  0  0  0  0
  187.7580  176.2140  141.4880 C   0  0  0  0  0  0  0  0  0  0  0  0
  187.4060  176.3550  140.1420 C   0  0  0  0  0  3  0  0  0  0  0  0
  189.0390  175.8360  145.5870 C   0  0  0  0  0  2  0  0  0  0  0  0
  187.1970  177.2380  146.3700 C   0  0  1  0  0  3  0  0  0  0  0  0
  186.7550  178.3050  147.3600 C   0  0  0  0  0  2  0  0  0  0  0  0
  192.0910  175.9050  143.1930 O   0  0  0  0  0  0  0  0  0  0  0  0
  191.7230  174.7460  143.5230 C   0  0  0  0  0  0  0  0  0  0  0  0
  190.3300  174.3970  143.5110 N   0  0  0  0  0  2  0  0  0  0  0  0
  194.6220  171.7640  144.5960 C   0  0  0  0  0  0  0  0  0  0  0  0
  193.2270  172.8550  142.9510 C   0  0  0  0  0  3  0  0  0  0  0  0
  192.7240  174.4400  146.2660 O   0  0  0  0  0  1  0  0  0  0  0  0
  195.5830  170.7710  144.9350 N   0  0  0  0  0  1  0  0  0  0  0  0
  194.1700  171.8800  143.2810 C   0  0  0  0  0  3  0  0  0  0  0  0
  193.1870  173.6040  145.2570 C   0  0  0  0  0  0  0  0  0  0  0  0
  192.7220  173.7290  143.9260 C   0  0  0  0  0  0  0  0  0  0  0  0
  194.1310  172.6250  145.5800 C   0  0  0  0  0  3  0  0  0  0  0  0
  1  5  1  0  0  0  0
  2 13  1  0  0  0  0
  2  3  1  0  0  0  0
  3  7  1  1  0  0  0
  3 19  1  0  0  0  0
  4 11  1  0  0  0  0
  5  2  2  0  0  0  0
  6 17  2  0  0  0  0
  6 14  1  0  0  0  0
  7  4  1  0  0  0  0
  8 23  1  0  0  0  0
  8 13  2  0  0  0  0
  9 14  1  0  0  0  0
 11 15  1  0  0  0  0
 12  8  1  0  0  0  0
 13 18  1  0  0  0  0
 14  1  2  0  0  0  0
 16 12  2  0  0  0  0
 16  5  1  0  0  0  0
 17 16  1  0  0  0  0
 18 10  1  0  0  0  0
 19 10  1  6  0  0  0
 19 20  1  0  0  0  0
 20 15  1  0  0  0  0
 21 22  2  0  0  0  0
 22 30  1  0  0  0  0
 23 22  1  0  0  0  0
 24 27  1  0  0  0  0
 24 31  1  0  0  0  0
 25 28  1  0  0  0  0
 25 30  2  0  0  0  0
 28 24  2  0  0  0  0
 29 31  2  0  0  0  0
 29 26  1  0  0  0  0
 30 29  1  0  0  0  0
M  END
>  <MODEL>
2

>  <REMARK>
 VINA RESULT:      -9.0      1.881      4.494
  Name = 
  2 active torsions:
  status: ('A' for Active; 'I' for Inactive)
    1  A    between atoms: C_9  and  C_22
    2  A    between atoms: C_15  and  N_23
                            x       y       z     vdW  Elec       q    Type
                         _______ _______ _______ _____ _____    ______ ____

>  <TORSDO>
F 2

$$$$
=
 OpenBabel11052417463D

 31 35  0  0  1  0  0  0  0  0999 V2000
  186.0920  177.8100  142.2810 C   0  0  0  0  0  3  0  0  0  0  0  0
  187.5570  176.7940  143.9870 C   0  0  0  0  0  0  0  0  0  0  0  0
  186.8540  177.5530  145.1130 C   0  0  1  0  0  3  0  0  0  0  0  0
  184.6580  178.5710  145.6460 C   0  0  0  0  0  2  0  0  0  0  0  0
  187.1520  176.9580  142.6360 C   0  0  0  0  0  0  0  0  0  0  0  0
  186.3720  177.2480  139.9460 C   0  0  0  0  0  3  0  0  0  0  0  0
  185.3450  177.3200  145.1120 C   0  0  0  0  0  2  0  0  0  0  0  0
  189.3680  175.3170  143.2270 C   0  0  0  0  0  0  0  0  0  0  0  0
  184.6750  178.7730  140.6260 F   0  0  0  0  0  0  0  0  0  0  0  0
  188.9060  177.1090  146.4960 C   0  0  0  0  0  2  0  0  0  0  0  0
  184.4420  178.5630  147.1640 C   0  0  0  0  0  2  0  0  0  0  0  0
  188.9170  175.4500  141.9120 C   0  0  0  0  0  3  0  0  0  0  0  0
  188.7130  176.0130  144.2610 C   0  0  0  0  0  0  0  0  0  0  0  0
  185.7030  177.9530  140.9470 C   0  0  0  0  0  0  0  0  0  0  0  0
  185.5620  177.9480  148.0120 C   0  0  0  0  0  2  0  0  0  0  0  0
  187.8340  176.2650  141.6080 C   0  0  0  0  0  0  0  0  0  0  0  0
  187.4380  176.4080  140.2750 C   0  0  0  0  0  3  0  0  0  0  0  0
  189.2460  175.8870  145.6640 C   0  0  0  0  0  2  0  0  0  0  0  0
  187.3990  177.2410  146.5130 C   0  0  1  0  0  3  0  0  0  0  0  0
  186.9630  178.2910  147.5240 C   0  0  0  0  0  2  0  0  0  0  0  0
  189.4040  172.5110  144.1210 O   0  0  0  0  0  0  0  0  0  0  0  0
  190.4950  173.1220  143.9700 C   0  0  0  0  0  0  0  0  0  0  0  0
  190.5050  174.4920  143.5380 N   0  0  0  0  0  2  0  0  0  0  0  0
  194.2490  171.2080  144.8010 C   0  0  0  0  0  0  0  0  0  0  0  0
  192.6980  173.0350  145.1120 C   0  0  0  0  0  3  0  0  0  0  0  0
  191.2550  170.5560  142.7610 O   0  0  0  0  0  1  0  0  0  0  0  0
  195.4970  170.5880  145.0860 N   0  0  0  0  0  1  0  0  0  0  0  0
  193.9230  172.4280  145.3950 C   0  0  0  0  0  3  0  0  0  0  0  0
  192.1210  171.1980  143.6380 C   0  0  0  0  0  0  0  0  0  0  0  0
  191.7810  172.4360  144.2350 C   0  0  0  0  0  0  0  0  0  0  0  0
  193.3500  170.5970  143.9250 C   0  0  0  0  0  3  0  0  0  0  0  0
  1  5  1  0  0  0  0
  2 13  1  0  0  0  0
  2  3  1  0  0  0  0
  3  7  1  1  0  0  0
  3 19  1  0  0  0  0
  4 11  1  0  0  0  0
  5  2  2  0  0  0  0
  6 17  2  0  0  0  0
  6 14  1  0  0  0  0
  7  4  1  0  0  0  0
  8 23  1  0  0  0  0
  8 13  2  0  0  0  0
  9 14  1  0  0  0  0
 11 15  1  0  0  0  0
 12  8  1  0  0  0  0
 13 18  1  0  0  0  0
 14  1  2  0  0  0  0
 16 12  2  0  0  0  0
 16  5  1  0  0  0  0
 17 16  1  0  0  0  0
 18 10  1  0  0  0  0
 19 10  1  6  0  0  0
 19 20  1  0  0  0  0
 20 15  1  0  0  0  0
 22 21  2  0  0  0  0
 22 30  1  0  0  0  0
 23 22  1  0  0  0  0
 24 27  1  0  0  0  0
 24 28  1  0  0  0  0
 25 28  2  0  0  0  0
 26 29  1  0  0  0  0
 29 31  1  0  0  0  0
 29 30  2  0  0  0  0
 30 25  1  0  0  0  0
 31 24  2  0  0  0  0
M  END
>  <MODEL>
3

>  <REMARK>
 VINA RESULT:      -8.9      1.951      4.509
  Name = 
  2 active torsions:
  status: ('A' for Active; 'I' for Inactive)
    1  A    between atoms: C_9  and  C_22
    2  A    between atoms: C_15  and  N_23
                            x       y       z     vdW  Elec       q    Type
                         _______ _______ _______ _____ _____    ______ ____

>  <TORSDO>
F 2

$$$$
=
 OpenBabel11052417463D

 31 35  0  0  1  0  0  0  0  0999 V2000
  185.7320  177.7010  145.1160 C   0  0  0  0  0  3  0  0  0  0  0  0
  187.6590  176.7470  143.9060 C   0  0  0  0  0  0  0  0  0  0  0  0
  186.9360  176.8640  142.5630 C   0  0  1  0  0  3  0  0  0  0  0  0
  185.1740  178.2110  141.4580 C   0  0  0  0  0  2  0  0  0  0  0  0
  187.0300  177.1610  145.1090 C   0  0  0  0  0  0  0  0  0  0  0  0
  185.8210  177.9820  147.5160 C   0  0  0  0  0  3  0  0  0  0  0  0
  186.4450  178.2850  142.2940 C   0  0  0  0  0  2  0  0  0  0  0  0
  189.5890  175.9810  145.2210 C   0  0  0  0  0  0  0  0  0  0  0  0
  183.8840  178.6340  146.2940 F   0  0  0  0  0  0  0  0  0  0  0  0
  188.5670  175.1560  141.7010 C   0  0  0  0  0  2  0  0  0  0  0  0
  185.4220  178.2390  139.9440 C   0  0  0  0  0  2  0  0  0  0  0  0
  188.9730  176.4470  146.3850 C   0  0  0  0  0  3  0  0  0  0  0  0
  188.9210  176.0980  143.9870 C   0  0  0  0  0  0  0  0  0  0  0  0
  185.1320  178.1100  146.3090 C   0  0  0  0  0  0  0  0  0  0  0  0
  186.6530  177.4790  139.4380 C   0  0  0  0  0  2  0  0  0  0  0  0
  187.7080  177.0190  146.3430 C   0  0  0  0  0  0  0  0  0  0  0  0
  187.1050  177.4350  147.5340 C   0  0  0  0  0  3  0  0  0  0  0  0
  189.5880  175.5470  142.7530 C   0  0  0  0  0  2  0  0  0  0  0  0
  187.7670  176.3950  141.3620 C   0  0  1  0  0  3  0  0  0  0  0  0
  186.8900  176.1510  140.1420 C   0  0  0  0  0  2  0  0  0  0  0  0
  192.2280  177.2590  144.9570 O   0  0  0  0  0  0  0  0  0  0  0  0
  192.1640  176.0140  145.1400 C   0  0  0  0  0  0  0  0  0  0  0  0
  190.8880  175.3660  145.2680 N   0  0  0  0  0  2  0  0  0  0  0  0
  195.7110  173.6000  145.3200 C   0  0  0  0  0  0  0  0  0  0  0  0
  193.4880  174.0230  144.4710 C   0  0  0  0  0  3  0  0  0  0  0  0
  194.4740  176.7330  146.8050 O   0  0  0  0  0  1  0  0  0  0  0  0
  196.8780  172.7880  145.3680 N   0  0  0  0  0  1  0  0  0  0  0  0
  194.6330  173.2260  144.5160 C   0  0  0  0  0  3  0  0  0  0  0  0
  194.5000  175.5750  146.0360 C   0  0  0  0  0  0  0  0  0  0  0  0
  193.4020  175.2040  145.2250 C   0  0  0  0  0  0  0  0  0  0  0  0
  195.6430  174.7710  146.0760 C   0  0  0  0  0  3  0  0  0  0  0  0
  1 14  1  0  0  0  0
  2 13  2  0  0  0  0
  2  5  1  0  0  0  0
  3  7  1  6  0  0  0
  3  2  1  0  0  0  0
  4  7  1  0  0  0  0
  5  1  2  0  0  0  0
  5 16  1  0  0  0  0
  6 17  1  0  0  0  0
  8 23  1  0  0  0  0
  8 12  2  0  0  0  0
  9 14  1  0  0  0  0
 10 18  1  0  0  0  0
 11  4  1  0  0  0  0
 13  8  1  0  0  0  0
 14  6  2  0  0  0  0
 15 11  1  0  0  0  0
 15 20  1  0  0  0  0
 16 12  1  0  0  0  0
 16 17  2  0  0  0  0
 18 13  1  0  0  0  0
 19 20  1  6  0  0  0
 19 10  1  0  0  0  0
 19  3  1  0  0  0  0
 21 22  2  0  0  0  0
 22 30  1  0  0  0  0
 22 23  1  0  0  0  0
 24 27  1  0  0  0  0
 24 31  1  0  0  0  0
 25 28  1  0  0  0  0
 25 30  2  0  0  0  0
 28 24  2  0  0  0  0
 29 31  2  0  0  0  0
 29 26  1  0  0  0  0
 30 29  1  0  0  0  0
M  END
>  <MODEL>
4

>  <REMARK>
 VINA RESULT:      -8.8      1.300      1.572
  Name = 
  2 active torsions:
  status: ('A' for Active; 'I' for Inactive)
    1  A    between atoms: C_9  and  C_22
    2  A    between atoms: C_15  and  N_23
                            x       y       z     vdW  Elec       q    Type
                         _______ _______ _______ _____ _____    ______ ____

>  <TORSDO>
F 2

$$$$
=
 OpenBabel11052417463D

 31 35  0  0  1  0  0  0  0  0999 V2000
  187.1090  178.0520  145.1310 C   0  0  0  0  0  3  0  0  0  0  0  0
  188.7760  176.6260  144.0030 C   0  0  0  0  0  0  0  0  0  0  0  0
  189.8010  176.8610  145.1130 C   0  0  1  0  0  3  0  0  0  0  0  0
  189.9040  177.4170  147.5260 C   0  0  0  0  0  2  0  0  0  0  0  0
  187.4920  177.2290  144.0580 C   0  0  0  0  0  0  0  0  0  0  0  0
  184.9320  178.3980  144.1370 C   0  0  0  0  0  3  0  0  0  0  0  0
  189.2490  176.5100  146.4930 C   0  0  0  0  0  2  0  0  0  0  0  0
  188.2030  175.6910  141.8030 C   0  0  0  0  0  0  0  0  0  0  0  0
  185.4860  179.4160  146.2170 F   0  0  0  0  0  0  0  0  0  0  0  0
  191.5470  176.1350  143.4560 C   0  0  0  0  0  2  0  0  0  0  0  0
  191.1910  176.8430  148.1310 C   0  0  0  0  0  2  0  0  0  0  0  0
  186.9260  176.2480  141.9060 C   0  0  0  0  0  3  0  0  0  0  0  0
  189.1400  175.9060  142.8310 C   0  0  0  0  0  0  0  0  0  0  0  0
  185.8390  178.6310  145.1720 C   0  0  0  0  0  0  0  0  0  0  0  0
  192.1090  176.0670  147.1790 C   0  0  0  0  0  2  0  0  0  0  0  0
  186.5700  177.0170  143.0070 C   0  0  0  0  0  0  0  0  0  0  0  0
  185.2970  177.5950  143.0550 C   0  0  0  0  0  3  0  0  0  0  0  0
  190.5240  175.3310  142.6760 C   0  0  0  0  0  2  0  0  0  0  0  0
  191.1270  176.1160  144.9090 C   0  0  1  0  0  3  0  0  0  0  0  0
  192.2260  176.6870  145.7930 C   0  0  0  0  0  2  0  0  0  0  0  0
  187.8160  172.8100  141.3310 O   0  0  0  0  0  0  0  0  0  0  0  0
  188.3760  173.5090  140.4440 C   0  0  0  0  0  0  0  0  0  0  0  0
  188.5800  174.9160  140.6510 N   0  0  0  0  0  2  0  0  0  0  0  0
  189.7380  171.6370  136.8260 C   0  0  0  0  0  0  0  0  0  0  0  0
  189.5720  171.6990  139.2370 C   0  0  0  0  0  3  0  0  0  0  0  0
  187.8160  174.6270  137.7870 O   0  0  0  0  0  1  0  0  0  0  0  0
  190.1970  171.0050  135.6380 N   0  0  0  0  0  1  0  0  0  0  0  0
  190.0240  171.0760  138.0720 C   0  0  0  0  0  3  0  0  0  0  0  0
  188.5460  173.4500  137.9100 C   0  0  0  0  0  0  0  0  0  0  0  0
  188.8310  172.8890  139.1770 C   0  0  0  0  0  0  0  0  0  0  0  0
  189.0020  172.8210  136.7480 C   0  0  0  0  0  3  0  0  0  0  0  0
  1 14  1  0  0  0  0
  2  5  1  0  0  0  0
  2  3  1  0  0  0  0
  3  7  1  1  0  0  0
  4 11  1  0  0  0  0
  5  1  2  0  0  0  0
  6 14  2  0  0  0  0
  7  4  1  0  0  0  0
  8 12  2  0  0  0  0
  8 13  1  0  0  0  0
 12 16  1  0  0  0  0
 13  2  2  0  0  0  0
 14  9  1  0  0  0  0
 15 11  1  0  0  0  0
 16 17  2  0  0  0  0
 16  5  1  0  0  0  0
 17  6  1  0  0  0  0
 18 13  1  0  0  0  0
 18 10  1  0  0  0  0
 19 10  1  6  0  0  0
 19  3  1  0  0  0  0
 19 20  1  0  0  0  0
 20 15  1  0  0  0  0
 22 23  1  0  0  0  0
 22 21  2  0  0  0  0
 23  8  1  0  0  0  0
 24 28  1  0  0  0  0
 26 29  1  0  0  0  0
 27 24  1  0  0  0  0
 28 25  2  0  0  0  0
 29 30  2  0  0  0  0
 30 25  1  0  0  0  0
 30 22  1  0  0  0  0
 31 24  2  0  0  0  0
 31 29  1  0  0  0  0
M  END
>  <MODEL>
5

>  <REMARK>
 VINA RESULT:      -8.7      3.898      6.734
  Name = 
  2 active torsions:
  status: ('A' for Active; 'I' for Inactive)
    1  A    between atoms: C_9  and  C_22
    2  A    between atoms: C_15  and  N_23
                            x       y       z     vdW  Elec       q    Type
                         _______ _______ _______ _____ _____    ______ ____

>  <TORSDO>
F 2

$$$$
=
 OpenBabel11052417463D

 31 35  0  0  1  0  0  0  0  0999 V2000
  190.0170  175.8630  146.9360 C   0  0  0  0  0  3  0  0  0  0  0  0
  188.8130  176.0770  144.7930 C   0  0  0  0  0  0  0  0  0  0  0  0
  187.5960  176.6950  145.4830 C   0  0  1  0  0  3  0  0  0  0  0  0
  187.0100  178.0050  147.5030 C   0  0  0  0  0  2  0  0  0  0  0  0
  189.9540  175.6890  145.5430 C   0  0  0  0  0  0  0  0  0  0  0  0
  192.2410  174.9160  146.9920 C   0  0  0  0  0  3  0  0  0  0  0  0
  187.9650  177.9180  146.3200 C   0  0  0  0  0  2  0  0  0  0  0  0
  189.8830  175.1860  142.7680 C   0  0  0  0  0  0  0  0  0  0  0  0
  191.1960  175.6640  148.9960 F   0  0  0  0  0  0  0  0  0  0  0  0
  186.2870  176.0400  143.4390 C   0  0  0  0  0  2  0  0  0  0  0  0
  185.7520  178.8400  147.2290 C   0  0  0  0  0  2  0  0  0  0  0  0
  191.0180  174.8640  143.5180 C   0  0  0  0  0  3  0  0  0  0  0  0
  188.7680  175.7600  143.4080 C   0  0  0  0  0  0  0  0  0  0  0  0
  191.1520  175.4820  147.6560 C   0  0  0  0  0  0  0  0  0  0  0  0
  185.1420  178.7170  145.8280 C   0  0  0  0  0  2  0  0  0  0  0  0
  191.0580  175.0960  144.8870 C   0  0  0  0  0  0  0  0  0  0  0  0
  192.1940  174.7200  145.6110 C   0  0  0  0  0  3  0  0  0  0  0  0
  187.5410  176.0580  142.5860 C   0  0  0  0  0  2  0  0  0  0  0  0
  186.4610  177.0790  144.5240 C   0  0  1  0  0  3  0  0  0  0  0  0
  185.1540  177.2990  145.2720 C   0  0  0  0  0  2  0  0  0  0  0  0
  189.1900  172.6720  141.4000 O   0  0  0  0  0  0  0  0  0  0  0  0
  189.4850  173.6850  140.7120 C   0  0  0  0  0  0  0  0  0  0  0  0
  189.8310  174.9220  141.3550 N   0  0  0  0  0  2  0  0  0  0  0  0
  189.3830  173.5260  136.4210 C   0  0  0  0  0  0  0  0  0  0  0  0
  188.3960  174.1640  138.5330 C   0  0  0  0  0  3  0  0  0  0  0  0
  191.6290  172.4490  139.1320 O   0  0  0  0  0  1  0  0  0  0  0  0
  189.3340  173.4810  135.0010 N   0  0  0  0  0  1  0  0  0  0  0  0
  188.3450  174.1220  137.1380 C   0  0  0  0  0  3  0  0  0  0  0  0
  190.5290  173.0110  138.4960 C   0  0  0  0  0  0  0  0  0  0  0  0
  189.4810  173.6130  139.2320 C   0  0  0  0  0  0  0  0  0  0  0  0
  190.4710  172.9730  137.1000 C   0  0  0  0  0  3  0  0  0  0  0  0
  1 14  1  0  0  0  0
  2  3  1  0  0  0  0
  2  5  1  0  0  0  0
  3  7  1  6  0  0  0
  5  1  2  0  0  0  0
  6 14  2  0  0  0  0
  7  4  1  0  0  0  0
  8 13  1  0  0  0  0
  8 12  2  0  0  0  0
 11  4  1  0  0  0  0
 12 16  1  0  0  0  0
 13  2  2  0  0  0  0
 14  9  1  0  0  0  0
 15 11  1  0  0  0  0
 16  5  1  0  0  0  0
 16 17  2  0  0  0  0
 17  6  1  0  0  0  0
 18 13  1  0  0  0  0
 18 10  1  0  0  0  0
 19 10  1  6  0  0  0
 19 20  1  0  0  0  0
 19  3  1  0  0  0  0
 20 15  1  0  0  0  0
 22 23  1  0  0  0  0
 22 21  2  0  0  0  0
 23  8  1  0  0  0  0
 24 31  2  0  0  0  0
 24 28  1  0  0  0  0
 25 30  1  0  0  0  0
 27 24  1  0  0  0  0
 28 25  2  0  0  0  0
 29 26  1  0  0  0  0
 29 30  2  0  0  0  0
 30 22  1  0  0  0  0
 31 29  1  0  0  0  0
M  END
>  <MODEL>
6

>  <REMARK>
 VINA RESULT:      -8.4      3.722      6.628
  Name = 
  2 active torsions:
  status: ('A' for Active; 'I' for Inactive)
    1  A    between atoms: C_9  and  C_22
    2  A    between atoms: C_15  and  N_23
                            x       y       z     vdW  Elec       q    Type
                         _______ _______ _______ _____ _____    ______ ____

>  <TORSDO>
F 2

$$$$
=
 OpenBabel11052417463D

 31 35  0  0  1  0  0  0  0  0999 V2000
  191.1330  175.3400  145.7070 C   0  0  0  0  0  3  0  0  0  0  0  0
  189.3070  174.9580  144.0920 C   0  0  0  0  0  0  0  0  0  0  0  0
  190.0840  173.8350  143.4040 C   0  0  1  0  0  3  0  0  0  0  0  0
  191.8330  172.1490  143.8940 C   0  0  0  0  0  2  0  0  0  0  0  0
  189.8620  175.6560  145.1960 C   0  0  0  0  0  0  0  0  0  0  0  0
  190.9230  177.0560  147.3970 C   0  0  0  0  0  3  0  0  0  0  0  0
  190.5240  172.7510  144.3860 C   0  0  0  0  0  2  0  0  0  0  0  0
  187.3550  176.4490  144.1760 C   0  0  0  0  0  0  0  0  0  0  0  0
  192.8820  175.7090  147.2800 F   0  0  0  0  0  0  0  0  0  0  0  0
  188.5710  174.1940  141.4280 C   0  0  0  0  0  2  0  0  0  0  0  0
  191.6530  170.9370  142.9710 C   0  0  0  0  0  2  0  0  0  0  0  0
  187.8960  177.0840  145.2970 C   0  0  0  0  0  3  0  0  0  0  0  0
  188.0720  175.4110  143.5510 C   0  0  0  0  0  0  0  0  0  0  0  0
  191.6590  176.0320  146.7990 C   0  0  0  0  0  0  0  0  0  0  0  0
  190.4810  170.9960  141.9850 C   0  0  0  0  0  2  0  0  0  0  0  0
  189.1360  176.7090  145.8000 C   0  0  0  0  0  0  0  0  0  0  0  0
  189.6640  177.3960  146.8970 C   0  0  0  0  0  3  0  0  0  0  0  0
  187.4870  174.7730  142.3180 C   0  0  0  0  0  2  0  0  0  0  0  0
  189.3300  173.1700  142.2440 C   0  0  1  0  0  3  0  0  0  0  0  0
  190.2710  172.3680  141.3580 C   0  0  0  0  0  2  0  0  0  0  0  0
  186.7540  178.7340  142.4190 O   0  0  0  0  0  0  0  0  0  0  0  0
  185.8170  177.9730  142.7790 C   0  0  0  0  0  0  0  0  0  0  0  0
  186.0830  176.8540  143.6390 N   0  0  0  0  0  2  0  0  0  0  0  0
  181.8220  178.6630  141.3620 C   0  0  0  0  0  0  0  0  0  0  0  0
  184.0970  177.9360  140.9890 C   0  0  0  0  0  3  0  0  0  0  0  0
  183.6970  179.0420  144.5070 O   0  0  0  0  0  1  0  0  0  0  0  0
  180.5040  178.8860  140.8760 N   0  0  0  0  0  1  0  0  0  0  0  0
  182.8030  178.1540  140.5100 C   0  0  0  0  0  3  0  0  0  0  0  0
  183.4280  178.7390  143.1770 C   0  0  0  0  0  0  0  0  0  0  0  0
  184.4300  178.2230  142.3220 C   0  0  0  0  0  0  0  0  0  0  0  0
  182.1350  178.9550  142.6910 C   0  0  0  0  0  3  0  0  0  0  0  0
  1 14  1  0  0  0  0
  2  5  1  0  0  0  0
  3  2  1  0  0  0  0
  3  7  1  1  0  0  0
  4  7  1  0  0  0  0
  5  1  2  0  0  0  0
  5 16  1  0  0  0  0
  8 12  2  0  0  0  0
 10 19  1  0  0  0  0
 10 18  1  0  0  0  0
 11  4  1  0  0  0  0
 12 16  1  0  0  0  0
 13  2  2  0  0  0  0
 13  8  1  0  0  0  0
 14  9  1  0  0  0  0
 14  6  2  0  0  0  0
 15 11  1  0  0  0  0
 16 17  2  0  0  0  0
 17  6  1  0  0  0  0
 18 13  1  0  0  0  0
 19 20  1  6  0  0  0
 19  3  1  0  0  0  0
 20 15  1  0  0  0  0
 21 22  2  0  0  0  0
 22 23  1  0  0  0  0
 23  8  1  0  0  0  0
 24 31  1  0  0  0  0
 25 30  2  0  0  0  0
 27 24  1  0  0  0  0
 28 25  1  0  0  0  0
 28 24  2  0  0  0  0
 29 26  1  0  0  0  0
 30 22  1  0  0  0  0
 30 29  1  0  0  0  0
 31 29  2  0  0  0  0
M  END
>  <MODEL>
7

>  <REMARK>
 VINA RESULT:      -8.3      4.079      8.414
  Name = 
  2 active torsions:
  status: ('A' for Active; 'I' for Inactive)
    1  A    between atoms: C_9  and  C_22
    2  A    between atoms: C_15  and  N_23
                            x       y       z     vdW  Elec       q    Type
                         _______ _______ _______ _____ _____    ______ ____

>  <TORSDO>
F 2

$$$$
=
 OpenBabel11052417463D

 31 35  0  0  1  0  0  0  0  0999 V2000
  187.4660  177.8230  144.7350 C   0  0  0  0  0  3  0  0  0  0  0  0
  188.9550  175.9080  144.2840 C   0  0  0  0  0  0  0  0  0  0  0  0
  189.9310  176.3480  145.3760 C   0  0  1  0  0  3  0  0  0  0  0  0
  189.9670  177.6210  147.5020 C   0  0  0  0  0  2  0  0  0  0  0  0
  187.7820  176.6590  144.0120 C   0  0  0  0  0  0  0  0  0  0  0  0
  185.4380  178.1150  143.4490 C   0  0  0  0  0  3  0  0  0  0  0  0
  189.2440  176.5270  146.7280 C   0  0  0  0  0  2  0  0  0  0  0  0
  188.3840  174.4070  142.4230 C   0  0  0  0  0  0  0  0  0  0  0  0
  186.0120  179.6590  145.1690 F   0  0  0  0  0  0  0  0  0  0  0  0
  191.6430  174.9130  144.2210 C   0  0  0  0  0  2  0  0  0  0  0  0
  191.1050  177.1060  148.3910 C   0  0  0  0  0  2  0  0  0  0  0  0
  187.2060  175.1300  142.2110 C   0  0  0  0  0  3  0  0  0  0  0  0
  189.2750  174.8130  143.4350 C   0  0  0  0  0  0  0  0  0  0  0  0
  186.3030  178.5440  144.4570 C   0  0  0  0  0  0  0  0  0  0  0  0
  191.9480  175.9560  147.8270 C   0  0  0  0  0  2  0  0  0  0  0  0
  186.9070  176.2470  142.9800 C   0  0  0  0  0  0  0  0  0  0  0  0
  185.7410  176.9710  142.7090 C   0  0  0  0  0  3  0  0  0  0  0  0
  190.5580  174.0440  143.6150 C   0  0  0  0  0  2  0  0  0  0  0  0
  191.1330  175.4100  145.5560 C   0  0  1  0  0  3  0  0  0  0  0  0
  192.2490  176.0850  146.3400 C   0  0  0  0  0  2  0  0  0  0  0  0
  190.3050  174.2280  140.1990 O   0  0  0  0  0  0  0  0  0  0  0  0
  189.6530  173.2030  140.5320 C   0  0  0  0  0  0  0  0  0  0  0  0
  188.7060  173.2650  141.6110 N   0  0  0  0  0  2  0  0  0  0  0  0
  190.2860  169.4540  138.5340 C   0  0  0  0  0  0  0  0  0  0  0  0
  190.6020  170.9100  140.4370 C   0  0  0  0  0  3  0  0  0  0  0  0
  188.5660  172.6390  137.8630 O   0  0  0  0  0  1  0  0  0  0  0  0
  190.5050  168.2070  137.8860 N   0  0  0  0  0  1  0  0  0  0  0  0
  190.8180  169.6850  139.8030 C   0  0  0  0  0  3  0  0  0  0  0  0
  189.3160  171.6770  138.5290 C   0  0  0  0  0  0  0  0  0  0  0  0
  189.8520  171.9210  139.8150 C   0  0  0  0  0  0  0  0  0  0  0  0
  189.5380  170.4480  137.9000 C   0  0  0  0  0  3  0  0  0  0  0  0
  2  3  1  0  0  0  0
  3 19  1  0  0  0  0
  3  7  1  1  0  0  0
  4 11  1  0  0  0  0
  5  2  1  0  0  0  0
  5  1  2  0  0  0  0
  6 14  2  0  0  0  0
  7  4  1  0  0  0  0
  8 13  1  0  0  0  0
 12  8  2  0  0  0  0
 12 16  1  0  0  0  0
 13 18  1  0  0  0  0
 13  2  2  0  0  0  0
 14  1  1  0  0  0  0
 14  9  1  0  0  0  0
 15 11  1  0  0  0  0
 16  5  1  0  0  0  0
 17 16  2  0  0  0  0
 17  6  1  0  0  0  0
 18 10  1  0  0  0  0
 19 10  1  6  0  0  0
 19 20  1  0  0  0  0
 20 15  1  0  0  0  0
 21 22  2  0  0  0  0
 22 23  1  0  0  0  0
 23  8  1  0  0  0  0
 24 28  1  0  0  0  0
 26 29  1  0  0  0  0
 27 24  1  0  0  0  0
 28 25  2  0  0  0  0
 29 30  2  0  0  0  0
 30 25  1  0  0  0  0
 30 22  1  0  0  0  0
 31 29  1  0  0  0  0
 31 24  2  0  0  0  0
M  END
>  <MODEL>
8

>  <REMARK>
 VINA RESULT:      -8.2      4.105      6.566
  Name = 
  2 active torsions:
  status: ('A' for Active; 'I' for Inactive)
    1  A    between atoms: C_9  and  C_22
    2  A    between atoms: C_15  and  N_23
                            x       y       z     vdW  Elec       q    Type
                         _______ _______ _______ _____ _____    ______ ____

>  <TORSDO>
F 2

$$$$
=
 OpenBabel11052417463D

 31 35  0  0  1  0  0  0  0  0999 V2000
  192.3160  174.2620  145.0550 C   0  0  0  0  0  3  0  0  0  0  0  0
  190.3550  173.9620  143.5890 C   0  0  0  0  0  0  0  0  0  0  0  0
  190.9540  172.7020  142.9640 C   0  0  1  0  0  3  0  0  0  0  0  0
  192.5320  170.8700  143.5060 C   0  0  0  0  0  2  0  0  0  0  0  0
  191.0570  174.6810  144.5920 C   0  0  0  0  0  0  0  0  0  0  0  0
  192.4130  176.1280  146.5910 C   0  0  0  0  0  3  0  0  0  0  0  0
  191.3350  171.6610  144.0140 C   0  0  0  0  0  2  0  0  0  0  0  0
  188.5910  175.6730  143.6480 C   0  0  0  0  0  0  0  0  0  0  0  0
  194.1970  174.5550  146.4860 F   0  0  0  0  0  0  0  0  0  0  0  0
  189.3610  173.0680  141.0530 C   0  0  0  0  0  2  0  0  0  0  0  0
  192.1570  169.6140  142.7090 C   0  0  0  0  0  2  0  0  0  0  0  0
  189.2740  176.3320  144.6730 C   0  0  0  0  0  3  0  0  0  0  0  0
  189.1440  174.5090  143.0810 C   0  0  0  0  0  0  0  0  0  0  0  0
  192.9880  174.9780  146.0480 C   0  0  0  0  0  0  0  0  0  0  0  0
  190.9350  169.7270  141.7900 C   0  0  0  0  0  2  0  0  0  0  0  0
  190.4950  175.8590  145.1370 C   0  0  0  0  0  0  0  0  0  0  0  0
  191.1690  176.5690  146.1350 C   0  0  0  0  0  3  0  0  0  0  0  0
  188.4100  173.8420  141.9470 C   0  0  0  0  0  2  0  0  0  0  0  0
  190.0540  172.0350  141.9150 C   0  0  1  0  0  3  0  0  0  0  0  0
  190.8380  171.0560  141.0530 C   0  0  0  0  0  2  0  0  0  0  0  0
  188.1090  178.0560  141.9850 O   0  0  0  0  0  0  0  0  0  0  0  0
  187.1310  177.3420  142.3360 C   0  0  0  0  0  0  0  0  0  0  0  0
  187.3390  176.1780  143.1500 N   0  0  0  0  0  2  0  0  0  0  0  0
  183.1180  178.3770  141.2100 C   0  0  0  0  0  0  0  0  0  0  0  0
  184.7920  177.9550  142.9010 C   0  0  0  0  0  3  0  0  0  0  0  0
  186.2850  177.5400  139.5310 O   0  0  0  0  0  1  0  0  0  0  0  0
  181.7840  178.7200  140.8540 N   0  0  0  0  0  1  0  0  0  0  0  0
  183.4830  178.2930  142.5540 C   0  0  0  0  0  3  0  0  0  0  0  0
  185.3760  177.7850  140.5530 C   0  0  0  0  0  0  0  0  0  0  0  0
  185.7560  177.6960  141.9140 C   0  0  0  0  0  0  0  0  0  0  0  0
  184.0630  178.1230  140.2140 C   0  0  0  0  0  3  0  0  0  0  0  0
  1 14  1  0  0  0  0
  2  5  1  0  0  0  0
  3  2  1  0  0  0  0
  3  7  1  1  0  0  0
  4  7  1  0  0  0  0
  5  1  2  0  0  0  0
  5 16  1  0  0  0  0
  8 12  2  0  0  0  0
 10 19  1  0  0  0  0
 10 18  1  0  0  0  0
 11  4  1  0  0  0  0
 12 16  1  0  0  0  0
 13  2  2  0  0  0  0
 13  8  1  0  0  0  0
 14  9  1  0  0  0  0
 14  6  2  0  0  0  0
 15 11  1  0  0  0  0
 16 17  2  0  0  0  0
 17  6  1  0  0  0  0
 18 13  1  0  0  0  0
 19 20  1  6  0  0  0
 19  3  1  0  0  0  0
 20 15  1  0  0  0  0
 21 22  2  0  0  0  0
 22 23  1  0  0  0  0
 23  8  1  0  0  0  0
 24 28  1  0  0  0  0
 26 29  1  0  0  0  0
 27 24  1  0  0  0  0
 28 25  2  0  0  0  0
 29 30  2  0  0  0  0
 30 22  1  0  0  0  0
 30 25  1  0  0  0  0
 31 29  1  0  0  0  0
 31 24  2  0  0  0  0
M  END
>  <MODEL>
9

>  <REMARK>
 VINA RESULT:      -8.2      4.172      8.445
  Name = 
  2 active torsions:
  status: ('A' for Active; 'I' for Inactive)
    1  A    between atoms: C_9  and  C_22
    2  A    between atoms: C_15  and  N_23
                            x       y       z     vdW  Elec       q    Type
                         _______ _______ _______ _____ _____    ______ ____

>  <TORSDO>
F 2

$$$$
