=
 OpenBabel11052418233D

 27 31  0  0  0  0  0  0  0  0999 V2000
  188.4390  175.9130  145.9330 N   0  0  0  0  0  0  0  0  0  0  0  0
  188.0490  175.9830  143.4990 C   0  0  0  0  0  0  0  0  0  0  0  0
  190.3490  175.2250  143.7570 N   0  0  0  0  0  0  0  0  0  0  0  0
  188.4690  174.4140  139.7140 N   0  0  0  0  0  0  0  0  0  0  0  0
  190.3280  173.1760  138.7120 C   0  0  0  0  0  1  0  0  0  0  0  0
  187.0260  176.1640  142.5190 C   0  0  0  0  0  3  0  0  0  0  0  0
  190.1840  174.0590  141.0500 C   0  0  0  0  0  0  0  0  0  0  0  0
  192.5510  176.4960  146.5220 C   0  0  0  0  0  3  0  0  0  0  0  0
  191.5270  173.5930  141.5050 C   0  0  0  0  0  1  0  0  0  0  0  0
  192.1930  176.1550  147.7590 C   0  0  0  0  0  3  0  0  0  0  0  0
  189.2470  174.7590  141.7870 C   0  0  0  0  0  0  0  0  0  0  0  0
  187.7930  176.4350  144.7630 C   0  0  0  0  0  0  0  0  0  0  0  0
  189.6740  173.8650  139.8110 N   0  0  0  0  0  0  0  0  0  0  0  0
  188.2150  174.9530  140.9200 C   0  0  0  0  0  0  0  0  0  0  0  0
  189.6770  175.6030  146.1320 C   0  0  0  0  0  0  0  0  0  0  0  0
  189.2360  175.2810  143.0870 C   0  0  0  0  0  0  0  0  0  0  0  0
  191.9230  176.0830  145.2620 C   0  0  0  0  0  3  0  0  0  0  0  0
  187.1180  175.6610  141.2560 N   0  0  0  0  0  0  0  0  0  0  0  0
  191.0960  175.3050  148.1190 N   0  0  0  0  0  0  0  0  0  0  0  0
  190.0120  175.0580  147.4510 C   0  0  0  0  0  3  0  0  0  0  0  0
  190.6660  175.6950  145.0610 C   0  0  0  0  0  0  0  0  0  0  0  0
  184.4630  178.9900  145.6820 C   0  0  0  0  0  3  0  0  0  0  0  0
  186.6260  177.3150  145.0480 C   0  0  0  0  0  0  0  0  0  0  0  0
  186.5720  178.6280  144.5520 C   0  0  0  0  0  3  0  0  0  0  0  0
  185.4920  179.4590  144.8620 C   0  0  0  0  0  3  0  0  0  0  0  0
  184.5160  177.6920  146.1960 C   0  0  0  0  0  3  0  0  0  0  0  0
  185.5960  176.8600  145.8850 C   0  0  0  0  0  3  0  0  0  0  0  0
  1 15  1  0  0  0  0
  2 12  1  0  0  0  0
  3 21  2  0  0  0  0
  4 13  1  0  0  0  0
  4 14  2  0  0  0  0
  5 13  1  0  0  0  0
  6  2  1  0  0  0  0
  7  9  1  0  0  0  0
  7 11  2  0  0  0  0
  8 10  1  0  0  0  0
 10 19  2  0  0  0  0
 11 16  1  0  0  0  0
 12 23  1  0  0  0  0
 12  1  2  0  0  0  0
 13  7  1  0  0  0  0
 14 18  1  0  0  0  0
 14 11  1  0  0  0  0
 15 20  2  0  0  0  0
 16  2  2  0  0  0  0
 16  3  1  0  0  0  0
 17  8  2  0  0  0  0
 18  6  2  0  0  0  0
 20 19  1  0  0  0  0
 21 17  1  0  0  0  0
 21 15  1  0  0  0  0
 22 26  1  0  0  0  0
 23 27  1  0  0  0  0
 24 25  1  0  0  0  0
 24 23  2  0  0  0  0
 25 22  2  0  0  0  0
 27 26  2  0  0  0  0
M  END
>  <MODEL>
1

>  <REMARK>
 VINA RESULT:      -8.3      0.000      0.000
  Name = 
  1 active torsions:
  status: ('A' for Active; 'I' for Inactive)
    1  A    between atoms: C_9  and  C_15
                            x       y       z     vdW  Elec       q    Type
                         _______ _______ _______ _____ _____    ______ ____

>  <TORSDO>
F 1

$$$$
=
 OpenBabel11052418233D

 27 31  0  0  0  0  0  0  0  0999 V2000
  189.7850  175.8650  145.7370 N   0  0  0  0  0  0  0  0  0  0  0  0
  188.8040  175.6960  143.4800 C   0  0  0  0  0  0  0  0  0  0  0  0
  191.1780  175.2470  143.1800 N   0  0  0  0  0  0  0  0  0  0  0  0
  188.4930  173.8980  139.7880 N   0  0  0  0  0  0  0  0  0  0  0  0
  190.2020  172.8230  138.4040 C   0  0  0  0  0  1  0  0  0  0  0  0
  187.5560  175.6730  142.7850 C   0  0  0  0  0  3  0  0  0  0  0  0
  190.5160  173.8620  140.6590 C   0  0  0  0  0  0  0  0  0  0  0  0
  193.7950  176.9910  145.2360 C   0  0  0  0  0  3  0  0  0  0  0  0
  191.9800  173.6010  140.7790 C   0  0  0  0  0  1  0  0  0  0  0  0
  193.8020  176.7070  146.5370 C   0  0  0  0  0  3  0  0  0  0  0  0
  189.7020  174.4970  141.5780 C   0  0  0  0  0  0  0  0  0  0  0  0
  188.8060  176.2110  144.7460 C   0  0  0  0  0  0  0  0  0  0  0  0
  189.7490  173.5100  139.6000 N   0  0  0  0  0  0  0  0  0  0  0  0
  188.4710  174.4960  140.9930 C   0  0  0  0  0  0  0  0  0  0  0  0
  191.0650  175.7250  145.6280 C   0  0  0  0  0  0  0  0  0  0  0  0
  189.9380  175.1150  142.8130 C   0  0  0  0  0  0  0  0  0  0  0  0
  192.9400  176.4070  144.1960 C   0  0  0  0  0  3  0  0  0  0  0  0
  187.4030  175.0880  141.5640 N   0  0  0  0  0  0  0  0  0  0  0  0
  192.9560  175.7600  147.2010 N   0  0  0  0  0  0  0  0  0  0  0  0
  191.7860  175.3310  146.8430 C   0  0  0  0  0  3  0  0  0  0  0  0
  191.7380  175.8540  144.3380 C   0  0  0  0  0  0  0  0  0  0  0  0
  185.4880  178.4150  146.3570 C   0  0  0  0  0  3  0  0  0  0  0  0
  187.6350  176.9610  145.2780 C   0  0  0  0  0  0  0  0  0  0  0  0
  187.1870  178.1380  144.6570 C   0  0  0  0  0  3  0  0  0  0  0  0
  186.1140  178.8580  145.1900 C   0  0  0  0  0  3  0  0  0  0  0  0
  185.9370  177.2550  146.9940 C   0  0  0  0  0  3  0  0  0  0  0  0
  187.0090  176.5350  146.4600 C   0  0  0  0  0  3  0  0  0  0  0  0
  2 12  1  0  0  0  0
  3 21  2  0  0  0  0
  4 14  2  0  0  0  0
  5 13  1  0  0  0  0
  6  2  1  0  0  0  0
  7  9  1  0  0  0  0
  7 11  2  0  0  0  0
  8 10  1  0  0  0  0
 10 19  2  0  0  0  0
 11 16  1  0  0  0  0
 12 23  1  0  0  0  0
 12  1  2  0  0  0  0
 13  4  1  0  0  0  0
 13  7  1  0  0  0  0
 14 18  1  0  0  0  0
 14 11  1  0  0  0  0
 15  1  1  0  0  0  0
 15 20  2  0  0  0  0
 16  3  1  0  0  0  0
 16  2  2  0  0  0  0
 17 21  1  0  0  0  0
 17  8  2  0  0  0  0
 18  6  2  0  0  0  0
 20 19  1  0  0  0  0
 21 15  1  0  0  0  0
 22 26  1  0  0  0  0
 23 27  1  0  0  0  0
 24 25  1  0  0  0  0
 24 23  2  0  0  0  0
 25 22  2  0  0  0  0
 27 26  2  0  0  0  0
M  END
>  <MODEL>
2

>  <REMARK>
 VINA RESULT:      -7.7      1.067      1.225
  Name = 
  1 active torsions:
  status: ('A' for Active; 'I' for Inactive)
    1  A    between atoms: C_9  and  C_15
                            x       y       z     vdW  Elec       q    Type
                         _______ _______ _______ _____ _____    ______ ____

>  <TORSDO>
F 1

$$$$
=
 OpenBabel11052418233D

 27 31  0  0  0  0  0  0  0  0999 V2000
  190.6650  174.0910  143.8470 N   0  0  0  0  0  0  0  0  0  0  0  0
  190.0920  176.0240  145.2670 C   0  0  0  0  0  0  0  0  0  0  0  0
  188.1710  175.7160  143.8010 N   0  0  0  0  0  0  0  0  0  0  0  0
  187.4140  178.2050  147.5110 N   0  0  0  0  0  0  0  0  0  0  0  0
  185.0120  178.5630  147.2010 C   0  0  0  0  0  1  0  0  0  0  0  0
  190.5310  176.7630  146.4080 C   0  0  0  0  0  3  0  0  0  0  0  0
  186.5330  177.1830  145.7710 C   0  0  0  0  0  0  0  0  0  0  0  0
  188.5630  174.5640  140.2460 C   0  0  0  0  0  3  0  0  0  0  0  0
  185.5070  176.7450  144.7790 C   0  0  0  0  0  1  0  0  0  0  0  0
  189.0170  173.3230  140.0800 C   0  0  0  0  0  3  0  0  0  0  0  0
  187.8780  176.8600  145.7800 C   0  0  0  0  0  0  0  0  0  0  0  0
  191.0140  175.2360  144.6380 C   0  0  0  0  0  0  0  0  0  0  0  0
  186.2940  177.9870  146.8330 N   0  0  0  0  0  0  0  0  0  0  0  0
  188.3730  177.5160  146.8670 C   0  0  0  0  0  0  0  0  0  0  0  0
  189.7180  173.9350  142.9810 C   0  0  0  0  0  0  0  0  0  0  0  0
  188.6990  176.1210  144.9190 C   0  0  0  0  0  0  0  0  0  0  0  0
  188.2480  175.2410  141.5100 C   0  0  0  0  0  3  0  0  0  0  0  0
  189.6830  177.4950  147.1830 N   0  0  0  0  0  0  0  0  0  0  0  0
  189.3030  172.3800  141.1210 N   0  0  0  0  0  0  0  0  0  0  0  0
  189.6110  172.6110  142.3590 C   0  0  0  0  0  3  0  0  0  0  0  0
  188.7450  174.9920  142.7200 C   0  0  0  0  0  0  0  0  0  0  0  0
  195.2240  175.4790  145.4640 C   0  0  0  0  0  3  0  0  0  0  0  0
  192.4660  175.3460  144.9490 C   0  0  0  0  0  0  0  0  0  0  0  0
  193.2360  176.4040  144.4390 C   0  0  0  0  0  3  0  0  0  0  0  0
  194.6080  176.4740  144.7010 C   0  0  0  0  0  3  0  0  0  0  0  0
  194.4700  174.4120  145.9600 C   0  0  0  0  0  3  0  0  0  0  0  0
  193.0990  174.3430  145.6980 C   0  0  0  0  0  3  0  0  0  0  0  0
  1 12  1  0  0  0  0
  2  6  1  0  0  0  0
  3 16  2  0  0  0  0
  6 18  2  0  0  0  0
  7 11  2  0  0  0  0
  7 13  1  0  0  0  0
  8 17  1  0  0  0  0
  9  7  1  0  0  0  0
 10  8  2  0  0  0  0
 10 19  1  0  0  0  0
 11 14  1  0  0  0  0
 12 23  1  0  0  0  0
 12  2  2  0  0  0  0
 13  5  1  0  0  0  0
 13  4  1  0  0  0  0
 14 18  1  0  0  0  0
 14  4  2  0  0  0  0
 15  1  2  0  0  0  0
 16  2  1  0  0  0  0
 16 11  1  0  0  0  0
 17 21  2  0  0  0  0
 19 20  2  0  0  0  0
 20 15  1  0  0  0  0
 21 15  1  0  0  0  0
 21  3  1  0  0  0  0
 22 26  1  0  0  0  0
 23 27  1  0  0  0  0
 24 25  1  0  0  0  0
 24 23  2  0  0  0  0
 25 22  2  0  0  0  0
 27 26  2  0  0  0  0
M  END
>  <MODEL>
3

>  <REMARK>
 VINA RESULT:      -7.7      1.857      7.001
  Name = 
  1 active torsions:
  status: ('A' for Active; 'I' for Inactive)
    1  A    between atoms: C_9  and  C_15
                            x       y       z     vdW  Elec       q    Type
                         _______ _______ _______ _____ _____    ______ ____

>  <TORSDO>
F 1

$$$$
=
 OpenBabel11052418233D

 27 31  0  0  0  0  0  0  0  0999 V2000
  187.9310  176.4330  142.9280 N   0  0  0  0  0  0  0  0  0  0  0  0
  189.2420  176.4580  145.0170 C   0  0  0  0  0  0  0  0  0  0  0  0
  190.3890  174.8780  143.5610 N   0  0  0  0  0  0  0  0  0  0  0  0
  192.8240  176.4410  147.0490 N   0  0  0  0  0  0  0  0  0  0  0  0
  194.9410  175.3350  146.5130 C   0  0  0  0  0  1  0  0  0  0  0  0
  189.3730  177.1400  146.2650 C   0  0  0  0  0  3  0  0  0  0  0  0
  192.8290  175.2890  145.1710 C   0  0  0  0  0  0  0  0  0  0  0  0
  188.5120  172.6650  141.1750 C   0  0  0  0  0  3  0  0  0  0  0  0
  193.3290  174.4130  144.0720 C   0  0  0  0  0  1  0  0  0  0  0  0
  187.8810  173.2830  140.1780 C   0  0  0  0  0  3  0  0  0  0  0  0
  191.5650  175.8350  145.2970 C   0  0  0  0  0  0  0  0  0  0  0  0
  188.0590  176.5990  144.3480 C   0  0  0  0  0  0  0  0  0  0  0  0
  193.5580  175.6840  146.2420 N   0  0  0  0  0  0  0  0  0  0  0  0
  191.6150  176.5310  146.4670 C   0  0  0  0  0  0  0  0  0  0  0  0
  188.4420  175.5400  142.1450 C   0  0  0  0  0  0  0  0  0  0  0  0
  190.3900  175.7350  144.5400 C   0  0  0  0  0  0  0  0  0  0  0  0
  189.3720  173.2680  142.2000 C   0  0  0  0  0  3  0  0  0  0  0  0
  190.5380  177.1660  146.9720 N   0  0  0  0  0  0  0  0  0  0  0  0
  187.9090  174.6890  139.9000 N   0  0  0  0  0  0  0  0  0  0  0  0
  188.1360  175.6700  140.7170 C   0  0  0  0  0  3  0  0  0  0  0  0
  189.3580  174.5210  142.6500 C   0  0  0  0  0  0  0  0  0  0  0  0
  184.5630  178.3260  146.1520 C   0  0  0  0  0  3  0  0  0  0  0  0
  186.8670  177.2030  145.0030 C   0  0  0  0  0  0  0  0  0  0  0  0
  186.1090  176.4770  145.9370 C   0  0  0  0  0  3  0  0  0  0  0  0
  184.9660  177.0390  146.5130 C   0  0  0  0  0  3  0  0  0  0  0  0
  185.2990  179.0510  145.2110 C   0  0  0  0  0  3  0  0  0  0  0  0
  186.4420  178.4890  144.6350 C   0  0  0  0  0  3  0  0  0  0  0  0
  1 12  1  0  0  0  0
  2  6  1  0  0  0  0
  3 16  2  0  0  0  0
  6 18  2  0  0  0  0
  7 11  2  0  0  0  0
  7 13  1  0  0  0  0
  8 17  1  0  0  0  0
  9  7  1  0  0  0  0
 10  8  2  0  0  0  0
 11 14  1  0  0  0  0
 12 23  1  0  0  0  0
 12  2  2  0  0  0  0
 13  5  1  0  0  0  0
 13  4  1  0  0  0  0
 14 18  1  0  0  0  0
 14  4  2  0  0  0  0
 15 21  1  0  0  0  0
 15  1  2  0  0  0  0
 16  2  1  0  0  0  0
 16 11  1  0  0  0  0
 17 21  2  0  0  0  0
 19 10  1  0  0  0  0
 19 20  2  0  0  0  0
 20 15  1  0  0  0  0
 21  3  1  0  0  0  0
 22 25  1  0  0  0  0
 23 24  1  0  0  0  0
 24 25  2  0  0  0  0
 26 22  2  0  0  0  0
 27 23  2  0  0  0  0
 27 26  1  0  0  0  0
M  END
>  <MODEL>
4

>  <REMARK>
 VINA RESULT:      -7.7      1.506      5.284
  Name = 
  1 active torsions:
  status: ('A' for Active; 'I' for Inactive)
    1  A    between atoms: C_9  and  C_15
                            x       y       z     vdW  Elec       q    Type
                         _______ _______ _______ _____ _____    ______ ____

>  <TORSDO>
F 1

$$$$
=
 OpenBabel11052418233D

 27 31  0  0  0  0  0  0  0  0999 V2000
  190.7640  175.6990  142.8840 N   0  0  0  0  0  0  0  0  0  0  0  0
  188.3470  175.7510  143.3720 C   0  0  0  0  0  0  0  0  0  0  0  0
  189.4340  176.4000  145.4530 N   0  0  0  0  0  0  0  0  0  0  0  0
  185.0410  177.4650  145.1300 N   0  0  0  0  0  0  0  0  0  0  0  0
  184.8220  178.6660  147.2530 C   0  0  0  0  0  1  0  0  0  0  0  0
  187.0630  175.6570  142.7530 C   0  0  0  0  0  3  0  0  0  0  0  0
  186.9090  177.6890  146.2760 C   0  0  0  0  0  0  0  0  0  0  0  0
  192.7190  174.9160  146.5130 C   0  0  0  0  0  3  0  0  0  0  0  0
  187.8300  178.0770  147.3850 C   0  0  0  0  0  1  0  0  0  0  0  0
  193.7690  175.2180  145.7520 C   0  0  0  0  0  3  0  0  0  0  0  0
  187.2330  176.9980  145.1230 C   0  0  0  0  0  0  0  0  0  0  0  0
  189.4150  175.2560  142.6770 C   0  0  0  0  0  0  0  0  0  0  0  0
  185.5830  177.9580  146.2380 N   0  0  0  0  0  0  0  0  0  0  0  0
  186.0500  176.8850  144.4560 C   0  0  0  0  0  0  0  0  0  0  0  0
  191.4000  175.9470  143.9810 C   0  0  0  0  0  0  0  0  0  0  0  0
  188.4150  176.4200  144.6440 C   0  0  0  0  0  0  0  0  0  0  0  0
  191.3430  175.4100  146.3770 C   0  0  0  0  0  3  0  0  0  0  0  0
  185.9420  176.2110  143.2940 N   0  0  0  0  0  0  0  0  0  0  0  0
  193.7700  176.0970  144.6200 N   0  0  0  0  0  0  0  0  0  0  0  0
  192.7810  176.4190  143.8450 C   0  0  0  0  0  3  0  0  0  0  0  0
  190.7380  175.8590  145.2800 C   0  0  0  0  0  0  0  0  0  0  0  0
  188.7870  172.7780  139.2230 C   0  0  0  0  0  3  0  0  0  0  0  0
  189.2250  174.4150  141.4630 C   0  0  0  0  0  0  0  0  0  0  0  0
  188.5550  174.9150  140.3350 C   0  0  0  0  0  3  0  0  0  0  0  0
  188.3430  174.1030  139.2170 C   0  0  0  0  0  3  0  0  0  0  0  0
  189.4380  172.2650  140.3480 C   0  0  0  0  0  3  0  0  0  0  0  0
  189.6500  173.0780  141.4650 C   0  0  0  0  0  3  0  0  0  0  0  0
  1 15  1  0  0  0  0
  2 16  2  0  0  0  0
  4 13  1  0  0  0  0
  6 18  2  0  0  0  0
  6  2  1  0  0  0  0
  7  9  1  0  0  0  0
 10  8  1  0  0  0  0
 11  7  2  0  0  0  0
 12  1  2  0  0  0  0
 12  2  1  0  0  0  0
 13  7  1  0  0  0  0
 13  5  1  0  0  0  0
 14 11  1  0  0  0  0
 14  4  2  0  0  0  0
 15 21  1  0  0  0  0
 16 11  1  0  0  0  0
 16  3  1  0  0  0  0
 17  8  2  0  0  0  0
 18 14  1  0  0  0  0
 19 10  2  0  0  0  0
 20 15  2  0  0  0  0
 20 19  1  0  0  0  0
 21  3  2  0  0  0  0
 21 17  1  0  0  0  0
 22 26  1  0  0  0  0
 23 27  1  0  0  0  0
 23 12  1  0  0  0  0
 24 23  2  0  0  0  0
 25 22  2  0  0  0  0
 25 24  1  0  0  0  0
 26 27  2  0  0  0  0
M  END
>  <MODEL>
5

>  <REMARK>
 VINA RESULT:      -7.1      1.825      5.741
  Name = 
  1 active torsions:
  status: ('A' for Active; 'I' for Inactive)
    1  A    between atoms: C_9  and  C_15
                            x       y       z     vdW  Elec       q    Type
                         _______ _______ _______ _____ _____    ______ ____

>  <TORSDO>
F 1

$$$$
=
 OpenBabel11052418233D

 27 31  0  0  0  0  0  0  0  0999 V2000
  190.1380  176.7850  142.9600 N   0  0  0  0  0  0  0  0  0  0  0  0
  190.9250  174.4810  142.5680 C   0  0  0  0  0  0  0  0  0  0  0  0
  188.7370  174.5990  141.5040 N   0  0  0  0  0  0  0  0  0  0  0  0
  191.3730  171.1620  140.1710 N   0  0  0  0  0  0  0  0  0  0  0  0
  189.8950  170.2430  138.4490 C   0  0  0  0  0  1  0  0  0  0  0  0
  192.0670  173.6340  142.7040 C   0  0  0  0  0  3  0  0  0  0  0  0
  189.5170  172.2980  139.8270 C   0  0  0  0  0  0  0  0  0  0  0  0
  185.9440  176.6540  142.9510 C   0  0  0  0  0  3  0  0  0  0  0  0
  188.1910  172.6660  139.2500 C   0  0  0  0  0  1  0  0  0  0  0  0
  186.1280  177.9730  142.9510 C   0  0  0  0  0  3  0  0  0  0  0  0
  190.2120  172.9670  140.8180 C   0  0  0  0  0  0  0  0  0  0  0  0
  190.8980  175.6220  143.3190 C   0  0  0  0  0  0  0  0  0  0  0  0
  190.2530  171.2230  139.4600 N   0  0  0  0  0  0  0  0  0  0  0  0
  191.3430  172.2260  140.9930 C   0  0  0  0  0  0  0  0  0  0  0  0
  188.9360  176.8820  142.4950 C   0  0  0  0  0  0  0  0  0  0  0  0
  189.9310  174.0920  141.6030 C   0  0  0  0  0  0  0  0  0  0  0  0
  186.8280  175.6260  142.3880 C   0  0  0  0  0  3  0  0  0  0  0  0
  192.2610  172.5280  141.9320 N   0  0  0  0  0  0  0  0  0  0  0  0
  187.2510  178.6710  142.3970 N   0  0  0  0  0  0  0  0  0  0  0  0
  188.4560  178.2360  142.2000 C   0  0  0  0  0  3  0  0  0  0  0  0
  188.1420  175.6970  142.1850 C   0  0  0  0  0  0  0  0  0  0  0  0
  193.6760  176.3620  146.5130 C   0  0  0  0  0  3  0  0  0  0  0  0
  191.8710  175.8430  144.4250 C   0  0  0  0  0  0  0  0  0  0  0  0
  191.5810  175.4330  145.7360 C   0  0  0  0  0  3  0  0  0  0  0  0
  192.4820  175.6860  146.7740 C   0  0  0  0  0  3  0  0  0  0  0  0
  193.9670  176.7910  145.2150 C   0  0  0  0  0  3  0  0  0  0  0  0
  193.0650  176.5380  144.1770 C   0  0  0  0  0  3  0  0  0  0  0  0
  1 12  1  0  0  0  0
  2  6  1  0  0  0  0
  2 12  2  0  0  0  0
  3 16  2  0  0  0  0
  3 21  1  0  0  0  0
  4 14  2  0  0  0  0
  5 13  1  0  0  0  0
  7 11  2  0  0  0  0
  9  7  1  0  0  0  0
 10  8  2  0  0  0  0
 11 14  1  0  0  0  0
 11 16  1  0  0  0  0
 12 23  1  0  0  0  0
 13  7  1  0  0  0  0
 13  4  1  0  0  0  0
 14 18  1  0  0  0  0
 15  1  2  0  0  0  0
 16  2  1  0  0  0  0
 17  8  1  0  0  0  0
 18  6  2  0  0  0  0
 19 10  1  0  0  0  0
 20 19  2  0  0  0  0
 20 15  1  0  0  0  0
 21 17  2  0  0  0  0
 21 15  1  0  0  0  0
 22 25  1  0  0  0  0
 23 24  1  0  0  0  0
 24 25  2  0  0  0  0
 26 22  2  0  0  0  0
 27 23  2  0  0  0  0
 27 26  1  0  0  0  0
M  END
>  <MODEL>
6

>  <REMARK>
 VINA RESULT:      -7.1      2.251      5.630
  Name = 
  1 active torsions:
  status: ('A' for Active; 'I' for Inactive)
    1  A    between atoms: C_9  and  C_15
                            x       y       z     vdW  Elec       q    Type
                         _______ _______ _______ _____ _____    ______ ____

>  <TORSDO>
F 1

$$$$
=
 OpenBabel11052418233D

 27 31  0  0  0  0  0  0  0  0999 V2000
  189.1750  175.6910  142.5990 N   0  0  0  0  0  0  0  0  0  0  0  0
  191.1730  175.9770  144.0160 C   0  0  0  0  0  0  0  0  0  0  0  0
  191.9230  174.6520  142.1150 N   0  0  0  0  0  0  0  0  0  0  0  0
  195.2030  176.6700  144.5020 N   0  0  0  0  0  0  0  0  0  0  0  0
  197.1030  176.0020  143.1090 C   0  0  0  0  0  1  0  0  0  0  0  0
  191.6580  176.6740  145.1660 C   0  0  0  0  0  3  0  0  0  0  0  0
  194.6800  175.5380  142.6870 C   0  0  0  0  0  0  0  0  0  0  0  0
  189.6950  172.1090  140.4770 C   0  0  0  0  0  3  0  0  0  0  0  0
  194.8580  174.7760  141.4160 C   0  0  0  0  0  1  0  0  0  0  0  0
  188.6220  172.5880  139.8500 C   0  0  0  0  0  3  0  0  0  0  0  0
  193.4900  175.8250  143.3310 C   0  0  0  0  0  0  0  0  0  0  0  0
  189.8180  175.8810  143.8680 C   0  0  0  0  0  0  0  0  0  0  0  0
  195.6850  176.0710  143.4200 N   0  0  0  0  0  0  0  0  0  0  0  0
  193.8690  176.5190  144.4410 C   0  0  0  0  0  0  0  0  0  0  0  0
  189.4910  174.9150  141.6150 C   0  0  0  0  0  0  0  0  0  0  0  0
  192.1530  175.4940  143.0800 C   0  0  0  0  0  0  0  0  0  0  0  0
  190.7640  172.8710  141.1340 C   0  0  0  0  0  3  0  0  0  0  0  0
  192.9810  176.9300  145.3680 N   0  0  0  0  0  0  0  0  0  0  0  0
  188.2820  173.9720  139.6910 N   0  0  0  0  0  0  0  0  0  0  0  0
  188.6300  174.9790  140.4290 C   0  0  0  0  0  3  0  0  0  0  0  0
  190.7000  174.0970  141.6480 C   0  0  0  0  0  0  0  0  0  0  0  0
  187.0630  176.8750  147.0120 C   0  0  0  0  0  3  0  0  0  0  0  0
  188.8910  176.2400  144.9770 C   0  0  0  0  0  0  0  0  0  0  0  0
  188.8310  175.4660  146.1470 C   0  0  0  0  0  3  0  0  0  0  0  0
  187.9250  175.7860  147.1630 C   0  0  0  0  0  3  0  0  0  0  0  0
  187.1030  177.6400  145.8440 C   0  0  0  0  0  3  0  0  0  0  0  0
  188.0080  177.3200  144.8280 C   0  0  0  0  0  3  0  0  0  0  0  0
  1 12  1  0  0  0  0
  2  6  1  0  0  0  0
  3 16  2  0  0  0  0
  5 13  1  0  0  0  0
  6 18  2  0  0  0  0
  7 11  2  0  0  0  0
  7 13  1  0  0  0  0
  8 17  1  0  0  0  0
  9  7  1  0  0  0  0
 10  8  2  0  0  0  0
 11 14  1  0  0  0  0
 12  2  2  0  0  0  0
 12 23  1  0  0  0  0
 13  4  1  0  0  0  0
 14  4  2  0  0  0  0
 14 18  1  0  0  0  0
 15 21  1  0  0  0  0
 15  1  2  0  0  0  0
 16 11  1  0  0  0  0
 16  2  1  0  0  0  0
 17 21  2  0  0  0  0
 19 10  1  0  0  0  0
 19 20  2  0  0  0  0
 20 15  1  0  0  0  0
 21  3  1  0  0  0  0
 22 25  1  0  0  0  0
 23 24  1  0  0  0  0
 24 25  2  0  0  0  0
 26 22  2  0  0  0  0
 27 23  2  0  0  0  0
 27 26  1  0  0  0  0
M  END
>  <MODEL>
7

>  <REMARK>
 VINA RESULT:      -7.0      2.561      5.619
  Name = 
  1 active torsions:
  status: ('A' for Active; 'I' for Inactive)
    1  A    between atoms: C_9  and  C_15
                            x       y       z     vdW  Elec       q    Type
                         _______ _______ _______ _____ _____    ______ ____

>  <TORSDO>
F 1

$$$$
=
 OpenBabel11052418233D

 27 31  0  0  0  0  0  0  0  0999 V2000
  186.5940  176.5920  144.2320 N   0  0  0  0  0  0  0  0  0  0  0  0
  188.9950  176.7350  143.6870 C   0  0  0  0  0  0  0  0  0  0  0  0
  188.8500  177.2260  146.0670 N   0  0  0  0  0  0  0  0  0  0  0  0
  192.9590  176.0440  144.5650 N   0  0  0  0  0  0  0  0  0  0  0  0
  194.1260  176.0490  146.7170 C   0  0  0  0  0  1  0  0  0  0  0  0
  189.9380  176.4820  142.6430 C   0  0  0  0  0  3  0  0  0  0  0  0
  191.6900  176.4590  146.3170 C   0  0  0  0  0  0  0  0  0  0  0  0
  185.9450  179.1120  147.5230 C   0  0  0  0  0  3  0  0  0  0  0  0
  191.3060  176.6920  147.7400 C   0  0  0  0  0  1  0  0  0  0  0  0
  184.7650  178.4970  147.4750 C   0  0  0  0  0  3  0  0  0  0  0  0
  190.8610  176.4960  145.2110 C   0  0  0  0  0  0  0  0  0  0  0  0
  187.6800  176.8440  143.3290 C   0  0  0  0  0  0  0  0  0  0  0  0
  192.9420  176.1770  145.8860 N   0  0  0  0  0  0  0  0  0  0  0  0
  191.6910  176.2370  144.1610 C   0  0  0  0  0  0  0  0  0  0  0  0
  186.4440  176.9340  145.4690 C   0  0  0  0  0  0  0  0  0  0  0  0
  189.5020  176.7860  145.0320 C   0  0  0  0  0  0  0  0  0  0  0  0
  187.2480  178.5860  147.0990 C   0  0  0  0  0  3  0  0  0  0  0  0
  191.2580  176.2440  142.8850 N   0  0  0  0  0  0  0  0  0  0  0  0
  184.5200  177.1730  146.9840 N   0  0  0  0  0  0  0  0  0  0  0  0
  185.2110  176.4880  146.1270 C   0  0  0  0  0  3  0  0  0  0  0  0
  187.4950  177.6390  146.1970 C   0  0  0  0  0  0  0  0  0  0  0  0
  186.4420  177.1230  139.2240 C   0  0  0  0  0  3  0  0  0  0  0  0
  187.2750  176.9690  141.9020 C   0  0  0  0  0  0  0  0  0  0  0  0
  186.3960  177.9830  141.4860 C   0  0  0  0  0  3  0  0  0  0  0  0
  185.9870  178.0630  140.1520 C   0  0  0  0  0  3  0  0  0  0  0  0
  187.3020  176.1000  139.6310 C   0  0  0  0  0  3  0  0  0  0  0  0
  187.7110  176.0190  140.9660 C   0  0  0  0  0  3  0  0  0  0  0  0
  1 15  1  0  0  0  0
  2 16  2  0  0  0  0
  3 21  2  0  0  0  0
  4 13  1  0  0  0  0
  6 18  2  0  0  0  0
  6  2  1  0  0  0  0
  7  9  1  0  0  0  0
 10  8  1  0  0  0  0
 11  7  2  0  0  0  0
 12  2  1  0  0  0  0
 12  1  2  0  0  0  0
 13  7  1  0  0  0  0
 13  5  1  0  0  0  0
 14  4  2  0  0  0  0
 14 11  1  0  0  0  0
 15 20  2  0  0  0  0
 15 21  1  0  0  0  0
 16 11  1  0  0  0  0
 16  3  1  0  0  0  0
 17  8  2  0  0  0  0
 18 14  1  0  0  0  0
 19 10  2  0  0  0  0
 20 19  1  0  0  0  0
 21 17  1  0  0  0  0
 22 26  2  0  0  0  0
 22 25  1  0  0  0  0
 23 12  1  0  0  0  0
 24 23  1  0  0  0  0
 25 24  2  0  0  0  0
 26 27  1  0  0  0  0
 27 23  2  0  0  0  0
M  END
>  <MODEL>
8

>  <REMARK>
 VINA RESULT:      -6.7      2.292      5.415
  Name = 
  1 active torsions:
  status: ('A' for Active; 'I' for Inactive)
    1  A    between atoms: C_9  and  C_15
                            x       y       z     vdW  Elec       q    Type
                         _______ _______ _______ _____ _____    ______ ____

>  <TORSDO>
F 1

$$$$
=
 OpenBabel11052418233D

 27 31  0  0  0  0  0  0  0  0999 V2000
  191.9260  174.6580  144.2540 N   0  0  0  0  0  0  0  0  0  0  0  0
  190.0880  174.5150  142.6170 C   0  0  0  0  0  0  0  0  0  0  0  0
  192.1300  174.4080  141.2950 N   0  0  0  0  0  0  0  0  0  0  0  0
  188.3800  172.9480  139.2120 N   0  0  0  0  0  0  0  0  0  0  0  0
  189.4140  172.2060  137.1210 C   0  0  0  0  0  1  0  0  0  0  0  0
  188.6700  174.3740  142.5130 C   0  0  0  0  0  3  0  0  0  0  0  0
  190.5740  173.1210  139.1410 C   0  0  0  0  0  0  0  0  0  0  0  0
  195.2070  176.3400  142.2510 C   0  0  0  0  0  3  0  0  0  0  0  0
  191.9640  173.0500  138.6020 C   0  0  0  0  0  1  0  0  0  0  0  0
  195.8010  175.9710  143.3850 C   0  0  0  0  0  3  0  0  0  0  0  0
  190.1820  173.5790  140.3850 C   0  0  0  0  0  0  0  0  0  0  0  0
  190.5890  174.9380  143.8150 C   0  0  0  0  0  0  0  0  0  0  0  0
  189.4610  172.7440  138.4690 N   0  0  0  0  0  0  0  0  0  0  0  0
  188.8250  173.4530  140.3760 C   0  0  0  0  0  0  0  0  0  0  0  0
  193.0410  174.6980  143.6010 C   0  0  0  0  0  0  0  0  0  0  0  0
  190.8700  174.1360  141.4700 C   0  0  0  0  0  0  0  0  0  0  0  0
  194.0440  175.7200  141.6060 C   0  0  0  0  0  3  0  0  0  0  0  0
  188.0590  173.8570  141.4090 N   0  0  0  0  0  0  0  0  0  0  0  0
  195.4140  174.8770  144.2260 N   0  0  0  0  0  0  0  0  0  0  0  0
  194.2480  174.3210  144.3440 C   0  0  0  0  0  3  0  0  0  0  0  0
  193.0770  175.0030  142.1740 C   0  0  0  0  0  0  0  0  0  0  0  0
  188.1060  176.5410  146.9340 C   0  0  0  0  0  3  0  0  0  0  0  0
  189.6990  175.4870  144.8750 C   0  0  0  0  0  0  0  0  0  0  0  0
  189.1650  176.7820  144.7720 C   0  0  0  0  0  3  0  0  0  0  0  0
  188.3670  177.3040  145.7940 C   0  0  0  0  0  3  0  0  0  0  0  0
  188.6470  175.2580  147.0550 C   0  0  0  0  0  3  0  0  0  0  0  0
  189.4450  174.7360  146.0330 C   0  0  0  0  0  3  0  0  0  0  0  0
  2 12  2  0  0  0  0
  3 16  2  0  0  0  0
  3 21  1  0  0  0  0
  4 14  2  0  0  0  0
  5 13  1  0  0  0  0
  6  2  1  0  0  0  0
  7 11  2  0  0  0  0
  8 10  2  0  0  0  0
  9  7  1  0  0  0  0
 10 19  1  0  0  0  0
 11 16  1  0  0  0  0
 12  1  1  0  0  0  0
 12 23  1  0  0  0  0
 13  7  1  0  0  0  0
 13  4  1  0  0  0  0
 14 11  1  0  0  0  0
 14 18  1  0  0  0  0
 15  1  2  0  0  0  0
 15 20  1  0  0  0  0
 16  2  1  0  0  0  0
 17 21  2  0  0  0  0
 17  8  1  0  0  0  0
 18  6  2  0  0  0  0
 19 20  2  0  0  0  0
 21 15  1  0  0  0  0
 22 26  1  0  0  0  0
 23 27  1  0  0  0  0
 24 23  2  0  0  0  0
 24 25  1  0  0  0  0
 25 22  2  0  0  0  0
 27 26  2  0  0  0  0
M  END
>  <MODEL>
9

>  <REMARK>
 VINA RESULT:      -6.7      2.444      3.668
  Name = 
  1 active torsions:
  status: ('A' for Active; 'I' for Inactive)
    1  A    between atoms: C_9  and  C_15
                            x       y       z     vdW  Elec       q    Type
                         _______ _______ _______ _____ _____    ______ ____

>  <TORSDO>
F 1

$$$$
