=
 OpenBabel11052420363D

 34 38  0  0  1  0  0  0  0  0999 V2000
  188.6350  177.4720  143.8030 C   0  0  1  0  0  3  0  0  0  0  0  0
  185.4770  179.8200  143.7890 C   0  0  0  0  0  2  0  0  0  0  0  0
  186.3340  178.1620  142.0720 C   0  0  0  0  0  2  0  0  0  0  0  0
  188.9640  175.1990  144.8770 C   0  0  1  0  0  3  0  0  0  0  0  0
  189.4630  176.6420  144.7860 C   0  0  0  0  0  2  0  0  0  0  0  0
  188.0290  175.2960  142.5330 C   0  0  2  0  0  3  0  0  0  0  0  0
  186.6880  175.1590  142.9020 O   0  0  0  0  0  1  0  0  0  0  0  0
  188.9290  174.5310  143.5010 C   0  0  0  0  0  2  0  0  0  0  0  0
  187.6260  177.6350  141.4530 C   0  0  1  0  0  3  0  0  0  0  0  0
  188.4500  176.7760  142.4340 C   0  0  1  0  0  3  0  0  0  0  0  0
  187.3480  176.9280  140.1400 C   0  0  0  0  0  1  0  0  0  0  0  0
  185.3070  179.8440  145.3080 C   0  0  0  0  0  2  0  0  0  0  0  0
  184.5660  178.6010  145.8060 C   0  0  1  0  0  3  0  0  0  0  0  0
  184.9490  177.3100  145.0710 C   0  0  0  0  0  2  0  0  0  0  0  0
  186.6670  178.9610  143.3270 C   0  0  2  0  0  3  0  0  0  0  0  0
  186.4500  177.0140  145.0720 C   0  0  0  0  0  2  0  0  0  0  0  0
  187.3470  178.0760  144.3970 C   0  0  1  0  0  3  0  0  0  0  0  0
  184.7170  178.4600  147.3130 C   0  0  0  0  0  2  0  0  0  0  0  0
  186.6790  178.5070  148.1930 O   0  0  0  0  0  1  0  0  0  0  0  0
  185.7260  179.3120  147.7740 O   0  0  0  0  0  0  0  0  0  0  0  0
  189.7720  174.3880  145.8920 C   0  0  0  0  0  2  0  0  0  0  0  0
  193.2980  175.6720  146.4970 C   0  0  0  0  0  3  0  0  0  0  0  0
  191.9820  173.8400  144.8440 C   0  0  0  0  0  3  0  0  0  0  0  0
  196.2370  174.0740  144.6860 C   0  0  1  0  0  3  0  0  0  0  0  0
  195.5080  175.1860  145.4490 C   0  0  0  0  0  2  0  0  0  0  0  0
  194.0340  174.9220  145.5760 C   0  0  0  0  0  0  0  0  0  0  0  0
  194.1180  173.1350  143.7670 C   0  0  0  0  0  2  0  0  0  0  0  0
  193.3650  174.0120  144.7250 C   0  0  0  0  0  0  0  0  0  0  0  0
  195.4850  173.7130  143.4090 C   0  0  0  0  0  2  0  0  0  0  0  0
  191.2540  174.5840  145.7750 C   0  0  0  0  0  0  0  0  0  0  0  0
  191.9160  175.5000  146.6020 C   0  0  0  0  0  3  0  0  0  0  0  0
  197.6850  174.4540  144.3880 C   0  0  0  0  0  2  0  0  0  0  0  0
  197.8700  174.9840  142.9730 C   0  0  0  0  0  2  0  0  0  0  0  0
  197.7340  176.4300  142.9760 N   0  0  0  0  0  1  0  0  0  0  0  0
  1 17  1  0  0  0  0
  1  5  1  1  0  0  0
  2 12  1  0  0  0  0
  3 15  1  0  0  0  0
  4 21  1  1  0  0  0
  5  4  1  0  0  0  0
  6  7  1  1  0  0  0
  6  8  1  0  0  0  0
  8  4  1  0  0  0  0
  9 11  1  6  0  0  0
  9  3  1  0  0  0  0
  9 10  1  0  0  0  0
 10  6  1  0  0  0  0
 10  1  1  0  0  0  0
 12 13  1  0  0  0  0
 13 18  1  0  0  0  0
 14 16  1  0  0  0  0
 14 13  1  0  0  0  0
 15  2  1  0  0  0  0
 15 17  1  0  0  0  0
 17 16  1  0  0  0  0
 18 20  1  0  0  0  0
 20 19  1  0  0  0  0
 22 31  1  0  0  0  0
 23 30  1  0  0  0  0
 24 25  1  0  0  0  0
 25 26  1  0  0  0  0
 26 22  2  0  0  0  0
 27 28  1  0  0  0  0
 28 23  2  0  0  0  0
 28 26  1  0  0  0  0
 29 27  1  0  0  0  0
 29 24  1  0  0  0  0
 30 21  1  0  0  0  0
 30 31  2  0  0  0  0
 32 24  1  0  0  0  0
 33 34  1  0  0  0  0
 33 32  1  0  0  0  0
M  END
>  <MODEL>
1

>  <REMARK>
 VINA RESULT:      -8.5      0.000      0.000
  Name = 
  6 active torsions:
  status: ('A' for Active; 'I' for Inactive)
    1  A    between atoms: C_3  and  O_24
    2  A    between atoms: C_3  and  C_25
    3  A    between atoms: C_7  and  C_11
    4  A    between atoms: C_8  and  C_18
    5  A    between atoms: C_11  and  C_15
    6  A    between atoms: C_18  and  C_30
                            x       y       z     vdW  Elec       q    Type
                         _______ _______ _______ _____ _____    ______ ____

>  <TORSDO>
F 6

$$$$
=
 OpenBabel11052420363D

 34 38  0  0  1  0  0  0  0  0999 V2000
  189.1260  177.7030  144.0230 C   0  0  1  0  0  3  0  0  0  0  0  0
  185.3150  178.5890  143.6120 C   0  0  0  0  0  2  0  0  0  0  0  0
  186.7620  176.8590  142.4520 C   0  0  0  0  0  2  0  0  0  0  0  0
  190.2780  176.2380  145.7420 C   0  0  1  0  0  3  0  0  0  0  0  0
  190.1930  177.6310  145.1180 C   0  0  0  0  0  2  0  0  0  0  0  0
  189.4100  175.1570  143.6300 C   0  0  2  0  0  3  0  0  0  0  0  0
  188.2170  174.6860  144.1830 O   0  0  0  0  0  1  0  0  0  0  0  0
  190.5190  175.1620  144.6800 C   0  0  0  0  0  2  0  0  0  0  0  0
  188.1670  176.6520  141.8920 C   0  0  1  0  0  3  0  0  0  0  0  0
  189.2400  176.5520  142.9950 C   0  0  1  0  0  3  0  0  0  0  0  0
  188.1970  175.4770  140.9320 C   0  0  0  0  0  1  0  0  0  0  0  0
  185.1260  179.0850  145.0460 C   0  0  0  0  0  2  0  0  0  0  0  0
  184.9040  177.9200  146.0140 C   0  0  1  0  0  3  0  0  0  0  0  0
  185.7600  176.6840  145.7090 C   0  0  0  0  0  2  0  0  0  0  0  0
  186.7490  178.1120  143.3210 C   0  0  2  0  0  3  0  0  0  0  0  0
  187.2600  176.9690  145.6260 C   0  0  0  0  0  2  0  0  0  0  0  0
  187.6970  177.9710  144.5330 C   0  0  1  0  0  3  0  0  0  0  0  0
  185.0740  178.3850  147.4520 C   0  0  0  0  0  2  0  0  0  0  0  0
  186.8280  179.1570  148.4300 O   0  0  0  0  0  1  0  0  0  0  0  0
  185.9490  179.4740  147.5020 O   0  0  0  0  0  0  0  0  0  0  0  0
  191.3170  176.1860  146.8630 C   0  0  0  0  0  2  0  0  0  0  0  0
  194.9820  175.8730  145.9040 C   0  0  0  0  0  3  0  0  0  0  0  0
  192.7380  174.2310  146.1960 C   0  0  0  0  0  3  0  0  0  0  0  0
  196.5080  172.4380  145.3270 C   0  0  1  0  0  3  0  0  0  0  0  0
  196.4160  173.9610  145.1940 C   0  0  0  0  0  2  0  0  0  0  0  0
  195.0980  174.5010  145.6730 C   0  0  0  0  0  0  0  0  0  0  0  0
  194.0450  172.1850  145.6270 C   0  0  0  0  0  2  0  0  0  0  0  0
  193.9570  173.6740  145.7990 C   0  0  0  0  0  0  0  0  0  0  0  0
  195.2470  171.7710  144.7830 C   0  0  0  0  0  2  0  0  0  0  0  0
  192.6320  175.6030  146.4370 C   0  0  0  0  0  0  0  0  0  0  0  0
  193.7570  176.4230  146.2910 C   0  0  0  0  0  3  0  0  0  0  0  0
  197.7610  171.8880  144.6500 C   0  0  0  0  0  2  0  0  0  0  0  0
  197.6810  170.3890  144.4020 C   0  0  0  0  0  2  0  0  0  0  0  0
  197.8740  169.6810  145.6550 N   0  0  0  0  0  1  0  0  0  0  0  0
  1 17  1  0  0  0  0
  1  5  1  1  0  0  0
  2 12  1  0  0  0  0
  3 15  1  0  0  0  0
  4 21  1  1  0  0  0
  5  4  1  0  0  0  0
  6  7  1  1  0  0  0
  6  8  1  0  0  0  0
  8  4  1  0  0  0  0
  9 11  1  1  0  0  0
  9  3  1  0  0  0  0
  9 10  1  0  0  0  0
 10  6  1  0  0  0  0
 10  1  1  0  0  0  0
 12 13  1  0  0  0  0
 13 18  1  0  0  0  0
 14 13  1  0  0  0  0
 15  2  1  0  0  0  0
 15 17  1  0  0  0  0
 16 14  1  0  0  0  0
 17 16  1  0  0  0  0
 18 20  1  0  0  0  0
 20 19  1  0  0  0  0
 22 31  1  0  0  0  0
 23 30  1  0  0  0  0
 25 24  1  0  0  0  0
 25 26  1  0  0  0  0
 26 28  1  0  0  0  0
 26 22  2  0  0  0  0
 27 28  1  0  0  0  0
 28 23  2  0  0  0  0
 29 24  1  0  0  0  0
 29 27  1  0  0  0  0
 30 21  1  0  0  0  0
 31 30  2  0  0  0  0
 32 24  1  0  0  0  0
 33 32  1  0  0  0  0
 33 34  1  0  0  0  0
M  END
>  <MODEL>
2

>  <REMARK>
 VINA RESULT:      -8.5      1.864      2.123
  Name = 
  6 active torsions:
  status: ('A' for Active; 'I' for Inactive)
    1  A    between atoms: C_3  and  O_24
    2  A    between atoms: C_3  and  C_25
    3  A    between atoms: C_7  and  C_11
    4  A    between atoms: C_8  and  C_18
    5  A    between atoms: C_11  and  C_15
    6  A    between atoms: C_18  and  C_30
                            x       y       z     vdW  Elec       q    Type
                         _______ _______ _______ _____ _____    ______ ____

>  <TORSDO>
F 6

$$$$
=
 OpenBabel11052420363D

 34 38  0  0  1  0  0  0  0  0999 V2000
  191.5280  176.8860  144.5260 C   0  0  1  0  0  3  0  0  0  0  0  0
  192.4370  174.2100  141.7890 C   0  0  0  0  0  2  0  0  0  0  0  0
  193.4330  174.6630  144.0760 C   0  0  0  0  0  2  0  0  0  0  0  0
  189.7080  176.8520  146.2910 C   0  0  1  0  0  3  0  0  0  0  0  0
  190.2990  177.5980  145.0950 C   0  0  0  0  0  2  0  0  0  0  0  0
  191.9470  175.8310  146.8560 C   0  0  2  0  0  3  0  0  0  0  0  0
  191.5780  174.5090  146.6000 O   0  0  0  0  0  1  0  0  0  0  0  0
  190.7550  176.6260  147.3840 C   0  0  0  0  0  2  0  0  0  0  0  0
  193.7990  175.8060  145.0200 C   0  0  1  0  0  3  0  0  0  0  0  0
  192.5610  176.5080  145.6140 C   0  0  1  0  0  3  0  0  0  0  0  0
  194.7780  175.3370  146.0810 C   0  0  0  0  0  1  0  0  0  0  0  0
  191.0290  174.1250  141.1970 C   0  0  0  0  0  2  0  0  0  0  0  0
  190.1330  173.1960  142.0200 C   0  0  1  0  0  3  0  0  0  0  0  0
  190.3510  173.3010  143.5350 C   0  0  0  0  0  2  0  0  0  0  0  0
  192.5390  175.1990  142.9620 C   0  0  2  0  0  3  0  0  0  0  0  0
  190.2190  174.7220  144.0870 C   0  0  0  0  0  2  0  0  0  0  0  0
  191.2130  175.7610  143.5210 C   0  0  1  0  0  3  0  0  0  0  0  0
  188.6730  173.3960  141.6440 C   0  0  0  0  0  2  0  0  0  0  0  0
  188.0770  172.7780  139.6720 O   0  0  0  0  0  1  0  0  0  0  0  0
  188.5740  173.8140  140.3130 O   0  0  0  0  0  0  0  0  0  0  0  0
  188.4560  177.5490  146.8260 C   0  0  0  0  0  2  0  0  0  0  0  0
  184.9990  177.8480  145.2750 C   0  0  0  0  0  3  0  0  0  0  0  0
  187.6700  177.7490  144.4550 C   0  0  0  0  0  3  0  0  0  0  0  0
  184.6410  178.4530  141.5370 C   0  0  1  0  0  3  0  0  0  0  0  0
  184.1770  178.0030  142.9260 C   0  0  0  0  0  2  0  0  0  0  0  0
  185.3060  177.9370  143.9150 C   0  0  0  0  0  0  0  0  0  0  0  0
  187.0420  178.0220  142.0560 C   0  0  0  0  0  2  0  0  0  0  0  0
  186.6560  177.8640  143.4990 C   0  0  0  0  0  0  0  0  0  0  0  0
  185.8910  177.6870  141.1110 C   0  0  0  0  0  2  0  0  0  0  0  0
  187.3570  177.6720  145.8130 C   0  0  0  0  0  0  0  0  0  0  0  0
  186.0190  177.7230  146.2210 C   0  0  0  0  0  3  0  0  0  0  0  0
  183.5290  178.3160  140.5000 C   0  0  0  0  0  2  0  0  0  0  0  0
  182.1660  178.0730  141.1340 C   0  0  0  0  0  2  0  0  0  0  0  0
  181.2040  179.0130  140.5870 N   0  0  0  0  0  1  0  0  0  0  0  0
  1  5  1  1  0  0  0
  1 10  1  0  0  0  0
  2 15  1  0  0  0  0
  3  9  1  0  0  0  0
  4 21  1  1  0  0  0
  4  8  1  0  0  0  0
  5  4  1  0  0  0  0
  6  7  1  6  0  0  0
  6  8  1  0  0  0  0
  9 10  1  0  0  0  0
  9 11  1  1  0  0  0
 10  6  1  0  0  0  0
 12  2  1  0  0  0  0
 12 13  1  0  0  0  0
 13 14  1  0  0  0  0
 14 16  1  0  0  0  0
 15 17  1  0  0  0  0
 15  3  1  0  0  0  0
 17 16  1  0  0  0  0
 17  1  1  0  0  0  0
 18 13  1  0  0  0  0
 19 20  1  0  0  0  0
 20 18  1  0  0  0  0
 22 31  1  0  0  0  0
 23 30  1  0  0  0  0
 24 25  1  0  0  0  0
 25 26  1  0  0  0  0
 26 22  2  0  0  0  0
 27 28  1  0  0  0  0
 28 26  1  0  0  0  0
 28 23  2  0  0  0  0
 29 24  1  0  0  0  0
 29 27  1  0  0  0  0
 30 31  2  0  0  0  0
 30 21  1  0  0  0  0
 32 33  1  0  0  0  0
 32 24  1  0  0  0  0
 34 33  1  0  0  0  0
M  END
>  <MODEL>
3

>  <REMARK>
 VINA RESULT:      -8.2      3.821      8.767
  Name = 
  6 active torsions:
  status: ('A' for Active; 'I' for Inactive)
    1  A    between atoms: C_3  and  O_24
    2  A    between atoms: C_3  and  C_25
    3  A    between atoms: C_7  and  C_11
    4  A    between atoms: C_8  and  C_18
    5  A    between atoms: C_11  and  C_15
    6  A    between atoms: C_18  and  C_30
                            x       y       z     vdW  Elec       q    Type
                         _______ _______ _______ _____ _____    ______ ____

>  <TORSDO>
F 6

$$$$
=
 OpenBabel11052420363D

 34 38  0  0  1  0  0  0  0  0999 V2000
  194.6760  174.7130  143.1130 C   0  0  1  0  0  3  0  0  0  0  0  0
  194.3270  170.7950  143.1640 C   0  0  0  0  0  2  0  0  0  0  0  0
  195.4480  172.3930  144.7820 C   0  0  0  0  0  2  0  0  0  0  0  0
  193.0340  176.5000  143.8480 C   0  0  1  0  0  3  0  0  0  0  0  0
  193.8730  175.9480  142.6950 C   0  0  0  0  0  2  0  0  0  0  0  0
  194.6330  175.5600  145.5620 C   0  0  2  0  0  3  0  0  0  0  0  0
  193.7330  174.6510  146.1230 O   0  0  0  0  0  1  0  0  0  0  0  0
  193.8980  176.8060  145.0730 C   0  0  0  0  0  2  0  0  0  0  0  0
  196.2770  173.6750  144.8230 C   0  0  1  0  0  3  0  0  0  0  0  0
  195.4620  174.9240  144.4280 C   0  0  1  0  0  3  0  0  0  0  0  0
  196.9750  173.8250  146.1620 C   0  0  0  0  0  1  0  0  0  0  0  0
  193.0110  170.7560  142.3870 C   0  0  0  0  0  2  0  0  0  0  0  0
  191.8140  171.0230  143.3030 C   0  0  1  0  0  3  0  0  0  0  0  0
  192.0740  172.0940  144.3710 C   0  0  0  0  0  2  0  0  0  0  0  0
  194.8550  172.2230  143.3880 C   0  0  2  0  0  3  0  0  0  0  0  0
  192.5640  173.4290  143.8100 C   0  0  0  0  0  2  0  0  0  0  0  0
  193.9000  173.3840  143.0330 C   0  0  1  0  0  3  0  0  0  0  0  0
  190.5740  171.3340  142.4810 C   0  0  0  0  0  2  0  0  0  0  0  0
  188.6090  172.2070  142.5390 O   0  0  0  0  0  1  0  0  0  0  0  0
  189.5060  171.6500  143.3250 O   0  0  0  0  0  0  0  0  0  0  0  0
  192.2040  177.7090  143.4110 C   0  0  0  0  0  2  0  0  0  0  0  0
  188.4320  177.4240  143.0370 C   0  0  0  0  0  3  0  0  0  0  0  0
  190.3430  177.5030  145.0770 C   0  0  0  0  0  3  0  0  0  0  0  0
  186.2620  176.8040  146.0990 C   0  0  1  0  0  3  0  0  0  0  0  0
  186.5510  177.2630  144.6650 C   0  0  0  0  0  2  0  0  0  0  0  0
  188.0230  177.3270  144.3690 C   0  0  0  0  0  0  0  0  0  0  0  0
  188.6050  177.2230  146.8440 C   0  0  0  0  0  2  0  0  0  0  0  0
  188.9870  177.3900  145.4010 C   0  0  0  0  0  0  0  0  0  0  0  0
  187.1370  177.5600  147.0940 C   0  0  0  0  0  2  0  0  0  0  0  0
  190.7470  177.5880  143.7430 C   0  0  0  0  0  0  0  0  0  0  0  0
  189.7880  177.5470  142.7240 C   0  0  0  0  0  3  0  0  0  0  0  0
  184.7820  176.9430  146.4460 C   0  0  0  0  0  2  0  0  0  0  0  0
  184.3930  178.3760  146.7820 C   0  0  0  0  0  2  0  0  0  0  0  0
  183.7620  178.9890  145.6280 N   0  0  0  0  0  1  0  0  0  0  0  0
  1  5  1  1  0  0  0
  1 10  1  0  0  0  0
  2 15  1  0  0  0  0
  3  9  1  0  0  0  0
  4 21  1  6  0  0  0
  4  8  1  0  0  0  0
  5  4  1  0  0  0  0
  6  7  1  6  0  0  0
  8  6  1  0  0  0  0
  9 11  1  1  0  0  0
 10  9  1  0  0  0  0
 10  6  1  0  0  0  0
 12  2  1  0  0  0  0
 12 13  1  0  0  0  0
 13 14  1  0  0  0  0
 15  3  1  0  0  0  0
 16 14  1  0  0  0  0
 17  1  1  0  0  0  0
 17 15  1  0  0  0  0
 17 16  1  0  0  0  0
 18 13  1  0  0  0  0
 18 20  1  0  0  0  0
 19 20  1  0  0  0  0
 21 30  1  0  0  0  0
 22 26  1  0  0  0  0
 23 28  1  0  0  0  0
 24 32  1  0  0  0  0
 24 29  1  0  0  0  0
 25 24  1  0  0  0  0
 26 25  1  0  0  0  0
 26 28  2  0  0  0  0
 27 29  1  0  0  0  0
 28 27  1  0  0  0  0
 30 23  2  0  0  0  0
 31 22  2  0  0  0  0
 31 30  1  0  0  0  0
 32 33  1  0  0  0  0
 34 33  1  0  0  0  0
M  END
>  <MODEL>
4

>  <REMARK>
 VINA RESULT:      -8.0      3.778      9.073
  Name = 
  6 active torsions:
  status: ('A' for Active; 'I' for Inactive)
    1  A    between atoms: C_3  and  O_24
    2  A    between atoms: C_3  and  C_25
    3  A    between atoms: C_7  and  C_11
    4  A    between atoms: C_8  and  C_18
    5  A    between atoms: C_11  and  C_15
    6  A    between atoms: C_18  and  C_30
                            x       y       z     vdW  Elec       q    Type
                         _______ _______ _______ _____ _____    ______ ____

>  <TORSDO>
F 6

$$$$
=
 OpenBabel11052420363D

 34 38  0  0  1  0  0  0  0  0999 V2000
  193.1170  176.2420  143.9640 C   0  0  1  0  0  3  0  0  0  0  0  0
  193.8560  174.0510  140.7820 C   0  0  0  0  0  2  0  0  0  0  0  0
  194.9330  174.0780  143.0770 C   0  0  0  0  0  2  0  0  0  0  0  0
  191.3480  175.9570  145.7590 C   0  0  1  0  0  3  0  0  0  0  0  0
  191.9290  176.8810  144.6880 C   0  0  0  0  0  2  0  0  0  0  0  0
  193.5680  174.7930  146.0650 C   0  0  2  0  0  3  0  0  0  0  0  0
  193.1480  173.5450  145.6000 O   0  0  0  0  0  1  0  0  0  0  0  0
  192.4190  175.5190  146.7600 C   0  0  0  0  0  2  0  0  0  0  0  0
  195.3640  175.0310  144.1890 C   0  0  1  0  0  3  0  0  0  0  0  0
  194.1680  175.6550  144.9360 C   0  0  1  0  0  3  0  0  0  0  0  0
  196.3570  174.3610  145.1200 C   0  0  0  0  0  1  0  0  0  0  0  0
  192.4300  174.1070  140.2320 C   0  0  0  0  0  2  0  0  0  0  0  0
  191.5280  173.0760  140.9150 C   0  0  1  0  0  3  0  0  0  0  0  0
  191.7940  172.9150  142.4180 C   0  0  0  0  0  2  0  0  0  0  0  0
  194.0260  174.8210  142.1020 C   0  0  2  0  0  3  0  0  0  0  0  0
  191.7240  174.2220  143.2080 C   0  0  0  0  0  2  0  0  0  0  0  0
  192.7350  175.3150  142.7940 C   0  0  1  0  0  3  0  0  0  0  0  0
  190.0650  173.3780  140.6290 C   0  0  0  0  0  2  0  0  0  0  0  0
  188.3660  173.0750  141.9130 O   0  0  0  0  0  1  0  0  0  0  0  0
  189.2520  172.4000  141.2110 O   0  0  0  0  0  0  0  0  0  0  0  0
  190.1360  176.5860  146.4480 C   0  0  0  0  0  2  0  0  0  0  0  0
  187.6250  176.0110  143.6530 C   0  0  0  0  0  3  0  0  0  0  0  0
  188.0440  177.7890  145.7700 C   0  0  0  0  0  3  0  0  0  0  0  0
  184.4640  178.1180  143.4770 C   0  0  1  0  0  3  0  0  0  0  0  0
  185.5630  177.2070  142.9220 C   0  0  0  0  0  2  0  0  0  0  0  0
  186.7090  177.0410  143.8800 C   0  0  0  0  0  0  0  0  0  0  0  0
  185.9440  179.0350  145.2620 C   0  0  0  0  0  2  0  0  0  0  0  0
  186.9330  177.9530  144.9360 C   0  0  0  0  0  0  0  0  0  0  0  0
  185.0650  179.3910  144.0670 C   0  0  0  0  0  2  0  0  0  0  0  0
  188.9500  176.7500  145.5450 C   0  0  0  0  0  0  0  0  0  0  0  0
  188.7370  175.8610  144.4850 C   0  0  0  0  0  3  0  0  0  0  0  0
  183.4130  178.4410  142.4180 C   0  0  0  0  0  2  0  0  0  0  0  0
  183.9570  178.3250  141.0010 C   0  0  0  0  0  2  0  0  0  0  0  0
  182.9270  177.7880  140.1300 N   0  0  0  0  0  1  0  0  0  0  0  0
  1  5  1  1  0  0  0
  1 10  1  0  0  0  0
  2 15  1  0  0  0  0
  3  9  1  0  0  0  0
  4 21  1  1  0  0  0
  4  8  1  0  0  0  0
  5  4  1  0  0  0  0
  6  7  1  6  0  0  0
  6  8  1  0  0  0  0
  9 10  1  0  0  0  0
  9 11  1  1  0  0  0
 10  6  1  0  0  0  0
 12  2  1  0  0  0  0
 12 13  1  0  0  0  0
 13 14  1  0  0  0  0
 14 16  1  0  0  0  0
 15 17  1  0  0  0  0
 15  3  1  0  0  0  0
 17 16  1  0  0  0  0
 17  1  1  0  0  0  0
 18 13  1  0  0  0  0
 18 20  1  0  0  0  0
 20 19  1  0  0  0  0
 22 26  2  0  0  0  0
 22 31  1  0  0  0  0
 24 29  1  0  0  0  0
 25 24  1  0  0  0  0
 25 26  1  0  0  0  0
 26 28  1  0  0  0  0
 28 27  1  0  0  0  0
 28 23  2  0  0  0  0
 29 27  1  0  0  0  0
 30 23  1  0  0  0  0
 30 21  1  0  0  0  0
 31 30  2  0  0  0  0
 32 24  1  0  0  0  0
 33 32  1  0  0  0  0
 34 33  1  0  0  0  0
M  END
>  <MODEL>
5

>  <REMARK>
 VINA RESULT:      -7.9      3.707      8.892
  Name = 
  6 active torsions:
  status: ('A' for Active; 'I' for Inactive)
    1  A    between atoms: C_3  and  O_24
    2  A    between atoms: C_3  and  C_25
    3  A    between atoms: C_7  and  C_11
    4  A    between atoms: C_8  and  C_18
    5  A    between atoms: C_11  and  C_15
    6  A    between atoms: C_18  and  C_30
                            x       y       z     vdW  Elec       q    Type
                         _______ _______ _______ _____ _____    ______ ____

>  <TORSDO>
F 6

$$$$
=
 OpenBabel11052420363D

 34 38  0  0  1  0  0  0  0  0999 V2000
  194.1290  173.8000  143.7740 C   0  0  1  0  0  3  0  0  0  0  0  0
  196.1030  170.4810  143.0200 C   0  0  0  0  0  2  0  0  0  0  0  0
  196.3950  172.8370  142.1290 C   0  0  0  0  0  2  0  0  0  0  0  0
  194.3730  175.4340  145.6970 C   0  0  1  0  0  3  0  0  0  0  0  0
  193.4290  174.4970  144.9420 C   0  0  0  0  0  2  0  0  0  0  0  0
  195.7970  175.7790  143.6400 C   0  0  2  0  0  3  0  0  0  0  0  0
  196.9460  175.1700  144.1500 O   0  0  0  0  0  1  0  0  0  0  0  0
  195.0120  176.4600  144.7590 C   0  0  0  0  0  2  0  0  0  0  0  0
  195.5950  174.0610  141.6890 C   0  0  1  0  0  3  0  0  0  0  0  0
  194.9110  174.7810  142.8680 C   0  0  1  0  0  3  0  0  0  0  0  0
  196.4500  174.9900  140.8460 C   0  0  0  0  0  1  0  0  0  0  0  0
  195.8430  169.8440  144.3850 C   0  0  0  0  0  2  0  0  0  0  0  0
  196.8230  170.3630  145.4400 C   0  0  1  0  0  3  0  0  0  0  0  0
  197.1430  171.8580  145.3100 C   0  0  0  0  0  2  0  0  0  0  0  0
  195.4740  171.8780  142.8750 C   0  0  2  0  0  3  0  0  0  0  0  0
  195.9100  172.7620  145.3050 C   0  0  0  0  0  2  0  0  0  0  0  0
  194.9030  172.5230  144.1570 C   0  0  1  0  0  3  0  0  0  0  0  0
  196.3380  170.0070  146.8360 C   0  0  0  0  0  2  0  0  0  0  0  0
  194.8680  168.7410  147.7650 O   0  0  0  0  0  1  0  0  0  0  0  0
  194.9960  169.6200  146.7930 O   0  0  0  0  0  0  0  0  0  0  0  0
  193.6760  176.0950  146.8880 C   0  0  0  0  0  2  0  0  0  0  0  0
  190.0190  175.2960  147.5480 C   0  0  0  0  0  3  0  0  0  0  0  0
  191.5450  176.9020  145.8420 C   0  0  0  0  0  3  0  0  0  0  0  0
  187.2950  177.2200  145.7190 C   0  0  1  0  0  3  0  0  0  0  0  0
  187.8810  176.0410  146.5040 C   0  0  0  0  0  2  0  0  0  0  0  0
  189.3780  176.1140  146.6140 C   0  0  0  0  0  0  0  0  0  0  0  0
  189.5080  177.8530  144.7620 C   0  0  0  0  0  2  0  0  0  0  0  0
  190.1510  176.9080  145.7360 C   0  0  0  0  0  0  0  0  0  0  0  0
  188.0750  177.4500  144.4280 C   0  0  0  0  0  2  0  0  0  0  0  0
  192.1800  176.0910  146.7860 C   0  0  0  0  0  0  0  0  0  0  0  0
  191.4130  175.2890  147.6390 C   0  0  0  0  0  3  0  0  0  0  0  0
  185.8070  177.0240  145.4400 C   0  0  0  0  0  2  0  0  0  0  0  0
  184.9240  177.7680  146.4310 C   0  0  0  0  0  2  0  0  0  0  0  0
  185.5430  179.0360  146.7740 N   0  0  0  0  0  1  0  0  0  0  0  0
  1 17  1  0  0  0  0
  1  5  1  1  0  0  0
  2 12  1  0  0  0  0
  3 15  1  0  0  0  0
  4 21  1  1  0  0  0
  5  4  1  0  0  0  0
  6  7  1  1  0  0  0
  6  8  1  0  0  0  0
  8  4  1  0  0  0  0
  9 11  1  1  0  0  0
  9  3  1  0  0  0  0
  9 10  1  0  0  0  0
 10  6  1  0  0  0  0
 10  1  1  0  0  0  0
 12 13  1  0  0  0  0
 13 18  1  0  0  0  0
 14 13  1  0  0  0  0
 15  2  1  0  0  0  0
 15 17  1  0  0  0  0
 16 14  1  0  0  0  0
 17 16  1  0  0  0  0
 20 18  1  0  0  0  0
 20 19  1  0  0  0  0
 22 31  1  0  0  0  0
 23 30  1  0  0  0  0
 24 25  1  0  0  0  0
 25 26  1  0  0  0  0
 26 22  2  0  0  0  0
 27 28  1  0  0  0  0
 28 23  2  0  0  0  0
 28 26  1  0  0  0  0
 29 27  1  0  0  0  0
 29 24  1  0  0  0  0
 30 21  1  0  0  0  0
 30 31  2  0  0  0  0
 32 24  1  0  0  0  0
 32 33  1  0  0  0  0
 33 34  1  0  0  0  0
M  END
>  <MODEL>
6

>  <REMARK>
 VINA RESULT:      -7.8      4.498      9.685
  Name = 
  6 active torsions:
  status: ('A' for Active; 'I' for Inactive)
    1  A    between atoms: C_3  and  O_24
    2  A    between atoms: C_3  and  C_25
    3  A    between atoms: C_7  and  C_11
    4  A    between atoms: C_8  and  C_18
    5  A    between atoms: C_11  and  C_15
    6  A    between atoms: C_18  and  C_30
                            x       y       z     vdW  Elec       q    Type
                         _______ _______ _______ _____ _____    ______ ____

>  <TORSDO>
F 6

$$$$
=
 OpenBabel11052420363D

 34 38  0  0  1  0  0  0  0  0999 V2000
  193.6190  176.4480  143.6090 C   0  0  1  0  0  3  0  0  0  0  0  0
  193.3740  174.2120  140.3810 C   0  0  0  0  0  2  0  0  0  0  0  0
  195.3240  174.7110  141.9220 C   0  0  0  0  0  2  0  0  0  0  0  0
  192.9920  175.9140  146.0070 C   0  0  1  0  0  3  0  0  0  0  0  0
  192.7670  176.8470  144.8160 C   0  0  0  0  0  2  0  0  0  0  0  0
  195.3260  175.3520  145.2220 C   0  0  2  0  0  3  0  0  0  0  0  0
  195.0770  174.0020  144.9670 O   0  0  0  0  0  1  0  0  0  0  0  0
  194.4720  175.8420  146.3900 C   0  0  0  0  0  2  0  0  0  0  0  0
  195.9510  175.8400  142.7370 C   0  0  1  0  0  3  0  0  0  0  0  0
  195.1070  176.2250  143.9700 C   0  0  1  0  0  3  0  0  0  0  0  0
  197.3920  175.5180  143.0870 C   0  0  0  0  0  1  0  0  0  0  0  0
  191.8930  173.8730  140.5520 C   0  0  0  0  0  2  0  0  0  0  0  0
  191.6950  172.7230  141.5440 C   0  0  1  0  0  3  0  0  0  0  0  0
  192.6430  172.7710  142.7500 C   0  0  0  0  0  2  0  0  0  0  0  0
  193.9180  175.1210  141.4970 C   0  0  2  0  0  3  0  0  0  0  0  0
  192.6050  174.0910  143.5210 C   0  0  0  0  0  2  0  0  0  0  0  0
  193.0020  175.3520  142.7190 C   0  0  1  0  0  3  0  0  0  0  0  0
  190.2380  172.6360  141.9720 C   0  0  0  0  0  2  0  0  0  0  0  0
  188.6000  173.9270  142.4980 O   0  0  0  0  0  1  0  0  0  0  0  0
  189.5610  173.8030  141.6070 O   0  0  0  0  0  0  0  0  0  0  0  0
  192.1070  176.2950  147.1950 C   0  0  0  0  0  2  0  0  0  0  0  0
  188.7100  175.5510  145.6590 C   0  0  0  0  0  3  0  0  0  0  0  0
  189.8610  177.3820  147.4320 C   0  0  0  0  0  3  0  0  0  0  0  0
  185.6460  177.4970  146.7940 C   0  0  1  0  0  3  0  0  0  0  0  0
  186.4700  176.6320  145.8350 C   0  0  0  0  0  2  0  0  0  0  0  0
  187.9140  176.5380  146.2440 C   0  0  0  0  0  0  0  0  0  0  0  0
  187.6740  178.5150  147.8280 C   0  0  0  0  0  2  0  0  0  0  0  0
  188.5010  177.4780  147.1230 C   0  0  0  0  0  0  0  0  0  0  0  0
  186.3680  178.8080  147.0960 C   0  0  0  0  0  2  0  0  0  0  0  0
  190.6500  176.3860  146.8530 C   0  0  0  0  0  0  0  0  0  0  0  0
  190.0710  175.4700  145.9670 C   0  0  0  0  0  3  0  0  0  0  0  0
  184.2400  177.7510  146.2560 C   0  0  0  0  0  2  0  0  0  0  0  0
  184.1670  178.9920  145.3780 C   0  0  0  0  0  2  0  0  0  0  0  0
  184.1270  178.5960  143.9820 N   0  0  0  0  0  1  0  0  0  0  0  0
  1 10  1  0  0  0  0
  1  5  1  1  0  0  0
  2 12  1  0  0  0  0
  2 15  1  0  0  0  0
  3  9  1  0  0  0  0
  4  8  1  0  0  0  0
  4 21  1  1  0  0  0
  5  4  1  0  0  0  0
  6  7  1  6  0  0  0
  6  8  1  0  0  0  0
  9 11  1  1  0  0  0
  9 10  1  0  0  0  0
 10  6  1  0  0  0  0
 12 13  1  0  0  0  0
 13 18  1  0  0  0  0
 13 14  1  0  0  0  0
 14 16  1  0  0  0  0
 15  3  1  0  0  0  0
 15 17  1  0  0  0  0
 17 16  1  0  0  0  0
 17  1  1  0  0  0  0
 20 18  1  0  0  0  0
 20 19  1  0  0  0  0
 22 31  2  0  0  0  0
 22 26  1  0  0  0  0
 24 29  1  0  0  0  0
 25 26  1  0  0  0  0
 25 24  1  0  0  0  0
 26 28  2  0  0  0  0
 28 23  1  0  0  0  0
 28 27  1  0  0  0  0
 29 27  1  0  0  0  0
 30 21  1  0  0  0  0
 30 23  2  0  0  0  0
 31 30  1  0  0  0  0
 32 24  1  0  0  0  0
 33 32  1  0  0  0  0
 34 33  1  0  0  0  0
M  END
>  <MODEL>
7

>  <REMARK>
 VINA RESULT:      -7.7      3.742      8.596
  Name = 
  6 active torsions:
  status: ('A' for Active; 'I' for Inactive)
    1  A    between atoms: C_3  and  O_24
    2  A    between atoms: C_3  and  C_25
    3  A    between atoms: C_7  and  C_11
    4  A    between atoms: C_8  and  C_18
    5  A    between atoms: C_11  and  C_15
    6  A    between atoms: C_18  and  C_30
                            x       y       z     vdW  Elec       q    Type
                         _______ _______ _______ _____ _____    ______ ____

>  <TORSDO>
F 6

$$$$
=
 OpenBabel11052420363D

 34 38  0  0  1  0  0  0  0  0999 V2000
  193.8160  173.0760  142.7440 C   0  0  1  0  0  3  0  0  0  0  0  0
  195.9760  174.8090  145.5380 C   0  0  0  0  0  2  0  0  0  0  0  0
  196.3060  174.6540  143.0290 C   0  0  0  0  0  2  0  0  0  0  0  0
  191.7450  173.9090  141.5410 C   0  0  1  0  0  3  0  0  0  0  0  0
  192.3480  172.8040  142.4090 C   0  0  0  0  0  2  0  0  0  0  0  0
  194.0080  174.4920  140.5810 C   0  0  2  0  0  3  0  0  0  0  0  0
  194.0760  175.7750  141.1300 O   0  0  0  0  0  1  0  0  0  0  0  0
  192.5600  174.1240  140.2630 C   0  0  0  0  0  2  0  0  0  0  0  0
  196.1390  173.6930  141.8540 C   0  0  1  0  0  3  0  0  0  0  0  0
  194.6600  173.4380  141.4980 C   0  0  1  0  0  3  0  0  0  0  0  0
  196.9620  174.1480  140.6630 C   0  0  0  0  0  1  0  0  0  0  0  0
  194.8030  175.0800  146.4810 C   0  0  0  0  0  2  0  0  0  0  0  0
  194.0430  176.3450  146.0760 C   0  0  1  0  0  3  0  0  0  0  0  0
  193.9000  176.5270  144.5590 C   0  0  0  0  0  2  0  0  0  0  0  0
  195.5560  174.1040  144.2370 C   0  0  2  0  0  3  0  0  0  0  0  0
  193.2710  175.3310  143.8430 C   0  0  0  0  0  2  0  0  0  0  0  0
  194.0390  173.9950  143.9610 C   0  0  1  0  0  3  0  0  0  0  0  0
  192.6970  176.4050  146.7820 C   0  0  0  0  0  2  0  0  0  0  0  0
  191.4250  175.2810  148.1030 O   0  0  0  0  0  1  0  0  0  0  0  0
  192.2690  175.1140  147.1070 O   0  0  0  0  0  0  0  0  0  0  0  0
  190.2670  173.6490  141.2450 C   0  0  0  0  0  2  0  0  0  0  0  0
  187.3250  175.8650  142.1840 C   0  0  0  0  0  3  0  0  0  0  0  0
  189.5960  174.7650  143.3870 C   0  0  0  0  0  3  0  0  0  0  0  0
  186.8210  176.9200  145.8030 C   0  0  1  0  0  3  0  0  0  0  0  0
  186.6490  177.0260  144.2840 C   0  0  0  0  0  2  0  0  0  0  0  0
  187.5750  176.1080  143.5360 C   0  0  0  0  0  0  0  0  0  0  0  0
  189.0130  175.7480  145.6040 C   0  0  0  0  0  2  0  0  0  0  0  0
  188.7360  175.5710  144.1390 C   0  0  0  0  0  0  0  0  0  0  0  0
  188.2980  176.9660  146.1830 C   0  0  0  0  0  2  0  0  0  0  0  0
  189.3350  174.5150  142.0380 C   0  0  0  0  0  0  0  0  0  0  0  0
  188.1960  175.0660  141.4390 C   0  0  0  0  0  3  0  0  0  0  0  0
  186.0280  178.0000  146.5350 C   0  0  0  0  0  2  0  0  0  0  0  0
  184.5250  177.7720  146.4600 C   0  0  0  0  0  2  0  0  0  0  0  0
  183.9070  178.8580  145.7210 N   0  0  0  0  0  1  0  0  0  0  0  0
  1  5  1  6  0  0  0
  1 17  1  0  0  0  0
  2 12  1  0  0  0  0
  3 15  1  0  0  0  0
  4 21  1  6  0  0  0
  4  5  1  0  0  0  0
  6  7  1  1  0  0  0
  6 10  1  0  0  0  0
  8  6  1  0  0  0  0
  8  4  1  0  0  0  0
  9 11  1  6  0  0  0
  9  3  1  0  0  0  0
 10  9  1  0  0  0  0
 10  1  1  0  0  0  0
 13 12  1  0  0  0  0
 13 18  1  0  0  0  0
 14 13  1  0  0  0  0
 15  2  1  0  0  0  0
 16 17  1  0  0  0  0
 16 14  1  0  0  0  0
 17 15  1  0  0  0  0
 18 20  1  0  0  0  0
 20 19  1  0  0  0  0
 21 30  1  0  0  0  0
 22 26  1  0  0  0  0
 23 28  1  0  0  0  0
 24 29  1  0  0  0  0
 24 32  1  0  0  0  0
 25 24  1  0  0  0  0
 26 28  2  0  0  0  0
 26 25  1  0  0  0  0
 27 29  1  0  0  0  0
 28 27  1  0  0  0  0
 30 23  2  0  0  0  0
 31 30  1  0  0  0  0
 31 22  2  0  0  0  0
 33 32  1  0  0  0  0
 34 33  1  0  0  0  0
M  END
>  <MODEL>
8

>  <REMARK>
 VINA RESULT:      -7.7      3.578      8.463
  Name = 
  6 active torsions:
  status: ('A' for Active; 'I' for Inactive)
    1  A    between atoms: C_3  and  O_24
    2  A    between atoms: C_3  and  C_25
    3  A    between atoms: C_7  and  C_11
    4  A    between atoms: C_8  and  C_18
    5  A    between atoms: C_11  and  C_15
    6  A    between atoms: C_18  and  C_30
                            x       y       z     vdW  Elec       q    Type
                         _______ _______ _______ _____ _____    ______ ____

>  <TORSDO>
F 6

$$$$
=
 OpenBabel11052420363D

 34 38  0  0  1  0  0  0  0  0999 V2000
  189.6120  174.4200  146.0230 C   0  0  1  0  0  3  0  0  0  0  0  0
  187.1050  177.3800  146.6820 C   0  0  0  0  0  2  0  0  0  0  0  0
  189.6020  177.1880  147.0760 C   0  0  0  0  0  2  0  0  0  0  0  0
  190.7800  173.7260  143.8820 C   0  0  1  0  0  3  0  0  0  0  0  0
  189.8440  173.2950  145.0120 C   0  0  0  0  0  2  0  0  0  0  0  0
  191.9030  175.4350  145.3640 C   0  0  2  0  0  3  0  0  0  0  0  0
  191.4810  176.5560  144.6460 O   0  0  0  0  0  1  0  0  0  0  0  0
  192.1120  174.2480  144.4260 C   0  0  0  0  0  2  0  0  0  0  0  0
  190.6720  176.1990  147.5320 C   0  0  1  0  0  3  0  0  0  0  0  0
  190.9270  175.0790  146.5030 C   0  0  1  0  0  3  0  0  0  0  0  0
  191.9410  176.9260  147.9390 C   0  0  0  0  0  1  0  0  0  0  0  0
  186.1330  176.9980  145.5640 C   0  0  0  0  0  2  0  0  0  0  0  0
  186.6150  177.5120  144.2060 C   0  0  1  0  0  3  0  0  0  0  0  0
  188.1330  177.4130  144.0050 C   0  0  0  0  0  2  0  0  0  0  0  0
  188.3110  176.4310  146.7840 C   0  0  2  0  0  3  0  0  0  0  0  0
  188.7010  176.0100  144.2240 C   0  0  0  0  0  2  0  0  0  0  0  0
  188.4990  175.4130  145.6360 C   0  0  1  0  0  3  0  0  0  0  0  0
  185.8500  176.8340  143.0800 C   0  0  0  0  0  2  0  0  0  0  0  0
  185.2080  178.8490  142.6880 O   0  0  0  0  0  1  0  0  0  0  0  0
  184.7510  177.6150  142.7090 O   0  0  0  0  0  0  0  0  0  0  0  0
  190.9740  172.6090  142.8550 C   0  0  0  0  0  2  0  0  0  0  0  0
  188.5180  173.4220  140.0700 C   0  0  0  0  0  3  0  0  0  0  0  0
  191.2710  173.0720  140.4100 C   0  0  0  0  0  3  0  0  0  0  0  0
  189.8040  174.3360  136.6100 C   0  0  1  0  0  3  0  0  0  0  0  0
  188.7680  173.8430  137.6260 C   0  0  0  0  0  2  0  0  0  0  0  0
  189.3720  173.5740  138.9760 C   0  0  0  0  0  0  0  0  0  0  0  0
  191.7270  173.5920  138.0130 C   0  0  0  0  0  2  0  0  0  0  0  0
  190.7620  173.3740  139.1430 C   0  0  0  0  0  0  0  0  0  0  0  0
  191.0560  173.4640  136.6480 C   0  0  0  0  0  2  0  0  0  0  0  0
  190.4130  172.9330  141.5030 C   0  0  0  0  0  0  0  0  0  0  0  0
  189.0350  173.1100  141.3300 C   0  0  0  0  0  3  0  0  0  0  0  0
  189.2210  174.4060  135.2010 C   0  0  0  0  0  2  0  0  0  0  0  0
  188.4380  175.6880  134.9560 C   0  0  0  0  0  2  0  0  0  0  0  0
  189.3630  176.7910  134.7670 N   0  0  0  0  0  1  0  0  0  0  0  0
  1  5  1  6  0  0  0
  1 10  1  0  0  0  0
  2 15  1  0  0  0  0
  3  9  1  0  0  0  0
  4 21  1  6  0  0  0
  4  8  1  0  0  0  0
  4  5  1  0  0  0  0
  6  7  1  6  0  0  0
  6 10  1  0  0  0  0
  8  6  1  0  0  0  0
  9 11  1  6  0  0  0
 10  9  1  0  0  0  0
 12  2  1  0  0  0  0
 13 12  1  0  0  0  0
 14 13  1  0  0  0  0
 14 16  1  0  0  0  0
 15  3  1  0  0  0  0
 16 17  1  0  0  0  0
 17  1  1  0  0  0  0
 17 15  1  0  0  0  0
 18 13  1  0  0  0  0
 19 20  1  0  0  0  0
 20 18  1  0  0  0  0
 22 31  1  0  0  0  0
 23 30  1  0  0  0  0
 24 29  1  0  0  0  0
 24 25  1  0  0  0  0
 25 26  1  0  0  0  0
 26 28  1  0  0  0  0
 26 22  2  0  0  0  0
 27 28  1  0  0  0  0
 28 23  2  0  0  0  0
 29 27  1  0  0  0  0
 30 21  1  0  0  0  0
 31 30  2  0  0  0  0
 32 24  1  0  0  0  0
 33 32  1  0  0  0  0
 34 33  1  0  0  0  0
M  END
>  <MODEL>
9

>  <REMARK>
 VINA RESULT:      -7.7      3.810      6.629
  Name = 
  6 active torsions:
  status: ('A' for Active; 'I' for Inactive)
    1  A    between atoms: C_3  and  O_24
    2  A    between atoms: C_3  and  C_25
    3  A    between atoms: C_7  and  C_11
    4  A    between atoms: C_8  and  C_18
    5  A    between atoms: C_11  and  C_15
    6  A    between atoms: C_18  and  C_30
                            x       y       z     vdW  Elec       q    Type
                         _______ _______ _______ _____ _____    ______ ____

>  <TORSDO>
F 6

$$$$
