=
 OpenBabel11052418153D

 28 31  0  0  1  0  0  0  0  0999 V2000
  190.8130  177.0480  144.9970 C   0  0  2  0  0  3  0  0  0  0  0  0
  186.6030  177.6450  142.0990 C   0  0  0  0  0  3  0  0  0  0  0  0
  187.3850  178.4510  148.2450 C   0  0  0  0  0  1  0  0  0  0  0  0
  184.8500  178.1490  143.6720 C   0  0  0  0  0  0  0  0  0  0  0  0
  187.1240  177.7680  144.4540 C   0  0  0  0  0  0  0  0  0  0  0  0
  184.3680  178.1630  141.2590 C   0  0  0  0  0  0  0  0  0  0  0  0
  186.1990  177.9040  143.4240 C   0  0  0  0  0  0  0  0  0  0  0  0
  185.3030  177.9940  146.0640 C   0  0  0  0  0  3  0  0  0  0  0  0
  183.9470  178.3780  142.6070 C   0  0  0  0  0  3  0  0  0  0  0  0
  188.9530  177.4790  146.5960 C   0  0  0  0  0  0  0  0  0  0  0  0
  188.4310  177.5110  144.2750 C   0  0  0  0  0  3  0  0  0  0  0  0
  184.4080  178.2580  145.0220 C   0  0  0  0  0  3  0  0  0  0  0  0
  191.0560  176.2910  147.4270 C   0  0  0  0  0  2  0  0  0  0  0  0
  187.6280  177.8090  146.8520 C   0  0  0  0  0  0  0  0  0  0  0  0
  190.0520  177.3600  147.6560 C   0  0  0  0  0  2  0  0  0  0  0  0
  183.5120  178.2280  140.1770 O   0  0  0  0  0  1  0  0  0  0  0  0
  185.7160  177.7460  141.0480 C   0  0  0  0  0  3  0  0  0  0  0  0
  186.6400  177.8840  145.8090 C   0  0  0  0  0  0  0  0  0  0  0  0
  191.6850  176.4810  146.1300 C   0  0  0  0  0  2  0  0  0  0  0  0
  189.3510  177.2960  145.2780 C   0  0  0  0  0  0  0  0  0  0  0  0
  191.2470  176.3790  143.6870 C   0  0  0  0  0  2  0  0  0  0  0  0
  192.4040  175.3620  143.8750 C   0  0  0  0  0  2  0  0  0  0  0  0
  191.9280  174.3200  142.8910 C   0  0  0  0  0  2  0  0  0  0  0  0
  188.3970  174.3100  142.2900 C   0  0  0  0  0  1  0  0  0  0  0  0
  190.7170  173.4680  143.3920 N   0  0  0  0  0  0  0  0  0  0  0  0
  188.7530  172.1090  143.0940 O   0  0  0  0  0  0  0  0  0  0  0  0
  189.3240  173.2270  142.9180 C   0  0  0  0  0  0  0  0  0  0  0  0
  191.1930  172.5780  144.3030 C   0  0  0  0  0  1  0  0  0  0  0  0
  1 21  1  6  0  0  0
  1 20  1  0  0  0  0
  1 19  1  0  0  0  0
  2  7  1  0  0  0  0
  4 12  1  0  0  0  0
  5 18  1  0  0  0  0
  6  9  2  0  0  0  0
  7  4  2  0  0  0  0
  7  5  1  0  0  0  0
  9  4  1  0  0  0  0
 10 14  1  0  0  0  0
 10 15  1  0  0  0  0
 11  5  2  0  0  0  0
 11 20  1  0  0  0  0
 12  8  2  0  0  0  0
 13 15  1  0  0  0  0
 14  3  1  0  0  0  0
 16  6  1  0  0  0  0
 17  6  1  0  0  0  0
 17  2  2  0  0  0  0
 18  8  1  0  0  0  0
 18 14  2  0  0  0  0
 19 13  1  0  0  0  0
 20 10  2  0  0  0  0
 21 22  1  0  0  0  0
 23 25  1  0  0  0  0
 23 22  1  0  0  0  0
 24 27  1  0  0  0  0
 25 28  1  0  0  0  0
 27 26  2  0  0  0  0
 27 25  1  0  0  0  0
M  END
>  <MODEL>
1

>  <REMARK>
 VINA RESULT:      -7.9      0.000      0.000
  Name = 
  4 active torsions:
  status: ('A' for Active; 'I' for Inactive)
    1  A    between atoms: C_1  and  C_2
    2  A    between atoms: C_2  and  C_7
    3  A    between atoms: N_6  and  C_28
    4  A    between atoms: C_7  and  C_28
                            x       y       z     vdW  Elec       q    Type
                         _______ _______ _______ _____ _____    ______ ____

>  <TORSDO>
F 4

$$$$
=
 OpenBabel11052418153D

 28 31  0  0  1  0  0  0  0  0999 V2000
  193.2180  176.3460  143.8550 C   0  0  2  0  0  3  0  0  0  0  0  0
  188.3610  177.7260  142.8580 C   0  0  0  0  0  3  0  0  0  0  0  0
  191.2540  176.9170  148.3370 C   0  0  0  0  0  1  0  0  0  0  0  0
  187.3060  177.8340  145.0200 C   0  0  0  0  0  0  0  0  0  0  0  0
  189.6570  177.2330  144.8350 C   0  0  0  0  0  0  0  0  0  0  0  0
  186.0400  178.4740  143.0090 C   0  0  0  0  0  0  0  0  0  0  0  0
  188.4580  177.6420  144.2610 C   0  0  0  0  0  0  0  0  0  0  0  0
  188.5220  177.0650  146.9900 C   0  0  0  0  0  3  0  0  0  0  0  0
  186.1240  178.3420  144.4290 C   0  0  0  0  0  3  0  0  0  0  0  0
  192.0630  176.3790  146.0610 C   0  0  0  0  0  0  0  0  0  0  0  0
  190.7930  177.0120  144.1510 C   0  0  0  0  0  3  0  0  0  0  0  0
  187.3600  177.6000  146.4240 C   0  0  0  0  0  3  0  0  0  0  0  0
  194.1870  174.9870  145.7910 C   0  0  0  0  0  2  0  0  0  0  0  0
  190.9440  176.6510  146.8380 C   0  0  0  0  0  0  0  0  0  0  0  0
  193.4370  175.9770  146.6040 C   0  0  0  0  0  2  0  0  0  0  0  0
  184.8800  178.8260  142.3470 O   0  0  0  0  0  1  0  0  0  0  0  0
  187.1860  178.1050  142.2430 C   0  0  0  0  0  3  0  0  0  0  0  0
  189.6750  177.0040  146.2600 C   0  0  0  0  0  0  0  0  0  0  0  0
  194.3580  175.4950  144.4390 C   0  0  0  0  0  2  0  0  0  0  0  0
  191.9700  176.5340  144.6840 C   0  0  0  0  0  0  0  0  0  0  0  0
  193.1110  176.0290  142.3580 C   0  0  0  0  0  2  0  0  0  0  0  0
  193.0610  174.5080  142.0580 C   0  0  0  0  0  2  0  0  0  0  0  0
  191.6020  174.4180  141.6770 C   0  0  0  0  0  2  0  0  0  0  0  0
  190.2420  173.3340  144.8080 C   0  0  0  0  0  1  0  0  0  0  0  0
  190.8820  173.1290  142.1900 N   0  0  0  0  0  0  0  0  0  0  0  0
  189.1010  171.9300  143.2780 O   0  0  0  0  0  0  0  0  0  0  0  0
  190.0270  172.7900  143.3650 C   0  0  0  0  0  0  0  0  0  0  0  0
  190.8480  172.2430  141.1600 C   0  0  0  0  0  1  0  0  0  0  0  0
  1 21  1  6  0  0  0
  1 19  1  0  0  0  0
  1 20  1  0  0  0  0
  2  7  1  0  0  0  0
  4 12  1  0  0  0  0
  5 18  1  0  0  0  0
  6  9  2  0  0  0  0
  7  5  1  0  0  0  0
  7  4  2  0  0  0  0
  9  4  1  0  0  0  0
 10 15  1  0  0  0  0
 10 14  1  0  0  0  0
 11 20  1  0  0  0  0
 11  5  2  0  0  0  0
 12  8  2  0  0  0  0
 13 15  1  0  0  0  0
 14  3  1  0  0  0  0
 16  6  1  0  0  0  0
 17  2  2  0  0  0  0
 17  6  1  0  0  0  0
 18 14  2  0  0  0  0
 18  8  1  0  0  0  0
 19 13  1  0  0  0  0
 20 10  2  0  0  0  0
 22 21  1  0  0  0  0
 23 22  1  0  0  0  0
 23 25  1  0  0  0  0
 25 27  1  0  0  0  0
 26 27  2  0  0  0  0
 27 24  1  0  0  0  0
 28 25  1  0  0  0  0
M  END
>  <MODEL>
2

>  <REMARK>
 VINA RESULT:      -7.9      1.406      2.797
  Name = 
  4 active torsions:
  status: ('A' for Active; 'I' for Inactive)
    1  A    between atoms: C_1  and  C_2
    2  A    between atoms: C_2  and  C_7
    3  A    between atoms: N_6  and  C_28
    4  A    between atoms: C_7  and  C_28
                            x       y       z     vdW  Elec       q    Type
                         _______ _______ _______ _____ _____    ______ ____

>  <TORSDO>
F 4

$$$$
=
 OpenBabel11052418153D

 28 31  0  0  1  0  0  0  0  0999 V2000
  190.6120  176.9900  145.0570 C   0  0  2  0  0  3  0  0  0  0  0  0
  186.4170  177.6300  142.1450 C   0  0  0  0  0  3  0  0  0  0  0  0
  187.2360  178.6010  148.2630 C   0  0  0  0  0  1  0  0  0  0  0  0
  184.6840  178.2380  143.7040 C   0  0  0  0  0  0  0  0  0  0  0  0
  186.9460  177.8100  144.4950 C   0  0  0  0  0  0  0  0  0  0  0  0
  184.1980  178.1930  141.2920 C   0  0  0  0  0  0  0  0  0  0  0  0
  186.0240  177.9430  143.4620 C   0  0  0  0  0  0  0  0  0  0  0  0
  185.1360  178.1430  146.0990 C   0  0  0  0  0  3  0  0  0  0  0  0
  183.7860  178.4630  142.6340 C   0  0  0  0  0  3  0  0  0  0  0  0
  188.7700  177.5300  146.6440 C   0  0  0  0  0  0  0  0  0  0  0  0
  188.2440  177.5060  144.3230 C   0  0  0  0  0  3  0  0  0  0  0  0
  184.2480  178.4030  145.0500 C   0  0  0  0  0  3  0  0  0  0  0  0
  190.8350  176.3010  147.5090 C   0  0  0  0  0  2  0  0  0  0  0  0
  187.4560  177.9090  146.8900 C   0  0  0  0  0  0  0  0  0  0  0  0
  189.8660  177.4080  147.7050 C   0  0  0  0  0  2  0  0  0  0  0  0
  183.3420  178.2520  140.2100 O   0  0  0  0  0  1  0  0  0  0  0  0
  185.5310  177.7270  141.0930 C   0  0  0  0  0  3  0  0  0  0  0  0
  186.4690  177.9820  145.8460 C   0  0  0  0  0  0  0  0  0  0  0  0
  191.4680  176.4310  146.2060 C   0  0  0  0  0  2  0  0  0  0  0  0
  189.1590  177.2930  145.3310 C   0  0  0  0  0  0  0  0  0  0  0  0
  191.0220  176.2680  143.7680 C   0  0  0  0  0  2  0  0  0  0  0  0
  192.2420  175.3280  143.9560 C   0  0  0  0  0  2  0  0  0  0  0  0
  193.2030  176.0470  143.0390 C   0  0  0  0  0  2  0  0  0  0  0  0
  194.9110  175.5530  146.1480 C   0  0  0  0  0  1  0  0  0  0  0  0
  194.6990  175.9700  143.4860 N   0  0  0  0  0  0  0  0  0  0  0  0
  196.5830  174.9480  144.5810 O   0  0  0  0  0  0  0  0  0  0  0  0
  195.4210  175.4450  144.6800 C   0  0  0  0  0  0  0  0  0  0  0  0
  195.4650  176.2050  142.3880 C   0  0  0  0  0  1  0  0  0  0  0  0
  1 21  1  6  0  0  0
  1 20  1  0  0  0  0
  1 19  1  0  0  0  0
  2  7  1  0  0  0  0
  4 12  1  0  0  0  0
  5 18  1  0  0  0  0
  6  9  2  0  0  0  0
  7  4  2  0  0  0  0
  7  5  1  0  0  0  0
  9  4  1  0  0  0  0
 10 14  1  0  0  0  0
 10 15  1  0  0  0  0
 11  5  2  0  0  0  0
 11 20  1  0  0  0  0
 12  8  2  0  0  0  0
 13 15  1  0  0  0  0
 14  3  1  0  0  0  0
 16  6  1  0  0  0  0
 17  6  1  0  0  0  0
 17  2  2  0  0  0  0
 18  8  1  0  0  0  0
 18 14  2  0  0  0  0
 19 13  1  0  0  0  0
 20 10  2  0  0  0  0
 21 22  1  0  0  0  0
 23 25  1  0  0  0  0
 23 22  1  0  0  0  0
 25 27  1  0  0  0  0
 26 27  2  0  0  0  0
 27 24  1  0  0  0  0
 28 25  1  0  0  0  0
M  END
>  <MODEL>
3

>  <REMARK>
 VINA RESULT:      -7.8      2.166      2.918
  Name = 
  4 active torsions:
  status: ('A' for Active; 'I' for Inactive)
    1  A    between atoms: C_1  and  C_2
    2  A    between atoms: C_2  and  C_7
    3  A    between atoms: N_6  and  C_28
    4  A    between atoms: C_7  and  C_28
                            x       y       z     vdW  Elec       q    Type
                         _______ _______ _______ _____ _____    ______ ____

>  <TORSDO>
F 4

$$$$
=
 OpenBabel11052418153D

 28 31  0  0  1  0  0  0  0  0999 V2000
  188.8310  173.3690  142.2650 C   0  0  2  0  0  3  0  0  0  0  0  0
  187.0290  176.7420  145.7090 C   0  0  0  0  0  3  0  0  0  0  0  0
  186.7650  176.8580  139.4670 C   0  0  0  0  0  1  0  0  0  0  0  0
  186.1740  178.5630  144.3840 C   0  0  0  0  0  0  0  0  0  0  0  0
  187.1640  176.6210  143.3000 C   0  0  0  0  0  0  0  0  0  0  0  0
  185.9130  178.6040  146.8310 C   0  0  0  0  0  0  0  0  0  0  0  0
  186.7430  177.2930  144.4430 C   0  0  0  0  0  0  0  0  0  0  0  0
  186.5620  178.5810  141.9760 C   0  0  0  0  0  3  0  0  0  0  0  0
  185.6670  179.1860  145.5490 C   0  0  0  0  0  3  0  0  0  0  0  0
  188.0200  175.3140  140.9380 C   0  0  0  0  0  0  0  0  0  0  0  0
  187.7370  175.4050  143.3000 C   0  0  0  0  0  3  0  0  0  0  0  0
  186.0240  179.1910  143.1140 C   0  0  0  0  0  3  0  0  0  0  0  0
  189.7480  173.7410  139.9080 C   0  0  0  0  0  2  0  0  0  0  0  0
  187.3760  176.5430  140.8600 C   0  0  0  0  0  0  0  0  0  0  0  0
  188.4710  174.4770  139.7380 C   0  0  0  0  0  2  0  0  0  0  0  0
  185.5760  179.2190  148.0210 O   0  0  0  0  0  1  0  0  0  0  0  0
  186.6500  177.3830  146.8700 C   0  0  0  0  0  3  0  0  0  0  0  0
  186.9980  177.2870  142.0310 C   0  0  0  0  0  0  0  0  0  0  0  0
  189.6590  172.8700  141.0700 C   0  0  0  0  0  2  0  0  0  0  0  0
  188.2310  174.7520  142.1910 C   0  0  0  0  0  0  0  0  0  0  0  0
  189.5200  172.8920  143.5490 C   0  0  0  0  0  2  0  0  0  0  0  0
  190.9050  173.5530  143.7800 C   0  0  0  0  0  2  0  0  0  0  0  0
  190.6580  174.0770  145.1740 C   0  0  0  0  0  2  0  0  0  0  0  0
  191.2040  176.8010  142.9150 C   0  0  0  0  0  1  0  0  0  0  0  0
  190.8150  175.6250  145.3170 N   0  0  0  0  0  0  0  0  0  0  0  0
  190.2850  177.9140  144.7940 O   0  0  0  0  0  0  0  0  0  0  0  0
  190.7090  176.7900  144.3920 C   0  0  0  0  0  0  0  0  0  0  0  0
  190.7720  175.9190  146.6440 C   0  0  0  0  0  1  0  0  0  0  0  0
  1 21  1  1  0  0  0
  2 17  1  0  0  0  0
  3 14  1  0  0  0  0
  4  7  1  0  0  0  0
  4  9  2  0  0  0  0
  5  7  1  0  0  0  0
  6 17  2  0  0  0  0
  6 16  1  0  0  0  0
  7  2  2  0  0  0  0
  8 18  1  0  0  0  0
  8 12  2  0  0  0  0
  9  6  1  0  0  0  0
 10 20  1  0  0  0  0
 11  5  1  0  0  0  0
 12  4  1  0  0  0  0
 13 19  1  0  0  0  0
 14 10  2  0  0  0  0
 14 18  1  0  0  0  0
 15 13  1  0  0  0  0
 15 10  1  0  0  0  0
 18  5  2  0  0  0  0
 19  1  1  0  0  0  0
 20  1  1  0  0  0  0
 20 11  2  0  0  0  0
 21 22  1  0  0  0  0
 22 23  1  0  0  0  0
 23 25  1  0  0  0  0
 24 27  1  0  0  0  0
 25 28  1  0  0  0  0
 27 26  2  0  0  0  0
 27 25  1  0  0  0  0
M  END
>  <MODEL>
4

>  <REMARK>
 VINA RESULT:      -7.7      2.454      5.057
  Name = 
  4 active torsions:
  status: ('A' for Active; 'I' for Inactive)
    1  A    between atoms: C_1  and  C_2
    2  A    between atoms: C_2  and  C_7
    3  A    between atoms: N_6  and  C_28
    4  A    between atoms: C_7  and  C_28
                            x       y       z     vdW  Elec       q    Type
                         _______ _______ _______ _____ _____    ______ ____

>  <TORSDO>
F 4

$$$$
=
 OpenBabel11052418153D

 28 31  0  0  1  0  0  0  0  0999 V2000
  188.5020  175.9170  144.2030 C   0  0  2  0  0  3  0  0  0  0  0  0
  193.3100  176.2140  142.3920 C   0  0  0  0  0  3  0  0  0  0  0  0
  191.2730  175.3960  148.2420 C   0  0  0  0  0  1  0  0  0  0  0  0
  194.7020  176.1520  144.3560 C   0  0  0  0  0  0  0  0  0  0  0  0
  192.2800  176.0310  144.5690 C   0  0  0  0  0  0  0  0  0  0  0  0
  195.7380  176.1910  142.1240 C   0  0  0  0  0  0  0  0  0  0  0  0
  193.4310  176.0830  143.7900 C   0  0  0  0  0  0  0  0  0  0  0  0
  193.6700  176.2580  146.5640 C   0  0  0  0  0  3  0  0  0  0  0  0
  195.8610  176.1070  143.5460 C   0  0  0  0  0  3  0  0  0  0  0  0
  189.9740  175.9520  146.2110 C   0  0  0  0  0  0  0  0  0  0  0  0
  191.0300  175.9840  144.0780 C   0  0  0  0  0  3  0  0  0  0  0  0
  194.8220  176.1760  145.7760 C   0  0  0  0  0  3  0  0  0  0  0  0
  187.5310  176.6580  146.4490 C   0  0  0  0  0  2  0  0  0  0  0  0
  191.2390  175.9340  146.7850 C   0  0  0  0  0  0  0  0  0  0  0  0
  188.6550  175.8460  146.9800 C   0  0  0  0  0  2  0  0  0  0  0  0
  196.8220  176.2940  141.2740 O   0  0  0  0  0  1  0  0  0  0  0  0
  194.4230  176.2900  141.5810 C   0  0  0  0  0  3  0  0  0  0  0  0
  192.4400  176.0590  146.0030 C   0  0  0  0  0  0  0  0  0  0  0  0
  187.2850  176.3000  145.0600 C   0  0  0  0  0  2  0  0  0  0  0  0
  189.8730  176.0100  144.8260 C   0  0  0  0  0  0  0  0  0  0  0  0
  188.2610  176.4410  142.7810 C   0  0  0  0  0  2  0  0  0  0  0  0
  188.0020  177.9700  142.7300 C   0  0  0  0  0  2  0  0  0  0  0  0
  187.8170  178.1010  141.2370 C   0  0  0  0  0  2  0  0  0  0  0  0
  184.5400  178.2140  142.6780 C   0  0  0  0  0  1  0  0  0  0  0  0
  186.3710  177.7820  140.7370 N   0  0  0  0  0  0  0  0  0  0  0  0
  184.0480  178.2870  140.3610 O   0  0  0  0  0  0  0  0  0  0  0  0
  184.9940  178.1300  141.1900 C   0  0  0  0  0  0  0  0  0  0  0  0
  186.4740  177.3100  139.4660 C   0  0  0  0  0  1  0  0  0  0  0  0
  1 21  1  6  0  0  0
  1 20  1  0  0  0  0
  1 19  1  0  0  0  0
  2  7  1  0  0  0  0
  4 12  1  0  0  0  0
  5 18  1  0  0  0  0
  6  9  2  0  0  0  0
  7  4  2  0  0  0  0
  7  5  1  0  0  0  0
  9  4  1  0  0  0  0
 10 14  1  0  0  0  0
 10 15  1  0  0  0  0
 11  5  2  0  0  0  0
 11 20  1  0  0  0  0
 12  8  2  0  0  0  0
 13 15  1  0  0  0  0
 14  3  1  0  0  0  0
 16  6  1  0  0  0  0
 17  6  1  0  0  0  0
 17  2  2  0  0  0  0
 18  8  1  0  0  0  0
 18 14  2  0  0  0  0
 19 13  1  0  0  0  0
 20 10  2  0  0  0  0
 22 21  1  0  0  0  0
 23 22  1  0  0  0  0
 25 27  1  0  0  0  0
 25 23  1  0  0  0  0
 26 27  2  0  0  0  0
 27 24  1  0  0  0  0
 28 25  1  0  0  0  0
M  END
>  <MODEL>
5

>  <REMARK>
 VINA RESULT:      -7.4      2.834      7.145
  Name = 
  4 active torsions:
  status: ('A' for Active; 'I' for Inactive)
    1  A    between atoms: C_1  and  C_2
    2  A    between atoms: C_2  and  C_7
    3  A    between atoms: N_6  and  C_28
    4  A    between atoms: C_7  and  C_28
                            x       y       z     vdW  Elec       q    Type
                         _______ _______ _______ _____ _____    ______ ____

>  <TORSDO>
F 4

$$$$
=
 OpenBabel11052418153D

 28 31  0  0  1  0  0  0  0  0999 V2000
  187.1070  177.8170  142.8490 C   0  0  2  0  0  3  0  0  0  0  0  0
  191.8540  176.3030  144.1370 C   0  0  0  0  0  3  0  0  0  0  0  0
  186.9400  177.6110  147.7680 C   0  0  0  0  0  1  0  0  0  0  0  0
  191.8790  176.3690  146.5450 C   0  0  0  0  0  0  0  0  0  0  0  0
  189.8620  176.9780  145.3250 C   0  0  0  0  0  0  0  0  0  0  0  0
  193.8500  175.5450  145.3250 C   0  0  0  0  0  0  0  0  0  0  0  0
  191.1710  176.5080  145.3530 C   0  0  0  0  0  0  0  0  0  0  0  0
  189.9750  177.3190  147.7400 C   0  0  0  0  0  3  0  0  0  0  0  0
  193.1740  175.7990  146.5580 C   0  0  0  0  0  3  0  0  0  0  0  0
  187.2060  177.9610  145.3330 C   0  0  0  0  0  0  0  0  0  0  0  0
  189.1390  177.1520  144.2050 C   0  0  0  0  0  3  0  0  0  0  0  0
  191.2410  176.7240  147.7690 C   0  0  0  0  0  3  0  0  0  0  0  0
  185.4680  179.3480  144.0760 C   0  0  0  0  0  2  0  0  0  0  0  0
  187.8720  177.7450  146.5330 C   0  0  0  0  0  0  0  0  0  0  0  0
  185.7530  178.4240  145.2020 C   0  0  0  0  0  2  0  0  0  0  0  0
  195.1640  175.1240  145.2530 O   0  0  0  0  0  1  0  0  0  0  0  0
  193.1590  175.8590  144.1170 C   0  0  0  0  0  3  0  0  0  0  0  0
  189.2480  177.3290  146.5830 C   0  0  0  0  0  0  0  0  0  0  0  0
  185.8680  178.7270  142.8230 C   0  0  0  0  0  2  0  0  0  0  0  0
  187.8710  177.6870  144.1440 C   0  0  0  0  0  0  0  0  0  0  0  0
  187.8580  178.0020  141.5240 C   0  0  0  0  0  2  0  0  0  0  0  0
  187.5380  176.8980  140.4820 C   0  0  0  0  0  2  0  0  0  0  0  0
  187.3930  175.7410  141.4410 C   0  0  0  0  0  2  0  0  0  0  0  0
  189.3680  173.6020  143.5270 C   0  0  0  0  0  1  0  0  0  0  0  0
  188.4020  174.5720  141.1960 N   0  0  0  0  0  0  0  0  0  0  0  0
  189.2580  172.3460  141.5200 O   0  0  0  0  0  0  0  0  0  0  0  0
  188.9670  173.4700  142.0270 C   0  0  0  0  0  0  0  0  0  0  0  0
  188.5450  174.4310  139.8520 C   0  0  0  0  0  1  0  0  0  0  0  0
  1 21  1  6  0  0  0
  1 20  1  0  0  0  0
  2  7  1  0  0  0  0
  4  9  1  0  0  0  0
  4 12  1  0  0  0  0
  5  7  1  0  0  0  0
  5 18  1  0  0  0  0
  6  9  2  0  0  0  0
  7  4  2  0  0  0  0
  8 12  2  0  0  0  0
 10 14  1  0  0  0  0
 11  5  2  0  0  0  0
 13 15  1  0  0  0  0
 14 18  2  0  0  0  0
 14  3  1  0  0  0  0
 15 10  1  0  0  0  0
 16  6  1  0  0  0  0
 17  2  2  0  0  0  0
 17  6  1  0  0  0  0
 18  8  1  0  0  0  0
 19  1  1  0  0  0  0
 19 13  1  0  0  0  0
 20 11  1  0  0  0  0
 20 10  2  0  0  0  0
 22 23  1  0  0  0  0
 22 21  1  0  0  0  0
 25 23  1  0  0  0  0
 25 27  1  0  0  0  0
 26 27  2  0  0  0  0
 27 24  1  0  0  0  0
 28 25  1  0  0  0  0
M  END
>  <MODEL>
6

>  <REMARK>
 VINA RESULT:      -7.4      2.083      5.884
  Name = 
  4 active torsions:
  status: ('A' for Active; 'I' for Inactive)
    1  A    between atoms: C_1  and  C_2
    2  A    between atoms: C_2  and  C_7
    3  A    between atoms: N_6  and  C_28
    4  A    between atoms: C_7  and  C_28
                            x       y       z     vdW  Elec       q    Type
                         _______ _______ _______ _____ _____    ______ ____

>  <TORSDO>
F 4

$$$$
=
 OpenBabel11052418153D

 28 31  0  0  1  0  0  0  0  0999 V2000
  185.5560  178.0710  143.2610 C   0  0  2  0  0  3  0  0  0  0  0  0
  190.6070  177.0890  143.2590 C   0  0  0  0  0  3  0  0  0  0  0  0
  186.4750  176.8290  147.9380 C   0  0  0  0  0  1  0  0  0  0  0  0
  191.1420  176.6590  145.5670 C   0  0  0  0  0  0  0  0  0  0  0  0
  188.8550  177.1820  144.9180 C   0  0  0  0  0  0  0  0  0  0  0  0
  192.8840  176.4260  143.8450 C   0  0  0  0  0  0  0  0  0  0  0  0
  190.1830  176.9290  144.5930 C   0  0  0  0  0  0  0  0  0  0  0  0
  189.4460  177.0290  147.2820 C   0  0  0  0  0  3  0  0  0  0  0  0
  192.4650  176.3100  145.2070 C   0  0  0  0  0  3  0  0  0  0  0  0
  186.1700  177.7120  145.6470 C   0  0  0  0  0  0  0  0  0  0  0  0
  187.8930  177.4680  144.0240 C   0  0  0  0  0  3  0  0  0  0  0  0
  190.7470  176.6480  146.9360 C   0  0  0  0  0  3  0  0  0  0  0  0
  184.0580  179.0380  145.0940 C   0  0  0  0  0  2  0  0  0  0  0  0
  187.0990  177.3600  146.6180 C   0  0  0  0  0  0  0  0  0  0  0  0
  184.6800  177.9570  145.9000 C   0  0  0  0  0  2  0  0  0  0  0  0
  194.1900  176.2410  143.4360 O   0  0  0  0  0  1  0  0  0  0  0  0
  191.9190  176.8700  142.8940 C   0  0  0  0  0  3  0  0  0  0  0  0
  188.4910  177.1640  146.3150 C   0  0  0  0  0  0  0  0  0  0  0  0
  184.2460  178.7610  143.6780 C   0  0  0  0  0  2  0  0  0  0  0  0
  186.5900  177.7970  144.3260 C   0  0  0  0  0  0  0  0  0  0  0  0
  185.9770  178.6430  141.9010 C   0  0  0  0  0  2  0  0  0  0  0  0
  185.8130  177.6310  140.7360 C   0  0  0  0  0  2  0  0  0  0  0  0
  187.2580  177.2070  140.6220 C   0  0  0  0  0  2  0  0  0  0  0  0
  186.4170  176.0410  137.3420 C   0  0  0  0  0  1  0  0  0  0  0  0
  187.4790  175.8820  139.8220 N   0  0  0  0  0  0  0  0  0  0  0  0
  188.2010  174.5930  137.9220 O   0  0  0  0  0  0  0  0  0  0  0  0
  187.4400  175.4960  138.3820 C   0  0  0  0  0  0  0  0  0  0  0  0
  188.0970  175.0020  140.6530 C   0  0  0  0  0  1  0  0  0  0  0  0
  1 21  1  6  0  0  0
  1 19  1  0  0  0  0
  1 20  1  0  0  0  0
  2  7  1  0  0  0  0
  4 12  1  0  0  0  0
  5 18  1  0  0  0  0
  6  9  2  0  0  0  0
  7  5  1  0  0  0  0
  7  4  2  0  0  0  0
  9  4  1  0  0  0  0
 10 15  1  0  0  0  0
 10 14  1  0  0  0  0
 11 20  1  0  0  0  0
 11  5  2  0  0  0  0
 12  8  2  0  0  0  0
 13 15  1  0  0  0  0
 14  3  1  0  0  0  0
 16  6  1  0  0  0  0
 17  2  2  0  0  0  0
 17  6  1  0  0  0  0
 18 14  2  0  0  0  0
 18  8  1  0  0  0  0
 19 13  1  0  0  0  0
 20 10  2  0  0  0  0
 22 21  1  0  0  0  0
 23 22  1  0  0  0  0
 24 27  1  0  0  0  0
 25 23  1  0  0  0  0
 25 28  1  0  0  0  0
 26 27  2  0  0  0  0
 27 25  1  0  0  0  0
M  END
>  <MODEL>
7

>  <REMARK>
 VINA RESULT:      -7.4      2.424      5.941
  Name = 
  4 active torsions:
  status: ('A' for Active; 'I' for Inactive)
    1  A    between atoms: C_1  and  C_2
    2  A    between atoms: C_2  and  C_7
    3  A    between atoms: N_6  and  C_28
    4  A    between atoms: C_7  and  C_28
                            x       y       z     vdW  Elec       q    Type
                         _______ _______ _______ _____ _____    ______ ____

>  <TORSDO>
F 4

$$$$
=
 OpenBabel11052418153D

 28 31  0  0  1  0  0  0  0  0999 V2000
  191.5540  174.3330  144.7710 C   0  0  2  0  0  3  0  0  0  0  0  0
  187.4650  176.9240  146.5160 C   0  0  0  0  0  3  0  0  0  0  0  0
  188.5120  174.4040  140.8960 C   0  0  0  0  0  1  0  0  0  0  0  0
  186.0260  177.1490  144.5980 C   0  0  0  0  0  0  0  0  0  0  0  0
  188.1520  175.9800  144.4020 C   0  0  0  0  0  0  0  0  0  0  0  0
  185.2770  177.9770  146.7920 C   0  0  0  0  0  0  0  0  0  0  0  0
  187.1920  176.6380  145.1640 C   0  0  0  0  0  0  0  0  0  0  0  0
  186.8330  176.4550  142.4030 C   0  0  0  0  0  3  0  0  0  0  0  0
  185.0200  177.7290  145.4080 C   0  0  0  0  0  3  0  0  0  0  0  0
  190.0790  174.6700  142.7930 C   0  0  0  0  0  0  0  0  0  0  0  0
  189.3030  175.4850  144.8900 C   0  0  0  0  0  3  0  0  0  0  0  0
  185.8160  176.9970  143.1970 C   0  0  0  0  0  3  0  0  0  0  0  0
  192.5670  174.2240  142.4260 C   0  0  0  0  0  2  0  0  0  0  0  0
  188.8820  175.1000  142.2350 C   0  0  0  0  0  0  0  0  0  0  0  0
  191.1690  173.8940  142.0500 C   0  0  0  0  0  2  0  0  0  0  0  0
  184.4060  178.6640  147.6140 O   0  0  0  0  0  1  0  0  0  0  0  0
  186.5520  177.5930  147.3050 C   0  0  0  0  0  3  0  0  0  0  0  0
  187.9070  175.8450  142.9860 C   0  0  0  0  0  0  0  0  0  0  0  0
  192.7490  174.0210  143.8550 C   0  0  0  0  0  2  0  0  0  0  0  0
  190.3030  174.8990  144.1450 C   0  0  0  0  0  0  0  0  0  0  0  0
  192.1010  174.9230  146.0760 C   0  0  0  0  0  2  0  0  0  0  0  0
  192.8170  176.2850  145.8780 C   0  0  0  0  0  2  0  0  0  0  0  0
  194.1360  175.9230  146.5160 C   0  0  0  0  0  2  0  0  0  0  0  0
  196.8040  173.5600  146.1660 C   0  0  0  0  0  1  0  0  0  0  0  0
  195.3050  175.7080  145.5000 N   0  0  0  0  0  0  0  0  0  0  0  0
  196.6270  174.4120  143.9620 O   0  0  0  0  0  0  0  0  0  0  0  0
  196.2030  174.5710  145.1450 C   0  0  0  0  0  0  0  0  0  0  0  0
  195.2570  176.7260  144.6010 C   0  0  0  0  0  1  0  0  0  0  0  0
  1 21  1  1  0  0  0
  2 17  1  0  0  0  0
  3 14  1  0  0  0  0
  4  7  1  0  0  0  0
  4  9  2  0  0  0  0
  5 11  1  0  0  0  0
  5  7  1  0  0  0  0
  6 17  2  0  0  0  0
  6 16  1  0  0  0  0
  7  2  2  0  0  0  0
  8 18  1  0  0  0  0
  8 12  2  0  0  0  0
  9  6  1  0  0  0  0
 10 20  1  0  0  0  0
 12  4  1  0  0  0  0
 13 19  1  0  0  0  0
 14 10  2  0  0  0  0
 14 18  1  0  0  0  0
 15 13  1  0  0  0  0
 15 10  1  0  0  0  0
 18  5  2  0  0  0  0
 19  1  1  0  0  0  0
 20  1  1  0  0  0  0
 20 11  2  0  0  0  0
 22 21  1  0  0  0  0
 22 23  1  0  0  0  0
 25 23  1  0  0  0  0
 26 27  2  0  0  0  0
 27 25  1  0  0  0  0
 27 24  1  0  0  0  0
 28 25  1  0  0  0  0
M  END
>  <MODEL>
8

>  <REMARK>
 VINA RESULT:      -7.3      3.011      5.182
  Name = 
  4 active torsions:
  status: ('A' for Active; 'I' for Inactive)
    1  A    between atoms: C_1  and  C_2
    2  A    between atoms: C_2  and  C_7
    3  A    between atoms: N_6  and  C_28
    4  A    between atoms: C_7  and  C_28
                            x       y       z     vdW  Elec       q    Type
                         _______ _______ _______ _____ _____    ______ ____

>  <TORSDO>
F 4

$$$$
=
 OpenBabel11052418153D

 28 31  0  0  1  0  0  0  0  0999 V2000
  191.2450  175.7680  143.8680 C   0  0  2  0  0  3  0  0  0  0  0  0
  186.4040  177.2300  142.9190 C   0  0  0  0  0  3  0  0  0  0  0  0
  189.8890  177.9950  148.0480 C   0  0  0  0  0  1  0  0  0  0  0  0
  185.6310  178.1590  145.0030 C   0  0  0  0  0  0  0  0  0  0  0  0
  187.8980  177.2920  144.8150 C   0  0  0  0  0  0  0  0  0  0  0  0
  184.1720  178.2200  143.0220 C   0  0  0  0  0  0  0  0  0  0  0  0
  186.6670  177.6080  144.2510 C   0  0  0  0  0  0  0  0  0  0  0  0
  187.0270  177.9660  146.9940 C   0  0  0  0  0  3  0  0  0  0  0  0
  184.4220  178.5600  144.3880 C   0  0  0  0  0  3  0  0  0  0  0  0
  190.3750  176.6510  146.0280 C   0  0  0  0  0  0  0  0  0  0  0  0
  188.9240  176.7410  144.1440 C   0  0  0  0  0  3  0  0  0  0  0  0
  185.8420  178.4000  146.3910 C   0  0  0  0  0  3  0  0  0  0  0  0
  192.3550  175.0370  146.0520 C   0  0  0  0  0  2  0  0  0  0  0  0
  189.3800  177.2780  146.7670 C   0  0  0  0  0  0  0  0  0  0  0  0
  191.7760  176.3120  146.5450 C   0  0  0  0  0  2  0  0  0  0  0  0
  182.9650  178.4510  142.3910 O   0  0  0  0  0  1  0  0  0  0  0  0
  185.1890  177.5030  142.3250 C   0  0  0  0  0  3  0  0  0  0  0  0
  188.0760  177.5490  146.2240 C   0  0  0  0  0  0  0  0  0  0  0  0
  192.3910  175.0470  144.5980 C   0  0  0  0  0  2  0  0  0  0  0  0
  190.1250  176.3480  144.6960 C   0  0  0  0  0  0  0  0  0  0  0  0
  190.9350  174.9850  142.5860 C   0  0  0  0  0  2  0  0  0  0  0  0
  190.3560  173.5720  142.8600 C   0  0  0  0  0  2  0  0  0  0  0  0
  189.1120  173.6880  142.0110 C   0  0  0  0  0  2  0  0  0  0  0  0
  190.9590  171.0990  140.3640 C   0  0  0  0  0  1  0  0  0  0  0  0
  189.2980  173.2250  140.5300 N   0  0  0  0  0  0  0  0  0  0  0  0
  189.2980  171.6030  138.7510 O   0  0  0  0  0  0  0  0  0  0  0  0
  189.7760  171.9800  139.8620 C   0  0  0  0  0  0  0  0  0  0  0  0
  188.6040  174.0880  139.7420 C   0  0  0  0  0  1  0  0  0  0  0  0
  1 21  1  6  0  0  0
  1 19  1  0  0  0  0
  1 20  1  0  0  0  0
  2  7  1  0  0  0  0
  4 12  1  0  0  0  0
  5 18  1  0  0  0  0
  6  9  2  0  0  0  0
  7  5  1  0  0  0  0
  7  4  2  0  0  0  0
  9  4  1  0  0  0  0
 10 15  1  0  0  0  0
 10 14  1  0  0  0  0
 11 20  1  0  0  0  0
 11  5  2  0  0  0  0
 12  8  2  0  0  0  0
 13 15  1  0  0  0  0
 14  3  1  0  0  0  0
 16  6  1  0  0  0  0
 17  2  2  0  0  0  0
 17  6  1  0  0  0  0
 18 14  2  0  0  0  0
 18  8  1  0  0  0  0
 19 13  1  0  0  0  0
 20 10  2  0  0  0  0
 21 22  1  0  0  0  0
 23 22  1  0  0  0  0
 25 23  1  0  0  0  0
 26 27  2  0  0  0  0
 27 24  1  0  0  0  0
 27 25  1  0  0  0  0
 28 25  1  0  0  0  0
M  END
>  <MODEL>
9

>  <REMARK>
 VINA RESULT:      -7.1      1.744      2.501
  Name = 
  4 active torsions:
  status: ('A' for Active; 'I' for Inactive)
    1  A    between atoms: C_1  and  C_2
    2  A    between atoms: C_2  and  C_7
    3  A    between atoms: N_6  and  C_28
    4  A    between atoms: C_7  and  C_28
                            x       y       z     vdW  Elec       q    Type
                         _______ _______ _______ _____ _____    ______ ____

>  <TORSDO>
F 4

$$$$
